#------------------------------------------------------------------------------
#$Date: 2019-11-03 15:18:08 +0200 (Sun, 03 Nov 2019) $
#$Revision: 221736 $
#$URL: file:///home/coder/svn-repositories/cod/cif/4/12/86/4128655.cif $
#------------------------------------------------------------------------------
#
# This file is available in the Crystallography Open Database (COD),
# http://www.crystallography.net/
#
# All data on this site have been placed in the public domain by the
# contributors.
#
data_4128655
loop_
_publ_author_name
'Chen, Zhijie'
'Li, Penghao'
'Wang, Xingjie'
'Otake, Ken-Ichi'
'Zhang, Xuan'
'Robison, Lee'
'Atilgan, Ahmet'
'Islamoglu, Timur'
'Hall, Morgan G.'
'Peterson, Gregory W.'
'Stoddart, J. Fraser'
'Farha, Omar K.'
_publ_section_title
;
 Ligand-Directed Reticular Synthesis of Catalytically Active Missing
 Zirconium-Based Metal-Organic Frameworks.
;
_journal_issue                   31
_journal_name_full               'Journal of the American Chemical Society'
_journal_page_first              12229
_journal_page_last               12235
_journal_paper_doi               10.1021/jacs.9b06179
_journal_volume                  141
_journal_year                    2019
_chemical_formula_moiety         'C88.50 H45.20 O36 Zr6'
_chemical_formula_sum            'C88.5 H45.2 O36 Zr6'
_chemical_formula_weight         2231.76
_space_group_crystal_system      monoclinic
_space_group_IT_number           10
_space_group_name_Hall           '-P 2y'
_space_group_name_H-M_alt        'P 1 2/m 1'
_atom_sites_solution_hydrogens   geom
_audit_creation_method           SHELXL-2018/3
_audit_update_record
;
2019-04-09 deposited with the CCDC.	2019-04-09 downloaded from the CCDC.
;
_cell_angle_alpha                90
_cell_angle_beta                 119.975(2)
_cell_angle_gamma                90
_cell_formula_units_Z            1
_cell_length_a                   21.6317(10)
_cell_length_b                   12.2815(5)
_cell_length_c                   21.6273(10)
_cell_measurement_reflns_used    6089
_cell_measurement_temperature    100(2)
_cell_measurement_theta_max      55.71
_cell_measurement_theta_min      2.36
_cell_volume                     4977.2(4)
_computing_cell_refinement       'Bruker SAINT'
_computing_data_collection       'Bruker APEX2'
_computing_data_reduction        'Bruker SAINT'
_computing_publication_material  'Yadokari-XG (Wakita, Nemoto et al., 2009)'
_computing_structure_refinement  'SHELXL-2018/3 (Sheldrick, 2018)'
_computing_structure_solution    'SHELXT 2014/4 (Sheldrick, 2014)'
_diffrn_ambient_temperature      100(2)
_diffrn_measured_fraction_theta_full 0.922
_diffrn_measured_fraction_theta_max 0.922
_diffrn_measurement_device_type  'Bruker Kappa APEX-II CCD area detector'
_diffrn_measurement_method       '\f and \w scans'
_diffrn_radiation_monochromator  'MX optics'
_diffrn_radiation_type           CuK\a
_diffrn_radiation_wavelength     1.54178
_diffrn_reflns_av_R_equivalents  0.0461
_diffrn_reflns_av_unetI/netI     0.0448
_diffrn_reflns_Laue_measured_fraction_full 0.922
_diffrn_reflns_Laue_measured_fraction_max 0.922
_diffrn_reflns_limit_h_max       21
_diffrn_reflns_limit_h_min       -19
_diffrn_reflns_limit_k_max       12
_diffrn_reflns_limit_k_min       -12
_diffrn_reflns_limit_l_max       22
_diffrn_reflns_limit_l_min       -22
_diffrn_reflns_number            16957
_diffrn_reflns_point_group_measured_fraction_full 0.922
_diffrn_reflns_point_group_measured_fraction_max 0.922
_diffrn_reflns_theta_full        54.224
_diffrn_reflns_theta_max         54.224
_diffrn_reflns_theta_min         2.358
_diffrn_source                   microsource
_exptl_absorpt_coefficient_mu    2.827
_exptl_absorpt_correction_T_max  1.0000
_exptl_absorpt_correction_T_min  0.7636
_exptl_absorpt_correction_type   multi-scan
_exptl_absorpt_process_details   '(SADABS-2014/5; Krause et al., 2015)'
_exptl_crystal_colour            colorless
_exptl_crystal_density_diffrn    0.745
_exptl_crystal_description       block
_exptl_crystal_F_000             1104
_exptl_crystal_size_max          0.10
_exptl_crystal_size_mid          0.06
_exptl_crystal_size_min          0.06
_refine_diff_density_max         0.617
_refine_diff_density_min         -0.889
_refine_diff_density_rms         0.111
_refine_ls_extinction_method     none
_refine_ls_goodness_of_fit_ref   1.748
_refine_ls_hydrogen_treatment    constr
_refine_ls_matrix_type           full
_refine_ls_number_parameters     559
_refine_ls_number_reflns         5932
_refine_ls_number_restraints     1613
_refine_ls_restrained_S_all      1.671
_refine_ls_R_factor_all          0.1602
_refine_ls_R_factor_gt           0.1328
_refine_ls_shift/su_max          0.000
_refine_ls_shift/su_mean         0.000
_refine_ls_structure_factor_coef Fsqd
_refine_ls_weighting_details
'w=1/[\s^2^(Fo^2^)+(0.2000P)^2^] where P=(Fo^2^+2Fc^2^)/3'
_refine_ls_weighting_scheme      calc
_refine_ls_wR_factor_gt          0.3947
_refine_ls_wR_factor_ref         0.4298
_reflns_Friedel_coverage         0.000
_reflns_number_gt                4046
_reflns_number_total             5932
_reflns_threshold_expression     'I > 2\s(I)'
_cod_data_source_file            ja9b06179_si_002.cif
_cod_data_source_block           NU-1600
_cod_original_sg_symbol_H-M      'P 2/m'
_cod_original_formula_sum        'C88.50 H45.20 O36 Zr6'
_cod_database_code               4128655
_shelx_shelxl_version_number     2018/3
_shelx_space_group_comment
;
The symmetry employed for this shelxl refinement is uniquely defined
by the following loop, which should always be used as a source of
symmetry information in preference to the above space-group names.
They are only intended as comments.
;
_shelx_res_file
;
TITL P2m_a.res in P2/m
    p2m_a_sq.res
    created by SHELXL-2018/3 at 16:35:33 on 09-Apr-2019
REM  Yadorkari-X generated
CELL 1.54178 21.6317 12.2815 21.6273 90.0000 119.9750 90.0000
ZERR 1.0 0.0010 0.0005 0.0010 0.0000 0.0020 0.0000
LATT 1
SYMM -X, +Y, -Z
REM  SPGR P2/m monoclinic
SFAC C H O Zr
UNIT 88.5 45.2 36 6
TEMP -173.1
L.S. 50
FMAP 2
PLAN -15
ACTA
CONF
LIST 4
BOND $H
MERG 2
OMIT   -4    1    1
OMIT    1    3    2
OMIT   -1    1    3
OMIT    0    1    6
OMIT   -3    1    4
OMIT   -8    5    5
OMIT   -8    5    3
OMIT    0    0    3
OMIT   -2    3    3
OMIT   -1    1    4
OMIT   -2    2    2
OMIT    1    1    3

fmap 2
ISOR 0.03 0.06
RIGU 0.03 0.06
SIMU 0.04 0.08
SADI 0.02 C1  C3  C1  C7  C21  C17  C21  C19  C31  C29  C31  C27
SADI 0.02 C5  C4  C5  C4B  C5   C6  C5  C6B
SADI 0.02 C2  C3  C2  C3B  C2   C7  C2  C7B
SADI 0.02 C3  C4  C3B  C4B  C6  C7  C6B  C7B
SADI 0.02 C3  C3B  C4  C4B  C6  C6B  C7  C7B
SADI 0.02 C2  C4B  C2  C6B  C5  C3B  C5  C7B
SADI 0.02 C3B  C7B  C4B  C6B  C3  C7  C4  C6
SADI 0.02 C18  C17  C18  C17B  C18  C19  C18 C19B
SADI 0.02 C15  C16  C15  C16B  C15  C20  C15  C20B
SADI 0.02 C25  C26  C25  C26B  C25  C30  C25  C30B
SADI 0.02 C28  C27  C28  C27B  C28  C29  C28  C29B
SADI 0.02 C26  C27  C26B  C27B  C29  C30  C29B  C30B
SADI 0.02 C26  C30B  C29  C29B  C26  C26B  C27  C27B
SADI 0.02 C26B  C30  C26  C30B  C27B  C29  C27  C29B
SADI 0.02 C28  O7Z  C28  O8Z
SADI 0.02 C21  O7X  C21  O8X  C1  O7Y  C1  O8Y  C31  O7Z  C31  O8Z
SADI 0.02 C1  O3X  C1  O4X  C31  O5X  C31  O6X
SADI 0.02 C21  O5Y  C21  O6Y  C31  O3Y  C31  O4Y
SADI 0.02 C1  O3Z  C1  O4Z  C21  O5Z  C21  O6Z
SADI 0.02 Zr2X O1X  Zr2Y  O1Y  Zr2Z  O1Z
SADI 0.02 Zr1X O2X  Zr1X  O2AX  Zr1Y  O1Y  Zr1Y  O1AY Zr1Z  O2Z  Zr1Z  O2AZ
SADI 0.02 O1X O2X O1Y O2Y O2Z O2AZ
FLAT 0.01 C2  C3B  C4B  C5  C6B  C7B
FLAT 0.01 C15  C16B  C17B  C18  C19B  C20B
FLAT 0.01 C25  C26  C27  C28  C29  C30
FLAT 0.01 C25  C26B  C27B  C28  C29B  C30B
FLAT 0.02 O7X O8X C21 C18
FLAT 0.02 C18  C21  O5Z  O6Z
FLAT 0.02 C28  C31  O3Y  O4Y
FLAT 0.02 C18  C21  O5Y  O6Y
FLAT 0.02 C28  C31  O7Z  O8Z
FLAT 0.02 C1  C2  O7Y  O8Y
FLAT 0.02 C1  C2  O3X  O4X
ABIN

WGHT    0.200000
FVAR       0.28845   0.70625
C1    1    0.895877    0.680606    0.100629    21.00000    0.09066    0.13118 =
         0.11933   -0.00336    0.07562   -0.01539
C2    1    0.864851    0.750891    0.137483    21.00000    0.16927    0.12151 =
         0.14614    0.01766    0.08570   -0.01272
PART 4
C3    1    0.884953    0.737680    0.206995    20.50000    0.15537    0.12627 =
         0.14492    0.00525    0.08141    0.00909
AFIX  43
H3    2    0.921048    0.686524    0.235403    20.50000   -1.20000
AFIX   0
C4    1    0.851751    0.800836    0.237449    20.50000    0.13902    0.12073 =
         0.13437   -0.00875    0.08078    0.00702
AFIX  43
H4    2    0.864757    0.790069    0.285961    20.50000   -1.20000
PART 0
AFIX   0
C5    1    0.800935    0.877417    0.197189    21.00000    0.13972    0.10752 =
         0.14077   -0.00539    0.08838    0.00591
PART 4
C6    1    0.771817    0.876750    0.123671    20.50000    0.17091    0.14275 =
         0.14536   -0.00238    0.09362    0.02456
AFIX  43
H6    2    0.727495    0.911423    0.093328    20.50000   -1.20000
AFIX   0
C7    1    0.809965    0.822893    0.094906    20.50000    0.15137    0.15299 =
         0.14039    0.00442    0.10823    0.02227
AFIX  43
H7    2    0.798166    0.835836    0.046927    20.50000   -1.20000
PART 5
AFIX   0
C3B   1    0.905069    0.827832    0.189651    20.50000    0.15881    0.14260 =
         0.15331   -0.01479    0.10267    0.00102
AFIX  43
H3B   2    0.954217    0.837457    0.204921    20.50000   -1.20000
AFIX   0
C4B   1    0.872199    0.891545    0.219734    20.50000    0.17357    0.15342 =
         0.15902   -0.01029    0.08327   -0.01380
AFIX  43
H4B   2    0.899302    0.943988    0.255440    20.50000   -1.20000
AFIX   0
C6B   1    0.761616    0.801214    0.146047    20.50000    0.15347    0.11656 =
         0.13217   -0.00236    0.08556    0.00817
AFIX  43
H6B   2    0.712505    0.791396    0.130878    20.50000   -1.20000
AFIX   0
C7B   1    0.794674    0.736616    0.115627    20.50000    0.14512    0.11328 =
         0.14274   -0.00037    0.08563   -0.00290
AFIX  43
H7B   2    0.767577    0.683816    0.080194    20.50000   -1.20000
PART 0
AFIX   0
C8    1    0.768685    0.943689    0.231594    21.00000    0.11814    0.10363 =
         0.11848   -0.00370    0.07602    0.00058
C9    1    0.734406    0.884217    0.264377    21.00000    0.10832    0.09099 =
         0.10688    0.00482    0.05895    0.00001
AFIX  43
H9    2    0.734019    0.806870    0.263796    21.00000   -1.20000
AFIX   0
C10   1    0.702530    0.939756    0.296234    21.00000    0.07770    0.07814 =
         0.06950   -0.00444    0.03664    0.00083
C11   1    0.667970    0.895447    0.333751    21.00000    0.09293    0.07326 =
         0.09050    0.00474    0.03845    0.00398
AFIX  13
H11   2    0.667950    0.814024    0.333797    21.00000   -1.20000
AFIX   0
C12   1    0.593084    0.941712    0.296759    21.00000    0.08532    0.07368 =
         0.06940   -0.00610    0.03587   -0.01042
C13   1    0.529377    0.884700    0.265824    21.00000    0.11029    0.07338 =
         0.10888   -0.00050    0.04649    0.00435
AFIX  43
H13   2    0.529699    0.807356    0.266528    21.00000   -1.20000
AFIX   0
C14   1    0.463100    0.942321    0.232815    21.00000    0.10233    0.08984 =
         0.13509   -0.00370    0.05567   -0.00746
C15   1    0.398909    0.878218    0.198338    21.00000    0.10812    0.10601 =
         0.15033   -0.00354    0.04707    0.00388
PART 4
C16   1    0.384926    0.798368    0.237998    20.50000    0.11344    0.12602 =
         0.13420    0.00115    0.06303   -0.01607
AFIX  43
H16   2    0.416858    0.791401    0.287844    20.50000   -1.20000
AFIX   0
C17   1    0.326531    0.731942    0.205561    20.50000    0.13995    0.11930 =
         0.14826    0.00354    0.05377   -0.02461
AFIX  43
H17   2    0.321243    0.672386    0.230572    20.50000   -1.20000
PART 0
AFIX   0
C18   1    0.276235    0.752881    0.136826    21.00000    0.15946    0.12219 =
         0.14940    0.00469    0.06208   -0.00362
PART 4
C19   1    0.284680    0.819840    0.090272    20.50000    0.13078    0.11060 =
         0.14124    0.02001    0.04729   -0.02029
AFIX  43
H19   2    0.248577    0.829986    0.041935    20.50000   -1.20000
AFIX   0
C20   1    0.353368    0.873086    0.121692    20.50000    0.13004    0.12536 =
         0.15330   -0.00287    0.05198   -0.02395
AFIX  43
H20   2    0.368762    0.905052    0.091674    20.50000   -1.20000
PART 5
AFIX   0
C16B  1    0.347042    0.887169    0.220925    20.50000    0.13383    0.14441 =
         0.16418   -0.02192    0.04669   -0.02008
AFIX  43
H16B  2    0.354338    0.936927    0.257604    20.50000   -1.20000
AFIX   0
C17B  1    0.288807    0.825676    0.190394    20.50000    0.13154    0.13377 =
         0.16066   -0.03290    0.05142   -0.02446
AFIX  43
H17B  2    0.254875    0.832000    0.205876    20.50000   -1.20000
AFIX   0
C19B  1    0.321993    0.737236    0.111705    20.50000    0.12048    0.10430 =
         0.14667   -0.03289    0.06517   -0.01020
AFIX  43
H19B  2    0.313683    0.686359    0.075258    20.50000   -1.20000
AFIX   0
C20B  1    0.379463    0.800276    0.143282    20.50000    0.12334    0.10432 =
         0.14462   -0.01814    0.05407    0.01064
AFIX  43
H20B  2    0.412308    0.791956    0.126570    20.50000   -1.20000
PART 0
AFIX   0
C21   1    0.206072    0.679108    0.101684    21.00000    0.09446    0.12916 =
         0.11517    0.00447    0.04188    0.02317
C22   1    0.703723    0.941531    0.408233    21.00000    0.08980    0.07349 =
         0.06806    0.00613    0.03729    0.00077
C23   1    0.735099    0.885774    0.470561    21.00000    0.13530    0.09382 =
         0.07268   -0.00232    0.04113    0.00275
AFIX  43
H23   2    0.735826    0.808440    0.470205    21.00000   -1.20000
AFIX   0
C24   1    0.766899    0.942779    0.536420    21.00000    0.14686    0.09832 =
         0.07193    0.00577    0.03664    0.00080
C25   1    0.801260    0.874272    0.604213    21.00000    0.13582    0.10481 =
         0.09955    0.00307    0.04239    0.01326
PART 4
C26   1    0.874070    0.885962    0.651858    20.50000    0.15465    0.13102 =
         0.10531    0.00376    0.02751    0.01278
AFIX  43
H26   2    0.901417    0.937242    0.642719    20.50000   -1.20000
AFIX   0
C27   1    0.906187    0.821821    0.712829    20.50000    0.15769    0.14292 =
         0.10580    0.01921    0.05358   -0.00819
AFIX  43
H27   2    0.955840    0.829688    0.745310    20.50000   -1.20000
PART 0
AFIX   0
C28   1    0.867182    0.746133    0.727434    21.00000    0.14904    0.13027 =
         0.12528   -0.01306    0.05295   -0.01662
PART 4
C29   1    0.796046    0.738681    0.678334    20.50000    0.14409    0.11406 =
         0.12486    0.01977    0.03880   -0.01666
AFIX  43
H29   2    0.768538    0.687196    0.687097    20.50000   -1.20000
AFIX   0
C30   1    0.761079    0.800914    0.616575    20.50000    0.15720    0.11825 =
         0.10825    0.02492    0.05563   -0.02769
AFIX  43
H30   2    0.711390    0.792855    0.584317    20.50000   -1.20000
PART 5
AFIX   0
C26B  1    0.853766    0.799585    0.615869    20.50000    0.13210    0.12287 =
         0.10778    0.00816    0.04781    0.03521
AFIX  43
H26B  2    0.867703    0.791988    0.580821    20.50000   -1.20000
AFIX   0
C27B  1    0.886881    0.735412    0.676457    20.50000    0.14348    0.10727 =
         0.11477    0.00639    0.04473    0.01392
AFIX  43
H27B  2    0.922710    0.684694    0.682688    20.50000   -1.20000
AFIX   0
C29B  1    0.813341    0.822999    0.712986    20.50000    0.17074    0.13881 =
         0.10342    0.00728    0.03351    0.00793
AFIX  43
H29B  2    0.799195    0.830794    0.747865    20.50000   -1.20000
AFIX   0
C30B  1    0.779152    0.887993    0.653334    20.50000    0.17090    0.11851 =
         0.11279   -0.00231    0.05745    0.00929
AFIX  43
H30B  2    0.743033    0.938490    0.646594    20.50000   -1.20000
PART 0
AFIX   0
C31   1    0.900818    0.682745    0.795496    21.00000    0.12489    0.12155 =
         0.06748   -0.01836    0.04457   -0.00204
C32   1   11.000000   10.842200   10.000000    10.25000    0.14980
PART 1
ZR1X  4    0.905253    0.643224   -0.047039    10.33333    0.13757    0.09915 =
         0.07738    0.01766    0.06357    0.03532
ZR2X  4    1.000230    0.500000    0.115527    10.16667    0.10965    0.06856 =
         0.06752    0.00000    0.05436    0.00000
O1X   3    0.990239    0.642454    0.052625    10.33333    0.10640
O2X   3    0.907499    0.500000    0.007622    10.16667    0.09035
O2AX  3    0.912779    0.500000   -0.096565    10.16667    0.06159
O3X   3    0.913247    0.598912    0.124108    10.33333    0.09831
O4X   3    0.902027    0.705659    0.051244    10.33333    0.18139
O5X   3    0.925381    0.603744    0.794680    10.33333    0.10139
O6X   3    0.878503    0.700975    0.835047    10.33333    0.14731
O7X   3    0.166148    0.690213    0.143900    10.33333    0.14249
O8X   3    0.194659    0.617433    0.037331    10.33333    0.20942
O9X   3    0.920428    0.813844   -0.038917    10.33333    0.17189    0.09660 =
         0.12589    0.03315    0.08607    0.03186
PART 2
ZR1Y  4    0.952628    0.643287    0.047163    10.33333    0.08634    0.09789 =
         0.07852   -0.01394    0.01284    0.02067
ZR2Y  4    0.884416    0.500000   -0.115381    10.16667    0.06893    0.06925 =
         0.06688    0.00000    0.00835    0.00000
O1Y   3    0.903358    0.500000   -0.008541    10.16667    0.07996
O1AY  3    1.009454    0.500000    0.095800    10.16667    0.07872
O2Y   3    0.940507    0.644564   -0.052907    10.33333    0.09596
O3Y   3    0.877318    0.599103    0.791664    10.33333    0.09691
O4Y   3    0.949975    0.723652    0.849246    10.33333    0.18751
O5Y   3    0.159377    0.710195    0.039868    10.33333    0.13718
O6Y   3    0.204068    0.605771    0.133673    10.33333    0.09316
O7Y   3    0.963436    0.622254    0.150884    10.33333    0.17395
O8Y   3    0.849177    0.687496    0.019520    10.33333    0.14904
O9Y   3    0.959265    0.811355    0.038406    10.33333    0.17348    0.09897 =
         0.13309   -0.00020    0.06586    0.04056
PART 3
ZR1Z  4    1.046320    0.644284    0.093270    10.33333    0.08742    0.09776 =
         0.13171   -0.03210    0.06465   -0.01603
ZR2Z  4    0.884524    0.500000    0.000403    10.16667    0.07835    0.06834 =
         0.09761    0.00000    0.05302    0.00000
O1Z   3    0.943647    0.639335   -0.000995    10.33333    0.11964
O2Z   3    0.993600    0.500000    0.095406    10.16667    0.08160
O2AZ  3    1.102128    0.500000    0.097459    10.16667    0.09477
O3Z   3    0.868752    0.608133    0.074348    10.33333    0.08695
O4Z   3    0.954456    0.704834    0.123725    10.33333    0.14705
O5Z   3    0.211102    0.600075    0.087860    10.33333    0.09918
O6Z   3    0.161883    0.729464    0.099109    10.33333    0.20532
O7Z   3    0.851059    0.622756    0.812248    10.33333    0.18139
O8Z   3    0.983348    0.691249    0.837280    10.33333    0.14233
O9Z   3    1.041361    0.812413    0.080123    10.33333    0.13961
PART 0

HKLF 4 1 1 0 0 0 1 0 0 0 1




REM  P2m_a.res in P2/m
REM wR2 = 0.4298, GooF = S = 1.748, Restrained GooF = 1.671 for all data
REM R1 = 0.1328 for 4046 Fo > 4sig(Fo) and 0.1602 for all 5932 data
REM 559 parameters refined using 1613 restraints

END

WGHT      0.2000      0.0000

REM Highest difference peak  0.617,  deepest hole -0.889,  1-sigma level  0.111
Q1    1   0.2190  0.6262  0.1131  11.00000  0.05    0.62
Q2    1   1.0009  0.7090  0.0751  11.00000  0.05    0.44
Q3    1   0.8883  0.6324  0.1061  11.00000  0.05    0.44
Q4    1   0.3570  0.7334  0.2733  11.00000  0.05    0.37
Q5    1   0.8993  0.5000  0.0390  10.50000  0.05    0.34
Q6    1   0.4848  1.0000  0.2657  10.50000  0.05    0.33
Q7    1   0.8222  0.7224  0.1118  11.00000  0.05    0.32
Q8    1   0.3083  0.7015  0.1248  11.00000  0.05    0.31
Q9    1   0.4701  1.0000  0.2265  10.50000  0.05    0.31
Q10   1   0.8190  0.7225  0.7085  11.00000  0.05    0.30
Q11   1   0.4822  0.9006  0.2999  11.00000  0.05    0.28
Q12   1   0.7991  0.6160  0.6630  11.00000  0.05    0.28
Q13   1   0.9159  0.8826 -0.0795  11.00000  0.05    0.28
Q14   1   0.3972  0.8172  0.1771  11.00000  0.05    0.27
Q15   1   0.3373  0.9113  0.1191  11.00000  0.05    0.27
;
_shelx_res_checksum              78099
_shelx_hkl_file
;
  -1   0   0    0.00    0.10
   2   0   0 1374.26   75.09
   2   0   0 1280.07   75.19
   2   0   0 1395.06   58.39
  -2   0   0 1308.37   74.99
  -2   0   0 1341.47   74.99
   3   0   0  113.99    7.00
  -3   0   0  103.89    6.80
  -3   0   0   97.39    6.10
   3   0   0  102.99    5.10
   3   0   0  101.59    6.10
   4   0   0  392.06   17.60
   4   0   0  406.26   22.00
   4   0   0  410.66   22.90
  -4   0   0  361.96   21.90
  -4   0   0  388.66   17.70
  -4   0   0  357.56   22.50
   5   0   0  689.73   38.50
   5   0   0  660.13   37.30
   5   0   0  645.14   29.60
  -5   0   0  671.63   37.30
  -5   0   0  636.04   37.90
  -5   0   0  656.33   29.80
  -6   0   0  688.53   43.50
   6   0   0  781.92   34.30
  -6   0   0  757.52   43.00
  -6   0   0  730.23   34.50
   6   0   0  772.22   43.00
   6   0   0  842.02   44.50
   7   0   0   25.40    3.80
  -7   0   0   24.20    2.90
  -7   0   0   24.20    2.40
  -7   0   0   21.20    2.70
   7   0   0   24.90    2.30
   8   0   0    9.50    2.90
  -9   0   0   71.49    4.20
 -10   0   0   48.90    3.10
  11   0   0   24.40    2.20
  12   0   0  111.09    6.60
  13   0   0   57.59    4.00
  14   0   0   26.60    2.70
   0  -1   0 3526.55  163.68
   1  -1   0 4408.16  206.68
   1  -1   0 4658.93  194.28
  -1  -1   0 4309.47  192.98
  -1   1   0 4460.55  248.38
   2  -1   0 1526.55   68.89
   2  -1   0 1558.34   82.59
   2  -1   0 1522.75   83.09
   2  -1   0 1433.56   64.59
  -2  -1   0 1486.95   64.29
  -2   1   0 1470.15   64.59
   2   1   0 1501.25   64.19
  -2   1   0 1296.07   82.59
  -2   1   0 1533.75   82.89
   3  -1   0  305.57   13.90
   3  -1   0  285.57   13.30
   3  -1   0  294.37   16.40
  -3  -1   0  280.57   13.10
  -3   1   0  275.07   13.40
   3   1   0  284.17   13.00
  -3   1   0  297.17   17.30
  -3   1   0  286.97   16.50
   4  -1   0  994.10   53.49
  -4  -1   0  933.11   41.60
   4  -1   0  933.11   41.80
   4  -1   0  993.10   52.89
   4   1   0  791.12   53.29
  -4   1   0  978.60   53.99
  -4   1   0  931.01   42.00
   4   1   0  958.20   52.79
   4   1   0  974.80   41.50
   5  -1   0   69.49    5.10
   5  -1   0   67.69    4.10
  -5  -1   0   63.69    4.00
   5  -1   0   58.19    3.90
  -5   1   0   55.69    4.10
  -5   1   0   58.59    5.70
   5   1   0   62.39    5.60
   5   1   0   62.79    4.20
  -5   1   0   59.29    4.30
   6  -1   0   17.50    2.70
   6  -1   0   15.50    2.20
   6  -1   0   18.80    1.80
  -6  -1   0   19.40    2.30
   6   1   0   14.90    3.40
  -6   1   0   14.70    3.70
  -6   1   0   16.70    2.10
   6   1   0   16.90    1.80
  -6   1   0   18.60    2.50
  -7  -1   0   22.20    2.60
   7  -1   0   25.60    3.20
   7  -1   0   21.00    2.10
   7  -1   0   21.50    2.70
  -7   1   0   19.50    2.40
   7   1   0   23.60    4.00
   7   1   0   24.10    2.20
  -7   1   0   23.90    4.20
  -8  -1   0   28.50    1.90
  -8   1   0   28.80    4.40
   8   1   0   24.70    4.20
  -8   1   0   21.60    2.60
  -9  -1   0  113.89    6.10
  -9   1   0   92.19    7.60
 -10  -1   0   26.00    1.80
  10   1   0   21.10    2.40
 -11  -1   0    3.00    0.70
  11  -1   0    0.20    0.80
  11   1   0    1.40    0.90
 -12  -1   0   42.50    2.80
 -13  -1   0   91.29    5.40
  14   1   0    3.80    1.20
  15   1   0    0.50    0.90
  16   1   0   12.50    2.30
   0  -2   0  917.01   38.30
   0  -2   0  843.72   41.00
   1  -2   0  265.67   12.80
   1  -2   0  269.77   12.10
  -2  -2   0   51.59    2.40
   2  -2   0   51.09    3.00
   2  -2   0   51.59    3.00
  -2   2   0   48.80    3.10
  -2   2   0   49.10    3.30
  -3  -2   0  142.49    6.40
   3  -2   0  134.79    7.80
   3  -2   0  122.59    7.70
   3  -2   0  140.89    6.90
   3  -2   0  139.59    7.00
  -3   2   0  137.29    8.50
  -3   2   0  132.79    8.00
   4  -2   0   93.49    5.60
   4  -2   0   99.99    5.30
   4  -2   0   94.59    5.80
   4  -2   0   91.99    5.20
  -4  -2   0   87.39    4.80
  -4   2   0   89.69    6.80
  -4   2   0   91.49    5.80
   5  -2   0    2.80    0.90
  -5  -2   0    4.30    1.10
   5  -2   0    4.60    1.00
   5  -2   0    2.20    0.90
  -5   2   0    4.70    1.30
  -5   2   0    6.00    2.10
   6  -2   0   10.00    1.80
   6  -2   0    7.50    1.90
   6  -2   0    9.70    1.30
  -6  -2   0   12.20    1.90
  -6   2   0    7.30    1.60
   6   2   0   11.60    2.90
   6   2   0    9.30    1.40
  -6   2   0   10.20    2.70
  -7  -2   0   37.00    2.10
   7  -2   0   31.30    3.10
   7  -2   0   30.30    2.50
  -7  -2   0   32.50    3.00
   7  -2   0   30.70    3.10
   7   2   0   25.50    4.30
  -7   2   0   27.80    2.90
  -7   2   0   29.80    4.90
   7   2   0   30.40    2.70
  -8  -2   0  226.48   11.60
   8  -2   0  199.38   12.50
  -8   2   0  213.08   15.30
   8   2   0  191.28   14.40
  -9  -2   0  353.96   17.90
  -9  -2   0  379.86   20.20
 -10  -2   0  174.28    9.00
 -10  -2   0  151.38    7.90
  10   2   0  152.28    9.10
 -11  -2   0   38.00    2.40
 -11  -2   0   33.10    2.00
  11   2   0   31.20    3.00
 -12  -2   0    3.30    0.90
 -12  -2   0    2.60    0.70
  12   2   0    5.80    1.80
 -13  -2   0   -0.10    0.50
  13   2   0    0.60    0.80
 -14  -2   0    0.60    0.60
  14   2   0   -0.30    0.80
 -15  -2   0    1.60    0.60
  15   2   0    0.50    1.00
  16   2   0    3.30    1.20
  17   2   0   19.10    2.50
   0  -3   0  227.48   11.50
   0  -3   0  249.88   10.80
   1  -3   0  956.00   40.50
  -1  -3   0  857.41   43.00
   1  -3   0  953.40   43.20
   2  -3   0  684.73   28.90
   2  -3   0  639.54   30.60
  -2   3   0  644.34   36.20
  -2   3   0  622.34   36.30
   3  -3   0    4.80    1.20
   3  -3   0    2.30    1.20
  -3  -3   0    1.80    0.50
  -3   3   0    1.30    0.90
  -3   3   0    1.60    0.50
   4  -3   0    1.70    1.30
   4  -3   0    2.80    1.10
  -4  -3   0    5.60    1.20
  -4   3   0    2.20    1.20
  -4   3   0    2.40    0.70
   5  -3   0    2.80    0.70
   5  -3   0    2.70    0.60
   5  -3   0    2.90    1.10
  -5  -3   0    3.80    1.00
  -5   3   0    3.50    1.70
  -5   3   0    2.60    0.80
   6  -3   0   69.19    4.60
   6  -3   0   61.89    4.10
  -6  -3   0   64.09    3.70
   6  -3   0   61.69    4.00
  -6   3   0   60.79    6.20
  -6   3   0   61.39    4.60
  -7  -3   0  335.87   17.20
   7  -3   0  314.87   18.30
   7   3   0  286.77   18.10
  -8  -3   0  641.54   35.10
  -8  -3   0  647.34   31.40
  -9  -3   0  322.07   17.60
  -9  -3   0  318.37   15.70
 -10  -3   0  186.68    9.20
 -10  -3   0  181.78   10.40
  10   3   0  187.88   10.40
 -11  -3   0  149.09    7.40
 -11  -3   0  154.78    8.40
  11   3   0  136.49    8.50
 -12  -3   0   29.80    2.30
 -12  -3   0   37.60    2.00
  12   3   0   30.60    3.10
 -13  -3   0    2.60    0.70
 -13  -3   0    1.40    0.60
  13   3   0    0.90    1.00
 -14  -3   0    2.50    0.70
  14   3   0    1.20    1.00
 -16  -3   0    9.90    1.30
  16   3   0    2.70    1.20
 -17  -3   0    7.70    1.20
  17   3   0    3.00    1.20
  18   3   0    0.80    1.20
   0  -4   0  913.31   39.60
   0  -4   0  891.61   42.50
   1  -4   0  100.09    5.50
  -1  -4   0   96.79    4.50
  -1  -4   0   93.99    5.20
  -1  -4   0   97.09    4.40
   1  -4   0  102.69    5.10
   2  -4   0   34.50    2.50
   2  -4   0   33.10    2.70
  -2  -4   0   30.70    2.20
  -2   4   0   31.50    2.20
  -2   4   0   31.10    2.10
  -3  -4   0   76.79    4.30
   3  -4   0   84.29    4.80
   3  -4   0   83.19    4.90
  -3   4   0   80.09    5.00
  -3   4   0   84.59    5.50
   4  -4   0  130.89    6.80
   4  -4   0  136.79    6.90
   4  -4   0  105.59    6.80
  -4   4   0  111.49    7.30
  -4   4   0  130.29    8.20
   5  -4   0   40.00    3.30
  -5  -4   0   32.50    2.30
   5  -4   0   40.30    2.50
   5  -4   0   43.40    3.50
  -5   4   0   38.40    3.10
   6  -4   0  140.59    7.90
  -6  -4   0  135.09    6.90
   6  -4   0  142.79    8.00
  -6  -4   0  136.99    7.70
  -7  -4   0  802.42   38.50
  -7  -4   0  802.32   43.00
   7  -4   0  766.42   43.20
  -8  -4   0  469.95   23.10
  -8  -4   0  473.35   25.80
  -9  -4   0  321.37   17.30
  -9  -4   0  313.37   15.50
  -9   4   0  307.87   16.60
 -10  -4   0  194.38   10.50
 -10  -4   0  189.38    9.40
  10   4   0  175.08   10.30
 -11  -4   0   43.70    2.50
 -11  -4   0   45.50    2.90
  11   4   0   39.30    3.40
 -12  -4   0   17.10    1.30
 -12  -4   0   16.50    1.50
  12   4   0   13.10    2.40
 -13  -4   0   17.90    1.40
 -13  -4   0   18.20    1.60
  13   4   0   13.60    2.40
 -14  -4   0    4.60    1.00
 -14  -4   0    5.00    1.10
  14   4   0    3.00    1.10
 -15  -4   0   -0.10    0.40
 -15  -4   0    0.00    0.60
  15   4   0    0.30    0.90
 -16  -4   0    7.00    1.20
  16   4   0    2.60    1.10
 -17  -4   0    1.90    0.70
  17   4   0    0.30    0.90
 -18  -4   0    0.30    0.60
  18   4   0   -1.20    0.90
   0  -5   0  321.77   16.10
   0  -5   0  330.27   14.80
   1  -5   0   14.70    2.10
  -1  -5   0   17.70    1.90
   1  -5   0   16.70    1.70
   2  -5   0    3.80    1.00
  -2  -5   0    3.70    1.20
   2  -5   0    4.50    0.70
   2  -5   0    4.20    1.50
  -2   5   0    5.00    0.90
  -3  -5   0    4.50    1.10
   3  -5   0    5.10    1.60
   3  -5   0    3.50    1.10
   3  -5   0    5.20    0.80
  -3   5   0    5.90    1.50
  -4  -5   0   12.10    1.40
   4  -5   0   10.90    1.20
   4  -5   0   14.40    2.20
   4  -5   0   11.80    2.30
  -4   5   0    9.30    1.40
  -5  -5   0    4.60    0.70
   5  -5   0    5.80    1.50
   5  -5   0    5.80    2.00
   5  -5   0    4.90    1.10
  -5   5   0    4.90    1.30
   6  -5   0   71.09    5.10
   6  -5   0   75.99    4.40
  -6  -5   0   67.59    4.10
  -7  -5   0  128.89    6.50
   7  -5   0  132.09    7.60
  -7  -5   0  121.39    7.20
  -7   5   0  130.59    6.90
  -8  -5   0  202.58   10.00
   8  -5   0  195.68   11.60
  -8  -5   0  200.18   11.10
  -8   5   0  204.18   10.70
  -9  -5   0  214.68   10.90
  -9  -5   0  224.28   12.10
  -9   5   0  216.58   11.70
 -10  -5   0   71.89    3.90
 -10  -5   0   75.59    4.30
 -10   5   0   67.59    4.10
 -11  -5   0   40.20    2.40
 -11  -5   0   42.00    2.70
  11   5   0   37.20    3.10
 -12  -5   0   14.30    1.30
 -12  -5   0   13.00    1.30
  12   5   0   15.40    2.40
 -13  -5   0    8.40    1.10
 -13  -5   0    8.10    1.20
  13   5   0    2.80    1.40
 -14  -5   0   15.80    1.40
 -14  -5   0   17.80    1.60
  14   5   0    8.60    2.20
 -15  -5   0    0.30    0.60
 -15  -5   0   -0.10    0.40
  15   5   0    0.00    0.80
 -16  -5   0   -0.40    0.40
 -16  -5   0   -0.20    0.60
  16   5   0   -0.30    0.80
 -17  -5   0    6.40    1.10
  17   5   0    1.10    0.90
  18   5   0    0.80    0.90
   0  -6   0  607.54   26.80
   0  -6   0  600.64   29.20
   0  -6   0  603.74   26.60
   1  -6   0 1305.17   54.69
   1  -6   0 1288.27   54.39
   1  -6   0 1220.48   58.69
   1  -6   0 1191.18   67.19
  -1  -6   0 1201.98   58.59
   2  -6   0  744.23   35.30
  -2  -6   0  721.73   34.90
   2  -6   0  714.53   39.70
   2  -6   0  758.72   33.00
  -2  -6   0  719.53   35.60
   3  -6   0   63.99    3.80
   3  -6   0   67.49    4.30
   3  -6   0   63.89    4.70
  -3  -6   0   60.99    3.30
  -3  -6   0   60.49    4.10
   4  -6   0    9.60    1.20
   4  -6   0   11.20    2.10
  -4  -6   0   11.50    0.90
   4  -6   0   10.60    2.50
   5  -6   0    1.80    0.70
   5  -6   0    1.80    1.00
  -5  -6   0    2.90    0.70
  -5   6   0    2.70    0.70
  -6  -6   0   21.30    1.50
   6  -6   0   24.90    3.00
  -6  -6   0   20.80    1.50
   6  -6   0   22.40    2.00
  -6   6   0   23.70    1.50
   7  -6   0    3.60    1.00
  -7  -6   0    3.80    0.80
  -7  -6   0    3.60    0.80
  -7   6   0    4.00    0.80
  -8  -6   0    5.30    0.90
   8  -6   0    6.30    1.70
  -8  -6   0    4.20    0.80
  -8   6   0    4.30    0.90
  -9  -6   0    8.20    1.10
  -9  -6   0    7.20    0.90
  -9   6   0    7.50    1.00
 -10  -6   0   17.00    1.40
 -10  -6   0   15.10    1.40
 -10   6   0   14.10    1.40
 -11  -6   0    6.40    1.10
 -11  -6   0    4.90    1.00
 -12  -6   0    5.40    1.10
 -12  -6   0    4.20    1.00
  12   6   0    3.40    1.40
 -13  -6   0   17.70    1.60
 -13  -6   0   19.10    1.70
  13   6   0   13.70    2.60
 -14  -6   0   17.60    1.50
 -14  -6   0   17.10    1.60
  14   6   0    9.20    2.30
 -15  -6   0   15.30    1.50
 -15  -6   0   15.10    1.50
 -16  -6   0   -0.60    0.30
 -16  -6   0   -0.10    0.50
  16   6   0   -0.10    0.80
 -17  -6   0    2.00    0.70
  17   6   0    0.60    0.80
   0  -7   0 1100.99   47.30
   0  -7   0 1078.19   58.59
   0  -7   0 1098.49   47.40
   0  -7   0 1045.20   51.59
  -1  -7   0  546.75   27.20
  -1  -7   0  529.95   27.30
   1  -7   0  589.84   25.10
   1  -7   0  550.94   27.50
   1  -7   0  554.54   24.90
  -1  -7   0  557.04   30.20
   1  -7   0  566.64   30.30
  -2  -7   0  272.37   14.70
   2  -7   0  299.87   13.90
   2  -7   0  296.07   15.80
   2  -7   0  284.67   13.50
   2  -7   0  278.87   15.20
  -2  -7   0  286.57   14.10
   3  -7   0   87.59    5.10
   3  -7   0   89.99    5.40
   3  -7   0   85.29    6.20
  -3  -7   0   83.69    4.50
   4  -7   0    0.70    0.70
  -4  -7   0   -0.10    0.30
   4  -7   0    0.30    1.00
  -4   7   0    0.30    0.40
  -5  -7   0   57.09    3.00
   5  -7   0   51.69    4.40
   5  -7   0   56.39    3.60
  -5   7   0   52.79    3.10
   6  -7   0   76.69    4.90
   6  -7   0   62.99    5.40
  -6  -7   0   81.39    4.10
  -7  -7   0    4.50    0.80
  -7  -7   0    3.70    0.90
   7  -7   0    2.20    1.10
  -7   7   0    3.10    0.80
   8  -7   0    1.20    1.10
  -8  -7   0   -0.20    0.50
  -8  -7   0    0.00    0.30
  -8   7   0   -0.60    0.40
   9  -7   0    4.10    1.40
  -9  -7   0    3.80    0.90
  -9  -7   0    3.80    0.90
  -9   7   0    4.10    1.00
 -10  -7   0    3.80    1.00
 -10  -7   0    3.40    0.90
 -10   7   0    4.40    1.00
 -11  -7   0   12.10    1.40
 -11  -7   0   10.20    1.20
 -11   7   0   10.20    1.30
 -12  -7   0   28.50    2.10
 -12  -7   0   27.80    2.10
 -13  -7   0    6.80    1.10
 -13  -7   0    8.50    1.30
  13   7   0    8.40    2.30
 -14  -7   0    8.50    1.10
 -14  -7   0    9.60    1.30
 -15  -7   0    5.50    1.10
 -15  -7   0    3.40    0.90
  15   7   0    0.60    0.80
 -16  -7   0    0.60    0.60
 -16  -7   0    0.30    0.40
  16   7   0   -0.10    0.70
   0  -8   0  409.36   21.80
   0  -8   0  384.16   20.50
   1  -8   0  283.27   15.00
   1  -8   0  266.77   14.80
  -1  -8   0  263.57   14.50
   1  -8   0  260.07   12.40
  -1  -8   0  280.97   14.80
  -1  -8   0  272.67   13.40
   1  -8   0  257.57   12.50
   2  -8   0   60.49    3.70
   2  -8   0   59.89    5.10
   2  -8   0   56.49    4.00
   2  -8   0   51.49    3.60
  -2  -8   0   60.89    3.20
  -3  -8   0   -0.50    0.30
   3  -8   0    0.20    0.70
   4  -8   0   33.50    2.50
  -4  -8   0   32.40    2.00
  -4   8   0   30.80    2.00
  -5  -8   0   24.40    1.60
   5  -8   0   23.40    2.20
  -5   8   0   21.30    1.60
  -6  -8   0    1.40    0.40
   6  -8   0    1.80    1.00
  -6   8   0    2.50    0.60
   7  -8   0   -0.60    1.00
  -7  -8   0    0.40    0.40
  -7   8   0    0.30    0.50
   8  -8   0   19.10    2.50
  -8  -8   0   19.20    1.60
  -8   8   0   20.00    1.60
  -9  -8   0   25.80    1.70
  -9  -8   0   27.60    2.00
   9  -8   0   27.90    3.10
  -9   8   0   27.80    2.00
 -10  -8   0    1.30    0.50
 -10  -8   0    1.80    0.50
 -10   8   0    2.10    0.60
 -11  -8   0    0.40    0.50
 -11  -8   0    0.70    0.40
 -11   8   0    0.00    0.60
 -12  -8   0    4.00    1.20
 -12  -8   0    5.50    0.80
 -13  -8   0   39.60    2.40
 -13  -8   0   40.20    2.50
  13   8   0   26.50    3.20
 -14  -8   0    8.40    1.20
 -14  -8   0    8.30    1.00
 -15  -8   0    7.10    1.10
 -15  -8   0    8.30    1.00
   0  -9   0  112.99    6.60
   1  -9   0   57.39    3.70
  -1  -9   0   57.59    3.50
  -2  -9   0    3.80    0.80
   2  -9   0    4.50    1.30
  -3  -9   0    3.20    0.90
   3  -9   0    2.20    1.00
  -3   9   0    2.60    0.80
   4  -9   0    9.50    1.70
  -4  -9   0   10.40    1.10
  -4   9   0    9.00    1.00
  -5  -9   0    9.50    1.10
   5  -9   0   10.00    1.80
  -5   9   0    8.50    1.00
  -6  -9   0    0.20    0.40
   6  -9   0    0.80    1.00
  -6   9   0    0.00    0.40
  -7  -9   0   31.70    2.20
   7  -9   0   34.20    3.30
  -7   9   0   34.50    2.30
  -8  -9   0   27.80    2.00
   8  -9   0   27.00    3.10
  -8   9   0   25.00    1.90
   9  -9   0   35.90    3.70
  -9  -9   0   39.00    2.50
  -9   9   0   38.20    2.50
 -10  -9   0   34.40    2.30
 -10   9   0   31.10    2.30
 -11  -9   0   -0.50    0.40
 -11   9   0    0.00    0.60
 -12  -9   0    4.50    1.20
 -13  -9   0   -0.30    0.40
  13   9   0    0.30    1.00
 -14  -9   0    0.10    0.40
  14   9   0    0.10    0.70
   0 -10   0    9.50    1.50
   1 -10   0    2.20    1.00
  -1 -10   0    0.40    0.80
   2 -10   0    0.80    1.00
   3 -10   0   14.20    2.10
  -3  10   0   12.10    1.20
  -4 -10   0   17.00    1.40
   4 -10   0   12.10    2.20
  -4  10   0   13.60    1.30
   5 -10   0   -0.20    1.10
  -5 -10   0    0.30    0.40
  -5  10   0    0.10    0.50
  -6 -10   0   11.50    1.30
   6 -10   0   11.70    2.30
  -6  10   0   10.80    1.20
   7 -10   0   13.80    2.60
  -7 -10   0   14.90    1.50
  -7  10   0   15.20    1.40
  -8 -10   0   53.79    3.10
   8 -10   0   43.70    4.20
  -8  10   0   47.50    3.10
  -9 -10   0   48.70    2.90
   9 -10   0   42.00    4.40
  -9  10   0   46.70    3.00
 -10 -10   0   14.90    1.50
 -10  10   0   13.30    1.50
 -11 -10   0    5.20    1.10
 -11  10   0    4.50    1.00
 -12 -10   0    0.60    0.40
   0 -11   0    1.30    0.90
  -1 -11   0   -0.20    0.80
   1 -11   0    0.00    1.00
   2 -11   0    0.70    1.20
  -2  11   0    1.80    0.50
   3 -11   0    4.00    1.40
  -3  11   0    8.00    1.00
   4 -11   0    0.70    1.30
  -4  11   0    1.20    0.60
   5 -11   0    0.80    1.40
  -5 -11   0    0.70    0.40
  -5  11   0    0.50    0.60
   6 -11   0    1.80    1.60
  -6 -11   0    0.30    0.50
  -6  11   0    0.60    0.50
  -7 -11   0   15.10    1.50
   7 -11   0   16.90    3.10
  -7  11   0   15.60    1.50
  -8 -11   0   27.10    2.00
   8 -11   0   23.10    3.30
  -8  11   0   27.20    2.00
   9 -11   0   26.40    3.40
  -9 -11   0   31.40    2.10
  -9  11   0   28.20    2.10
 -10 -11   0   26.60    1.90
 -10  11   0   20.70    1.70
   0 -12   0    1.80    0.90
   1 -12   0   10.10    1.80
  -1  12   0   10.80    1.10
   2 -12   0    1.30    1.00
  -2  12   0    4.30    0.90
   3 -12   0    0.00    0.90
  -3  12   0    0.40    0.50
   4 -12   0   -1.00    0.90
  -4  12   0    1.10    0.50
   5 -12   0    1.20    1.10
  -5  12   0    1.80    0.60
   6 -12   0    0.60    1.10
  -6  12   0    0.60    0.50
  -7 -12   0    3.30    0.90
  -7  12   0    3.80    0.90
  15   0  -1    9.00    2.10
  14   0  -1   30.00    2.80
  13   0  -1   78.69    5.00
  12   0  -1   40.70    3.10
  11   0  -1    0.00    0.70
 -11   0   1    0.50    0.50
 -10   0   1    3.10    0.60
  -9   0   1    9.60    1.00
   8   0  -1   29.10    2.70
   8   0  -1   31.30    3.80
  -7   0   1  199.68   13.10
   7   0  -1  211.98   10.70
   7   0  -1  222.38   13.90
  -7   0   1  214.68   12.60
   6   0  -1    5.60    1.30
   6   0  -1    5.00    1.20
  -6   0   1    3.40    1.10
  -6   0   1    4.80    1.60
   6   0  -1    4.40    1.80
   5   0  -1  487.95   26.50
  -5   0   1  456.45   26.40
   5   0  -1  473.85   27.10
  -5   0   1  433.66   26.90
   5   0  -1  464.35   21.10
   4   0  -1  241.68   14.60
  -4   0   1  233.58   14.60
  -4   0   1  252.57   14.20
   4   0  -1  246.38   14.10
   3   0  -1  768.52   43.10
  -3   0   1  780.42   43.10
  -3   0   1  746.63   42.80
   3   0  -1  723.73   33.60
   3   0  -1  789.12   35.50
   3   0  -1  766.82   42.80
  -2   0   1 4701.93  276.67
   2   0  -1 4719.93  215.28
  -2   0   1 5425.96  276.87
   0   0  -1 7852.81  498.75
   0   0  -1 9007.50  387.96
   0   0   1 9999.00  499.85
   1   0   1 4944.91  309.37
  -1   0  -1 5649.33  309.87
   1   0   1 5995.70  241.08
  -2   0  -1  741.53   40.10
   2   0   1  718.53   40.90
  -2   0  -1  703.43   40.70
   2   0   1  678.33   31.50
   2   0   1  740.73   40.10
  -3   0  -1  234.68   13.40
  -3   0  -1  223.68   10.80
  -3   0  -1  229.78   14.10
   3   0   1  237.28   14.50
   3   0   1  235.88   10.80
   3   0   1  234.48   13.30
  -4   0  -1  467.65   21.70
   4   0   1  481.45   21.60
  -4   0  -1  476.65   27.10
   4   0   1  523.35   27.10
   4   0   1  480.35   28.40
  -4   0  -1  432.46   27.80
  -5   0  -1    2.40    0.80
   5   0   1    3.20    1.80
  -5   0  -1    5.50    1.40
   5   0   1    4.50    1.00
  -5   0  -1    1.60    1.50
   5   0   1    6.20    1.50
  -6   0  -1  207.58   13.00
  -6   0  -1  206.18   10.80
   6   0   1  211.38   12.40
  -6   0  -1  211.68   12.40
   6   0   1  207.78   14.10
   6   0   1  207.98   10.40
   7   0   1   31.00    2.60
   7   0   1   29.30    4.30
  -7   0  -1   25.70    2.90
  -7   0  -1   29.60    2.50
  -8   0  -1   10.90    1.20
  -9   0  -1    3.70    0.80
 -10   0  -1    1.30    0.60
  10   0   1   -0.80    0.70
  11   0   1   40.10    3.10
  12   0   1   76.89    4.90
  13   0   1   26.70    2.60
  14   0   1    7.00    2.00
  17   1  -1    0.90    1.20
  16   1  -1   -0.10    1.20
  15   1  -1    1.70    1.10
  14   1  -1   19.60    2.30
 -13  -1   1   60.09    3.70
  12  -1  -1   16.30    2.10
  12   1  -1   18.10    2.00
 -11  -1   1    2.70    0.80
  11   1  -1    2.50    0.90
 -10  -1   1  139.19    7.80
  -9  -1   1   22.60    1.60
  -9   1   1   19.10    2.60
   9   1  -1   18.10    3.60
   8  -1  -1    0.40    1.10
  -8  -1   1    0.30    0.40
   8  -1  -1   -0.10    0.60
  -8   1   1    0.50    0.90
   8   1  -1    0.00    0.60
  -8   1   1    2.00    1.90
   8   1  -1    1.00    1.50
   7  -1  -1   55.49    4.00
   7  -1  -1   54.19    3.80
   7  -1  -1   59.39    4.70
   7   1  -1   52.09    5.20
   7   1  -1   54.69    4.00
  -7   1   1   44.30    4.00
  -7   1   1   50.49    5.60
   6  -1  -1  502.25   28.50
   6  -1  -1  528.95   27.90
   6  -1  -1  461.25   22.60
   6   1  -1  492.55   29.00
  -6   1   1  465.55   28.10
  -6   1   1  460.75   29.20
   6   1  -1  509.15   28.00
   5  -1  -1   75.29    4.20
   5  -1  -1   75.49    4.50
   5  -1  -1   72.29    5.20
   5  -1  -1   73.29    4.60
   5   1  -1   62.89    4.60
   5   1  -1   75.29    4.10
   5   1  -1   71.59    5.60
  -5   1   1   69.59    5.90
   4  -1  -1   54.79    4.00
   4  -1  -1   53.49    3.60
   4  -1  -1   54.69    3.60
   4  -1  -1   57.79    3.20
   4   1  -1   56.89    4.20
   4   1  -1   60.99    3.80
   4   1  -1   51.59    3.20
  -4   1   1   56.99    3.90
  -4   1   1   54.99    4.60
   3  -1  -1   28.00    1.90
   3  -1  -1   31.90    2.10
   3  -1  -1   29.70    2.30
   3  -1  -1   29.80    2.30
  -3   1   1   32.60    2.70
  -3   1   1   29.90    2.20
   3   1  -1   29.20    1.90
  -2  -1   1  860.01   34.70
   2  -1  -1  736.13   37.20
   2  -1  -1  682.83   44.50
   2  -1  -1  837.12   44.60
  -2   1   1  842.72   44.70
   2   1  -1  808.82   34.80
   2   1  -1  826.22   34.70
  -1  -1   1 4378.86  193.18
   1  -1  -1 4865.61  193.78
  -1   1   1 4121.09  247.68
   1   1  -1 4459.55  193.08
   0  -1  -1 4753.52  195.68
   0  -1   1 4245.28  195.88
   0   1  -1 4484.55  196.08
   0   1   1 4548.54  195.58
  -1  -1  -1  801.72   34.70
   1  -1   1  795.22   44.50
   1  -1   1  859.11   44.60
   1  -1   1  780.42   34.90
   1   1   1  771.32   34.60
  -1   1  -1  798.72   44.50
  -1   1  -1  810.52   44.90
  -1   1  -1  759.92   34.90
  -2  -1  -1   29.60    1.80
   2  -1   1   29.80    2.00
   2  -1   1   28.80    2.00
   2  -1   1   25.60    2.50
  -2   1  -1   27.40    3.20
  -2   1  -1   30.00    2.00
  -2   1  -1   28.40    2.20
   2   1   1   31.00    1.70
   3  -1   1   53.69    3.30
  -3  -1  -1   54.79    3.10
   3  -1   1   54.69    3.50
   3   1   1   56.39    3.00
  -3   1  -1   55.99    3.50
   3   1   1   54.79    3.40
  -3   1  -1   55.39    5.10
   3   1   1   50.69    4.30
  -3   1  -1   52.89    3.60
  -4  -1  -1   78.89    4.20
   4  -1   1   71.19    4.50
   4  -1   1   73.29    4.20
   4   1   1   64.69    4.40
   4   1   1   75.59    5.80
  -4   1  -1   67.69    6.30
   4   1   1   73.09    3.90
   5  -1   1  460.45   28.20
  -5  -1  -1  467.85   21.90
   5  -1   1  475.45   22.00
   5  -1   1  483.25   27.20
  -5   1  -1  456.85   28.80
   5   1   1  476.35   27.20
  -5   1  -1  505.95   27.50
   5   1   1  494.85   28.80
  -5   1  -1  476.85   22.30
   6  -1   1   53.99    3.80
  -6  -1  -1   50.49    3.80
   6  -1   1   52.59    3.70
  -6   1  -1   50.39    4.10
   6   1   1   62.59    6.00
  -6   1  -1   52.39    5.70
  -6   1  -1   49.70    3.90
   6   1   1   53.29    3.70
  -7  -1  -1    0.80    0.50
  -7  -1  -1    1.10    1.10
   7  -1   1    0.60    0.70
   7  -1   1    0.30    0.80
  -7   1  -1    0.20    0.70
   7   1   1    0.20    1.60
   7   1   1    0.10    0.50
  -7   1  -1   -0.60    1.60
  -8  -1  -1   20.10    1.60
   8   1   1   22.80    4.40
  -8   1  -1   19.30    2.40
  -9  -1  -1  138.99    7.90
 -10  -1  -1    1.60    0.70
 -10  -1  -1    1.30    0.30
  10   1   1    2.10    1.10
  11  -1   1   15.40    2.00
  11   1   1   20.70    2.20
 -12  -1  -1   58.49    3.70
  13   1   1   20.00    2.30
  14   1   1    0.70    0.90
  15   1   1    0.00    0.90
  16   1   1    2.40    1.40
  18   2  -1    0.70    1.10
  17   2  -1    3.60    1.40
 -16  -2   1   11.40    1.30
  16   2  -1    6.00    1.90
 -15  -2   1    0.50    0.50
  15   2  -1   -0.40    0.90
 -14  -2   1    4.60    1.00
  14   2  -1    1.20    0.90
 -13  -2   1    1.20    0.60
  13   2  -1    0.50    0.80
 -12  -2   1   25.30    1.60
 -12  -2   1   29.60    1.90
  12   2  -1   19.40    2.30
 -11  -2   1   46.70    2.80
 -11  -2   1   43.00    2.40
  11   2  -1   37.10    3.20
 -10  -2   1  133.79    6.70
 -10  -2   1  120.39    5.90
  10   2  -1   96.59    6.80
  -9  -2   1  477.55   26.90
   9  -2  -1  555.04   28.50
  -9   2   1  436.46   30.80
   8  -2  -1   62.79    4.40
  -8  -2   1   64.59    3.60
  -8   2   1   57.89    6.60
   8   2  -1   57.99    6.00
   8   2  -1   61.49    4.60
   7  -2  -1    8.80    1.30
  -7  -2   1    6.90    0.80
   7  -2  -1    8.80    2.00
   7  -2  -1    6.90    1.60
   7   2  -1    9.80    2.90
  -7   2   1    3.40    1.20
   7   2  -1    8.30    1.50
  -7   2   1    9.30    2.60
   6  -2  -1    2.50    1.20
   6  -2  -1    2.70    1.30
   6  -2  -1    1.80    0.60
   6  -2  -1    1.10    0.70
  -6   2   1    1.80    0.80
   6   2  -1    0.80    0.80
   6   2  -1    2.00    1.30
  -6   2   1    1.60    1.80
   5  -2  -1   19.50    1.60
   5  -2  -1   15.80    1.80
   5  -2  -1   15.30    2.20
   5  -2  -1   18.40    1.90
  -5   2   1   16.40    1.90
  -5   2   1   18.30    3.00
   4  -2  -1  484.15   23.40
   4  -2  -1  479.35   24.40
   4  -2  -1  521.15   29.00
   4  -2  -1  513.65   28.90
  -4   2   1  577.34   29.80
   3  -2  -1    1.00    0.30
  -3  -2   1    1.70    0.50
   3  -2  -1    1.50    0.50
   3  -2  -1    2.10    0.90
   3  -2  -1    2.20    0.90
  -3   2   1    1.40    0.70
  -3   2   1    1.20    0.50
  -2  -2   1  592.74   23.90
   2  -2  -1  531.85   25.90
  -2  -2   1  521.65   25.70
  -2   2   1  563.74   30.80
  -2   2   1  542.45   30.80
  -1  -2   1  259.67   11.30
  -1  -2   1  254.27   12.20
   0  -2   1  269.07   12.80
   0  -2   1  264.87   11.90
   0  -2  -1  269.57   11.80
   1  -2   1  578.24   26.80
   1  -2   1  559.94   25.10
  -1  -2  -1  564.14   24.70
  -1   2  -1  561.94   31.70
  -1   2  -1  576.34   31.80
  -2  -2  -1    1.10    0.50
   2  -2   1    0.90    0.70
  -2   2  -1    0.90    0.90
  -2   2  -1    0.60    0.40
   3  -2   1  504.95   28.20
   3  -2   1  505.15   22.60
   3  -2   1  445.16   28.00
  -3  -2  -1  489.95   22.10
  -3   2  -1  556.24   29.40
  -3   2  -1  499.45   28.20
  -4  -2  -1   17.30    1.80
   4  -2   1   15.60    1.50
   4  -2   1   16.20    2.10
   4  -2   1   15.90    2.00
  -4   2  -1   14.70    3.50
  -4   2  -1   15.90    1.70
  -5  -2  -1    0.90    0.90
   5  -2   1    1.70    1.00
   5  -2   1    2.00    0.70
   5  -2   1    0.80    0.80
   5   2   1    1.50    0.60
   5   2   1    0.30    1.20
  -5   2  -1    2.60    1.90
  -5   2  -1    2.40    0.80
  -6  -2  -1    3.40    1.10
   6  -2   1    4.40    1.20
   6  -2   1    9.00    1.90
   6  -2   1    7.30    1.20
  -6  -2  -1    8.60    1.00
  -6   2  -1    9.20    1.50
   6   2   1    7.90    1.30
  -6   2  -1    7.80    2.60
   6   2   1    6.80    2.20
   7  -2   1   62.69    4.40
  -7  -2  -1   64.09    3.80
  -7  -2  -1   66.89    4.60
  -7   2  -1   63.89    6.90
   7   2   1   57.79    4.30
   7   2   1   66.09    6.60
   8  -2   1  556.64   31.80
  -8  -2  -1  580.14   30.40
  -8   2  -1  518.55   34.60
  -9  -2  -1  122.39    6.20
   9   2   1  125.09    7.30
 -10  -2  -1   52.99    3.10
 -10  -2  -1   44.70    2.60
  10   2   1   40.30    3.50
 -11  -2  -1   24.80    1.60
 -11  -2  -1   31.80    2.10
  11   2   1   21.60    2.70
 -12  -2  -1    0.70    0.30
 -12  -2  -1    1.70    0.70
  12   2   1    0.40    1.00
 -13  -2  -1    5.60    1.10
  13   2   1    1.60    1.00
 -14  -2  -1   -0.20    0.60
  14   2   1   -0.70    0.80
  15   2   1    4.00    1.20
  16   2   1    6.40    1.90
  17   2   1    3.70    1.40
  19   3  -1   -0.20    0.80
  19   3  -1    0.80    0.90
  18   3  -1    3.00    1.30
 -17  -3   1   16.20    1.60
  17   3  -1    8.70    2.20
 -16  -3   1    1.90    0.70
  16   3  -1    1.20    1.00
 -15  -3   1    2.00    0.70
  15   3  -1    0.80    0.90
 -14  -3   1   11.40    1.20
 -14  -3   1    8.90    1.00
  14   3  -1    6.60    1.70
 -13  -3   1    6.90    1.10
 -13  -3   1    7.70    0.90
  13   3  -1    3.90    1.10
 -12  -3   1   17.60    1.20
 -12  -3   1   17.40    1.50
  12   3  -1   12.90    2.20
 -11  -3   1  146.49    7.90
 -11  -3   1  171.78    9.00
 -10  -3   1  298.57   14.90
 -10  -3   1  319.97   16.70
  10   3  -1  291.67   16.50
  -9  -3   1  187.48   10.20
  -9  -3   1  178.48    9.10
   7  -3  -1   34.70    3.30
  -7  -3   1   30.80    2.00
   7  -3  -1   33.00    2.50
   7  -3  -1   31.50    2.60
   7   3  -1   35.00    2.70
  -6  -3   1   16.40    1.10
   6  -3  -1   15.20    1.50
   6  -3  -1   15.30    1.40
   6  -3  -1   16.50    2.20
   6  -3  -1   14.40    2.40
  -6   3   1   15.80    2.00
  -6   3   1   15.30    3.10
  -5  -3   1   11.50    1.00
   5  -3  -1   17.10    2.00
   5  -3  -1   15.90    2.40
  -5   3   1   14.20    2.60
  -5   3   1   17.60    1.90
   4  -3  -1    5.00    1.30
  -4  -3   1    3.00    0.60
   4  -3  -1    4.30    1.20
  -4   3   1    3.10    1.10
  -4   3   1    5.30    1.10
   3  -3  -1   51.59    3.30
  -3  -3   1   52.59    2.90
   3  -3  -1   50.29    3.50
  -3   3   1   52.59    3.40
  -3   3   1   53.59    3.60
   2  -3  -1  615.24   29.20
   2  -3  -1  635.04   27.70
  -2  -3   1  593.64   29.00
  -2   3   1  629.74   34.50
   1  -3  -1  879.71   43.10
  -1  -3   1  917.51   43.10
  -1  -3   1  964.20   40.10
   0  -3  -1  928.41   40.90
   0  -3   1  957.30   44.10
   0  -3   1  935.61   41.10
   1  -3   1  647.94   28.50
   1  -3   1  619.94   30.40
  -1  -3  -1  656.73   27.90
  -2  -3  -1   55.99    2.60
   2  -3   1   51.39    3.30
   2  -3   1   50.19    3.50
  -2   3  -1   49.60    3.30
  -2   3  -1   53.19    3.80
  -3  -3  -1    3.90    1.00
   3  -3   1    4.10    1.10
  -3   3  -1    3.60    0.90
  -3   3  -1    4.10    1.40
   4  -3   1   14.40    2.10
  -4  -3  -1   14.80    1.60
  -4   3  -1   10.80    3.20
  -4   3  -1   13.10    1.60
  -5  -3  -1   13.20    1.40
   5  -3   1   17.30    1.40
   5  -3   1   18.70    2.30
   5  -3   1   16.40    1.50
  -5  -3  -1   16.60    1.90
  -5   3  -1   15.70    3.70
  -5   3  -1   16.20    1.90
  -6  -3  -1   33.10    2.20
   6  -3   1   33.20    2.70
   6  -3   1   34.10    2.60
  -6  -3  -1   32.00    2.90
   6  -3   1   33.80    3.10
   6   3   1   31.90    2.50
  -7  -3  -1  686.73   30.70
  -7  -3  -1  680.33   32.50
   7  -3   1  636.54   38.00
  -7  -3  -1  703.23   36.30
   7   3   1  624.24   37.80
  -8  -3  -1  165.28   10.00
  -8  -3  -1  191.58   10.30
  -8  -3  -1  186.48    9.20
  -9  -3  -1  317.97   17.20
  -9  -3  -1  303.47   15.30
   9   3   1  310.57   16.80
 -10  -3  -1  143.69    7.30
 -10  -3  -1  147.49    8.20
  10   3   1  138.99    8.30
 -11  -3  -1   18.30    1.60
 -11  -3  -1   17.40    1.30
  11   3   1   17.20    2.40
 -12  -3  -1    6.40    0.90
 -12  -3  -1    7.50    1.20
  12   3   1    7.70    2.20
 -13  -3  -1    9.60    1.30
 -13  -3  -1    8.60    1.00
  13   3   1    5.40    1.40
 -14  -3  -1    2.30    0.80
  14   3   1    0.40    0.90
 -15  -3  -1    2.30    0.80
  15   3   1    1.10    1.00
 -16  -3  -1   18.60    1.80
  17   3   1    2.40    1.20
  18   3   1   -0.70    1.00
  19   4  -1   -0.30    1.00
 -18  -4   1    0.10    0.60
  18   4  -1   -1.00    0.90
 -17  -4   1    2.30    0.70
  17   4  -1    1.30    1.00
 -16  -4   1    8.00    1.30
 -15  -4   1    0.40    0.60
 -15  -4   1   -0.10    0.40
  15   4  -1    0.00    0.80
 -14  -4   1    0.50    0.50
 -14  -4   1    0.00    0.30
  14   4  -1    0.20    0.80
 -13  -4   1   14.80    1.20
 -13  -4   1   16.00    1.40
  13   4  -1    7.60    2.10
 -12  -4   1   50.59    2.70
 -12  -4   1   50.99    3.10
  12   4  -1   38.50    3.60
 -11  -4   1   93.89    5.30
 -11  -4   1   90.49    4.70
  11   4  -1   84.09    5.50
 -10  -4   1   92.79    5.90
 -10  -4   1  113.79    5.30
  -9  -4   1  392.46   21.90
  -9  -4   1  377.96   19.60
  -9   4   1  431.56   21.20
   8  -4  -1  347.77   20.20
  -8  -4   1  380.06   19.80
  -8  -4   1  357.06   17.70
   7  -4  -1  412.86   23.00
  -7  -4   1  434.36   22.70
  -7  -4   1  417.26   20.40
   7  -4  -1  394.26   20.10
   6  -4  -1   11.10    2.30
   6  -4  -1   12.30    1.40
  -6  -4   1    9.60    0.90
   6  -4  -1   12.00    2.30
  -6   4   1   10.00    1.80
   5  -4  -1   55.59    3.60
   5  -4  -1   65.19    4.20
   5  -4  -1   65.89    4.40
  -5   4   1   58.39    4.20
  -5   4   1   53.69    4.80
   4  -4  -1   26.00    2.40
   4  -4  -1   21.90    2.50
  -4  -4   1   17.40    1.60
  -4   4   1   21.10    2.40
  -4   4   1   20.60    1.90
   3  -4  -1  143.19    7.30
   3  -4  -1  147.89    7.50
  -3  -4   1  131.99    6.90
  -3   4   1  141.89    8.30
  -3   4   1  128.29    8.00
  -2  -4   1  504.35   24.80
   2  -4  -1  523.85   25.00
   2  -4  -1  539.25   23.70
   1  -4  -1   95.99    5.40
   1  -4  -1  100.59    5.20
  -1  -4   1  102.49    4.70
   1  -4  -1  102.39    4.80
  -1  -4   1   94.49    5.40
   0  -4   1  102.19    5.40
   0  -4   1   99.09    4.90
   0  -4  -1   95.49    4.60
   0  -4  -1   94.79    5.30
   1  -4   1  513.95   25.30
   1  -4   1  543.05   23.70
  -1  -4  -1  524.75   23.00
   2  -4   1  149.49    7.70
   2  -4   1  136.89    7.20
  -2   4  -1  144.09    8.50
  -2   4  -1  134.29    8.20
   3  -4   1   21.20    2.50
   3  -4   1   20.60    2.20
  -3  -4  -1   20.10    1.40
  -3   4  -1   19.80    2.60
  -3   4  -1   21.60    1.80
   4  -4   1   60.59    4.00
  -4  -4  -1   53.79    3.10
   4  -4   1   54.09    3.30
  -4   4  -1   54.69    3.90
  -4   4  -1   58.29    5.20
  -5  -4  -1   10.60    1.60
   5  -4   1   14.40    2.20
  -5  -4  -1    8.10    1.30
   5  -4   1   10.60    1.30
  -5   4  -1   11.50    1.70
  -6  -4  -1  403.86   22.80
  -6  -4  -1  431.46   19.40
   6  -4   1  408.16   20.00
   6  -4   1  421.56   22.90
  -7  -4  -1  306.37   18.60
   7  -4   1  342.27   18.80
  -7  -4  -1  367.36   16.70
  -8  -4  -1  378.16   21.10
  -8  -4  -1  377.96   18.80
  -8   4  -1  394.06   20.20
  -9  -4  -1  108.39    6.30
  -9  -4  -1  106.89    5.60
  -9   4  -1  109.69    6.00
 -10  -4  -1   91.49    5.50
 -10  -4  -1   88.79    4.80
  10   4   1   96.89    5.70
 -11  -4  -1   51.59    3.30
 -11  -4  -1   51.99    2.90
  11   4   1   44.40    3.70
 -12  -4  -1   14.80    1.50
 -12  -4  -1   15.30    1.30
  12   4   1   13.30    2.50
 -13  -4  -1   -0.20    0.30
 -13  -4  -1    0.40    0.60
  13   4   1   -0.20    1.20
 -14  -4  -1   -0.40    0.40
 -14  -4  -1    0.30    0.70
  14   4   1    1.50    1.00
 -15  -4  -1    7.90    1.20
 -15  -4  -1    9.90    1.40
 -16  -4  -1    3.50    1.10
  16   4   1    0.40    0.90
 -17  -4  -1    0.70    0.60
  17   4   1    0.80    0.90
  18   4   1    0.40    1.00
 -18  -5   1    2.60    0.70
  18   5  -1    1.50    1.00
 -17  -5   1    1.30    0.70
  17   5  -1   -0.20    0.90
 -16  -5   1   -0.30    0.40
 -16  -5   1    0.10    0.60
  16   5  -1    0.00    0.80
 -15  -5   1    1.20    0.40
 -15  -5   1    1.50    0.60
  15   5  -1    0.40    0.90
 -14  -5   1    0.60    0.40
 -14  -5   1    0.90    0.60
  14   5  -1    0.10    1.00
 -13  -5   1    0.50    0.30
 -13  -5   1    0.70    0.50
  13   5  -1    0.30    1.20
 -12  -5   1   14.50    1.30
 -12  -5   1   14.40    1.30
  12   5  -1   12.20    2.20
 -11  -5   1   15.60    1.30
 -11  -5   1   17.20    1.30
 -10  -5   1   98.29    5.40
 -10  -5   1   92.39    4.90
 -10   5   1   91.29    5.20
  -9  -5   1  141.49    7.30
  -9  -5   1  142.39    8.10
  -9   5   1  150.58    7.80
  -8  -5   1  125.09    6.40
   8  -5  -1  120.59    7.50
  -8  -5   1  128.09    7.10
  -8   5   1  129.59    6.80
  -7  -5   1   54.89    3.00
   7  -5  -1   56.39    4.60
  -7  -5   1   53.89    3.20
   7  -5  -1   58.89    3.80
  -7   5   1   56.29    3.20
  -6  -5   1   12.50    1.00
   6  -5  -1   10.90    2.60
   6  -5  -1   13.60    1.50
   6  -5  -1   13.10    2.50
  -6  -5   1   12.90    1.00
  -5  -5   1   78.99    4.10
   5  -5  -1   84.59    5.40
   5  -5  -1   84.19    5.40
   5  -5  -1   81.19    4.80
  -5   5   1   73.89    5.40
  -4  -5   1   75.99    4.40
   4  -5  -1   82.39    5.10
   4  -5  -1   79.39    4.70
   4  -5  -1   86.89    5.20
  -4   5   1   77.49    5.20
   3  -5  -1    9.30    2.00
   3  -5  -1    9.30    1.00
  -3  -5   1    9.30    1.50
   3  -5  -1   10.50    1.90
  -3   5   1    9.90    1.40
   2  -5  -1   53.89    3.40
   2  -5  -1   61.59    3.90
   2  -5  -1   61.59    4.00
  -2  -5   1   62.69    3.80
   2  -5  -1   62.49    3.40
   1  -5  -1   16.20    1.70
  -1  -5   1   14.20    1.20
   1  -5  -1   14.50    1.90
  -1  -5   1   15.20    1.90
   1  -5  -1   16.20    1.30
   1  -5  -1   12.80    1.00
   0  -5  -1   15.10    1.20
   0  -5   1   15.20    2.10
   0  -5  -1   14.30    1.90
   0  -5   1   16.10    1.50
   0  -5  -1   17.70    1.50
   1  -5   1   59.59    3.60
  -1  -5  -1   61.09    3.80
   1  -5   1   62.09    4.20
   2  -5   1   11.90    1.70
   2  -5   1   10.70    2.10
  -2  -5  -1    9.20    1.50
  -2   5  -1   10.60    1.60
  -3  -5  -1   76.49    4.50
   3  -5   1   82.99    4.90
   3  -5   1   81.79    5.20
   3  -5   1   79.49    4.60
  -3   5  -1   74.19    5.80
   4  -5   1   84.89    5.20
   4  -5   1   78.99    4.70
  -4  -5  -1   80.69    4.10
  -4   5  -1   76.99    5.30
   5  -5   1   12.40    2.20
   5  -5   1   13.10    1.40
  -5  -5  -1   10.20    1.40
  -5  -5  -1   11.90    0.90
   6  -5   1   52.89    4.30
  -6  -5  -1   54.69    2.90
  -6  -5  -1   52.39    3.30
   6  -5   1   58.59    3.60
  -6   5  -1   53.49    3.10
   7  -5   1  117.39    7.30
  -7  -5  -1  122.69    7.10
  -7  -5  -1  122.99    6.30
  -7   5  -1  131.29    6.70
  -8  -5  -1  141.79    7.30
  -8  -5  -1  142.09    8.20
  -8   5  -1  147.69    7.80
  -9  -5  -1   90.69    4.80
  -9  -5  -1   91.69    5.40
  -9   5  -1   92.69    5.10
 -10  -5  -1   16.60    1.40
 -10  -5  -1   18.60    1.60
 -11  -5  -1   12.00    1.20
 -11  -5  -1   13.40    1.40
  11   5   1    9.90    2.20
 -12  -5  -1    0.30    0.30
 -12  -5  -1    0.50    0.60
  12   5   1   -0.10    1.20
 -13  -5  -1    0.20    0.60
 -13  -5  -1    0.50    0.40
  13   5   1    0.80    1.30
 -14  -5  -1    1.80    0.80
 -14  -5  -1    1.10    0.40
  14   5   1    1.10    1.20
 -15  -5  -1   -0.20    0.40
 -15  -5  -1   -0.10    0.60
  15   5   1   -0.50    0.90
 -16  -5  -1    1.10    0.60
 -16  -5  -1    0.50    0.40
  16   5   1    0.40    0.80
 -17  -5  -1    4.20    1.00
  17   5   1    1.30    0.90
 -17  -6   1    2.20    0.70
 -17  -6   1    1.30    0.40
  17   6  -1    0.30    0.80
 -16  -6   1    0.80    0.40
 -16  -6   1    3.00    1.00
  16   6  -1    1.10    0.90
 -15  -6   1   12.40    1.30
 -15  -6   1   11.30    1.30
 -14  -6   1   18.70    1.60
 -14  -6   1   20.20    1.60
  14   6  -1   10.60    2.30
 -13  -6   1   13.50    1.40
 -13  -6   1   12.50    1.30
  13   6  -1   10.20    2.40
 -12  -6   1    4.40    1.00
 -12  -6   1    6.10    1.10
 -11  -6   1    4.70    0.90
 -11  -6   1    3.30    0.90
 -11   6   1    4.30    1.00
 -10  -6   1   14.90    1.30
 -10  -6   1   14.70    1.20
 -10   6   1   14.20    1.30
   9  -6  -1    2.00    1.10
  -9  -6   1    1.70    0.50
  -9  -6   1    1.50    0.40
  -9   6   1    1.60    0.50
  -8  -6   1    3.30    0.80
   8  -6  -1    2.80    1.10
  -8  -6   1    2.70    0.50
  -8   6   1    3.30    0.80
   7  -6  -1    9.30    1.70
  -7  -6   1   10.90    1.00
  -7  -6   1   11.80    0.90
  -7   6   1   10.00    1.00
   6  -6  -1   46.60    4.20
   6  -6  -1   40.70    3.90
  -6  -6   1   44.00    2.40
   6  -6  -1   40.00    3.00
  -6   6   1   44.00    2.50
   5  -6  -1   18.30    2.50
   5  -6  -1   15.90    2.70
  -5  -6   1   15.00    1.10
   5  -6  -1   16.10    1.50
  -5   6   1   14.80    1.10
  -4  -6   1   15.20    1.10
   4  -6  -1   16.60    2.60
   4  -6  -1   15.10    1.40
   4  -6  -1   16.40    2.30
  -3  -6   1  164.28    8.90
   3  -6  -1  176.98    9.50
   3  -6  -1  171.58    9.50
   3  -6  -1  166.28    8.50
   3  -6  -1  176.38    8.90
  -3  -6   1  164.48    8.40
   2  -6  -1  393.36   17.90
   2  -6  -1  400.46   19.60
   2  -6  -1  407.66   18.30
   2  -6  -1  382.86   21.40
  -2  -6   1  379.26   19.30
   1  -6  -1 1252.97   58.69
  -1  -6   1 1223.08   53.99
  -1  -6   1 1247.98   53.99
   1  -6  -1 1290.67   54.59
  -1  -6   1 1195.98   58.49
   1  -6  -1 1240.08   54.19
   1  -6  -1 1225.48   67.19
   0  -6   1 1209.48   58.89
   0  -6  -1 1211.28   67.39
   0  -6  -1 1241.48   54.19
   0  -6  -1 1303.47   54.49
   0  -6   1 1264.17   54.59
   0  -6  -1 1234.28   58.79
  -1  -6  -1  386.16   19.80
   1  -6   1  423.46   18.60
   1  -6   1  400.66   20.20
  -2  -6  -1  159.28    8.80
  -2  -6  -1  159.38    8.20
   2  -6   1  172.58    9.20
   2  -6   1  174.88    8.60
   2  -6   1  160.48    9.30
   3  -6   1   18.40    2.20
   3  -6   1   16.40    1.40
  -3  -6  -1   12.80    1.90
  -3  -6  -1   15.40    1.10
   4  -6   1   14.00    1.40
   4  -6   1   16.10    2.20
  -4  -6  -1   14.30    1.10
  -5  -6  -1   41.10    2.40
   5  -6   1   39.80    3.60
   5  -6   1   41.50    2.90
  -5   6  -1   42.60    2.40
   6  -6   1    6.80    1.80
  -6  -6  -1    9.90    1.20
   6  -6   1    9.20    1.40
  -6  -6  -1    8.40    1.00
  -6   6  -1   11.10    1.00
   7  -6   1    2.80    1.00
  -7  -6  -1    2.60    0.80
  -7  -6  -1    4.40    1.00
  -7   6  -1    3.10    0.80
  -8  -6  -1    1.20    0.40
   8  -6   1    0.90    0.90
  -8  -6  -1    2.60    0.70
  -8   6  -1    2.70    0.80
  -9  -6  -1   14.50    1.40
  -9  -6  -1   14.70    1.30
  -9   6  -1   14.10    1.30
 -10  -6  -1    4.40    1.00
 -10  -6  -1    4.10    1.10
 -10   6  -1    4.40    1.00
 -11  -6  -1    6.10    1.10
 -11  -6  -1    4.40    1.20
  11   6   1    3.20    1.30
 -12  -6  -1   16.20    1.40
 -12  -6  -1   13.00    1.40
  12   6   1   10.70    2.60
 -13  -6  -1   20.40    1.60
 -13  -6  -1   18.40    1.80
  13   6   1   12.10    2.70
 -14  -6  -1   12.10    1.30
 -14  -6  -1   12.90    1.40
 -15  -6  -1    1.10    0.40
 -15  -6  -1    3.40    1.00
  15   6   1    0.70    0.90
 -16  -6  -1    1.20    0.40
 -16  -6  -1    2.80    0.90
  16   6   1   -0.40    0.80
 -17  -7   1    3.50    0.90
  17   7  -1    1.00    0.80
 -16  -7   1    0.70    0.40
 -16  -7   1    0.10    0.50
  16   7  -1    0.00    0.70
 -15  -7   1    8.80    1.30
 -15  -7   1   10.20    1.20
 -14  -7   1   30.30    2.10
 -14  -7   1   30.70    2.20
 -13  -7   1   34.00    2.20
 -13  -7   1   34.00    2.30
  13   7  -1   26.90    3.00
 -12  -7   1    7.30    1.00
 -12  -7   1    4.50    1.20
 -11  -7   1    1.00    0.50
 -11  -7   1    0.20    0.40
 -11   7   1    0.50    0.60
 -10  -7   1    0.50    0.40
 -10  -7   1    0.00    0.40
 -10   7   1    0.30    0.50
   9  -7  -1    9.90    2.20
  -9  -7   1    9.50    0.90
  -9  -7   1   11.10    1.20
  -9   7   1   10.70    1.20
  -8  -7   1    9.40    0.90
  -8  -7   1   11.10    1.10
   8  -7  -1    7.40    1.80
  -8   7   1    9.70    1.10
  -7  -7   1   30.80    1.90
   7  -7  -1   28.30    2.70
  -7   7   1   30.10    2.00
   6  -7  -1   54.49    5.00
   6  -7  -1   66.69    4.40
  -6  -7   1   69.59    3.60
  -6   7   1   66.19    3.70
   5  -7  -1   18.80    1.80
   5  -7  -1   11.20    2.40
   5  -7  -1   13.70    3.00
  -5  -7   1   16.20    1.20
  -5   7   1   14.60    1.10
  -4  -7   1   -0.20    0.30
   4  -7  -1    0.10    1.60
   4  -7  -1    0.50    0.70
   4  -7  -1    0.40    1.00
  -4   7   1    0.00    0.40
   3  -7  -1  124.69    7.20
  -3  -7   1  129.09    6.40
   3  -7  -1  127.69    7.10
   3  -7  -1  122.99    7.70
   3  -7  -1  120.69    6.60
  -2  -7   1  581.24   28.10
   2  -7  -1  589.04   26.30
   2  -7  -1  572.64   31.40
  -2  -7   1  572.64   28.10
   2  -7  -1  555.44   25.80
   2  -7  -1  577.14   28.40
   1  -7  -1  574.94   30.70
   1  -7  -1  591.24   25.40
  -1  -7   1  544.25   27.70
  -1  -7   1  557.44   27.50
   1  -7  -1  554.84   27.70
   1  -7  -1  553.24   25.10
   0  -7   1  563.64   24.90
   0  -7  -1  573.04   30.40
   0  -7   1  539.95   27.60
   0  -7  -1  549.95   27.50
   0  -7   1  590.84   30.40
   0  -7   1  531.45   24.80
   1  -7   1  589.94   26.00
   1  -7   1  556.14   28.40
  -1  -7  -1  562.44   28.00
  -1  -7  -1  565.04   28.10
   1  -7   1  578.64   31.30
  -1  -7  -1  593.84   31.20
  -2  -7  -1  133.89    6.60
   2  -7   1  133.99    7.20
  -2  -7  -1  124.39    7.60
   2  -7   1  129.59    7.40
  -3  -7  -1   -0.40    0.30
   3  -7   1   -0.40    0.80
   3  -7   1    0.10    0.60
  -3   7  -1   -0.10    0.40
   4  -7   1   17.10    2.50
  -4  -7  -1   13.60    1.20
   4  -7   1   17.60    1.70
  -4   7  -1   15.50    1.20
   5  -7   1   66.49    4.20
   5  -7   1   55.39    4.80
  -5  -7  -1   64.99    3.50
  -5   7  -1   64.09    3.60
  -6  -7  -1   26.10    1.80
   6  -7   1   27.80    2.40
  -6   7  -1   27.80    1.80
  -7  -7  -1    7.80    1.10
   7  -7   1   11.50    1.90
  -7  -7  -1    8.90    1.10
  -7   7  -1    9.80    1.10
  -8  -7  -1   11.20    1.20
   8  -7   1    9.20    2.00
  -8  -7  -1   11.40    1.20
  -8   7  -1   12.00    1.20
  -9  -7  -1   -0.80    0.60
  -9  -7  -1    0.80    0.40
  -9   7  -1   -0.20    0.50
 -10  -7  -1    0.90    0.40
 -10  -7  -1   -0.20    0.60
 -10   7  -1    0.30    0.50
 -11  -7  -1    4.50    1.20
 -11  -7  -1    4.10    1.00
 -12  -7  -1   30.80    2.30
 -12  -7  -1   35.60    2.30
  12   7   1   24.30    3.00
 -13  -7  -1   31.90    2.20
 -13  -7  -1   33.40    2.20
  13   7   1   21.20    3.00
 -14  -7  -1    8.80    1.20
 -14  -7  -1   10.00    1.30
 -15  -7  -1    1.20    0.60
 -15  -7  -1    0.70    0.40
  15   7   1   -0.10    0.80
 -16  -7  -1    1.60    0.50
  16   7   1    0.20    0.70
 -15  -8   1   -0.40    0.50
 -15  -8   1    0.50    0.40
  15   8  -1    0.60    0.70
 -14  -8   1    5.00    1.20
 -14  -8   1    4.60    0.90
 -13  -8   1    9.60    1.40
 -13  -8   1   10.40    1.10
 -12  -8   1    6.90    1.30
 -12  -8   1    8.80    0.90
 -11  -8   1   -0.60    0.40
 -11  -8   1    0.00    0.40
 -11   8   1   -0.30    0.50
 -10  -8   1   33.80    2.10
 -10  -8   1   33.50    2.30
 -10   8   1   33.80    2.30
  -9  -8   1    2.10    0.50
   9  -8  -1    3.70    1.40
  -9   8   1    3.50    0.90
  -8  -8   1   13.20    1.30
   8  -8  -1   14.50    2.30
  -8   8   1   13.20    1.30
  -7  -8   1    7.70    1.10
   7  -8  -1    5.60    1.80
  -7   8   1    6.70    1.00
   6  -8  -1   17.90    2.20
  -6  -8   1   20.10    1.50
  -6   8   1   21.00    1.50
  -5  -8   1   44.70    2.60
   5  -8  -1   44.60    3.20
  -5   8   1   41.70    2.50
   4  -8  -1    0.80    0.80
   4  -8  -1    0.20    1.80
  -4  -8   1    0.30    0.30
  -4   8   1    0.50    0.40
   3  -8  -1   21.40    1.90
   3  -8  -1   18.40    3.40
  -3  -8   1   21.70    1.50
   2  -8  -1   62.49    4.00
   2  -8  -1   69.89    4.30
   2  -8  -1   64.09    5.40
  -2  -8   1   73.49    3.70
   2  -8  -1   73.59    4.30
  -2  -8   1   68.09    3.90
   1  -8  -1  253.17   14.10
   1  -8  -1  291.17   14.50
   1  -8  -1  248.38   11.80
   1  -8  -1  254.17   12.00
  -1  -8   1  247.98   14.20
   0  -8  -1  300.97   15.70
   0  -8   1  280.87   15.70
   0  -8  -1  266.57   15.20
   1  -8   1   62.29    3.90
   1  -8   1   67.79    4.20
  -1  -8  -1   72.79    4.10
  -1  -8  -1   68.59    3.70
  -1  -8  -1   64.89    5.20
   1  -8   1   73.59    4.20
  -2  -8  -1   20.90    1.40
   2  -8   1   20.30    1.80
  -3  -8  -1    0.10    0.30
   3  -8   1    0.80    0.70
  -3   8  -1    1.00    0.50
  -4  -8  -1   42.70    2.50
   4  -8   1   45.50    3.10
  -4   8  -1   39.60    2.50
  -5  -8  -1   18.00    1.40
   5  -8   1   19.00    2.00
  -5   8  -1   17.10    1.40
  -6  -8  -1    6.60    1.10
   6  -8   1    9.00    1.80
  -6   8  -1    7.20    1.00
  -7  -8  -1   13.60    1.30
   7  -8   1   13.60    2.10
  -7   8  -1   15.30    1.30
   8  -8   1    3.30    1.40
  -8  -8  -1    3.70    1.00
  -8   8  -1    4.40    1.00
   9  -8   1   29.60    3.30
  -9  -8  -1   35.20    2.20
  -9  -8  -1   32.90    2.20
  -9   8  -1   32.30    2.30
 -10  -8  -1    0.10    0.40
 -10  -8  -1   -0.30    0.50
 -10   8  -1   -0.20    0.50
 -11  -8  -1    7.60    1.20
 -11  -8  -1    6.20    1.00
 -12  -8  -1    8.70    1.00
 -12  -8  -1    9.00    1.30
  12   8   1    7.20    2.30
 -13  -8  -1    1.90    0.50
 -13  -8  -1    4.00    0.80
  13   8   1    1.60    1.20
 -14  -8  -1    0.50    0.40
 -14  -8  -1    0.50    0.50
  14   8   1    0.60    0.90
 -14  -9   1    4.90    1.00
  14   9  -1    1.70    0.80
 -13  -9   1    1.50    0.50
 -12  -9   1    0.30    0.40
 -11  -9   1    6.50    1.30
 -11   9   1    5.60    1.10
 -10  -9   1    8.20    1.30
  10  -9  -1    6.20    2.00
 -10   9   1    7.30    1.20
  -9  -9   1   64.09    3.50
   9  -9  -1   54.99    4.70
  -9   9   1   54.09    3.50
  -8  -9   1   10.80    1.30
   8  -9  -1    9.40    2.40
  -8   9   1   11.20    1.20
   7  -9  -1   15.20    2.40
  -7  -9   1   15.80    1.50
  -7   9   1   17.80    1.40
   6  -9  -1    2.80    1.20
  -6  -9   1    1.70    0.50
  -6   9   1    1.70    0.60
   5  -9  -1    7.80    1.80
  -5  -9   1    5.10    1.00
  -5   9   1    7.10    0.90
  -4  -9   1   11.80    1.20
   4  -9  -1   11.10    1.80
  -4   9   1   10.40    1.00
  -3  -9   1    4.10    0.90
   3  -9  -1    2.80    1.00
  -2  -9   1   16.50    1.30
   2  -9  -1   12.20    3.30
  -2  -9   1   15.90    1.30
   2  -9  -1   17.30    1.80
   1  -9  -1   50.39    5.10
   1  -9  -1   56.09    3.60
  -1  -9   1   54.19    3.30
   0  -9  -1   57.59    3.60
   0  -9  -1   46.50    5.10
   0  -9   1   57.09    3.50
  -1  -9  -1   16.10    1.60
   1  -9   1   15.80    1.60
   2  -9   1    3.60    1.20
  -2  -9  -1    3.40    1.00
  -2  -9  -1    4.00    0.80
   3  -9   1   11.00    1.60
  -3  -9  -1   11.00    1.10
  -3   9  -1    9.90    1.00
  -4  -9  -1    7.40    1.00
   4  -9   1    4.70    1.60
  -4   9  -1    5.80    0.90
   5  -9   1    2.30    1.10
  -5  -9  -1    1.30    0.40
  -5   9  -1    1.60    0.50
  -6  -9  -1   17.50    1.50
   6  -9   1   16.00    2.30
  -6   9  -1   18.30    1.50
  -7  -9  -1    9.60    1.30
   7  -9   1    8.70    2.10
  -7   9  -1   10.00    1.20
   8  -9   1   58.89    4.70
  -8  -9  -1   61.99    3.50
  -8   9  -1   56.99    3.60
  -9  -9  -1    8.70    1.30
   9  -9   1    7.90    2.40
  -9   9  -1    9.10    1.20
 -10  -9  -1    2.20    0.60
 -10   9  -1    3.90    1.10
 -11  -9  -1    0.40    0.40
 -11  -9  -1   -0.30    0.40
 -12  -9  -1    1.90    0.50
 -12  -9  -1    2.20    0.70
 -13  -9  -1    5.50    1.10
  13   9   1    0.90    1.10
 -12 -10   1   -0.10    0.40
 -11 -10   1   11.50    1.30
 -11  10   1    8.10    1.20
  10 -10  -1   38.70    4.20
 -10 -10   1   46.80    2.80
 -10  10   1   42.50    2.80
  -9 -10   1   20.50    1.70
   9 -10  -1   18.90    3.30
  -9  10   1   19.30    1.70
   8 -10  -1   33.70    3.70
  -8 -10   1   36.70    2.40
  -8  10   1   33.50    2.40
  -7 -10   1    5.00    1.10
   7 -10  -1    2.90    1.60
  -7  10   1    3.80    1.00
  -6 -10   1    1.80    0.50
   6 -10  -1    1.10    1.30
  -6  10   1    3.20    0.90
   5 -10  -1    2.50    1.30
  -5 -10   1    5.40    1.10
  -5  10   1    4.00    1.00
   4 -10  -1   13.40    2.20
  -4 -10   1   17.30    1.50
  -4  10   1   15.50    1.30
   3 -10  -1    8.30    1.80
  -3  10   1    7.30    0.90
   2 -10  -1    0.90    1.00
  -2 -10   1    1.10    0.70
   1 -10  -1    1.10    1.00
  -1 -10   1    1.50    0.70
   0 -10  -1    0.90    0.90
   0 -10   1    1.40    0.80
  -1 -10  -1    0.40    0.80
   1 -10   1    1.50    0.90
   2 -10   1    9.00    1.70
  -2  10  -1    8.50    1.10
  -3 -10  -1   17.50    1.40
   3 -10   1   13.40    2.00
  -3  10  -1   14.20    1.30
   4 -10   1    2.70    1.20
  -4 -10  -1    6.30    1.10
  -4  10  -1    4.10    0.90
  -5 -10  -1    1.50    0.50
   5 -10   1    2.50    1.30
  -5  10  -1    3.00    0.90
   6 -10   1    4.00    1.50
  -6  10  -1    5.20    1.10
   7 -10   1   31.20    3.50
  -7 -10  -1   35.20    2.40
  -7  10  -1   37.10    2.40
  -8 -10  -1   21.70    1.80
   8 -10   1   17.60    3.00
   9 -10   1   39.50    4.20
  -9 -10  -1   46.60    2.80
  -9  10  -1   40.40    2.80
 -10 -10  -1   10.70    1.40
 -10  10  -1    9.50    1.40
 -11 -10  -1   -0.10    0.40
 -10 -11   1   16.10    1.50
 -10  11   1   13.60    1.40
  -9 -11   1   32.50    2.30
  -9  11   1   32.30    2.30
  -8 -11   1   13.20    1.50
   8 -11  -1   12.50    2.60
  -8  11   1   13.80    1.40
   7 -11  -1    7.70    2.30
  -7 -11   1    7.10    1.20
  -7  11   1    6.00    1.10
  -6 -11   1    0.70    0.50
   6 -11  -1    1.80    1.40
  -6  11   1    0.70    0.60
  -5 -11   1    0.60    0.40
   5 -11  -1    0.30    1.30
  -5  11   1    0.80    0.60
   4 -11  -1    7.30    2.10
  -4  11   1    8.70    1.10
   3 -11  -1    2.50    1.20
  -3  11   1    3.00    0.90
   2 -11  -1   -0.30    1.00
  -2  11   1   -0.30    0.40
  -1 -11   1    0.70    0.90
   1 -11  -1    0.70    1.00
   0 -11   1   -0.20    0.90
   0 -11  -1    0.60    1.00
  -1 -11  -1   -0.50    0.90
   1 -11   1   -0.40    0.90
   2 -11   1    1.60    1.10
  -2  11  -1    3.60    0.90
   3 -11   1    7.20    2.00
  -3  11  -1    8.00    1.10
   4 -11   1   -0.20    1.10
  -4  11  -1    0.30    0.50
  -5 -11  -1    1.10    0.50
   5 -11   1    0.90    1.30
  -5  11  -1    1.40    0.60
  -6 -11  -1    6.90    1.20
   6 -11   1    2.50    1.40
  -6  11  -1    4.90    1.10
  -7 -11  -1   14.30    1.50
   7 -11   1   12.10    2.80
  -7  11  -1   13.80    1.40
  -8 -11  -1   31.90    2.20
   8 -11   1   31.30    3.90
  -8  11  -1   30.20    2.20
  -9 -11  -1   16.50    1.60
  -9  11  -1   14.90    1.50
  -7 -12   1    0.90    0.40
  -7  12   1    0.50    0.50
   6 -12  -1    0.70    1.20
  -6  12   1    0.90    0.50
   5 -12  -1    0.20    1.10
  -5  12   1    0.20    0.50
   4 -12  -1    0.10    1.10
  -4  12   1    0.10    0.50
   3 -12  -1    0.80    1.10
  -3  12   1    0.10    0.40
   2 -12  -1    0.50    1.10
  -2  12   1    1.60    0.50
   1 -12  -1    8.70    1.90
   0 -12   1    7.80    1.60
   1 -12   1    1.20    0.90
  -1  12  -1    1.00    0.50
   2 -12   1   -0.80    0.90
  -2  12  -1    0.10    0.40
   3 -12   1   -0.70    1.00
  -3  12  -1    0.10    0.50
   4 -12   1   -0.90    1.00
  -4  12  -1    0.60    0.50
   5 -12   1    0.40    1.10
  -5  12  -1    0.50    0.50
  -6  12  -1    0.50    0.50
  15   0  -2   22.40    2.60
  14   0  -2   22.00    2.50
  13   0  -2   29.60    2.60
  12   0  -2    4.80    1.10
 -11   0   2    3.10    0.80
  11   0  -2    1.60    0.80
 -10   0   2   54.99    3.30
  -8   0   2   13.90    2.40
   8   0  -2   11.30    1.80
   8   0  -2   14.90    2.70
  -8   0   2   12.70    1.90
  -7   0   2   33.30    3.60
   7   0  -2   30.40    2.80
  -7   0   2   25.50    2.80
   7   0  -2   37.40    3.70
   7   0  -2   28.70    3.00
   6   0  -2  491.85   28.40
   6   0  -2  509.95   27.90
  -6   0   2  460.25   27.90
  -6   0   2  482.75   28.40
   6   0  -2  487.25   22.40
   5   0  -2   41.00    2.40
   5   0  -2   39.50    3.60
   5   0  -2   40.40    2.60
   5   0  -2   44.50    3.20
  -5   0   2   39.00    3.90
   5   0  -2   42.80    3.20
  -5   0   2   45.30    3.40
  -4   0   2 2735.03  148.09
   4   0  -2 2675.03  147.79
   4   0  -2 2378.96  148.49
  -4   0   2 2760.92  147.89
   4   0  -2 2674.43  115.09
   4   0  -2 2678.93  122.89
   3   0  -2  811.42   42.80
  -3   0   2  652.33   33.30
  -3   0   2  746.83   42.90
  -3   0   2  756.22   42.90
   3   0  -2  813.22   42.90
   3   0  -2  791.02   33.40
  -2   0   2 1389.76   59.99
   2   0  -2 1325.17   59.99
  -2   0   2 1276.77   77.29
   2   0  -2 1405.96   77.29
  -2   0   2 1512.85   77.29
   1   0  -2 5950.40  321.07
  -1   0   2 5383.06  322.37
  -1   0   2 5176.68  250.37
   1   0  -2 6143.69  322.87
   1   0  -2 6170.88  250.97
   0   0  -2 1305.97   55.39
   0   0  -2 1314.87   71.49
   0   0   2 1232.08   71.29
   0   0   2 1312.17   55.39
   0   0   2 1199.48   71.49
  -1   0  -2  718.23   40.20
   1   0   2  726.73   40.20
   1   0   2  673.23   41.00
   1   0   2  721.03   31.50
  -1   0  -2  757.32   41.00
   2   0   2 2576.64  111.69
   2   0   2 2490.15  144.19
  -2   0  -2 2663.43  143.99
  -2   0  -2 2478.05  143.49
   2   0   2 2650.33  143.79
  -3   0  -2   32.00    2.40
   3   0   2   31.50    4.50
  -3   0  -2   36.90    3.90
   3   0   2   32.50    2.30
   3   0   2   33.20    2.40
   4   0   2  485.15   21.40
   4   0   2  437.36   26.70
  -4   0  -2  497.05   26.80
   4   0   2  465.15   28.40
  -4   0  -2  469.45   27.60
  -4   0  -2  470.05   21.60
  -5   0  -2   30.60    2.90
   5   0   2   32.10    2.50
   5   0   2   35.70    4.70
  -5   0  -2   29.90    2.50
   5   0   2   30.70    2.60
  -5   0  -2   32.20    3.70
  -6   0  -2   11.40    1.60
  -6   0  -2   13.60    2.50
  -6   0  -2   15.00    2.30
   6   0   2   15.80    3.70
   6   0   2   13.80    1.60
   9   0   2    2.30    1.00
  -9   0  -2    1.10    0.70
  10   0   2    5.30    1.10
  11   0   2   30.90    2.70
  12   0   2   19.40    2.20
  13   0   2   25.90    2.60
  17   1  -2    0.80    1.10
  16   1  -2    4.10    1.40
  15   1  -2    3.30    1.20
 -14  -1   2   67.09    4.10
 -13  -1   2   38.00    2.50
  12  -1  -2    2.60    1.10
  12   1  -2    2.80    0.90
 -11  -1   2    7.70    0.90
  11   1  -2    5.20    1.40
 -10  -1   2   81.19    4.70
 -10   1   2   84.49    6.70
  -9  -1   2    0.80    0.40
   9   1  -2    0.40    1.40
  -9   1   2    1.50    1.80
  -9   1   2    2.20    1.20
   8  -1  -2  143.19    9.30
   8  -1  -2  143.89    8.70
   8   1  -2  139.09    8.90
  -8   1   2  130.59    9.00
  -8   1   2  133.99   10.30
   8   1  -2  137.19    9.80
   7  -1  -2   94.89    6.10
   7  -1  -2  104.69    6.70
   7  -1  -2  113.99    7.20
  -7   1   2   99.19    7.00
  -7   1   2  103.79    8.20
   7   1  -2  103.29    7.80
   7   1  -2  106.09    6.80
   6  -1  -2   19.10    2.40
   6  -1  -2   22.40    1.90
   6  -1  -2   26.00    2.20
   6  -1  -2   23.10    2.60
  -6   1   2   21.10    2.30
   6   1  -2   21.30    2.20
  -6   1   2   22.30    3.60
   6   1  -2   23.10    3.10
   5  -1  -2    2.40    0.90
   5  -1  -2    2.10    0.80
   5  -1  -2    2.60    1.20
   5  -1  -2    3.40    1.00
   5   1  -2    1.20    1.00
   5   1  -2    3.50    1.10
  -5   1   2    1.50    0.80
  -5   1   2    1.30    1.40
   5   1  -2    2.50    1.30
   4  -1  -2  727.83   46.90
   4  -1  -2  827.62   39.10
   4  -1  -2  845.52   36.90
  -4   1   2  875.31   47.40
  -4   1   2  849.61   47.20
   4   1  -2  878.51   47.20
   4   1  -2  838.02   37.00
   4   1  -2  860.81   47.10
   3  -1  -2   30.10    1.90
  -3  -1   2   31.20    1.80
   3  -1  -2   30.10    2.10
  -3   1   2   33.70    2.40
  -3   1   2   26.50    2.30
   2  -1  -2 1632.44   85.79
   2  -1  -2 1450.95   85.59
   2  -1  -2 1579.64   66.69
  -2  -1   2 1645.84   66.99
  -2   1   2 1500.95   85.59
  -2   1   2 1519.45   85.49
   2   1  -2 1428.46   66.49
  -2   1   2 1517.25   66.69
  -1  -1   2  772.22   35.70
   1  -1  -2  846.52   35.70
   1   1  -2  792.02   35.70
  -1   1   2  830.92   45.70
  -1   1   2  807.32   45.60
   1   1  -2  917.61   45.70
  -1   1   2  792.12   35.70
   1   1  -2  796.82   45.80
   0  -1   2 1497.95   81.19
   0  -1  -2 1505.25   63.19
   0  -1   2 1407.36   63.29
   0   1  -2 1476.05   81.39
   0   1   2 1402.56   81.19
   0   1   2 1473.25   81.09
   0   1  -2 1416.16   81.59
   0   1  -2 1479.75   63.39
   0   1   2 1446.26   63.19
   1  -1   2   28.70    1.90
   1  -1   2   28.80    2.90
   1  -1   2   26.40    1.90
  -1  -1  -2   29.80    1.80
   1   1   2   29.90    1.80
  -1   1  -2   28.40    3.40
   1   1   2   29.80    2.20
  -1   1  -2   29.70    2.00
  -1   1  -2   28.20    2.00
   1   1   2   33.70    1.80
  -2  -1  -2  836.72   36.80
   2  -1   2  840.02   47.70
   2  -1   2  768.72   36.90
   2  -1   2  862.31   46.90
   2   1   2  830.62   47.40
   2   1   2  811.32   36.70
  -2   1  -2  908.21   47.00
   2   1   2  838.42   46.80
  -2   1  -2  837.32   48.20
  -2   1  -2  844.72   37.10
   3  -1   2    1.70    0.50
   3  -1   2    1.70    0.80
   3  -1   2    1.90    1.20
  -3  -1  -2    1.60    0.70
   3   1   2    3.40    1.60
   3   1   2    3.30    0.80
   3   1   2    3.20    0.80
  -3   1  -2    1.20    1.80
  -3   1  -2    3.00    1.00
  -3   1  -2    1.80    0.90
  -4  -1  -2   18.60    2.10
   4  -1   2   23.20    3.60
   4  -1   2   23.40    1.90
   4  -1   2   24.50    2.20
  -4   1  -2   21.90    2.40
  -4   1  -2   21.80    3.90
   4   1   2   20.20    1.80
  -4   1  -2   21.40    2.00
   4   1   2   17.70    1.80
   4   1   2   18.50    3.50
   5  -1   2   95.89    6.00
   5  -1   2   93.59    7.40
   5  -1   2   96.49    5.50
  -5  -1  -2  105.49    5.70
  -5   1  -2   92.39    6.20
  -5   1  -2   92.19    7.90
   5   1   2   94.09    8.00
  -5   1  -2   94.99    5.80
   5   1   2   93.19    5.90
   6  -1   2  133.29    9.90
   6  -1   2  139.09    8.30
  -6  -1  -2  137.09    7.60
   6   1   2  130.69    8.30
   6   1   2  141.89   10.80
  -6   1  -2  123.89   10.20
  -6   1  -2  138.39    8.60
  -7  -1  -2    1.80    0.60
   7   1   2    2.00    2.20
  -7   1  -2    1.40    0.80
  -7   1  -2    2.10    2.10
  -8  -1  -2  100.89    5.90
  -9  -1  -2    6.20    0.80
  -9  -1  -2    6.80    1.20
   9   1   2    7.70    1.50
 -10  -1  -2    7.70    1.30
 -10  -1  -2    7.70    0.90
  10   1   2    4.80    1.40
 -11  -1  -2   38.30    2.70
  12   1   2   31.90    2.80
  13   1   2    1.80    1.00
  14   1   2    2.80    1.10
  15   1   2    2.60    1.20
  18   2  -2    0.70    1.10
  17   2  -2   -0.20    1.20
 -16  -2   2    0.30    0.60
  16   2  -2   -0.10    1.00
 -15  -2   2    3.40    0.90
  15   2  -2    0.50    0.90
 -14  -2   2    8.10    1.10
 -13  -2   2    7.40    1.00
  13   2  -2    3.60    1.00
 -12  -2   2    1.80    0.50
 -12  -2   2    2.60    0.60
  12   2  -2    1.10    0.80
 -11  -2   2   74.79    3.90
 -11  -2   2   75.59    4.40
 -10  -2   2  196.38   10.60
 -10  -2   2  184.48    9.50
  -9  -2   2   96.69    5.60
   9  -2  -2  103.19    6.60
  -9   2   2   98.29    8.90
  -8  -2   2   49.20    2.80
   8  -2  -2   46.10    3.50
   8  -2  -2   43.90    3.80
   8   2  -2   45.10    4.80
   8   2  -2   47.10    3.80
  -8   2   2   42.80    5.50
   7  -2  -2   16.50    2.00
   7  -2  -2   17.70    2.10
   7  -2  -2   15.20    2.40
   7  -2  -2   13.90    1.60
   7   2  -2   13.10    2.70
  -7   2   2   15.10    3.50
   7   2  -2   14.80    2.10
  -7   2   2   16.20    2.10
   6  -2  -2  103.29    6.50
   6  -2  -2  110.99    6.40
   6  -2  -2  108.09    6.70
   6  -2  -2  112.79    5.80
   6   2  -2  108.19    7.10
  -6   2   2  106.59    7.80
  -6   2   2   98.99    6.90
   6   2  -2  104.29    6.70
   5  -2  -2  411.46   23.80
   5  -2  -2  407.46   20.00
   5  -2  -2  429.06   23.70
   5  -2  -2  414.86   19.50
  -5   2   2  446.86   24.60
  -5   2   2  401.06   24.10
   4  -2  -2  712.63   37.90
   4  -2  -2  667.53   31.90
   4  -2  -2  677.03   37.90
  -4   2   2  645.94   38.20
  -4   2   2  680.83   38.40
   3  -2  -2    0.80    0.50
  -3  -2   2    0.50    0.40
  -3   2   2    1.10    0.60
  -3   2   2    0.60    0.50
   2  -2  -2   52.29    2.70
  -2  -2   2   46.50    2.40
  -2   2   2   50.39    2.90
  -2   2   2   45.60    2.90
  -1  -2   2  535.45   23.50
   1  -2  -2  534.85   23.50
   0  -2  -2   52.69    2.60
   0  -2   2   49.70    2.80
   0   2  -2   50.09    3.00
   0   2  -2   53.39    3.20
  -1  -2  -2    1.10    0.50
   1  -2   2    1.60    0.70
  -1   2  -2    2.30    0.80
  -1   2  -2    0.20    1.10
  -2  -2  -2  638.14   28.80
   2  -2   2  678.93   29.20
   2  -2   2  688.93   36.80
   2  -2   2  631.14   36.60
  -2   2  -2  674.43   36.80
  -2   2  -2  611.74   37.80
  -3  -2  -2  382.16   17.10
   3  -2   2  365.06   17.40
   3  -2   2  386.36   21.90
   3  -2   2  399.96   21.40
  -3   2  -2  365.96   21.60
  -3   2  -2  368.86   23.10
   4  -2   2  101.69    5.60
  -4  -2  -2   95.99    5.30
   4  -2   2  101.29    6.10
   4  -2   2  106.49    6.80
  -4   2  -2   98.89    6.30
   4   2   2   95.39    6.00
   4   2   2   95.89    6.90
  -4   2  -2  102.29    8.30
  -5  -2  -2   15.40    2.00
   5  -2   2   12.70    2.20
   5  -2   2   14.50    2.00
   5   2   2   15.00    1.50
  -5   2  -2   15.40    1.90
   5   2   2   12.20    3.20
   6  -2   2   45.10    4.10
   6  -2   2   42.30    3.20
  -6  -2  -2   46.00    2.90
  -6  -2  -2   45.40    3.60
  -6   2  -2   40.30    5.70
   6   2   2   42.60    5.30
   6   2   2   43.30    3.20
  -7  -2  -2  101.99    6.80
  -7  -2  -2  114.09    6.10
   7  -2   2   99.39    6.70
  -7   2  -2  102.09    9.70
   7   2   2   97.99    9.30
  -8  -2  -2  183.88    9.20
  -8  -2  -2  184.98   10.40
  -9  -2  -2   78.79    4.20
  -9  -2  -2   83.99    4.90
   9   2   2   79.89    5.20
 -10  -2  -2    1.50    0.30
 -10  -2  -2    3.30    1.00
  10   2   2    2.20    1.20
 -11  -2  -2    6.10    0.90
 -11  -2  -2    8.40    1.30
  11   2   2    5.30    1.50
 -12  -2  -2    8.90    1.30
 -12  -2  -2    6.10    0.80
  12   2   2    4.90    1.40
 -13  -2  -2    2.70    0.80
  13   2   2    1.40    0.90
 -14  -2  -2    0.50    0.70
  14   2   2    0.00    0.90
  15   2   2    0.50    1.00
  16   2   2    4.20    1.30
  19   3  -2    0.60    0.90
 -18  -3   2    4.40    1.20
  18   3  -2    2.30    1.30
 -17  -3   2    7.00    1.30
  17   3  -2    3.40    1.30
 -16  -3   2    2.10    0.70
  16   3  -2    1.80    1.00
 -15  -3   2    1.30    0.60
  15   3  -2    0.10    0.80
 -14  -3   2    0.20    0.30
 -14  -3   2    0.60    0.50
  14   3  -2   -0.30    0.80
 -13  -3   2    2.70    0.90
 -13  -3   2    5.00    0.70
  13   3  -2    1.30    0.80
 -12  -3   2   28.20    1.90
 -12  -3   2   28.20    1.70
  12   3  -2   18.80    2.40
 -11  -3   2   38.20    2.20
 -11  -3   2   40.70    2.50
 -10  -3   2   94.69    5.50
 -10  -3   2   98.29    4.90
  -9  -3   2  368.36   18.10
  -9  -3   2  372.66   20.20
   8  -3  -2  125.99    7.80
  -8  -3   2  126.69    7.00
   8  -3  -2  128.49    7.30
   8   3  -2  121.89    8.10
  -7  -3   2    0.30    0.30
   7  -3  -2    0.60    1.20
   7  -3  -2    1.00    1.10
   7  -3  -2    0.50    0.50
   7  -3  -2   -0.30    0.50
  -7   3   2   -0.20    0.70
   6  -3  -2   90.69    5.10
   6  -3  -2   81.09    5.40
   6  -3  -2   82.59    5.00
   6  -3  -2   84.19    5.00
  -6   3   2   84.19    5.80
  -6   3   2   83.29    6.50
   5  -3  -2  130.49    6.90
   5  -3  -2  132.59    7.30
  -5   3   2  123.89    8.40
  -5   3   2  127.79    8.00
   4  -3  -2   65.09    4.30
   4  -3  -2   65.79    4.00
  -4   3   2   64.99    4.40
  -4   3   2   70.09    4.60
  -3  -3   2   53.89    2.60
   3  -3  -2   52.19    3.00
   3  -3  -2   54.19    3.30
  -3  -3   2   49.80    2.90
  -3   3   2   52.89    3.40
  -3   3   2   49.30    3.30
  -2  -3   2  655.53   28.70
  -2  -3   2  644.64   30.90
   2  -3  -2  673.03   29.00
   1  -3  -2  655.83   28.00
  -1  -3   2  638.94   28.00
  -1  -3   2  619.84   30.10
   0  -3  -2  686.73   29.50
   0  -3   2  662.33   29.70
   1  -3   2   50.49    3.10
  -1  -3  -2   56.49    2.70
  -1   3  -2   49.80    3.70
  -1   3  -2   48.80    3.20
   2  -3   2   65.29    3.90
  -2  -3  -2   71.29    3.40
  -2   3  -2   65.69    4.20
  -2   3  -2   62.09    5.10
   3  -3   2  120.39    6.60
  -3  -3  -2  127.99    6.10
  -3   3  -2  122.09    7.60
  -3   3  -2  130.29    9.10
   4  -3   2   80.59    4.50
  -4  -3  -2   80.69    4.40
   4  -3   2   81.79    4.70
   4  -3   2   82.49    4.80
  -4  -3  -2   69.09    4.60
  -4   3  -2   76.49    7.00
  -4   3  -2   73.89    5.10
   5  -3   2   -0.10    0.60
  -5  -3  -2    0.10    0.70
  -5  -3  -2    0.30    0.80
   5  -3   2    0.30    0.90
   5  -3   2    0.60    0.50
   5   3   2    0.40    0.50
  -5   3  -2    0.40    0.60
  -6  -3  -2  126.79    7.00
   6  -3   2  124.59    7.70
  -6  -3  -2  118.59    6.80
   6   3   2  112.09    7.40
  -7  -3  -2  369.36   20.20
  -7  -3  -2  361.76   17.90
  -7  -3  -2  364.86   17.90
  -8  -3  -2   96.59    4.90
  -8  -3  -2   92.69    5.60
  -9  -3  -2   34.00    2.60
  -9  -3  -2   36.30    2.10
   9   3   2   40.00    3.10
 -10  -3  -2   26.90    1.80
 -10  -3  -2   28.20    2.20
  10   3   2   29.60    2.90
 -11  -3  -2    3.00    0.80
 -11  -3  -2    4.70    0.80
  11   3   2    4.10    1.30
 -12  -3  -2    0.20    0.30
 -12  -3  -2    0.90    0.70
  12   3   2    1.40    1.30
 -13  -3  -2    0.60    0.40
 -13  -3  -2    1.00    0.70
  13   3   2    0.70    1.10
 -14  -3  -2    4.30    1.30
  14   3   2   -0.10    0.90
 -15  -3  -2    8.10    1.30
  15   3   2    2.00    1.10
  16   3   2    2.00    1.10
  17   3   2    1.20    1.00
 -19  -4   2   -0.10    0.60
  19   4  -2    0.30    1.00
 -18  -4   2    2.30    0.80
  18   4  -2    1.00    1.00
 -17  -4   2    9.30    1.30
  17   4  -2    2.30    1.10
 -16  -4   2    1.20    0.70
  16   4  -2    0.00    0.80
 -15  -4   2    0.40    0.60
 -15  -4   2    0.10    0.30
  15   4  -2   -0.20    0.80
 -14  -4   2    1.70    0.60
 -14  -4   2    1.30    0.40
  14   4  -2    0.80    0.80
 -13  -4   2    3.30    0.80
 -13  -4   2    3.20    0.90
  13   4  -2    3.20    1.20
 -12  -4   2   22.40    1.50
 -12  -4   2   20.60    1.60
  12   4  -2   13.70    2.30
 -11  -4   2   67.69    3.80
 -11  -4   2   64.69    3.40
  11   4  -2   52.99    4.10
 -10  -4   2   66.19    3.40
 -10  -4   2   57.59    3.70
 -10   4   2   65.99    3.60
  -9  -4   2   95.39    5.00
  -9  -4   2  101.49    5.60
   8  -4  -2  172.08    9.30
  -8  -4   2  162.38    8.10
  -8  -4   2  174.08    9.00
   8  -4  -2  140.99    9.30
   7  -4  -2    0.30    1.20
  -7  -4   2    2.80    0.50
   7  -4  -2    2.80    0.90
  -7  -4   2    1.50    0.30
   7  -4  -2    2.70    1.50
   6  -4  -2   45.30    3.00
   6  -4  -2   50.89    4.00
  -6  -4   2   40.00    2.50
   6  -4  -2   51.79    3.60
  -6   4   2   46.40    3.70
   5  -4  -2   79.39    4.80
   5  -4  -2   82.99    5.00
   5  -4  -2   83.59    5.30
  -5   4   2   79.89    5.40
  -5   4   2   82.89    5.90
  -4  -4   2  106.99    5.80
   4  -4  -2  119.09    6.00
   4  -4  -2  118.49    6.60
   4  -4  -2  121.29    6.40
  -4   4   2  108.59    6.90
  -4   4   2  113.49    7.20
  -3  -4   2  136.29    7.20
   3  -4  -2  137.39    6.90
   3  -4  -2  145.59    7.50
   3  -4  -2  145.99    7.50
  -3  -4   2  148.19    6.30
  -3   4   2  139.19    8.20
  -3   4   2  136.59    8.30
  -2  -4   2   36.00    2.50
  -2  -4   2   33.70    1.90
   2  -4  -2   33.20    2.20
   2  -4  -2   33.60    2.60
   1  -4  -2  525.85   23.00
  -1  -4   2  510.15   24.90
  -1  -4   2  528.05   23.10
   0  -4   2   37.80    2.80
   0  -4  -2   33.20    2.00
   0  -4   2   38.30    2.40
  -1  -4  -2  140.39    6.50
   1  -4   2  138.39    7.10
  -1   4  -2  141.09    8.20
  -1   4  -2  145.09    8.50
  -2  -4  -2  109.19    5.40
   2  -4   2  111.29    6.10
  -2   4  -2  118.59    7.80
  -2   4  -2  122.19    7.00
  -3  -4  -2   67.69    4.40
   3  -4   2   79.39    4.70
  -3  -4  -2   77.89    3.90
  -3   4  -2   76.79    4.90
  -3   4  -2   80.99    6.30
   4  -4   2   45.50    2.70
  -4  -4  -2   44.10    2.80
   4  -4   2   45.20    3.40
  -4  -4  -2   33.60    2.80
  -4   4  -2   42.70    3.30
   5  -4   2    1.50    0.70
  -5  -4  -2    2.20    0.60
  -5  -4  -2    1.60    1.00
   5  -4   2    2.40    1.20
  -5  -4  -2    2.20    0.90
  -6  -4  -2  160.78    7.90
   6  -4   2  154.78    9.00
  -6  -4  -2  156.28    8.90
  -6  -4  -2  156.58    8.40
  -7  -4  -2   83.29    6.00
  -7  -4  -2   98.19    5.00
  -7  -4  -2   91.59    5.70
  -7   4  -2  107.59    5.40
  -8  -4  -2   64.09    3.50
  -8  -4  -2   56.89    3.90
  -8   4  -2   69.59    3.70
  -9  -4  -2   60.69    3.40
  -9  -4  -2   62.59    3.90
   9   4   2   61.59    4.00
 -10  -4  -2   19.00    1.50
 -10  -4  -2   20.40    1.90
  10   4   2   22.50    2.50
 -11  -4  -2    3.10    0.80
 -11  -4  -2    2.40    0.80
  11   4   2    1.10    1.30
 -12  -4  -2    1.30    0.40
 -12  -4  -2    3.80    1.10
  12   4   2    2.00    1.40
 -13  -4  -2   -0.20    0.60
 -13  -4  -2    0.20    0.40
  13   4   2    0.40    1.30
 -14  -4  -2    0.40    0.40
 -14  -4  -2    0.70    0.70
  14   4   2   -0.30    1.00
 -15  -4  -2    9.70    1.40
  15   4   2    2.70    1.10
 -16  -4  -2    3.60    1.10
  16   4   2    0.30    0.90
 -17  -4  -2   -0.20    0.50
  17   4   2    0.30    0.90
  19   5  -2    0.30    1.00
 -18  -5   2    1.50    0.70
  18   5  -2    1.00    1.00
 -17  -5   2    0.00    0.60
  17   5  -2   -0.20    0.80
 -16  -5   2    0.00    0.40
 -16  -5   2    1.00    0.60
  16   5  -2    0.70    0.90
 -15  -5   2    0.30    0.40
 -15  -5   2    0.90    0.60
  15   5  -2    0.40    0.80
 -14  -5   2    0.00    0.40
 -14  -5   2    0.00    0.50
  14   5  -2    0.90    0.90
 -13  -5   2    6.20    1.00
 -13  -5   2    5.80    1.00
 -12  -5   2    0.50    0.50
 -12  -5   2   -0.10    0.30
  12   5  -2   -0.40    0.90
 -11  -5   2    0.60    0.50
 -11  -5   2    0.00    0.30
 -11   5   2   -0.10    0.40
 -10  -5   2   32.50    2.00
 -10  -5   2   33.50    2.10
 -10   5   2   32.80    2.10
  -9  -5   2   36.90    2.10
  -9  -5   2   35.50    2.20
   9  -5  -2   33.20    3.00
  -9   5   2   35.30    2.20
  -8  -5   2   21.10    1.50
  -8  -5   2   24.10    1.50
   8  -5  -2   20.20    2.20
   8  -5  -2   22.10    3.10
  -8   5   2   25.50    1.60
   7  -5  -2    2.50    0.90
  -7  -5   2    1.70    0.50
   7  -5  -2    2.10    1.30
   7  -5  -2    0.20    1.50
  -7  -5   2    1.30    0.30
  -7   5   2    2.20    0.70
   6  -5  -2  120.29    6.80
   6  -5  -2  114.29    7.10
  -6  -5   2  111.99    5.80
   6  -5  -2  121.69    7.00
  -6   5   2  105.09    7.70
  -5  -5   2  112.39    5.80
   5  -5  -2  119.99    6.70
   5  -5  -2  116.19    7.00
   5  -5  -2  131.99    7.00
  -5   5   2  102.19    7.30
   4  -5  -2    2.30    0.80
  -4  -5   2    3.00    1.10
   4  -5  -2    2.50    1.40
   4  -5  -2    1.60    1.10
   4  -5  -2    3.40    0.70
  -4   5   2    2.40    1.00
   3  -5  -2    9.80    1.10
   3  -5  -2   16.30    2.20
   3  -5  -2   11.40    1.90
   3  -5  -2    9.10    1.30
  -3  -5   2    8.80    1.60
  -3   5   2    9.10    1.30
   2  -5  -2    5.00    1.00
   2  -5  -2    3.30    0.70
  -2  -5   2    6.00    1.70
   2  -5  -2    5.40    1.40
  -2  -5   2    3.70    0.70
   2  -5  -2    4.70    1.20
  -1  -5   2   59.39    3.20
   1  -5  -2   59.79    3.90
   1  -5  -2   59.09    3.40
   1  -5  -2   60.59    3.20
  -1  -5   2   58.19    4.00
   0  -5  -2    4.20    0.60
   0  -5  -2    4.50    1.30
   0  -5   2    2.80    0.80
   0  -5  -2    3.40    0.80
   1  -5   2   10.50    1.50
  -1  -5  -2    9.50    1.00
  -1   5  -2    9.60    1.50
   2  -5   2    1.30    0.90
  -2  -5  -2    2.00    0.50
  -2   5  -2    2.10    1.10
  -3  -5  -2  117.69    5.80
  -3  -5  -2  115.89    5.50
   3  -5   2  113.79    6.50
   3  -5   2  117.99    6.50
  -3   5  -2  107.09    7.20
  -4  -5  -2  114.49    5.30
   4  -5   2   99.19    5.90
  -4  -5  -2  112.09    5.30
  -4  -5  -2   90.09    5.90
   4  -5   2  108.59    6.30
  -4   5  -2   97.89    6.70
  -5  -5  -2    1.30    0.80
   5  -5   2    1.80    0.70
  -5  -5  -2    1.30    0.30
   5  -5   2    1.10    0.90
  -5  -5  -2    1.50    0.80
  -5   5  -2    1.90    0.50
  -6  -5  -2   20.80    2.30
  -6  -5  -2   21.00    1.40
  -6  -5  -2   22.10    1.90
   6  -5   2   22.60    2.00
  -6   5  -2   20.40    1.50
  -7  -5  -2   37.10    2.60
   7  -5   2   33.90    2.70
  -7  -5  -2   35.40    2.10
  -7   5  -2   36.30    2.20
  -8  -5  -2   30.00    2.00
  -8  -5  -2   33.80    2.40
  -8   5  -2   33.00    2.10
  -9  -5  -2    0.00    0.60
  -9  -5  -2   -0.30    0.30
  -9   5  -2    0.30    0.40
 -10  -5  -2   -0.10    0.70
 -10  -5  -2   -0.40    0.30
  10   5   2   -1.90    0.90
 -11  -5  -2    6.20    1.00
 -11  -5  -2    6.30    1.20
  11   5   2    3.90    1.30
 -12  -5  -2    0.40    0.60
 -12  -5  -2   -0.10    0.30
  12   5   2   -0.40    1.20
 -13  -5  -2    1.30    0.70
 -13  -5  -2    0.30    0.40
  13   5   2    0.70    1.30
 -14  -5  -2    0.60    0.70
 -14  -5  -2    0.30    0.40
  14   5   2   -1.10    1.00
 -15  -5  -2    0.80    0.60
 -15  -5  -2   -0.20    0.40
  15   5   2    0.30    0.90
 -16  -5  -2    3.30    1.00
  16   5   2    0.50    0.80
  17   5   2    0.50    0.80
 -18  -6   2    0.20    0.50
  18   6  -2    0.80    0.90
 -17  -6   2    1.40    0.70
 -17  -6   2    1.00    0.40
  17   6  -2    0.20    0.80
 -16  -6   2    4.30    1.10
 -16  -6   2    4.10    1.10
 -15  -6   2    9.00    1.10
 -15  -6   2    8.00    1.20
 -14  -6   2   25.40    1.90
 -14  -6   2   24.70    1.90
 -13  -6   2   22.60    1.60
 -13  -6   2   19.40    1.60
  13   6  -2   13.10    2.40
 -12  -6   2    3.00    0.80
 -12  -6   2    1.80    0.50
 -11  -6   2   -0.20    0.30
 -11  -6   2    0.00    0.40
 -11   6   2   -0.30    0.40
 -10  -6   2    2.10    0.50
 -10  -6   2    1.50    0.40
 -10   6   2    3.70    0.90
  -9  -6   2    8.20    0.90
  -9  -6   2    4.70    0.80
   9  -6  -2    6.10    1.90
  -9   6   2    7.60    1.00
  -8  -6   2    7.10    0.80
  -8  -6   2    4.40    0.70
   8  -6  -2    4.80    1.20
  -8   6   2    4.40    0.80
   7  -6  -2   35.50    3.90
   7  -6  -2   38.80    4.00
   7  -6  -2   38.10    2.90
  -7  -6   2   40.30    2.20
  -7   6   2   38.30    2.30
   6  -6  -2   18.00    2.70
  -6  -6   2   17.60    1.30
   6  -6  -2   18.90    1.80
   6  -6  -2   16.80    2.80
  -6   6   2   17.80    1.30
   5  -6  -2   53.49    4.40
   5  -6  -2   56.09    4.50
  -5  -6   2   55.79    3.10
   5  -6  -2   62.19    3.70
  -4  -6   2    6.20    0.80
   4  -6  -2    7.80    1.20
   4  -6  -2    5.70    1.30
   4  -6  -2    9.50    2.40
   4  -6  -2    6.40    1.70
  -3  -6   2  164.28    8.50
   3  -6  -2  171.08    9.10
   3  -6  -2  167.98    8.50
   3  -6  -2  179.48    9.60
   3  -6  -2  178.08    9.70
  -2  -6   2  737.03   36.50
   2  -6  -2  755.62   40.70
   2  -6  -2  758.32   33.80
   2  -6  -2  756.02   36.10
   2  -6  -2  739.23   33.20
   1  -6  -2  413.86   21.80
   1  -6  -2  391.46   17.90
   1  -6  -2  383.06   19.80
   1  -6  -2  426.06   18.40
  -1  -6   2  381.66   17.90
   0  -6  -2  718.03   36.10
   0  -6  -2  740.63   33.00
   0  -6  -2  764.82   33.30
   0  -6   2  764.12   33.50
   0  -6  -2  774.32   40.90
  -1  -6  -2  167.98    8.80
  -1  -6  -2  168.48    9.40
   1  -6   2  184.88    8.80
  -1  -6  -2  181.78    9.70
  -2  -6  -2    6.00    0.70
   2  -6   2    6.80    0.90
  -2  -6  -2    6.20    1.80
   2  -6   2    3.80    1.10
   3  -6   2   58.29    4.00
  -3  -6  -2   52.09    3.70
   3  -6   2   57.49    3.40
  -3  -6  -2   54.79    3.00
  -4  -6  -2   16.10    1.60
   4  -6   2   18.30    2.40
   4  -6   2   18.20    1.60
  -4  -6  -2   16.90    1.20
  -4   6  -2   16.10    1.30
   5  -6   2   33.50    3.50
  -5  -6  -2   33.00    2.60
   5  -6   2   39.90    2.70
  -5   6  -2   38.00    2.20
  -6  -6  -2    3.10    0.80
   6  -6   2    6.90    1.40
  -6  -6  -2    5.20    1.20
  -6   6  -2    6.00    0.80
  -7  -6  -2    8.00    1.00
  -7  -6  -2    9.50    1.30
   7  -6   2    6.50    1.50
  -7   6  -2    8.20    1.00
  -8  -6  -2    2.40    0.70
  -8  -6  -2    1.50    0.40
  -8   6  -2    3.00    0.80
  -9  -6  -2   -0.20    0.60
  -9  -6  -2   -0.50    0.30
  -9   6  -2   -0.30    0.50
 -10  -6  -2    1.50    0.80
 -10  -6  -2    1.40    0.40
 -11  -6  -2   17.60    1.80
 -11  -6  -2   21.10    1.60
  11   6   2   16.10    2.60
 -12  -6  -2   21.70    1.90
 -12  -6  -2   23.90    1.80
  12   6   2   18.10    2.90
 -13  -6  -2    8.60    1.20
 -13  -6  -2    6.40    1.20
  13   6   2    4.90    1.60
 -14  -6  -2    3.50    1.00
 -14  -6  -2    4.70    1.20
  14   6   2    1.00    1.20
 -15  -6  -2    0.20    0.40
 -15  -6  -2    1.70    0.60
  15   6   2    0.60    0.90
 -16  -6  -2    0.30    0.40
  16   6   2   -0.20    0.80
 -17  -7   2    0.10    0.40
  17   7  -2   -0.10    0.80
 -16  -7   2    3.70    0.90
 -16  -7   2    4.50    1.00
  16   7  -2    1.00    0.80
 -15  -7   2   19.40    1.70
 -15  -7   2   21.00    1.70
 -14  -7   2   32.00    2.20
 -14  -7   2   30.50    2.20
 -13  -7   2   30.80    2.10
 -13  -7   2   29.90    2.20
 -12  -7   2   -0.40    0.40
 -12  -7   2    1.10    0.50
 -12   7   2    0.60    0.60
 -11  -7   2   13.70    1.10
 -11  -7   2   10.90    1.30
 -11   7   2   10.40    1.30
  10  -7  -2    0.90    1.20
 -10  -7   2    1.50    0.40
 -10  -7   2    0.70    0.40
 -10   7   2    1.80    0.60
   9  -7  -2    1.00    1.20
  -9  -7   2    1.60    0.40
  -9  -7   2    2.20    0.40
  -9   7   2    1.70    0.60
  -8  -7   2    9.90    1.10
   8  -7  -2    9.00    2.00
  -8   7   2    6.60    1.00
   7  -7  -2   53.49    4.00
   7  -7  -2   51.49    5.20
   7  -7  -2   52.49    5.00
  -7  -7   2   60.59    3.20
  -7   7   2   56.49    3.30
   6  -7  -2   64.19    4.30
   6  -7  -2   57.19    5.00
  -6  -7   2   67.69    3.50
   6  -7  -2   57.09    5.40
  -6   7   2   63.09    3.60
   5  -7  -2   19.20    2.90
   5  -7  -2   20.80    3.20
   5  -7  -2   23.50    2.10
  -5  -7   2   24.50    1.50
  -5   7   2   20.50    1.40
   4  -7  -2    2.80    1.30
   4  -7  -2    4.00    1.80
  -4  -7   2    3.00    0.70
   4  -7  -2    3.70    1.20
   3  -7  -2  123.99    6.70
  -3  -7   2  129.29    6.50
   3  -7  -2  125.29    7.90
   3  -7  -2  130.39    7.40
   3  -7  -2  132.99    7.30
   2  -7  -2  301.37   13.90
   2  -7  -2  284.47   15.20
   2  -7  -2  289.97   15.90
   2  -7  -2  277.17   13.40
  -2  -7   2  287.87   14.20
  -1  -7   2  554.24   25.50
   1  -7  -2  607.44   31.50
  -1  -7   2  562.24   28.20
   1  -7  -2  558.14   25.60
   1  -7  -2  588.74   28.50
  -1  -7   2  589.34   25.50
   1  -7  -2  583.64   26.00
   0  -7   2  290.47   13.30
   0  -7  -2  298.17   15.70
   0  -7  -2  273.17   14.80
   0  -7  -2  275.17   14.00
  -1  -7  -2  132.29    7.10
   1  -7   2  124.49    6.70
  -1  -7  -2  113.69    7.40
  -1  -7  -2  122.69    6.40
   1  -7   2  131.89    7.20
   2  -7   2    4.20    1.00
   2  -7   2    3.10    1.10
  -2  -7  -2    4.50    0.80
  -2  -7  -2    3.30    1.60
  -2  -7  -2    4.30    0.90
  -3  -7  -2   21.00    1.50
   3  -7   2   20.00    2.50
   3  -7   2   25.80    1.80
  -3   7  -2   20.30    1.50
  -4  -7  -2   46.60    3.50
  -4  -7  -2   56.99    3.10
   4  -7   2   65.59    3.80
   4  -7   2   63.29    4.50
  -4   7  -2   56.29    3.30
   5  -7   2   59.19    3.60
  -5  -7  -2   50.89    2.90
  -5  -7  -2   43.10    3.30
   5  -7   2   45.00    4.20
  -5   7  -2   53.59    3.00
   6  -7   2    9.80    1.70
  -6  -7  -2    6.00    1.10
  -6  -7  -2    8.40    1.30
  -6   7  -2    9.60    1.10
   7  -7   2    2.60    1.10
  -7  -7  -2    1.80    0.70
  -7  -7  -2    1.20    0.40
  -7   7  -2    1.90    0.60
   8  -7   2    1.30    1.10
  -8  -7  -2    1.30    0.40
  -8  -7  -2    1.50    0.70
  -8   7  -2    1.30    0.50
  -9  -7  -2   11.90    1.40
  -9  -7  -2   11.30    1.30
  -9   7  -2   12.40    1.30
 -10  -7  -2   -0.70    0.60
 -10  -7  -2    0.30    0.40
 -10   7  -2    0.40    0.60
 -11  -7  -2   26.90    2.20
 -11  -7  -2   30.50    2.10
  11   7   2   25.30    2.90
 -12  -7  -2   30.70    2.10
 -12  -7  -2   29.30    2.20
  12   7   2   25.70    3.20
 -13  -7  -2   19.90    1.70
 -13  -7  -2   18.50    1.60
  13   7   2   13.50    2.60
 -14  -7  -2    1.60    0.50
 -14  -7  -2    3.80    1.00
  14   7   2    0.30    1.00
 -15  -7  -2    0.00    0.50
 -15  -7  -2    0.50    0.40
  15   7   2   -0.10    0.80
 -16  -8   2   -0.50    0.30
  16   8  -2   -0.20    0.70
 -15  -8   2    8.50    1.20
 -14  -8   2    8.20    1.30
 -13  -8   2   -0.70    0.40
 -13  -8   2   -0.20    0.50
 -12  -8   2   -0.20    0.40
 -12  -8   2   -0.50    0.40
 -12   8   2   -0.30    0.50
 -11  -8   2   -0.20    0.40
 -11  -8   2   -0.80    0.40
 -11   8   2   -0.50    0.50
 -10  -8   2   15.10    1.50
 -10  -8   2   14.90    1.10
  10  -8  -2   10.90    2.70
 -10   8   2   12.90    1.30
  -9  -8   2   10.00    1.20
   9  -8  -2   10.00    2.20
  -9   8   2   11.60    1.20
  -8  -8   2    4.60    1.00
   8  -8  -2    3.90    1.40
  -8   8   2    3.30    0.90
   7  -8  -2   17.40    2.30
  -7  -8   2   19.40    1.50
  -7   8   2   17.10    1.40
   6  -8  -2   28.80    4.20
   6  -8  -2   32.60    2.90
  -6  -8   2   35.50    2.20
  -6   8   2   36.10    2.20
  -5  -8   2   13.50    1.20
   5  -8  -2   14.50    1.90
   5  -8  -2   11.30    3.10
  -5   8   2   13.00    1.10
   4  -8  -2    1.10    0.90
  -4  -8   2    0.70    0.30
   4  -8  -2    0.60    1.80
  -4   8   2    0.90    0.40
   3  -8  -2   21.30    3.20
  -3  -8   2   21.40    1.40
   3  -8  -2   17.30    1.90
   2  -8  -2   61.09    3.80
   2  -8  -2   50.29    3.40
  -2  -8   2   59.99    3.10
   2  -8  -2   55.99    4.90
  -1  -8   2   71.39    4.20
   1  -8  -2   74.79    4.40
   1  -8  -2   63.79    5.40
   0  -8  -2   59.69    3.60
   0  -8  -2   48.60    4.70
   0  -8   2   53.29    3.30
   0  -8   2   60.99    3.50
  -1  -8  -2   18.30    1.40
  -1  -8  -2   20.30    1.70
   1  -8   2   21.40    1.60
   1  -8   2   20.30    2.00
  -1  -8  -2   15.00    3.00
  -2  -8  -2    1.10    0.70
  -2  -8  -2    1.20    0.40
   2  -8   2    1.90    0.70
  -3  -8  -2   12.80    1.20
   3  -8   2   15.90    1.60
  -3   8  -2   11.90    1.20
  -4  -8  -2   33.50    2.10
   4  -8   2   35.50    2.70
  -4   8  -2   31.00    2.10
   5  -8   2   17.90    2.00
  -5  -8  -2   15.50    1.40
  -5   8  -2   16.80    1.30
  -6  -8  -2    4.00    1.10
   6  -8   2    3.50    1.10
  -6  -8  -2    3.60    1.00
  -6   8  -2    4.50    1.00
  -7  -8  -2   12.10    1.30
   7  -8   2   12.60    2.10
  -7  -8  -2   12.50    1.30
  -7   8  -2   11.90    1.30
   8  -8   2   14.00    2.30
  -8  -8  -2   15.40    1.40
  -8  -8  -2   13.60    1.40
  -8   8  -2   13.70    1.40
  -9  -8  -2   -0.10    0.50
  -9  -8  -2   -0.20    0.40
  -9   8  -2    0.50    0.60
 -10  -8  -2   -0.20    0.40
 -10  -8  -2   -0.70    0.50
 -10   8  -2   -0.10    0.50
 -11  -8  -2   -0.50    0.40
 -11  -8  -2    0.00    0.50
 -12  -8  -2    8.10    1.10
 -12  -8  -2    8.90    1.30
  12   8   2    5.90    1.60
 -13  -8  -2    7.20    1.00
 -13  -8  -2    8.10    1.20
  13   8   2    3.20    1.30
 -14  -8  -2    0.10    0.40
 -14  -8  -2   -0.10    0.40
  14   8   2    0.00    0.80
 -15  -9   2    0.30    0.40
  15   9  -2    0.00    0.60
 -14  -9   2    0.70    0.40
  14   9  -2   -0.20    0.70
 -13  -9   2    6.30    1.20
 -12  -9   2   -0.30    0.40
 -12   9   2   -0.40    0.50
 -11  -9   2   13.30    1.40
 -11   9   2   13.20    1.40
  10  -9  -2    9.60    2.80
 -10  -9   2   10.30    1.30
 -10   9   2   10.60    1.30
   9  -9  -2    7.00    1.90
  -9  -9   2    6.50    1.10
  -9   9   2    6.20    1.00
   8  -9  -2   16.40    2.80
  -8  -9   2   16.50    1.50
  -7  -9   2   -0.30    0.30
   7  -9  -2   -0.30    1.10
  -7   9   2   -0.10    0.50
   6  -9  -2    3.00    1.30
  -6  -9   2    4.90    0.90
  -6   9   2    4.40    0.90
  -5  -9   2    9.00    1.10
   5  -9  -2    7.70    1.90
  -5   9   2    8.20    0.90
   4  -9  -2   13.20    2.00
   4  -9  -2    9.90    3.00
  -4  -9   2   13.40    1.20
  -4   9   2   12.10    1.00
   3  -9  -2    0.20    2.10
  -3  -9   2    3.90    0.80
   3  -9  -2    4.00    1.10
   2  -9  -2    2.30    0.90
   2  -9  -2    3.30    2.40
  -2  -9   2    2.60    0.80
  -1  -9   2   14.90    1.40
   1  -9  -2   11.20    3.00
   1  -9  -2   16.30    1.80
   0  -9   2    3.10    0.80
   0  -9  -2    2.00    2.00
   0  -9  -2    2.70    0.90
   1  -9   2    3.80    1.20
  -1  -9  -2    4.20    1.30
  -2  -9  -2   13.90    1.20
   2  -9   2   13.00    1.60
  -2   9  -2   11.30    1.20
  -3  -9  -2    7.60    1.00
   3  -9   2    6.80    1.40
  -3   9  -2    7.00    1.00
   4  -9   2    3.50    1.10
  -4  -9  -2    2.10    0.50
  -4   9  -2    2.80    0.60
   5  -9   2    0.50    1.00
  -5  -9  -2   -0.40    0.30
  -5   9  -2    0.00    0.50
   6  -9   2   16.30    2.30
  -6  -9  -2   15.80    1.40
  -6   9  -2   14.90    1.40
  -7  -9  -2    6.80    1.10
   7  -9   2    4.80    1.50
  -7   9  -2    6.50    1.10
   8  -9   2   10.20    2.40
  -8  -9  -2   10.60    1.30
  -8   9  -2   11.00    1.30
  -9  -9  -2   14.10    1.50
  -9  -9  -2   13.00    1.10
  -9   9  -2   14.30    1.40
 -10  -9  -2    0.20    0.40
 -10  -9  -2   -0.20    0.40
 -10   9  -2   -0.60    0.60
 -11  -9  -2    7.60    1.20
 -11  -9  -2    6.30    0.80
 -12  -9  -2    2.00    0.60
 -12  -9  -2    0.60    0.40
  12   9   2    0.30    1.00
 -13  -9  -2    0.00    0.40
  13   9   2    0.50    1.00
 -13 -10   2    0.20    0.40
 -12 -10   2    0.30    0.40
 -12  10   2   -0.10    0.50
 -11 -10   2    4.70    1.20
 -11  10   2    2.10    0.70
  10 -10  -2   15.10    2.90
 -10 -10   2   19.80    1.70
 -10  10   2   16.70    1.60
   9 -10  -2   18.40    3.00
  -9 -10   2   17.90    1.60
  -9  10   2   16.50    1.60
   8 -10  -2    0.80    1.50
  -8 -10   2    1.00    0.50
  -8  10   2    2.90    0.90
   7 -10  -2    5.70    1.70
  -7 -10   2    5.50    1.10
  -7  10   2    5.50    1.00
   6 -10  -2   -1.10    1.30
  -6 -10   2    0.10    0.40
  -6  10   2    0.30    0.50
  -5 -10   2   13.40    1.40
   5 -10  -2   11.50    2.60
  -5  10   2   13.40    1.30
  -4 -10   2   15.10    1.40
   4 -10  -2   16.50    2.60
  -4  10   2   15.50    1.30
   3 -10  -2    9.00    2.10
  -3  10   2    7.00    0.90
   2 -10  -2    2.00    1.10
  -2 -10   2    2.50    0.70
  -1 -10   2    1.40    0.70
   1 -10  -2   -0.10    0.90
   0 -10   2    2.40    0.80
   0 -10  -2    2.80    1.10
   1 -10   2    8.90    1.50
  -1 -10  -2    7.50    1.70
   2 -10   2   15.00    2.00
  -2  10  -2   16.00    1.40
  -3 -10  -2   15.20    1.40
   3 -10   2    9.90    2.00
  -3  10  -2   10.50    1.20
   4 -10   2   -1.00    1.00
  -4 -10  -2    0.30    0.40
  -4  10  -2   -0.70    0.50
   5 -10   2    4.60    1.40
  -5 -10  -2    6.80    1.20
  -5  10  -2    6.40    1.10
   6 -10   2    1.60    1.20
  -6 -10  -2    1.20    0.50
  -6  10  -2    3.40    1.10
   7 -10   2   14.80    2.70
  -7 -10  -2   19.00    1.60
  -7  10  -2   18.30    1.60
   8 -10   2   18.10    2.90
  -8 -10  -2   22.50    1.80
  -8  10  -2   19.20    1.70
  -9 -10  -2    4.80    1.20
  -9  10  -2    4.70    1.10
 -10 -10  -2    0.60    0.50
 -10  10  -2    0.10    0.60
 -11 -10  -2   -0.40    0.40
 -11 -11   2    6.50    1.10
 -11  11   2    4.40    1.00
  10 -11  -2    1.00    1.50
 -10 -11   2    6.20    1.10
 -10  11   2    4.30    1.00
  -9 -11   2    5.20    1.10
   9 -11  -2    3.20    1.50
  -9  11   2    6.20    1.10
   8 -11  -2    4.50    1.60
  -8 -11   2    5.00    1.10
  -8  11   2    6.00    1.10
   7 -11  -2   -0.20    1.20
  -7 -11   2    0.00    0.40
  -7  11   2    0.10    0.50
   6 -11  -2   -1.00    1.10
  -6 -11   2    0.10    0.40
  -6  11   2    0.30    0.50
  -5 -11   2    1.80    0.50
   5 -11  -2    2.30    1.30
  -5  11   2    2.10    0.60
   4 -11  -2    4.70    1.40
  -4  11   2    7.00    1.10
   3 -11  -2    1.60    1.20
  -3  11   2    2.90    0.90
  -2 -11   2    2.30    0.80
   2 -11  -2    1.60    1.20
  -1 -11   2    0.60    0.80
   1 -11  -2   -0.30    1.10
   0 -11  -2    1.70    1.10
   0 -11   2    2.60    1.00
   1 -11   2    2.50    1.00
  -1  11  -2    2.30    0.60
   2 -11   2    7.30    1.80
  -2  11  -2    7.80    1.10
   3 -11   2    2.50    1.30
  -3  11  -2    1.90    0.60
   4 -11   2   -0.30    1.10
  -4  11  -2   -0.30    0.50
   5 -11   2   -0.20    1.20
  -5 -11  -2    0.40    0.40
  -5  11  -2    0.70    0.60
  -6 -11  -2    8.00    1.20
   6 -11   2    3.40    1.50
  -6  11  -2    7.20    1.20
   7 -11   2    9.10    2.50
  -7 -11  -2    8.20    1.20
  -7  11  -2    7.00    1.20
  -8 -11  -2    5.30    1.10
   8 -11   2    3.20    1.70
  -8  11  -2    4.70    1.10
  -9 -11  -2    5.50    1.10
  -9  11  -2    4.80    1.20
  -8 -12   2   -0.30    0.30
  -8  12   2   -0.30    0.50
   7 -12  -2    0.40    1.20
  -7 -12   2   -0.30    0.30
  -7  12   2   -0.10    0.50
   6 -12  -2    0.90    1.20
  -6  12   2    0.20    0.50
   5 -12  -2    1.00    1.20
  -5  12   2   -0.30    0.40
   4 -12  -2   -0.20    1.10
  -4  12   2    0.10    0.40
   3 -12  -2    0.50    1.10
  -3  12   2   -0.20    0.40
   2 -12  -2    1.50    1.20
  -2  12   2    3.20    0.80
   1 -12  -2    0.20    1.10
  -1 -12   2    0.80    0.70
   0 -12   2    4.80    1.40
   0  12  -2    3.30    0.80
   1 -12   2    0.00    1.00
  -1  12  -2    0.20    0.40
   2 -12   2   -0.80    1.00
  -2  12  -2    0.30    0.50
   3 -12   2   -0.30    1.10
  -3  12  -2    0.30    0.50
   4 -12   2    0.90    1.30
  -4  12  -2    0.20    0.50
   5 -12   2    0.20    1.30
  -5  12  -2   -0.40    0.50
  -6  12  -2    0.10    0.50
  16   0  -3    6.20    1.80
  15   0  -3    1.70    1.00
  14   0  -3   16.40    2.20
  13   0  -3    1.50    1.00
  12   0  -3    0.20    0.80
 -12   0   3    0.90    0.50
 -11   0   3    3.70    0.80
 -10   0   3    1.20    0.50
   9   0  -3   49.30    4.60
  -8   0   3  226.48   14.60
  -8   0   3  245.38   15.00
   8   0  -3  260.47   15.30
   8   0  -3  249.18   14.80
   7   0  -3  120.49    6.80
   7   0  -3  123.29    7.70
  -7   0   3  112.99    7.70
   7   0  -3  122.19    7.90
  -7   0   3  106.59    8.00
   6   0  -3  106.69    6.50
   6   0  -3   94.29    5.60
   6   0  -3  101.09    4.90
  -6   0   3   92.59    6.80
   6   0  -3   98.39    6.50
  -6   0   3   85.19    6.40
   5   0  -3   31.80    2.00
  -5   0   3   32.10    3.20
   5   0  -3   37.00    2.40
  -5   0   3   39.00    3.60
   5   0  -3   31.80    2.90
   5   0  -3   39.30    3.10
   4   0  -3  220.48   13.90
  -4   0   3  212.08   14.20
   4   0  -3  264.77   14.30
  -4   0   3  254.47   11.00
  -4   0   3  236.48   14.10
   4   0  -3  253.47   11.00
  -3   0   3  109.29    6.70
  -3   0   3  112.89    7.20
  -3   0   3  109.09    5.30
   3   0  -3  120.89    7.10
   3   0  -3  110.79    6.60
   3   0  -3  103.59    5.30
   2   0  -3  753.02   33.30
   2   0  -3  767.22   43.00
  -2   0   3  730.03   33.20
  -2   0   3  770.52   42.50
   2   0  -3  775.42   42.40
  -1   0   3  719.13   41.00
   1   0  -3  750.22   32.20
  -1   0   3  688.53   41.80
  -1   0   3  738.43   32.20
   1   0  -3  758.02   41.80
   1   0  -3  750.82   41.00
   0   0  -3  100.19    4.80
   0   0   3   95.39    5.70
   0   0  -3  100.19    6.70
   0   0   3   95.19    4.70
   0   0   3   93.99    6.90
   1   0   3  221.08   10.20
  -1   0  -3  217.58   10.20
  -1   0  -3  225.08   13.60
   1   0   3  206.48   13.90
  -1   0  -3  220.08   12.60
   1   0   3  226.58   12.60
  -2   0  -3   36.20    4.10
   2   0   3   35.90    2.50
   2   0   3   39.30    2.60
  -2   0  -3   38.80    2.60
   2   0   3   28.60    4.40
  -2   0  -3   30.10    2.50
   3   0   3  100.29    5.80
   3   0   3   89.19    5.00
  -3   0  -3   95.89    5.80
   3   0   3   87.29    7.80
  -3   0  -3   89.19    7.00
  -4   0  -3  118.29    7.20
   4   0   3  114.59    9.30
   4   0   3  113.19    7.10
  -4   0  -3  118.69    8.30
   4   0   3  117.49    6.20
   5   0   3  234.88   16.60
  -5   0  -3  244.98   14.30
   5   0   3  239.18   14.30
  -5   0  -3  256.07   15.20
  -5   0  -3  247.48   12.30
  -6   0  -3   41.30    3.10
   6   0   3   46.20    5.70
  -7   0  -3    1.70    0.70
  -8   0  -3    3.20    0.90
   9   0   3    0.20    1.00
  10   0   3    3.30    1.00
  11   0   3   17.30    2.10
  12   0   3    4.20    1.10
  17   1  -3    0.00    0.90
  16   1  -3    0.70    1.20
  15   1  -3   12.30    2.00
 -14  -1   3   21.00    1.70
  13  -1  -3    5.20    1.50
  13   1  -3    4.90    1.10
 -12  -1   3    1.00    0.50
  12  -1  -3    0.10    0.80
  12   1  -3    1.00    0.70
 -11  -1   3   34.60    2.20
 -10  -1   3   36.60    2.30
 -10   1   3   34.40    3.80
  -9  -1   3   79.19    4.00
  -9   1   3   59.39    6.50
   9   1  -3   62.89    5.80
  -9   1   3   60.59    5.40
   8  -1  -3   20.70    2.50
   8  -1  -3   23.00    2.20
   8  -1  -3   17.60    2.20
   8  -1  -3   20.10    2.90
  -8   1   3   18.50    2.60
  -8   1   3   19.10    3.80
   8   1  -3   20.40    3.00
   8   1  -3   20.10    2.40
   7  -1  -3   21.80    2.80
   7  -1  -3   20.70    2.20
   7  -1  -3   28.60    2.60
   7  -1  -3   24.20    2.00
   7  -1  -3   21.10    2.10
   7   1  -3   21.00    2.40
  -7   1   3   19.20    2.60
  -7   1   3   26.60    3.80
   7   1  -3   26.70    3.00
   6  -1  -3  217.58   12.20
   6  -1  -3  187.58    9.60
   6  -1  -3  201.88    9.90
   6   1  -3  192.08   12.40
  -6   1   3  197.88   12.80
   6   1  -3  207.88   10.20
   6   1  -3  215.38   12.40
  -6   1   3  192.38   12.30
   5  -1  -3    2.30    0.90
   5  -1  -3    1.50    0.80
   5  -1  -3    1.30    0.60
   5  -1  -3    2.80    0.90
  -5   1   3    1.20    0.90
   5   1  -3    0.90    0.90
   5   1  -3    4.10    1.30
  -5   1   3    2.20    1.00
   4  -1  -3   52.89    3.20
   4  -1  -3   60.79    3.70
  -4  -1   3   58.79    3.10
   4  -1  -3   56.99    3.90
  -4   1   3   51.79    4.00
   4   1  -3   56.89    3.90
   4   1  -3   55.89    4.40
  -4   1   3   56.79    4.00
   3  -1  -3  290.77   13.20
   3  -1  -3  307.27   16.80
  -3  -1   3  298.17   13.10
   3  -1  -3  298.37   16.50
  -3   1   3  274.87   16.90
   3   1  -3  307.17   16.60
   3   1  -3  255.97   17.10
  -3   1   3  287.97   16.70
  -3   1   3  307.17   13.20
   2  -1  -3   32.70    1.90
   2  -1  -3   31.00    2.00
  -2  -1   3   30.20    1.80
   2  -1  -3   32.10    2.20
  -2   1   3   30.50    2.00
   2   1  -3   31.30    2.00
  -2   1   3   27.50    2.40
   2   1  -3   28.80    3.00
  -2   1   3   29.00    1.90
   2   1  -3   27.50    1.80
   1  -1  -3   32.00    1.90
   1  -1  -3   34.70    2.00
  -1  -1   3   30.30    2.00
  -1  -1   3   26.80    2.50
  -1  -1   3   28.60    1.90
   1  -1  -3   29.90    1.80
  -1   1   3   29.60    2.00
   1   1  -3   30.10    1.90
  -1   1   3   30.90    2.50
  -1   1   3   29.70    1.80
   1   1  -3   33.80    3.40
   1   1  -3   28.20    2.00
   0  -1   3  252.87   16.10
   0  -1   3  261.87   15.40
   0  -1  -3  281.17   12.30
   0  -1   3  269.37   12.30
   0   1  -3  277.57   12.50
   0   1  -3  257.67   16.50
   0   1  -3  286.47   15.50
   0   1   3  280.37   12.30
   0   1   3  273.87   15.90
   0   1   3  281.07   15.40
   1  -1   3   51.39    4.60
   1  -1   3   51.39    3.00
  -1  -1  -3   49.90    3.00
   1  -1   3   52.99    3.30
  -1   1  -3   51.69    3.40
  -1   1  -3   51.59    5.10
   1   1   3   52.29    2.90
   1   1   3   54.09    4.30
   1   1   3   53.89    3.20
  -2  -1  -3    2.10    0.80
   2  -1   3    1.20    0.60
   2  -1   3    5.80    1.00
   2  -1   3    1.20    1.40
   2   1   3    1.80    1.60
  -2   1  -3    2.50    1.00
  -2   1  -3    1.40    1.60
   2   1   3    2.30    0.70
   2   1   3    2.20    0.60
  -2   1  -3    2.00    0.70
  -3  -1  -3  189.38    9.20
   3  -1   3  182.58   11.00
   3  -1   3  183.38    9.10
   3   1   3  193.28   12.60
   3   1   3  191.38   10.90
  -3   1  -3  194.18    9.50
   3   1   3  187.48    9.00
  -3   1  -3  177.58   12.70
   4  -1   3   23.60    3.80
   4  -1   3   24.80    2.30
  -4  -1  -3   26.30    2.40
   4  -1   3   24.60    2.10
  -4   1  -3   15.20    3.90
   4   1   3   25.90    4.40
  -4   1  -3   24.90    2.30
  -4   1  -3   20.30    2.40
   4   1   3   23.60    2.00
   5  -1   3   12.50    3.60
   5  -1   3   18.40    1.90
  -5  -1  -3   23.60    2.50
   5   1   3   21.10    1.90
  -5   1  -3   18.90    4.00
   5   1   3   21.90    4.40
  -5   1  -3   19.40    2.10
  -6  -1  -3   72.89    4.10
   6  -1   3   60.49    4.50
   6   1   3   63.39    7.10
  -6   1  -3   56.59    6.40
  -6   1  -3   61.19    4.70
  -7  -1  -3   47.80    3.20
  -8  -1  -3   31.50    2.30
  -8  -1  -3   28.30    1.70
   8   1   3   30.50    2.90
  -9  -1  -3    0.40    0.70
  -9  -1  -3    0.20    0.30
   9   1   3    0.40    1.20
 -10  -1  -3   12.90    1.10
 -10  -1  -3   14.20    1.60
  10   1   3    8.00    2.10
 -11  -1  -3   22.40    2.00
  12   1   3   13.80    2.10
  13   1   3    1.30    1.00
  14   1   3    2.10    1.10
  19   2  -3    0.80    1.00
  18   2  -3   -0.60    1.00
  17   2  -3    0.30    1.30
  16   2  -3    2.60    1.10
 -15  -2   3   13.00    1.30
 -14  -2   3   20.70    1.60
 -13  -2   3    6.00    0.90
  13   2  -3    2.80    0.90
 -12  -2   3    0.70    0.30
 -12  -2   3    0.90    0.50
  12   2  -3    1.10    0.80
 -11  -2   3    8.10    0.80
 -11  -2   3   10.20    1.00
 -10  -2   3  194.28   10.70
  -9  -2   3    5.40    0.70
   9  -2  -3    4.20    1.20
  -9   2   3    4.80    2.40
   9   2  -3    3.20    1.70
   8  -2  -3   21.30    2.90
   8  -2  -3   23.30    2.20
   8  -2  -3   22.20    2.30
   8  -2  -3   22.90    2.10
  -8  -2   3   18.50    1.30
   8   2  -3   18.70    3.20
  -8   2   3   17.60    2.40
   8   2  -3   21.10    2.60
  -8   2   3   23.10    4.00
   7  -2  -3   34.60    3.50
   7  -2  -3   39.60    2.80
   7  -2  -3   38.50    3.00
   7  -2  -3   39.00    2.80
   7  -2  -3   38.60    2.90
  -7   2   3   34.60    4.10
   7   2  -3   40.20    3.40
  -7   2   3   34.60    3.30
   7   2  -3   31.20    3.50
   6  -2  -3    2.50    1.10
   6  -2  -3    2.20    1.30
   6  -2  -3    2.20    0.70
   6  -2  -3    1.70    0.70
   6  -2  -3    1.90    0.70
   6   2  -3    2.70    1.20
  -6   2   3    1.60    0.90
   6   2  -3    3.30    1.20
  -6   2   3    2.60    1.40
  -5  -2   3  432.96   18.30
   5  -2  -3  428.06   23.30
   5  -2  -3  385.36   19.60
   5  -2  -3  422.66   23.30
  -5   2   3  387.46   23.70
  -5   2   3  402.26   23.80
  -4  -2   3  523.45   22.40
   4  -2  -3  525.75   28.50
   4  -2  -3  470.45   28.40
   4  -2  -3  508.45   22.70
  -4   2   3  510.55   28.90
  -4   2   3  505.35   28.80
  -3  -2   3  130.39    6.00
   3  -2  -3  129.39    6.20
  -3   2   3  120.29    7.70
  -3   2   3  132.09    7.60
   2  -2  -3    1.20    0.60
  -2  -2   3    0.90    0.50
  -2   2   3    1.00    0.40
  -2   2   3    0.90    0.50
  -2   2   3    0.90    0.50
   1  -2  -3    1.20    0.50
  -1  -2   3    0.60    0.60
  -1   2   3    1.60    0.60
  -1   2   3    2.10    0.50
   1   2  -3    0.40    0.90
  -1   2   3    0.70    0.40
   1   2  -3    0.60    0.40
   0  -2  -3  142.29    6.20
   0  -2   3  126.09    6.30
   0   2  -3  125.39    7.50
   0   2  -3  123.09    8.50
  -1  -2  -3  499.45   22.00
   1  -2   3  507.55   27.60
   1  -2   3  464.05   22.10
   1  -2   3  523.95   27.80
  -1   2  -3  496.15   27.90
  -1   2  -3  467.75   29.00
   2  -2   3  407.26   22.10
   2  -2   3  370.86   17.50
   2  -2   3  380.66   21.60
  -2  -2  -3  382.86   17.30
  -2   2  -3  376.16   23.40
   2   2   3  372.96   21.50
   2   2   3  375.36   21.80
  -2   2  -3  392.76   21.80
  -3  -2  -3    3.50    0.90
   3  -2   3    1.60    1.00
   3  -2   3    2.10    0.90
   3  -2   3    1.90    0.60
  -3   2  -3    1.40    1.80
  -3   2  -3    2.80    0.80
   3   2   3    1.90    1.20
   3   2   3    1.90    0.50
   4  -2   3   30.30    2.40
   4  -2   3   32.60    3.30
   4  -2   3   31.40    2.70
  -4  -2  -3   37.20    2.80
   4   2   3   32.70    2.40
  -4   2  -3   33.60    2.70
  -4   2  -3   34.10    5.00
   4   2   3   32.10    4.20
   5  -2   3   19.10    1.90
  -5  -2  -3   22.00    1.90
   5  -2   3   22.60    2.40
  -5  -2  -3   26.80    2.50
   5  -2   3   17.20    2.70
   5   2   3   18.60    3.90
   5   2   3   21.90    1.90
  -5   2  -3   19.00    4.40
  -5   2  -3   21.30    2.20
  -6  -2  -3    3.80    1.30
  -6  -2  -3    4.90    1.30
   6  -2   3    4.00    1.20
   6   2   3    2.30    2.20
  -6   2  -3    2.60    2.00
  -7  -2  -3  177.58    8.30
   7  -2   3  171.28   10.30
   7   2   3  142.39   13.10
  -7   2  -3  159.38   13.20
  -8  -2  -3    6.80    1.30
  -8  -2  -3    8.70    0.90
   8   2   3   10.20    2.00
  -9  -2  -3    1.20    0.30
  -9  -2  -3    1.60    0.70
   9   2   3    1.40    1.20
 -10  -2  -3    6.60    1.30
 -10  -2  -3    4.50    0.80
  10   2   3    4.50    1.40
 -11  -2  -3   21.30    1.90
 -11  -2  -3   20.10    1.40
  11   2   3   15.20    2.60
 -12  -2  -3   12.10    1.10
 -12  -2  -3   13.80    1.50
  12   2   3    9.70    2.20
 -13  -2  -3    6.20    1.30
  13   2   3    1.40    1.00
  14   2   3   -0.20    0.80
  15   2   3    0.30    0.90
  16   2   3   -0.30    1.10
  20   3  -3    0.60    0.80
  19   3  -3    0.70    1.00
  19   3  -3    0.10    0.90
 -18  -3   3    3.80    1.20
  18   3  -3    0.80    1.20
 -17  -3   3   -0.20    0.70
  17   3  -3    0.50    1.00
 -16  -3   3    1.60    0.70
  16   3  -3    0.40    0.90
 -15  -3   3    3.70    0.90
  15   3  -3    0.80    0.90
 -14  -3   3   12.90    1.30
 -14  -3   3   12.20    1.10
 -13  -3   3    2.90    0.90
 -13  -3   3    4.40    0.70
  13   3  -3    1.90    0.80
 -12  -3   3    1.70    0.30
 -12  -3   3    0.80    0.50
  12   3  -3    0.40    0.80
 -11  -3   3    4.50    0.80
 -11  -3   3    4.60    0.70
 -10  -3   3    2.40    0.70
  -9  -3   3  313.87   15.60
   9  -3  -3  279.97   14.70
  -9  -3   3  260.97   14.00
  -8  -3   3    0.70    0.30
   8  -3  -3    0.40    0.50
   8  -3  -3    1.70    1.30
   8  -3  -3    1.10    1.40
   8   3  -3    0.50    1.00
  -7  -3   3   52.59    3.00
   7  -3  -3   52.69    4.40
   7  -3  -3   51.69    3.40
   7  -3  -3   51.09    3.40
   7  -3  -3   54.19    3.70
  -7   3   3   51.89    5.00
  -7   3   3   49.50    4.20
   6  -3  -3  323.07   15.30
   6  -3  -3  312.97   17.30
   6  -3  -3  328.37   15.20
   6  -3  -3  285.27   14.30
  -6   3   3  295.87   18.50
  -6   3   3  293.27   18.10
  -5  -3   3  140.99    6.20
   5  -3  -3  125.59    6.60
   5  -3  -3  124.69    6.90
  -5   3   3  129.19    8.30
  -5   3   3  127.19    8.20
  -4  -3   3    4.10    0.90
   4  -3  -3    3.70    0.90
  -4   3   3    1.90    0.80
  -4   3   3    4.00    1.10
   3  -3  -3    1.10    0.60
  -3  -3   3    1.60    0.50
  -3   3   3    0.90    0.50
  -3   3   3    0.40    0.50
   2  -3  -3   56.59    3.00
  -2  -3   3   52.09    2.80
  -2   3   3   52.39    3.10
  -2   3   3   50.39    3.20
  -1  -3   3   48.50    2.90
   1  -3  -3   56.59    2.90
   0  -3  -3    1.30    0.60
   0  -3   3    1.40    0.60
   0   3  -3    0.30    0.80
  -1  -3  -3    3.00    0.70
   1  -3   3    3.50    0.90
  -1   3  -3    4.50    1.70
  -1   3  -3    4.60    1.00
  -2  -3  -3  119.39    6.00
   2  -3   3  120.19    6.40
  -2   3  -3  125.29    9.00
  -2   3  -3  123.99    7.40
   3  -3   3  295.57   13.70
  -3  -3  -3  282.57   13.30
  -3   3  -3  286.97   16.70
  -3   3  -3  285.77   18.70
   4  -3   3   51.39    3.20
   4  -3   3   52.09    3.60
  -4  -3  -3   36.80    3.10
   4  -3   3   47.30    2.90
  -4  -3  -3   51.69    3.30
   4   3   3   46.60    3.00
  -4   3  -3   42.40    3.40
  -4   3  -3   49.70    6.00
   4   3   3   44.80    3.80
   5  -3   3    0.00    0.70
   5  -3   3    1.00    0.90
  -5  -3  -3    0.10    0.80
  -5  -3  -3    0.20    0.80
   5   3   3    0.30    0.50
  -6  -3  -3  263.67   14.50
  -6  -3  -3  251.97   13.10
  -6  -3  -3  259.27   12.80
  -7  -3  -3   -0.10    0.70
  -7  -3  -3    0.50    0.30
  -8  -3  -3    2.80    0.90
  -8  -3  -3    3.90    0.90
   8   3   3    3.30    1.10
  -9  -3  -3    1.20    0.40
  -9  -3  -3    1.70    0.80
   9   3   3    1.80    1.20
 -10  -3  -3    2.90    0.90
 -10  -3  -3    7.20    1.30
  10   3   3    5.80    1.50
 -11  -3  -3   13.90    1.50
 -11  -3  -3   11.40    1.10
  11   3   3   10.30    2.50
 -12  -3  -3    3.80    0.90
 -12  -3  -3    4.80    1.30
  12   3   3    2.40    1.40
 -13  -3  -3    1.00    0.40
 -13  -3  -3    1.00    0.70
  13   3   3    0.70    1.10
 -14  -3  -3    1.10    0.80
  14   3   3    0.40    0.90
 -15  -3  -3    5.80    1.30
  16   3   3   -0.10    0.90
  17   3   3   -0.60    1.10
  20   4  -3    1.10    0.90
 -19  -4   3   -0.30    0.60
  19   4  -3   -0.50    1.00
 -18  -4   3    1.90    0.80
  18   4  -3    1.00    1.20
 -17  -4   3    1.00    0.70
  17   4  -3    0.50    1.00
 -16  -4   3    0.40    0.60
  16   4  -3    0.20    0.90
 -15  -4   3   -0.20    0.30
 -15  -4   3    0.30    0.50
  15   4  -3    0.50    0.80
 -14  -4   3    1.60    0.40
 -14  -4   3    2.60    0.80
  14   4  -3    0.70    0.80
 -13  -4   3    1.10    0.40
 -13  -4   3    0.80    0.50
  13   4  -3    0.70    0.90
 -12  -4   3    6.50    1.00
 -12  -4   3    7.50    0.90
  12   4  -3    8.10    1.80
 -11  -4   3    2.40    0.70
 -11  -4   3    1.40    0.40
 -10  -4   3   26.70    1.70
 -10  -4   3   30.40    1.80
 -10   4   3   25.60    1.80
  -9  -4   3    4.90    0.70
  -9  -4   3    6.20    0.70
   9  -4  -3    4.00    1.80
   8  -4  -3   38.10    3.50
  -8  -4   3   41.90    2.40
  -8  -4   3   39.90    2.20
   8  -4  -3   39.50    3.10
   7  -4  -3  145.89    8.30
   7  -4  -3  131.99    8.00
  -7  -4   3  132.59    6.80
  -7  -4   3  136.99    7.50
   7  -4  -3  142.99    7.80
   6  -4  -3  217.98   11.00
  -6  -4   3  198.68   11.40
   6  -4  -3  218.88   11.30
   6  -4  -3  213.18   11.80
  -6   4   3  204.48   12.80
   5  -4  -3   86.19    5.00
   5  -4  -3   85.39    4.70
   5  -4  -3   93.59    5.60
   5  -4  -3   72.19    4.80
  -5   4   3   79.99    5.50
  -5   4   3   79.29    5.70
   4  -4  -3   20.10    1.90
   4  -4  -3   24.00    1.80
  -4  -4   3   26.90    1.50
   4  -4  -3   21.10    2.30
  -4   4   3   19.60    2.10
  -4   4   3   24.10    2.10
  -3  -4   3   88.09    4.00
   3  -4  -3   82.39    4.40
  -3   4   3   78.19    5.00
  -3   4   3   79.79    5.00
   2  -4  -3  141.39    6.80
  -2  -4   3  138.89    6.60
   1  -4  -3  141.39    6.80
  -1  -4   3  143.59    6.90
   0  -4   3   87.59    4.70
   0  -4  -3   86.29    4.40
   0   4  -3   86.89    5.50
   1  -4   3   23.20    2.10
  -1  -4  -3   19.60    1.70
  -1   4  -3   24.10    1.90
  -2  -4  -3   72.49    4.60
  -2  -4  -3   75.09    4.10
   2  -4   3   78.99    4.60
  -2   4  -3   86.59    6.70
  -2   4  -3   80.99    5.10
   3  -4   3  195.28    9.50
  -3  -4  -3  165.38   10.40
  -3  -4  -3  195.58    9.00
  -3   4  -3  193.38   11.20
   4  -4   3  133.99    7.30
  -4  -4  -3  116.49    7.60
  -4  -4  -3  132.89    6.60
  -4  -4  -3  136.29    6.90
   4  -4   3  137.69    7.50
  -5  -4  -3   39.80    3.10
  -5  -4  -3   39.50    2.20
   5  -4   3   37.40    2.60
  -5  -4  -3   34.20    2.80
   5  -4   3   42.80    3.50
  -6  -4  -3    4.80    0.80
  -6  -4  -3    4.90    1.00
  -6  -4  -3    3.80    1.40
  -7  -4  -3   26.90    1.70
  -7  -4  -3   21.50    2.10
  -7   4  -3   26.20    1.70
  -8  -4  -3    2.70    0.90
  -8  -4  -3    1.70    0.40
   8   4   3    3.80    0.90
  -9  -4  -3   10.00    1.50
  -9  -4  -3    8.10    1.10
   9   4   3    8.60    1.90
 -10  -4  -3    0.90    0.40
 -10  -4  -3    1.80    0.80
  10   4   3    1.90    1.20
 -11  -4  -3    1.00    0.40
 -11  -4  -3    1.80    0.80
  11   4   3    2.10    1.40
 -12  -4  -3   -0.10    0.70
 -12  -4  -3   -0.30    0.30
  12   4   3    0.60    1.40
 -13  -4  -3    0.70    0.70
 -13  -4  -3   -0.20    0.40
  13   4   3   -0.70    1.30
 -14  -4  -3    0.30    0.40
 -14  -4  -3    1.10    0.80
  14   4   3    0.20    0.90
 -15  -4  -3    2.10    0.80
  15   4   3    0.80    0.90
 -16  -4  -3    2.10    0.70
  16   4   3   -0.30    0.90
  17   4   3   -0.50    0.90
  19   5  -3    0.70    1.10
 -18  -5   3    2.50    0.80
  18   5  -3   -0.20    0.90
 -17  -5   3    1.80    0.70
  17   5  -3    1.40    1.00
 -16  -5   3   -0.20    0.40
 -16  -5   3   -0.10    0.60
  16   5  -3    0.10    0.80
 -15  -5   3    0.60    0.40
 -15  -5   3    1.00    0.60
  15   5  -3    1.10    0.90
 -14  -5   3    3.60    0.90
 -14  -5   3    3.80    0.90
  14   5  -3    1.60    0.90
 -13  -5   3    0.30    0.50
 -13  -5   3    0.30    0.30
  13   5  -3    0.30    0.90
 -12  -5   3    3.50    0.80
 -12  -5   3    3.20    0.80
 -11  -5   3    0.00    0.40
 -11  -5   3    0.10    0.30
 -11   5   3    0.50    0.50
 -10  -5   3    0.00    0.30
 -10  -5   3    0.50    0.40
 -10   5   3    0.10    0.40
   9  -5  -3    0.00    1.70
  -9  -5   3    0.00    0.30
   9  -5  -3   -0.20    0.90
  -9  -5   3    0.40    0.30
  -9   5   3    0.50    0.40
  -8  -5   3   28.80    1.80
  -8  -5   3   29.00    1.70
   8  -5  -3   31.40    3.20
   8  -5  -3   29.50    2.50
  -8   5   3   29.50    1.90
   7  -5  -3   33.40    3.70
  -7  -5   3   31.00    1.90
  -7  -5   3   31.40    1.90
   7  -5  -3   34.20    3.30
   7  -5  -3   34.00    2.60
  -7   5   3   33.40    2.00
  -6  -5   3   62.59    3.50
  -6  -5   3   64.29    3.30
   6  -5  -3   66.69    5.00
   6  -5  -3   62.69    4.10
   6  -5  -3   67.69    4.70
  -6   5   3   60.89    4.80
   5  -5  -3  136.09    7.40
   5  -5  -3  124.39    6.90
   5  -5  -3  119.49    6.80
  -5  -5   3  115.19    5.80
   5  -5  -3  106.49    6.20
  -5   5   3  102.79    7.40
   4  -5  -3   78.29    4.60
   4  -5  -3   82.89    4.80
   4  -5  -3   80.49    5.10
   4  -5  -3   88.59    5.50
  -4   5   3   74.49    5.30
  -3  -5   3    4.80    0.80
   3  -5  -3    5.40    1.00
   3  -5  -3    3.90    0.90
   3  -5  -3    6.20    1.60
  -3   5   3    5.30    1.00
   2  -5  -3    8.00    1.70
   2  -5  -3    7.50    1.20
  -2  -5   3    8.50    1.10
   2  -5  -3    7.50    1.00
  -1  -5   3    9.00    1.30
   1  -5  -3    8.30    1.20
   1  -5  -3    7.60    1.00
   0  -5  -3    4.00    0.90
   0  -5   3    5.00    1.30
   0  -5  -3    3.20    0.70
   0   5  -3    5.80    1.30
  -1  -5  -3   72.69    4.00
   1  -5   3   79.09    4.60
  -1  -5  -3   78.49    4.50
  -1   5  -3   82.49    5.90
   2  -5   3  119.49    6.30
  -2  -5  -3  112.89    5.50
  -2  -5  -3  108.59    6.40
  -3  -5  -3   58.29    4.00
   3  -5   3   56.39    4.20
  -3  -5  -3   62.59    3.60
  -3  -5  -3   67.49    3.30
   3  -5   3   67.99    3.80
  -3   5  -3   58.99    4.40
   4  -5   3   33.10    2.20
  -4  -5  -3   30.90    1.90
  -4  -5  -3   26.00    2.50
  -4  -5  -3   34.10    2.50
   4  -5   3   35.50    3.10
  -4   5  -3   32.20    2.00
  -5  -5  -3   28.00    2.60
  -5  -5  -3   24.30    2.40
   5  -5   3   31.00    2.20
  -5  -5  -3   28.40    1.70
  -5   5  -3   29.20    1.80
  -6  -5  -3    0.10    0.80
   6  -5   3    0.10    0.70
  -6  -5  -3    0.40    0.30
  -6  -5  -3    0.10    0.90
  -6   5  -3    0.40    0.40
  -7  -5  -3    0.10    0.30
  -7  -5  -3   -0.50    0.70
  -7  -5  -3    1.00    1.10
  -7   5  -3    0.30    0.50
  -8  -5  -3   -0.30    0.70
  -8  -5  -3   -0.20    0.30
  -8   5  -3    0.40    0.40
  -9  -5  -3    5.00    1.30
   9   5   3    3.30    1.00
 -10  -5  -3    0.40    0.40
 -10  -5  -3    0.40    0.70
  10   5   3    0.90    1.10
 -11  -5  -3    3.20    0.90
 -11  -5  -3    3.10    0.90
  11   5   3    2.70    1.40
 -12  -5  -3    0.60    0.40
 -12  -5  -3    0.70    0.70
  12   5   3    0.90    1.30
 -13  -5  -3    0.00    0.60
 -13  -5  -3   -0.30    0.40
  13   5   3   -0.80    1.20
 -14  -5  -3    1.70    0.80
 -14  -5  -3    0.80    0.40
  14   5   3    0.30    1.00
 -15  -5  -3    1.00    0.70
 -15  -5  -3    0.30    0.40
  15   5   3    0.90    0.90
 -16  -5  -3    0.70    0.60
  16   5   3    0.50    0.80
  18   6  -3    1.20    1.00
 -17  -6   3    0.20    0.40
 -17  -6   3    0.40    0.60
  17   6  -3    0.80    0.90
 -16  -6   3    0.40    0.40
 -16  -6   3    0.90    0.60
  16   6  -3    1.10    0.80
 -15  -6   3    4.00    1.00
 -15  -6   3    4.90    1.10
  15   6  -3    1.80    0.90
 -14  -6   3   10.60    1.20
 -14  -6   3    9.40    1.30
 -13  -6   3   11.70    1.10
 -13  -6   3    9.70    1.20
  13   6  -3    7.40    1.90
 -12  -6   3    1.40    0.50
 -12  -6   3    0.10    0.40
 -12   6   3    1.20    0.50
 -11  -6   3    0.10    0.40
 -11  -6   3   -0.20    0.30
 -11   6   3   -0.40    0.40
 -10  -6   3    3.50    0.70
 -10  -6   3    5.40    0.90
 -10   6   3    4.40    0.90
  -9  -6   3    4.40    0.90
   9  -6  -3    3.00    1.20
  -9  -6   3    2.60    0.50
   9  -6  -3    3.30    2.20
  -9   6   3    1.60    0.50
  -8  -6   3   15.80    1.10
  -8  -6   3   18.60    1.30
   8  -6  -3   15.70    3.10
   8  -6  -3   16.00    2.10
  -8   6   3   15.60    1.30
   7  -6  -3   44.70    4.60
   7  -6  -3   48.10    3.60
   7  -6  -3   44.20    4.30
  -7  -6   3   53.49    2.80
  -7  -6   3   51.99    2.80
  -7   6   3   50.09    2.90
   6  -6  -3  119.19    7.30
  -6  -6   3  114.29    5.80
   6  -6  -3  111.19    7.30
   6  -6  -3  112.49    6.80
  -6   6   3  114.09    6.10
   5  -6  -3   53.79    4.40
   5  -6  -3   54.69    3.60
  -5  -6   3   54.99    3.00
   5  -6  -3   62.59    4.50
   4  -6  -3   16.70    2.50
   4  -6  -3   14.10    1.80
  -4  -6   3   16.00    1.10
   4  -6  -3   14.00    1.50
   4  -6  -3   19.60    2.50
   3  -6  -3   71.79    4.70
   3  -6  -3   60.69    3.90
   3  -6  -3   65.59    3.90
  -3  -6   3   64.09    3.30
   3  -6  -3   62.39    4.50
   2  -6  -3  183.48    9.10
  -2  -6   3  166.28    7.90
   2  -6  -3  169.58    9.40
   2  -6  -3  177.28    9.60
   2  -6  -3  168.38    8.30
  -2  -6   3  163.58    8.50
   1  -6  -3  183.88    9.60
   1  -6  -3  157.38    9.20
   1  -6  -3  179.68    8.80
  -1  -6   3  167.18    8.20
   1  -6  -3  161.98    8.10
   0  -6   3   67.49    3.90
   0  -6  -3   60.49    4.30
   0  -6  -3   66.29    3.80
   0  -6  -3   62.59    3.40
  -1  -6  -3   13.10    1.30
  -1  -6  -3   15.30    1.10
   1  -6   3   13.90    1.90
  -1  -6  -3   15.10    1.30
   2  -6   3   49.60    3.70
  -2  -6  -3   53.99    2.80
  -2  -6  -3   47.90    3.20
  -3  -6  -3   94.09    6.10
  -3  -6  -3  103.19    5.30
   3  -6   3  105.09    6.20
   3  -6   3  117.79    6.00
  -3   6  -3   97.59    5.60
   4  -6   3   48.00    3.90
  -4  -6  -3   42.60    2.50
   4  -6   3   50.39    3.00
  -4  -6  -3   38.70    3.10
  -4   6  -3   46.40    2.70
   5  -6   3   16.70    1.70
  -5  -6  -3   12.70    1.20
  -5  -6  -3    9.80    1.80
  -5   6  -3   14.90    1.20
   6  -6   3    3.70    1.00
  -6  -6  -3    2.80    1.00
  -6   6  -3    3.50    0.90
  -7  -6  -3    1.70    0.40
   7  -6   3    3.60    1.10
  -7  -6  -3    3.20    0.90
  -7   6  -3    5.70    0.90
  -8  -6  -3   -0.10    0.30
  -8  -6  -3    0.00    0.70
  -8   6  -3   -0.10    0.40
  -9  -6  -3    0.50    0.70
  -9  -6  -3    1.00    0.40
  -9   6  -3    1.00    0.50
 -10  -6  -3    9.30    1.60
 -10  -6  -3   12.80    1.30
  10   6   3    7.70    2.10
 -11  -6  -3    6.10    1.30
 -11  -6  -3    9.60    1.20
  11   6   3    5.80    1.60
 -12  -6  -3    4.10    1.10
 -12  -6  -3    5.10    1.20
  12   6   3    4.20    1.50
 -13  -6  -3    0.20    0.40
 -13  -6  -3    0.20    0.60
  13   6   3    1.00    1.40
 -14  -6  -3    0.40    0.40
 -14  -6  -3    0.60    0.60
  14   6   3    0.60    1.10
 -15  -6  -3    0.10    0.40
 -15  -6  -3    0.20    0.60
  15   6   3    0.80    0.90
 -17  -7   3    0.80    0.40
  17   7  -3    0.60    0.80
 -16  -7   3   13.00    1.40
 -15  -7   3    8.90    1.20
 -15  -7   3    9.40    1.30
 -14  -7   3    7.80    1.10
 -14  -7   3    8.20    1.30
 -13  -7   3    1.60    0.60
 -13  -7   3    3.20    0.70
 -12  -7   3   -0.60    0.40
 -12  -7   3   -0.70    0.40
 -12   7   3    0.30    0.50
 -11  -7   3   -1.00    0.30
 -11  -7   3   -0.10    0.40
 -11   7   3    0.10    0.50
 -10  -7   3   12.80    1.00
  10  -7  -3   14.50    2.50
 -10  -7   3   13.70    1.30
 -10   7   3   12.80    1.30
   9  -7  -3    8.30    2.10
  -9  -7   3   10.50    0.90
  -9  -7   3   13.10    1.20
  -9   7   3    9.50    1.10
  -8  -7   3   45.90    2.60
   8  -7  -3   42.90    4.90
   8  -7  -3   41.50    3.50
  -8   7   3   43.90    2.70
   7  -7  -3   88.09    6.80
   7  -7  -3   96.99    6.00
   7  -7  -3   79.19    6.50
  -7  -7   3   96.79    4.90
  -7   7   3   91.29    5.10
   6  -7  -3   35.50    3.00
   6  -7  -3   35.00    3.90
   6  -7  -3   35.40    4.00
  -6  -7   3   38.50    2.20
  -6   7   3   36.90    2.20
   5  -7  -3   23.70    3.40
   5  -7  -3   24.80    3.10
  -5  -7   3   23.70    1.60
   5  -7  -3   23.90    2.20
  -5   7   3   23.30    1.50
   4  -7  -3    0.50    1.10
   4  -7  -3    0.70    1.70
  -4  -7   3   -0.30    0.30
   4  -7  -3   -0.60    0.70
   3  -7  -3   77.29    4.80
   3  -7  -3   89.59    5.30
   3  -7  -3   87.99    6.00
   3  -7  -3   87.39    5.50
  -3  -7   3   87.49    4.50
  -2  -7   3  120.89    5.90
   2  -7  -3  113.89    6.30
   2  -7  -3  135.89    7.30
   2  -7  -3  122.99    7.60
   2  -7  -3  140.49    7.10
  -2  -7   3  123.09    6.40
   1  -7  -3  124.49    7.60
  -1  -7   3  116.39    6.40
   1  -7  -3  137.29    7.30
  -1  -7   3  129.99    6.30
   1  -7  -3  130.19    6.70
   1  -7  -3  119.69    6.20
   0  -7  -3   86.99    4.90
   0  -7  -3   76.09    4.10
   0  -7  -3   82.29    4.30
   0  -7   3   87.19    4.80
   0  -7  -3   75.29    5.40
   0  -7  -3   85.29    4.40
   1  -7   3   -0.60    0.80
  -1  -7  -3    0.10    0.30
  -1  -7  -3   -1.30    1.20
  -1  -7  -3   -0.20    0.60
  -2  -7  -3   23.40    2.70
  -2  -7  -3   22.10    1.40
  -2  -7  -3   19.90    1.80
   2  -7   3   21.00    2.50
  -2   7  -3   18.10    1.60
   3  -7   3   36.30    2.40
   3  -7   3   33.80    3.30
  -3  -7  -3   34.40    2.00
  -3  -7  -3   25.90    2.50
  -3   7  -3   31.20    2.10
   4  -7   3   80.19    5.80
   4  -7   3   96.89    5.40
  -4  -7  -3   83.49    4.60
  -4   7  -3   84.29    4.80
  -5  -7  -3   38.40    2.50
  -5  -7  -3   40.50    3.10
   5  -7   3   49.00    3.20
  -5   7  -3   42.10    2.60
  -6  -7  -3    8.20    1.10
   6  -7   3   10.30    1.80
  -6  -7  -3    9.60    1.50
  -6   7  -3   11.60    1.20
   7  -7   3   14.30    2.00
  -7  -7  -3   15.20    1.40
  -7  -7  -3   15.50    1.70
  -7   7  -3   13.90    1.30
  -8  -7  -3    0.00    0.30
  -8  -7  -3   -0.90    0.70
  -8   7  -3   -0.50    0.50
  -9  -7  -3   -1.00    0.70
  -9  -7  -3    0.30    0.40
  -9   7  -3   -0.20    0.50
 -10  -7  -3    5.90    1.20
 -10  -7  -3    3.50    0.90
  10   7   3    1.00    1.10
 -11  -7  -3    6.70    1.30
 -11  -7  -3    8.10    1.20
  11   7   3    5.40    1.60
 -12  -7  -3    7.90    1.20
 -12  -7  -3    9.40    1.30
  12   7   3    4.40    1.50
 -13  -7  -3   12.80    1.40
 -13  -7  -3   13.00    1.50
  13   7   3   11.90    2.40
 -14  -7  -3    2.80    0.90
 -14  -7  -3    0.90    0.40
  14   7   3    0.50    1.00
 -16  -8   3    1.50    0.50
  16   8  -3    0.30    0.70
 -14  -8   3   10.50    1.40
 -13  -8   3   -0.40    0.40
 -12  -8   3    5.80    1.20
 -12   8   3    7.10    1.10
 -11  -8   3   15.40    1.50
 -11   8   3   16.80    1.50
 -10  -8   3    0.60    0.40
  10  -8  -3    1.60    1.50
 -10   8   3    1.30    0.60
   9  -8  -3    3.70    1.40
  -9  -8   3    1.80    0.50
  -9   8   3    3.20    0.90
  -8  -8   3   13.50    1.30
   8  -8  -3   10.80    2.40
  -8   8   3   11.00    1.20
  -7  -8   3   15.60    1.30
   7  -8  -3   13.80    2.20
   7  -8  -3   13.60    3.60
  -7   8   3   14.30    1.20
   6  -8  -3   37.20    3.10
  -6  -8   3   39.60    2.30
   6  -8  -3   29.30    4.20
  -6   8   3   37.90    2.30
   5  -8  -3   11.30    3.10
   5  -8  -3   14.30    1.90
  -5  -8   3   12.30    1.20
  -5   8   3   12.60    1.10
   4  -8  -3    1.60    1.90
   4  -8  -3    0.60    0.90
  -4  -8   3    0.60    0.30
  -4   8   3    0.10    0.30
   3  -8  -3    0.50    0.70
   3  -8  -3    0.20    0.80
   3  -8  -3    1.60    1.80
  -3  -8   3    0.30    0.30
   2  -8  -3   20.00    2.00
   2  -8  -3   17.30    3.10
  -2  -8   3   19.80    1.30
   2  -8  -3   16.20    1.70
   1  -8  -3   14.70    3.10
   1  -8  -3   20.90    1.90
  -1  -8   3   17.70    1.50
   0  -8   3    0.20    0.50
   0  -8  -3   -0.20    0.70
   0  -8  -3   -1.10    1.60
  -1  -8  -3    1.00    1.70
   1  -8   3    1.30    0.60
  -1  -8  -3    0.20    0.30
  -1  -8  -3    0.80    0.80
  -2  -8  -3   10.10    1.70
  -2  -8  -3   12.70    1.10
   2  -8   3   17.30    1.50
  -2   8  -3   12.00    1.20
   3  -8   3   37.90    2.70
  -3  -8  -3   36.50    2.20
  -3  -8  -3   32.00    2.70
  -3   8  -3   34.60    2.20
   4  -8   3   16.60    1.90
  -4  -8  -3   13.00    1.30
  -4  -8  -3    9.80    1.80
  -4   8  -3   13.00    1.30
  -5  -8  -3    9.60    1.20
   5  -8   3   14.00    1.90
  -5  -8  -3    9.30    1.70
  -5   8  -3   11.20    1.20
   6  -8   3    2.40    1.10
  -6  -8  -3    2.70    0.90
  -6  -8  -3    3.90    0.90
  -6   8  -3    4.20    1.00
   7  -8   3    0.30    1.10
  -7  -8  -3    0.70    0.70
  -7  -8  -3    0.70    0.40
  -7   8  -3    1.50    0.60
  -8  -8  -3   16.90    1.50
  -8  -8  -3   14.50    1.50
   8  -8   3   16.40    2.70
  -8   8  -3   16.60    1.50
  -9  -8  -3    7.60    1.20
  -9  -8  -3    7.10    1.20
  -9   8  -3    6.10    1.10
 -10  -8  -3   -0.70    0.40
 -10  -8  -3    0.20    0.60
 -11  -8  -3    9.00    1.20
 -11  -8  -3   10.60    1.30
  11   8   3    9.20    2.30
 -12  -8  -3   14.10    1.50
 -12  -8  -3   15.50    1.40
  12   8   3   12.50    2.40
 -13  -8  -3    3.30    0.80
 -13  -8  -3    1.60    0.50
  13   8   3    1.70    1.20
 -15  -9   3    1.40    0.40
  15   9  -3    0.10    0.70
 -14  -9   3    1.10    0.50
 -13  -9   3    1.10    0.50
 -12  -9   3    0.10    0.40
 -12   9   3    0.50    0.60
 -11  -9   3    0.80    0.50
 -11   9   3    0.70    0.50
  10  -9  -3   23.50    3.10
 -10  -9   3   25.20    1.90
 -10   9   3   22.70    1.80
  -9  -9   3    0.20    0.40
   9  -9  -3    2.20    1.50
  -9   9   3    0.90    0.50
  -8  -9   3    0.30    0.40
   8  -9  -3    0.10    1.30
  -8   9   3    0.20    0.50
   7  -9  -3    5.90    1.70
  -7  -9   3    6.70    1.10
  -7   9   3    6.90    1.00
   6  -9  -3    5.20    1.50
   6  -9  -3    2.00    2.30
  -6  -9   3    5.70    1.00
  -6   9   3    4.90    0.90
  -5  -9   3    8.90    1.10
   5  -9  -3    6.90    3.00
   5  -9  -3    6.10    1.60
  -5   9   3    7.30    0.90
   4  -9  -3    9.40    3.00
  -4  -9   3   10.90    1.10
   4  -9  -3   12.40    2.20
  -4   9   3   10.20    0.90
   3  -9  -3    4.20    1.20
   3  -9  -3    2.00    2.20
  -3  -9   3    2.90    0.70
  -3  -9   3    3.50    0.80
   2  -9  -3    5.70    2.30
  -2  -9   3    3.00    0.80
   2  -9  -3    4.60    1.50
  -1  -9   3    3.40    0.90
   1  -9  -3    4.20    2.30
   1  -9  -3    3.00    1.00
   0  -9  -3    3.90    2.40
   0  -9  -3    2.60    1.00
   0  -9   3    3.60    1.00
   1  -9   3   12.40    1.50
  -1  -9  -3   10.50    1.70
   2  -9   3    8.90    1.50
  -2  -9  -3    7.10    1.70
  -2  -9  -3    7.30    1.00
  -2   9  -3    7.40    1.10
  -3  -9  -3    5.50    1.00
  -3  -9  -3    3.10    1.10
   3  -9   3    4.40    1.40
  -3   9  -3    4.40    1.00
  -4  -9  -3    7.60    1.10
   4  -9   3    7.20    1.60
  -4   9  -3    6.30    1.00
   5  -9   3    0.70    1.00
  -5  -9  -3    0.00    0.40
  -5   9  -3    0.10    0.50
  -6  -9  -3    0.20    0.40
   6  -9   3   -0.10    1.00
  -6   9  -3    0.10    0.50
  -7  -9  -3   26.40    1.90
  -7  -9  -3   24.40    1.80
   7  -9   3   22.10    2.80
  -7   9  -3   23.50    1.90
   8  -9   3    0.80    1.30
  -8  -9  -3    0.90    0.50
  -8  -9  -3    0.40    0.40
  -8   9  -3    0.60    0.60
  -9  -9  -3    0.40    0.40
  -9  -9  -3    0.30    0.40
  -9   9  -3    0.30    0.50
 -10  -9  -3    3.60    0.80
 -10  -9  -3    0.70    0.50
 -11  -9  -3    1.20    0.40
 -11  -9  -3    0.60    0.40
  11   9   3    1.20    1.10
 -12  -9  -3    1.40    0.50
  12   9   3    1.80    1.20
 -13 -10   3    1.10    0.40
 -12 -10   3    0.30    0.40
 -12  10   3    0.20    0.50
 -11 -10   3    0.80    0.50
  11 -10  -3   -0.40    1.30
 -11  10   3    0.50    0.60
  10 -10  -3   -0.30    1.20
 -10 -10   3    0.10    0.40
 -10  10   3    1.00    0.60
  -9 -10   3    7.20    1.30
   9 -10  -3    4.80    1.60
  -9  10   3    7.90    1.20
  -8 -10   3   -0.10    0.40
   8 -10  -3    1.40    1.40
  -8  10   3    0.90    0.60
   7 -10  -3    1.70    1.40
  -7 -10   3    1.00    0.40
  -7  10   3    1.40    0.50
  -6 -10   3    1.20    0.40
   6 -10  -3    1.30    1.30
  -6  10   3    2.10    0.60
  -5 -10   3   11.60    1.30
   5 -10  -3   12.20    2.30
  -5  10   3   12.80    1.20
  -4 -10   3   14.00    1.30
   4 -10  -3   15.00    2.30
  -4  10   3   14.20    1.20
   3 -10  -3   13.00    2.10
   3 -10  -3   15.20    4.20
  -3 -10   3   15.40    1.40
  -3  10   3   13.00    1.20
   2 -10  -3    8.50    2.10
   2 -10  -3    6.80    3.10
  -2 -10   3    9.30    1.20
  -1 -10   3    9.70    1.30
   1 -10  -3    8.60    2.00
   0 -10  -3   12.20    2.10
   0 -10   3   14.50    1.60
  -1 -10  -3   11.70    2.10
   1 -10   3   12.60    1.70
  -1  10  -3   15.30    1.40
   2 -10   3   10.90    1.80
  -2  10  -3   11.80    1.30
  -3 -10  -3    1.00    0.40
   3 -10   3    1.30    1.00
  -3  10  -3    1.50    0.60
   4 -10   3    1.20    1.10
  -4 -10  -3    1.30    0.50
  -4  10  -3    0.80    0.60
  -5 -10  -3    0.50    0.40
   5 -10   3   -0.50    1.10
  -5  10  -3    0.90    0.60
   6 -10   3    7.00    2.10
  -6 -10  -3    7.40    1.30
  -6  10  -3    7.40    1.30
   7 -10   3   -0.30    1.30
  -7 -10  -3    0.50    0.50
  -7  10  -3    0.10    0.60
  -8 -10  -3    0.40    0.50
   8 -10   3    0.40    1.50
  -8  10  -3   -0.10    0.60
  -9 -10  -3    0.30    0.40
  -9  10  -3   -0.30    0.60
 -10 -10  -3    1.20    0.50
 -11 -11   3   -0.10    0.40
 -11  11   3    0.40    0.50
 -10 -11   3    0.10    0.40
  10 -11  -3    0.50    1.50
 -10  11   3    0.20    0.50
   9 -11  -3   -0.80    1.30
  -9 -11   3   -0.70    0.40
  -9  11   3    0.60    0.60
   8 -11  -3   -0.70    1.30
  -8 -11   3   -0.40    0.30
  -8  11   3   -0.80    0.60
  -7 -11   3    0.50    0.40
   7 -11  -3   -0.20    1.20
  -7  11   3    0.00    0.50
   6 -11  -3    1.30    1.40
  -6 -11   3    0.60    0.40
  -6  11   3    0.70    0.50
  -5 -11   3    1.50    0.50
   5 -11  -3    1.50    1.30
  -5  11   3    3.80    1.00
   4 -11  -3    9.50    2.30
  -4  11   3    7.50    1.00
   3 -11  -3    4.00    1.50
  -3  11   3    7.10    1.00
   2 -11  -3    2.00    1.20
  -2 -11   3    2.10    0.80
  -1 -11   3    2.70    0.90
   1 -11  -3    1.50    1.20
   0 -11   3    7.60    1.50
   0 -11  -3    4.50    1.50
   0  11  -3    7.40    1.10
   1 -11   3    7.50    1.70
  -1  11  -3    7.30    1.10
   2 -11   3    2.10    1.10
  -2  11  -3    2.40    0.70
   3 -11   3    1.20    1.10
  -3  11  -3    0.50    0.60
   4 -11   3   -1.20    1.00
  -4  11  -3    0.30    0.60
   5 -11   3    0.50    1.20
  -5 -11  -3   -0.20    0.40
  -5  11  -3   -0.30    0.50
  -6 -11  -3    0.60    0.40
   6 -11   3    0.20    1.30
  -6  11  -3    0.40    0.60
  -7 -11  -3    0.20    0.40
   7 -11   3   -1.20    1.30
  -7  11  -3   -0.10    0.60
  -8 -11  -3    0.30    0.40
  -8  11  -3   -0.70    0.50
  -8 -12   3    0.10    0.30
  -8  12   3   -0.20    0.40
   7 -12  -3    3.30    1.40
  -7  12   3    3.50    0.90
   6 -12  -3    0.90    1.30
  -6  12   3    1.70    0.60
   5 -12  -3    0.30    1.20
  -5  12   3   -0.50    0.40
   4 -12  -3    0.60    1.30
  -4  12   3   -0.20    0.40
   3 -12  -3    0.40    1.10
  -3  12   3   -0.10    0.40
   2 -12  -3   -2.00    1.10
  -2  12   3   -0.40    0.40
  -1 -12   3    0.40    0.90
   1 -12  -3   -0.50    1.10
   0 -12   3   -0.50    0.90
   0  12  -3   -0.10    0.50
   1 -12   3    0.90    0.90
  -1  12  -3    0.40    0.50
   2 -12   3    0.00    0.90
  -2  12  -3    0.40    0.50
   3 -12   3    0.20    1.00
  -3  12  -3    1.60    0.60
   4 -12   3    2.50    1.20
  -5  12  -3   -0.30    0.50
  16   0  -4    6.90    1.80
  15   0  -4   -0.10    0.80
  14   0  -4    0.00    0.90
  13   0  -4    1.70    1.10
 -12   0   4  100.89    5.80
 -11   0   4    8.30    1.00
 -10   0   4  172.48    9.60
   9   0  -4  236.88   14.80
   8   0  -4   67.19    5.00
  -8   0   4   56.09    5.20
  -8   0   4   57.79    4.90
   8   0  -4   70.49    3.70
   8   0  -4   67.59    5.00
   7   0  -4  121.39    8.00
   7   0  -4  123.69    6.10
  -7   0   4  112.59    8.10
   7   0  -4  126.59    7.90
  -7   0   4  121.89    8.40
   6   0  -4  510.35   26.80
  -6   0   4  466.55   26.90
   6   0  -4  407.06   26.40
  -5   0   4  480.65   28.70
  -5   0   4  503.15   22.40
   5   0  -4  565.94   29.00
  -5   0   4  481.45   29.00
   5   0  -4  473.05   28.50
   4   0  -4  481.35   25.30
   4   0  -4  420.16   19.40
  -4   0   4  433.86   19.40
  -4   0   4  429.56   24.70
   4   0  -4  428.66   24.60
  -4   0   4  408.06   25.30
   3   0  -4  245.68   13.90
   3   0  -4  238.88   11.10
  -3   0   4  229.98   14.70
  -3   0   4  240.28   14.00
   3   0  -4  259.47   14.70
  -3   0   4  239.78   11.10
  -2   0   4 2735.23  115.79
  -2   0   4 2579.84  149.29
   2   0  -4 2535.25  149.09
   2   0  -4 2833.62  149.19
  -2   0   4 2663.83  149.09
   2   0  -4 2645.74  115.79
   1   0  -4  235.18   14.20
   1   0  -4  231.98   10.70
   1   0  -4  229.78   13.20
  -1   0   4  248.88   13.10
  -1   0   4  215.48   14.40
  -1   0   4  216.48   10.50
   0   0  -4  414.36   23.80
   0   0   4  407.36   22.70
   0   0  -4  397.56   22.60
   0   0  -4  409.16   18.10
   0   0   4  376.36   24.00
   0   0   4  398.76   18.00
  -1   0  -4  474.85   26.40
   1   0   4  445.76   20.00
   1   0   4  409.56   26.70
   1   0   4  447.26   25.20
  -1   0  -4  457.15   20.20
  -1   0  -4  432.86   25.10
   2   0   4  465.65   21.10
   2   0   4  482.65   26.50
   2   0   4  418.06   28.10
  -2   0  -4  477.85   26.40
  -2   0  -4  485.75   27.60
  -2   0  -4  459.75   21.30
   3   0   4  112.29    6.90
  -3   0  -4  121.79    7.00
   3   0   4  105.59    9.10
   3   0   4  120.69    6.10
  -3   0  -4   88.89    6.00
  -3   0  -4  120.59    8.20
   4   0   4   62.69    4.00
  -4   0  -4   64.09    5.40
   4   0   4   57.09    6.50
  -4   0  -4   63.49    4.30
   4   0   4   60.79    4.20
   5   0   4  204.78   15.80
  -5   0  -4  243.88   14.40
  -5   0  -4  227.08   13.40
  -7   0  -4   10.80    1.50
  -8   0  -4   86.39    4.40
   9   0   4    2.60    1.10
  10   0   4    0.30    0.90
  11   0   4   -0.20    0.90
  18   1  -4    0.70    1.00
  17   1  -4    6.50    1.80
  16   1  -4   -1.00    1.00
 -15  -1   4   19.70    1.70
 -14  -1   4    1.90    0.60
  14   1  -4    0.90    0.90
 -13  -1   4    2.50    0.60
  13  -1  -4    1.60    0.80
  13   1  -4    1.20    0.80
 -12  -1   4   -0.10    0.40
  12   1  -4    0.10    0.70
 -11  -1   4    0.80    0.40
  11   1  -4    0.70    0.70
 -10  -1   4    6.20    0.80
  10   1  -4    7.10    2.40
   9  -1  -4   97.29    6.80
  -9  -1   4  101.69    5.60
   9  -1  -4  106.59    5.70
  -9   1   4   89.29    7.20
   9   1  -4  100.19    7.30
  -9   1   4   99.49    8.30
   8  -1  -4  136.89    6.90
   8  -1  -4  129.19    7.70
   8  -1  -4  131.99    8.40
   8  -1  -4  135.59    8.50
   8   1  -4  121.39    8.60
   8   1  -4  129.59    8.80
  -8   1   4  126.39    8.90
  -8   1   4  131.99    9.60
   7  -1  -4   28.50    2.60
   7  -1  -4   25.50    2.00
   7  -1  -4   26.00    2.50
  -7   1   4   22.30    3.40
  -7   1   4   21.90    2.90
   7   1  -4   25.00    2.80
   7   1  -4   32.30    3.10
   6  -1  -4   26.70    2.40
   6  -1  -4   21.40    2.00
  -6  -1   4   23.30    2.00
   6  -1  -4   22.70    2.20
   6   1  -4   23.90    2.50
  -6   1   4   18.50    2.60
   6   1  -4   21.30    2.80
  -6   1   4   22.60    2.90
   5  -1  -4   78.69    5.10
   5  -1  -4   76.99    4.20
  -5  -1   4   74.19    4.00
   5   1  -4   70.19    5.60
  -5   1   4   66.09    5.30
  -5   1   4   81.09    5.30
   5   1  -4   74.49    5.00
   4  -1  -4  912.11   53.59
   4  -1  -4  974.50   53.29
  -4  -1   4  977.70   41.80
  -4   1   4  903.31   53.89
   4   1  -4 1033.60   54.29
   4   1  -4  905.01   53.39
  -4   1   4  969.60   53.49
  -4   1   4  946.11   41.90
   3  -1  -4   53.59    3.80
   3  -1  -4   52.69    3.40
   3  -1  -4   53.79    3.10
  -3  -1   4   53.39    3.00
   3   1  -4   57.89    5.00
  -3   1   4   54.29    3.50
   3   1  -4   56.19    3.50
  -3   1   4   50.19    4.20
  -3   1   4   56.59    3.10
   2  -1  -4  942.81   47.10
   2  -1  -4  760.42   46.70
  -2  -1   4  790.32   36.70
   2  -1  -4  880.71   36.80
  -2  -1   4  799.72   47.30
  -2  -1   4  896.61   46.80
  -2   1   4  798.42   46.80
  -2   1   4  842.42   47.50
   2   1  -4  893.11   46.90
   2   1  -4  825.32   47.90
  -2   1   4  807.32   36.70
   2   1  -4  810.22   36.80
   1  -1  -4   54.39    3.30
   1  -1  -4   57.89    3.60
  -1  -1   4   52.89    3.10
   1  -1  -4   56.69    3.10
  -1  -1   4   51.89    3.40
  -1  -1   4   45.90    4.50
   1   1  -4   52.59    3.20
   1   1  -4   49.90    5.00
  -1   1   4   55.09    3.00
  -1   1   4   51.59    3.40
   1   1  -4   59.59    3.50
   0  -1   4  869.51   52.09
   0  -1   4  841.72   50.99
   0  -1  -4  941.51   40.20
   0  -1   4  891.71   40.20
   0  -1  -4 1012.00   51.09
   0  -1  -4  960.10   50.89
   0   1  -4  871.11   52.49
   0   1   4  914.81   51.99
   0   1  -4  908.41   51.09
   0   1  -4  891.31   40.30
   0   1   4  948.21   51.09
   0   1   4  896.71   40.10
   1  -1   4   66.39    6.00
  -1  -1  -4   77.39    4.10
   1  -1   4   69.89    4.40
   1  -1   4   68.99    4.00
   1   1   4   67.69    5.90
   1   1   4   71.69    3.90
  -1   1  -4   69.69    4.50
  -1   1  -4   69.09    4.20
   1   1   4   80.09    4.50
  -1   1  -4   58.59    6.20
   2  -1   4   26.40    2.00
  -2  -1  -4   17.30    2.00
   2  -1   4   20.60    2.00
   2  -1   4   22.60    3.70
   2   1   4   21.90    1.90
  -2   1  -4   23.30    2.00
   2   1   4   18.20    3.70
   2   1   4   21.60    1.80
  -2   1  -4   20.20    4.00
  -2   1  -4   19.90    2.20
   3  -1   4   20.50    2.00
  -3  -1  -4   25.00    2.30
  -3   1  -4   23.60    2.50
  -3   1  -4   22.90    4.20
  -3   1  -4   22.50    2.00
   3   1   4   22.00    1.90
   3   1   4   20.00    4.00
   3   1   4   23.80    2.10
   4  -1   4  105.19    9.20
   4  -1   4  138.59    7.70
   4  -1   4  120.19    6.70
  -4  -1  -4  129.09    7.00
  -4   1  -4  124.69    9.80
   4   1   4  122.69    7.60
  -4   1  -4  128.29    7.90
   4   1   4  115.49    9.90
  -5  -1  -4   94.19    5.40
   5  -1   4   82.29    5.80
   5   1   4   94.29    8.70
  -5   1  -4   89.79    6.10
  -5   1  -4   91.29    8.10
  -6  -1  -4    7.30    1.50
  -7  -1  -4    0.80    0.70
  -7  -1  -4    0.00    0.30
   7   1   4    0.70    1.00
  -8  -1  -4    0.00    0.70
  -8  -1  -4   -0.10    0.30
   8   1   4    0.10    1.10
  -9  -1  -4    1.60    0.80
  -9  -1  -4    1.50    0.40
   9   1   4    2.40    1.30
 -10  -1  -4    1.80    0.40
 -10  -1  -4    1.50    0.80
  10   1   4    1.20    1.20
  11   1   4    9.60    2.00
  12   1   4    1.00    0.90
  13   1   4    5.70    1.70
  19   2  -4    0.90    1.00
  18   2  -4   -0.20    0.90
  18   2  -4    0.50    1.00
 -17  -2   4    3.50    1.10
  17   2  -4    1.30    1.30
  16   2  -4    5.90    1.80
 -15  -2   4   17.80    1.50
 -14  -2   4   15.70    1.40
 -13  -2   4   13.90    1.30
 -12  -2   4   10.40    1.00
 -12  -2   4   10.70    0.90
  12   2  -4    5.90    1.40
 -11  -2   4    7.00    0.70
 -11  -2   4    8.00    0.80
  11   2  -4    3.90    0.90
 -10  -2   4   21.70    1.50
  10  -2  -4   24.10    2.50
  10  -2  -4   22.80    2.60
 -10   2   4   22.90    4.60
   9  -2  -4    1.10    0.80
  -9  -2   4    1.20    0.30
   9  -2  -4    2.30    1.30
   9   2  -4    0.90    1.10
  -9   2   4    2.90    2.20
  -8  -2   4   12.10    0.90
   8  -2  -4   12.90    1.60
   8  -2  -4   10.30    2.50
   8  -2  -4   11.70    1.80
   8  -2  -4   10.40    1.60
   8   2  -4   12.50    2.40
  -8   2   4   12.00    3.00
   8   2  -4    9.20    2.20
   7  -2  -4   34.60    2.70
   7  -2  -4   31.50    2.70
   7  -2  -4   34.20    2.50
   7  -2  -4   31.90    2.60
   7   2  -4   36.50    3.50
   7   2  -4   33.60    3.30
  -7   2   4   34.60    3.80
  -6  -2   4  114.49    5.50
   6  -2  -4  102.59    5.70
   6  -2  -4  114.39    6.70
   6  -2  -4  105.19    6.60
   6  -2  -4  104.89    5.70
   6   2  -4  109.19    7.40
  -6   2   4  105.29    7.30
   6   2  -4  101.29    6.90
   5  -2  -4   17.00    1.50
   5  -2  -4   20.20    1.70
  -5  -2   4   17.30    1.60
  -5   2   4   19.30    2.20
   5   2  -4   12.50    1.80
   5   2  -4   20.40    2.90
  -5   2   4   18.00    2.20
  -4  -2   4   93.19    4.40
   4  -2  -4   84.49    4.50
   4  -2  -4   90.19    5.10
   4  -2  -4   92.89    5.10
  -4   2   4   74.79    5.60
  -4   2   4   85.79    5.40
   4   2  -4   70.99    5.70
   4   2  -4   87.69    5.30
  -3  -2   4  501.65   21.90
   3  -2  -4  507.45   22.10
  -3   2   4  472.25   28.10
  -3   2   4  475.85   27.80
   3   2  -4  519.45   27.80
   3   2  -4  483.15   28.30
  -3   2   4  497.45   22.10
   2  -2  -4  688.93   29.20
  -2  -2   4  665.63   29.10
  -2   2   4  651.73   29.10
   2   2  -4  587.74   37.70
  -2   2   4  661.83   37.00
   2   2  -4  700.63   37.00
   1  -2  -4  495.85   20.80
  -1  -2   4  451.05   20.70
   1   2  -4  474.95   26.10
  -1   2   4  475.35   26.10
   1   2  -4  410.26   27.20
  -1   2   4  478.65   26.40
  -1   2   4  457.75   20.70
   0  -2  -4   88.39    4.50
   0  -2   4   85.69    4.50
   0   2   4   76.69    5.50
   0   2  -4   75.59    6.80
   0   2   4   89.69    5.10
   0   2  -4   89.79    5.30
   1  -2   4   18.70    1.50
   1  -2   4   18.90    2.10
  -1  -2  -4   20.70    1.90
   1  -2   4   16.30    1.90
   1   2   4   18.10    1.40
   1   2   4   19.60    2.30
  -1   2  -4   17.90    1.70
  -1   2  -4   16.30    3.80
   2  -2   4   97.79    5.30
   2  -2   4  102.49    5.90
  -2  -2  -4  103.79    5.30
   2  -2   4   88.89    6.60
   2   2   4   95.89    6.90
  -2   2  -4   90.79    6.10
   2   2   4  102.09    5.90
  -2   2  -4   91.69    8.10
   3  -2   4   31.20    2.70
   3  -2   4   35.90    2.50
  -3  -2  -4   36.00    2.70
   3  -2   4   34.80    3.40
  -3   2  -4   38.40    5.10
  -3   2  -4   33.30    2.70
   3   2   4   28.40    4.10
   3   2   4   30.50    2.40
  -4  -2  -4   10.20    1.70
   4  -2   4   10.60    1.80
   4  -2   4   10.60    1.40
  -4  -2  -4   10.70    1.60
   4   2   4   10.00    3.40
   4   2   4    9.20    1.30
  -4   2  -4    4.50    2.40
  -4   2  -4    9.70    1.50
   5  -2   4    1.50    0.70
  -5  -2  -4    2.10    0.90
  -5  -2  -4    1.10    0.90
  -5   2  -4    1.20    1.90
   5   2   4    0.20    1.70
  -6  -2  -4   22.80    2.00
   6  -2   4   17.50    2.10
  -6  -2  -4   20.30    1.30
   6   2   4   19.60    4.80
  -7  -2  -4    9.80    1.60
  -7  -2  -4   10.50    1.00
   7   2   4    8.60    1.90
  -8  -2  -4   13.90    1.20
  -8  -2  -4   16.60    1.70
   8   2   4   11.70    2.20
  -9  -2  -4   20.70    1.90
  -9  -2  -4   18.20    1.40
   9   2   4   16.30    2.50
 -10  -2  -4   16.40    1.80
 -10  -2  -4   14.70    1.30
  10   2   4   13.60    2.60
 -11  -2  -4   15.80    1.20
 -11  -2  -4   14.20    1.70
  11   2   4   10.10    2.50
 -12  -2  -4   17.40    1.70
 -12  -2  -4   12.00    1.20
  12   2   4    7.90    2.20
  13   2   4    1.70    1.00
  14   2   4    0.90    1.00
  15   2   4   -0.90    0.90
  20   3  -4   -0.40    0.90
 -19  -3   4   -0.60    0.50
  19   3  -4   -0.30    0.90
 -18  -3   4    0.30    0.80
  18   3  -4    1.10    1.20
 -17  -3   4    4.30    1.20
  17   3  -4    1.00    1.10
 -16  -3   4    5.10    1.10
  16   3  -4    1.50    0.90
 -15  -3   4    3.30    0.90
  15   3  -4    1.10    0.80
 -14  -3   4   28.80    1.80
 -14  -3   4   27.90    2.00
 -13  -3   4   72.79    4.00
 -13  -3   4   77.89    4.50
 -12  -3   4   47.80    3.00
 -12  -3   4   49.20    2.70
 -11  -3   4    5.70    0.80
 -11  -3   4    5.50    0.80
  11   3  -4    4.40    1.40
  10  -3  -4   -0.80    1.40
 -10  -3   4    0.50    0.30
 -10  -3   4    0.00    0.20
  -9  -3   4   13.00    0.90
  -9  -3   4    9.60    0.90
   9  -3  -4   15.90    2.20
   8  -3  -4    9.40    2.20
   8  -3  -4    5.80    1.60
  -8  -3   4    6.90    0.60
   8  -3  -4    7.10    1.10
   8   3  -4    6.50    2.10
   7  -3  -4   55.39    3.60
   7  -3  -4   50.59    3.30
  -7  -3   4   52.99    2.90
   7  -3  -4   53.59    3.40
   7  -3  -4   54.39    4.40
   7   3  -4   47.40    4.00
  -7   3   4   50.29    4.70
  -7   3   4   49.99    4.30
   7   3  -4   53.69    4.40
   6  -3  -4   86.79    4.90
   6  -3  -4   80.39    4.70
  -6  -3   4   82.19    4.60
  -6  -3   4   85.89    4.30
  -6   3   4   82.19    5.90
  -6   3   4   80.89    5.80
   5  -3  -4   16.40    1.80
  -5  -3   4   18.60    1.50
  -5   3   4   13.10    2.00
  -5   3   4   16.60    2.10
  -4  -3   4    2.20    0.60
   4  -3  -4    3.90    0.90
  -4   3   4    2.60    0.80
  -4   3   4    2.00    0.80
  -3  -3   4    4.40    1.00
   3  -3  -4    2.90    0.80
  -3   3   4    3.20    0.90
  -2  -3   4   65.69    3.60
   2  -3  -4   71.59    3.70
  -2   3   4   62.49    4.20
  -2   3   4   66.89    4.00
   2   3  -4   66.59    4.00
   1  -3  -4    2.80    0.80
  -1  -3   4    3.80    0.90
   1   3  -4    3.70    1.40
   1   3  -4    5.00    0.80
  -1   3   4    2.10    0.50
  -1   3   4    2.60    0.80
   0  -3  -4    3.50    0.80
   0  -3   4    2.30    0.80
   0   3   4    2.00    0.50
   0   3  -4    2.30    1.60
   0   3  -4    3.40    0.90
  -1  -3  -4   16.00    1.60
   1  -3   4   14.00    1.80
   1   3   4   15.50    1.10
  -1   3  -4   18.80    3.60
  -1   3  -4   16.40    1.70
  -2  -3  -4   80.19    4.30
  -2  -3  -4   67.89    4.70
   2  -3   4   76.59    4.50
  -2   3  -4   77.89    5.00
  -2   3  -4   87.49    7.40
   2   3   4   74.99    5.00
   2   3   4   76.59    4.60
   3  -3   4   54.69    3.60
  -3  -3  -4   46.40    3.40
  -3  -3  -4   51.69    3.30
   3   3   4   48.90    3.20
   3   3   4   42.90    4.00
  -3   3  -4   46.10    6.20
  -3   3  -4   49.00    3.60
   4  -3   4    5.50    1.30
   4  -3   4    3.40    1.10
  -4  -3  -4    7.10    1.50
  -4  -3  -4    7.30    1.70
   4   3   4    6.70    1.00
  -5  -3  -4   11.10    2.00
  -5  -3  -4   13.40    1.00
  -5  -3  -4   11.30    1.80
   5  -3   4    9.80    1.80
  -6  -3  -4    0.50    0.30
  -6  -3  -4   -0.20    0.80
  -7  -3  -4    8.40    1.50
  -7  -3  -4    8.50    1.00
   7   3   4    5.80    1.60
  -8  -3  -4   59.09    3.90
  -8  -3  -4   60.09    3.20
   8   3   4   54.69    4.00
  -9  -3  -4   86.29    5.30
  -9  -3  -4   82.09    4.50
   9   3   4   89.79    5.60
 -10  -3  -4   29.40    2.00
 -10  -3  -4   35.20    2.60
  10   3   4   32.80    3.30
 -11  -3  -4    1.90    0.80
 -11  -3  -4    0.90    0.40
  11   3   4    2.80    1.50
 -12  -3  -4    4.80    1.40
 -12  -3  -4    3.50    0.90
  12   3   4    2.00    1.40
 -13  -3  -4    1.30    0.80
 -13  -3  -4    1.50    0.40
  13   3   4    0.80    1.00
 -14  -3  -4    0.70    0.80
  14   3   4   -0.10    0.90
  15   3   4    0.50    0.90
  16   3   4   -1.00    0.80
  20   4  -4    0.20    0.80
  19   4  -4   -0.10    0.90
 -18  -4   4   10.00    1.30
  18   4  -4    2.60    1.30
 -17  -4   4    0.60    0.70
  17   4  -4    0.20    1.00
 -16  -4   4    0.10    0.60
  16   4  -4    0.30    0.80
 -15  -4   4   10.60    1.10
 -15  -4   4   13.40    1.30
  15   4  -4    5.70    1.60
 -14  -4   4   21.30    1.70
 -14  -4   4   22.80    1.60
 -13  -4   4   24.60    1.80
 -13  -4   4   29.80    1.70
  13   4  -4   19.40    2.10
 -12  -4   4   89.89    4.60
 -12  -4   4   86.99    5.10
 -11  -4   4  101.59    5.60
 -11  -4   4   95.69    5.10
  10  -4  -4    0.30    1.60
 -10  -4   4    0.30    0.30
 -10  -4   4   -0.50    0.30
 -10   4   4   -0.60    0.40
  -9  -4   4   45.00    2.60
   9  -4  -4   48.00    3.80
  -9  -4   4   43.60    2.40
  -8  -4   4   33.80    2.00
   8  -4  -4   35.80    3.20
   8  -4  -4   49.90    4.40
   8  -4  -4   34.80    2.90
  -8  -4   4   35.20    2.10
   7  -4  -4  140.19    8.10
   7  -4  -4  139.49    8.50
  -7  -4   4  133.39    7.50
   7  -4  -4  146.99    7.80
  -7  -4   4  131.79    6.80
   6  -4  -4   47.20    3.50
  -6  -4   4   49.20    2.70
   6  -4  -4   49.40    3.30
  -6   4   4   44.50    3.90
  -5  -4   4   67.19    3.30
   5  -4  -4   64.09    3.90
   5  -4  -4   56.99    3.70
   5  -4  -4   65.49    4.10
  -5   4   4   57.59    4.40
  -5   4   4   54.29    4.40
  -4  -4   4  145.99    6.30
   4  -4  -4  132.39    7.60
   4  -4  -4  127.99    6.70
  -4   4   4  126.59    8.00
  -4   4   4  126.99    8.10
   3  -4  -4   25.70    1.90
   3  -4  -4   18.80    1.90
  -3  -4   4   27.00    1.70
  -3   4   4   19.30    1.80
  -3   4   4   20.20    1.70
  -2  -4   4  115.99    5.50
   2  -4  -4  113.59    5.60
   2  -4  -4  120.59    6.30
  -2   4   4   98.99    6.40
  -2   4   4  101.49    6.40
   1  -4  -4   20.70    1.80
   1  -4  -4   26.30    1.90
  -1  -4   4   25.90    2.00
   1   4  -4   23.50    1.80
   0  -4  -4  130.99    7.60
   0  -4   4  135.19    6.80
   0  -4  -4  129.29    6.60
   0   4  -4  135.99    9.20
   0   4  -4  138.49    8.00
   1  -4   4   56.59    3.70
  -1  -4  -4   53.89    3.30
  -1  -4  -4   54.79    3.60
  -1   4  -4   55.79    5.50
  -1   4  -4   58.89    3.90
  -2  -4  -4   41.40    3.10
  -2  -4  -4   42.00    2.80
   2  -4   4   45.50    3.30
  -2   4  -4   43.10    3.30
  -3  -4  -4  128.19    6.30
   3  -4   4  134.89    7.00
  -3  -4  -4  122.89    6.50
  -3  -4  -4  113.39    7.30
  -3   4  -4  121.49    7.80
  -4  -4  -4   31.40    2.80
   4  -4   4   28.90    3.00
  -4  -4  -4   32.60    2.80
   4  -4   4   37.30    2.40
  -4  -4  -4   34.30    2.00
  -5  -4  -4   41.00    2.30
  -5  -4  -4   39.60    3.40
  -5  -4  -4   41.20    3.10
   5  -4   4   39.10    2.70
  -6  -4  -4   -1.50    0.80
  -6  -4  -4    0.10    0.30
  -6   4  -4   -0.60    0.40
  -7  -4  -4   95.99    6.10
  -7  -4  -4  100.79    5.20
   7   4   4  103.99    5.70
  -7   4  -4   98.79    5.50
  -8  -4  -4  102.19    6.00
  -8  -4  -4   93.09    5.10
   8   4   4   99.29    5.90
  -9  -4  -4   30.40    2.10
  -9  -4  -4   33.30    2.60
   9   4   4   38.30    3.00
 -10  -4  -4   20.70    1.60
 -10  -4  -4   22.50    2.10
  10   4   4   26.20    2.80
 -11  -4  -4   12.00    1.20
 -11  -4  -4   11.40    1.60
  11   4   4   12.60    2.60
 -12  -4  -4   -0.40    0.70
 -12  -4  -4    0.10    0.40
  12   4   4   -0.10    1.30
 -13  -4  -4    1.10    0.80
 -13  -4  -4    0.50    0.40
  13   4   4    0.60    1.30
 -14  -4  -4    8.60    1.40
 -14  -4  -4    9.50    1.20
 -15  -4  -4    0.20    0.70
  15   4   4    0.80    0.90
  16   4   4   -0.70    0.80
  19   5  -4    0.40    1.00
  18   5  -4    0.10    1.10
 -17  -5   4    6.40    1.20
 -16  -5   4    0.80    0.60
 -16  -5   4    0.80    0.40
  16   5  -4    0.60    0.90
 -15  -5   4    1.80    0.60
 -15  -5   4    0.80    0.40
  15   5  -4    1.00    0.80
 -14  -5   4    8.00    1.00
 -14  -5   4    7.20    1.00
 -13  -5   4   35.10    2.30
 -13  -5   4   34.60    2.20
 -12  -5   4   21.10    1.50
 -12  -5   4   20.10    1.50
 -11  -5   4    7.40    0.90
 -11  -5   4    8.20    0.90
 -11   5   4    7.10    1.00
 -10  -5   4   43.10    2.50
  10  -5  -4   46.00    4.40
 -10  -5   4   44.80    2.60
 -10   5   4   43.90    2.70
  -9  -5   4   35.10    2.10
   9  -5  -4   39.20    3.20
  -9  -5   4   34.10    2.10
   9  -5  -4   36.40    3.60
  -9   5   4   36.00    2.20
   8  -5  -4   -2.20    1.30
   8  -5  -4   -0.30    1.00
  -8  -5   4   -0.20    0.20
  -8  -5   4    0.00    0.20
  -8   5   4    0.20    0.40
   7  -5  -4   33.00    3.30
  -7  -5   4   31.20    1.90
  -7  -5   4   34.20    1.90
   7  -5  -4   29.90    2.60
   7  -5  -4   32.00    3.80
  -7   5   4   33.80    2.00
  -6  -5   4  116.79    5.70
   6  -5  -4  121.49    6.80
   6  -5  -4  118.19    7.40
   6  -5  -4  109.19    6.60
  -6   5   4   96.09    7.40
   5  -5  -4   86.29    5.40
   5  -5  -4   87.29    5.30
  -5  -5   4   84.69    4.40
   5  -5  -4   83.49    5.90
   5  -5  -4   88.39    5.30
  -5  -5   4   87.79    4.30
   4  -5  -4   11.50    1.60
   4  -5  -4   12.90    1.50
  -4  -5   4   14.00    1.20
   4  -5  -4   16.00    2.20
  -4   5   4   10.70    1.60
   3  -5  -4   76.79    4.40
  -3  -5   4   79.69    4.10
   3  -5  -4   88.69    4.80
  -3   5   4   72.79    4.90
  -2  -5   4    2.20    0.70
   2  -5  -4    3.00    0.80
   2  -5  -4    1.50    0.70
  -2   5   4    1.60    0.50
  -1  -5   4   81.59    4.50
   1  -5  -4   82.29    4.80
   1  -5  -4   76.99    4.30
   0  -5   4   10.60    1.70
   0  -5  -4   14.30    1.50
   0  -5  -4   13.00    1.50
   0   5  -4   13.40    2.70
  -1  -5  -4   77.19    4.80
  -1  -5  -4   76.39    4.20
   1  -5   4   84.29    4.80
  -2  -5  -4  102.19    6.50
  -2  -5  -4  114.89    5.60
   2  -5   4  116.99    6.40
  -2  -5  -4  106.29    5.60
  -3  -5  -4   31.30    1.80
   3  -5   4   33.70    3.00
  -3  -5  -4   32.10    2.50
  -3  -5  -4   28.00    2.60
  -4  -5  -4   -0.20    0.30
  -4  -5  -4   -1.20    1.00
   4  -5   4    0.70    0.90
   4  -5   4   -0.10    0.60
  -4  -5  -4   -0.20    0.70
  -4   5  -4   -0.10    0.40
  -5  -5  -4   30.10    3.00
  -5  -5  -4   31.50    2.80
  -5  -5  -4   35.10    2.00
   5  -5   4   34.50    2.50
  -5   5  -4   33.30    2.10
  -6  -5  -4   42.20    3.10
   6  -5   4   42.10    3.20
  -6  -5  -4   39.70    3.70
  -6  -5  -4   41.90    2.50
  -6   5  -4   44.50    2.60
  -7  -5  -4    5.80    0.90
  -7  -5  -4    7.10    1.60
  -7   5  -4    8.20    1.00
  -8  -5  -4   20.50    1.60
  -8  -5  -4   24.10    2.20
   8   5   4   25.50    2.10
  -8   5  -4   21.20    1.60
  -9  -5  -4   34.20    2.30
  -9  -5  -4   38.80    2.80
   9   5   4   38.00    3.10
 -10  -5  -4    7.30    1.50
 -10  -5  -4    6.60    1.00
  10   5   4    7.90    2.30
 -11  -5  -4    1.40    0.80
 -11  -5  -4    0.70    0.40
  11   5   4    1.60    1.40
 -12  -5  -4    0.10    0.40
 -12  -5  -4    0.10    0.70
  12   5   4    0.10    1.30
 -13  -5  -4    6.90    1.20
 -13  -5  -4    5.10    1.20
  13   5   4    2.00    1.50
 -14  -5  -4   -0.20    0.40
 -14  -5  -4    0.20    0.70
  14   5   4    0.20    0.90
 -15  -5  -4    1.10    0.70
 -15  -5  -4    0.40    0.40
  15   5   4    1.00    0.90
  19   6  -4    0.80    1.00
  18   6  -4    0.40    1.10
 -17  -6   4    4.60    1.00
  17   6  -4    1.20    0.90
 -16  -6   4   -1.00    0.60
 -16  -6   4    0.20    0.40
  16   6  -4   -0.20    0.80
 -15  -6   4   -0.30    0.40
 -15  -6   4   -0.90    0.60
  15   6  -4   -0.20    0.70
 -14  -6   4   -0.70    0.30
 -14  -6   4   -0.20    0.50
  14   6  -4   -0.10    0.70
 -13  -6   4   -0.70    0.30
 -13  -6   4   -0.20    0.50
 -12  -6   4    2.00    0.50
 -12  -6   4    0.80    0.40
 -12   6   4    1.60    0.50
 -11  -6   4    4.50    0.90
 -11  -6   4    5.10    0.80
 -11   6   4    4.60    0.90
  10  -6  -4    9.30    2.70
 -10  -6   4    9.60    1.00
 -10  -6   4    7.20    0.90
  10  -6  -4    8.30    2.30
 -10   6   4    7.30    1.00
   9  -6  -4   57.79    5.10
   9  -6  -4   54.89    4.20
  -9  -6   4   58.59    3.20
  -9  -6   4   57.89    3.30
  -9   6   4   54.99    3.30
   8  -6  -4  101.79    6.70
  -8  -6   4  106.19    5.50
   8  -6  -4  103.09    7.00
  -8  -6   4  108.59    5.90
  -8   6   4  109.79    5.80
   7  -6  -4   50.59    3.70
  -7  -6   4   52.59    2.80
   7  -6  -4   53.49    4.60
   7  -6  -4   49.40    4.80
  -7   6   4   50.99    3.00
   6  -6  -4   18.20    1.90
  -6  -6   4   17.50    1.30
   6  -6  -4   18.10    2.80
   6  -6  -4   22.20    3.20
  -6   6   4   17.40    1.20
   5  -6  -4   14.00    2.70
   5  -6  -4   17.20    2.60
   5  -6  -4   15.50    1.70
  -5  -6   4   14.60    1.10
   4  -6  -4   12.10    1.50
  -4  -6   4    9.50    1.00
  -4  -6   4   10.30    0.90
   4  -6  -4   11.70    2.20
   4  -6  -4   10.00    2.40
   4  -6  -4   12.70    1.70
   3  -6  -4   14.80    2.40
   3  -6  -4   15.40    1.70
  -3  -6   4   15.50    1.40
   3  -6  -4   14.30    1.70
  -3  -6   4   15.40    1.10
  -2  -6   4    4.30    0.70
   2  -6  -4    6.30    1.80
   2  -6  -4    6.60    1.20
  -2  -6   4    5.90    1.20
   2  -6  -4    7.50    1.30
  -1  -6   4   13.40    1.00
   1  -6  -4   13.90    1.50
   1  -6  -4   15.40    1.50
  -1  -6   4   16.80    1.80
   0  -6   4    8.70    1.60
   0  -6  -4   10.50    1.30
   0  -6  -4    9.70    0.80
   0  -6  -4    9.10    1.40
   1  -6   4   14.40    2.10
  -1  -6  -4   12.50    1.60
  -1  -6  -4   14.00    1.00
  -1  -6  -4   12.30    1.40
  -2  -6  -4   16.00    1.60
  -2  -6  -4   16.90    1.20
  -2  -6  -4   17.80    2.00
   2  -6   4   16.40    2.30
  -2   6  -4   15.10    1.40
  -3  -6  -4   44.00    2.60
   3  -6   4   41.50    3.70
  -3  -6  -4   39.20    3.30
   3  -6   4   54.29    3.10
  -3  -6  -4   48.40    3.00
  -3   6  -4   42.90    2.70
  -4  -6  -4   83.19    5.80
  -4  -6  -4   94.89    4.90
  -4  -6  -4  105.19    5.40
   4  -6   4   93.09    6.20
  -4   6  -4   96.29    5.20
  -5  -6  -4   49.70    3.70
   5  -6   4   55.69    3.60
  -5  -6  -4   46.40    3.70
  -5  -6  -4   50.59    2.90
  -5   6  -4   53.09    3.00
  -6  -6  -4    7.60    1.00
  -6  -6  -4    5.30    1.50
   6  -6   4    9.00    1.60
  -6  -6  -4    7.40    1.60
  -6   6  -4    8.00    1.00
  -7  -6  -4    5.00    1.50
  -7  -6  -4    4.10    0.90
  -7   6  -4    5.20    0.90
  -8  -6  -4    1.60    0.90
  -8  -6  -4    1.00    0.40
  -8   6  -4    2.00    0.60
  -9  -6  -4   -0.80    0.70
  -9  -6  -4    0.10    0.40
   9   6   4   -1.30    0.90
 -10  -6  -4    0.20    0.40
 -10  -6  -4   -0.50    0.70
  10   6   4    1.30    1.30
 -11  -6  -4   -0.40    0.40
 -11  -6  -4   -0.10    0.70
  11   6   4    0.10    1.20
 -12  -6  -4   -0.10    0.70
 -12  -6  -4   -0.30    0.40
  12   6   4   -0.60    1.20
 -13  -6  -4    4.70    1.20
 -13  -6  -4    4.30    1.00
  13   6   4    2.40    1.40
 -14  -6  -4    0.20    0.40
 -14  -6  -4    1.00    0.70
  14   6   4    0.00    0.90
 -15  -6  -4    1.20    0.40
  15   6   4    0.80    0.80
 -18  -7   4    4.40    0.90
  18   7  -4    1.80    1.10
 -17  -7   4    4.10    1.00
  17   7  -4    1.20    1.00
 -16  -7   4    4.50    1.10
  16   7  -4    1.00    0.90
 -15  -7   4    1.10    0.50
  15   7  -4    0.60    0.80
 -14  -7   4   -0.40    0.40
  14   7  -4   -0.10    0.70
 -13  -7   4    0.80    0.60
 -13  -7   4    0.70    0.50
 -12  -7   4    4.30    0.80
 -12   7   4    3.80    0.90
 -11  -7   4   -0.20    0.40
 -11  -7   4   -0.30    0.40
 -11   7   4    0.10    0.50
  10  -7  -4    1.80    1.40
 -10  -7   4    0.70    0.40
 -10   7   4    0.20    0.50
  -9  -7   4   11.00    1.20
   9  -7  -4   10.30    2.40
   9  -7  -4    8.30    2.80
  -9   7   4    9.00    1.10
  -8  -7   4   62.19    3.30
   8  -7  -4   55.89    4.30
   8  -7  -4   54.99    5.30
  -8   7   4   58.29    3.40
   7  -7  -4   85.99    6.90
   7  -7  -4   95.49    6.90
  -7  -7   4   94.49    4.90
   7  -7  -4   98.89    6.10
  -7   7   4   91.59    5.20
  -6  -7   4   64.69    3.50
   6  -7  -4   67.49    4.40
   6  -7  -4   63.79    5.40
   6  -7  -4   55.19    5.20
  -6   7   4   63.09    3.60
   5  -7  -4   19.60    3.10
   5  -7  -4   20.10    3.00
   5  -7  -4   19.30    2.10
  -5  -7   4   17.70    1.30
  -5   7   4   16.70    1.20
   4  -7  -4    0.30    1.60
  -4  -7   4    0.20    0.30
   4  -7  -4   -0.30    1.00
   4  -7  -4   -0.20    0.80
  -3  -7   4   -0.20    0.30
   3  -7  -4    0.00    0.70
   3  -7  -4   -0.50    1.50
   3  -7  -4    0.00    0.80
   3  -7  -4    0.10    1.00
  -2  -7   4    4.30    1.00
   2  -7  -4    5.10    1.40
   2  -7  -4    3.10    0.90
  -2  -7   4    2.70    0.70
   2  -7  -4    2.70    1.60
   2  -7  -4    4.50    1.30
   1  -7  -4   -0.80    1.30
  -1  -7   4   -0.30    0.30
  -1  -7   4   -0.30    0.60
   1  -7  -4    0.70    0.60
   1  -7  -4    0.00    0.70
   1  -7  -4   -0.20    0.80
   0  -7  -4    0.40    0.30
   0  -7  -4    0.00    0.80
   0  -7   4    0.60    0.80
   0  -7  -4    0.50    0.80
   0  -7  -4   -1.00    1.30
   0  -7  -4   -0.60    0.50
  -1  -7  -4   13.20    1.80
  -1  -7  -4   15.10    2.40
   1  -7   4   14.00    2.10
  -1  -7  -4   16.70    1.20
  -1   7  -4   12.40    1.60
  -2  -7  -4   60.19    4.40
  -2  -7  -4   50.69    3.90
  -2  -7  -4   60.69    3.10
   2  -7   4   58.59    4.30
  -2   7  -4   54.19    3.30
  -3  -7  -4   85.89    4.50
  -3  -7  -4   68.39    5.30
   3  -7   4  100.59    5.20
   3  -7   4   84.39    5.70
  -3   7  -4   80.59    4.70
  -4  -7  -4   40.90    3.70
  -4  -7  -4   52.39    3.00
   4  -7   4   59.99    3.60
  -4   7  -4   53.49    3.10
  -5  -7  -4    5.90    1.10
  -5  -7  -4    6.40    1.90
   5  -7   4    9.70    1.70
  -5   7  -4    7.30    1.10
  -6  -7  -4   -0.10    0.30
   6  -7   4    0.30    0.90
  -6  -7  -4    0.40    0.90
  -6   7  -4    0.70    0.50
  -7  -7  -4    0.30    0.40
  -7  -7  -4   -0.80    0.80
   7  -7   4    0.10    0.90
  -7   7  -4   -0.40    0.50
  -8  -7  -4    2.50    0.90
  -8  -7  -4    3.90    1.00
  -8   7  -4    4.00    1.00
  -9  -7  -4    0.90    0.40
  -9  -7  -4    0.60    0.80
   9   7   4    1.40    1.00
 -10  -7  -4   -0.30    0.40
 -10  -7  -4   -0.20    0.80
  10   7   4    0.30    1.10
 -11  -7  -4    1.40    0.80
 -11  -7  -4    1.00    0.50
  11   7   4    0.60    1.20
 -12  -7  -4    4.20    1.00
 -12  -7  -4    5.20    1.20
  12   7   4    2.10    1.40
 -13  -7  -4    2.60    0.80
 -13  -7  -4    4.20    1.00
  13   7   4    0.80    1.20
 -14  -7  -4    3.50    1.00
  14   7   4    0.70    0.80
 -17  -8   4    1.10    0.40
  17   8  -4    0.70    0.90
 -16  -8   4    7.40    1.10
  16   8  -4    1.90    0.90
 -15  -8   4    4.80    1.10
  15   8  -4    0.80    0.70
 -14  -8   4    0.60    0.40
 -13  -8   4   -0.10    0.40
 -12  -8   4    1.60    0.50
 -12   8   4    1.90    0.60
 -11  -8   4   11.20    1.30
 -11   8   4   12.00    1.30
  10  -8  -4    2.30    1.40
 -10  -8   4    1.10    0.40
 -10   8   4    1.30    0.60
  -9  -8   4    7.30    1.10
   9  -8  -4    7.60    2.40
  -9   8   4    5.80    1.00
   8  -8  -4    4.10    1.50
   8  -8  -4    5.20    2.60
  -8  -8   4    7.90    1.10
  -8   8   4    5.90    0.90
  -7  -8   4   15.60    1.30
   7  -8  -4    9.70    2.80
   7  -8  -4   16.80    2.50
  -7   8   4   13.60    1.20
  -6  -8   4   34.60    2.20
   6  -8  -4   37.50    4.40
   6  -8  -4   33.90    3.20
  -6   8   4   35.40    2.10
   5  -8  -4   42.60    4.60
  -5  -8   4   45.80    2.60
   5  -8  -4   47.60    3.60
  -5   8   4   42.10    2.60
   4  -8  -4   35.60    2.90
  -4  -8   4   32.90    2.00
   4  -8  -4   32.90    3.90
  -4   8   4   31.60    2.00
  -3  -8   4    0.60    0.30
   3  -8  -4    0.90    0.80
   3  -8  -4   -1.10    1.70
   3  -8  -4    0.80    0.90
   2  -8  -4    1.80    0.90
  -2  -8   4    0.80    0.30
   2  -8  -4    0.50    0.70
   2  -8  -4   -0.10    1.70
   1  -8  -4    0.60    0.90
   1  -8  -4    0.10    1.60
   0  -8  -4   29.80    3.40
   0  -8  -4   27.40    2.40
  -1  -8  -4   38.20    4.00
  -1  -8  -4   39.10    3.20
  -1  -8  -4   42.70    2.40
   1  -8   4   49.40    2.90
  -1   8  -4   38.10    2.70
   2  -8   4   38.40    2.50
  -2  -8  -4   29.70    2.80
  -2  -8  -4   33.70    2.10
  -2   8  -4   29.80    2.20
   3  -8   4   17.20    1.80
  -3  -8  -4   13.20    1.20
  -3  -8  -4    9.50    2.10
  -3   8  -4   13.10    1.30
  -4  -8  -4    6.20    1.00
   4  -8   4    8.50    1.60
  -4  -8  -4    3.60    1.30
  -4   8  -4    5.20    1.00
   5  -8   4    7.60    1.70
  -5  -8  -4    3.50    1.10
  -5  -8  -4    5.80    1.00
  -5   8  -4    5.70    1.00
  -6  -8  -4    1.00    0.40
  -6  -8  -4    1.80    0.90
   6  -8   4    0.90    1.00
  -6   8  -4    1.30    0.60
  -7  -8  -4   11.90    1.60
   7  -8   4    9.40    2.10
  -7  -8  -4   13.20    1.30
  -7   8  -4   12.60    1.40
  -8  -8  -4    2.00    0.80
  -8  -8  -4    1.30    0.50
  -8   8  -4    1.80    0.60
  -9  -8  -4   -0.10    0.40
  -9   8  -4    0.50    0.60
 -10  -8  -4    1.30    0.70
 -10  -8  -4    1.00    0.50
  10   8   4    2.60    1.20
 -11  -8  -4    3.70    0.90
 -11  -8  -4    1.80    0.50
  11   8   4    2.80    1.30
 -12  -8  -4    5.90    1.10
 -12  -8  -4    5.40    1.10
  12   8   4    3.10    1.30
 -13  -8  -4    0.70    0.40
  13   8   4    0.10    1.10
 -15  -9   4    5.30    1.00
  15   9  -4    1.30    0.80
 -14  -9   4    0.90    0.40
 -13  -9   4   -0.10    0.40
 -12  -9   4    0.30    0.40
 -12   9   4    0.40    0.50
  11  -9  -4    1.60    1.40
 -11  -9   4    1.60    0.50
 -11   9   4    3.40    1.00
  10  -9  -4   -1.00    1.20
 -10  -9   4   -0.20    0.40
 -10   9   4    0.20    0.50
  -9  -9   4    1.30    0.40
   9  -9  -4    1.40    1.30
  -9   9   4    2.10    0.60
   8  -9  -4    2.40    1.40
  -8  -9   4    2.20    0.50
  -8   9   4    3.10    0.90
  -7  -9   4    7.40    1.10
   7  -9  -4    7.90    2.10
   7  -9  -4    4.70    2.80
  -7   9   4    6.70    1.00
  -6  -9   4    4.60    0.90
   6  -9  -4    4.00    1.40
   6  -9  -4    3.00    2.60
  -6   9   4    3.80    0.80
  -5  -9   4    5.70    0.90
   5  -9  -4    1.00    2.20
   5  -9  -4    5.80    1.90
  -5   9   4    6.20    0.80
  -4  -9   4    9.70    1.00
   4  -9  -4    7.10    2.80
   4  -9  -4   10.10    1.90
  -4   9   4   10.40    0.90
  -3  -9   4   10.90    1.10
   3  -9  -4    9.10    2.80
   3  -9  -4   13.00    1.90
   2  -9  -4    9.50    2.90
   2  -9  -4   11.30    1.90
   1  -9  -4   10.40    2.80
   1  -9  -4   11.00    1.90
  -1  -9   4   11.70    1.30
   0  -9   4    9.70    1.30
   0  -9  -4    9.80    1.90
  -1  -9  -4    4.40    1.40
   1  -9   4    5.80    1.30
  -1   9  -4    6.10    1.10
  -2  -9  -4    3.50    1.30
  -2  -9  -4    3.40    0.90
   2  -9   4    3.20    1.00
  -2   9  -4    3.90    1.00
  -3  -9  -4    6.20    1.90
  -3  -9  -4    8.40    1.10
   3  -9   4    8.20    1.70
  -3   9  -4    7.40    1.10
  -4  -9  -4    2.80    1.20
  -4  -9  -4    3.40    0.90
   4  -9   4    3.50    1.10
  -4   9  -4    3.20    1.00
  -5  -9  -4    2.80    0.90
   5  -9   4    1.90    1.10
  -5  -9  -4    1.20    0.50
  -5   9  -4    2.30    0.60
  -6  -9  -4   -0.40    0.40
   6  -9   4   -0.20    1.10
  -6  -9  -4    0.10    0.60
  -6   9  -4   -0.90    0.50
  -7  -9  -4    1.60    0.50
   7  -9   4    0.50    1.20
  -7  -9  -4    2.40    0.70
  -7   9  -4    4.20    1.10
  -8  -9  -4    0.00    0.40
  -8  -9  -4    0.30    0.60
  -8   9  -4    0.00    0.60
  -9  -9  -4    0.40    0.50
  -9  -9  -4    0.20    0.40
  -9   9  -4    0.00    0.60
 -10  -9  -4    3.40    0.80
 -10  -9  -4    0.90    0.50
  10   9   4    1.30    1.20
 -11  -9  -4    7.00    0.90
 -11  -9  -4    6.30    1.10
  11   9   4    4.30    1.40
 -13 -10   4   10.10    1.20
 -12 -10   4    7.10    1.10
 -12  10   4    5.50    1.10
 -11 -10   4    0.30    0.40
  11 -10  -4    1.40    1.60
 -11  10   4    0.30    0.50
  10 -10  -4    2.70    1.60
 -10  10   4    4.00    1.10
   9 -10  -4    4.20    1.70
  -9 -10   4    7.40    1.20
  -9  10   4    6.90    1.20
   8 -10  -4    0.20    1.30
  -8 -10   4    0.70    0.40
  -8  10   4    1.20    0.60
  -7 -10   4    1.00    0.40
   7 -10  -4    1.30    1.30
  -7  10   4    1.20    0.50
   6 -10  -4    0.10    1.30
  -6 -10   4   -0.10    0.30
  -6  10   4    0.00    0.50
  -5 -10   4    1.70    0.50
   5 -10  -4    2.60    1.40
  -5  10   4    3.60    0.90
   4 -10  -4   12.90    2.40
  -4 -10   4   12.00    1.20
  -4 -10   4   11.70    1.30
  -4  10   4   12.50    1.10
  -3 -10   4   16.80    1.50
   3 -10  -4   15.80    2.50
  -3  10   4   15.90    1.30
   2 -10  -4   14.90    2.30
   2 -10  -4   16.50    4.30
  -2 -10   4   15.50    1.50
  -1 -10   4   15.60    1.70
   1 -10  -4   16.00    2.40
   0 -10   4   12.90    1.70
   0 -10  -4   12.30    2.40
   0  10  -4   13.00    1.40
  -1 -10  -4    3.40    1.40
   1 -10   4    2.40    1.00
  -1  10  -4    2.10    0.70
   2 -10   4   -0.10    0.90
  -2 -10  -4    0.30    1.20
  -2  10  -4   -0.50    0.60
   3 -10   4    0.40    0.90
  -3 -10  -4    1.10    0.50
  -3  10  -4    1.40    0.60
   4 -10   4   -0.10    1.00
  -4 -10  -4    0.50    0.40
  -4  10  -4    1.20    0.60
  -5 -10  -4    8.90    1.30
   5 -10   4    8.30    2.10
  -5  10  -4    6.90    1.20
  -6 -10  -4    5.00    1.20
   6 -10   4    3.00    1.40
  -6  10  -4    2.60    0.80
   7 -10   4   -0.40    1.20
  -7 -10  -4    0.90    0.50
  -7  10  -4   -0.20    0.50
  -8 -10  -4    8.40    1.30
  -8  10  -4    5.30    1.10
  -9 -10  -4   10.50    1.30
 -10 -10  -4    4.30    1.00
 -11 -11   4    4.80    1.10
 -11  11   4    5.20    1.00
  10 -11  -4    2.00    1.50
 -10 -11   4    1.60    0.50
 -10  11   4    1.80    0.60
   9 -11  -4    1.00    1.40
  -9 -11   4    0.00    0.40
  -9  11   4    0.60    0.50
  -8 -11   4   -0.20    0.40
   8 -11  -4    1.50    1.40
  -8  11   4   -0.10    0.50
  -7 -11   4    0.30    0.40
   7 -11  -4    1.30    1.40
  -7  11   4    0.20    0.60
  -6 -11   4    0.10    0.40
   6 -11  -4   -0.40    1.30
  -6  11   4   -0.40    0.50
   5 -11  -4    1.10    1.40
  -5  11   4    0.60    0.50
   4 -11  -4    1.30    1.30
  -4  11   4    1.00    0.50
  -3 -11   4    7.80    1.20
   3 -11  -4    5.70    1.70
  -3  11   4    8.30    1.00
   2 -11  -4    7.40    2.40
  -2 -11   4    8.50    1.40
   1 -11  -4    8.80    2.40
  -1 -11   4    8.70    1.50
   0 -11   4    0.70    0.90
   0 -11  -4   -0.20    1.30
   0  11  -4    1.00    0.60
   1 -11   4    0.40    0.90
  -1  11  -4    0.00    0.60
   2 -11   4   -0.70    1.00
  -2  11  -4    0.20    0.60
   3 -11   4    0.10    1.00
  -3  11  -4    0.20    0.50
   4 -11   4   -0.30    1.00
  -4  11  -4    0.50    0.60
  -5 -11  -4    0.50    0.40
   5 -11   4    0.10    1.20
  -5  11  -4    0.40    0.60
  -6 -11  -4    1.80    0.50
   6 -11   4    2.10    1.40
  -6  11  -4    1.70    0.60
  -7 -11  -4    5.20    1.10
  -7  11  -4    5.50    1.10
  -8 -12   4    1.00    0.40
  -8  12   4    1.10    0.50
   7 -12  -4    2.80    1.50
  -7  12   4    4.00    0.90
   6 -12  -4    1.10    1.40
  -6  12   4    0.10    0.50
   5 -12  -4   -0.40    1.20
  -5  12   4    0.40    0.50
   4 -12  -4    0.30    1.30
  -4  12   4    0.60    0.50
   3 -12  -4    0.00    1.20
  -3  12   4   -0.20    0.50
   2 -12  -4   -0.80    1.30
  -2 -12   4   -0.40    0.70
  -2  12   4    0.00    0.40
  -1 -12   4   -0.30    0.80
   1 -12  -4    0.30    1.10
   1  12  -4   -0.20    0.50
   0 -12   4    0.50    0.90
   0  12  -4    0.70    0.50
   1 -12   4   -0.10    0.80
  -1  12  -4    0.50    0.50
   2 -12   4    1.00    1.00
  -2  12  -4    0.10    0.50
   3 -12   4    2.20    1.20
  -3  12  -4    4.40    0.90
  -4  12  -4    3.00    0.90
  16   0  -5    2.80    1.10
  15   0  -5    1.30    0.90
  14   0  -5   21.30    2.20
 -12   0   5   17.80    1.50
 -11   0   5    0.90    0.50
 -10   0   5    3.20    0.60
   9   0  -5  260.17   11.40
  -9   0   5  192.38   13.80
   9   0  -5  228.28   14.10
  -8   0   5  250.27   15.90
   8   0  -5  264.27   12.40
   8   0  -5  276.27   15.90
  -8   0   5  230.18   15.70
   8   0  -5  267.17   15.60
  -7   0   5   35.70    3.80
   7   0  -5   34.20    3.10
  -7   0   5   36.30    3.80
   7   0  -5   39.00    3.50
  -6   0   5    3.40    1.20
   6   0  -5    5.00    1.40
   6   0  -5    4.00    1.30
  -6   0   5    2.30    1.50
  -6   0   5    6.80    1.50
  -5   0   5  683.43   30.40
   5   0  -5  719.63   39.30
  -5   0   5  704.23   38.80
   5   0  -5  702.83   38.60
  -5   0   5  619.74   39.30
   5   0  -5  663.63   30.30
   4   0  -5  490.85   27.30
  -4   0   5  476.85   27.40
  -4   0   5  463.25   21.60
   4   0  -5  497.75   21.70
  -4   0   5  435.06   28.30
   4   0  -5  527.25   28.20
   3   0  -5   36.70    3.80
  -3   0   5   28.00    4.00
  -3   0   5   35.20    2.60
   3   0  -5   35.10    2.50
   3   0  -5   38.30    2.50
  -3   0   5   33.70    2.40
   2   0  -5   35.90    2.50
  -2   0   5   30.50    4.40
  -2   0   5   34.90    2.40
   2   0  -5   36.80    2.50
  -2   0   5   32.70    2.50
   2   0  -5   38.70    4.00
  -1   0   5  443.86   19.70
   1   0  -5  464.55   19.90
   1   0  -5  417.06   25.90
   1   0  -5  462.05   24.80
  -1   0   5  397.36   26.20
   0   0   5  606.14   37.80
   0   0  -5  706.03   37.50
   0   0  -5  637.44   36.10
   0   0  -5  643.04   28.80
   0   0   5  624.04   28.60
   0   0   5  637.64   36.20
   1   0   5    1.70    0.70
   1   0   5    3.10    1.00
  -1   0  -5    2.00    1.60
  -1   0  -5    2.50    0.70
  -1   0  -5    2.40    0.90
   1   0   5    2.20    2.10
   2   0   5   32.40    4.80
  -2   0  -5   28.60    2.30
   2   0   5   25.60    2.40
   2   0   5   31.30    2.50
  -2   0  -5   35.00    4.10
  -2   0  -5   29.90    2.80
   3   0   5  232.38   11.70
   3   0   5  233.28   14.00
  -3   0  -5  263.07   15.30
  -3   0  -5  246.68   14.10
   3   0   5  222.78   16.40
  -3   0  -5  236.28   12.00
   4   0   5  205.78   15.70
  -4   0  -5  228.78   14.00
  -4   0  -5  222.58   13.10
  -5   0  -5    2.50    0.90
  -6   0  -5    0.00    0.30
  -7   0  -5   17.60    1.20
   7   0   5   10.90    2.30
   8   0   5  110.89    7.80
  -8   0  -5  153.28    6.80
   9   0   5   27.70    2.60
  10   0   5    0.70    0.90
  18   1  -5    2.30    1.10
  17   1  -5   -0.10    0.90
  16   1  -5   -0.30    0.80
 -15  -1   5    1.80    0.70
  15   1  -5   -0.40    1.10
 -14  -1   5    3.70    1.00
  14   1  -5    2.00    1.00
  13  -1  -5    2.90    0.90
  13   1  -5    3.40    1.00
 -12  -1   5   62.69    3.70
 -11  -1   5    1.70    0.50
 -10  -1   5  170.58   10.00
  10  -1  -5  197.28    9.50
  10   1  -5  180.28   12.20
  -9  -1   5   94.89    5.50
   9  -1  -5  100.09    6.80
   9  -1  -5  104.99    5.50
  -9   1   5   91.79    7.30
   9   1  -5   96.49    7.00
  -9   1   5  105.59    8.10
   8  -1  -5   24.30    2.50
   8  -1  -5   24.20    1.90
   8  -1  -5   20.10    2.50
  -8   1   5   18.80    2.90
   8   1  -5   27.60    3.10
   8   1  -5   22.40    2.60
  -8   1   5   24.10    3.50
   7  -1  -5  118.99    7.40
   7  -1  -5   96.79    5.80
   7  -1  -5  111.89    7.00
  -7  -1   5  107.29    5.80
   7   1  -5  108.69    7.20
  -7   1   5  103.39    7.70
   7   1  -5  118.39    7.90
  -7   1   5  112.09    7.80
   6  -1  -5  551.64   29.80
  -6  -1   5  519.35   23.20
   6  -1  -5  494.05   23.30
  -6   1   5  492.25   29.80
   6   1  -5  562.94   30.40
   6   1  -5  483.85   29.50
  -5  -1   5   62.29    3.80
   5  -1  -5   67.59    3.90
   5  -1  -5   75.09    4.90
   5  -1  -5   64.99    4.30
  -5   1   5   67.59    4.70
  -5   1   5   67.79    5.30
   5   1  -5   63.09    4.50
   5   1  -5   70.19    5.60
  -5   1   5   73.09    4.00
   4  -1  -5   78.89    5.10
   4  -1  -5   77.69    4.10
  -4  -1   5   61.69    4.80
  -4  -1   5   74.29    4.00
   4  -1  -5   73.89    4.50
  -4   1   5   79.59    4.10
   4   1  -5   75.89    4.70
  -4   1   5   61.69    5.40
  -4   1   5   79.99    4.90
   4   1  -5   69.89    6.10
   3  -1  -5    2.10    0.70
  -3  -1   5    1.60    0.70
   3  -1  -5    1.70    0.80
  -3  -1   5    2.00    0.70
  -3  -1   5    2.20    1.40
   3  -1  -5    1.80    0.60
  -3   1   5    2.30    1.30
   3   1  -5    1.90    0.60
  -3   1   5    2.70    0.80
   3   1  -5    2.50    1.90
  -3   1   5    1.80    0.70
   2  -1  -5    2.90    0.90
  -2  -1   5    1.20    1.50
  -2  -1   5    1.50    0.70
   2  -1  -5    1.70    0.50
  -2  -1   5    2.50    0.70
   2   1  -5    2.50    0.90
  -2   1   5    1.50    0.70
  -2   1   5    0.70    1.20
  -2   1   5    2.20    0.60
   2   1  -5    1.30    1.70
   2   1  -5    1.80    0.60
   1  -1  -5   85.09    4.20
  -1  -1   5   67.39    4.00
   1  -1  -5   81.39    4.90
  -1  -1   5   64.79    6.00
   1  -1  -5   73.69    4.40
  -1  -1   5   68.99    4.50
   1   1  -5   69.79    4.20
   1   1  -5   71.79    6.60
  -1   1   5   73.09    5.90
  -1   1   5   76.79    4.00
  -1   1   5   76.19    4.60
   1   1  -5   69.99    4.60
   0  -1  -5   62.89    4.00
   0  -1   5   55.99    5.50
   0  -1  -5   60.99    3.60
   0  -1  -5   61.89    3.60
   0  -1   5   52.69    3.70
   0  -1   5   53.79    3.50
   0   1   5   60.99    5.50
   0   1  -5   59.79    6.00
   0   1   5   61.99    3.80
   0   1  -5   59.19    3.90
   0   1   5   56.09    3.40
   0   1  -5   56.59    3.70
  -1  -1  -5  443.96   25.10
   1  -1   5  409.16   27.00
  -1  -1  -5  487.25   20.60
   1  -1   5  455.05   20.40
   1  -1   5  436.76   25.40
  -1   1  -5  466.25   27.50
  -1   1  -5  442.46   25.50
   1   1   5  466.75   20.30
   1   1   5  373.16   26.80
  -1   1  -5  466.55   20.80
   1   1   5  469.05   25.40
  -2  -1  -5  104.79    5.70
   2  -1   5   94.89    8.00
   2  -1   5  100.49    6.20
   2  -1   5   99.19    5.50
   2   1   5   99.89    5.40
  -2   1  -5   98.79    5.80
  -2   1  -5   93.29    6.20
   2   1   5   98.89    6.20
  -2   1  -5  106.49    8.50
   2   1   5   95.59    8.30
   3  -1   5   17.90    3.60
  -3  -1  -5   20.70    2.30
   3  -1   5   19.40    1.90
   3  -1   5   20.50    2.30
   3   1   5   18.40    1.90
  -3   1  -5   19.50    4.30
  -3   1  -5   19.60    2.00
   3   1   5   22.70    4.20
   4  -1   5   78.19    5.70
  -4  -1  -5   90.49    5.50
  -4   1  -5   98.29    8.20
   4   1   5   85.49    8.30
  -4   1  -5   92.69    6.00
  -5  -1  -5  173.08   10.00
  -6  -1  -5   -0.30    0.30
  -6  -1  -5    2.10    0.90
   7  -1   5   55.19    2.80
  -7  -1  -5   55.99    3.10
  -7  -1  -5   66.39    3.90
   7   1   5   57.69    4.20
  -8  -1  -5    7.50    0.90
  -8  -1  -5    5.20    1.40
   8   1   5    6.50    1.60
  -9  -1  -5    3.40    1.00
  -9  -1  -5    2.20    0.40
   9   1   5    3.50    1.40
 -10  -1  -5    0.90    0.40
  10   1   5    0.30    1.10
  11   1   5    0.20    0.90
  12   1   5   -0.50    0.80
  19   2  -5    0.40    0.90
  18   2  -5    0.60    0.90
 -17  -2   5    7.10    1.10
  17   2  -5    0.60    1.10
 -16  -2   5    0.00    0.60
  16   2  -5   -0.20    1.10
 -15  -2   5    6.90    1.00
  15   2  -5    2.70    1.10
 -14  -2   5   24.00    1.80
 -13  -2   5   47.10    2.90
 -12  -2   5   83.99    4.70
 -12  -2   5   79.19    4.20
 -11  -2   5   17.10    1.20
  11  -2  -5   24.20    2.70
 -11  -2   5   19.20    1.40
  10  -2  -5   71.99    4.40
  10  -2  -5   69.49    5.00
 -10  -2   5   68.09    3.80
 -10   2   5   58.49    6.70
  10   2  -5   59.89    5.50
   9  -2  -5    0.60    0.70
  -9  -2   5    1.70    0.40
   9  -2  -5    1.00    1.10
  -9   2   5    1.20    1.50
   9   2  -5    1.30    1.20
   8  -2  -5   21.10    2.00
   8  -2  -5   25.60    2.30
   8  -2  -5   21.70    2.10
  -8  -2   5   23.50    1.40
  -8   2   5   16.50    2.60
   8   2  -5   23.30    2.70
  -8   2   5   20.80    3.10
   8   2  -5   24.80    3.20
   7  -2  -5   15.80    1.70
  -7  -2   5   17.70    1.80
   7  -2  -5   16.60    1.90
   7  -2  -5   14.90    1.80
   7  -2  -5   19.10    1.90
   7   2  -5   17.40    2.20
  -7   2   5   15.30    2.50
   7   2  -5   14.30    2.80
  -7   2   5   15.00    2.60
   6  -2  -5    2.50    0.80
  -6  -2   5    2.00    0.80
   6  -2  -5    1.90    0.80
   6  -2  -5    1.40    0.60
   6   2  -5    0.70    0.80
  -6   2   5    2.10    1.20
  -6   2   5    2.20    1.00
   6   2  -5    1.80    1.60
  -5  -2   5    2.30    0.80
   5  -2  -5    5.70    1.00
   5  -2  -5    5.70    1.10
   5   2  -5    3.00    0.90
   5   2  -5    5.30    1.90
  -5   2   5    4.90    1.30
  -5   2   5    6.00    1.50
   4  -2  -5   22.20    1.90
  -4  -2   5   18.10    1.70
   4  -2  -5   20.70    1.60
   4  -2  -5   22.80    1.70
  -4   2   5   19.50    1.90
   4   2  -5   21.00    1.80
  -4   2   5   18.10    1.90
   4   2  -5   19.60    3.30
  -4   2   5   20.60    2.50
   3  -2  -5  407.16   17.40
  -3  -2   5  382.86   17.30
  -3   2   5  363.46   22.30
  -3   2   5  380.16   21.70
  -3   2   5  390.36   17.40
   3   2  -5  351.86   22.90
   3   2  -5  400.06   21.70
  -2  -2   5  364.36   17.20
   2  -2  -5  394.86   17.30
   2   2  -5  374.56   23.00
   2   2  -5  404.76   21.60
  -2   2   5  395.86   21.60
  -2   2   5  360.06   22.10
  -2   2   5  363.66   17.20
   1  -2  -5   20.10    1.90
  -1  -2   5   15.50    1.80
  -1   2   5   18.50    1.70
  -1   2   5   15.50    2.40
   1   2  -5   17.60    1.70
  -1   2   5   19.00    1.60
   0  -2  -5    6.70    1.40
   0  -2   5    3.00    0.80
   0  -2   5    1.30    0.80
   0  -2   5    4.20    1.00
   0   2  -5    4.70    1.10
   0   2  -5    2.20    1.80
   0   2   5    3.90    0.90
   0   2   5    7.10    2.00
   1  -2   5    1.70    0.80
   1  -2   5    2.50    0.80
   1  -2   5    2.00    1.10
  -1  -2  -5    3.90    1.00
  -1   2  -5    1.10    0.60
  -1   2  -5    0.80    1.70
   1   2   5    1.70    0.50
   1   2   5    2.50    1.40
   2  -2   5   15.10    1.30
   2  -2   5   13.10    1.90
  -2  -2  -5   13.20    1.80
   2   2   5   13.50    3.20
  -2   2  -5   14.80    4.00
  -2   2  -5   14.10    1.60
   2   2   5   13.10    1.40
   3  -2   5   16.40    2.80
   3  -2   5   20.30    2.30
  -3  -2  -5   19.00    2.20
   3  -2   5   23.40    1.90
  -3  -2  -5   22.10    2.30
   3   2   5   23.90    4.20
  -3   2  -5   19.20    2.00
   3   2   5   19.30    1.80
  -3   2  -5   18.90    4.40
  -4  -2  -5    1.40    1.00
  -4  -2  -5    0.80    1.00
   4  -2   5    1.50    0.70
   4   2   5    1.50    1.90
  -4   2  -5    2.30    2.30
   5  -2   5   63.09    4.50
  -5  -2  -5   65.99    4.20
  -5  -2  -5   64.39    3.40
   5   2   5   54.89    7.10
  -6  -2  -5   22.00    2.10
  -6  -2  -5   21.30    1.40
   6  -2   5   18.20    1.60
   6   2   5   22.20    2.30
  -7  -2  -5   92.59    5.50
  -7  -2  -5   81.39    4.60
   7   2   5   92.09    5.60
  -8  -2  -5   46.30    2.70
  -8  -2  -5   50.79    3.40
   8   2   5   42.10    3.60
  -9  -2  -5   27.80    1.90
  -9  -2  -5   32.50    2.50
   9   2   5   20.70    2.90
 -10  -2  -5    5.60    1.00
 -10  -2  -5    9.20    1.60
  10   2   5    4.20    1.50
 -11  -2  -5   -0.20    0.30
 -11  -2  -5    0.20    0.70
  11   2   5    0.00    1.20
 -12  -2  -5    4.30    0.90
  12   2   5    1.70    1.10
  13   2   5    1.80    1.10
  14   2   5    0.40    0.90
  20   3  -5    0.30    0.90
  19   3  -5   -0.60    0.90
 -18  -3   5   -0.50    0.50
  18   3  -5   -0.60    1.00
 -17  -3   5    0.50    0.70
  17   3  -5   -0.20    1.10
  16   3  -5    3.10    1.10
 -15  -3   5   24.20    1.90
 -14  -3   5   62.09    3.20
 -14  -3   5   56.79    3.60
 -13  -3   5  180.58    9.30
 -13  -3   5  190.28   10.40
 -12  -3   5  219.48   11.10
 -12  -3   5  227.38   12.40
 -11  -3   5  158.38    8.30
  11  -3  -5  187.38    9.60
 -11  -3   5  165.28    9.30
  10  -3  -5   15.20    2.30
 -10  -3   5   13.60    1.00
 -10  -3   5   15.50    1.10
   9  -3  -5   11.00    2.10
  -9  -3   5   14.20    1.00
   9  -3  -5   15.00    1.70
  -9  -3   5   12.70    1.00
  -8  -3   5    0.60    0.30
   8  -3  -5    1.10    1.10
   8  -3  -5    0.60    0.50
   8   3  -5    1.20    1.30
   7  -3  -5    0.10    1.00
   7  -3  -5    0.00    0.50
  -7  -3   5    0.20    0.30
  -7  -3   5    0.60    0.60
   7  -3  -5    0.20    0.40
   7   3  -5   -0.20    1.40
  -7   3   5    0.00    0.60
  -6  -3   5   15.90    1.60
   6  -3  -5   14.20    1.80
   6   3  -5   13.80    1.80
   6   3  -5   13.40    2.60
  -6   3   5   13.00    2.10
  -6   3   5   16.40    2.30
   5  -3  -5    1.10    0.80
  -5  -3   5    1.10    0.70
   5   3  -5    1.90    1.20
   5   3  -5    2.50    0.80
  -5   3   5    2.30    0.90
  -5   3   5    1.20    0.90
   4  -3  -5   17.20    1.70
  -4  -3   5   16.60    1.60
  -4   3   5   19.60    2.10
   4   3  -5   15.00    2.50
  -4   3   5   16.20    1.70
   4   3  -5   15.80    1.50
   3  -3  -5  124.79    6.20
  -3  -3   5  123.79    6.10
  -3   3   5  119.29    7.30
   3   3  -5  122.39    8.30
  -3   3   5  115.79    7.70
   3   3  -5  129.99    7.30
  -2  -3   5  121.19    6.10
   2  -3  -5  134.69    6.30
   2   3  -5  128.29    7.30
   2   3  -5  123.89    8.70
  -2   3   5  114.19    7.60
  -2   3   5  116.99    7.30
  -1  -3   5   14.30    1.70
   1  -3  -5   17.60    1.70
  -1   3   5   15.90    1.90
   1   3  -5   15.20    3.50
  -1   3   5   15.90    1.40
   1   3  -5   17.10    1.60
   0  -3  -5    2.70    0.90
   0  -3   5    2.00    0.90
   0   3   5    2.00    0.90
   0   3   5    2.60    0.80
   0   3  -5    1.50    1.80
   0   3  -5    1.80    0.70
  -1  -3  -5   17.90    1.90
   1  -3   5   16.10    2.00
  -1  -3  -5   13.10    2.00
   1   3   5   15.00    1.30
   1   3   5   12.90    2.10
  -1   3  -5   15.40    1.70
  -1   3  -5   15.50    3.90
   2  -3   5    0.40    0.80
  -2  -3  -5    0.50    1.10
  -2  -3  -5    0.60    0.70
   2   3   5    0.20    0.40
   2   3   5    0.20    1.00
  -2   3  -5   -0.10    0.50
   3  -3   5    0.00    0.70
  -3  -3  -5    1.40    1.10
   3  -3   5    0.90    0.60
  -3  -3  -5    0.40    0.80
   3   3   5    0.50    0.50
  -4  -3  -5   14.20    2.10
  -4  -3  -5   13.20    2.10
  -4  -3  -5   13.10    1.10
   4  -3   5   13.70    1.90
   5  -3   5   14.90    1.50
  -5  -3  -5   14.60    1.90
  -5  -3  -5   12.80    1.10
  -6  -3  -5  168.48    8.60
  -6  -3  -5  174.08   10.00
   6   3   5  174.18    9.50
  -7  -3  -5  237.88   12.00
  -7  -3  -5  239.08   13.70
   7   3   5  244.98   13.20
  -8  -3  -5  200.68   11.50
  -8  -3  -5  194.18   10.00
   8   3   5  202.48   11.30
  -9  -3  -5   67.79    4.40
  -9  -3  -5   65.09    3.70
   9   3   5   69.29    4.80
 -10  -3  -5   20.60    1.60
 -10  -3  -5   21.10    2.10
  10   3   5   21.20    2.90
 -11  -3  -5    8.00    1.50
 -11  -3  -5    7.80    1.10
  11   3   5    5.50    1.70
 -12  -3  -5    0.40    0.80
 -12  -3  -5    0.40    0.40
  12   3   5    0.70    1.30
 -13  -3  -5    0.00    0.70
 -13  -3  -5    0.20    0.40
  13   3   5    0.40    1.00
  14   3   5    0.30    0.90
  15   3   5   -0.50    0.80
  20   4  -5   -0.60    0.90
  19   4  -5    0.00    0.90
  18   4  -5   -0.50    1.20
 -17  -4   5    1.00    0.80
  17   4  -5   -0.20    0.90
 -16  -4   5    2.10    0.70
  16   4  -5    0.60    0.80
 -15  -4   5   24.30    1.70
 -15  -4   5   25.50    1.90
 -14  -4   5   99.79    5.40
 -14  -4   5  109.69    6.10
 -13  -4   5  142.19    8.30
 -13  -4   5  151.68    7.50
 -12  -4   5  153.68    8.00
 -12  -4   5  161.28    8.80
  11  -4  -5   92.19    6.30
 -11  -4   5   92.19    5.00
 -11  -4   5   85.39    4.60
 -11   4   5   84.79    4.90
 -10  -4   5  112.29    6.00
  10  -4  -5  121.19    7.20
 -10  -4   5  120.29    6.60
 -10   4   5  118.09    6.40
   9  -4  -5   47.60    3.60
   9  -4  -5   43.20    3.80
  -9  -4   5   43.80    2.60
  -9  -4   5   44.80    2.50
  -8  -4   5   38.10    2.20
   8  -4  -5   44.90    3.50
   8  -4  -5   40.90    3.10
  -8  -4   5   39.40    2.30
   8  -4  -5   42.20    4.40
  -7  -4   5    3.10    0.50
   7  -4  -5    3.20    1.10
   7  -4  -5    2.40    1.40
   6  -4  -5   12.70    1.70
   6  -4  -5    7.30    1.90
  -6  -4   5   12.50    1.40
  -6   4   5    9.60    1.90
   5  -4  -5   42.20    3.00
   5  -4  -5   42.90    2.90
  -5   4   5   39.50    3.40
  -5   4   5   38.10    3.50
   4  -4  -5   59.29    3.60
  -4  -4   5   58.39    3.30
   4  -4  -5   63.29    3.80
  -4   4   5   54.69    4.00
  -4   4   5   56.99    4.30
  -3  -4   5   81.29    4.40
   3  -4  -5   83.79    4.60
   3  -4  -5   96.49    5.10
  -3   4   5   76.39    5.10
   3   4  -5   86.99    5.00
   3   4  -5   78.79    5.60
  -3   4   5   77.39    5.40
   2  -4  -5   81.99    4.50
  -2  -4   5   84.89    4.50
   2  -4  -5   89.39    5.00
  -2   4   5   72.89    4.90
   2   4  -5   77.29    6.10
  -2   4   5   76.29    5.20
   2   4  -5   86.09    5.00
  -1  -4   5   62.99    3.60
   1  -4  -5   62.69    3.80
   1  -4  -5   59.29    3.50
  -1   4   5   54.29    3.80
   1   4  -5   58.79    3.80
  -1   4   5   51.19    3.60
   1   4  -5   61.99    5.50
   0  -4   5   38.70    2.90
   0  -4  -5   42.00    2.90
   0  -4  -5   37.30    2.70
   0   4   5   33.80    2.50
   0   4  -5   37.70    4.80
   0   4  -5   41.90    3.00
  -1  -4  -5   11.90    2.00
  -1  -4  -5   10.40    1.60
   1  -4   5   13.50    2.00
  -1   4  -5    9.50    1.60
   1   4   5   10.10    1.10
  -2  -4  -5    1.00    0.30
  -2  -4  -5    1.50    1.20
  -2  -4  -5    2.20    0.90
   2  -4   5    2.10    1.10
   2   4   5    0.80    0.50
  -2   4  -5    0.20    0.80
   3  -4   5   36.60    3.20
  -3  -4  -5   33.90    2.00
  -3  -4  -5   33.10    2.90
  -3  -4  -5   37.90    2.90
   3   4   5   32.00    2.50
  -4  -4  -5   42.00    2.40
   4  -4   5   44.90    2.90
  -4  -4  -5   38.40    3.30
  -4  -4  -5   43.50    3.40
  -4   4  -5   44.40    2.60
  -5  -4  -5  114.49    5.80
  -5  -4  -5  111.29    6.90
  -5   4  -5  111.59    6.10
  -6  -4  -5   91.99    5.60
  -6  -4  -5   87.49    4.60
   6   4   5   83.59    5.10
  -6   4  -5   88.09    4.90
  -7  -4  -5  168.58    8.50
  -7  -4  -5  166.08    9.70
   7   4   5  164.18    9.30
  -8  -4  -5  177.08    9.70
  -8  -4  -5  150.98    8.40
   8   4   5  168.88    9.50
  -9  -4  -5  105.09    5.70
  -9  -4  -5  108.19    6.70
   9   4   5  114.49    6.90
 -10  -4  -5   23.40    1.70
 -10  -4  -5   23.80    2.20
  10   4   5   23.70    3.10
 -11  -4  -5    1.70    0.90
 -11  -4  -5    1.30    0.40
  11   4   5    3.10    1.50
 -12  -4  -5    0.60    0.40
 -12  -4  -5    0.20    0.80
  12   4   5   -0.10    1.30
 -13  -4  -5    2.20    0.80
 -13  -4  -5    1.70    0.50
  13   4   5    0.70    1.10
 -14  -4  -5    1.30    0.80
 -14  -4  -5    0.20    0.40
  14   4   5    0.10    0.90
 -15  -4  -5    0.60    0.70
  15   4   5    0.30    0.80
  20   5  -5    0.30    0.80
  19   5  -5   -0.10    0.90
  18   5  -5    0.10    1.20
 -17  -5   5    0.10    0.40
  17   5  -5   -0.40    0.90
 -16  -5   5    1.20    0.70
 -16  -5   5    0.30    0.40
  16   5  -5    0.20    0.80
 -15  -5   5    0.20    0.30
 -15  -5   5    0.00    0.60
  15   5  -5   -0.40    0.70
 -14  -5   5    5.00    0.90
 -14  -5   5    4.70    0.90
  14   5  -5    2.20    0.90
 -13  -5   5   47.30    2.80
 -13  -5   5   41.30    2.60
 -12  -5   5   96.79    5.30
 -12  -5   5   88.89    4.90
 -11  -5   5   87.39    4.60
 -11  -5   5   88.09    4.90
  11  -5  -5   91.59    6.50
 -11   5   5   82.59    4.90
  10  -5  -5    4.00    1.90
 -10  -5   5    1.70    0.40
 -10  -5   5    2.80    0.50
 -10   5   5    2.40    0.50
  -9  -5   5   38.90    2.20
   9  -5  -5   38.90    3.80
  -9  -5   5   38.50    2.20
   9  -5  -5   34.90    3.20
  -9   5   5   36.50    2.30
   8  -5  -5   34.50    3.40
   8  -5  -5   29.70    2.70
  -8  -5   5   30.90    1.80
  -8   5   5   30.10    1.90
  -7  -5   5    1.20    0.30
   7  -5  -5    1.50    1.40
   7  -5  -5    1.60    1.00
   7  -5  -5    1.50    1.50
  -7   5   5    1.80    0.40
   6  -5  -5   13.40    1.80
   6  -5  -5   13.30    2.30
  -6  -5   5   12.00    1.30
  -6  -5   5   12.20    1.00
  -6   5   5    8.00    1.90
  -5  -5   5    4.50    0.70
   5  -5  -5    4.20    1.60
   5  -5  -5    5.70    1.40
  -5  -5   5    7.10    1.10
  -4  -5   5   84.19    4.30
  -4  -5   5   86.59    4.40
   4  -5  -5   87.59    5.20
   4  -5  -5   79.79    4.80
   3  -5  -5  120.39    6.70
  -3  -5   5  115.19    5.80
   3  -5  -5  110.39    5.90
  -3   5   5  106.79    6.90
   2  -5  -5  113.59    5.90
   2  -5  -5  125.49    6.70
  -2  -5   5  120.29    5.90
  -2   5   5  101.09    6.70
   2   5  -5  107.99    7.80
   1  -5  -5   86.49    4.60
   1  -5  -5   84.99    5.10
  -1  -5   5   83.99    4.80
   1   5  -5   74.89    6.70
   0  -5  -5    3.80    1.00
   0  -5   5    5.00    1.20
   0  -5  -5    5.80    1.60
  -1  -5  -5   10.70    1.90
   1  -5   5   10.70    2.00
  -1  -5  -5    9.50    1.00
  -1  -5  -5   13.80    1.70
  -2  -5  -5    1.80    1.10
  -2  -5  -5    1.60    0.40
  -2  -5  -5    1.90    0.80
   2  -5   5    1.30    1.00
  -2   5  -5    1.90    0.60
   3  -5   5   27.60    2.90
  -3  -5  -5   21.90    2.60
  -3  -5  -5   25.60    1.70
  -3  -5  -5   29.00    2.50
  -3   5  -5   29.40    1.80
  -4  -5  -5   34.10    2.10
  -4  -5  -5   30.70    2.90
  -4  -5  -5   32.20    3.00
   4  -5   5   34.00    2.40
  -4   5  -5   33.70    2.10
  -5  -5  -5    1.00    0.40
   5  -5   5    1.70    0.80
  -5  -5  -5    2.10    1.10
  -5   5  -5    2.50    0.50
  -6  -5  -5   81.79    4.50
  -6  -5  -5   86.59    5.40
  -6   5  -5   86.19    4.80
  -7  -5  -5   90.49    4.80
  -7  -5  -5   86.19    5.70
   7   5   5   92.39    5.30
  -7   5  -5   91.69    5.10
  -8  -5  -5   38.40    2.50
  -8  -5  -5   44.70    3.20
   8   5   5   43.40    3.20
  -9  -5  -5    5.70    1.00
  -9  -5  -5    5.80    1.50
   9   5   5    4.00    1.30
 -10  -5  -5    0.20    0.80
 -10  -5  -5    0.10    0.30
  10   5   5   -0.80    1.20
 -11  -5  -5   -0.30    0.80
 -11  -5  -5    0.60    0.40
  11   5   5    0.00    1.30
 -12  -5  -5    0.20    0.40
 -12  -5  -5    0.20    0.70
  12   5   5   -0.20    1.40
 -13  -5  -5   -0.40    0.60
 -13  -5  -5   -0.40    0.40
  13   5   5   -0.30    1.20
 -14  -5  -5    0.20    0.70
 -14  -5  -5   -0.50    0.30
  14   5   5    0.20    0.80
  15   5   5    0.60    0.80
  19   6  -5    0.20    0.80
  18   6  -5    0.10    1.10
 -17  -6   5    0.50    0.40
  17   6  -5    1.10    1.00
 -16  -6   5    0.00    0.40
  16   6  -5   -0.60    0.80
 -15  -6   5    6.70    1.10
  15   6  -5    1.80    0.90
 -14  -6   5    4.50    1.10
  14   6  -5    3.20    0.90
 -13  -6   5    3.10    0.90
 -12  -6   5    1.50    0.40
 -12  -6   5    3.60    0.70
 -12   6   5    1.60    0.50
  11  -6  -5    4.10    2.30
 -11  -6   5    6.30    0.90
 -11   6   5    5.90    0.90
  10  -6  -5   49.40    4.70
 -10  -6   5   48.50    2.70
  10  -6  -5   43.40    3.80
 -10   6   5   46.80    2.80
   9  -6  -5   53.69    4.20
  -9  -6   5   56.99    3.10
   9  -6  -5   56.59    5.00
  -9   6   5   55.59    3.30
   8  -6  -5   17.20    2.30
  -8  -6   5   17.10    1.30
   8  -6  -5   20.90    3.20
  -8   6   5   18.20    1.30
   7  -6  -5   39.20    3.20
  -7  -6   5   38.90    2.30
   7  -6  -5   43.50    4.00
   7  -6  -5   42.90    4.60
  -7   6   5   40.90    2.40
   6  -6  -5   40.70    3.90
   6  -6  -5   46.30    3.30
  -6  -6   5   43.30    2.40
   6  -6  -5   40.60    4.40
  -6   6   5   44.30    2.50
  -5  -6   5    2.80    0.60
  -5  -6   5    2.60    0.60
   5  -6  -5    3.30    1.50
   5  -6  -5    2.30    1.00
   5  -6  -5    1.70    1.40
  -4  -6   5   16.30    1.40
   4  -6  -5   16.90    1.80
  -4  -6   5   14.70    1.10
   4  -6  -5   17.80    2.50
   3  -6  -5   56.09    3.60
  -3  -6   5   52.99    3.20
   3  -6  -5   49.80    3.40
   3  -6  -5   54.59    4.10
  -3  -6   5   51.29    2.80
   2  -6  -5   50.79    3.30
   2  -6  -5   50.89    3.50
  -2  -6   5   51.59    2.80
  -2  -6   5   52.89    3.20
   1  -6  -5   14.10    1.80
   1  -6  -5   14.40    1.00
  -1  -6   5   15.60    1.80
   1  -6  -5   15.10    1.70
   0  -6  -5    2.00    0.80
   0  -6  -5    2.40    1.00
   0  -6  -5    1.50    0.30
   0  -6   5    1.80    0.90
  -1  -6  -5   40.60    2.80
  -1  -6  -5   35.40    3.00
   1  -6   5   38.50    3.20
  -1  -6  -5   40.60    2.20
  -1   6  -5   37.60    2.60
  -2  -6  -5   34.00    3.00
   2  -6   5   34.50    3.30
  -2  -6  -5   30.40    2.60
  -2  -6  -5   36.90    2.10
  -2   6  -5   33.70    2.20
  -3  -6  -5   13.50    2.00
   3  -6   5   14.00    2.60
   3  -6   5   16.70    1.60
  -3  -6  -5   14.20    1.20
  -3  -6  -5    9.90    2.20
  -3   6  -5   12.80    1.30
  -4  -6  -5   46.30    3.90
  -4  -6  -5   52.19    3.80
  -4  -6  -5   53.89    3.00
   4  -6   5   55.49    3.50
  -4   6  -5   51.29    3.10
   5  -6   5   44.00    3.20
  -5  -6  -5   44.80    2.60
  -5  -6  -5   46.00    3.50
  -5  -6  -5   39.90    3.60
  -5   6  -5   43.30    2.70
  -6  -6  -5    6.50    1.70
  -6  -6  -5    6.20    1.00
  -6   6  -5    7.30    1.00
  -7  -6  -5    2.20    1.00
  -7  -6  -5    3.40    0.90
   7   6   5    2.70    0.90
  -7   6  -5    1.90    0.60
  -8  -6  -5    1.40    1.00
  -8  -6  -5    0.70    0.40
   8   6   5    1.50    1.00
  -9  -6  -5    5.00    1.50
  -9  -6  -5    6.40    1.10
   9   6   5    4.70    1.30
 -10  -6  -5    8.20    1.60
 -10  -6  -5    7.20    1.20
  10   6   5    5.30    1.60
 -11  -6  -5   -0.40    0.40
 -11  -6  -5   -0.30    0.70
  11   6   5    1.00    1.40
 -12  -6  -5    0.20    0.70
 -12  -6  -5   -0.50    0.40
  12   6   5    1.30    1.40
 -13  -6  -5    1.30    0.70
 -13  -6  -5    0.70    0.40
  13   6   5    1.00    1.30
 -14  -6  -5    0.80    0.40
  14   6   5    0.30    0.80
 -18  -7   5    1.00    0.40
  18   7  -5   -0.50    1.00
 -17  -7   5    0.40    0.40
  17   7  -5    0.30    0.90
 -16  -7   5    0.90    0.40
  16   7  -5    0.10    0.80
 -15  -7   5    0.00    0.40
  15   7  -5    0.40    0.70
 -14  -7   5    2.10    0.60
  14   7  -5    0.70    0.80
 -13  -7   5   17.80    1.60
 -12  -7   5    7.00    1.10
 -12   7   5    9.00    1.10
 -11  -7   5    8.80    1.10
 -11   7   5    8.00    1.10
  10  -7  -5    9.20    3.10
 -10  -7   5   13.40    1.30
  10  -7  -5    9.90    2.30
 -10   7   5   10.70    1.20
   9  -7  -5   12.60    2.30
  -9  -7   5    9.70    1.20
   9  -7  -5   10.70    3.00
  -9   7   5    9.20    1.10
   8  -7  -5   47.20    4.80
   8  -7  -5   46.60    3.70
  -8  -7   5   45.20    2.70
  -8   7   5   45.50    2.70
   7  -7  -5   54.79    4.10
   7  -7  -5   54.99    5.30
  -7  -7   5   57.19    3.20
   7  -7  -5   54.29    5.20
  -7   7   5   57.89    3.30
   6  -7  -5   70.39    5.60
  -6  -7   5   66.49    3.60
   6  -7  -5   62.39    5.50
   6  -7  -5   70.49    4.70
  -6   7   5   67.79    3.80
   5  -7  -5   52.99    3.90
  -5  -7   5   56.89    3.10
   5  -7  -5   50.59    4.70
   5  -7  -5   66.29    5.20
  -5   7   5   55.29    3.10
   4  -7  -5   13.30    2.70
  -4  -7   5   16.20    1.20
   4  -7  -5   15.70    2.00
  -4  -7   5   15.70    1.30
   4  -7  -5   16.80    3.00
   3  -7  -5   21.20    3.00
  -3  -7   5   21.20    1.70
   3  -7  -5   20.90    2.10
   3  -7  -5   19.80    2.20
   3  -7  -5   19.60    2.90
  -3  -7   5   21.60    1.40
   2  -7  -5   20.70    2.20
  -2  -7   5   20.20    1.90
   2  -7  -5   22.20    2.90
   2  -7  -5   19.20    2.00
  -2  -7   5   22.20    1.40
   1  -7  -5   13.00    1.90
  -1  -7   5   14.80    1.90
   1  -7  -5   16.10    1.70
   1  -7  -5   19.90    2.70
   0  -7  -5   48.90    3.20
   0  -7  -5   61.79    4.40
   0  -7   5   51.89    3.70
   0  -7  -5   49.80    3.70
   0  -7  -5   54.09    2.90
   0   7  -5   50.59    3.40
   1  -7   5   61.69    4.40
  -1  -7  -5   60.19    3.50
  -1  -7  -5   50.89    4.10
  -1  -7  -5   68.09    3.30
  -1   7  -5   59.59    3.60
   2  -7   5   60.49    3.50
   2  -7   5   44.90    4.10
  -2  -7  -5   43.60    3.80
  -2  -7  -5   53.19    2.90
  -2   7  -5   47.70    3.10
  -3  -7  -5   30.30    3.30
  -3  -7  -5   41.10    2.40
   3  -7   5   46.00    3.00
   3  -7   5   38.00    3.90
  -3   7  -5   39.30    2.50
   4  -7   5    9.50    1.60
  -4  -7  -5    4.20    1.40
  -4  -7  -5    7.20    1.10
  -4   7  -5    6.00    1.10
  -5  -7  -5   10.60    1.20
   5  -7   5    9.00    1.80
  -5  -7  -5    8.30    2.00
  -5   7  -5    9.90    1.20
   6  -7   5    9.40    1.90
  -6  -7  -5    9.40    1.20
  -6  -7  -5    9.40    1.80
  -6   7  -5    9.80    1.20
  -7  -7  -5    7.90    1.60
  -7  -7  -5    8.50    1.10
  -7   7  -5    8.20    1.20
  -8  -7  -5   19.50    1.60
  -8  -7  -5   17.10    2.00
  -8   7  -5   16.90    1.60
   8   7   5   16.40    2.10
  -9  -7  -5    2.40    0.90
  -9  -7  -5    4.70    1.20
   9   7   5    2.80    1.20
 -10  -7  -5    0.40    0.80
 -10  -7  -5    0.10    0.40
  10   7   5   -0.20    1.30
 -11  -7  -5    0.70    0.70
 -11  -7  -5    0.50    0.40
  11   7   5    1.90    1.50
 -12  -7  -5    0.40    0.40
 -12  -7  -5    0.20    0.60
  12   7   5    1.70    1.30
 -13  -7  -5    1.10    0.40
 -13  -7  -5    1.20    0.70
  13   7   5    1.20    1.20
 -17  -8   5   -0.20    0.30
  17   8  -5   -0.20    1.00
 -16  -8   5    0.20    0.40
  16   8  -5    0.50    0.90
 -15  -8   5    0.20    0.40
  15   8  -5    0.20    0.70
 -14  -8   5    1.00    0.50
 -13  -8   5   -0.10    0.40
 -13   8   5    0.40    0.50
 -12  -8   5   -0.40    0.40
 -12   8   5   -0.40    0.50
 -11  -8   5   -0.10    0.40
  11  -8  -5    0.40    1.20
 -11   8   5   -0.20    0.50
  10  -8  -5   23.30    4.40
 -10  -8   5   26.00    1.80
  10  -8  -5   21.50    2.90
 -10   8   5   25.60    1.80
   9  -8  -5    5.70    3.00
   9  -8  -5    3.00    1.40
  -9  -8   5    5.90    1.00
  -9   8   5    5.30    1.00
  -8  -8   5   12.60    1.20
   8  -8  -5   11.20    2.20
   8  -8  -5    7.70    2.80
  -8   8   5   11.90    1.20
  -7  -8   5   17.10    1.40
   7  -8  -5   16.80    2.40
   7  -8  -5   19.30    3.70
  -7   8   5   17.30    1.30
   6  -8  -5   17.50    3.60
  -6  -8   5   17.70    1.40
   6  -8  -5   16.70    2.30
  -6   8   5   17.50    1.30
   5  -8  -5   23.60    3.80
  -5  -8   5   23.30    1.60
   5  -8  -5   22.20    2.50
  -5   8   5   23.20    1.50
   4  -8  -5   40.30    4.40
   4  -8  -5   41.20    3.30
  -4  -8   5   41.40    2.40
  -4   8   5   41.30    2.40
   3  -8  -5    7.70    2.40
   3  -8  -5   11.80    2.00
  -3  -8   5   12.30    1.10
   2  -8  -5   12.00    2.00
   2  -8  -5   13.80    2.90
   2  -8  -5   10.20    1.80
  -2  -8   5   13.70    1.10
   1  -8  -5   37.40    3.90
   1  -8  -5   37.80    3.10
   0  -8  -5   20.30    2.50
   0  -8  -5   19.30    3.00
   0   8  -5   20.30    1.90
  -1  -8  -5   19.90    1.40
   1  -8   5   22.50    1.80
  -1  -8  -5   13.60    2.40
  -1  -8  -5   17.20    3.00
  -1   8  -5   16.00    1.60
  -2  -8  -5   18.50    1.40
   2  -8   5   22.50    1.90
  -2  -8  -5   11.90    2.30
  -2   8  -5   15.80    1.50
  -3  -8  -5   10.70    1.20
   3  -8   5   11.50    1.60
  -3  -8  -5    7.60    2.20
  -3   8  -5   10.70    1.30
  -4  -8  -5    4.30    1.40
   4  -8   5    6.50    1.70
  -4  -8  -5    4.40    1.00
  -4   8  -5    5.60    1.00
  -5  -8  -5   28.60    1.90
  -5  -8  -5   24.70    2.50
   5  -8   5   24.50    2.60
  -5   8  -5   26.30    1.90
  -6  -8  -5    0.10    0.40
  -6  -8  -5    0.40    0.90
   6  -8   5   -0.10    1.00
  -6   8  -5    0.40    0.50
  -7  -8  -5   -0.40    0.80
  -7  -8  -5   -0.30    0.40
  -7   8  -5   -0.30    0.50
  -8  -8  -5   -0.30    0.40
  -8  -8  -5   -0.20    0.70
  -8   8  -5    0.60    0.60
  -9  -8  -5    0.00    0.40
  -9  -8  -5    0.20    0.80
   9   8   5    0.10    1.00
 -10  -8  -5   -0.30    0.60
 -10  -8  -5   -0.20    0.40
  10   8   5   -0.40    1.20
 -11  -8  -5    0.20    0.50
 -11  -8  -5    0.10    0.40
  11   8   5   -0.10    1.20
 -12  -8  -5    0.00    0.60
 -12  -8  -5    0.00    0.40
  12   8   5    0.40    1.10
 -15  -9   5    3.10    0.90
  15   9  -5    0.60    0.80
 -14  -9   5    4.60    1.00
 -13  -9   5    0.40    0.40
 -13   9   5    0.40    0.50
 -12  -9   5    1.30    0.50
 -12   9   5    1.80    0.60
  11  -9  -5   -0.40    1.40
 -11  -9   5    0.40    0.40
 -11   9   5    0.50    0.50
 -10  -9   5   25.40    1.80
  10  -9  -5   18.80    3.00
 -10   9   5   23.50    1.80
  -9  -9   5    1.30    0.50
   9  -9  -5    1.30    1.40
  -9   9   5    1.90    0.60
  -8  -9   5    0.20    0.40
   8  -9  -5    0.50    1.20
   8  -9  -5    1.20    2.60
  -8   9   5    0.80    0.50
  -7  -9   5   -0.10    0.30
   7  -9  -5   -1.20    2.30
   7  -9  -5    0.40    1.20
  -7   9   5   -0.20    0.40
   6  -9  -5   -1.20    2.00
  -6  -9   5    1.30    0.40
   6  -9  -5    1.80    1.30
  -6   9   5    2.00    0.50
   5  -9  -5    9.40    3.00
   5  -9  -5   10.70    2.30
  -5  -9   5    8.10    1.00
  -5   9   5    8.50    0.90
   4  -9  -5    7.20    2.90
   4  -9  -5    6.60    2.00
  -4  -9   5    5.70    0.90
  -4   9   5    5.60    0.80
  -3  -9   5    6.60    0.90
   3  -9  -5    9.20    2.10
   3  -9  -5    3.60    2.40
   2  -9  -5    6.70    2.70
   2  -9  -5    6.60    2.10
   1  -9  -5    7.80    2.20
  -1  -9   5    7.20    1.20
   1  -9  -5    4.30    2.50
   0  -9   5    9.40    1.40
   0  -9  -5    9.60    2.30
   0   9  -5    8.00    1.30
  -1  -9  -5    1.70    1.30
   1  -9   5    2.50    0.90
  -1   9  -5    1.90    0.60
  -2  -9  -5    0.00    1.20
   2  -9   5   -0.30    0.80
  -2  -9  -5    0.20    0.40
  -2   9  -5   -0.30    0.50
  -3  -9  -5    0.10    0.40
   3  -9   5    0.30    0.90
  -3  -9  -5    1.00    1.20
  -3   9  -5    1.30    0.60
   4  -9   5    1.40    1.00
  -4  -9  -5    1.40    1.20
  -4  -9  -5    2.00    0.50
  -4   9  -5    2.00    0.60
   5  -9   5   22.60    2.50
  -5  -9  -5   25.20    1.90
  -5  -9  -5   24.60    2.30
  -5   9  -5   25.00    1.90
  -6  -9  -5    0.00    0.70
  -6  -9  -5    0.50    0.40
   6  -9   5    0.10    1.10
  -6   9  -5    0.60    0.60
  -7  -9  -5    1.40    0.70
  -7  -9  -5    0.90    0.50
  -7   9  -5    1.40    0.70
  -8  -9  -5    0.90    0.40
  -8   9  -5    0.70    0.60
  -9  -9  -5    4.70    1.00
  -9  -9  -5    4.30    1.10
   9   9   5    1.90    1.20
 -10  -9  -5    1.20    0.50
 -10  -9  -5    3.10    0.80
  10   9   5    1.40    1.20
 -14 -10   5    6.00    1.00
 -13 -10   5    9.00    1.20
 -12 -10   5   10.70    1.20
 -12  10   5    8.20    1.20
  11 -10  -5   13.80    2.90
 -11 -10   5   16.60    1.50
 -11  10   5   16.50    1.50
 -10 -10   5    1.00    0.50
  10 -10  -5    3.50    1.70
 -10  10   5    2.10    0.60
   9 -10  -5    8.10    2.50
  -9 -10   5    7.70    1.20
  -9  10   5    7.10    1.10
  -8 -10   5   -0.10    0.40
   8 -10  -5    0.60    1.40
  -8  10   5    0.30    0.60
   7 -10  -5    3.10    1.60
  -7 -10   5    5.40    1.00
  -7  10   5    5.00    1.00
  -6 -10   5    3.40    1.00
   6 -10  -5    2.60    1.40
  -6  10   5    1.90    0.60
  -5 -10   5   -0.30    0.40
  -5 -10   5   -0.30    0.50
   5 -10  -5    1.30    1.40
  -5  10   5    0.10    0.40
   4 -10  -5    3.50    1.50
  -4 -10   5    2.80    0.90
  -4 -10   5    1.70    0.50
  -3 -10   5   11.00    1.30
   3 -10  -5   11.70    2.50
  -3  10   5   12.80    1.10
  -2 -10   5   10.90    1.40
   2 -10  -5   10.50    2.50
   1 -10  -5    2.60    1.50
  -1 -10   5    2.60    0.90
   1  10  -5    2.80    0.80
   0 -10   5   -0.90    0.80
   0 -10  -5    1.20    1.30
   0  10  -5   -0.40    0.60
   1 -10   5    1.80    1.00
  -1 -10  -5    1.10    1.30
  -1  10  -5    0.90    0.60
  -2 -10  -5    3.80    1.30
   2 -10   5    5.50    1.60
  -2  10  -5    3.30    0.80
  -3 -10  -5    1.10    1.20
  -3 -10  -5    0.10    0.40
   3 -10   5    0.70    1.00
  -3  10  -5    0.30    0.60
  -4 -10  -5    8.50    1.20
  -4 -10  -5    7.60    1.40
   4 -10   5    8.30    1.90
  -4  10  -5    7.60    1.20
   5 -10   5    2.30    1.30
  -5 -10  -5    4.70    1.10
  -5  10  -5    2.00    0.70
  -6 -10  -5   18.80    1.60
   6 -10   5   14.20    2.50
  -6  10  -5   17.90    1.70
  -7 -10  -5   12.00    1.40
   7 -10   5    8.30    2.30
  -7  10  -5    9.30    1.30
  -8 -10  -5   12.30    1.40
  -8  10  -5    7.70    1.30
  -9 -10  -5    6.40    1.10
   9  10   5    6.00    1.90
 -11 -11   5    6.80    1.10
 -11  11   5    6.30    1.10
  10 -11  -5    3.50    1.70
 -10 -11   5    2.00    0.50
 -10  11   5    3.60    1.00
  -9 -11   5    0.10    0.40
   9 -11  -5    1.30    1.50
  -9  11   5    0.30    0.50
   8 -11  -5   -0.20    1.40
  -8 -11   5   -0.40    0.40
  -8  11   5    0.10    0.50
   7 -11  -5    0.40    1.40
  -7 -11   5   -0.20    0.40
  -7  11   5   -0.30    0.50
   6 -11  -5    0.60    1.30
  -6 -11   5    0.70    0.40
  -6  11   5    0.70    0.60
   5 -11  -5    1.10    1.40
  -5  11   5    0.70    0.50
  -4 -11   5    0.40    0.60
   4 -11  -5    0.70    1.40
  -4  11   5    0.40    0.50
   3 -11  -5    1.80    1.60
  -3 -11   5    1.90    0.70
  -3  11   5    2.70    0.80
   2 -11  -5    0.60    1.50
  -2 -11   5    1.20    0.80
  -2  11   5    2.60    0.80
   1 -11  -5    0.40    1.40
  -1 -11   5    0.40    0.80
   1  11  -5    0.20    0.60
   0 -11   5   -0.10    0.80
   0 -11  -5   -0.20    1.30
   0  11  -5    0.10    0.60
   1 -11   5    0.30    0.90
  -1 -11  -5    0.00    1.10
  -1  11  -5    0.20    0.60
   2 -11   5   -0.60    0.90
  -2  11  -5    0.10    0.60
   3 -11   5   -0.70    1.00
  -3  11  -5   -0.20    0.50
   4 -11   5    0.40    1.10
  -4  11  -5    0.80    0.60
   5 -11   5    3.50    1.30
  -5 -11  -5    5.20    1.10
  -5  11  -5    5.90    1.10
  -6 -11  -5    6.90    1.20
  -6  11  -5    7.00    1.10
  -8  12   5    0.30    0.50
   7 -12  -5   -1.50    1.30
  -7  12   5   -0.20    0.50
   6 -12  -5   -0.60    1.30
  -6  12   5    0.90    0.50
   5 -12  -5   -0.40    1.40
  -5  12   5    1.60    0.50
   4 -12  -5   -0.10    1.40
  -4  12   5    0.50    0.50
   3 -12  -5   -0.40    1.30
  -3  12   5   -0.10    0.40
  -2 -12   5   -0.30    0.70
   2 -12  -5   -0.90    1.20
  -2  12   5   -0.40    0.40
   2  12  -5   -0.20    0.50
  -1 -12   5    0.10    0.80
   1 -12  -5    0.50    1.20
  -1  12   5    0.10    0.40
   1  12  -5   -0.10    0.50
   0 -12   5    2.20    1.00
   0  12  -5    1.40    0.50
   1 -12   5    0.70    0.90
  -1  12  -5    1.50    0.50
   2 -12   5    0.50    1.00
  -2  12  -5    0.10    0.50
  -3  12  -5    0.00    0.50
  16   0  -6   22.80    2.50
  14   0  -6   41.60    3.10
  13   0  -6   72.39    4.50
  12   0  -6   66.99    4.20
 -11   0   6   -0.10    0.40
   9   0  -6   49.99    3.00
   9   0  -6   51.49    4.10
  -9   0   6   42.60    4.40
  -8   0   6   12.60    2.90
   8   0  -6   16.10    2.00
   8   0  -6   19.60    2.70
  -8   0   6   14.60    2.80
  -7   0   6  179.28   13.40
  -7   0   6  227.88   10.50
   7   0  -6  218.08   12.70
  -7   0   6  207.58   13.20
   7   0  -6  225.58   13.40
  -6   0   6  821.02   35.10
  -6   0   6  744.13   44.70
  -6   0   6  694.93   45.30
   6   0  -6  889.91   45.40
   5   0  -6    3.60    0.90
   5   0  -6    4.10    0.90
  -5   0   6    3.80    1.10
  -5   0   6    3.20    1.00
   5   0  -6    5.30    1.60
  -5   0   6    4.10    1.80
   4   0  -6  502.15   28.70
  -4   0   6  407.16   28.80
   4   0  -6  495.75   27.60
  -4   0   6  526.15   27.80
   4   0  -6  503.55   22.10
  -4   0   6  483.35   22.00
  -3   0   6   85.09    7.70
  -3   0   6   97.49    6.20
   3   0  -6  116.19    7.60
  -3   0   6   96.49    5.20
   3   0  -6  105.09    6.20
   3   0  -6   97.39    5.30
  -2   0   6  435.26   28.10
  -2   0   6  463.15   26.50
   2   0  -6  488.85   21.30
  -2   0   6  456.65   21.10
   2   0  -6  491.45   27.80
  -1   0   6    2.80    0.80
   1   0  -6    3.00    0.90
   1   0  -6    3.70    1.50
  -1   0   6    3.40    0.80
   1   0  -6    3.20    1.00
   0   0  -6  746.93   40.10
   0   0   6  692.33   31.70
   0   0  -6  727.93   41.40
   0   0  -6  737.43   32.10
   0   0   6  630.84   41.90
   0   0   6  721.23   40.10
  -1   0  -6  222.88   13.50
  -1   0  -6  195.98   10.30
   1   0   6  200.08   10.00
  -1   0  -6  216.28   12.10
   1   0   6  198.88   12.10
   1   0   6  196.88   14.40
  -2   0  -6   18.70    3.10
  -2   0  -6   14.00    1.60
   2   0   6   11.20    3.80
   2   0   6   12.00    1.70
  -3   0  -6   49.80    4.70
  -3   0  -6   48.10    3.60
  -4   0  -6  162.28    9.90
  -6   0  -6  160.48    7.30
   6   0   6  126.49    8.40
   7   0   6  125.99    8.80
  -7   0  -6  175.58    7.70
  -8   0  -6   95.19    4.90
  -9   0  -6   90.09    4.80
  18   1  -6    0.20    1.00
  17   1  -6    9.40    1.90
  16   1  -6    2.10    1.00
 -14  -1   6   63.69    3.90
  13  -1  -6   24.40    2.40
  13   1  -6   32.40    2.50
  12   1  -6    0.80    0.80
 -11  -1   6    0.50    0.50
 -10  -1   6    7.90    0.90
  10  -1  -6    7.50    1.60
   9  -1  -6   71.49    5.20
   9  -1  -6   66.89    3.90
  -9   1   6   67.89    6.20
  -9   1   6   55.19    5.50
   9   1  -6   67.89    5.10
   8  -1  -6  167.58   10.00
   8  -1  -6  147.89    9.40
   8   1  -6  156.78    9.70
  -8   1   6  126.09   10.20
  -8   1   6  147.99   10.30
   8   1  -6  168.58   10.50
   7  -1  -6   58.99    4.60
   7  -1  -6   55.49    3.70
  -7  -1   6   53.99    3.60
   7   1  -6   68.99    5.30
   7   1  -6   58.39    4.20
  -7   1   6   56.19    4.70
  -7   1   6   52.29    5.00
   6  -1  -6   18.80    1.80
   6  -1  -6   22.10    2.50
  -6  -1   6   17.70    2.00
   6  -1  -6   19.90    2.00
   6   1  -6   21.50    2.10
  -6   1   6   21.20    2.10
  -6   1   6   19.20    2.40
   6   1  -6   18.80    3.20
   5  -1  -6  507.15   22.20
  -5  -1   6  483.65   22.10
   5  -1  -6  537.25   28.40
   5  -1  -6  502.65   27.70
  -5  -1   6  420.56   27.80
   5   1  -6  487.55   27.80
   5   1  -6  513.95   29.20
  -5   1   6  447.16   28.00
  -5   1   6  509.45   22.20
   4  -1  -6   24.10    2.60
  -4  -1   6   26.30    2.10
   4  -1  -6   21.40    1.90
  -4  -1   6   24.40    3.00
  -4  -1   6   24.80    2.00
   4  -1  -6   20.50    2.00
   4   1  -6   24.90    2.00
  -4   1   6   19.90    2.00
  -4   1   6   20.80    2.10
   4   1  -6   26.20    4.00
  -4   1   6   19.60    3.10
   3  -1  -6  191.98   11.50
  -3  -1   6  157.68   11.90
  -3  -1   6  190.18   11.00
   3  -1  -6  203.98   10.90
  -3  -1   6  183.98    9.00
   3  -1  -6  201.38    9.20
  -3   1   6  187.78    9.00
   3   1  -6  182.48   12.60
  -3   1   6  199.28   11.00
   3   1  -6  181.58   10.90
  -3   1   6  169.78   12.20
  -2  -1   6   22.90    1.90
  -2  -1   6   24.50    2.00
   2  -1  -6   28.80    2.60
  -2  -1   6   20.50    3.70
   2  -1  -6   21.10    1.80
  -2   1   6   22.20    2.00
  -2   1   6   21.80    3.50
   2   1  -6   21.40    4.10
   2   1  -6   23.90    2.00
  -2   1   6   20.70    1.90
  -1  -1   6  446.96   20.80
   1  -1  -6  474.35   26.00
   1  -1  -6  518.55   26.60
  -1  -1   6  404.26   27.60
   1  -1  -6  474.15   21.10
  -1  -1   6  455.65   26.10
   1   1  -6  464.25   21.20
   1   1  -6  430.26   28.00
  -1   1   6  473.25   26.20
  -1   1   6  426.66   27.70
   1   1  -6  473.55   26.20
  -1   1   6  470.45   20.80
   0  -1   6   15.90    3.60
   0  -1  -6   17.60    2.10
   0  -1  -6   17.70    1.50
   0  -1   6   14.60    1.70
   0  -1  -6   22.50    2.10
   0   1   6   19.20    1.80
   0   1  -6   18.20    3.90
   0   1   6   17.40    3.80
   0   1  -6   18.60    1.80
   0   1  -6   15.90    2.10
   0   1   6   20.70    1.80
  -1  -1  -6   54.29    3.60
   1  -1   6   49.10    3.50
   1  -1   6   50.69    3.40
   1  -1   6   41.30    5.20
  -1  -1  -6   48.20    3.30
  -1  -1  -6   53.09    3.20
   1   1   6   52.59    3.30
   1   1   6   48.70    5.70
  -1   1  -6   49.60    3.70
   1   1   6   49.40    3.50
  -1   1  -6   48.00    5.70
   2  -1   6  123.19    7.00
   2  -1   6  119.69   10.10
  -2  -1  -6  135.19    7.30
   2  -1   6  136.59    8.10
  -2   1  -6  138.19   10.50
  -2   1  -6  134.69    8.20
   2   1   6  131.49    8.10
   2   1   6  127.89   10.50
   3  -1   6   58.99    4.30
  -3   1  -6   69.69    6.90
   3   1   6   61.99    7.00
  -4  -1  -6    6.80    1.40
  -4  -1  -6    6.90    0.80
  -4   1  -6    5.20    2.50
  -5  -1  -6    1.10    1.00
  -5  -1  -6    0.40    0.30
  -6  -1  -6    1.40    0.40
  -6  -1  -6    3.40    1.10
   6  -1   6    1.40    0.60
  -6   1  -6    1.80    0.40
   6   1   6    3.00    1.20
  -7  -1  -6   49.20    3.30
  -7  -1  -6   42.40    2.50
   7  -1   6   45.50    2.40
  -7   1  -6   39.50    2.40
   7   1   6   43.40    3.60
  -8  -1  -6   55.69    3.00
   8   1   6   50.69    4.20
  -9  -1  -6   12.30    1.20
   9   1   6    8.90    2.30
 -10  -1  -6    4.70    1.00
  10   1   6    2.40    1.20
  11   1   6    9.90    1.90
  20   2  -6    1.00    1.00
  19   2  -6   -0.20    0.90
  18   2  -6    0.20    0.90
 -17  -2   6   -0.20    0.50
  17   2  -6   -0.50    0.80
 -16  -2   6    0.00    0.60
  16   2  -6   -0.10    1.00
 -15  -2   6    3.10    1.00
  15   2  -6    0.30    1.00
 -13  -2   6   88.99    5.20
 -12  -2   6   35.20    2.10
 -12  -2   6   37.20    2.30
 -11  -2   6   21.10    1.30
 -11  -2   6   21.30    1.50
  11  -2  -6   18.90    2.40
  10  -2  -6   22.00    2.60
  10  -2  -6   21.50    2.40
 -10  -2   6   25.40    1.60
 -10   2   6   26.10    4.40
  10   2  -6   24.20    3.10
   9  -2  -6    5.00    1.50
   9  -2  -6    5.20    1.30
   9   2  -6    6.50    1.80
  -9   2   6    2.70    1.80
   8  -2  -6   54.39    3.80
   8  -2  -6   46.60    3.20
   8  -2  -6   44.60    3.40
  -8  -2   6   49.40    3.20
  -8   2   6   34.80    4.30
   8   2  -6   46.90    3.80
   8   2  -6   47.90    4.70
   7  -2  -6    6.90    1.20
  -7  -2   6    7.60    1.40
   7  -2  -6    9.70    1.60
   7   2  -6   10.10    1.60
   7   2  -6    9.00    2.70
  -7   2   6    8.90    2.20
  -7   2   6    4.80    1.40
   6  -2  -6   11.00    1.60
   6  -2  -6   10.40    1.50
  -6  -2   6    9.30    1.50
   6  -2  -6   11.30    1.30
   6   2  -6    9.90    1.50
   6   2  -6   11.70    3.20
  -6   2   6   10.00    1.90
  -6   2   6    9.70    2.30
   5  -2  -6    0.60    0.50
   5  -2  -6    2.10    0.70
  -5  -2   6    1.20    0.70
   5  -2  -6    1.70    0.60
   5   2  -6    2.40    0.70
  -5   2   6    1.70    0.90
   5   2  -6    1.90    1.80
  -5   2   6    1.40    0.90
  -5   2   6    2.30    1.20
   4  -2  -6  108.39    5.60
   4  -2  -6  118.59    6.30
  -4  -2   6  101.69    5.40
   4  -2  -6  101.69    6.10
  -4   2   6  101.59    6.50
  -4   2   6  101.39    5.50
   4   2  -6  106.49    8.30
  -4   2   6   96.99    7.30
   4   2  -6  101.69    6.40
  -3  -2   6    1.40    0.70
   3  -2  -6    2.50    0.80
  -3   2   6    2.60    1.30
  -3   2   6    1.40    0.70
  -3   2   6    2.10    0.70
   3   2  -6    1.90    1.70
   3   2  -6    2.50    0.70
   2  -2  -6  109.79    5.50
  -2  -2   6  102.29    5.30
   2   2  -6  112.99    6.30
  -2   2   6   93.89    5.30
   2   2  -6   95.29    8.20
  -2   2   6   90.89    7.10
  -2   2   6   98.49    6.20
  -1  -2   6    0.60    0.70
  -1  -2   6    1.60    0.50
  -1  -2   6    0.70    0.70
   1  -2  -6    1.70    0.80
   1   2  -6    1.20    1.90
  -1   2   6    1.80    0.60
  -1   2   6    1.20    1.30
   1   2  -6    1.90    0.80
   0  -2  -6   11.10    1.70
   0  -2   6    8.50    1.60
   0  -2   6    8.80    1.10
   0   2   6   10.80    1.30
   0   2  -6    6.90    2.40
   0   2   6   10.40    2.80
   0   2  -6    5.60    1.20
   1  -2   6    8.00    1.10
  -1  -2  -6    6.30    1.60
   1  -2   6    8.90    1.70
   1  -2   6    6.60    2.20
  -1   2  -6    7.30    2.90
  -1   2  -6    7.20    1.30
   1   2   6    7.40    2.30
   1   2   6    6.20    1.20
   2  -2   6   44.80    3.10
  -2  -2  -6   44.60    3.40
  -2  -2  -6   43.60    3.40
   2  -2   6   40.40    4.30
   2  -2   6   40.30    3.20
   2   2   6   46.50    3.40
   2   2   6   36.50    5.30
  -2   2  -6   46.10    5.90
  -3  -2  -6    4.60    1.30
   3  -2   6    5.40    1.10
   3   2   6    2.30    2.00
  -4  -2  -6   19.60    2.30
  -4  -2  -6   22.00    1.40
  -5  -2  -6   23.50    2.30
   5  -2   6   16.10    1.50
  -5  -2  -6   19.60    1.40
   5   2   6   19.70    2.10
   6  -2   6   33.00    2.10
  -6  -2  -6   43.50    3.00
  -6  -2  -6   35.40    2.10
   6   2   6   33.30    3.00
  -7  -2  -6   80.99    4.40
  -7  -2  -6   93.79    5.40
   7   2   6   74.99    5.40
  -8  -2  -6   55.89    3.70
  -8  -2  -6   51.49    2.90
   8   2   6   44.90    4.10
  -9  -2  -6    1.90    1.00
  -9  -2  -6    1.40    0.40
   9   2   6    1.80    1.30
 -10  -2  -6    0.50    0.40
 -10  -2  -6    0.80    0.90
  10   2   6    1.40    1.30
 -11  -2  -6    0.00    0.40
  11   2   6   -0.30    1.10
 -12  -2  -6   -0.30    0.40
  12   2   6   -0.60    0.90
  13   2   6   -0.70    0.80
  21   3  -6    0.50    0.90
  20   3  -6   -0.20    0.90
  19   3  -6    0.50    0.90
  18   3  -6    0.00    0.90
  17   3  -6    1.20    1.20
  16   3  -6    0.90    1.10
 -15  -3   6   58.69    3.60
 -14  -3   6  151.98    8.90
 -14  -3   6  205.48   10.00
 -13  -3   6  252.97   13.70
 -13  -3   6  243.48   12.30
  12  -3  -6  322.57   16.10
 -12  -3   6  306.17   16.80
 -12  -3   6  293.97   15.10
 -11  -3   6  172.18    8.70
 -11  -3   6  177.88    9.70
  11  -3  -6  177.08    9.70
 -10  -3   6    0.30    0.40
 -10  -3   6    0.30    0.30
  10  -3  -6   -1.10    1.20
   9  -3  -6  280.27   13.20
  -9  -3   6  264.17   12.60
   9  -3  -6  228.28   14.80
   8  -3  -6  124.79    7.80
   8  -3  -6  136.79    7.30
  -8  -3   6  126.89    6.80
   8   3  -6  136.79    9.70
  -7  -3   6   36.80    2.60
   7  -3  -6   35.80    2.30
   7   3  -6   33.70    4.40
   7   3  -6   35.60    3.30
  -7   3   6   32.00    3.60
  -6  -3   6   67.59    3.60
   6   3  -6   48.00    5.40
   6   3  -6   69.89    4.20
  -6   3   6   54.09    4.50
  -6   3   6   50.69    4.70
   5  -3  -6   13.70    1.70
  -5  -3   6   16.00    1.70
   5   3  -6   18.10    1.70
  -5   3   6   13.10    2.30
  -5   3   6   13.80    1.80
   5   3  -6   13.40    3.10
   4  -3  -6   89.19    4.70
  -4  -3   6   85.49    4.50
   4   3  -6   73.89    6.60
  -4   3   6   82.49    5.30
  -4   3   6   82.39    6.00
   4   3  -6   82.79    5.20
   3  -3  -6  301.47   13.60
  -3  -3   6  287.77   13.40
   3   3  -6  278.97   18.30
  -3   3   6  283.67   16.60
   3   3  -6  299.07   16.60
  -3   3   6  283.67   17.30
  -2  -3   6   79.69    4.50
   2  -3  -6   88.89    4.60
   2   3  -6   80.29    5.10
  -2   3   6   73.99    5.00
   2   3  -6   79.99    7.10
  -2   3   6   81.59    5.80
  -1  -3   6   14.90    1.80
   1  -3  -6   12.80    1.70
   1  -3  -6   12.90    2.20
   1   3  -6   15.50    1.70
   1   3  -6   11.50    3.70
  -1   3   6   11.00    2.20
  -1   3   6   13.50    1.40
   0  -3  -6   50.69    4.00
   0  -3  -6   59.79    3.70
   0  -3   6   63.59    3.80
   0   3   6   50.69    4.70
   0   3  -6   54.69    6.40
   0   3  -6   60.69    4.00
   0   3   6   54.89    3.70
  -1  -3  -6   28.70    2.90
  -1  -3  -6   34.90    2.80
   1  -3   6   32.30    2.70
   1   3   6   31.10    2.40
  -1   3  -6   32.50    2.70
   1   3   6   30.50    3.90
   2  -3   6  114.09    6.30
  -2  -3  -6  111.59    6.20
  -2  -3  -6  107.29    6.80
   2   3   6  104.69    8.50
  -3  -3  -6  236.38   13.70
  -3  -3  -6  241.78   11.80
   4  -3   6   -0.30    0.50
  -4  -3  -6    1.10    1.10
  -4  -3  -6    0.00    0.30
  -5  -3  -6  177.78   10.00
   5  -3   6  160.38    7.10
  -5  -3  -6  165.58    8.50
   5   3   6  173.18    9.30
  -6  -3  -6  301.47   15.20
  -6  -3  -6  319.17   17.40
   6   3   6  302.77   16.70
  -7  -3  -6  252.67   12.70
  -7  -3  -6  260.17   14.50
   7   3   6  249.88   14.10
  -8  -3  -6  163.28    9.60
  -8  -3  -6  166.98    8.30
   8   3   6  158.88    9.60
  -9  -3  -6   61.29    4.00
  -9  -3  -6   54.29    3.20
   9   3   6   56.09    4.60
 -10  -3  -6    3.50    1.00
 -10  -3  -6    3.30    1.00
  10   3   6    3.10    1.50
 -11  -3  -6    0.00    0.40
 -11  -3  -6    0.10    0.80
  11   3   6   -0.40    1.30
 -12  -3  -6    0.50    0.40
 -12  -3  -6    2.00    0.90
  12   3   6   -0.30    1.10
 -13  -3  -6    1.70    0.40
  13   3   6    1.00    1.00
  14   3   6   -0.40    0.80
  20   4  -6    1.00    0.90
  19   4  -6   -0.10    0.90
  18   4  -6   -0.60    1.00
  17   4  -6   -0.20    1.20
 -16  -4   6   -0.30    0.50
  16   4  -6    0.60    0.90
 -15  -4   6   18.90    1.40
  14   4  -6   38.30    2.80
 -13  -4   6  314.77   17.30
 -13  -4   6  388.36   19.30
 -12  -4   6  336.77   16.50
  12  -4  -6  329.17   17.60
 -11  -4   6   85.59    4.40
  11  -4  -6   86.79    5.90
 -11   4   6   82.69    4.80
 -10  -4   6    0.30    0.40
 -10  -4   6    0.10    0.30
  10  -4  -6    0.70    1.60
 -10   4   6    0.70    0.50
   9  -4  -6    7.30    2.10
   9  -4  -6    6.30    1.40
  -9  -4   6    3.20    0.70
  -9   4   6    5.20    0.80
  -8  -4   6  170.38    8.40
   8  -4  -6  172.28    9.30
   8  -4  -6  161.88    9.90
   7  -4  -6  436.06   23.70
  -7  -4   6  442.36   19.40
  -7  -4   6  434.76   20.80
   7  -4  -6  451.25   21.10
   7   4  -6  358.16   25.30
  -6  -4   6  148.19    7.00
  -6  -4   6  146.39    7.00
   6  -4  -6  148.39    8.30
  -6   4   6  122.89    9.20
   6   4  -6  125.29    9.40
   5  -4  -6   13.50    1.90
  -5  -4   6   11.60    1.60
   5  -4  -6   11.20    1.80
  -5   4   6   12.20    2.10
   5   4  -6   10.50    2.70
  -4  -4   6   47.20    3.00
   4  -4  -6   49.10    3.40
   4  -4  -6   48.80    3.20
  -4   4   6   43.50    3.80
   4   4  -6   45.50    4.60
  -4   4   6   45.50    3.50
   3  -4  -6  205.88    9.30
   3  -4  -6  206.88   10.80
  -3  -4   6  197.58    9.10
  -3   4   6  185.28   11.00
   3   4  -6  174.68   12.50
  -3   4   6  153.78   11.40
   2  -4  -6   49.40    3.30
  -2  -4   6   44.60    3.00
   2  -4  -6   45.80    3.00
   2   4  -6   42.00    5.10
  -2   4   6   41.40    3.00
  -2   4   6   38.60    3.50
   1  -4  -6   12.20    2.10
  -1  -4   6   12.50    1.80
   1  -4  -6   11.90    1.70
  -1   4   6   11.40    1.30
   1   4  -6   12.30    1.60
   0  -4  -6  134.79    6.70
   0  -4  -6  111.79    7.50
   0  -4   6  126.99    6.70
   0   4   6  119.59    7.40
   0   4  -6  130.39    7.80
  -1  -4  -6  361.36   21.10
  -1  -4  -6  376.06   18.50
  -1  -4  -6  412.36   17.80
   1  -4   6  395.06   17.90
   1   4   6  349.07   21.50
   2  -4   6  156.38    6.40
  -2  -4  -6  153.28    8.00
   2  -4   6  155.98    8.20
  -2  -4  -6  152.28    7.50
  -2  -4  -6  133.49    8.90
  -3  -4  -6    3.30    0.80
   3  -4   6    4.60    0.80
  -3  -4  -6    4.20    1.40
  -3   4  -6    3.60    0.80
  -4  -4  -6   -0.70    1.10
  -4  -4  -6   -0.60    0.30
  -4   4  -6   -0.20    0.40
  -5  -4  -6   81.39    5.50
  -5  -4  -6   85.29    4.50
  -5   4  -6   84.79    4.70
   5   4   6   85.39    4.90
  -6  -4  -6  345.67   19.50
  -6  -4  -6  339.27   17.10
   6   4   6  350.86   18.50
  -7  -4  -6  324.77   16.30
  -7  -4  -6  341.57   18.60
   7   4   6  322.57   17.90
  -8  -4  -6   89.99    6.20
  -8  -4  -6  102.79    5.30
   8   4   6  106.39    6.30
  -9  -4  -6   21.50    2.20
  -9  -4  -6   18.60    1.60
   9   4   6   21.50    2.80
 -10  -4  -6    1.70    0.50
 -10  -4  -6    2.80    1.00
  10   4   6    2.30    1.50
 -11  -4  -6    1.00    0.40
 -11  -4  -6    0.90    0.90
  11   4   6   -0.10    1.40
 -12  -4  -6   -0.80    0.80
 -12  -4  -6   -0.20    0.40
  12   4   6    0.10    1.30
 -13  -4  -6   -0.40    0.70
 -13  -4  -6    0.20    0.40
  13   4   6    0.90    1.00
 -14  -4  -6    0.20    0.70
  14   4   6   -0.30    0.80
  15   4   6   -0.70    0.70
  20   5  -6   -0.40    0.80
  19   5  -6   -0.20    0.90
  18   5  -6    0.00    1.10
 -17  -5   6   -0.30    0.30
  17   5  -6   -0.20    1.10
 -16  -5   6    4.90    1.00
  16   5  -6    2.20    1.00
 -15  -5   6    0.80    0.40
  15   5  -6    0.40    0.80
 -14  -5   6   12.30    1.20
 -13  -5   6   28.10    1.90
  12  -5  -6   49.30    5.00
 -12  -5   6   49.70    2.80
 -12   5   6   48.90    3.00
 -11  -5   6   90.19    4.60
  11  -5  -6   90.49    6.30
 -11   5   6   84.39    4.90
 -10  -5   6   45.10    2.40
  10  -5  -6   44.00    4.20
 -10   5   6   39.90    2.60
   9  -5  -6    1.00    1.10
   9  -5  -6    0.20    1.60
  -9  -5   6    0.20    0.30
  -9   5   6    0.50    0.40
   8  -5  -6   23.30    2.40
   8  -5  -6   22.80    2.80
  -8  -5   6   21.90    1.40
  -8   5   6   21.00    1.50
   7  -5  -6   52.19    3.90
  -7  -5   6   55.49    3.00
   7  -5  -6   56.89    4.30
  -7  -5   6   54.79    3.30
  -7   5   6   59.59    3.20
  -6  -5   6   75.79    4.10
  -6  -5   6   74.39    3.90
   6  -5  -6   73.99    4.90
   6  -5  -6   76.89    5.10
  -5  -5   6   12.70    1.00
   5  -5  -6   12.60    1.90
  -5  -5   6   11.60    1.50
   4  -5  -6  120.59    7.10
  -4  -5   6  115.89    6.00
  -4  -5   6  114.29    5.90
   3  -5  -6   62.69    3.90
  -3  -5   6   62.29    3.80
   3  -5  -6   70.39    4.30
  -3  -5   6   63.19    3.30
   3   5  -6   55.49    5.60
   2  -5  -6  116.19    7.00
   2  -5  -6  111.69    6.10
  -2  -5   6  117.29    6.10
   1  -5  -6   12.40    1.80
   1  -5  -6    9.90    2.00
  -1  -5   6   13.20    1.80
   0  -5   6   66.89    4.40
   0  -5  -6   70.49    4.20
   0  -5  -6   65.09    3.50
   0  -5  -6   64.89    4.60
  -1  -5  -6   50.09    2.70
   1  -5   6   50.39    3.80
  -1  -5  -6   50.69    3.50
  -1  -5  -6   45.80    3.80
  -1   5  -6   52.99    3.10
  -2  -5  -6   17.60    2.50
  -2  -5  -6   18.80    1.40
  -2  -5  -6   17.10    2.20
   2  -5   6   16.40    2.40
  -2   5  -6   20.90    1.50
  -3  -5  -6   -0.30    1.20
  -3  -5  -6    0.30    0.90
  -3  -5  -6   -0.40    0.30
  -3   5  -6    0.00    0.50
   4  -5   6   43.80    2.90
  -4  -5  -6   40.40    2.50
  -4  -5  -6   37.60    3.50
  -4   5  -6   42.80    2.50
  -5  -5  -6   83.69    5.60
  -5  -5  -6   88.09    4.60
  -5   5  -6   87.29    4.80
   5   5   6   80.89    4.80
  -6  -5  -6   54.69    3.10
  -6  -5  -6   54.39    4.00
  -6   5  -6   52.99    3.20
   6   5   6   50.49    3.40
  -7  -5  -6   29.10    2.70
  -7  -5  -6   28.30    2.00
   7   5   6   30.30    2.60
  -8  -5  -6   13.20    2.00
  -8  -5  -6   12.00    1.30
   8   5   6   12.90    2.20
  -9  -5  -6    1.20    1.00
  -9  -5  -6    0.40    0.40
   9   5   6    1.40    1.30
 -10  -5  -6    5.50    1.60
 -10  -5  -6    4.40    1.00
  10   5   6    2.50    1.50
 -11  -5  -6   -0.10    0.40
 -11  -5  -6   -0.40    0.80
  11   5   6   -1.10    1.30
 -12  -5  -6    0.00    0.80
 -12  -5  -6   -0.20    0.40
  12   5   6    0.50    1.40
 -13  -5  -6    0.80    0.40
 -13  -5  -6    1.50    0.70
  13   5   6    0.20    1.00
 -14  -5  -6   -0.10    0.30
  14   5   6    0.50    0.80
  19   6  -6   -0.10    0.80
 -18  -6   6    0.00    0.30
  18   6  -6    0.10    1.10
 -17  -6   6    6.80    1.00
  17   6  -6    1.20    1.20
 -16  -6   6    8.10    1.20
 -15  -6   6   11.70    1.30
  14   6  -6    8.70    1.40
 -13  -6   6   16.20    1.40
  12  -6  -6    3.20    2.40
  11  -6  -6    6.30    2.30
 -11  -6   6    7.00    1.00
 -11   6   6    6.50    1.00
  10  -6  -6    7.50    2.50
 -10  -6   6    8.60    1.10
  10  -6  -6    9.20    2.10
 -10   6   6    8.50    1.00
  -9  -6   6    2.20    0.40
   9  -6  -6    2.10    1.10
   9  -6  -6    3.50    2.20
  -9   6   6    3.20    0.80
   8  -6  -6    7.30    2.40
   8  -6  -6    5.90    1.80
  -8   6   6    7.30    0.90
   7  -6  -6    7.40    2.10
   7  -6  -6   11.70    2.80
  -7  -6   6    7.80    0.90
   7  -6  -6    9.80    1.80
  -7   6   6   11.40    0.90
   6  -6  -6   25.10    3.00
   6  -6  -6   19.90    2.20
  -6  -6   6   23.30    1.80
  -6  -6   6   20.60    1.40
  -6   6   6   23.20    1.40
  -5  -6   6   39.80    2.30
  -5  -6   6   43.20    2.70
   5  -6  -6   41.20    3.20
   5  -6  -6   42.50    3.80
  -5   6   6   42.20    2.40
   4  -6  -6   17.20    2.10
  -4  -6   6   14.80    1.70
  -4  -6   6   17.70    1.20
   3  -6  -6  104.49    6.40
  -3  -6   6  105.99    5.60
  -3  -6   6  102.59    5.30
   2  -6  -6   16.10    2.00
  -2  -6   6   17.50    1.90
   2  -6  -6   14.40    1.80
   1  -6  -6   34.00    2.80
   1  -6  -6   38.30    3.10
   1  -6  -6   40.70    2.20
  -1  -6   6   42.90    3.20
   0  -6  -6   22.70    2.50
   0  -6   6   19.50    2.40
   0  -6  -6   23.30    1.50
   0  -6  -6   20.00    2.10
   0   6  -6   22.50    2.00
  -1  -6  -6    8.40    2.10
  -1  -6  -6    8.90    0.90
   1  -6   6    8.30    2.00
  -1  -6  -6   10.30    1.70
  -1   6  -6    7.80    1.40
  -2  -6  -6    4.40    0.90
   2  -6   6    3.50    1.40
  -2  -6  -6    3.20    1.40
  -2  -6  -6    4.80    1.20
  -2   6  -6    4.60    0.80
  -3  -6  -6    0.70    1.30
   3  -6   6    2.20    0.80
  -3  -6  -6    1.80    0.40
  -3  -6  -6    2.80    1.20
  -3   6  -6    1.50    0.60
  -4  -6  -6    6.60    1.60
   4  -6   6    7.30    1.50
  -4  -6  -6    8.80    1.00
  -4   6  -6    5.60    1.10
  -5  -6  -6    5.40    1.00
   5  -6   6    5.80    1.50
  -5  -6  -6    6.50    2.00
  -5   6  -6    5.90    1.00
  -6  -6  -6    0.40    1.10
  -6  -6  -6    0.40    0.40
   6   6   6    0.00    0.60
  -6   6  -6    0.20    0.50
  -7  -6  -6   17.60    2.20
  -7  -6  -6   18.20    1.50
   7   6   6   16.00    2.00
  -7   6  -6   16.80    1.50
  -8  -6  -6   21.80    2.30
  -8  -6  -6   25.00    1.80
   8   6   6   21.40    2.50
  -9  -6  -6   12.50    1.80
  -9  -6  -6   12.90    1.40
   9   6   6   11.80    2.40
 -10  -6  -6    7.40    1.20
 -10  -6  -6   10.10    1.80
  10   6   6    4.90    1.60
 -11  -6  -6    5.40    1.40
 -11  -6  -6    6.80    1.20
  11   6   6    3.70    1.60
 -12  -6  -6    0.80    0.70
 -12  -6  -6    0.00    0.40
  12   6   6    0.10    1.30
 -13  -6  -6   -0.20    0.60
 -13  -6  -6   -0.10    0.30
  13   6   6   -0.30    0.90
 -18  -7   6   -0.10    0.30
  18   7  -6    0.10    0.90
 -17  -7   6    1.30    0.40
  17   7  -6    1.00    1.20
 -16  -7   6   13.60    1.40
 -15  -7   6   29.70    2.10
  14   7  -6    8.80    1.50
 -13  -7   6   10.60    1.30
 -13   7   6    8.80    1.20
 -12  -7   6   18.70    1.50
 -12   7   6   15.40    1.50
  11  -7  -6    9.60    3.10
 -11  -7   6    9.60    1.20
 -11   7   6    9.00    1.10
  10  -7  -6    1.10    2.00
  10  -7  -6    1.20    1.20
 -10  -7   6    0.90    0.40
 -10   7   6    0.70    0.50
   9  -7  -6   11.70    2.20
  -9  -7   6   10.50    1.20
   9  -7  -6    8.50    2.80
  -9   7   6   11.90    1.20
   8  -7  -6    9.20    2.80
  -8  -7   6    6.70    1.00
   8  -7  -6   10.60    2.00
  -8   7   6    8.90    1.00
   7  -7  -6   29.60    4.00
   7  -7  -6   30.50    4.20
   7  -7  -6   29.10    2.80
  -7  -7   6   27.10    1.90
  -7   7   6   29.30    1.80
   6  -7  -6   73.49    5.10
  -6  -7   6   72.19    4.00
   6  -7  -6   78.49    6.40
   6  -7  -6   80.39    5.90
  -6   7   6   74.59    4.10
   5  -7  -6   63.19    5.20
  -5  -7   6   67.09    3.50
   5  -7  -6   71.99    5.80
   5  -7  -6   61.89    4.60
  -5  -7   6   61.89    3.50
  -5   7   6   66.09    3.60
   4  -7  -6   58.19    4.90
   4  -7  -6   59.29    4.20
  -4  -7   6   59.39    3.20
  -4  -7   6   56.49    3.40
  -4   7   6   58.39    3.20
   3  -7  -6   34.90    3.70
  -3  -7   6   35.10    2.00
   3  -7  -6   30.90    2.90
  -3  -7   6   33.20    2.50
   2  -7  -6   50.89    3.90
   2  -7  -6   55.19    3.70
   2  -7  -6   65.59    4.80
  -2  -7   6   52.39    3.60
   1  -7  -6   55.89    3.80
  -1  -7   6   58.79    4.00
   1  -7  -6   58.99    4.20
   1   7  -6   59.59    3.80
   0  -7   6   67.09    4.60
   0  -7  -6   60.79    4.60
   0  -7  -6   62.69    4.10
   0  -7  -6   73.19    3.60
   0   7  -6   67.29    4.10
  -1  -7  -6   22.30    2.80
   1  -7   6   23.10    2.90
  -1  -7  -6   21.10    2.30
  -1  -7  -6   28.10    1.70
  -1   7  -6   24.70    2.00
   2  -7   6    8.00    1.40
   2  -7   6    7.00    1.80
  -2  -7  -6    5.00    1.60
  -2  -7  -6    8.80    1.00
  -2   7  -6    5.40    1.20
  -3  -7  -6    9.90    1.10
  -3  -7  -6    6.10    1.70
   3  -7   6   11.40    1.70
  -3   7  -6    8.20    1.20
  -4  -7  -6    0.60    0.40
   4  -7   6    0.80    0.90
  -4  -7  -6    0.20    1.30
  -4   7  -6    0.30    0.60
  -5  -7  -6    7.90    2.00
   5  -7   6    8.10    1.80
  -5  -7  -6    8.80    1.10
  -5   7  -6    9.50    1.10
  -6  -7  -6   16.60    2.20
  -6  -7  -6   18.40    1.50
  -6   7  -6   17.40    1.50
  -7  -7  -6   11.40    1.30
  -7  -7  -6    9.30    1.80
   7   7   6    9.50    1.70
  -7   7  -6   12.20    1.30
  -8  -7  -6   21.30    1.80
  -8  -7  -6   21.50    2.30
   8   7   6   20.60    2.40
  -9  -7  -6   31.20    2.60
  -9  -7  -6   28.00    2.10
   9   7   6   24.40    2.90
 -10  -7  -6   13.10    1.80
 -10  -7  -6   14.90    1.50
  10   7   6   11.20    2.60
 -11  -7  -6    4.50    1.20
 -11  -7  -6    1.10    0.50
  11   7   6    1.90    1.40
 -12  -7  -6    0.00    0.60
 -12  -7  -6    0.10    0.40
  12   7   6    0.90    1.20
 -17  -8   6    0.10    0.30
  17   8  -6    0.10    0.90
 -16  -8   6    5.30    1.00
  16   8  -6    2.40    1.10
 -15  -8   6    1.50    0.50
  15   8  -6    1.60    1.00
 -14  -8   6    1.70    0.50
 -13  -8   6    0.80    0.50
 -13   8   6    0.80    0.60
 -12  -8   6    0.50    0.40
 -12   8   6    0.50    0.50
 -11  -8   6    0.20    0.40
  11  -8  -6   -0.30    1.30
 -11   8   6    0.40    0.50
  10  -8  -6   -1.80    2.30
 -10  -8   6    1.70    0.50
  10  -8  -6    1.60    1.40
 -10   8   6    1.30    0.50
  -9  -8   6    3.60    0.90
   9  -8  -6    3.70    2.50
   9  -8  -6    2.00    1.50
  -9   8   6    3.20    0.90
  -8  -8   6    4.10    0.80
   8  -8  -6    3.10    1.40
   8  -8  -6    1.60    2.30
  -8   8   6    3.70    0.90
   7  -8  -6    9.50    2.80
  -7  -8   6    7.10    1.00
   7  -8  -6    6.70    2.20
  -7   8   6    7.00    0.90
   6  -8  -6    3.70    2.30
  -6  -8   6    2.60    0.80
   6  -8  -6    0.90    1.20
  -6   8   6    1.70    0.50
   5  -8  -6   16.30    2.50
   5  -8  -6   17.20    3.40
  -5  -8   6   18.50    1.40
  -5   8   6   16.80    1.30
  -4  -8   6   32.70    2.00
   4  -8  -6   30.50    3.10
   4  -8  -6   30.60    3.90
  -4   8   6   33.00    2.00
   3  -8  -6   35.50    3.20
   3  -8  -6   36.00    4.00
   2  -8  -6   26.40    2.80
   2  -8  -6   31.50    3.60
   1  -8  -6   16.30    3.00
   1  -8  -6   15.60    2.40
   1   8  -6   13.70    1.90
   0  -8  -6    1.30    0.40
   0  -8  -6    1.40    1.30
   0  -8  -6    1.40    1.80
   0   8  -6    1.70    0.80
  -1  -8  -6    4.30    1.50
  -1  -8  -6    7.90    1.00
  -1  -8  -6    5.30    2.10
   1  -8   6    8.80    1.30
  -1   8  -6    7.90    1.20
  -2  -8  -6    1.90    0.50
   2  -8   6    5.50    1.30
  -2  -8  -6    1.70    1.40
  -2   8  -6    4.60    1.10
  -3  -8  -6    1.70    0.50
  -3  -8  -6    2.40    1.40
   3  -8   6    2.80    1.00
  -3   8  -6    2.60    0.70
  -4  -8  -6    2.70    1.40
  -4  -8  -6    0.90    0.40
   4  -8   6    2.20    1.00
  -4   8  -6    1.70    0.60
   5  -8   6   -0.30    1.00
  -5  -8  -6   -0.20    1.00
  -5  -8  -6    0.30    0.40
  -5   8  -6    0.30    0.60
   6  -8   6    0.30    1.10
  -6  -8  -6    0.60    1.00
  -6  -8  -6    0.50    0.40
  -6   8  -6    1.00    0.60
  -7  -8  -6    0.30    0.40
  -7  -8  -6    1.40    1.00
   7   8   6    1.30    0.80
  -7   8  -6    1.20    0.60
  -8  -8  -6    2.10    0.90
  -8  -8  -6    1.70    0.50
   8   8   6    2.80    1.10
  -9  -8  -6    2.00    0.50
  -9  -8  -6    2.50    0.90
   9   8   6    1.80    1.20
 -10  -8  -6    4.50    1.10
  10   8   6    2.30    1.30
 -11  -8  -6   -0.10    0.50
 -11  -8  -6    0.10    0.40
  11   8   6   -1.00    1.00
 -16  -9   6    0.20    0.30
  16   9  -6   -0.10    0.80
 -15  -9   6    0.00    0.40
  15   9  -6   -1.60    0.80
 -14  -9   6    3.90    1.00
 -13  -9   6    8.50    1.20
 -13   9   6    7.80    1.20
 -12  -9   6    4.40    1.00
 -12   9   6    4.20    1.00
 -11  -9   6    0.50    0.40
  11  -9  -6    1.50    1.50
 -11   9   6    0.30    0.50
  10  -9  -6   -0.80    1.30
 -10  -9   6    0.00    0.40
 -10   9   6   -0.20    0.50
  -9  -9   6    0.00    0.30
   9  -9  -6    0.20    1.40
  -9   9   6    0.00    0.50
  -8  -9   6   16.60    1.40
   8  -9  -6   11.80    2.60
  -8   9   6   15.40    1.40
   7  -9  -6   15.30    2.70
  -7  -9   6   15.60    1.40
   7  -9  -6   14.70    3.80
  -7   9   6   17.30    1.40
   6  -9  -6    0.50    1.30
  -6  -9   6    0.10    0.30
   6  -9  -6    0.60    2.20
  -6   9   6    0.00    0.40
   5  -9  -6    2.40    1.40
  -5  -9   6    1.20    0.40
   5  -9  -6    3.50    2.50
  -5   9   6    3.00    0.70
  -4  -9   6    1.90    0.40
   4  -9  -6    0.90    2.30
   4  -9  -6    2.70    1.40
  -4   9   6    3.10    0.70
   3  -9  -6    5.50    2.80
   3  -9  -6    2.90    1.40
  -3   9   6    5.20    0.70
   2  -9  -6    1.70    1.50
   2  -9  -6    3.00    2.40
   1  -9  -6    2.60    2.40
  -1  -9   6    2.40    0.80
   1  -9  -6    2.30    1.40
   1   9  -6    2.50    0.90
   0  -9   6    0.10    0.70
   0  -9  -6    1.00    1.40
   0   9  -6    0.00    0.60
   1  -9   6   14.70    1.70
  -1  -9  -6   13.00    2.50
  -1   9  -6   15.50    1.50
  -2  -9  -6   15.20    1.40
  -2  -9  -6   13.40    2.50
   2  -9   6   14.70    1.90
  -2   9  -6   15.10    1.50
  -3  -9  -6    0.10    0.40
  -3  -9  -6    0.10    1.30
   3  -9   6    0.50    1.00
  -3   9  -6    1.00    0.60
   4  -9   6   -1.00    0.90
  -4  -9  -6   -0.10    0.40
  -4  -9  -6   -0.20    1.10
  -4   9  -6   -0.40    0.50
  -5  -9  -6    0.00    0.90
  -5  -9  -6   -0.10    0.40
   5  -9   6    0.10    1.00
  -5   9  -6    0.80    0.60
  -6  -9  -6    5.10    1.10
   6  -9   6    2.90    1.40
  -6  -9  -6    4.30    1.40
  -6   9  -6    5.60    1.10
  -7  -9  -6   12.50    1.40
  -7  -9  -6   10.10    1.40
   7   9   6    6.70    1.70
  -7   9  -6   11.60    1.30
  -8  -9  -6    3.70    1.10
   8   9   6    2.70    1.10
  -9  -9  -6    0.60    0.60
  -9  -9  -6   -0.20    0.40
   9   9   6    0.50    1.20
 -10  -9  -6    0.10    0.40
  10   9   6   -0.30    1.10
 -14 -10   6   11.20    1.30
 -13 -10   6   11.60    1.30
 -13  10   6    9.60    1.30
 -12 -10   6   12.00    1.30
 -12  10   6   11.90    1.30
 -11 -10   6   17.80    1.50
  11 -10  -6   14.50    3.00
 -11  10   6   15.60    1.50
 -10 -10   6    1.20    0.50
  10 -10  -6    1.90    1.60
 -10  10   6    4.20    1.10
   9 -10  -6    4.10    1.70
  -9 -10   6    6.40    1.10
  -9  10   6    5.50    1.10
   8 -10  -6    2.40    1.60
  -8 -10   6    1.10    0.40
  -8  10   6    1.30    0.60
   7 -10  -6    2.20    1.60
  -7 -10   6    2.10    0.50
  -7  10   6    3.80    0.90
   6 -10  -6    8.20    2.50
  -6 -10   6    9.20    1.20
  -6  10   6   11.10    1.20
   5 -10  -6    2.00    1.50
  -5  10   6    2.20    0.60
  -4 -10   6   -0.10    0.60
   4 -10  -6   -0.80    1.30
  -4  10   6   -0.20    0.40
   3 -10  -6    2.70    1.70
  -3 -10   6    0.90    0.70
  -3  10   6    1.50    0.50
  -2 -10   6   -0.60    0.70
   2 -10  -6    0.00    1.40
   2  10  -6   -1.80    0.80
  -1 -10   6    2.00    0.90
   1 -10  -6    1.60    1.50
   1  10  -6    1.00    0.70
   0 -10  -6    7.30    2.40
   0 -10   6    9.00    1.60
   0  10  -6    7.30    1.30
  -1 -10  -6    3.00    1.50
   1 -10   6    2.80    1.10
  -1  10  -6    2.50    0.80
   2 -10   6    1.90    1.10
  -2 -10  -6    1.30    1.30
  -2  10  -6    1.40    0.70
  -3 -10  -6    7.50    1.20
  -3 -10  -6    6.90    1.80
   3 -10   6    5.30    1.70
  -3  10  -6    6.20    1.20
  -4 -10  -6    4.10    1.10
  -4 -10  -6    2.70    0.90
   4 -10   6    2.80    1.20
  -4  10  -6    3.30    1.10
  -5 -10  -6   17.60    1.60
   5 -10   6   16.40    2.50
  -5 -10  -6   18.90    1.60
  -5  10  -6   19.00    1.70
  -6 -10  -6   12.70    1.30
  -6 -10  -6   14.70    1.40
   6 -10   6    7.40    2.20
  -6  10  -6   11.40    1.40
  -7 -10  -6   13.40    1.40
   7  10   6    9.20    1.80
  -7  10  -6   10.80    1.40
  -8 -10  -6   13.20    1.40
   8  10   6    8.50    1.90
 -11 -11   6    5.30    1.10
 -11  11   6    7.10    1.10
 -10 -11   6    1.60    0.50
  10 -11  -6    0.60    1.50
 -10  11   6    1.60    0.60
   9 -11  -6   -1.80    1.40
  -9 -11   6    0.20    0.40
  -9  11   6    0.00    0.50
  -8 -11   6    5.00    1.00
   8 -11  -6    3.30    1.80
  -8  11   6    5.40    1.00
   7 -11  -6    2.90    1.70
  -7  11   6    5.20    1.00
   6 -11  -6    0.20    1.40
  -6  11   6    0.90    0.50
   5 -11  -6   -0.80    1.50
  -5 -11   6    0.60    0.60
  -5  11   6    0.90    0.50
  -4 -11   6   -0.40    0.60
   4 -11  -6   -0.20    1.50
  -4  11   6    0.10    0.50
   3 -11  -6    1.50    1.60
  -3 -11   6   -0.40    0.70
  -3  11   6    0.60    0.50
  -2 -11   6    0.00    0.70
   2 -11  -6   -0.30    1.50
  -2  11   6    0.20    0.40
   2  11  -6   -0.70    0.60
  -1 -11   6    0.60    0.80
   1 -11  -6    0.80    1.40
   1  11  -6    0.30    0.60
   0 -11  -6    0.90    1.30
   0 -11   6    0.60    0.90
   0  11  -6    0.90    0.70
  -1 -11  -6    4.00    1.30
   1 -11   6    4.80    1.50
  -1  11  -6    7.10    1.10
   2 -11   6    7.00    1.70
  -2  11  -6    6.80    1.10
   3 -11   6    0.30    1.00
  -3  11  -6    0.50    0.50
   4 -11   6    1.60    1.20
  -4  11  -6    2.10    0.70
  -5 -11  -6    8.40    1.20
   5 -11   6    4.80    1.70
  -5  11  -6    7.60    1.10
  -8  12   6   -0.40    0.50
  -7  12   6    0.00    0.50
   6 -12  -6    0.40    1.50
  -6  12   6   -0.30    0.50
   5 -12  -6   -0.10    1.40
  -5  12   6    1.40    0.50
   4 -12  -6   -0.60    1.40
  -4  12   6    0.20    0.50
  -3 -12   6    0.90    0.70
   3 -12  -6    1.10    1.40
   3  12  -6    1.80    0.60
  -3  12   6    1.20    0.50
   2 -12  -6   -0.30    1.20
  -2 -12   6   -0.30    0.70
  -2  12   6    0.40    0.40
   2  12  -6   -0.10    0.50
  -1 -12   6    0.80    0.80
   1 -12  -6    0.40    1.10
   1  12  -6    0.70    0.50
  -1  12   6    0.30    0.40
   0 -12   6    0.00    0.80
   0  12  -6    0.10    0.50
   1 -12   6    0.30    0.90
  -1  12  -6    0.50    0.50
  -2  12  -6    0.20    0.50
  16   0  -7   26.00    2.60
  15   0  -7   53.39    3.70
  14   0  -7  148.49    8.50
  13   0  -7   81.49    5.00
  12   0  -7    7.60    1.50
  -9   0   7   67.49    5.70
   8   0  -7   40.10    3.80
  -8   0   7   32.60    2.90
  -8   0   7   26.70    3.80
  -8   0   7   33.20    3.70
   8   0  -7   33.20    2.90
   7   0  -7   25.20    2.40
  -7   0   7   25.90    2.40
   7   0  -7   35.10    3.60
  -7   0   7   26.40    3.00
  -7   0   7   22.50    3.60
  -6   0   7  219.28   10.20
  -6   0   7  211.68   12.70
   6   0  -7  221.08   13.50
  -6   0   7  178.18   13.50
   6   0  -7  208.08   12.30
   5   0  -7   29.50    3.70
  -5   0   7   28.50    2.60
  -5   0   7   24.20    4.00
   5   0  -7   31.50    2.40
  -5   0   7   27.50    2.70
   4   0  -7  101.09    7.90
  -4   0   7   84.69    8.10
  -4   0   7  113.29    6.80
   4   0  -7  108.19    5.80
  -4   0   7  114.39    5.80
   4   0  -7  110.79    6.70
   3   0  -7  107.99    5.90
   3   0  -7  118.29    8.10
  -3   0   7   91.99    8.30
  -3   0   7  107.39    6.70
   2   0  -7   31.40    2.40
   2   0  -7   28.40    3.80
   2   0  -7   25.50    2.50
  -2   0   7   30.30    2.40
  -2   0   7   28.90    2.40
   1   0  -7  206.88   10.10
   1   0  -7  210.18   13.30
   1   0  -7  209.68   11.80
  -1   0   7  209.88   11.80
  -1   0   7  182.58    9.70
  -1   0   7  175.88   13.80
   0   0  -7   27.00    3.60
   0   0   7   20.70    2.10
   0   0   7   22.00    4.30
   0   0   7   23.70    2.10
   0   0  -7   22.40    2.00
  -1   0  -7   35.60    4.00
   1   0   7   29.70    4.90
   1   0   7   27.70    2.50
  -1   0  -7   29.70    2.40
  -2   0  -7   89.79    6.90
  -2   0  -7   80.19    5.50
  -3   0  -7    1.80    0.90
   5   0   7   15.50    1.40
  -5   0  -7   18.80    1.30
   5   0   7   15.70    2.40
   6   0   7  143.29    9.50
   6   0   7  170.98    6.90
  -6   0  -7  177.08    8.30
  -7   0  -7  321.87   15.90
  -8   0  -7  120.89    6.20
  -9   0  -7   55.79    3.10
  18   1  -7    9.20    2.10
  17   1  -7    8.30    1.90
  16   1  -7   30.30    2.70
  15   1  -7   22.30    2.20
  14   1  -7    3.00    0.90
  13   1  -7   18.90    1.90
  12   1  -7   23.80    2.00
  11   1  -7    0.10    0.70
  10  -1  -7   42.70    3.00
   9  -1  -7    0.90    0.90
   9   1  -7    1.30    0.90
  -9   1   7    2.20    1.50
  -8  -1   7    0.60    0.80
   8  -1  -7    1.10    1.00
   8   1  -7    1.90    0.90
  -8   1   7   -0.20    1.00
  -8   1   7    0.60    1.10
   7  -1  -7   25.30    2.90
  -7  -1   7   22.20    2.20
   7  -1  -7   24.50    2.10
   7   1  -7   27.60    3.70
  -7   1   7   24.80    2.40
   7   1  -7   21.50    2.20
  -7   1   7   16.10    3.10
  -7   1   7   22.10    2.80
   6  -1  -7   61.09    4.60
   6  -1  -7   54.99    3.70
   6  -1  -7   52.09    3.50
  -6  -1   7   56.39    3.50
  -6  -1   7   44.30    3.80
  -6   1   7   55.59    4.20
   6   1  -7   57.49    5.40
   6   1  -7   52.19    3.80
  -6   1   7   55.79    3.60
  -5  -1   7  100.39    5.30
  -5  -1   7   81.99    6.80
  -5  -1   7  100.19    6.30
   5  -1  -7  101.49    6.20
   5  -1  -7  100.49    6.90
   5  -1  -7  106.69    5.60
   5   1  -7  104.79    8.00
  -5   1   7   84.89    7.50
   5   1  -7   97.39    6.20
  -5   1   7  102.29    6.50
  -5   1   7  105.29    5.50
  -4  -1   7   20.10    3.30
   4  -1  -7   20.10    2.10
  -4  -1   7   22.30    2.10
   4  -1  -7   22.70    2.60
  -4  -1   7   23.60    2.10
   4  -1  -7   22.90    2.00
   4   1  -7   26.50    4.20
  -4   1   7   20.90    2.10
   4   1  -7   21.10    1.90
  -4   1   7   23.80    2.20
  -4   1   7   23.10    3.60
   3  -1  -7   28.10    2.40
  -3  -1   7   20.90    2.00
  -3  -1   7   21.60    2.10
   3  -1  -7   22.90    1.90
  -3  -1   7   19.70    3.50
  -3   1   7   25.40    2.10
  -3   1   7   15.30    3.40
   3   1  -7   18.60    4.00
   3   1  -7   23.60    2.10
  -3   1   7   25.50    2.20
   2  -1  -7  108.69    6.90
   2  -1  -7  100.29    5.70
   2  -1  -7  107.79    6.20
  -2  -1   7   84.89    7.80
  -2  -1   7  101.59    6.30
   2   1  -7   98.69    6.40
  -2   1   7   88.19    8.00
   2   1  -7  107.39    8.50
  -2   1   7  108.29    6.40
  -2   1   7  105.99    5.50
   1  -1  -7   48.00    3.30
  -1  -1   7   43.40    5.30
   1  -1  -7   53.79    4.00
  -1  -1   7   48.60    3.30
  -1  -1   7   49.50    3.50
  -1   1   7   53.59    3.60
  -1   1   7   51.89    5.70
  -1   1   7   52.09    3.30
   1   1  -7   52.79    3.60
   1   1  -7   50.89    5.70
   0  -1   7   12.60    3.60
   0  -1  -7   25.50    2.30
   0  -1  -7   23.80    2.50
   0  -1   7   19.70    1.90
   0  -1   7   19.80    2.10
   0  -1  -7   21.50    1.70
   0   1   7   23.90    2.10
   0   1   7   20.00    4.00
   0   1  -7   21.00    4.30
   0   1  -7   18.60    1.90
   1  -1   7    1.00    0.60
   1  -1   7    0.60    1.50
   1   1   7    0.60    1.90
  -1   1  -7    0.30    1.90
  -1   1  -7   -0.20    0.50
   2  -1   7    1.20    0.70
  -2   1  -7    2.20    2.10
  -3  -1  -7   40.50    3.20
  -3   1  -7   37.60    5.30
  -4  -1  -7    0.90    1.10
  -4  -1  -7    0.40    0.30
  -5  -1  -7   58.59    4.10
   5  -1   7   58.69    2.90
  -5  -1  -7   57.89    3.20
   5   1   7   63.39    4.20
  -6  -1  -7   57.59    3.60
   6  -1   7   46.60    2.50
  -6  -1  -7   44.10    2.60
   6   1   7   50.29    3.80
  -6   1  -7   41.80    2.60
  -7  -1  -7    8.40    1.00
   7  -1   7   10.10    1.50
  -7   1  -7    8.40    1.00
   7   1   7    8.50    2.30
  -8  -1  -7   53.49    2.90
   8   1   7   43.80    3.90
  -9  -1  -7   73.19    4.00
 -10  -1  -7   17.50    1.50
  20   2  -7    0.30    1.00
  19   2  -7    1.10    1.00
  18   2  -7    0.50    1.00
  17   2  -7    4.50    1.20
  16   2  -7   -0.70    0.80
  15   2  -7    0.90    0.90
  14   2  -7    4.30    1.10
 -12  -2   7   82.99    4.30
  11  -2  -7    8.20    2.00
 -11  -2   7    9.10    0.80
  11   2  -7    4.20    1.40
  10  -2  -7  205.88   10.10
  10   2  -7  177.18   12.20
   9  -2  -7  119.99    7.80
   9  -2  -7  122.99    6.50
   9   2  -7  106.89    7.70
   8  -2  -7   64.79    4.30
   8  -2  -7   63.09    4.60
  -8  -2   7   63.39    4.00
  -8   2   7   59.09    5.20
   8   2  -7   62.19    4.70
  -7  -2   7   33.50    2.60
   7  -2  -7   30.70    2.50
   7  -2  -7   36.30    2.90
   7   2  -7   28.90    4.20
  -7   2   7   30.60    3.20
  -7   2   7   25.10    3.50
   7   2  -7   30.80    2.70
  -6  -2   7    7.60    1.50
   6  -2  -7    7.70    1.10
   6  -2  -7    9.00    1.50
   6   2  -7    6.40    2.20
  -6   2   7    5.70    1.60
   6   2  -7    8.90    1.40
  -6   2   7    4.80    1.60
   5  -2  -7   17.90    1.70
  -5  -2   7   15.40    1.80
   5  -2  -7   15.30    1.40
  -5   2   7   13.00    2.70
  -5   2   7   14.50    1.90
   5   2  -7   13.80    3.50
   5   2  -7   12.80    1.60
  -5   2   7   16.70    2.00
   4  -2  -7   35.40    2.70
   4  -2  -7   33.80    2.30
  -4  -2   7   34.90    2.50
   4  -2  -7   37.00    2.50
  -4   2   7   25.50    3.50
  -4   2   7   29.50    2.50
  -4   2   7   33.70    2.70
   4   2  -7   33.20    2.60
   4   2  -7   33.50    4.90
   3  -2  -7   34.20    2.60
  -3  -2   7   28.50    2.40
  -3   2   7   33.50    2.50
  -3   2   7   29.60    3.70
   3   2  -7   29.70    4.80
   3   2  -7   34.20    2.60
  -2  -2   7   13.30    1.80
   2  -2  -7   14.50    1.90
  -2   2   7   12.70    3.10
   2   2  -7   13.00    4.00
  -2   2   7   15.00    1.60
   2   2  -7   15.90    1.70
  -1  -2   7    8.70    1.60
  -1  -2   7    8.40    1.10
   1  -2  -7    7.50    1.60
  -1   2   7    3.80    1.90
   1   2  -7   12.10    3.90
   1   2  -7    7.00    1.30
  -1   2   7    7.10    1.20
   0  -2  -7   29.70    2.70
   0  -2   7   27.50    2.50
   0  -2  -7   26.10    2.90
   0  -2   7   28.90    2.20
   0  -2   7   29.30    3.40
   0   2  -7   28.10    2.50
   0   2   7   26.30    4.30
   0   2  -7   31.10    5.10
   0   2   7   29.00    2.40
   1  -2   7   57.19    3.80
   1  -2   7   50.59    5.00
   1  -2   7   56.29    3.80
  -1  -2  -7   51.29    4.10
   1   2   7   61.79    6.40
  -2  -2  -7  102.99    6.10
  -2  -2  -7   94.69    4.90
   2   2   7   75.79    8.20
  -3  -2  -7  183.68   10.60
  -3  -2  -7  178.38    9.00
  -4  -2  -7   10.10    2.00
  -4  -2  -7    7.80    0.90
   4  -2   7    6.20    1.30
   4   2   7    8.90    1.70
  -5  -2  -7   77.39    4.30
  -5  -2  -7   89.19    5.40
   5  -2   7   76.39    3.80
   5   2   7   83.29    5.10
  -6  -2  -7   86.49    5.40
  -6  -2  -7   79.09    4.40
   6  -2   7   80.19    3.90
   6   2   7   87.59    5.40
  -7  -2  -7   14.00    2.10
  -7  -2  -7   14.90    1.30
   7   2   7   11.90    2.40
  -8  -2  -7    9.80    1.80
  -8  -2  -7   10.70    1.20
   8   2   7    9.80    2.40
  -9  -2  -7    0.10    0.80
  -9  -2  -7   -0.20    0.40
   9   2   7    0.50    1.30
 -10  -2  -7   15.90    1.40
  10   2   7    9.30    2.50
 -11  -2  -7    1.50    0.50
  11   2   7    0.90    1.00
  12   2   7   -0.30    0.90
  21   3  -7    0.90    1.00
  20   3  -7   -0.90    0.90
  19   3  -7    1.20    1.00
  18   3  -7    0.90    1.00
  17   3  -7   -0.10    0.90
  17   3  -7   -0.10    0.80
  16   3  -7    0.50    1.00
  15   3  -7   17.40    2.10
  14   3  -7   75.59    4.70
  13   3  -7   98.79    5.80
  12  -3  -7  232.98   12.40
 -12  -3   7  227.48   11.40
  11  -3  -7    8.30    2.10
 -11  -3   7    7.90    0.90
 -10  -3   7    0.70    0.30
  10  -3  -7    1.50    1.20
  -9  -3   7  384.36   18.30
   9  -3  -7  396.76   18.60
   9  -3  -7  341.17   21.30
   8  -3  -7  671.23   39.10
  -8  -3   7  710.73   31.30
  -8  -3   7  704.63   33.80
  -7  -3   7  335.77   15.10
   7   3  -7  317.87   19.00
   7   3  -7  315.97   20.60
  -6  -3   7   34.60    2.60
   6   3  -7   34.10    4.70
  -6   3   7   26.60    3.40
   6   3  -7   33.30    2.70
  -5  -3   7    0.20    0.60
   5   3  -7    0.00    1.70
   5   3  -7    0.10    0.50
  -5   3   7   -0.30    1.00
  -4  -3   7   52.69    3.30
   4  -3  -7   51.59    3.40
  -4   3   7   48.80    4.50
  -4   3   7   51.49    3.70
   4   3  -7   50.59    3.50
   4   3  -7   49.10    5.60
  -3  -3   7   52.49    3.30
   3  -3  -7   49.90    3.90
   3  -3  -7   54.89    3.50
   3   3  -7   48.90    5.70
  -3   3   7   46.60    4.50
  -3   3   7   46.90    3.50
   2  -3  -7    0.70    0.80
  -2  -3   7   -0.20    0.70
   2  -3  -7    0.00    1.20
   2   3  -7   -0.60    1.70
  -2   3   7   -0.10    1.10
  -2   3   7    0.60    0.50
   2   3  -7   -0.10    0.60
  -1  -3   7   33.80    2.70
   1  -3  -7   27.00    3.10
   1  -3  -7   36.00    2.80
   1   3  -7   34.40    2.80
  -1   3   7   27.50    3.70
   0  -3  -7  258.47   15.50
   0  -3  -7  292.07   13.40
   0  -3   7  283.47   13.20
   0   3   7  258.27   17.40
  -1  -3  -7  656.03   29.80
  -1  -3  -7  585.64   33.80
   1  -3   7  649.74   28.10
   1   3   7  543.25   36.40
  -2  -3  -7  359.96   20.00
   2  -3   7  361.16   14.20
  -2  -3  -7  343.87   17.40
  -3  -3  -7    1.40    1.30
   3  -3   7    2.20    0.60
   3   3   7    2.30    0.70
   4  -3   7    3.90    0.80
  -4  -3  -7    8.60    1.00
  -4  -3  -7    6.30    2.10
   4   3   7    6.50    1.10
  -5  -3  -7  224.18   11.40
   5  -3   7  216.68    9.50
  -5  -3  -7  233.38   13.20
   5   3   7  237.38   12.50
  -6  -3  -7  238.18   14.20
  -6  -3  -7  248.58   12.30
   6   3   7  254.07   13.70
  -7  -3  -7  225.98   12.90
  -7  -3  -7  221.38   11.20
   7   3   7  221.58   12.60
  -8  -3  -7   44.90    3.40
  -8  -3  -7   45.30    2.70
   8   3   7   39.10    3.70
  -9  -3  -7    0.10    0.80
  -9  -3  -7    0.00    0.40
   9   3   7   -0.30    1.20
 -10  -3  -7    0.20    0.40
 -10  -3  -7    0.10    0.90
  10   3   7    0.30    1.40
 -11  -3  -7    0.90    0.40
 -11  -3  -7    1.30    0.90
  11   3   7    1.10    1.30
 -12  -3  -7    0.80    0.40
  12   3   7    0.20    0.90
  13   3   7   -0.90    0.80
  21   4  -7   -0.20    0.80
  20   4  -7   -0.50    0.90
  19   4  -7   -0.30    0.90
  18   4  -7    0.00    0.90
  17   4  -7   -0.60    1.00
 -16  -4   7   -0.10    0.30
  16   4  -7    0.30    1.10
 -15  -4   7   16.60    1.30
  14   4  -7   51.99    3.50
 -13  -4   7  307.57   15.60
  13  -4  -7  326.77   17.10
 -12  -4   7  156.28    7.90
  12  -4  -7  157.58    9.40
  11  -4  -7  100.19    6.60
 -11  -4   7  105.79    5.20
 -11   4   7   94.19    5.60
 -10  -4   7   24.90    1.60
  10  -4  -7   29.40    3.20
 -10   4   7   28.50    1.90
  -9  -4   7   95.59    5.00
   9  -4  -7  100.19    6.20
   9  -4  -7   93.69    6.40
  -9   4   7   99.29    5.40
   8  -4  -7  352.76   20.90
  -8  -4   7  372.86   18.20
   8  -4  -7  387.46   18.70
  -8  -4   7  372.36   17.20
  -7  -4   7  805.52   35.30
  -7  -4   7  840.32   38.50
   7  -4  -7  727.83   43.50
  -6  -4   7  431.86   19.00
   6  -4  -7  428.36   23.10
  -6  -4   7  423.56   20.20
   6   4  -7  359.46   25.20
   5  -4  -7    3.50    1.20
  -5  -4   7    1.10    0.30
  -5  -4   7    1.20    0.80
   5   4  -7    2.20    1.90
  -5   4   7    1.20    1.10
   4  -4  -7  136.59    7.90
  -4  -4   7  133.79    6.60
  -4  -4   7  128.49    6.80
  -4   4   7  122.79    8.80
   3  -4  -7  129.39    6.90
   3  -4  -7  136.39    7.80
  -3  -4   7  126.99    6.70
  -3   4   7  117.29    8.60
   2  -4  -7    2.60    1.30
   2  -4  -7    1.40    0.80
  -2  -4   7    1.30    0.90
   2   4  -7    2.00    0.80
   1  -4  -7  336.37   21.50
  -1  -4   7  404.76   18.10
   1  -4  -7  408.16   18.10
   1   4  -7  396.06   22.30
   0  -4  -7  775.02   33.20
   0  -4  -7  665.43   40.20
   0  -4  -7  733.93   35.60
   0  -4   7  756.52   33.20
   1  -4   7  328.17   16.10
  -1  -4  -7  328.87   16.30
   1  -4   7  344.67   13.40
  -1  -4  -7  306.77   18.80
  -1   4  -7  350.76   17.70
  -2  -4  -7   85.69    5.90
   2  -4   7   87.89    4.10
  -2  -4  -7   84.89    4.60
  -2   4  -7   93.49    4.90
  -3  -4  -7   22.30    2.90
   3  -4   7   24.10    1.90
  -3  -4  -7   24.80    1.70
  -3   4  -7   26.40    1.80
   3   4   7   28.30    1.80
  -4  -4  -7   96.89    6.40
  -4  -4  -7   95.79    5.10
   4  -4   7   94.29    4.60
   4   4   7   99.09    5.60
  -4   4  -7  103.09    5.40
  -5  -4  -7  157.88    9.50
  -5  -4  -7  157.18    8.00
   5   4   7  155.98    8.80
  -5   4  -7  157.58    8.50
  -6  -4  -7  338.27   18.40
  -6  -4  -7  327.27   16.10
   6   4   7  305.27   17.50
  -7  -4  -7  144.59    7.50
  -7  -4  -7  143.69    8.70
   7   4   7  143.89    8.50
  -8  -4  -7   17.30    2.20
  -8  -4  -7   17.30    1.50
   8   4   7   19.80    2.80
  -9  -4  -7    0.10    0.90
  -9  -4  -7   -0.10    0.40
   9   4   7   -0.50    1.30
 -10  -4  -7   -0.50    1.00
 -10  -4  -7   -0.20    0.40
  10   4   7   -1.40    1.30
 -11  -4  -7   -1.10    0.80
 -11  -4  -7    0.10    0.40
  11   4   7   -0.10    1.40
 -12  -4  -7   -0.50    0.80
 -12  -4  -7   -0.40    0.40
  12   4   7   -0.20    1.00
 -13  -4  -7    0.00    0.70
 -13  -4  -7   -0.50    0.30
  13   4   7    0.40    0.90
  14   4   7    0.40    0.80
  20   5  -7   -0.20    0.80
  19   5  -7    0.20    0.90
  18   5  -7    0.30    0.80
 -17  -5   7    4.30    0.90
  17   5  -7    1.40    1.20
 -16  -5   7    0.80    0.40
  16   5  -7   -0.60    1.00
 -15  -5   7    0.60    0.30
  15   5  -7   -1.20    0.80
 -14  -5   7    0.30    0.30
  14   5  -7    0.20    0.70
 -13  -5   7   27.80    1.80
  13  -5  -7   27.70    4.10
 -12  -5   7   89.89    4.50
  12  -5  -7   89.29    6.50
 -12   5   7   76.09    4.80
  11  -5  -7    7.70    2.40
 -11  -5   7    7.20    0.90
 -11   5   7    7.00    1.00
  10  -5  -7    0.40    1.70
 -10  -5   7    0.50    0.30
 -10   5   7    0.20    0.40
   9  -5  -7   36.40    3.30
   9  -5  -7   30.30    3.40
  -9  -5   7   35.50    2.10
  -9   5   7   34.50    2.20
   8  -5  -7  128.79    7.70
  -8  -5   7  119.69    6.40
   8  -5  -7  116.09    7.50
  -8  -5   7  126.19    6.30
  -8   5   7  121.89    6.70
  -7  -5   7  117.09    6.40
   7  -5  -7  128.29    7.50
   7  -5  -7  121.19    7.70
  -7   5   7  128.59    6.70
  -6  -5   7   51.99    3.40
  -6  -5   7   54.99    2.90
   6  -5  -7   50.19    4.00
  -6   5   7   58.19    3.10
   5  -5  -7    1.40    1.10
  -5  -5   7    0.70    0.30
  -5  -5   7    1.60    0.80
  -4  -5   7   33.40    2.50
  -4  -5   7   30.70    1.80
   4  -5  -7   32.00    2.80
  -3  -5   7   34.10    2.60
   3  -5  -7   33.10    3.00
  -2  -5   7    2.90    1.00
   2  -5  -7    1.30    1.20
   1  -5  -7   49.50    3.90
  -1  -5   7   48.10    2.60
   1  -5  -7   49.80    2.70
  -1  -5   7   52.89    3.70
   1  -5  -7   56.19    3.80
   0  -5   7  105.59    6.40
   0  -5   7  117.29    4.90
   0  -5  -7  114.39    5.70
   0  -5  -7  102.29    7.00
   0   5  -7  114.69    6.30
  -1  -5  -7  119.89    5.80
   1  -5   7  101.89    6.60
   1  -5   7  115.09    5.10
  -1  -5  -7  105.79    7.20
  -1   5  -7  116.79    6.30
  -2  -5  -7   29.60    3.20
  -2  -5  -7   34.00    2.10
  -2   5  -7   35.30    2.20
  -3  -5  -7   -0.30    0.30
  -3  -5  -7    0.20    1.30
   3  -5   7   -0.40    0.70
  -3   5  -7   -0.30    0.50
   3   5   7    0.40    0.40
  -4  -5  -7    7.90    1.80
  -4  -5  -7    6.40    1.10
  -4   5  -7    6.90    1.00
   4   5   7    5.90    1.10
  -5  -5  -7   89.39    6.00
  -5  -5  -7   90.29    4.90
  -5   5  -7   92.69    5.10
   5   5   7   89.89    5.30
  -6  -5  -7   27.80    2.00
  -6  -5  -7   27.60    2.80
   6   5   7   28.00    2.50
  -7  -5  -7    0.70    1.00
  -7  -5  -7    0.20    0.40
   7   5   7    1.00    1.00
  -8  -5  -7    0.00    0.90
  -8  -5  -7   -0.30    0.30
   8   5   7    0.20    1.10
  -9  -5  -7    0.50    0.40
  -9  -5  -7    0.60    0.90
   9   5   7    1.50    1.30
 -10  -5  -7    4.90    1.10
 -10  -5  -7    4.20    1.20
  10   5   7    3.80    1.60
 -11  -5  -7    0.70    0.80
 -11  -5  -7    0.20    0.40
  11   5   7    0.20    1.40
 -12  -5  -7    0.10    0.40
 -12  -5  -7    0.70    0.70
  12   5   7    0.20    1.10
 -13  -5  -7   -0.50    0.30
 -13  -5  -7    0.40    0.70
  13   5   7   -0.30    0.80
  19   6  -7   -0.30    0.80
 -18  -6   7   11.30    1.20
 -17  -6   7   20.00    1.60
 -16  -6   7   55.49    3.20
 -15  -6   7   41.90    2.60
 -14  -6   7   11.30    1.20
  13  -6  -7   21.50    4.00
 -13  -6   7   18.00    1.50
 -12  -6   7    1.60    0.40
  12  -6  -7    2.20    2.30
 -12   6   7    1.60    0.50
 -11  -6   7    4.60    0.90
  11  -6  -7    3.90    2.10
 -11   6   7    4.70    0.90
  10  -6  -7    2.80    2.20
 -10  -6   7    2.90    0.80
  10  -6  -7    3.60    1.50
 -10   6   7    5.40    0.90
   9  -6  -7    6.00    2.30
   9  -6  -7    7.70    2.20
  -9  -6   7    4.70    0.90
  -9   6   7    8.20    0.90
   8  -6  -7    1.50    1.70
   8  -6  -7    4.20    1.40
  -8   6   7    3.20    0.70
   7  -6  -7    1.50    1.20
  -7  -6   7    5.10    1.20
  -7  -6   7    2.60    0.70
   7  -6  -7    2.60    1.80
  -7   6   7    4.10    0.70
   6  -6  -7   10.60    2.10
   6  -6  -7    8.70    2.30
  -6  -6   7    9.00    0.90
  -6  -6   7    7.90    1.40
  -6   6   7   10.20    0.90
  -5  -6   7   37.30    2.10
   5  -6  -7   35.20    3.20
  -5  -6   7   39.00    2.80
  -5   6   7   37.20    2.20
   4  -6  -7   43.20    3.60
  -4  -6   7   46.50    2.50
  -4  -6   7   42.00    3.10
  -4   6   7   46.10    2.60
  -3  -6   7   44.30    3.10
   3  -6  -7   34.80    3.30
  -3   6   7   45.60    2.40
  -2  -6   7   35.90    2.90
   2  -6  -7   33.80    2.10
   2  -6  -7   35.20    3.20
   2   6  -7   36.70    2.80
   1  -6  -7   10.40    1.00
  -1  -6   7    9.30    1.80
   1  -6  -7    9.40    2.20
   1   6  -7    9.60    1.80
   0  -6  -7    3.30    0.80
   0  -6  -7    3.60    1.40
   0  -6   7    4.00    1.30
   0   6  -7    3.20    0.90
   1  -6   7    2.20    1.30
  -1  -6  -7    1.90    1.40
  -1  -6  -7    2.10    0.40
  -1   6  -7    1.50    0.70
  -2  -6  -7    7.90    1.00
  -2  -6  -7    5.10    1.60
  -2   6  -7    4.60    1.10
  -3  -6  -7    3.30    1.50
   3  -6   7    3.30    1.00
  -3  -6  -7    3.40    0.90
  -3   6  -7    3.20    0.70
  -4  -6  -7    4.60    0.90
   4  -6   7    3.40    1.00
  -4  -6  -7    4.90    1.60
   4   6   7    5.00    0.90
  -4   6  -7    3.40    0.70
  -5  -6  -7    3.10    1.30
  -5  -6  -7    1.60    0.50
  -5   6  -7    2.10    0.60
   5   6   7    2.20    0.70
  -6  -6  -7   17.90    2.40
  -6  -6  -7   18.50    1.50
  -6   6  -7   17.20    1.50
   6   6   7   16.60    1.90
  -7  -6  -7   13.10    1.40
  -7  -6  -7   11.50    2.00
   7   6   7   13.60    2.10
  -8  -6  -7   40.80    2.60
  -8  -6  -7   42.30    3.30
   8   6   7   39.90    3.60
  -9  -6  -7   55.59    3.30
  -9  -6  -7   54.19    3.90
   9   6   7   55.79    4.50
 -10  -6  -7   20.40    1.70
  10   6   7   19.20    3.20
 -11  -6  -7   11.30    1.30
  11   6   7    4.80    1.70
 -12  -6  -7   -0.10    0.40
 -12  -6  -7   -0.30    0.60
  12   6   7   -0.80    1.10
 -18  -7   7    1.60    0.40
  18   7  -7    0.50    0.90
 -17  -7   7   31.40    2.10
 -16  -7   7   40.80    2.60
  15   7  -7   18.40    2.10
  14   7  -7   18.60    1.90
 -13  -7   7   10.90    1.20
 -13   7   7    7.80    1.20
 -12  -7   7    9.00    1.10
  12  -7  -7    7.00    3.20
 -12   7   7    5.50    1.10
 -11  -7   7   -0.20    0.30
  11  -7  -7   -0.60    2.00
 -11   7   7    0.10    0.50
  10  -7  -7   12.30    2.60
  10  -7  -7   14.20    3.40
 -10  -7   7   11.80    1.20
 -10   7   7   13.00    1.20
   9  -7  -7    3.60    1.50
   9  -7  -7    2.50    2.40
  -9   7   7    3.00    0.80
   8  -7  -7   10.30    2.30
  -8  -7   7    7.60    1.00
   8  -7  -7    9.90    2.80
  -8   7   7   10.00    1.00
   7  -7  -7    2.40    2.00
   7  -7  -7    3.20    1.30
   7  -7  -7    5.40    2.30
  -7  -7   7    1.90    0.40
  -7   7   7    3.10    0.80
   6  -7  -7   27.90    4.10
  -6  -7   7   27.00    1.80
   6  -7  -7   23.40    2.90
   6  -7  -7   28.40    3.60
  -6   7   7   28.10    1.80
   5  -7  -7   50.09    4.10
   5  -7  -7   51.39    4.70
  -5  -7   7   54.19    3.00
  -5   7   7   54.59    3.10
   4  -7  -7   80.19    6.10
  -4  -7   7   85.49    4.40
   4  -7  -7   78.19    5.60
  -4  -7   7   77.29    4.70
  -4   7   7   86.69    4.50
  -3  -7   7   78.29    4.80
   3  -7  -7   75.69    5.50
  -3   7   7   84.39    4.40
  -2  -7   7   47.10    3.50
   2  -7  -7   47.40    3.90
   2   7  -7   49.40    3.40
  -1  -7   7   28.00    2.80
   1  -7  -7   29.10    1.80
   1  -7  -7   25.30    3.00
   1   7  -7   28.40    2.40
   0  -7  -7    4.20    0.80
   0  -7  -7    3.60    1.50
   0  -7   7    3.30    1.30
   0   7  -7    3.30    0.90
  -1  -7  -7    5.00    1.50
  -1  -7  -7    6.00    1.70
  -1   7  -7    5.80    1.20
   2  -7   7    1.80    0.80
  -2  -7  -7    2.70    1.50
  -2  -7  -7    1.50    0.40
  -2   7  -7    1.10    0.70
  -3  -7  -7   10.80    2.50
   3  -7   7   12.10    1.80
  -3  -7  -7   14.00    1.30
  -3   7  -7   13.10    1.40
   4  -7   7   -0.40    0.80
  -4  -7  -7    0.00    0.40
  -4  -7  -7    0.90    1.40
  -4   7  -7    0.00    0.50
  -5  -7  -7    7.80    2.10
  -5  -7  -7    7.60    1.10
  -5   7  -7    8.40    1.20
   5   7   7    8.90    1.30
  -6  -7  -7   11.90    2.10
  -6  -7  -7   11.00    1.30
  -6   7  -7    9.80    1.30
   6   7   7   11.60    1.70
  -7  -7  -7   49.00    3.00
  -7  -7  -7   47.00    3.60
   7   7   7   48.00    3.50
  -8  -7  -7   47.00    3.60
   8   7   7   50.69    3.90
  -9  -7  -7   38.40    2.60
  -9  -7  -7   37.50    3.00
   9   7   7   40.10    3.70
 -10  -7  -7   31.50    2.20
 -10  -7  -7   30.80    2.50
  10   7   7   30.20    3.50
 -11  -7  -7    1.10    0.40
  11   7   7    2.80    1.40
 -17  -8   7    0.90    0.40
  17   8  -7    0.10    0.80
 -16  -8   7   12.90    1.30
 -15  -8   7   10.30    1.20
  15   8  -7    2.50    1.20
 -14  -8   7    1.10    0.40
  14   8  -7    1.00    0.90
 -13  -8   7    0.70    0.40
 -13   8   7    0.70    0.60
 -12  -8   7    0.00    0.30
 -12   8   7    0.20    0.50
  11  -8  -7   10.00    2.70
 -11  -8   7   13.00    1.20
 -11   8   7   10.80    1.30
  10  -8  -7    2.20    1.50
  10  -8  -7    0.40    2.30
 -10  -8   7    0.70    0.40
 -10   8   7    0.80    0.50
   9  -8  -7    9.70    2.50
   9  -8  -7   12.40    3.50
  -9  -8   7   12.10    1.20
  -9   8   7   10.10    1.10
   8  -8  -7   14.30    3.60
  -8  -8   7   13.10    1.20
   8  -8  -7   14.30    2.60
  -8   8   7   12.10    1.20
  -7  -8   7    0.30    0.30
   7  -8  -7   -0.70    1.90
   7  -8  -7    0.10    1.30
  -7   8   7    0.20    0.40
   6  -8  -7    6.80    1.70
   6  -8  -7    4.80    2.40
  -6  -8   7    7.80    0.90
  -6   8   7    5.90    0.90
   5  -8  -7   14.20    3.40
   5  -8  -7   13.50    2.50
  -5  -8   7   14.60    1.20
  -5   8   7   16.80    1.20
   4  -8  -7   11.00    2.90
   4  -8  -7   12.50    2.40
  -4   8   7   12.60    1.10
   3  -8  -7   11.10    3.00
   3  -8  -7   12.30    2.50
  -3   8   7   12.40    1.00
   2  -8  -7   13.70    2.60
   2  -8  -7   17.20    3.20
   2   8  -7   13.00    2.10
   1  -8  -7    5.90    2.30
   1  -8  -7    4.00    1.60
   1   8  -7    7.20    1.60
   0  -8  -7    1.70    1.80
   0  -8  -7    0.00    1.40
   0  -8  -7    0.00    0.30
   0   8  -7    0.90    0.70
  -1  -8  -7   10.50    2.70
  -1  -8  -7   11.00    1.20
   1  -8   7   12.10    1.60
  -1   8  -7   12.10    1.40
  -2  -8  -7    8.20    2.50
   2  -8   7   10.60    1.60
  -2  -8  -7    9.80    1.20
  -2   8  -7   10.90    1.30
  -3  -8  -7    0.30    0.40
  -3  -8  -7    0.90    1.40
   3  -8   7    1.50    0.90
  -3   8  -7    1.80    0.70
  -4  -8  -7   11.70    1.30
   4  -8   7   13.00    2.00
  -4  -8  -7    9.60    2.30
  -4   8  -7   12.40    1.30
  -5  -8  -7   -0.90    0.40
  -5  -8  -7    0.60    1.10
   5  -8   7   -0.20    1.00
  -5   8  -7    0.50    0.60
   5   8   7   -0.40    0.60
  -6  -8  -7    1.30    1.00
  -6  -8  -7    1.20    0.50
   6   8   7    1.10    0.90
  -6   8  -7    1.30    0.60
  -7  -8  -7    0.60    0.90
  -7  -8  -7    1.30    0.50
   7   8   7    2.60    1.10
  -8  -8  -7   10.50    1.60
  -8  -8  -7    8.40    1.30
   8   8   7    9.80    2.20
  -9  -8  -7    9.60    1.30
  -9  -8  -7   10.50    1.60
   9   8   7   12.30    2.40
 -10  -8  -7    1.30    0.50
 -10  -8  -7    1.60    0.70
  10   8   7    1.50    1.40
 -16  -9   7   -0.40    0.30
  16   9  -7    0.60    0.70
 -15  -9   7    0.60    0.40
  15   9  -7    0.50    0.70
 -14  -9   7    1.40    0.50
 -13  -9   7   10.50    1.20
 -13   9   7    6.80    1.20
 -12  -9   7    0.80    0.40
 -12   9   7    1.00    0.60
 -11  -9   7    1.40    0.40
  11  -9  -7    2.20    1.60
 -11   9   7    2.00    0.60
  10  -9  -7   16.30    3.00
 -10  -9   7   22.80    1.70
 -10   9   7   22.40    1.70
  -9  -9   7    6.70    1.10
   9  -9  -7    4.80    1.80
  -9   9   7    4.70    1.00
   8  -9  -7    6.80    2.00
  -8  -9   7    9.40    1.10
  -8   9   7   10.50    1.10
   7  -9  -7   24.30    3.30
   7  -9  -7   30.30    4.80
  -7  -9   7   31.30    2.00
  -7   9   7   31.80    2.00
   6  -9  -7   18.90    4.00
   6  -9  -7   15.00    2.90
  -6  -9   7   13.70    1.30
  -6   9   7   15.40    1.30
   5  -9  -7    0.50    1.40
   5  -9  -7   -1.20    2.20
  -5   9   7   -0.40    0.40
   4  -9  -7    8.00    2.90
   4  -9  -7    5.40    1.80
  -4   9   7    6.30    0.90
   3  -9  -7    4.40    1.70
   3  -9  -7    3.00    2.40
  -3   9   7    6.60    0.80
   3   9  -7    4.90    1.40
   2  -9  -7    0.00    2.10
   2  -9  -7    0.90    1.50
   2   9  -7    0.10    1.00
  -1  -9   7   16.70    1.70
   1  -9  -7    8.60    2.90
   1  -9  -7   14.00    2.90
   1   9  -7   13.60    1.70
   0  -9   7   31.90    2.50
   0  -9  -7   27.30    3.30
   0   9  -7   30.00    2.20
  -1  -9  -7    7.80    2.50
  -1  -9  -7    9.50    1.20
   1  -9   7    7.20    1.50
  -1   9  -7    9.20    1.40
   2  -9   7    6.00    1.60
  -2  -9  -7    4.20    1.60
  -2  -9  -7    6.00    1.10
  -2   9  -7    5.70    1.20
  -3  -9  -7   23.70    1.80
   3  -9   7   22.20    2.40
  -3  -9  -7   20.30    2.90
  -3   9  -7   24.20    1.80
  -4  -9  -7    1.50    1.10
  -4  -9  -7    1.70    0.50
   4  -9   7    1.50    1.10
  -4   9  -7    4.40    1.10
  -5  -9  -7    1.70    1.00
  -5  -9  -7    0.80    0.50
   5  -9   7    0.20    1.00
   5   9   7    0.90    0.70
  -5   9  -7    1.20    0.60
  -6  -9  -7   11.40    1.30
  -6  -9  -7   12.70    1.70
  -6   9  -7   10.40    1.30
   6   9   7    7.60    1.60
  -7  -9  -7    4.30    1.00
  -7  -9  -7    1.90    0.80
   7   9   7    1.20    1.00
  -8  -9  -7    1.10    0.70
  -8  -9  -7    0.90    0.40
   8   9   7    0.30    1.10
  -9  -9  -7   -0.20    0.30
   9   9   7   -0.20    1.10
 -14 -10   7   20.20    1.60
 -13 -10   7   12.50    1.30
 -13  10   7   10.50    1.40
 -12 -10   7   10.90    1.30
 -12  10   7    7.60    1.20
  11 -10  -7    0.00    1.60
 -11 -10   7    0.00    0.40
 -11  10   7    0.10    0.50
  10 -10  -7    0.80    1.70
 -10 -10   7    0.20    0.40
 -10  10   7    0.20    0.50
   9 -10  -7   17.70    3.30
  -9 -10   7   14.40    1.40
  -9  10   7   16.40    1.50
  -8 -10   7   32.20    2.10
   8 -10  -7   31.60    3.80
  -8  10   7   29.40    2.10
   7 -10  -7    8.80    2.80
  -7  10   7   11.30    1.20
   6 -10  -7    3.20    1.70
  -6  10   7    3.50    0.90
   5 -10  -7    3.50    1.80
  -5  10   7    6.50    0.90
   4 -10  -7    1.40    1.60
  -4  10   7    1.50    0.50
   3 -10  -7    1.40    1.60
  -3 -10   7    1.20    0.70
   3  10  -7    0.60    1.00
  -3  10   7    1.30    0.50
   2 -10  -7    2.60    1.70
  -2 -10   7    5.40    1.30
  -2  10   7    5.40    0.80
   2  10  -7    2.70    0.90
  -1 -10   7    3.20    0.90
   1 -10  -7    1.80    1.60
   1  10  -7    2.10    0.70
   0 -10  -7    8.90    2.60
   0 -10   7   13.30    1.80
   0  10  -7   11.80    1.50
  -1 -10  -7   25.90    3.20
   1 -10   7   32.60    2.80
  -1  10  -7   33.30    2.30
   2 -10   7   14.10    2.20
  -2 -10  -7   15.00    2.60
  -2  10  -7   18.20    1.60
  -3 -10  -7    0.60    0.40
   3 -10   7    0.30    1.00
  -3 -10  -7    1.20    1.10
  -3  10  -7    0.70    0.60
  -4 -10  -7    0.20    0.40
   4 -10   7   -0.40    1.00
  -4 -10  -7    0.80    0.90
  -4  10  -7    0.60    0.60
  -5 -10  -7   11.10    1.30
   5 -10   7   10.00    2.20
  -5 -10  -7   11.00    1.50
   5  10   7    9.00    1.50
  -5  10  -7    9.90    1.30
  -6 -10  -7   14.20    1.40
  -6 -10  -7   12.80    1.40
   6  10   7   10.40    1.80
  -6  10  -7   10.00    1.30
  -7 -10  -7   22.00    1.70
   7  10   7   18.50    2.20
 -11  11   7    5.60    1.10
  10 -11  -7   -0.10    1.60
 -10  11   7    0.30    0.50
   9 -11  -7    3.10    2.00
  -9  11   7    5.00    1.10
   8 -11  -7   10.00    3.10
  -8  11   7    9.80    1.20
   7 -11  -7   13.10    3.30
  -7  11   7   13.80    1.40
  -6 -11   7    4.60    0.90
   6 -11  -7    3.90    1.90
  -6  11   7    5.10    1.00
  -5 -11   7   -0.20    0.60
   5 -11  -7   -0.90    1.60
  -5  11   7   -0.10    0.50
  -4 -11   7    0.00    0.60
   4 -11  -7    0.50    1.60
  -4  11   7    0.60    0.50
   4  11  -7    0.50    0.80
   3 -11  -7   -1.00    1.50
  -3 -11   7    0.20    0.70
   3  11  -7    0.40    0.70
  -3  11   7    0.40    0.50
  -2 -11   7   -0.40    0.80
   2 -11  -7    0.20    1.50
  -2  11   7   -0.10    0.50
   2  11  -7    0.00    0.60
  -1 -11   7    6.50    1.50
   1 -11  -7    1.90    1.50
   1  11  -7    4.90    1.20
  -1  11   7    4.40    0.90
   0 -11  -7   11.20    2.40
   0 -11   7   13.30    1.80
   0  11   7   12.50    1.30
   0  11  -7   13.70    1.40
  -1 -11  -7   12.20    2.40
   1 -11   7   12.20    1.80
  -1  11  -7   13.80    1.40
   2 -11   7    6.40    1.70
  -2 -11  -7    3.70    1.00
  -2  11  -7    6.60    1.10
   3 -11   7   -0.10    1.00
  -3  11  -7    0.50    0.60
  -4  11  -7    7.80    1.20
  -7  12   7    1.90    0.60
  -6  12   7    0.50    0.50
   5 -12  -7    0.30    1.40
   5  12  -7    0.10    0.50
  -5  12   7   -0.40    0.40
   4 -12  -7    2.20    1.50
  -4 -12   7    3.70    1.00
  -4  12   7    3.70    0.90
   4  12  -7    4.20    1.00
  -3 -12   7    3.00    0.80
   3 -12  -7    1.40    1.40
   3  12  -7    4.00    0.90
  -3  12   7    4.30    0.90
  -2 -12   7   -0.10    0.70
   2 -12  -7   -1.50    1.10
   2  12  -7    0.20    0.60
  -2  12   7   -0.30    0.50
  -1 -12   7   -0.70    0.80
  -1  12   7    0.60    0.50
   1  12  -7    0.90    0.50
   0  12  -7    3.50    0.90
   0  12   7    2.20    0.60
  16   0  -8   80.39    5.20
  15   0  -8   58.59    4.00
  14   0  -8   48.40    3.40
  13   0  -8   79.79    4.90
  12   0  -8   43.70    3.10
  -9   0   8    5.60    2.00
  -8   0   8   11.30    2.40
  -8   0   8   13.90    2.00
  -8   0   8    6.20    2.20
  -7   0   8   26.20    3.10
   7   0  -8   34.50    3.90
  -7   0   8   28.40    2.70
  -7   0   8   26.30    4.10
   7   0  -8   31.50    2.60
  -6   0   8    9.50    2.60
  -6   0   8   11.50    1.90
  -6   0   8   12.90    2.10
   6   0  -8   13.00    1.60
   6   0  -8   14.60    3.10
   5   0  -8  252.67   15.30
   5   0  -8  239.58   13.80
  -5   0   8  233.68   14.00
  -5   0   8  249.38   11.40
  -5   0   8  189.68   15.20
  -4   0   8   42.60    5.50
   4   0  -8   59.09    4.10
  -4   0   8   55.49    4.10
  -4   0   8   59.39    3.70
   4   0  -8   59.29    5.40
   3   0  -8  247.48   15.20
  -3   0   8  196.38   15.50
   3   0  -8  239.48   13.70
  -3   0   8  227.88   11.20
  -3   0   8  242.08   13.80
  -2   0   8   15.10    1.90
   2   0  -8   14.20    3.10
  -2   0   8   14.90    1.70
   2   0  -8   12.70    1.60
  -2   0   8    8.80    2.90
   1   0  -8   27.00    2.30
  -1   0   8   31.60    2.50
   1   0  -8   27.80    3.80
  -1   0   8   17.60    3.90
   0   0   8   11.20    1.60
   0   0  -8   10.50    1.50
   0   0  -8   10.90    2.90
  -1   0  -8    9.50    1.50
   4   0   8   96.89    4.30
   5   0   8  140.59    9.30
   5   0   8  173.18    6.80
  -5   0  -8  168.88    8.20
  -6   0  -8  101.29    5.40
   6   0   8  105.19    4.60
  -7   0  -8  113.59    5.90
  -8   0  -8  166.08    8.40
  -9   0  -8   95.59    5.10
  18   1  -8   28.60    2.80
  17   1  -8   22.00    2.40
  16   1  -8   13.20    2.00
  15   1  -8   25.00    2.40
  14   1  -8   22.60    2.20
  12   1  -8    0.70    0.70
  11   1  -8   10.90    1.50
  10  -1  -8   96.49    5.50
  -9  -1   8   23.90    2.50
  -9   1   8   21.50    3.20
   8  -1  -8   28.80    3.30
  -8  -1   8   29.10    2.60
   8   1  -8   26.60    2.60
  -8   1   8   24.50    3.20
   7  -1  -8    0.20    0.50
  -7  -1   8    0.20    0.80
   7  -1  -8   -0.40    0.90
  -7   1   8   -0.50    0.90
  -7   1   8    0.70    1.40
   7   1  -8   -0.10    0.60
  -6  -1   8  143.79    7.20
  -6  -1   8  116.09    8.80
  -6  -1   8  126.09    8.40
   6  -1  -8  138.69    8.40
   6  -1  -8  150.28    9.30
   6   1  -8  151.48   10.40
  -6   1   8  114.19    9.80
   6   1  -8  138.59    8.40
  -6   1   8  145.39    7.50
  -6   1   8  142.09    8.80
   5  -1  -8   18.20    1.90
  -5  -1   8   17.50    2.00
  -5  -1   8   12.10    2.90
   5  -1  -8   18.00    2.60
  -5  -1   8   21.20    2.20
   5   1  -8   18.30    1.80
  -5   1   8   17.30    2.20
  -5   1   8   19.60    2.10
   5   1  -8   17.30    3.60
  -5   1   8   12.50    3.30
  -4  -1   8  121.19    7.50
  -4  -1   8  104.69    8.70
   4  -1  -8  128.49    7.40
  -4  -1   8  119.69    6.40
   4  -1  -8  126.79    8.20
  -4   1   8  101.29    9.10
  -4   1   8  129.39    7.70
  -4   1   8  124.29    6.50
   4   1  -8  115.09    7.50
   4   1  -8  126.49    9.50
   3  -1  -8   20.00    1.80
  -3  -1   8   19.20    3.70
  -3  -1   8   18.60    1.90
  -3  -1   8   16.80    2.00
   3   1  -8   17.90    4.10
  -3   1   8   20.70    2.00
   3   1  -8   20.30    2.00
  -3   1   8   13.40    3.50
   2  -1  -8  138.29    8.10
   2  -1  -8  148.89    8.90
  -2  -1   8  136.79    7.10
  -2  -1   8  138.39    8.30
  -2  -1   8  117.29   10.00
   2   1  -8  135.19    8.40
  -2   1   8  118.29   10.30
  -2   1   8  137.29    8.30
   2   1  -8  140.89   10.70
   1  -1  -8    0.70    0.90
  -1  -1   8   -0.50    1.50
  -1  -1   8    1.20    0.80
  -1  -1   8    0.70    0.60
   1  -1  -8    0.40    0.50
  -1   1   8    1.00    0.70
   1   1  -8    0.40    1.80
  -1   1   8   -0.20    1.50
   0  -1  -8   24.50    2.00
   0  -1   8   24.20    2.20
   0   1  -8   22.90    4.40
  -1  -1  -8   17.70    2.70
   1  -1   8   18.70    1.90
  -1   1  -8   19.80    4.20
  -2  -1  -8   83.89    5.60
  -2   1  -8   89.09    8.20
   3  -1   8   31.50    2.00
  -3  -1  -8   30.60    3.00
   3   1   8   33.40    2.80
  -4  -1  -8    0.10    0.30
   4  -1   8   -1.00    0.60
  -4  -1  -8   -0.50    1.00
   4   1   8    0.40    1.10
   4   1   8   -0.20    0.50
   5  -1   8    7.00    1.30
  -5  -1  -8    6.30    0.90
   5   1   8    8.00    2.20
  -6  -1  -8   54.59    3.10
   6  -1   8   62.99    3.00
   6   1   8   56.19    4.20
  -6   1  -8   51.29    3.10
  -7  -1  -8   56.39    3.10
   7  -1   8   60.19    3.00
  -7   1  -8   51.39    3.00
   7   1   8   49.60    4.20
  -8  -1  -8   32.70    2.00
   8   1   8   20.60    3.00
  -9  -1  -8   49.50    2.90
 -10  -1  -8   67.39    3.80
  20   2  -8    2.10    1.10
  19   2  -8    3.10    1.10
  18   2  -8    3.20    1.10
  17   2  -8    8.60    1.80
  16   2  -8    1.90    0.90
  15   2  -8    4.00    1.00
  14   2  -8   18.30    2.00
  13   2  -8   19.60    1.90
 -12  -2   8   13.20    1.00
 -11  -2   8    7.60    0.80
  11  -2  -8    8.80    1.80
  10  -2  -8  203.38   10.50
 -10  -2   8  197.88    9.90
  -9  -2   8  601.24   26.70
   9   2  -8  562.84   33.60
   8  -2  -8  238.08   13.60
  -8  -2   8  222.08   11.00
   8   2  -8  206.08   13.40
  -7  -2   8   67.79    4.20
   7  -2  -8   62.19    4.40
   7  -2  -8   72.29    4.90
   7   2  -8   63.39    4.60
   6  -2  -8   42.30    3.10
  -6  -2   8   46.00    3.20
  -6   2   8   45.20    3.80
   6   2  -8   45.50    3.40
  -5  -2   8   19.40    2.00
   5  -2  -8   21.20    1.80
  -5   2   8   22.60    2.30
   5   2  -8   22.30    2.00
   5   2  -8   20.40    4.50
   4  -2  -8   10.70    1.10
  -4  -2   8   11.20    1.60
   4   2  -8   11.90    1.50
  -4   2   8   11.80    1.60
   4   2  -8   10.10    3.00
  -4   2   8   12.00    3.10
  -3  -2   8   19.60    2.10
  -3   2   8   19.30    3.60
   3   2  -8   22.00    2.10
  -2  -2   8   43.70    3.10
  -2   2   8   36.80    4.80
   2   2  -8   41.20    3.20
  -1  -2   8   55.99    3.70
   1  -2  -8   49.50    4.20
  -1  -2   8   54.89    4.80
  -1   2   8   56.69    6.10
   0  -2   8  170.58   11.80
   0  -2  -8  174.38   10.50
   0   2   8  190.48   13.50
  -1  -2  -8  611.94   33.90
  -2  -2  -8  182.48    9.50
   2  -2   8  195.88    7.90
  -2  -2  -8  191.18   11.20
  -3  -2  -8    7.10    2.10
   3  -2   8    9.30    1.30
  -3  -2  -8    6.80    1.00
   3   2   8   10.00    1.70
  -4  -2  -8   14.10    2.20
   4  -2   8   10.30    1.40
  -4  -2  -8   12.90    1.10
   4   2   8   11.80    2.00
  -5  -2  -8   44.40    2.60
   5  -2   8   41.30    2.50
  -5  -2  -8   51.89    3.70
   5   2   8   43.20    3.60
  -6  -2  -8   48.00    2.90
   6  -2   8   47.90    2.80
  -6  -2  -8   53.69    3.80
   6   2   8   48.20    3.90
  -7  -2  -8   11.00    1.90
  -7  -2  -8   10.00    1.10
   7   2   8    6.70    1.70
  -8  -2  -8    7.00    1.10
   8   2   8    7.50    2.40
  -9  -2  -8   25.70    1.80
   9   2   8   17.60    2.90
 -10  -2  -8    7.10    1.20
  10   2   8    3.90    1.40
 -11  -2  -8    2.80    0.50
  11   2   8    1.50    1.00
  21   3  -8   -0.10    0.90
  20   3  -8    0.20    0.90
  19   3  -8   -0.20    0.90
  17   3  -8    6.30    1.70
  16   3  -8    0.20    0.80
 -14  -3   8  147.19    7.50
 -13  -3   8  181.48    9.10
  12  -3  -8   53.29    4.50
 -12  -3   8   57.99    3.10
  11  -3  -8    4.30    1.80
 -11  -3   8    3.20    0.70
  11   3  -8    2.90    0.90
 -10  -3   8   94.39    5.00
  10  -3  -8  102.99    6.10
  -9  -3   8  186.68    9.60
  -9  -3   8  188.98    9.30
  -8  -3   8  705.33   34.40
  -8  -3   8  705.83   31.90
  -7  -3   8  732.53   31.10
   7  -3  -8  659.03   38.10
  -7  -3   8  700.83   33.60
   7   3  -8  666.83   39.20
   6  -3  -8  119.09    7.60
  -6  -3   8  128.49    6.60
   6   3  -8  121.09    7.70
   5  -3  -8    0.00    1.20
  -5  -3   8    0.20    0.70
  -5   3   8   -0.70    1.00
   5   3  -8   -0.10    0.60
  -4  -3   8    6.20    1.50
   4  -3  -8    7.80    2.30
   4   3  -8    5.60    1.20
  -4   3   8    4.70    1.70
   3  -3  -8    0.50    1.30
  -3  -3   8    1.50    0.80
  -3   3   8    1.00    1.30
   3   3  -8    1.40    0.70
  -2  -3   8  107.19    6.00
   2  -3  -8  103.49    6.90
   2   3  -8  124.09    7.10
  -2   3   8   88.19    8.10
   1  -3  -8  587.74   32.60
  -1  -3   8  621.34   26.90
  -1   3   8  546.15   35.20
   0  -3  -8  648.94   28.00
   0  -3  -8  544.45   31.70
   0   3   8  503.35   34.60
  -1  -3  -8  181.88   10.80
  -1  -3  -8  176.38    9.00
   1  -3   8  181.58    7.50
  -2  -3  -8   89.79    6.20
  -2  -3  -8   87.49    4.90
   2  -3   8   97.79    4.30
   2   3   8  101.99    5.40
   3  -3   8    4.20    0.80
  -3  -3  -8    3.50    0.90
  -3  -3  -8    4.30    1.50
   3   3   8    5.60    1.40
   4  -3   8   47.50    2.80
  -4  -3  -8   54.09    3.00
  -4  -3  -8   53.19    4.10
   4   3   8   52.49    3.60
   5  -3   8  179.98    7.90
  -5  -3  -8  182.78    9.40
  -5  -3  -8  189.38   11.00
   5   3   8  190.18   10.50
  -6  -3  -8  167.98    9.70
  -6  -3  -8  157.78    8.20
   6   3   8  157.08    9.40
  -7  -3  -8   43.70    2.60
  -7  -3  -8   47.90    3.60
   7   3   8   38.00    3.70
  -8  -3  -8    1.30    1.00
  -8  -3  -8    0.20    0.40
   8   3   8    0.60    1.30
  -9  -3  -8   11.00    2.00
  -9  -3  -8   14.70    1.40
   9   3   8    9.60    2.70
 -10  -3  -8    1.20    0.50
 -10  -3  -8    2.10    1.10
  10   3   8    0.10    1.40
 -11  -3  -8    0.20    0.40
  11   3   8   -0.30    1.10
 -12  -3  -8   -0.10    0.40
  12   3   8    0.20    0.90
  21   4  -8    0.20    0.90
  20   4  -8    1.20    1.00
  19   4  -8    0.40    0.90
  18   4  -8    1.00    1.00
  17   4  -8   -0.20    0.80
 -16  -4   8    2.90    0.80
  16   4  -8    0.30    0.90
 -15  -4   8   14.30    1.20
 -14  -4   8   92.59    4.90
 -13  -4   8  147.59    7.40
  13  -4  -8  141.19    9.00
 -12  -4   8   90.89    4.70
  12  -4  -8   88.79    6.40
 -11  -4   8    4.00    0.70
  11  -4  -8    1.60    1.70
  11   4  -8    0.70    0.70
 -11   4   8    2.00    0.60
 -10  -4   8   61.59    3.40
  10  -4  -8   75.19    5.00
 -10   4   8   62.19    3.70
   9  -4  -8  380.56   18.50
  -9  -4   8  380.16   17.80
  -9  -4   8  325.27   17.00
  -9   4   8  363.66   19.20
  -8  -4   8  487.15   21.70
   8  -4  -8  460.85   26.30
  -8  -4   8  470.25   22.90
  -8   4   8  459.55   24.70
  -7  -4   8  378.76   17.40
  -7  -4   8  368.16   18.30
   7  -4  -8  373.96   21.10
  -6  -4   8  156.98    7.90
  -6  -4   8  162.78    8.10
   6  -4  -8  155.98    9.50
  -5  -4   8   35.30    2.80
   5  -4  -8   39.60    3.40
  -4  -4   8   33.90    2.70
   4  -4  -8   34.30    3.30
  -4   4   8   29.20    3.70
   3  -4  -8   29.40    3.20
  -3  -4   8   33.10    2.70
  -3   4   8   27.40    3.70
   3   4  -8   33.50    2.80
  -2  -4   8  149.99    8.00
   2  -4  -8  153.58    7.70
   2  -4  -8  148.99    9.20
  -1  -4   8  330.57   13.30
   1  -4  -8  311.17   18.80
  -1  -4   8  330.37   15.90
   1  -4  -8  329.77   16.30
   1   4  -8  355.76   17.90
   0  -4   8  440.56   17.00
   0  -4   8  417.86   20.20
   0  -4  -8  441.86   20.90
   0  -4  -8  384.16   23.90
   0   4  -8  440.16   22.50
  -1  -4  -8  365.36   17.60
  -1  -4  -8  328.57   20.20
   1  -4   8  362.86   14.40
  -1   4  -8  366.26   18.90
   1   4   8  355.66   18.80
  -2  -4  -8   62.69    3.50
   2  -4   8   65.99    3.30
  -2  -4  -8   64.49    4.90
  -2   4  -8   64.89    3.70
   2   4   8   64.89    3.80
  -3  -4  -8    1.40    0.40
   3  -4   8    2.10    0.70
  -3  -4  -8    2.00    1.50
  -3   4  -8    2.70    0.60
   3   4   8    2.70    0.80
  -4  -4  -8   89.29    4.70
   4  -4   8   92.09    4.30
  -4  -4  -8   87.89    6.00
  -4   4  -8   86.59    5.00
   4   4   8   87.59    5.30
  -5  -4  -8  153.38    9.40
  -5  -4  -8  151.98    7.80
   5   4   8  154.28    8.70
  -6  -4  -8  101.79    5.50
  -6  -4  -8  105.79    6.80
   6   4   8  105.39    6.40
  -7  -4  -8   16.30    1.50
  -7  -4  -8   18.70    2.30
   7   4   8   16.40    2.70
  -8  -4  -8    1.40    0.50
  -8  -4  -8    2.30    1.10
   8   4   8    0.80    1.40
  -9  -4  -8   -0.40    0.90
  -9  -4  -8    0.20    0.40
   9   4   8   -0.60    1.30
 -10  -4  -8    1.60    1.10
 -10  -4  -8    1.10    0.50
  10   4   8    2.00    1.60
 -11  -4  -8   -0.40    0.40
 -11  -4  -8    0.40    0.90
  11   4   8    0.20    1.30
 -12  -4  -8    0.30    0.40
  12   4   8    0.70    0.90
 -13  -4  -8   -0.40    0.30
  13   4   8    0.10    0.80
  20   5  -8    0.80    0.90
  19   5  -8    5.90    1.80
  18   5  -8    2.40    1.10
 -17  -5   8   12.30    1.10
  17   5  -8    3.20    1.10
 -16  -5   8    7.00    0.90
  16   5  -8    1.60    1.00
 -15  -5   8   -0.10    0.30
  15   5  -8    0.00    1.00
  14   5  -8    4.10    1.10
  13  -5  -8   40.30    4.50
 -13  -5   8   40.30    2.40
  12  -5  -8   23.40    3.70
 -12  -5   8   20.10    1.50
 -12   5   8   20.10    1.70
 -11  -5   8    0.00    0.30
  11  -5  -8    1.00    1.80
  11   5  -8    0.70    0.60
 -11   5   8    0.20    0.50
  10  -5  -8   32.00    3.60
 -10  -5   8   30.00    1.90
 -10   5   8   31.00    2.00
   9  -5  -8  136.39    8.30
  -9  -5   8  132.69    7.20
   9  -5  -8  129.19    8.50
  -9  -5   8  136.49    6.90
  -9   5   8  141.89    7.40
  -8  -5   8  189.78    9.30
  -8  -5   8  185.98    9.40
   8  -5  -8  200.78   10.60
   8  -5  -8  175.88   11.10
  -8   5   8  185.98   10.00
   7  -5  -8  113.49    7.60
  -7  -5   8  119.29    6.50
  -7   5   8  126.89    6.60
  -6  -5   8   18.40    2.00
  -6  -5   8   19.80    1.40
   6  -5  -8   19.40    2.60
  -6   5   8   23.00    1.40
  -5  -5   8   29.80    2.50
   5  -5  -8   23.20    2.80
  -5   5   8   29.00    1.70
   4  -5  -8   -0.50    1.20
  -4  -5   8   -0.20    0.70
  -4   5   8   -0.10    0.30
  -3  -5   8   32.60    2.60
   3  -5  -8   22.40    3.00
   3  -5  -8   26.30    1.60
   3   5  -8   26.20    2.40
  -3   5   8   26.50    1.60
   2  -5  -8   21.80    2.80
  -2  -5   8   21.30    2.30
  -2  -5   8   20.40    1.50
   2  -5  -8   18.30    1.30
   2   5  -8   20.80    2.20
  -2   5   8   18.50    1.30
  -1  -5   8  108.89    4.90
   1  -5  -8  111.19    5.70
   1  -5  -8  101.09    7.10
  -1  -5   8  111.39    6.50
   1   5  -8  116.79    6.30
  -1   5   8  112.49    6.00
   0  -5   8  165.48    9.50
   0  -5  -8  161.08   10.70
   0  -5   8  184.58    7.60
   0  -5  -8  185.48    9.00
   0   5  -8  187.78    9.80
   0   5   8  182.68    9.60
   1  -5   8  130.79    5.70
  -1  -5  -8  111.99    8.10
  -1  -5  -8  133.69    6.60
   1   5   8  129.69    7.00
  -1   5  -8  134.09    7.10
  -2  -5  -8   24.90    3.30
  -2  -5  -8   29.80    1.90
   2  -5   8   29.50    2.20
   2   5   8   28.90    1.90
  -2   5  -8   30.70    2.00
  -3  -5  -8   -0.10    0.30
  -3  -5  -8   -1.00    1.40
   3   5   8    0.40    0.60
  -3   5  -8    0.50    0.50
  -4  -5  -8   22.30    1.70
  -4  -5  -8   19.60    2.90
   4   5   8   21.80    2.00
  -4   5  -8   21.20    1.60
  -5  -5  -8   40.40    3.60
  -5  -5  -8   41.30    2.60
  -5   5  -8   40.90    2.60
   5   5   8   40.30    3.00
  -6  -5  -8   14.90    2.40
  -6  -5  -8   12.10    1.40
   6   5   8   13.50    2.10
  -7  -5  -8   -0.70    1.00
  -7  -5  -8    0.20    0.40
   7   5   8   -1.50    1.00
  -8  -5  -8    6.20    1.90
  -8  -5  -8    6.10    1.20
   8   5   8    9.50    2.60
  -9  -5  -8   12.80    1.40
  -9  -5  -8   10.80    2.00
   9   5   8   12.30    2.90
 -10  -5  -8    6.70    1.20
 -10  -5  -8    6.40    1.80
  10   5   8    4.70    1.70
 -11  -5  -8   11.30    1.30
  11   5   8    9.40    2.50
 -12  -5  -8   -0.50    0.40
 -12  -5  -8    0.40    0.70
  12   5   8   -1.00    0.90
  20   6  -8    0.40    0.90
  19   6  -8    0.50    0.90
 -18  -6   8   33.00    2.10
 -16  -6   8   63.89    3.60
 -15  -6   8   41.90    2.60
 -14  -6   8   20.50    1.60
 -13  -6   8    1.20    0.40
  13  -6  -8    2.00    2.50
  13   6  -8    0.80    0.80
  12  -6  -8    3.80    2.30
 -12  -6   8    1.00    0.30
  12   6  -8    0.10    0.70
 -12   6   8    1.30    0.60
 -11  -6   8    0.10    0.30
  11  -6  -8    0.00    1.80
 -11   6   8   -0.20    0.40
  10  -6  -8    1.00    1.90
 -10  -6   8    0.80    0.30
  10  -6  -8    1.80    1.30
 -10   6   8    2.20    0.50
  -9  -6   8    0.50    0.30
   9  -6  -8    1.30    1.30
   9  -6  -8    2.00    1.80
  -9   6   8    1.90    0.50
   8  -6  -8    2.30    1.40
   8  -6  -8    4.20    2.00
  -8  -6   8    3.40    0.80
  -8  -6   8    5.10    1.10
  -8   6   8    5.90    0.80
   7  -6  -8    4.20    1.90
   7  -6  -8    2.90    1.30
  -7  -6   8    1.80    0.90
  -7  -6   8    1.30    0.40
  -7   6   8    2.40    0.70
  -6  -6   8    5.00    0.80
   6  -6  -8    4.00    1.50
  -6  -6   8    4.60    1.10
  -6   6   8    3.50    0.70
   5  -6  -8   11.70    2.40
  -5  -6   8   13.40    2.00
  -5   6   8   14.20    1.10
  -4  -6   8   93.39    5.20
   4  -6  -8   83.09    5.80
   4   6  -8   69.89    5.00
  -4   6   8   95.29    4.70
  -3  -6   8   15.70    2.10
   3  -6  -8   11.20    2.50
  -3   6   8   15.40    1.10
   3   6  -8   15.10    2.10
   2  -6  -8    4.50    0.90
  -2  -6   8    7.00    1.70
   2  -6  -8    2.90    1.50
  -2   6   8    5.60    0.70
   2   6  -8    6.10    1.90
   1  -6  -8    3.00    1.50
   1  -6  -8    2.80    0.80
  -1  -6   8    3.20    1.20
  -1   6   8    3.00    0.60
   1   6  -8    2.70    1.00
   0  -6  -8    4.30    0.90
   0  -6  -8    4.00    1.60
   0  -6   8    3.30    1.40
   0   6  -8    4.30    0.90
   0   6   8    5.20    0.70
  -1  -6  -8    0.80    1.40
  -1  -6  -8    1.40    0.40
  -1   6  -8    0.60    0.60
   1   6   8    1.80    0.50
  -2  -6  -8    1.60    0.50
  -2  -6  -8    1.80    1.50
   2   6   8    3.00    0.80
  -2   6  -8    1.50    0.70
  -3  -6  -8   -0.10    0.40
  -3  -6  -8    0.30    1.40
   3  -6   8   -0.50    0.70
  -3   6  -8   -0.50    0.50
   3   6   8    0.30    0.50
  -4  -6  -8    2.10    1.40
  -4  -6  -8    0.80    0.40
  -4   6  -8    1.50    0.60
   4   6   8    1.20    0.70
  -5  -6  -8    1.20    0.40
  -5  -6  -8    1.60    1.30
  -5   6  -8    1.40    0.60
   5   6   8    2.20    0.90
  -6  -6  -8   22.30    2.70
  -6  -6  -8   22.60    1.80
   6   6   8   25.00    2.50
  -7  -6  -8   43.70    3.60
  -7  -6  -8   44.10    2.80
   7   6   8   44.00    3.60
  -8  -6  -8   69.09    4.70
  -8  -6  -8   62.99    3.80
   8   6   8   67.59    5.00
  -9  -6  -8   73.69    4.80
  -9  -6  -8   68.89    4.00
   9   6   8   63.59    5.10
 -10  -6  -8   33.00    2.30
 -10  -6  -8   36.10    2.80
  10   6   8   26.70    3.40
 -11  -6  -8    0.30    0.40
 -11  -6  -8    1.10    0.80
  11   6   8    1.40    1.30
 -12  -6  -8   -0.30    0.30
  12   6   8    0.50    1.00
  19   7  -8    0.20    0.80
 -17  -7   8   42.10    2.60
 -16  -7   8   72.99    4.10
 -15  -7   8   51.59    3.10
 -14  -7   8   22.40    1.70
 -13  -7   8   17.90    1.40
 -13   7   8   14.20    1.50
 -12  -7   8    4.50    0.90
  12  -7  -8    1.00    2.30
 -12   7   8    1.80    0.60
  11  -7  -8    0.50    2.20
 -11  -7   8   -0.10    0.30
  11  -7  -8   -0.70    1.50
 -11   7   8   -0.90    0.40
  10  -7  -8    3.40    2.30
  10  -7  -8    1.10    1.50
 -10  -7   8    1.10    0.40
 -10   7   8    1.00    0.50
   9  -7  -8    8.60    2.80
  -9  -7   8    9.00    1.10
   9  -7  -8   10.90    2.60
  -9   7   8   10.50    1.10
  -8  -7   8   -0.50    0.30
   8  -7  -8   -1.50    1.60
   8  -7  -8    1.60    1.30
  -8   7   8    0.10    0.40
   7  -7  -8    5.90    1.70
   7  -7  -8    7.10    2.50
  -7  -7   8    8.60    1.00
  -7   7   8    9.40    1.00
   6  -7  -8    5.90    1.80
  -6  -7   8    8.10    1.00
   6  -7  -8    5.00    2.20
  -6   7   8    6.30    0.90
   5  -7  -8   36.20    4.10
   5  -7  -8   32.70    3.50
  -5   7   8   38.40    2.30
   4  -7  -8   45.90    4.10
  -4   7   8   52.99    2.80
   4   7  -8   40.70    3.40
   3  -7  -8   43.20    3.90
  -3   7   8   39.50    2.40
   3   7  -8   40.80    3.30
   2  -7  -8    5.40    1.70
   2   7  -8    8.20    2.00
  -2   7   8    8.80    0.80
   1  -7  -8    8.10    2.60
   1  -7  -8   10.90    1.10
  -1   7   8    9.10    0.90
   1   7  -8    9.90    1.70
   0  -7  -8    0.10    0.30
   0  -7  -8    0.40    1.40
   0   7  -8   -0.10    0.70
   0   7   8   -0.20    0.30
  -1  -7  -8   10.30    2.60
  -1  -7  -8    9.30    1.10
   1   7   8    9.60    0.90
  -1   7  -8    9.60    1.40
   2  -7   8    1.90    0.90
  -2  -7  -8    1.90    1.60
  -2  -7  -8    0.70    0.40
  -2   7  -8    1.30    0.70
   2   7   8    1.80    0.50
  -3  -7  -8   -0.40    0.40
  -3  -7  -8   -0.70    1.40
   3  -7   8   -0.10    0.80
  -3   7  -8    0.00    0.60
   3   7   8    0.40    0.50
  -4  -7  -8    1.60    0.50
  -4  -7  -8    1.40    1.40
   4   7   8    2.90    0.80
  -4   7  -8    3.50    1.00
  -5  -7  -8   20.20    1.70
  -5  -7  -8   20.70    2.70
  -5   7  -8   19.70    1.70
   5   7   8   19.70    2.00
  -6  -7  -8   21.40    2.60
  -6  -7  -8   23.40    1.90
   6   7   8   22.10    2.40
  -7  -7  -8   51.29    3.90
  -7  -7  -8   48.70    3.10
   7   7   8   49.50    3.80
  -8  -7  -8   74.89    4.20
  -8  -7  -8   74.99    4.90
   8   7   8   65.89    5.10
  -9  -7  -8   42.60    3.20
  -9  -7  -8   43.00    2.70
   9   7   8   35.20    3.80
 -10  -7  -8   16.60    1.50
  10   7   8   10.70    2.50
 -11  -7  -8    3.70    0.90
  11   7   8    1.30    1.20
 -17  -8   8   12.30    1.30
 -16  -8   8    9.50    1.10
  16   8  -8    2.10    0.90
 -15  -8   8   10.60    1.20
  15   8  -8    4.60    1.50
 -14  -8   8    4.20    1.00
  14   8  -8    0.70    0.90
 -13  -8   8    0.40    0.40
 -13   8   8   -0.50    0.50
 -12  -8   8    1.70    0.40
 -12   8   8    0.80    0.50
  11  -8  -8   11.10    2.80
 -11   8   8   11.70    1.30
  10  -8  -8   14.50    4.00
 -10  -8   8   13.00    1.20
  10  -8  -8   10.20    2.70
 -10   8   8   11.20    1.30
   9  -8  -8    3.00    1.50
  -9  -8   8    3.80    0.90
   9  -8  -8    2.40    2.40
  -9   8   8    2.00    0.60
   8  -8  -8   17.00    3.80
  -8  -8   8   17.60    1.40
   8  -8  -8   14.70    3.00
  -8   8   8   17.90    1.40
   7  -8  -8    8.90    2.90
  -7  -8   8   12.30    1.20
   7  -8  -8   11.60    2.70
  -7   8   8   12.70    1.10
   6  -8  -8    2.10    2.20
   6  -8  -8    3.20    1.60
  -6   8   8    3.20    0.80
   5  -8  -8    6.70    1.90
   5  -8  -8   12.30    3.10
  -5   8   8   11.00    1.00
   4  -8  -8    3.20    1.70
   4  -8  -8    4.10    2.20
   4   8  -8    3.80    1.30
  -4   8   8    4.70    0.80
   3  -8  -8    9.00    2.70
   3  -8  -8   11.50    2.80
   3   8  -8   12.20    2.20
  -3   8   8   10.60    1.00
   2  -8  -8    4.60    2.20
   2  -8  -8    3.00    1.60
  -2   8   8    3.80    0.70
   2   8  -8    3.00    1.10
   1  -8  -8    8.90    2.60
   1  -8  -8   12.00    3.00
  -1   8   8   11.30    1.00
   1   8  -8   14.00    1.70
   0  -8  -8   12.00    2.90
   0  -8  -8   14.40    3.30
   0  -8  -8   17.40    1.50
   0   8  -8   19.50    1.80
   0   8   8   17.70    1.30
   1  -8   8    4.10    1.30
  -1  -8  -8    2.10    0.50
  -1  -8  -8    2.70    1.70
  -1   8  -8    4.80    1.20
   1   8   8    3.60    0.80
   2  -8   8   13.20    1.80
  -2  -8  -8   12.30    2.70
  -2  -8  -8   11.20    1.40
   2   8   8   12.20    1.20
  -2   8  -8   13.10    1.50
  -3  -8  -8   16.80    3.00
   3  -8   8   14.90    2.00
  -3  -8  -8   16.10    1.60
   3   8   8   15.80    1.40
  -3   8  -8   18.60    1.60
  -4  -8  -8    1.00    0.50
  -4  -8  -8    1.90    1.30
   4  -8   8    3.40    1.20
   4   8   8    2.40    0.80
  -4   8  -8    3.50    1.10
  -5  -8  -8    0.00    1.10
  -5  -8  -8   -0.20    0.40
  -5   8  -8    0.70    0.60
   5   8   8   -0.10    0.80
  -6  -8  -8    2.40    1.10
  -6  -8  -8    1.40    0.50
   6   8   8    2.80    1.10
  -6   8  -8    2.90    0.70
  -7  -8  -8   10.20    1.30
  -7  -8  -8    9.70    1.80
   7   8   8   10.00    2.00
  -8  -8  -8    8.40    1.20
  -8  -8  -8    8.90    1.60
   8   8   8    7.40    2.10
  -9  -8  -8   13.10    1.40
  -9  -8  -8   13.90    1.60
   9   8   8    8.10    2.20
 -16  -9   8    0.00    0.30
  16   9  -8    0.00    0.70
 -15  -9   8    0.60    0.40
  15   9  -8    1.50    0.80
 -14  -9   8    1.50    0.50
  14   9  -8    1.60    0.80
 -13  -9   8    0.60    0.40
 -13   9   8    1.20    0.60
 -12  -9   8   -0.20    0.40
 -12   9   8    0.00    0.50
  11  -9  -8   -0.80    1.60
 -11  -9   8    0.50    0.40
 -11   9   8    0.80    0.60
 -10  -9   8   10.50    1.20
  10  -9  -8   10.20    3.00
 -10   9   8    9.00    1.20
  -9  -9   8   52.89    3.10
   9  -9  -8   51.39    4.80
  -9   9   8   52.49    3.20
  -8  -9   8   24.90    1.80
   8  -9  -8   20.00    3.40
  -8   9   8   25.30    1.80
   7  -9  -8    4.90    1.80
  -7   9   8    9.20    1.10
   6  -9  -8   14.80    3.20
  -6   9   8   13.80    1.30
   5  -9  -8    1.40    1.70
   5  -9  -8   -0.50    2.20
  -5   9   8    0.90    0.50
   4  -9  -8    3.70    2.60
   4  -9  -8    2.60    1.80
   4   9  -8    2.50    1.20
  -4   9   8    3.60    0.80
   3  -9  -8    2.80    2.50
   3  -9  -8    0.00    1.60
  -3   9   8    0.60    0.40
   3   9  -8   -0.30    1.10
   2  -9  -8   12.20    2.90
   2  -9  -8    8.90    2.90
  -2   9   8   13.70    1.10
   2   9  -8   14.20    1.80
  -1  -9   8    9.60    1.50
   1  -9  -8    4.50    1.80
   1  -9  -8    9.10    3.20
  -1   9   8    7.80    0.90
   1   9  -8    8.30    1.40
   0  -9   8   25.50    2.20
   0  -9  -8   19.60    3.20
   0   9  -8   23.00    1.90
   0   9   8   22.50    1.60
  -1  -9  -8   59.19    3.20
   1  -9   8   49.80    3.80
  -1  -9  -8   48.00    4.50
   1   9   8   51.99    3.20
  -1   9  -8   59.39    3.40
   2  -9   8   11.40    1.80
  -2  -9  -8    9.40    1.30
  -2  -9  -8    8.80    2.60
  -2   9  -8   10.40    1.40
   2   9   8    8.80    1.20
  -3  -9  -8    0.50    0.40
  -3  -9  -8    1.20    1.30
   3  -9   8   -0.20    1.00
   3   9   8    0.70    0.50
  -3   9  -8    0.50    0.60
  -4  -9  -8    0.30    1.10
  -4  -9  -8   -0.10    0.40
   4  -9   8   -0.10    1.00
  -4   9  -8    0.30    0.60
   4   9   8   -0.30    0.70
  -5  -9  -8    0.50    0.90
  -5  -9  -8    0.60    0.40
  -5   9  -8    0.60    0.60
   5   9   8    0.50    0.90
  -6  -9  -8    1.70    0.50
  -6  -9  -8    2.80    1.00
  -6   9  -8    2.80    0.70
   6   9   8    1.60    1.00
  -7  -9  -8    0.80    0.40
  -7  -9  -8    1.10    0.80
   7   9   8    1.10    1.00
  -8  -9  -8   -0.50    0.30
   8   9   8    1.00    1.20
 -14 -10   8    9.40    1.20
 -13 -10   8    8.00    1.10
 -13  10   8    7.80    1.30
 -12 -10   8    6.00    1.10
 -12  10   8    4.10    1.00
 -11 -10   8   -0.40    0.40
  11 -10  -8   -0.10    1.60
 -11  10   8    0.00    0.50
  10 -10  -8   15.40    3.20
 -10 -10   8   17.20    1.50
 -10  10   8   16.80    1.60
   9 -10  -8   18.60    3.40
  -9  10   8   18.20    1.60
   8 -10  -8   42.70    4.60
  -8  10   8   43.20    2.80
   7 -10  -8   30.00    4.10
  -7  10   8   31.40    2.20
   6 -10  -8    1.20    1.80
  -6  10   8    1.40    0.60
   5 -10  -8   -1.10    1.70
  -5  10   8    0.60    0.50
   5  10  -8    0.90    1.20
   4 -10  -8    0.50    1.70
   4  10  -8    0.30    1.10
  -4  10   8    0.50    0.50
  -3 -10   8    0.30    0.70
   3 -10  -8    0.60    1.70
   3  10  -8    0.10    0.80
  -3  10   8    0.30    0.50
  -2 -10   8    1.00    0.80
   2 -10  -8    0.30    1.60
   2  10  -8    1.00    0.80
  -2  10   8    2.30    0.60
   1 -10  -8   21.40    3.50
  -1 -10   8   27.90    2.40
   1  10  -8   30.80    2.20
  -1  10   8   31.50    2.00
   0 -10   8   45.10    3.40
   0 -10  -8   41.60    4.00
   0  10   8   43.50    2.80
   0  10  -8   47.20    3.00
   1 -10   8   18.90    2.30
  -1 -10  -8   17.20    2.80
  -1  10  -8   19.70    1.70
   1  10   8   19.30    1.60
  -2 -10  -8   14.50    2.70
   2 -10   8   18.90    2.30
   2  10   8   15.80    1.60
  -2  10  -8   17.40    1.60
  -3 -10  -8    0.30    1.00
  -3 -10  -8    0.70    0.40
   3 -10   8    0.00    1.00
   3  10   8    0.20    0.60
  -3  10  -8    0.10    0.60
  -4 -10  -8    5.50    1.50
   4 -10   8    2.50    1.20
  -4 -10  -8    6.50    1.20
  -4  10  -8    6.50    1.20
   4  10   8    3.40    0.90
  -5 -10  -8    9.00    1.40
  -5 -10  -8   10.50    1.30
   5  10   8    8.30    1.60
  -5  10  -8   10.80    1.30
  -6 -10  -8   12.20    1.30
   6  10   8   11.00    1.90
 -11  11   8   -0.10    0.50
  10 -11  -8    1.90    2.00
 -10  11   8    2.40    0.70
   9 -11  -8   20.20    3.80
  -9  11   8   28.20    2.00
   8 -11  -8   19.30    3.40
  -8  11   8   21.60    1.80
   7 -11  -8   15.20    3.40
  -7 -11   8   10.00    1.10
  -7  11   8   11.30    1.30
  -6 -11   8    5.90    1.00
   6 -11  -8    2.90    1.80
  -6  11   8    5.40    1.10
   5 -11  -8    0.30    1.60
  -5 -11   8   -0.20    0.50
  -5  11   8   -0.10    0.50
   5  11  -8   -0.30    0.80
   4 -11  -8   -0.50    1.60
  -4 -11   8    0.30    0.60
  -4  11   8    0.30    0.50
   4  11  -8    0.40    0.70
  -3 -11   8    0.00    0.70
   3 -11  -8   -0.70    1.50
  -3  11   8   -0.50    0.50
   3  11  -8   -0.10    0.60
  -2 -11   8    6.20    1.40
   2 -11  -8    2.50    1.70
   2  11  -8    5.10    1.20
  -2  11   8    4.80    1.00
   1 -11  -8    8.50    2.50
  -1 -11   8   12.20    1.80
  -1  11   8   11.00    1.30
   1  11  -8   12.70    1.40
   0 -11  -8   17.60    2.70
   0 -11   8   25.00    2.30
   0  11  -8   24.50    1.80
   0  11   8   20.80    1.80
  -1 -11  -8   25.80    2.70
   1 -11   8   27.30    2.60
  -1  11  -8   31.70    2.10
   1  11   8   27.10    2.00
   2 -11   8    3.40    1.20
  -2 -11  -8    4.50    1.50
   2  11   8    4.80    1.10
  -2  11  -8    5.80    1.10
  -3  11  -8    0.30    0.60
   3  11   8   -0.20    0.70
  -6  12   8   -0.10    0.50
   6  12  -8    0.00    0.60
  -5  12   8   -0.20    0.50
   5  12  -8    0.60    0.60
   4  12  -8    2.10    0.60
  -4  12   8    1.20    0.60
   3  12  -8   -0.20    0.50
  -3  12   8    0.00    0.50
  -2  12   8   -0.20    0.50
   2  12  -8    0.10    0.50
  16   0  -9   31.10    2.80
  15   0  -9   54.99    3.90
  14   0  -9   32.30    2.80
  13   0  -9    3.60    1.10
  12   0  -9    0.00    0.90
  -9   0   9   50.59    5.30
  -8   0   9   10.00    3.10
  -7   0   9   72.09    5.20
  -7   0   9   56.49    6.20
  -6   0   9   46.00    3.70
  -6   0   9   29.50    4.80
   6   0  -9   46.50    4.90
  -5   0   9  181.98   14.20
  -5   0   9  221.18   12.60
   5   0  -9  206.18   13.80
   4   0  -9  228.48   14.40
  -4   0   9  224.78   13.00
  -4   0   9  187.28   15.00
   3   0  -9   39.80    4.70
  -3   0   9   45.60    3.50
   2   0  -9   82.69    6.90
  -2   0   9   81.19    5.50
   1   0  -9   10.30    3.00
   2   0   9    1.90    0.60
   3   0   9   -0.90    0.50
   4   0   9    4.80    1.40
   4   0   9    4.40    0.70
   5   0   9   53.09    2.70
  -5   0  -9   50.89    3.00
   6   0   9   93.19    4.30
  -6   0  -9   91.79    4.90
  -7   0  -9   55.69    3.20
  -8   0  -9   89.89    4.80
  -9   0  -9  154.08    8.00
  18   1  -9    7.10    2.00
  17   1  -9   23.50    2.60
  16   1  -9   34.70    2.90
  15   1  -9    5.50    1.60
  14   1  -9    2.00    0.90
  13   1  -9    1.30    0.80
  12   1  -9   -0.20    0.70
  11   1  -9    3.30    0.90
  -9  -1   9  106.99    6.30
  -8  -1   9   21.70    2.40
   8  -1  -9   21.60    3.00
  -8   1   9   20.90    2.90
  -7  -1   9    1.10    1.00
   7  -1  -9    0.40    1.10
  -7   1   9    0.50    1.00
  -6  -1   9   50.89    5.10
   6  -1  -9   69.69    5.30
  -6  -1   9   62.39    4.10
  -6   1   9   59.39    4.70
  -5  -1   9   84.19    6.00
   5  -1  -9  100.89    6.80
  -5  -1   9   89.59    5.30
  -5  -1   9   75.09    7.10
   5  -1  -9   96.39    5.90
  -5   1   9   94.59    6.20
  -4  -1   9   85.29    5.10
   4  -1  -9   96.89    6.60
  -4  -1   9   66.39    7.10
  -4  -1   9   83.89    5.90
   4  -1  -9   92.79    5.80
  -4   1   9  100.99    6.10
  -3  -1   9   60.59    4.40
  -3  -1   9   50.99    5.90
   3  -1  -9   65.19    4.30
  -3  -1   9   64.19    4.40
   3  -1  -9   68.09    5.10
   3   1  -9   68.59    7.10
   2  -1  -9    1.20    0.60
  -2  -1   9    1.30    0.80
   2   1  -9    1.70    1.70
  -1  -1   9   20.60    2.10
   1  -1  -9   21.20    1.90
   1   1  -9   20.80    4.50
   0  -1  -9   92.39    6.10
   0  -1   9   87.59    5.90
   0   1  -9   90.49    8.70
  -1  -1  -9  138.69    8.80
   1  -1   9  138.59    5.90
   2  -1   9    6.50    0.90
   2   1   9    8.00    1.90
   2   1   9    6.00    1.10
   3  -1   9   -0.20    0.60
   3   1   9    0.40    1.10
   3   1   9    0.40    0.60
   4  -1   9    2.80    0.80
   4   1   9    3.10    0.70
   4   1   9    4.10    1.30
  -5  -1  -9    3.20    0.90
   5  -1   9    2.90    0.70
   5   1   9    3.60    1.40
   5   1   9    4.60    0.80
  -6  -1  -9   11.70    1.20
   6  -1   9   13.00    1.50
   6   1   9   12.00    2.50
  -6   1  -9   11.70    1.20
  -7  -1  -9   72.59    3.80
   7  -1   9   74.19    3.50
  -7   1  -9   67.89    3.70
   7   1   9   54.49    4.80
  -8  -1  -9   51.09    3.00
  -9  -1  -9   15.60    1.50
 -10  -1  -9   49.00    3.00
  20   2  -9    1.70    1.10
  19   2  -9   -0.80    1.00
  18   2  -9   20.10    2.40
  17   2  -9   10.20    1.90
  16   2  -9    0.20    0.80
  15   2  -9    0.30    0.80
  14   2  -9    9.30    1.60
  13   2  -9    7.00    1.50
 -12  -2   9    1.20    0.30
  12   2  -9    0.00    0.70
 -11  -2   9   77.79    4.20
  11  -2  -9   90.39    5.30
 -10  -2   9  128.69    7.20
 -10  -2   9  124.39    6.30
  -9  -2   9  392.36   18.60
  -8  -2   9  593.24   27.20
  -7  -2   9  103.19    6.00
   7  -2  -9  106.59    6.60
  -6  -2   9    4.40    1.10
   6  -2  -9    3.10    1.10
   6   2  -9    4.50    1.20
   5  -2  -9    0.30    0.50
  -5  -2   9    0.20    0.70
   5   2  -9    1.70    0.70
  -4  -2   9    1.50    0.90
   4  -2  -9    0.70    0.40
  -3  -2   9    3.10    1.00
   3  -2  -9    3.30    1.60
   2  -2  -9   87.29    6.00
  -1  -2   9  477.05   29.40
   1  -2  -9  513.25   27.80
   0  -2  -9  363.76   21.10
   0  -2   9  381.66   14.90
  -1  -2  -9  126.49    8.20
   1  -2   9  129.59    5.70
   1   2   9  137.19    7.40
  -2  -2  -9   75.19    4.30
   2  -2   9   79.59    3.80
  -2  -2  -9   88.69    5.70
   2   2   9   87.89    5.00
   2   2   9   78.29    3.70
   3  -2   9    0.70    0.60
  -3  -2  -9    1.00    1.20
  -3  -2  -9    0.60    0.40
   3   2   9    1.20    0.90
   3   2   9    1.20    0.60
  -4  -2  -9   19.10    2.50
  -4  -2  -9   16.30    1.40
   4  -2   9   15.00    1.60
   4   2   9   16.40    2.30
  -5  -2  -9   27.00    1.80
   5  -2   9   23.50    2.00
  -5  -2  -9   30.90    2.90
   5   2   9   20.70    2.80
  -6  -2  -9    1.60    1.10
  -6  -2  -9    0.50    0.40
   6  -2   9    1.40    0.70
  -6   2  -9    0.90    0.40
   6   2   9    1.70    1.30
  -7  -2  -9    0.10    0.40
   7   2   9    0.10    1.20
  -8  -2  -9   26.40    1.80
   8   2   9   15.40    2.80
  -9  -2  -9   44.90    2.80
 -10  -2  -9   -0.20    0.40
  10   2   9   -0.10    0.90
 -11  -2  -9    3.30    0.90
  21   3  -9    1.60    1.10
  20   3  -9    0.50    0.90
  19   3  -9    0.00    0.90
  18   3  -9    0.60    0.90
  17   3  -9    2.50    1.10
  16   3  -9   -0.10    0.80
  15   3  -9   21.40    2.20
 -14  -3   9   63.39    3.40
 -13  -3   9   77.89    4.10
 -12  -3   9    0.70    0.30
  12  -3  -9    1.60    1.70
  12   3  -9    0.60    0.70
 -11  -3   9   34.00    2.10
  11  -3  -9   41.40    3.50
 -10  -3   9  299.57   14.80
 -10  -3   9  304.07   14.80
  -9  -3   9  314.47   15.70
  -9  -3   9  325.07   15.40
  -8  -3   9  185.58    9.50
   7  -3  -9  356.16   20.30
  -7  -3   9  373.16   17.00
   7   3  -9  342.87   20.80
   6  -3  -9  241.78   14.70
  -6  -3   9  266.47   12.40
   6   3  -9  249.58   14.90
  -5  -3   9   11.40    1.80
   5  -3  -9    9.10    2.70
   5   3  -9    9.20    1.50
  -4  -3   9   11.80    1.90
   4  -3  -9   13.20    3.00
  -3  -3   9  238.88   11.50
   3  -3  -9  221.98   13.50
  -2  -3   9  349.77   16.00
   2  -3  -9  317.77   19.00
  -1  -3   9  178.58    7.10
   1  -3  -9  156.08   10.20
   0  -3  -9  289.97   14.40
   0  -3  -9  275.37   16.80
   0  -3   9  299.07   11.80
   0   3   9  301.27   15.60
  -1  -3  -9  295.07   14.70
  -1  -3  -9  286.97   17.10
   1  -3   9  303.87   12.10
   1   3   9  289.57   11.90
  -1   3  -9  276.47   15.70
   1   3   9  325.37   15.90
   2  -3   9   39.10    2.30
  -2  -3  -9   37.00    3.70
  -2  -3  -9   34.00    2.20
   2   3   9   36.50    2.10
  -2   3  -9   33.40    2.20
   2   3   9   38.80    2.70
  -3  -3  -9    0.50    1.30
  -3  -3  -9    1.30    0.40
   3  -3   9    2.70    0.70
   3   3   9    2.20    1.00
   4  -3   9   75.49    3.80
  -4  -3  -9   82.39    5.50
  -4  -3  -9   73.19    4.10
   4   3   9   75.99    4.90
   5  -3   9   67.89    3.50
  -5  -3  -9   71.59    4.90
  -5  -3  -9   60.59    3.60
   5   3   9   63.29    4.60
  -6  -3  -9   58.59    4.20
  -6  -3  -9   50.79    3.10
   6   3   9   52.39    4.20
  -7  -3  -9    0.60    1.10
  -7  -3  -9   -0.20    0.40
   7   3   9    0.50    1.30
  -8  -3  -9   11.90    1.40
  -8  -3  -9   14.80    2.20
   8   3   9    9.00    2.60
  -9  -3  -9    0.70    0.50
   9   3   9    0.90    1.40
 -10  -3  -9   -0.50    0.40
  10   3   9   -0.30    1.20
 -11  -3  -9   -0.40    0.40
  11   3   9    0.30    0.90
 -12  -3  -9    0.30    0.40
  21   4  -9    0.30    0.90
  20   4  -9    0.90    1.00
  19   4  -9    3.50    1.20
  18   4  -9   -1.20    0.80
  17   4  -9   -0.20    0.80
 -16  -4   9   -0.10    0.30
  16   4  -9   -0.60    0.80
 -15  -4   9   19.90    1.40
 -14  -4   9   98.89    5.20
 -13  -4   9   31.30    1.90
  13  -4  -9   26.10    3.80
  12  -4  -9    9.10    2.50
 -12  -4   9    8.40    0.90
  12   4  -9    3.90    1.30
  11  -4  -9   67.99    4.90
 -11  -4   9   60.89    3.30
 -11   4   9   58.69    3.60
 -10  -4   9   99.59    6.30
 -10  -4   9  108.39    5.60
  10  -4  -9  123.59    7.10
 -10   4   9  107.19    6.00
  -9  -4   9  298.87   14.60
  -9  -4   9  306.97   14.80
  -9   4   9  296.17   16.00
  -8  -4   9  367.76   17.50
  -8  -4   9  359.36   16.90
   8  -4  -9  340.67   20.40
  -8   4   9  358.06   18.90
  -7  -4   9   92.99    5.40
   7  -4  -9   82.59    6.10
  -7   4   9   94.59    5.00
   6  -4  -9    4.40    1.60
  -6  -4   9    5.90    1.60
  -6   4   9    5.00    0.80
   5  -4  -9   39.10    3.90
  -5  -4   9   43.00    3.20
  -5   4   9   42.30    2.50
   4  -4  -9   39.80    3.90
  -4  -4   9   36.90    3.10
  -4   4   9   43.50    2.60
   4   4  -9   48.20    3.20
  -3  -4   9    4.20    1.20
   3  -4  -9    3.50    0.80
  -3  -4   9    3.00    0.70
   3  -4  -9    4.30    1.70
  -3   4   9    3.80    0.80
   3   4  -9    7.40    1.90
   2  -4  -9   88.89    4.50
  -2  -4   9   82.59    5.30
  -2  -4   9   85.19    4.00
   2  -4  -9   79.09    6.00
   2   4  -9   90.99    5.20
  -2   4   9   88.39    4.80
  -1  -4   9  345.77   14.20
   1  -4  -9  354.36   17.40
  -1   4   9  363.46   18.70
   1   4  -9  363.86   18.80
  -1   4   9  340.07   14.10
   0  -4  -9  288.97   14.20
   0  -4  -9  272.57   16.60
   0  -4   9  294.77   11.70
   0   4   9  291.47   15.30
   0   4  -9  291.37   15.30
   0   4   9  280.37   11.50
  -1  -4  -9   92.09    7.00
   1  -4   9  103.39    4.80
  -1  -4  -9  104.99    5.50
  -1   4  -9  108.39    5.80
   1   4   9  110.39    5.90
  -2  -4  -9   58.29    3.40
   2  -4   9   63.19    3.20
  -2  -4  -9   60.09    4.90
   2   4   9   66.29    3.80
  -2   4  -9   60.49    3.60
  -3  -4  -9    7.60    1.90
  -3  -4  -9    8.70    1.00
   3  -4   9    7.20    1.40
   3   4   9    6.60    1.50
  -3   4  -9    7.80    1.10
  -4  -4  -9   29.90    2.10
  -4  -4  -9   29.40    3.30
   4  -4   9   31.60    2.30
   4   4   9   33.70    2.70
  -5  -4  -9  101.39    5.50
  -5  -4  -9  103.19    6.90
   5   4   9  107.89    6.40
  -6  -4  -9   24.50    2.70
  -6  -4  -9   19.20    1.60
   6   4   9   18.00    2.60
  -7  -4  -9   -0.20    1.00
  -7  -4  -9   -0.30    0.40
   7   4   9   -1.00    1.20
  -8  -4  -9    0.70    0.50
  -8  -4  -9    0.10    1.10
   8   4   9    0.30    1.40
  -9  -4  -9   -0.30    0.40
  -9  -4  -9    0.50    1.00
   9   4   9    0.10    1.30
 -10  -4  -9   11.30    1.40
 -10  -4  -9   12.60    2.00
  10   4   9   10.30    2.70
 -11  -4  -9    0.40    0.40
  11   4   9    1.70    1.10
 -12  -4  -9   -0.30    0.40
  12   4   9    0.60    0.80
  20   5  -9    0.30    0.90
  19   5  -9    2.00    1.00
  18   5  -9   14.50    2.10
  17   5  -9    3.50    1.10
 -16  -5   9   -0.20    0.30
  16   5  -9    0.30    0.90
 -15  -5   9    0.40    0.30
  15   5  -9   -0.30    0.70
 -14  -5   9    5.50    0.80
  14   5  -9    0.40    0.70
  13  -5  -9   33.50    4.20
 -13  -5   9   33.10    2.10
  12  -5  -9    2.10    2.00
 -12  -5   9    3.70    0.80
 -12   5   9    3.00    0.70
 -11  -5   9   -0.10    0.30
  11  -5  -9    0.90    1.70
  11   5  -9   -0.30    0.50
 -11   5   9    0.20    0.50
 -10  -5   9   84.59    4.50
  10  -5  -9   91.29    6.20
 -10   5   9   83.59    4.80
   9  -5  -9  192.88   12.00
  -9  -5   9  202.18    9.90
   9  -5  -9  215.78   11.40
  -9  -5   9  202.68   10.10
  -9   5   9  184.88   10.60
  -8  -5   9  131.59    7.20
   8  -5  -9  121.29    8.30
  -8  -5   9  129.49    6.70
  -8   5   9  141.49    7.20
   7  -5  -9   32.10    3.40
  -7  -5   9   32.90    2.00
  -7  -5   9   30.60    2.80
  -7   5   9   35.70    2.10
   6  -5  -9   -0.30    1.30
  -6  -5   9   -0.30    0.80
   6   5  -9    0.20    0.70
  -6   5   9    0.20    0.40
  -5  -5   9   28.50    2.60
   5  -5  -9   32.20    3.30
  -5   5   9   30.20    1.90
   5   5  -9   24.90    2.40
  -4  -5   9   36.10    2.90
   4  -5  -9   28.40    3.40
  -4  -5   9   30.10    1.90
  -4   5   9   32.70    2.00
   4   5  -9   33.50    2.70
   3  -5  -9    0.20    0.30
   3  -5  -9   -1.10    1.30
  -3  -5   9    1.20    0.90
  -3  -5   9    0.00    0.50
  -3   5   9    0.50    0.40
   3   5  -9   -0.20    1.00
   2  -5  -9   31.90    2.00
  -2  -5   9   31.40    3.00
  -2  -5   9   31.10    2.00
   2  -5  -9   32.50    3.50
   2   5  -9   34.70    2.60
  -2   5   9   33.40    2.10
  -1  -5   9  129.49    5.70
   1  -5  -9  117.19    8.20
   1  -5  -9  128.39    6.60
   1   5  -9  136.69    7.20
  -1   5   9  131.19    7.00
   0  -5  -9  200.18    9.60
   0  -5   9  196.18    8.10
   0  -5  -9  170.98   11.50
   0   5   9  182.48   10.30
   0   5  -9  202.88   10.40
  -1  -5  -9   88.59    4.50
   1  -5   9   86.89    4.10
  -1  -5  -9   73.89    5.90
   1   5   9   81.39    4.70
  -1   5  -9   81.59    4.70
   2  -5   9   -0.40    0.70
  -2  -5  -9    0.00    0.40
  -2  -5  -9    0.20    1.50
   2   5   9   -0.50    0.60
  -2   5  -9   -0.30    0.50
  -3  -5  -9    1.40    0.50
  -3  -5  -9    3.60    1.80
   3   5   9    3.30    0.90
  -3   5  -9    2.90    0.90
  -4  -5  -9   32.90    3.50
  -4  -5  -9   35.60    2.20
   4   5   9   33.90    2.80
  -4   5  -9   34.80    2.30
  -5  -5  -9    6.60    2.20
  -5  -5  -9    6.10    1.20
   5   5   9    6.70    1.90
  -6  -5  -9    0.60    0.50
  -6  -5  -9    1.20    1.20
   6   5   9   -0.10    1.10
  -7  -5  -9    1.50    1.20
  -7  -5  -9   -0.20    0.40
   7   5   9    1.00    1.30
  -8  -5  -9    9.80    1.30
  -8  -5  -9   12.30    2.10
   8   5   9   10.40    2.60
  -9  -5  -9   32.30    2.90
  -9  -5  -9   33.50    2.30
   9   5   9   28.70    3.50
 -10  -5  -9    4.30    1.10
 -10  -5  -9    7.00    1.70
  10   5   9    4.70    1.60
 -11  -5  -9    1.10    0.80
 -11  -5  -9    0.10    0.40
  11   5   9   -0.80    1.10
  20   6  -9    1.10    0.90
  19   6  -9    6.80    1.80
 -18  -6   9   21.80    1.70
 -17  -6   9   68.19    3.80
 -16  -6   9   51.09    3.00
 -15  -6   9   10.30    1.10
  15   6  -9    2.60    1.00
  14  -6  -9    6.50    3.20
 -14  -6   9    4.80    0.90
 -13  -6   9   -0.20    0.30
  13  -6  -9   -0.30    2.10
  13   6  -9    0.10    0.70
  12  -6  -9    4.60    2.50
 -12  -6   9    0.80    0.30
 -12   6   9    0.60    0.50
  12   6  -9   -0.10    0.60
  11  -6  -9   -0.20    2.00
 -11  -6   9   -0.20    0.30
 -11   6   9    0.00    0.50
 -10  -6   9   13.30    1.20
  10  -6  -9   13.50    2.80
  10  -6  -9    8.10    2.50
 -10   6   9   12.00    1.20
   9  -6  -9    4.80    1.70
   9  -6  -9    5.70    2.20
  -9  -6   9    5.80    0.90
  -9   6   9    5.80    0.90
   8  -6  -9    0.60    1.70
  -8  -6   9    0.60    0.30
   8  -6  -9    1.20    1.40
  -8   6   9    1.40    0.50
   7  -6  -9    8.50    2.50
  -7  -6   9    5.40    1.30
  -7  -6   9    6.70    0.90
   7   6  -9    3.90    1.20
  -7   6   9    7.20    0.90
   6  -6  -9    3.00    1.60
  -6  -6   9    0.50    1.00
  -6   6   9    2.30    0.50
   6   6  -9    2.10    0.90
   5  -6  -9   48.20    4.10
  -5  -6   9   48.50    3.60
   5   6  -9   40.00    3.40
  -5   6   9   50.39    2.80
   4  -6  -9   42.00    4.20
  -4  -6   9   46.10    3.70
   4   6  -9   50.79    3.70
  -4   6   9   53.79    2.90
   3  -6  -9    0.90    1.50
  -3  -6   9    3.00    1.20
   3   6  -9    3.90    1.20
  -3   6   9    2.80    0.70
   2  -6  -9    6.60    1.00
  -2  -6   9    8.00    1.90
   2  -6  -9    8.30    2.60
  -2   6   9    7.80    0.90
   2   6  -9    8.00    1.80
   1  -6  -9    0.90    1.50
   1  -6  -9    1.10    0.40
  -1   6   9    2.90    0.70
   1   6  -9    1.10    0.80
   0  -6  -9    5.70    1.00
   0  -6  -9    5.20    1.80
   0   6   9    7.00    0.90
   0   6  -9    4.20    1.20
  -1  -6  -9   13.10    1.30
  -1  -6  -9   12.00    2.80
   1   6   9   11.50    1.20
  -1   6  -9   11.80    1.40
  -2  -6  -9   -0.70    1.40
  -2  -6  -9   -0.20    0.40
   2  -6   9    0.50    0.70
   2   6   9    0.00    0.50
  -2   6  -9   -0.30    0.60
  -3  -6  -9    1.00    1.50
  -3  -6  -9    0.70    0.40
  -3   6  -9    1.10    0.60
   3   6   9    0.30    0.70
  -4  -6  -9    0.20    0.40
  -4  -6  -9   -0.20    1.30
   4   6   9   -0.40    0.80
  -4   6  -9   -0.50    0.50
  -5  -6  -9    7.30    2.20
  -5  -6  -9    7.00    1.20
   5   6   9    4.40    1.20
  -6  -6  -9   11.40    1.40
  -6  -6  -9   14.50    2.30
   6   6   9   13.20    2.30
  -7  -6  -9   61.59    4.50
  -7  -6  -9   60.49    3.50
   7   6   9   54.79    4.50
  -8  -6  -9   66.79    3.90
  -8  -6  -9   75.09    4.90
   8   6   9   62.39    5.10
  -9  -6  -9   25.40    2.50
  -9  -6  -9   23.90    1.90
   9   6   9   20.60    3.10
 -10  -6  -9   19.80    1.60
  10   6   9   14.90    2.70
 -11  -6  -9    3.00    0.90
  11   6   9    1.80    1.20
  19   7  -9    2.90    1.00
 -18  -7   9   33.20    2.10
 -17  -7   9   36.50    2.40
 -16  -7   9   36.70    2.40
 -15  -7   9   26.60    1.90
 -14  -7   9    1.80    0.50
  14   7  -9    0.60    0.80
 -13  -7   9    0.80    0.40
  13   7  -9    0.40    0.80
 -13   7   9    0.90    0.70
 -12  -7   9    0.00    0.30
  12  -7  -9    1.40    2.30
  12   7  -9    0.30    0.70
 -12   7   9   -0.90    0.50
  11  -7  -9   15.90    3.70
 -11  -7   9   13.20    1.20
 -11   7   9    7.90    1.30
  10  -7  -9    0.00    1.60
  10  -7  -9   -2.20    1.90
 -10  -7   9    0.30    0.30
 -10   7   9    0.10    0.50
   9  -7  -9    3.40    2.20
   9  -7  -9    3.70    1.70
  -9   7   9    4.00    0.90
   8  -7  -9   13.80    3.10
   8  -7  -9   10.80    2.60
  -8  -7   9    9.80    1.10
  -8   7   9   10.30    1.10
   7  -7  -9    1.60    1.90
   7  -7  -9    0.90    1.60
  -7   7   9    1.90    0.50
   6  -7  -9    8.30    2.50
   6  -7  -9    7.90    2.00
   6   7  -9    7.60    1.80
  -6   7   9    8.50    1.00
   5  -7  -9    5.30    1.80
   5   7  -9    4.60    1.40
  -5   7   9    7.30    0.90
   4  -7  -9    9.30    2.70
  -4   7   9    7.60    0.90
   4   7  -9    5.00    1.50
   3  -7  -9   13.50    2.80
   3   7  -9   13.40    2.20
  -3   7   9   10.00    1.00
   2  -7  -9    2.60    1.60
  -2   7   9    2.90    0.80
   2   7  -9    2.80    1.10
   1  -7  -9    9.00    2.70
   1  -7  -9   10.00    1.10
  -1   7   9    9.40    1.00
   1   7  -9    8.80    1.50
   0  -7  -9    3.30    1.00
   0  -7  -9    2.20    1.70
   0   7  -9    2.70    0.80
   0   7   9    3.50    0.80
  -1  -7  -9   -1.10    1.50
  -1  -7  -9   -0.30    0.40
  -1   7  -9    0.20    0.70
   1   7   9    0.70    0.50
   2  -7   9   11.70    1.70
  -2  -7  -9    9.40    2.70
  -2  -7  -9    9.20    1.30
   2   7   9   11.30    1.30
  -2   7  -9   12.70    1.40
  -3  -7  -9   -0.30    0.40
   3  -7   9   -0.30    0.80
  -3  -7  -9   -0.60    1.60
  -3   7  -9   -0.20    0.60
   3   7   9    0.00    0.60
  -4  -7  -9    0.50    0.50
  -4  -7  -9    0.90    1.40
   4   7   9    1.00    0.90
  -4   7  -9    1.90    0.70
  -5  -7  -9    4.30    1.20
  -5  -7  -9    2.50    1.40
  -5   7  -9    3.80    1.10
   5   7   9    3.90    1.20
  -6  -7  -9   28.50    2.90
  -6  -7  -9   30.20    2.20
   6   7   9   27.80    2.90
  -7  -7  -9   40.90    2.60
  -7  -7  -9   38.60    3.30
   7   7   9   37.80    3.60
  -8  -7  -9   41.90    2.60
  -8  -7  -9   40.30    3.20
   8   7   9   35.70    3.80
  -9  -7  -9   40.60    2.50
  -9  -7  -9   37.40    3.00
   9   7   9   33.50    3.60
 -10  -7  -9    8.00    1.10
  10   7   9    7.00    2.20
 -17  -8   9   11.70    1.20
  17   8  -9    5.50    1.60
 -16  -8   9   11.10    1.20
  16   8  -9    5.40    1.50
 -15  -8   9    1.70    0.50
  15   8  -9    1.20    0.80
 -14  -8   9    0.70    0.40
  14   8  -9    0.60    0.80
 -13  -8   9    0.60    0.40
  13   8  -9    0.40    0.70
 -13   8   9    0.10    0.60
 -12  -8   9    7.80    1.10
 -12   8   9    4.10    1.10
  12   8  -9    2.00    0.90
  11  -8  -9   -1.50    1.50
 -11  -8   9    0.20    0.40
 -11   8   9   -0.10    0.50
 -10  -8   9   30.10    1.90
  10  -8  -9   23.50    3.60
 -10   8   9   27.70    2.00
  -9  -8   9   25.80    1.70
   9  -8  -9   23.70    4.40
   9  -8  -9   19.50    3.30
  -9   8   9   21.80    1.80
   8  -8  -9    3.40    1.80
   8  -8  -9    4.10    2.50
  -8   8   9    3.50    0.90
   7  -8  -9    9.70    3.00
   7  -8  -9   11.20    2.90
  -7   8   9    9.60    1.10
   6  -8  -9    1.90    1.80
   6  -8  -9    1.90    1.90
   6   8  -9    2.10    1.20
  -6   8   9    3.50    0.80
   5  -8  -9    3.50    1.80
   5  -8  -9    2.40    2.10
   5   8  -9    4.60    1.50
  -5   8   9    5.50    0.90
   4  -8  -9    4.10    2.20
   4  -8  -9    2.50    1.70
   4   8  -9    8.80    2.10
  -4   8   9    4.60    0.90
   3  -8  -9    3.20    2.20
   3  -8  -9    1.50    1.60
  -3   8   9    2.60    0.80
   3   8  -9    3.00    1.20
   2  -8  -9    9.80    2.80
   2  -8  -9   11.20    3.20
   2   8  -9   10.10    1.70
  -2   8   9    8.90    1.00
   1  -8  -9    2.20    1.70
  -1   8   9    2.90    0.60
   1   8  -9    7.00    1.40
   0  -8  -9   17.20    3.20
   0  -8  -9   23.00    1.70
   0   8  -9   28.50    2.10
   0   8   9   24.20    1.80
   1  -8   9   31.70    2.60
  -1  -8  -9   27.70    3.60
  -1  -8  -9   29.00    2.10
   1   8   9   29.00    2.10
  -1   8  -9   33.20    2.30
  -2  -8  -9   -0.80    0.40
   2  -8   9    0.00    0.80
  -2  -8  -9   -0.40    1.60
  -2   8  -9   -0.50    0.60
   2   8   9    0.20    0.50
   3  -8   9    6.00    1.70
  -3  -8  -9    5.00    1.20
  -3  -8  -9    5.90    1.80
   3   8   9    6.10    1.40
  -3   8  -9    6.60    1.20
  -4  -8  -9    0.90    1.30
  -4  -8  -9    0.30    0.50
   4   8   9    0.60    0.90
  -4   8  -9    0.30    0.60
  -5  -8  -9    0.10    0.40
  -5  -8  -9    0.50    1.10
   5   8   9    1.00    1.00
  -5   8  -9    1.00    0.60
  -6  -8  -9    1.20    0.50
  -6  -8  -9    2.10    1.00
   6   8   9    3.20    1.20
  -7  -8  -9   10.90    1.40
  -7  -8  -9   11.50    1.80
   7   8   9    9.40    2.20
  -8  -8  -9   11.20    1.60
  -8  -8  -9   12.70    1.30
   8   8   9   11.00    2.40
  16   9  -9    0.30    0.70
 -15  -9   9    0.10    0.40
  15   9  -9    0.30    0.80
 -14  -9   9    1.70    0.50
  14   9  -9    1.50    0.80
 -13  -9   9   -0.50    0.30
  13   9  -9    0.80    0.80
 -13   9   9   -0.50    0.60
 -12  -9   9    0.10    0.40
 -12   9   9    0.40    0.60
 -11  -9   9   12.80    1.30
  11  -9  -9   11.60    3.30
 -11   9   9   13.30    1.40
  10  -9  -9    7.20    2.30
 -10   9   9    7.10    1.10
   9  -9  -9   35.20    4.30
  -9   9   9   35.50    2.40
   8  -9  -9   52.99    5.20
  -8   9   9   53.69    3.30
   7  -9  -9    4.40    2.10
  -7   9   9    6.10    1.00
   6  -9  -9    1.20    1.80
  -6   9   9    0.00    0.50
   6   9  -9    0.70    1.30
   5  -9  -9    2.10    1.80
   5   9  -9    2.00    1.30
  -5   9   9    2.10    0.60
   4  -9  -9    1.20    1.70
   4   9  -9    2.70    1.20
  -4   9   9    2.70    0.90
   3  -9  -9    1.20    1.70
  -3   9   9    0.50    0.50
   3   9  -9    0.50    1.00
   2  -9  -9    4.10    1.80
   2   9  -9    6.20    1.50
  -2   9   9    4.80    1.00
   1  -9  -9   49.40    4.80
  -1  -9   9   60.09    3.80
  -1   9   9   53.79    3.30
   1   9  -9   55.89    3.50
   0  -9  -9   31.30    3.80
   0  -9   9   37.30    2.90
   0   9  -9   39.00    2.60
   0   9   9   34.60    2.40
  -1  -9  -9    7.40    1.20
   1  -9   9    8.40    1.60
  -1  -9  -9    5.70    1.90
  -1   9  -9    8.20    1.30
   1   9   9    7.30    1.20
   2  -9   9   15.10    2.00
  -2  -9  -9   14.50    1.40
  -2  -9  -9   10.40    2.80
   2   9   9   11.40    1.40
  -2   9  -9   13.30    1.50
  -3  -9  -9   -0.40    1.20
   3  -9   9    1.50    1.00
  -3  -9  -9    0.30    0.40
   3   9   9    0.00    0.70
  -3   9  -9    0.50    0.60
  -4  -9  -9    0.10    0.40
  -4  -9  -9   -0.10    1.00
  -4   9  -9    0.20    0.60
   4   9   9    0.20    0.80
  -5  -9  -9    2.10    0.60
  -5  -9  -9    2.00    1.00
  -5   9  -9    3.70    1.10
   5   9   9    2.20    1.00
  -6  -9  -9    0.00    0.40
  -6  -9  -9    1.30    0.80
   6   9   9    0.20    1.00
  -7  -9  -9   -0.20    0.30
   7   9   9    0.00    1.00
  14  10  -9    6.00    1.60
  13  10  -9    6.30    1.50
 -13  10   9    8.30    1.20
 -12  10   9    0.60    0.60
  11 -10  -9   -0.30    2.10
 -11  10   9    3.50    1.10
  10 -10  -9   42.10    4.80
 -10  10   9   37.20    2.60
   9 -10  -9   40.60    4.80
  -9  10   9   45.20    2.90
   8 -10  -9   17.60    3.40
  -8  10   9   18.00    1.60
   7 -10  -9   14.40    3.60
   7  10  -9   12.70    2.50
  -7  10   9   14.50    1.40
   6 -10  -9    5.70    2.10
  -6  10   9    7.50    1.10
   6  10  -9    6.10    1.50
   5 -10  -9    6.00    2.10
   5  10  -9    4.70    1.30
  -5  10   9    8.40    1.10
   4 -10  -9    5.60    2.10
  -4  10   9    7.60    1.10
   4  10  -9    6.70    1.70
   3 -10  -9    3.20    1.80
  -3 -10   9    6.00    1.30
  -3  10   9    5.80    1.10
   3  10  -9    6.50    1.40
   2 -10  -9   15.50    3.20
  -2 -10   9   15.00    1.80
   2  10  -9   15.60    1.70
  -2  10   9   16.30    1.50
   1 -10  -9   13.40    3.00
  -1 -10   9   14.70    1.90
  -1  10   9   19.50    1.60
   1  10  -9   17.80    1.80
   0 -10   9   41.10    3.20
   0 -10  -9   33.70    3.80
   0  10   9   40.60    2.70
   0  10  -9   45.00    2.80
  -1 -10  -9   39.60    3.80
   1 -10   9   38.90    3.20
  -1  10  -9   41.70    2.60
   1  10   9   35.20    2.60
   2 -10   9    1.80    1.10
  -2 -10  -9    1.60    1.30
  -2  10  -9    4.20    1.10
  -3 -10  -9    0.20    1.00
   3 -10   9   -0.40    1.00
  -3 -10  -9    0.60    0.40
  -3  10  -9    0.30    0.60
   3  10   9   -0.10    0.70
  -4 -10  -9    9.40    1.20
   4 -10   9    6.10    2.00
  -4 -10  -9    9.00    1.50
   4  10   9    6.10    1.60
  -4  10  -9    7.70    1.20
  -5 -10  -9    6.40    1.10
   5  10   9    6.20    1.70
 -11  11   9    5.60    1.20
 -10  11   9   13.20    1.40
   9 -11  -9   22.40    3.80
  -9  11   9   23.40    1.90
  -8 -11   9   25.70    1.80
   8 -11  -9   19.50    3.50
   8  11  -9   22.70    2.60
  -8  11   9   27.60    2.00
   7 -11  -9    2.40    1.90
  -7 -11   9    7.00    1.00
   7  11  -9    4.20    1.20
  -7  11   9    5.90    1.10
   6 -11  -9    1.10    1.70
  -6 -11   9    0.30    0.60
   6  11  -9    0.20    0.90
  -6  11   9    0.70    0.60
  -5 -11   9    0.20    0.60
   5 -11  -9    0.30    1.70
  -5  11   9    0.70    0.50
   5  11  -9    0.00    0.80
  -4 -11   9    0.70    0.70
   4 -11  -9    1.50    1.70
  -4  11   9    0.30    0.60
   4  11  -9    0.70    0.70
   3 -11  -9    0.10    1.60
  -3 -11   9    0.00    0.70
  -3  11   9    0.10    0.60
   3  11  -9    0.50    0.70
  -2 -11   9    8.70    1.60
   2 -11  -9    2.90    1.70
  -2  11   9    5.70    1.20
   2  11  -9    7.20    1.20
  -1 -11   9   29.70    2.60
   1 -11  -9   22.20    3.10
  -1  11   9   26.80    2.10
   1  11  -9   31.40    2.10
   0 -11   9   22.10    2.30
   0 -11  -9   19.90    2.90
   0  11  -9   27.20    1.90
   0  11   9   23.70    1.90
   1 -11   9   12.20    1.90
  -1 -11  -9   10.90    1.90
  -1  11  -9   13.10    1.30
   1  11   9   12.90    1.50
   2  11   9    3.40    0.90
  -2  11  -9    5.70    1.10
  15   0 -10    2.80    1.20
  14   0 -10    1.40    1.10
  13   0 -10    4.10    1.20
  12   0 -10    7.60    1.90
  11   0 -10    0.30    1.10
  -6   0  10  136.89    9.00
   5   0 -10    1.30    1.80
  -5   0  10    0.90    0.90
   4   0 -10  152.28   11.00
  -4   0  10  150.78    9.60
  -3   0  10    1.70    0.80
   3   0 -10    2.60    1.70
  -1   0  10    2.60    0.70
   0   0  10   45.50    2.40
   1   0  10    0.50    0.60
   2   0  10    9.40    1.40
   3   0  10    5.90    1.40
   4   0  10    1.30    0.70
   5   0  10    1.30    0.70
  -5   0 -10    3.50    1.00
   6   0  10   54.89    2.90
  -6   0 -10   50.29    3.00
  -7   0 -10   83.09    4.50
  -8   0 -10   28.80    2.00
  18   1 -10   36.70    3.20
  17   1 -10    9.80    2.10
  16   1 -10    2.50    1.10
  15   1 -10    1.30    1.00
  14   1 -10    1.10    0.90
  13   1 -10    5.20    1.10
  12   1 -10    4.20    1.10
  11   1 -10    0.40    0.90
  10   1 -10   14.30    2.00
   8  -1 -10  109.29    7.80
  -8   1  10   87.99    7.00
   7  -1 -10   43.00    4.20
  -7   1  10   34.60    3.60
  -6  -1  10    2.10    1.70
   6  -1 -10    4.50    1.60
   5  -1 -10  184.58   10.90
  -5  -1  10  134.19   11.10
   2  -1 -10   78.79    5.10
  -1  -1  10  135.59    5.80
  -1   1  10  138.49    5.80
   0  -1  10   22.70    1.70
   0   1  10   28.30    1.70
   1  -1  10    0.90    0.60
   1   1  10    1.40    1.10
   1   1  10    1.10    0.60
   2  -1  10    6.20    0.90
   2   1  10    7.40    1.50
   2   1  10    5.70    1.30
   3  -1  10    7.70    1.50
   3   1  10   10.10    1.40
   3   1  10   10.00    2.30
  -4  -1 -10    0.80    0.40
   4  -1  10    0.50    0.70
   4   1  10    0.40    1.20
   4   1  10    1.50    0.70
   5  -1  10    0.50    0.60
  -5  -1 -10    0.60    0.40
   5   1  10    2.10    1.30
   5   1  10    1.10    0.70
  -6  -1 -10    7.50    1.10
   6  -1  10    3.60    0.80
  -6   1 -10    4.50    1.00
   6   1  10    3.20    1.50
   7  -1  10   20.00    2.00
  -7  -1 -10   20.30    1.60
  -7   1 -10   17.70    1.50
  -8  -1 -10   67.79    3.80
  -9  -1 -10   50.99    3.10
 -10  -1 -10    0.00    0.40
  20   2 -10    1.40    1.10
  19   2 -10    0.30    1.10
  18   2 -10    4.90    1.30
  17   2 -10    6.00    1.90
  16   2 -10   -0.10    0.90
  15   2 -10    1.50    0.90
  14   2 -10    7.80    1.60
  13   2 -10    1.80    0.90
  12   2 -10    0.60    0.80
  11   2 -10   22.30    2.10
  10   2 -10   86.79    5.20
   9   2 -10   72.49    4.50
  -8  -2  10  194.38   10.10
   6  -2 -10   19.40    1.90
  -6  -2  10   18.10    2.30
  -5  -2  10   62.39    4.20
   4  -2 -10   22.60    3.40
   3  -2 -10  148.09    9.30
   2  -2 -10  166.28   11.00
  -2  -2  10  189.38    7.60
  -2   2  10  189.38    7.50
   1  -2 -10  114.89    7.90
  -1  -2  10  121.39    5.30
  -1   2  10  128.99    7.00
  -1   2  10  124.09    5.30
   0  -2 -10  152.78    9.80
   0  -2  10  160.88    6.70
   0   2  10  160.18    6.60
   1  -2  10   47.90    2.60
  -1  -2 -10   47.70    4.20
   1   2  10   50.99    3.40
   1   2  10   43.80    2.50
  -2  -2 -10    1.90    1.40
   2  -2  10    1.60    0.70
  -2  -2 -10    0.70    0.40
   2   2  10    0.90    0.60
   2   2  10    2.70    1.00
  -3  -2 -10    4.20    1.00
   3  -2  10    3.10    0.80
  -3  -2 -10    5.80    1.70
   3   2  10    4.20    1.20
   3   2  10    4.20    0.70
  -4  -2 -10   14.30    1.40
   4  -2  10   14.20    1.60
   4   2  10   14.90    2.50
   5  -2  10    8.80    1.50
  -5  -2 -10    5.20    1.10
   5   2  10    3.40    1.30
   6  -2  10    0.30    0.70
  -6  -2 -10    0.30    0.40
   6   2  10    0.30    1.20
  -6   2 -10   -0.40    0.40
  -7  -2 -10   16.40    1.50
   7   2  10   12.50    2.70
  -8  -2 -10    9.80    1.20
   8   2  10    4.20    1.60
  -9  -2 -10   -0.10    0.40
 -10  -2 -10   -0.30    0.40
 -11  -2 -10    0.80    0.40
  21   3 -10    1.70    1.10
  20   3 -10    0.60    1.10
  19   3 -10    0.10    1.00
  18   3 -10    0.40    1.00
  17   3 -10   -0.60    0.90
  16   3 -10    1.10    1.00
  15   3 -10    8.30    1.60
 -14  -3  10   29.20    1.80
 -13  -3  10    3.40    0.80
  13   3 -10    1.50    0.80
 -12  -3  10   23.40    1.60
  12  -3 -10   29.80    3.20
  11   3 -10   61.59    3.90
  10   3 -10   83.49    5.00
   9   3 -10  153.78    8.60
   8   3 -10   49.40    3.30
  -7  -3  10    1.10    0.90
   7   3 -10    1.00    1.00
  -6  -3  10    0.50    0.90
   6  -3 -10    2.10    1.70
   6   3 -10   -0.70    1.00
   5  -3 -10   13.10    3.00
  -5  -3  10   15.00    2.10
  -5   3  10   11.20    1.20
   5   3 -10   11.90    2.20
   4  -3 -10    0.80    1.60
  -4  -3  10   -0.70    0.70
  -4   3  10    0.30    0.50
   4   3 -10    0.10    1.10
   3  -3 -10    0.40    1.60
  -3  -3  10    0.30    0.50
  -3   3  10    0.20    0.50
   3   3 -10    1.40    0.90
  -2  -3  10   88.89    4.00
   2  -3 -10   77.19    6.20
  -2   3  10   87.59    3.90
  -2   3  10   92.29    5.10
   2   3 -10   89.99    5.10
   1  -3 -10  266.97   16.40
   1  -3 -10  294.57   14.00
  -1  -3  10  286.17   11.50
  -1   3  10  287.17   11.40
   1   3 -10  285.17   15.00
  -1   3  10  268.07   15.10
   0  -3 -10  180.18    9.20
   0  -3 -10  182.98   11.20
   0  -3  10  180.68    7.70
   0   3  10  184.08    7.60
   0   3 -10  181.08    9.90
   0   3  10  189.48   10.10
  -1  -3 -10  148.99    9.20
   1  -3  10  148.19    6.30
  -1  -3 -10  142.69    7.40
   1   3  10  161.48    8.20
  -1   3 -10  128.29    7.80
   1   3  10  145.19    6.20
  -2  -3 -10   27.80    1.90
  -2  -3 -10   26.90    3.30
   2  -3  10   26.80    2.00
   2   3  10   30.60    2.50
   2   3  10   24.20    1.90
   3  -3  10    3.50    0.80
  -3  -3 -10    5.10    1.00
  -3  -3 -10    4.10    1.60
   3   3  10    4.80    1.20
  -4  -3 -10   29.50    2.00
   4  -3  10   27.80    2.20
  -4  -3 -10   27.90    3.20
   4   3  10   29.30    2.90
  -5  -3 -10   21.70    2.80
  -5  -3 -10   20.50    1.70
   5  -3  10   22.20    2.00
   5   3  10   20.70    2.80
  -6  -3 -10    4.30    1.30
  -6  -3 -10    2.10    0.50
   6   3  10    2.60    1.30
  -7  -3 -10   -0.10    0.40
  -7  -3 -10    1.50    1.20
   7   3  10    0.80    1.30
  -8  -3 -10    0.30    0.50
   8   3  10    0.30    1.40
  -9  -3 -10   -0.40    0.40
   9   3  10    0.00    1.30
 -10  -3 -10   -0.30    0.40
  10   3  10   -0.40    0.90
 -11  -3 -10    0.10    0.40
  21   4 -10    0.60    1.00
  20   4 -10   -0.50    1.00
  19   4 -10    2.90    1.20
  18   4 -10    1.10    1.00
  17   4 -10   -0.80    0.80
 -16  -4  10    1.50    0.40
  16   4 -10    1.80    1.00
 -15  -4  10   22.50    1.50
 -14  -4  10   20.10    1.40
  13  -4 -10    0.50    1.90
 -13  -4  10    0.90    0.30
  13   4 -10    1.20    0.80
 -12  -4  10   17.20    1.30
  12  -4 -10   22.20    3.00
 -11  -4  10   85.89    4.40
  11  -4 -10   97.69    6.20
 -11   4  10   78.19    4.90
 -10  -4  10  176.08    8.80
 -10  -4  10  177.38    9.50
 -10   4  10  175.88    9.60
  -9  -4  10  108.39    6.40
  -9   4  10  106.29    6.00
  -8  -4  10   64.19    4.30
   8  -4 -10   54.39    5.00
  -8   4  10   65.19    3.70
   7  -4 -10   25.00    3.50
  -7   4  10   26.80    1.80
  -6  -4  10    0.80    0.90
   6  -4 -10    0.00    1.50
   6   4 -10    0.10    1.00
  -6   4  10    0.70    0.50
  -5  -4  10   99.79    4.50
  -5  -4  10   99.49    6.00
   5  -4 -10  103.09    7.00
   5   4 -10  101.79    6.10
  -5   4  10  107.49    5.70
   4  -4 -10   -0.70    1.50
   4  -4 -10    0.10    0.30
  -4  -4  10   -0.20    0.80
  -4  -4  10    0.20    0.50
   4   4 -10   -0.10    1.00
  -4   4  10   -0.30    0.40
   3  -4 -10   20.00    3.30
  -3  -4  10   20.60    1.70
   3  -4 -10   26.90    1.70
   3   4 -10   26.40    2.30
  -3   4  10   24.60    1.80
  -2  -4  10   58.39    3.10
   2  -4 -10   63.59    3.40
   2  -4 -10   53.39    5.00
   2   4 -10   66.39    3.90
  -2   4  10   59.59    2.90
  -2   4  10   61.69    3.60
   1  -4 -10   85.49    6.80
  -1  -4  10  101.29    4.60
   1  -4 -10  102.99    5.20
  -1   4  10   99.19    5.60
   1   4 -10  106.09    5.60
  -1   4  10   97.99    4.40
   0  -4 -10  176.18    8.80
   0  -4  10  173.98    7.40
   0  -4 -10  165.98   10.80
   0   4 -10  181.28    9.50
   0   4  10  172.78    7.30
   0   4  10  175.58    9.60
  -1  -4 -10   92.89    6.50
  -1  -4 -10   88.89    4.80
   1  -4  10   91.69    4.30
  -1   4 -10   87.09    5.10
   1   4  10   93.09    5.30
  -2  -4 -10   18.90    1.50
  -2  -4 -10   18.70    3.20
   2  -4  10   22.10    1.90
  -2   4 -10   17.90    1.50
   2   4  10   20.00    2.00
   3  -4  10    0.30    0.70
  -3  -4 -10    2.20    1.50
  -3  -4 -10    1.50    0.40
   3   4  10    2.00    1.00
  -4  -4 -10   23.60    3.10
  -4  -4 -10   24.30    1.80
   4  -4  10   21.60    2.10
   4   4  10   20.00    2.50
  -5  -4 -10   27.60    3.10
  -5  -4 -10   23.00    1.80
   5   4  10   25.20    2.90
  -6  -4 -10    2.70    1.30
   6   4  10    3.90    1.50
  -7  -4 -10   -1.10    1.00
  -7  -4 -10   -0.60    0.40
   7   4  10   -0.40    1.30
  -8  -4 -10    1.50    0.50
  -8  -4 -10    2.10    1.10
   8   4  10    1.60    1.40
  -9  -4 -10   12.60    2.10
  -9  -4 -10   13.00    1.50
   9   4  10   13.40    2.80
 -10  -4 -10   -0.10    0.40
  10   4  10    1.00    1.20
 -11  -4 -10    0.10    0.40
  11   4  10    0.30    0.80
  20   5 -10    5.90    1.80
  19   5 -10    1.30    1.00
  18   5 -10    2.90    1.10
 -17  -5  10    4.00    0.90
  17   5 -10    1.30    0.90
 -16  -5  10    3.50    0.80
  16   5 -10    1.50    1.00
 -15  -5  10   -0.20    0.30
  15   5 -10    0.30    0.90
 -14  -5  10    6.50    0.90
  14   5 -10    2.50    0.90
  13  -5 -10    1.00    2.00
 -13  -5  10    0.30    0.30
  13   5 -10   -0.30    0.70
  12  -5 -10    1.70    1.90
 -12  -5  10    0.20    0.30
  12   5 -10   -0.20    0.70
 -12   5  10   -0.10    0.50
  11  -5 -10   16.60    2.90
 -11  -5  10   15.60    1.20
 -11   5  10   15.50    1.50
 -10  -5  10   60.59    4.40
  10  -5 -10   70.19    5.30
 -10  -5  10   64.59    3.50
 -10   5  10   66.79    3.90
  -9  -5  10   80.69    5.20
   9  -5 -10   76.09    6.10
  -9   5  10   89.59    4.80
  -8  -5  10   24.50    2.70
   8  -5 -10   24.60    3.40
  -8   5  10   31.90    2.00
   7  -5 -10    0.30    1.50
  -7  -5  10   -1.00    0.80
  -7   5  10    0.40    0.40
   7   5 -10   -0.30    0.80
  -6  -5  10   36.30    3.20
   6  -5 -10   39.20    4.00
   6   5 -10   33.70    3.00
  -6   5  10   42.40    2.40
   5  -5 -10    2.00    1.60
  -5  -5  10    1.00    0.60
  -5  -5  10    2.30    1.10
   5   5 -10    1.40    1.10
  -5   5  10    2.40    0.60
   4  -5 -10   32.30    4.00
  -4  -5  10   34.00    2.20
  -4  -5  10   40.50    3.40
   4   5 -10   43.60    3.20
  -4   5  10   42.40    2.50
  -3  -5  10    0.10    0.60
  -3  -5  10    1.30    1.00
   3  -5 -10    0.30    1.50
   3  -5 -10   -0.10    0.30
   3   5 -10    1.30    1.00
  -3   5  10    0.50    0.40
   2  -5 -10   28.20    1.80
  -2  -5  10   27.50    2.00
   2  -5 -10   23.70    3.40
   2   5 -10   31.80    2.40
  -2   5  10   27.90    1.90
   1  -5 -10   82.49    4.40
   1  -5 -10   69.19    5.90
  -1  -5  10   83.39    3.90
   1   5 -10   88.39    4.80
  -1   5  10   80.99    4.70
  -1   5  10   80.79    3.70
   0  -5 -10   58.69    5.10
   0  -5 -10   64.29    3.50
   0  -5  10   64.19    3.40
   0   5  10   64.69    3.80
   0   5 -10   66.19    3.80
   1  -5  10   17.00    1.80
  -1  -5 -10   15.30    3.10
  -1  -5 -10   16.50    1.40
  -1   5 -10   18.70    1.50
   1   5  10   15.80    1.70
   2  -5  10    1.80    0.80
  -2  -5 -10   -0.30    1.60
  -2  -5 -10   -0.30    0.40
   2   5  10    0.50    0.80
  -2   5 -10    0.40    0.50
  -3  -5 -10    0.00    1.40
  -3  -5 -10    0.60    0.40
  -3   5 -10    0.40    0.50
   3   5  10    0.50    0.80
  -4  -5 -10    7.00    1.20
  -4  -5 -10    8.50    2.40
   4   5  10    8.50    1.90
  -5  -5 -10    0.60    1.30
  -5  -5 -10    0.00    0.40
   5   5  10    1.00    1.10
  -6  -5 -10    2.30    0.60
  -6  -5 -10    6.60    2.00
   6   5  10    3.00    1.30
  -7  -5 -10    2.30    0.60
  -7  -5 -10    8.80    2.00
   7   5  10    4.30    1.60
  -8  -5 -10    8.70    2.00
  -8  -5 -10    6.60    1.20
   8   5  10    6.20    1.90
  -9  -5 -10    6.30    1.20
  -9  -5 -10    6.40    1.80
   9   5  10    8.80    2.50
 -10  -5 -10   12.20    1.30
  10   5  10    8.90    2.30
  20   6 -10    1.00    0.90
  19   6 -10    8.10    1.80
  18   6 -10   12.30    2.10
 -17  -6  10   14.80    1.40
 -16  -6  10    4.70    1.10
  16   6 -10    1.90    1.00
 -15  -6  10    5.40    1.00
  15   6 -10    0.90    0.90
 -14  -6  10   -0.30    0.30
  14  -6 -10   -3.10    2.10
  14   6 -10    0.10    0.80
  13  -6 -10   13.50    3.40
 -13  -6  10    9.10    1.10
  12  -6 -10    2.60    2.50
 -12  -6  10    1.00    0.40
  12   6 -10    0.80    0.80
 -12   6  10    1.40    0.70
 -11  -6  10    4.90    0.80
  11  -6 -10    3.60    2.20
 -11   6  10    4.20    1.10
  10  -6 -10   20.60    3.30
 -10  -6  10   13.90    1.20
  10  -6 -10   13.40    3.00
 -10   6  10   12.50    1.30
   9  -6 -10   13.10    3.00
   9  -6 -10   12.90    2.90
   9   6 -10    7.30    1.50
  -9   6  10   12.40    1.20
   8  -6 -10    2.30    2.00
   8  -6 -10    4.00    1.80
   8   6 -10    0.90    0.80
  -8   6  10    3.30    0.80
   7  -6 -10    3.30    1.60
  -7   6  10    3.60    0.80
   7   6 -10    2.00    1.10
  -6  -6  10    6.20    1.50
   6  -6 -10    4.50    1.90
   6   6 -10    5.20    1.40
  -6   6  10    7.20    0.90
   5  -6 -10   34.60    4.00
  -5  -6  10   40.60    3.40
  -5   6  10   39.80    2.40
   5   6 -10   38.20    3.30
  -4  -6  10    8.40    2.00
  -4  -6  10    4.40    0.80
   4  -6 -10    5.30    1.90
   4   6 -10    8.80    2.10
  -4   6  10    7.60    0.90
  -3  -6  10    2.60    0.70
  -3  -6  10    2.70    1.20
   3  -6 -10    2.20    1.60
   3   6 -10    3.10    1.10
  -3   6  10    3.50    0.80
   2  -6 -10    1.90    1.70
  -2  -6  10    1.70    0.70
   2  -6 -10    1.80    0.40
  -2   6  10    2.30    0.50
   2   6 -10    2.50    0.90
   1  -6 -10   13.80    1.20
   1  -6 -10   11.90    3.00
  -1   6  10   12.40    1.20
   1   6 -10    9.90    1.50
   0  -6 -10   13.60    1.30
   0  -6 -10   11.80    3.00
   0   6 -10   13.30    1.50
   0   6  10   13.20    1.30
  -1  -6 -10    3.30    1.80
  -1  -6 -10    4.60    1.10
  -1   6 -10    4.90    1.10
   1   6  10    3.80    1.20
  -2  -6 -10    2.30    1.70
  -2  -6 -10    1.00    0.50
  -2   6 -10    1.90    0.60
   2   6  10    1.50    0.80
  -3  -6 -10   10.60    1.40
  -3  -6 -10   11.40    2.80
   3   6  10   12.20    1.90
  -3   6 -10   10.70    1.30
  -4  -6 -10    0.00    0.40
  -4  -6 -10    1.40    1.40
   4   6  10    1.10    1.00
  -5  -6 -10    8.80    2.40
  -5  -6 -10    7.20    1.30
   5   6  10    9.90    2.10
  -6  -6 -10    7.70    1.30
  -6  -6 -10    8.90    2.10
   6   6  10    8.90    2.40
  -7  -6 -10   20.30    2.50
  -7  -6 -10   21.20    1.80
   7   6  10   18.70    3.00
  -8  -6 -10   37.90    3.10
  -8  -6 -10   34.90    2.40
   8   6  10   31.10    3.60
  -9  -6 -10   18.90    1.60
  -9  -6 -10   20.00    2.20
   9   6  10   14.50    2.70
 -10  -6 -10    0.60    0.40
  10   6  10    0.40    1.10
  19   7 -10    2.50    1.00
  18   7 -10    6.60    1.70
  17   7 -10   11.70    1.90
  16   7 -10    3.90    1.10
 -15  -7  10   -0.10    0.40
  15   7 -10   -0.60    0.80
 -14  -7  10   -0.10    0.40
  14   7 -10    0.10    0.80
 -13  -7  10    3.30    1.00
 -13   7  10    2.00    0.80
  13   7 -10    0.80    0.80
 -12  -7  10    0.20    0.40
  12  -7 -10    0.70    2.60
  12   7 -10    0.30    0.80
 -12   7  10    0.30    0.60
  11  -7 -10    0.30    2.40
 -11  -7  10    0.60    0.40
  11   7 -10    0.50    0.80
 -11   7  10    0.20    0.60
 -10  -7  10    4.40    0.90
  10  -7 -10    2.80    1.90
  10  -7 -10   -0.10    2.10
 -10   7  10    3.10    1.00
  10   7 -10    2.40    0.90
   9  -7 -10    0.00    1.60
   9  -7 -10    0.80    1.90
   9   7 -10    0.50    0.80
  -9   7  10    0.40    0.50
   8  -7 -10    1.00    1.90
   8  -7 -10    2.50    1.80
  -8   7  10    1.40    0.50
   8   7 -10    2.60    1.10
   7  -7 -10   13.60    2.90
   7  -7 -10   14.20    3.20
  -7   7  10   12.70    1.20
   7   7 -10    8.90    2.20
   6  -7 -10    0.20    1.70
   6   7 -10   -0.70    1.20
  -6   7  10    0.50    0.50
   5  -7 -10    6.70    2.10
  -5   7  10    9.60    1.10
   5   7 -10    9.70    2.40
   4  -7 -10    0.30    1.70
   4   7 -10    2.10    1.20
  -4   7  10    0.90    0.50
   3  -7 -10    9.40    2.90
  -3   7  10   13.20    1.20
   3   7 -10   16.80    2.20
   2  -7 -10    1.60    1.80
   2   7 -10    1.80    0.90
  -2   7  10    0.70    0.50
   1  -7 -10   -1.00    1.70
   1  -7 -10    0.10    0.40
   1   7 -10   -0.10    0.70
  -1   7  10    0.00    0.50
   0  -7 -10    1.00    1.70
   0  -7 -10    1.60    0.50
   0   7  10    2.10    0.60
   0   7 -10    2.00    0.80
  -1  -7 -10    0.00    1.60
  -1  -7 -10   -0.10    0.40
   1  -7  10    2.10    0.90
  -1   7 -10    1.20    0.70
   1   7  10    0.70    0.60
  -2  -7 -10   -0.10    0.50
   2  -7  10    0.10    0.80
  -2  -7 -10    1.30    1.90
   2   7  10    0.70    0.80
  -2   7 -10    1.00    0.70
  -3  -7 -10    3.80    1.70
  -3  -7 -10    1.70    0.50
  -3   7 -10    4.00    1.10
   3   7  10    2.80    1.00
  -4  -7 -10   -0.20    1.40
  -4  -7 -10    0.00    0.40
   4   7  10   -0.10    0.90
  -4   7 -10    0.50    0.60
  -5  -7 -10    0.50    0.50
  -5  -7 -10    0.10    1.20
   5   7  10    0.60    1.10
  -6  -7 -10   13.20    1.50
  -6  -7 -10   13.00    2.20
   6   7  10   14.20    2.50
  -7  -7 -10   31.70    2.20
  -7  -7 -10   30.70    2.90
   7   7  10   29.80    3.40
  -8  -7 -10   17.10    2.10
  -8  -7 -10   16.90    1.50
   8   7  10   11.60    2.60
  -9  -7 -10    8.00    1.10
   9   7  10    3.30    1.40
  17   8 -10    1.10    1.00
  16   8 -10    1.80    0.90
 -15  -8  10   -0.10    0.30
  15   8 -10    0.50    0.80
 -14  -8  10    0.80    0.40
  14   8 -10    0.50    0.80
 -13  -8  10   -0.20    0.40
 -13   8  10   -0.80    0.60
  13   8 -10   -0.10    0.80
 -12  -8  10    0.00    0.40
 -12   8  10   -0.30    0.60
  12   8 -10   -0.50    0.80
  11  -8 -10   -0.30    1.80
  11   8 -10   -0.50    0.80
 -11   8  10   -0.30    0.50
  10  -8 -10    1.30    2.00
 -10   8  10    1.30    0.60
  10   8 -10    2.00    1.00
   9  -8 -10   27.60    4.10
  -9   8  10   29.30    2.00
   9   8 -10   22.50    2.60
   8  -8 -10    8.80    3.00
   8  -8 -10    9.60    3.20
   8   8 -10   11.00    2.30
  -8   8  10   12.50    1.30
   7  -8 -10    1.80    1.90
   7  -8 -10    2.00    2.20
  -7   8  10    1.10    0.60
   7   8 -10    1.80    1.40
   6  -8 -10    1.70    1.80
   6  -8 -10    0.80    2.20
   6   8 -10    1.00    1.40
  -6   8  10    1.30    0.50
   5  -8 -10   22.30    3.90
   5  -8 -10   19.60    3.50
  -5   8  10   24.90    1.80
   5   8 -10   26.40    2.80
   4  -8 -10    2.00    2.20
   4  -8 -10    0.80    1.80
  -4   8  10    1.60    0.50
   4   8 -10    1.10    1.20
   3  -8 -10    0.80    1.70
   3  -8 -10    1.20    2.20
  -3   8  10    0.70    0.50
   3   8 -10    2.90    1.10
   2  -8 -10    7.20    2.20
  -2   8  10   10.70    1.20
   2   8 -10   13.00    1.70
   1  -8 -10   21.80    3.60
  -1   8  10   29.70    2.10
   1   8 -10   30.60    2.30
   0  -8  10    2.00    0.90
   0  -8 -10    0.90    0.50
   0  -8 -10   -0.10    1.70
   0   8  10    1.60    0.60
   0   8 -10    1.70    0.80
  -1  -8 -10   -1.20    1.50
  -1  -8 -10   -1.00    0.40
   1  -8  10   -0.60    0.70
   1   8  10    0.60    0.60
  -1   8 -10   -0.40    0.70
  -2  -8 -10   -0.70    1.60
  -2  -8 -10   -1.00    0.40
   2  -8  10   -0.20    0.80
  -2   8 -10   -0.30    0.60
   2   8  10   -0.60    0.70
  -3  -8 -10   -0.80    0.40
  -3  -8 -10   -0.70    1.30
   3   8  10    0.00    0.90
  -3   8 -10   -0.30    0.60
  -4  -8 -10    1.50    1.30
  -4  -8 -10    0.70    0.50
   4   8  10   -0.20    0.90
  -4   8 -10    1.20    0.70
  -5  -8 -10    0.00    0.40
  -5  -8 -10    0.20    1.00
   5   8  10    1.00    1.10
  -6  -8 -10    5.60    1.70
  -6  -8 -10    4.50    1.10
   6   8  10    2.90    1.30
  -7  -8 -10    1.50    0.50
  -7  -8 -10    1.90    0.90
   7   8  10    1.50    1.30
  16   9 -10    0.30    0.90
  15   9 -10    1.20    0.90
  14   9 -10    1.40    1.00
  13   9 -10   -0.10    0.90
 -13   9  10    0.90    0.60
 -12   9  10    0.00    0.60
  12   9 -10    0.10    0.90
  11  -9 -10    3.70    2.30
  11   9 -10    3.80    1.20
 -11   9  10    2.40    0.70
  10  -9 -10   27.00    4.10
 -10   9  10   29.30    2.10
  10   9 -10   25.90    2.80
   9  -9 -10    5.60    2.10
  -9   9  10    6.60    1.10
   9   9 -10    5.40    1.60
   8  -9 -10    5.70    2.30
   8   9 -10   11.90    2.50
  -8   9  10    8.50    1.20
   7  -9 -10   18.30    3.60
   7   9 -10   22.30    3.00
  -7   9  10   21.40    1.70
   6  -9 -10    0.40    1.80
   6   9 -10    0.00    1.30
  -6   9  10   -0.10    0.50
   5  -9 -10   20.10    3.70
  -5   9  10   21.80    1.70
   5   9 -10   24.20    2.70
   4  -9 -10    0.30    1.80
   4   9 -10    0.30    1.10
  -4   9  10   -0.40    0.50
   3  -9 -10   14.90    3.30
   3   9 -10   22.30    2.10
  -3   9  10   22.10    1.70
   2  -9 -10    7.10    2.20
   2   9 -10    9.40    1.60
  -2   9  10    9.20    1.20
  -1  -9  10    8.50    1.50
   1  -9 -10    8.90    2.90
   1   9 -10    6.90    1.40
  -1   9  10    7.60    1.20
   0  -9  10   30.50    2.60
   0  -9 -10   25.80    3.60
   0   9 -10   32.80    2.30
   0   9  10   31.40    2.30
  -1  -9 -10    4.20    1.10
  -1  -9 -10    4.60    2.00
   1  -9  10    5.70    1.50
  -1   9 -10    4.50    1.20
   1   9  10    3.30    0.80
  -2  -9 -10   -0.70    1.30
   2  -9  10    0.30    0.90
  -2  -9 -10   -0.10    0.40
  -2   9 -10   -0.20    0.60
   2   9  10   -0.70    0.70
  -3  -9 -10    1.00    1.20
  -3  -9 -10    0.50    0.40
   3   9  10    0.40    0.80
  -3   9 -10    1.40    0.70
  -4  -9 -10    2.00    1.10
  -4  -9 -10    1.10    0.50
  -4   9 -10    1.80    0.70
   4   9  10    1.90    1.00
  -5  -9 -10    1.30    0.50
  -5  -9 -10    2.50    1.00
   5   9  10    1.40    1.00
  -6  -9 -10   -0.10    0.40
   6   9  10   -0.60    1.00
  14  10 -10    2.70    1.10
 -13  10  10    1.70    0.70
  13  10 -10    2.70    1.20
  12  10 -10    3.30    1.30
 -12  10  10    0.80    0.60
  11 -10 -10    5.30    2.30
 -11  10  10   10.30    1.30
  11  10 -10    9.70    2.20
  10 -10 -10   11.40    3.80
 -10  10  10   13.10    1.50
  10  10 -10   12.70    2.40
   9 -10 -10   29.60    4.30
   9  10 -10   33.60    3.30
  -9  10  10   36.00    2.40
   8 -10 -10   13.70    3.40
   8  10 -10   13.60    2.60
  -8  10  10   17.00    1.60
   7 -10 -10    1.40    1.90
   7  10 -10    0.50    1.30
  -7  10  10    0.50    0.60
   6 -10 -10    1.30    1.90
  -6  10  10    4.50    1.10
   6  10 -10    3.10    1.30
   5 -10 -10    2.10    1.90
   5  10 -10    1.80    1.10
  -5  10  10    4.20    1.10
   4 -10 -10    1.70    1.80
   4  10 -10    2.10    0.90
  -4  10  10    4.00    1.10
  -3 -10  10   -0.10    0.70
   3 -10 -10   -0.10    1.80
  -3  10  10    1.00    0.60
   3  10 -10    0.00    0.70
   2 -10 -10   11.50    3.10
  -2 -10  10   16.10    1.90
  -2  10  10   17.40    1.70
   2  10 -10   18.40    1.80
   1 -10 -10   34.30    3.90
  -1 -10  10   35.90    2.90
   1  10 -10   40.40    2.60
  -1  10  10   36.00    2.60
   0 -10 -10   11.90    2.90
   0 -10  10   12.00    1.90
   0  10  10   13.00    1.50
   0  10 -10   11.70    1.50
  -1 -10 -10   10.80    2.40
   1 -10  10    9.50    1.90
   1  10  10    9.20    1.50
  -1  10 -10    8.90    1.30
  -2 -10 -10    0.50    1.10
   2 -10  10    0.00    1.00
  -2  10 -10    0.10    0.60
   2  10  10    0.30    0.70
  -3 -10 -10    1.20    1.00
  -3 -10 -10    1.30    0.50
  -3  10 -10    0.70    0.60
   3  10  10    1.40    0.90
  -4 -10 -10    4.40    1.00
  10  11 -10   18.70    2.40
 -10  11  10   19.50    1.70
   9 -11 -10   11.60    3.20
  -9  11  10   14.40    1.50
   9  11 -10    7.80    2.10
  -8 -11  10    5.80    1.00
   8 -11 -10    2.70    2.00
   8  11 -10    3.10    1.20
  -8  11  10    4.40    1.20
  -7 -11  10    0.30    0.50
   7 -11 -10   -0.70    1.70
   7  11 -10   -1.10    0.90
  -7  11  10    0.20    0.60
  -6 -11  10    3.80    1.00
   6 -11 -10    3.70    2.00
  -6  11  10    2.70    0.70
   6  11 -10    4.70    1.40
   5 -11 -10    2.90    1.90
  -5 -11  10    5.10    1.10
   5  11 -10    4.60    1.20
  -5  11  10    4.00    1.20
   4 -11 -10    2.30    1.80
  -4 -11  10    2.10    0.80
   4  11 -10    4.10    1.20
  -4  11  10    4.10    1.10
  -3 -11  10    0.50    0.80
   3 -11 -10    0.20    1.60
   3  11 -10    0.30    0.70
  -3  11  10   -0.40    0.60
   2 -11 -10    2.10    1.60
  -2 -11  10    4.60    1.50
   2  11 -10    5.30    1.20
  -2  11  10    5.90    1.20
  -1 -11  10   13.30    1.90
   1 -11 -10   15.60    2.70
  -1  11  10   13.20    1.50
   1  11 -10   16.10    1.50
   0  11  10   19.80    1.90
   0  11 -10   21.60    1.70
  14   0 -11   29.90    3.00
  13   0 -11   56.99    4.20
  12   0 -11   70.59    4.80
  11   0 -11   39.30    3.40
  -9   0  11    1.30    0.50
  -8   0  11    4.60    1.10
  -7   0  11   10.60    1.20
  -6   0  11    1.60    0.60
  -5   0  11    0.10    0.60
  -4   0  11   12.00    1.30
  -3   0  11    4.30    0.70
  -2   0  11    2.20    0.70
  -1   0  11    0.70    0.70
   0   0  11   47.20    2.60
   1   0  11   90.79    4.20
   2   0  11   73.19    3.60
   3   0  11   40.20    2.40
   4   0  11   -0.40    0.60
  -4   0 -11    0.00    0.40
   5   0  11    7.30    1.40
  -5   0 -11    8.90    1.20
   6   0  11    1.00    0.70
  -6   0 -11    0.90    0.40
  -7   0 -11    8.70    1.20
  -8   0 -11   52.39    3.10
  18   1 -11   17.10    2.70
  17   1 -11   15.40    2.50
  16   1 -11    1.80    1.20
  15   1 -11   10.10    2.10
  14   1 -11   11.60    2.10
  13   1 -11   23.20    2.50
  12   1 -11   24.40    2.50
  11   1 -11    1.70    1.20
  10   1 -11    2.50    1.30
   9   1 -11    6.60    1.50
  -6   1  11    0.00    0.50
  -5  -1  11   -1.00    0.50
  -5   1  11    0.40    0.50
  -4  -1  11   -0.50    0.60
  -4   1  11    0.70    0.50
  -3  -1  11   30.10    1.90
  -3   1  11   30.90    1.90
  -2  -1  11    8.10    1.30
  -2   1  11    8.40    1.20
  -1  -1  11    0.40    0.60
  -1   1  11    1.40    0.60
  -1   1  11    0.50    1.00
   0  -1  11    1.70    0.70
   0   1  11    0.80    1.00
   0   1  11    1.60    0.70
   1  -1  11   34.90    2.30
   1   1  11   37.60    2.20
   1   1  11   42.40    3.30
   2  -1  11   31.10    2.20
   2   1  11   33.00    2.10
   2   1  11   31.50    3.10
   3  -1  11   15.70    1.80
  -3  -1 -11   17.60    1.60
   3   1  11   18.70    1.70
   3   1  11   18.10    2.70
   4  -1  11   15.20    1.70
  -4  -1 -11   15.80    1.40
   4   1  11   16.30    1.50
   4   1  11    9.60    2.40
   5  -1  11    1.60    0.70
  -5  -1 -11    1.20    0.40
   5   1  11    1.10    0.70
  -5   1 -11    0.80    0.50
  -6  -1 -11   25.50    1.90
   6  -1  11   23.50    2.00
  -6   1 -11   22.30    1.80
  -7  -1 -11   24.70    1.90
  -7   1 -11   23.50    1.80
  -8  -1 -11    0.30    0.50
  -9  -1 -11    1.80    0.50
  19   2 -11    2.00    1.30
  18   2 -11    2.70    1.20
  17   2 -11   -0.30    1.10
  16   2 -11   -0.50    1.00
  15   2 -11    8.70    1.90
  14   2 -11   10.00    1.90
  13   2 -11    2.50    1.00
  12   2 -11   15.20    1.90
  11   2 -11   19.20    2.10
  10   2 -11   29.60    2.70
   9   2 -11   55.19    3.90
   8   2 -11    6.40    1.40
   7   2 -11    7.10    1.40
  -6  -2  11   21.00    1.60
   6   2 -11   18.50    2.40
  -5  -2  11   20.50    1.60
  -4  -2  11    9.40    1.20
  -4   2  11    7.20    1.20
  -3  -2  11    7.50    1.30
  -3   2  11    6.70    1.50
  -3   2  11    5.70    1.20
  -2  -2  11   74.59    3.70
  -2   2  11   77.49    3.60
  -2   2  11   82.59    4.80
  -1  -2  11   48.10    2.60
  -1   2  11   47.30    3.30
  -1   2  11   46.10    2.50
   0  -2  11   34.50    2.20
   0   2  11   31.90    2.10
   0   2  11   36.10    2.80
   1  -2  11   24.30    1.90
   1   2  11   29.50    2.50
   1   2  11   26.10    1.80
   2  -2  11    4.20    0.90
  -2  -2 -11    6.20    1.10
   2   2  11    6.50    1.20
   2   2  11    4.80    1.30
   3  -2  11   19.40    1.80
  -3  -2 -11   18.60    1.50
   3   2  11   17.70    1.50
   3   2  11   19.00    2.60
  -4  -2 -11   14.10    1.40
   4  -2  11   16.20    1.70
   4   2  11   14.00    2.50
  -5  -2 -11    0.10    0.40
   5  -2  11    0.70    0.70
   5   2  11   -1.20    1.20
   6  -2  11   -0.40    0.70
  -6  -2 -11   -0.10    0.40
   6   2  11    0.30    1.30
  -6   2 -11   -0.20    0.40
  -7  -2 -11    2.20    0.50
   7   2  11    1.80    1.40
  -8  -2 -11    4.20    1.10
  -9  -2 -11    1.40    0.50
 -10  -2 -11    0.90    0.40
  21   3 -11    2.90    1.20
  20   3 -11    0.60    1.10
  19   3 -11   -1.40    1.00
  18   3 -11   -0.10    1.10
  17   3 -11   -1.50    0.90
  16   3 -11    2.80    1.10
  15   3 -11    1.10    0.90
  14   3 -11    4.00    1.10
  13   3 -11    1.70    0.90
  12  -3 -11   18.50    2.70
  12   3 -11   10.00    1.70
  11   3 -11   78.69    4.90
  10   3 -11   75.19    4.70
   9   3 -11   26.10    2.70
  -9   3  11   32.40    2.20
  -8   3  11    4.20    1.10
   8   3 -11    2.50    1.20
  -7  -3  11    7.70    1.30
   7   3 -11    7.30    2.10
  -7   3  11    6.80    1.20
  -6  -3  11  155.38    6.40
   6   3 -11  144.89    8.60
  -6   3  11  154.48    8.30
   5  -3 -11  137.99    9.80
  -5  -3  11  163.38    6.60
   5   3 -11  157.48    8.80
  -5   3  11  158.48    8.50
  -4  -3  11    9.90    1.20
   4  -3 -11    6.40    2.10
  -4   3  11    8.50    1.30
   4   3 -11    4.90    1.20
  -3  -3  11    3.20    0.70
   3  -3 -11    3.20    1.80
  -3   3  11    2.40    0.60
  -3   3  11    3.60    0.80
   3   3 -11    4.80    1.40
   2  -3 -11   37.10    3.90
  -2  -3  11   32.60    2.20
  -2   3  11   37.20    2.60
   2   3 -11   33.70    2.30
  -2   3  11   34.00    2.00
   1  -3 -11  140.29    9.10
   1  -3 -11  146.09    7.30
  -1  -3  11  138.29    6.10
   1   3 -11  138.89    7.70
  -1   3  11  146.99    8.00
  -1   3  11  139.89    6.00
   0  -3 -11  151.68    9.60
   0  -3  11  149.49    6.50
   0  -3 -11  148.39    7.70
   0   3  11  152.08    8.50
   0   3  11  149.29    6.40
   0   3 -11  147.69    8.20
  -1  -3 -11   18.80    3.30
   1  -3  11   20.20    1.80
  -1  -3 -11   17.60    1.50
   1   3  11   18.30    1.60
   1   3  11   19.80    2.20
  -2  -3 -11    5.40    1.80
  -2  -3 -11    4.50    1.00
   2  -3  11    3.20    0.80
   2   3  11    3.20    0.70
   2   3  11    4.90    1.20
   3  -3  11   11.60    1.60
  -3  -3 -11   12.00    1.30
  -3  -3 -11   14.20    2.70
   3   3  11   14.10    2.20
  -4  -3 -11    0.40    1.30
   4  -3  11    1.70    0.80
  -4  -3 -11    1.20    0.50
   4   3  11    3.20    1.30
  -5  -3 -11    6.90    1.20
   5  -3  11   10.50    1.80
  -5  -3 -11   11.30    2.50
   5   3  11    5.60    1.60
  -6  -3 -11   -0.30    0.40
   6   3  11    0.20    1.30
  -7  -3 -11    0.60    0.50
   7   3  11    1.50    1.40
  -8  -3 -11   -0.40    0.50
   8   3  11   -0.40    1.30
  -9  -3 -11   -0.40    0.40
 -10  -3 -11    0.40    0.40
 -11  -3 -11    1.30    0.40
  21   4 -11   -0.20    1.00
  20   4 -11    0.90    1.10
  19   4 -11    0.20    1.00
  18   4 -11   -0.60    1.10
  17   4 -11   -0.70    0.90
  16   4 -11   -0.30    0.90
  15   4 -11    6.40    1.70
  14   4 -11    0.90    0.90
  13  -4 -11    1.70    2.00
  13   4 -11    1.20    0.80
  12   4 -11   22.10    2.10
  11   4 -11   21.60    2.10
 -10  -4  11   77.19    5.30
 -10   4  11   82.19    4.70
  -9  -4  11   52.09    4.00
  -9   4  11   55.89    3.10
   9   4 -11   38.80    3.40
  -8  -4  11    1.60    1.10
   8   4 -11    2.10    1.10
  -8   4  11    2.10    0.60
  -7  -4  11   77.69    5.20
   7  -4 -11   82.49    6.20
  -7   4  11   78.49    4.60
   7   4 -11   82.19    5.10
  -6  -4  11   77.99    3.50
  -6  -4  11   72.59    5.00
   6  -4 -11   72.89    5.90
   6   4 -11   64.39    4.80
  -6   4  11   83.89    4.40
   5  -4 -11   73.89    4.10
   5  -4 -11   71.39    5.90
  -5  -4  11   75.89    3.60
   5   4 -11   77.69    4.90
  -5   4  11   80.19    4.40
   4  -4 -11   85.09    4.70
  -4  -4  11   93.09    4.10
   4  -4 -11   80.79    6.50
   4   4 -11   84.79    5.40
  -4   4  11   98.09    5.10
   3  -4 -11    2.20    1.80
  -3  -4  11    2.70    0.70
   3  -4 -11    1.50    0.40
  -3   4  11    3.60    0.70
   3   4 -11    2.00    0.90
  -3   4  11    2.90    0.70
   2  -4 -11   60.19    3.30
   2  -4 -11   50.19    4.90
  -2  -4  11   57.59    3.10
  -2   4  11   56.99    3.60
   2   4 -11   61.49    3.60
  -2   4  11   60.29    2.90
   1  -4 -11   88.99    4.60
   1  -4 -11   78.59    6.30
  -1  -4  11   84.59    4.10
  -1   4  11   86.79    3.90
  -1   4  11   81.79    5.00
   0  -4  11   41.80    2.50
   0  -4 -11   39.20    2.50
   0  -4 -11   39.00    4.10
   0   4  11   40.90    2.90
   0   4  11   42.30    2.30
   0   4 -11   40.80    2.60
  -1  -4 -11   49.70    4.70
  -1  -4 -11   51.49    3.00
   1  -4  11   48.40    2.90
  -1   4 -11   48.00    3.00
   1   4  11   52.19    3.50
  -2  -4 -11    2.20    1.60
   2  -4  11    2.30    0.80
  -2  -4 -11    4.10    1.00
   2   4  11    2.60    1.10
  -3  -4 -11    2.00    1.50
   3  -4  11    1.10    0.70
  -3  -4 -11    1.00    0.40
   3   4  11    2.00    1.10
   4  -4  11   11.10    1.80
  -4  -4 -11   11.70    1.40
  -4  -4 -11   14.40    2.60
   4   4  11   10.40    2.40
  -5  -4 -11    1.00    0.50
  -5  -4 -11    2.50    1.40
   5   4  11    2.50    1.40
  -6  -4 -11    1.30    1.30
  -6  -4 -11    0.20    0.50
   6   4  11    0.30    1.20
  -7  -4 -11   -0.30    0.50
  -7  -4 -11    0.60    1.20
   7   4  11    0.70    1.40
  -8  -4 -11    0.30    0.40
   8   4  11    0.20    1.30
  -9  -4 -11    1.40    0.50
   9   4  11    0.90    1.30
 -10  -4 -11    0.50    0.40
  10   4  11   -0.50    0.80
  20   5 -11    0.30    1.00
  19   5 -11    3.70    1.20
  18   5 -11    0.60    1.10
  17   5 -11   -0.20    0.90
  16   5 -11   -0.60    0.90
  15   5 -11    0.30    0.90
  14   5 -11    1.50    0.90
  13  -5 -11    5.20    2.50
  13   5 -11    1.80    0.90
  12  -5 -11   14.80    3.00
  12   5 -11    5.40    1.60
  11  -5 -11   36.70    4.10
 -11   5  11   35.80    2.50
  10  -5 -11   19.70    3.20
 -10   5  11   15.10    1.50
  -9  -5  11   -0.50    0.80
   9   5 -11   -0.20    0.90
  -9   5  11   -0.30    0.50
   8  -5 -11   -0.30    1.60
  -8  -5  11    0.20    0.90
  -8   5  11    0.10    0.50
   8   5 -11    0.40    1.00
   7  -5 -11    5.90    2.00
   7   5 -11    5.30    1.40
  -7   5  11    7.70    1.10
   6  -5 -11   67.59    5.70
  -6  -5  11   68.09    4.90
   6   5 -11   71.39    4.90
  -6   5  11   79.59    4.30
   5  -5 -11   68.59    5.70
  -5  -5  11   73.49    3.50
   5   5 -11   77.99    4.80
  -5   5  11   70.39    4.20
   4  -5 -11    4.90    1.90
  -4  -5  11    7.70    1.30
   4  -5 -11    5.00    1.00
  -4   5  11    7.60    1.00
   4   5 -11    7.10    1.90
   3  -5 -11    0.00    1.70
  -3  -5  11   -0.50    0.60
   3  -5 -11   -0.30    0.30
  -3   5  11   -0.10    0.50
   3   5 -11    1.40    0.90
   2  -5 -11   -0.40    0.30
  -2  -5  11   -0.30    0.60
   2  -5 -11   -0.30    1.60
  -2   5  11   -0.20    0.50
  -2   5  11   -0.10    0.50
   2   5 -11    0.40    0.70
   1  -5 -11   11.60    3.20
   1  -5 -11   16.60    1.40
  -1  -5  11   13.90    1.60
  -1   5  11   15.20    1.60
  -1   5  11   14.60    1.40
   1   5 -11   16.90    1.60
   0  -5 -11   35.90    2.30
   0  -5 -11   34.40    4.00
   0  -5  11   34.40    2.40
   0   5 -11   36.00    2.40
   0   5  11   36.80    2.60
  -1  -5 -11   10.80    3.20
   1  -5  11   13.00    1.70
  -1  -5 -11   12.40    1.30
  -1   5 -11   12.50    1.40
   1   5  11   11.60    1.80
  -2  -5 -11    9.70    2.80
  -2  -5 -11    5.70    1.10
   2  -5  11    3.30    0.90
   2   5  11    7.60    1.80
  -2   5 -11    6.30    1.00
  -3  -5 -11    3.90    1.10
  -3  -5 -11    2.90    1.70
   3   5  11    3.20    1.10
  -4  -5 -11    1.20    1.40
  -4  -5 -11    0.70    0.50
   4   5  11    2.10    1.10
  -5  -5 -11   -0.10    0.50
  -5  -5 -11    1.70    1.30
   5   5  11    0.90    1.20
  -6  -5 -11   -0.30    0.50
  -6  -5 -11    0.00    1.20
   6   5  11   -0.80    1.30
  -7  -5 -11    0.30    0.50
  -7  -5 -11    1.20    1.10
   7   5  11    0.30    1.40
  -8  -5 -11   12.90    2.20
  -8  -5 -11   11.30    1.40
   8   5  11    9.30    2.50
  -9  -5 -11    0.30    0.40
  -9  -5 -11    0.50    1.00
   9   5  11   -0.20    1.20
  20   6 -11    1.40    1.10
  19   6 -11    0.60    1.00
  18   6 -11    5.80    1.80
  17   6 -11    1.20    1.10
  16   6 -11   -1.10    0.80
  15   6 -11   -1.00    0.90
  14   6 -11    1.50    1.00
  13  -6 -11   23.60    4.30
  12  -6 -11    6.00    2.70
  12   6 -11    1.40    1.00
 -12   6  11    2.80    0.80
  11  -6 -11    3.00    2.20
 -11   6  11    5.00    1.10
  11   6 -11    2.20    1.00
  10  -6 -11    1.90    2.00
  10   6 -11    2.30    1.00
 -10   6  11    3.70    1.00
   9  -6 -11   -0.20    1.70
   9  -6 -11    0.00    1.80
   9   6 -11    0.30    1.00
  -9   6  11    0.30    0.50
   8  -6 -11    0.20    1.70
  -8   6  11    0.30    0.50
   8   6 -11   -0.50    1.20
   7  -6 -11    2.70    1.90
   7   6 -11    2.90    1.40
  -7   6  11    4.60    1.00
   6  -6 -11    3.00    1.80
   6   6 -11    5.10    1.50
  -6   6  11    5.70    1.00
   5  -6 -11    5.00    2.00
   5   6 -11    3.90    1.30
  -5   6  11    5.70    1.00
   4  -6 -11    3.10    1.80
  -4  -6  11    3.80    0.80
   4   6 -11    4.40    1.30
  -4   6  11    5.20    1.00
   3  -6 -11   -0.80    1.60
   3  -6 -11   -0.20    0.30
  -3  -6  11    0.30    0.60
   3   6 -11   -1.10    0.80
  -3   6  11    0.30    0.50
   2  -6 -11   -0.20    0.30
   2  -6 -11   -0.40    1.70
  -2  -6  11   -0.40    0.60
  -2   6  11   -0.10    0.50
   2   6 -11   -0.50    0.70
  -2   6  11   -0.10    0.50
   1  -6 -11    3.60    1.90
   1  -6 -11    1.80    0.50
   1   6 -11    2.20    0.80
  -1   6  11    2.60    0.70
   0  -6 -11    5.90    1.10
   0  -6 -11    1.60    1.80
   0   6 -11    4.60    1.20
   0   6  11    4.60    1.30
  -1  -6 -11    5.80    1.20
  -1  -6 -11    3.50    1.90
   1   6  11    3.00    0.90
  -1   6 -11    4.80    1.20
  -2  -6 -11   23.70    3.40
  -2  -6 -11   20.00    1.80
  -2   6 -11   17.50    1.60
   2   6  11   19.10    2.20
  -3  -6 -11    8.20    1.40
  -3  -6 -11    8.30    2.70
   3   6  11   10.80    2.00
  -4  -6 -11   -0.60    1.30
  -4  -6 -11   -0.10    0.40
   4   6  11    0.50    1.00
  -5  -6 -11    1.50    1.30
  -5  -6 -11   -0.60    0.40
   5   6  11   -0.10    1.20
  -6  -6 -11    9.20    2.20
  -6  -6 -11    6.40    1.30
   6   6  11    4.40    1.60
  -7  -6 -11   13.10    2.10
  -7  -6 -11   13.70    1.50
   7   6  11    8.70    2.50
  -8  -6 -11    0.90    0.40
  -8  -6 -11   -0.10    0.90
   8   6  11    1.50    1.30
  -9  -6 -11    3.90    1.00
   9   6  11    2.20    1.30
  19   7 -11    1.70    1.10
  18   7 -11    0.90    1.00
  17   7 -11    0.80    1.00
  16   7 -11    1.00    1.00
  15   7 -11    0.10    1.00
  14   7 -11    2.80    1.10
 -13   7  11   21.40    2.00
 -12   7  11    4.30    1.20
  12   7 -11    0.70    1.00
  11  -7 -11   12.40    3.50
 -11   7  11    9.10    1.40
  10  -7 -11   -0.50    1.60
  10  -7 -11   -0.50    2.00
 -10   7  11    0.80    0.60
  10   7 -11    0.00    1.10
   9  -7 -11   12.80    3.50
   9  -7 -11   13.90    3.50
   9   7 -11    8.10    2.20
  -9   7  11   10.90    1.30
   8  -7 -11   -2.00    1.70
   8  -7 -11   -0.80    1.80
  -8   7  11    0.40    0.50
   8   7 -11   -0.50    1.20
   7  -7 -11    0.50    1.70
   7  -7 -11    0.50    1.80
   7   7 -11   -0.20    1.30
  -7   7  11   -0.20    0.50
   6  -7 -11    6.70    2.10
  -6   7  11    8.90    1.20
   6   7 -11    9.20    2.50
   5  -7 -11   10.20    3.20
   5   7 -11   10.50    2.30
  -5   7  11    8.90    1.10
   4  -7 -11    0.30    1.70
  -4   7  11    0.10    0.50
   4   7 -11    0.80    1.20
   3  -7 -11    0.20    1.70
   3   7 -11   -0.70    0.90
  -3   7  11   -0.40    0.50
   2  -7 -11    7.80    2.30
   2  -7 -11   10.40    1.20
   2   7 -11   11.50    1.60
  -2   7  11    8.20    1.30
   1  -7 -11    0.50    1.80
   1  -7 -11    0.20    0.40
  -1   7  11    0.00    0.60
   1   7 -11    0.60    0.80
   0  -7 -11    6.10    2.20
   0  -7 -11   10.40    1.40
   0   7  11    8.80    1.50
   0   7 -11   11.70    1.50
  -1  -7 -11    5.00    2.10
  -1  -7 -11    4.80    1.20
  -1   7 -11    6.40    1.30
   1   7  11    4.00    1.00
  -2  -7 -11   27.80    2.20
  -2  -7 -11   27.40    3.70
   2   7  11   28.40    2.50
  -2   7 -11   29.60    2.20
  -3  -7 -11    8.60    2.60
  -3  -7 -11    7.00    1.30
  -3   7 -11    7.30    1.30
   3   7  11    7.70    1.90
  -4  -7 -11    1.00    0.50
  -4  -7 -11    0.80    1.40
   4   7  11    1.10    1.10
  -5  -7 -11    0.20    0.50
  -5  -7 -11    0.90    1.20
   5   7  11    1.60    1.20
  -6  -7 -11    2.30    1.20
  -6  -7 -11    1.40    0.50
   6   7  11    2.30    1.40
  -7  -7 -11    1.80    1.00
  -7  -7 -11    1.50    0.50
   7   7  11    1.20    1.20
  -8  -7 -11    3.90    1.00
   8   7  11    1.60    1.30
  17   8 -11    0.50    1.10
  16   8 -11   -0.30    1.00
  15   8 -11    0.80    1.00
  14   8 -11    3.90    1.20
 -13   8  11   -0.80    0.60
  13   8 -11    0.80    1.10
  12   8 -11    3.40    1.30
 -12   8  11    5.20    1.20
 -11   8  11    0.80    0.60
  11   8 -11    0.90    1.20
  10  -8 -11    0.00    2.00
 -10   8  11   -0.90    0.60
  10   8 -11    0.80    1.30
   9  -8 -11   -1.60    1.90
   9   8 -11   -0.80    1.30
  -9   8  11   -0.10    0.60
   8  -8 -11   13.80    3.50
  -8   8  11   16.40    1.60
   8   8 -11   16.60    2.80
   7  -8 -11    7.10    2.30
   7   8 -11   14.40    2.80
  -7   8  11   12.00    1.40
   6  -8 -11    0.50    1.90
  -6   8  11    0.30    0.60
   6   8 -11    0.70    1.40
   5  -8 -11   -0.30    1.80
  -5   8  11    0.20    0.50
   5   8 -11    0.70    1.20
   4  -8 -11    7.40    2.30
  -4   8  11   10.90    1.30
   4   8 -11   13.90    2.20
   3  -8 -11   13.20    3.60
  -3   8  11   15.00    1.50
   3   8 -11   17.40    2.00
   2  -8 -11   -0.50    1.70
   2   8 -11    0.20    0.80
  -2   8  11   -0.60    0.60
   1  -8 -11   -0.80    1.70
  -1   8  11   -0.40    0.60
   1   8 -11   -0.70    0.70
   0  -8 -11   -0.80    1.70
   0  -8  11    0.10    0.80
   0  -8 -11   -0.30    0.40
   0   8 -11   -0.50    0.70
   0   8  11   -0.70    0.60
  -1  -8 -11    9.10    2.30
   1  -8  11    7.30    1.70
  -1  -8 -11    7.50    1.30
   1   8  11    6.20    1.60
  -1   8 -11    8.70    1.40
  -2  -8 -11    0.00    0.40
  -2  -8 -11    0.00    1.50
   2   8  11   -0.40    0.80
  -2   8 -11    0.40    0.60
  -3  -8 -11    5.50    1.70
  -3  -8 -11   11.00    1.30
  -3   8 -11   10.00    1.30
   3   8  11    6.50    1.80
  -4  -8 -11    1.40    1.20
  -4  -8 -11    1.80    0.50
   4   8  11    1.70    1.10
  -5  -8 -11    0.40    0.40
  -5  -8 -11   -0.10    1.00
   5   8  11    0.90    1.20
  -6  -8 -11    0.40    0.40
  -6  -8 -11    1.60    0.90
   6   8  11    0.20    1.20
  15   9 -11    2.80    1.20
  14   9 -11    0.90    1.10
 -13   9  11    4.30    1.20
  13   9 -11    3.20    1.40
 -12   9  11    0.20    0.60
  12   9 -11    0.40    1.30
  11  -9 -11    1.10    2.00
  11   9 -11    0.00    1.50
 -11   9  11   -0.30    0.60
  10  -9 -11    2.70    2.10
 -10   9  11    3.70    1.20
  10   9 -11    8.80    2.50
   9  -9 -11    6.10    2.30
  -9   9  11   11.90    1.40
   9   9 -11   11.60    2.80
   8  -9 -11    1.60    1.90
   8   9 -11    1.40    1.50
  -8   9  11    0.70    0.60
   7  -9 -11    1.30    1.90
   7   9 -11    2.70    1.50
  -7   9  11    1.80    0.70
   6  -9 -11    0.50    1.90
  -6   9  11    0.70    0.60
   6   9 -11    2.20    1.30
   5  -9 -11    0.40    1.80
   5   9 -11    1.20    1.20
  -5   9  11    0.40    0.60
   4  -9 -11    0.90    1.90
  -4   9  11    2.30    0.70
   4   9 -11    3.10    1.10
   3  -9 -11    1.60    1.90
   3   9 -11    1.00    0.80
  -3   9  11    0.40    0.60
   2  -9 -11   11.00    3.10
  -2   9  11   12.10    1.40
   2   9 -11   12.00    1.60
   1  -9 -11    4.80    2.00
  -1  -9  11    3.30    1.00
   1   9 -11    4.60    1.30
  -1   9  11    4.80    1.20
   0  -9 -11   -1.90    1.70
   0  -9  11    0.20    0.80
   0   9  11   -0.50    0.60
   0   9 -11   -1.10    0.60
   1  -9  11    0.00    0.80
  -1  -9 -11   -0.10    0.40
  -1  -9 -11    0.20    1.60
  -1   9 -11   -0.20    0.60
   1   9  11    0.20    0.80
  -2  -9 -11    6.00    1.10
  -2  -9 -11    3.50    1.50
   2   9  11    5.30    1.60
  -2   9 -11    6.10    1.20
  -3  -9 -11    2.20    1.20
  -3  -9 -11    0.70    0.40
   3   9  11    0.80    1.00
  -3   9 -11    0.90    0.60
  -4  -9 -11    6.10    1.60
  -4  -9 -11    5.60    1.10
   4   9  11    3.40    1.10
  13  10 -11    0.10    1.30
 -12  10  11   -0.10    0.50
  12  10 -11    0.30    1.20
  11 -10 -11    1.20    2.00
 -11  10  11    4.60    1.20
  11  10 -11    3.40    1.50
  10 -10 -11    4.40    2.30
 -10  10  11    8.40    1.30
  10  10 -11    5.40    1.60
   9 -10 -11    1.00    1.90
   9  10 -11    2.60    1.40
  -9  10  11    2.00    0.70
   8 -10 -11    0.30    1.90
   8  10 -11   -0.10    1.30
  -8  10  11    0.00    0.60
   7 -10 -11    1.50    1.90
  -7  10  11    0.40    0.60
   7  10 -11    0.50    1.20
   6 -10 -11   14.00    3.30
  -6  10  11   16.30    1.60
   6  10 -11   16.60    2.10
   5 -10 -11   13.00    3.30
  -5  10  11   17.50    1.70
   5  10 -11   16.00    1.90
  -4 -10  11    0.40    0.80
   4 -10 -11   -0.20    1.80
  -4  10  11    0.10    0.60
   4  10 -11    0.20    0.80
   3 -10 -11    0.20    1.70
  -3 -10  11   -0.60    0.70
  -3  10  11    0.60    0.70
   3  10 -11    0.20    0.70
   2 -10 -11    3.70    1.90
  -2 -10  11    1.30    0.90
   2  10 -11    2.00    0.80
  -2  10  11    1.50    0.70
   1 -10 -11   12.70    2.80
  -1 -10  11    8.10    1.60
   1  10 -11    8.90    1.40
  -1  10  11   10.40    1.50
   0 -10  11    3.10    1.10
   0 -10 -11    4.60    1.70
   0  10  11    6.60    1.40
   0  10 -11    4.30    1.10
   1 -10  11   -0.90    0.90
  -1 -10 -11   -0.30    1.10
   1  10  11   -0.50    0.80
  -1  10 -11   -0.60    0.50
   2  10  11   -0.70    0.80
  -2  10 -11   -0.50    0.50
  -9  11  11    4.50    1.20
   9  11 -11    3.20    1.20
  -8  11  11    0.30    0.60
   8  11 -11    0.40    0.90
  -7 -11  11    5.60    1.10
   7 -11 -11    3.80    2.00
   7  11 -11    6.70    1.50
  -7  11  11    4.30    1.20
   6 -11 -11    2.50    1.80
  -6 -11  11    7.60    1.20
  -6  11  11    8.50    1.30
   6  11 -11    7.70    1.30
  -5 -11  11    7.70    1.20
   5 -11 -11    5.00    2.00
  -5  11  11    5.50    1.20
   5  11 -11    8.40    1.20
   4 -11 -11    2.90    1.80
  -4 -11  11    5.00    1.20
  -4  11  11    4.10    1.20
   4  11 -11    6.50    1.20
   3  11 -11   -0.50    0.60
  -3  11  11    0.10    0.60
   2  11 -11    5.80    1.10
  -2  11  11    5.20    1.30
 -12   0  12  242.28    9.90
 -11   0  12   95.69    4.20
 -10   0  12   13.50    1.30
  -9   0  12    0.50    0.50
  -8   0  12   91.59    4.10
  -7   0  12   18.40    1.50
  -6   0  12  170.68    7.10
  -5   0  12   17.90    1.50
  -4   0  12   97.29    4.30
  -3   0  12    1.00    0.60
  -2   0  12   12.40    1.50
  -1   0  12   90.39    4.20
   0   0  12  259.77   10.70
   1   0  12  186.38    7.90
   2   0  12   51.19    2.90
   3   0  12   13.20    1.60
  -4   0 -12   12.40    1.40
   4   0  12   14.10    1.60
  -5   0 -12   -0.30    0.40
   5   0  12   -0.70    0.60
  -6   0 -12   11.20    1.30
   6   0  12   12.70    1.70
  -7   0 -12   -0.20    0.40
  -8   0 -12    8.20    1.20
  17   1 -12    0.30    1.30
  16   1 -12    0.50    1.30
  15   1 -12   21.20    2.70
  14   1 -12   45.40    3.70
  13   1 -12   41.20    3.50
  12   1 -12   30.60    3.10
  11   1 -12   30.00    3.10
 -10  -1  12    5.10    1.10
  10   1 -12    7.30    1.50
  -9  -1  12    0.10    0.50
   9   1 -12    0.80    1.30
  -8  -1  12   -0.10    0.50
   8   1 -12    1.20    1.10
  -8   1  12   -1.10    0.40
  -7  -1  12   62.49    3.00
  -7   1  12   61.19    2.90
  -6  -1  12    1.60    0.60
  -6   1  12    2.40    0.60
  -5  -1  12   61.59    3.10
  -5   1  12   61.29    3.00
  -4  -1  12   -0.20    0.60
  -4   1  12    0.10    0.50
  -3  -1  12    0.20    0.50
  -3   1  12   -0.10    0.50
  -2  -1  12    5.80    1.30
  -2   1  12    5.30    0.80
  -2   1  12    5.50    1.30
  -1  -1  12   37.00    2.20
  -1   1  12   36.20    2.20
  -1   1  12   32.40    3.10
   0  -1  12   36.80    2.30
   0   1  12   36.70    3.30
   0   1  12   34.70    2.20
   1  -1  12   53.79    2.90
   1   1  12   49.40    4.00
   1   1  12   55.39    2.90
   2  -1  12   62.69    3.30
   2   1  12   62.59    3.20
   3  -1  12   27.90    2.10
  -3  -1 -12   27.40    2.00
   3   1  12   28.80    2.00
  -4  -1 -12    0.20    0.40
   4  -1  12    0.80    0.70
   4   1  12    0.40    0.60
  -5  -1 -12    0.30    0.40
   5  -1  12   -0.20    0.70
  -5   1 -12   -0.20    0.40
   6  -1  12    1.50    0.80
  -6  -1 -12    0.40    0.50
  -6   1 -12    1.10    0.50
  -7  -1 -12    0.10    0.40
  -7   1 -12    0.00    0.40
  -8  -1 -12    0.10    0.40
  -9  -1 -12    5.70    1.20
  19   2 -12    1.10    1.40
  18   2 -12   -0.20    1.20
  17   2 -12    1.50    1.30
  16   2 -12    7.40    2.20
  15   2 -12    7.80    2.10
  14   2 -12    4.60    1.30
  13   2 -12   -0.20    1.10
  12   2 -12    2.10    1.20
  11   2 -12   22.00    2.70
  10   2 -12    0.30    1.20
  -9  -2  12    1.60    0.60
   9   2 -12    1.50    1.20
  -8  -2  12   13.10    1.40
   8   2 -12   13.50    2.40
  -7  -2  12   81.39    3.80
   7   2 -12   80.79    5.10
  -6  -2  12   35.70    2.10
   6   2 -12   34.50    2.90
  -6   2  12   35.20    2.00
  -5  -2  12   86.39    3.70
  -5   2  12   80.19    4.70
   5   2 -12   72.29    4.70
  -5   2  12   75.39    3.60
  -4  -2  12   14.90    1.50
  -4   2  12   14.50    1.30
   4   2 -12   11.00    1.50
  -4   2  12   14.80    1.80
  -3  -2  12    1.30    0.60
   3   2 -12    1.10    0.70
  -3   2  12    2.70    0.90
  -3   2  12    1.30    0.60
  -2  -2  12    1.20    0.60
  -2   2  12    1.70    1.00
  -2   2  12    1.50    0.60
  -1  -2  12   25.80    1.90
  -1   2  12   27.90    2.60
  -1   2  12   28.00    1.90
   0  -2  12    2.50    0.80
   0   2  12    3.10    1.20
   0   2  12    3.30    0.70
  -1  -2 -12    0.40    0.40
   1  -2  12   -0.20    0.60
   1   2  12    1.20    1.10
   1   2  12    0.70    0.60
  -2  -2 -12    6.70    1.10
   2  -2  12    5.30    0.90
   2   2  12    8.30    1.40
   2   2  12    7.90    2.20
   3  -2  12   14.20    1.70
  -3  -2 -12   12.60    1.40
   3   2  12   10.60    2.40
   3   2  12   13.30    1.50
  -4  -2 -12   15.70    1.50
   4  -2  12   15.10    1.70
   4   2  12   12.00    2.60
  -5  -2 -12    6.10    1.20
   5  -2  12    4.10    0.90
  -5   2 -12    5.30    1.20
   5   2  12    4.50    1.60
  -6  -2 -12   -0.40    0.40
  -6   2 -12    0.20    0.40
  -7  -2 -12    0.80    0.50
  -8  -2 -12    0.70    0.50
  -9  -2 -12    0.30    0.40
 -10  -2 -12    1.00    0.40
  21   3 -12    1.40    1.30
  20   3 -12    2.00    1.30
  19   3 -12   -0.10    1.20
  18   3 -12   -0.10    1.20
  17   3 -12   -0.20    1.10
  16   3 -12    1.20    1.10
  15   3 -12    1.50    1.10
  14   3 -12   -0.40    0.90
  13   3 -12    3.00    1.10
  12  -3 -12   38.80    3.60
  12   3 -12   22.80    2.60
  11   3 -12    9.10    2.10
  10   3 -12   17.20    2.50
   9   3 -12    0.30    1.20
  -8  -3  12   46.20    2.60
  -8   3  12   50.59    3.20
   8   3 -12   45.90    3.60
  -7  -3  12  217.68    9.00
   7   3 -12  216.48   12.10
  -7   3  12  221.68   11.90
  -6  -3  12  284.57   11.70
   6   3 -12  289.07   15.70
  -6   3  12  289.87   15.50
  -5  -3  12  226.48    9.00
  -5   3  12  223.68    8.90
  -5   3  12  208.78   11.80
   5   3 -12  210.48   11.90
  -4  -3  12   61.79    2.90
   4   3 -12   45.20    3.40
  -4   3  12   57.09    2.70
  -4   3  12   54.89    3.50
   3  -3 -12    1.40    1.80
  -3  -3  12    0.90    0.70
  -3   3  12    2.20    0.80
  -3   3  12    0.60    0.60
   3   3 -12    1.80    0.70
   2  -3 -12   24.60    3.60
  -2  -3  12   24.00    1.90
  -2   3  12   25.70    1.90
   2   3 -12   28.30    2.00
  -2   3  12   28.70    2.30
  -1  -3  12   18.90    1.70
   1  -3 -12   17.30    1.50
   1  -3 -12   16.30    3.20
  -1   3  12   16.30    1.50
  -1   3  12   17.30    2.00
   0  -3 -12   36.30    2.40
   0  -3 -12   34.40    4.00
   0  -3  12   36.60    2.40
   0   3  12   37.60    2.20
   0   3  12   36.90    2.90
  -1  -3 -12    9.40    2.70
  -1  -3 -12    6.60    1.00
   1  -3  12    5.70    1.30
   1   3  12    6.10    1.30
   1   3  12    7.40    1.90
  -2  -3 -12    0.30    0.40
   2  -3  12    0.10    0.60
  -2  -3 -12    0.50    1.40
   2   3  12    0.60    1.10
   2   3  12    0.00    0.60
  -3  -3 -12    1.60    0.50
   3  -3  12    1.30    0.70
   3   3  12    1.70    1.30
  -4  -3 -12    2.30    0.60
   4  -3  12    2.70    0.80
   4   3  12    2.80    1.40
   5  -3  12    1.80    0.90
  -5  -3 -12    0.50    0.50
   5   3  12    2.00    1.40
  -6  -3 -12    0.30    0.50
   6   3  12    1.10    1.40
  -7  -3 -12    1.10    0.50
   7   3  12    1.00    1.40
  -8  -3 -12    0.20    0.40
  -9  -3 -12    0.50    0.40
 -10  -3 -12    0.30    0.40
  21   4 -12    0.10    1.20
  20   4 -12    1.60    1.30
  19   4 -12   -0.10    1.10
  18   4 -12   -1.00    1.00
  17   4 -12   -0.80    1.10
  16   4 -12   -0.70    1.00
  15   4 -12    0.50    1.00
  14   4 -12    0.60    1.00
  13  -4 -12   16.70    3.00
  12  -4 -12   16.20    3.00
  11   4 -12   29.00    2.70
  10   4 -12   10.30    2.20
 -10   4  12   16.30    1.60
   9   4 -12    7.00    2.10
  -9   4  12    6.80    1.20
   8   4 -12   76.49    5.10
  -8   4  12   79.29    4.60
  -7  -4  12  142.79    6.20
  -7   4  12  143.59    8.00
   7   4 -12  148.89    8.50
   6  -4 -12  263.97   17.60
  -6  -4  12  299.57   12.20
  -6   4  12  303.07   16.00
   6   4 -12  324.77   16.30
  -5  -4  12  152.08    6.10
   5  -4 -12  120.89    9.20
   5  -4 -12  141.39    7.20
  -5   4  12  147.49    7.80
   5   4 -12  135.59    8.10
   4  -4 -12   79.49    4.40
   4  -4 -12   72.39    6.30
  -4  -4  12   83.99    3.90
  -4   4  12   83.59    3.80
  -4   4  12   87.99    4.90
   4   4 -12   78.69    5.00
   3  -4 -12    6.50    1.10
   3  -4 -12    5.60    2.10
  -3  -4  12   10.10    1.50
  -3   4  12    8.50    1.30
  -3   4  12   10.70    1.50
   3   4 -12    5.60    1.40
   2  -4 -12   14.90    3.30
   2  -4 -12   18.80    1.50
  -2  -4  12   13.50    1.70
  -2   4  12   16.30    1.60
  -2   4  12   17.90    1.80
   2   4 -12   18.30    1.60
   1  -4 -12   50.39    2.90
  -1  -4  12   47.30    2.70
   1  -4 -12   45.80    4.60
   1   4 -12   46.50    3.00
  -1   4  12   48.10    2.60
  -1   4  12   48.80    3.40
   0  -4 -12   17.30    3.40
   0  -4  12   15.50    1.70
   0  -4 -12   16.70    1.50
   0   4  12   15.70    1.50
   0   4  12   17.50    2.00
   0   4 -12   15.80    1.50
  -1  -4 -12   17.20    3.20
   1  -4  12   13.70    1.70
  -1  -4 -12   15.30    1.40
   1   4  12   13.60    2.10
  -2  -4 -12    3.00    1.70
   2  -4  12    1.80    0.80
  -2  -4 -12    1.30    0.50
   2   4  12    1.90    1.10
   3  -4  12   -0.30    0.70
  -3  -4 -12   -0.50    0.40
  -3  -4 -12    0.10    1.40
   3   4  12   -0.30    1.10
  -4  -4 -12   -0.50    1.40
  -4  -4 -12   -0.70    0.40
   4   4  12    0.60    1.30
  -5  -4 -12    2.90    1.40
  -5  -4 -12   -0.20    0.50
   5   4  12    0.40    1.30
  -6  -4 -12   -0.90    0.50
   6   4  12   -0.50    1.20
  -7  -4 -12   -0.20    0.40
   7   4  12    0.00    1.30
  -8  -4 -12    1.20    0.50
   8   4  12    0.50    1.30
  -9  -4 -12    0.20    0.40
  20   5 -12    0.20    1.20
  19   5 -12    0.50    1.00
  18   5 -12   -0.30    1.10
  17   5 -12   -0.30    1.10
  16   5 -12    0.50    1.10
  15   5 -12   -0.90    1.00
  14   5 -12   -1.00    1.00
  13  -5 -12   -0.60    1.90
  13   5 -12   -0.20    1.00
  12  -5 -12   12.40    3.10
  12   5 -12    8.00    1.90
  11  -5 -12   13.60    3.20
  11   5 -12    7.70    2.00
 -11   5  12   10.80    1.40
  10   5 -12   -0.20    1.10
 -10   5  12   -0.10    0.60
   9   5 -12    2.60    1.40
  -9   5  12    2.50    0.70
   8  -5 -12   17.90    3.60
  -8   5  12   17.60    1.60
   8   5 -12   16.20    2.50
   7  -5 -12   71.29    6.20
   7   5 -12   85.99    5.30
  -7   5  12   77.39    4.60
  -6  -5  12   41.70    2.50
   6  -5 -12   40.60    4.60
   6   5 -12   51.09    3.60
  -6   5  12   47.00    2.90
   5  -5 -12   71.29    6.10
  -5  -5  12   78.09    3.80
   5   5 -12   78.19    5.00
  -5   5  12   82.39    4.60
   4  -5 -12   19.20    3.80
   4  -5 -12   15.70    1.50
  -4  -5  12   16.90    1.70
   4   5 -12   19.10    2.20
  -4   5  12   21.00    1.70
   3  -5 -12    3.40    1.90
  -3  -5  12    2.20    0.70
   3  -5 -12    1.80    0.50
  -3   5  12    3.90    1.20
   3   5 -12    2.30    0.90
  -3   5  12    5.10    1.20
  -2  -5  12    0.30    0.60
   2  -5 -12    0.00    0.40
   2  -5 -12    1.20    1.70
  -2   5  12    0.40    0.50
  -2   5  12    0.20    0.70
   2   5 -12   -0.50    0.60
   1  -5 -12   13.30    1.30
   1  -5 -12    6.90    2.20
  -1  -5  12   10.60    1.60
  -1   5  12   12.20    1.60
  -1   5  12    9.90    1.40
   1   5 -12   12.40    1.40
   0  -5  12   12.60    1.70
   0  -5 -12   13.90    3.30
   0  -5 -12   13.20    1.30
   0   5 -12   12.30    1.40
   0   5  12   13.50    1.90
  -1  -5 -12   -1.90    1.60
   1  -5  12    0.30    0.70
  -1  -5 -12    0.20    0.40
   1   5  12    0.80    0.90
   2  -5  12   -0.30    0.80
  -2  -5 -12   -0.70    1.50
  -2  -5 -12   -0.20    0.40
   2   5  12    0.10    1.00
  -3  -5 -12    0.60    0.50
  -3  -5 -12    1.20    1.50
   3   5  12    1.20    1.10
  -4  -5 -12    1.30    1.40
  -4  -5 -12    0.00    0.50
   4   5  12    0.90    1.20
  -5  -5 -12    1.30    1.30
  -5  -5 -12   -0.30    0.50
   5   5  12    0.60    1.40
  -6  -5 -12   -0.20    0.50
  -6  -5 -12    1.40    1.30
   6   5  12   -0.30    1.40
  -7  -5 -12    0.70    1.10
  -7  -5 -12    1.00    0.50
   7   5  12   -0.30    1.20
  -8  -5 -12   -0.20    0.40
   8   5  12    0.90    1.20
  20   6 -12   -0.60    1.10
  19   6 -12    0.00    1.10
  18   6 -12    0.00    1.10
  17   6 -12   -0.10    1.10
  16   6 -12   -0.90    1.00
  15   6 -12   -0.10    1.10
  14   6 -12    7.60    2.00
  13  -6 -12   15.10    3.90
  12  -6 -12    4.40    2.60
  12   6 -12    3.00    1.30
 -12   6  12    5.20    1.30
  11  -6 -12    2.70    2.50
  11   6 -12    2.30    1.30
 -11   6  12    4.80    1.20
  10  -6 -12    1.50    2.20
 -10   6  12    1.20    0.60
  10   6 -12    0.20    1.20
   9  -6 -12    1.00    1.90
  -9   6  12    1.30    0.60
   9   6 -12    1.70    1.30
   8  -6 -12    0.70    1.90
   8   6 -12    2.10    1.30
  -8   6  12    1.70    0.60
   7  -6 -12    2.50    2.00
   7   6 -12    1.90    1.40
  -7   6  12    1.10    0.60
   6  -6 -12    0.30    1.80
   6   6 -12    0.50    1.30
  -6   6  12   -0.10    0.50
   5  -6 -12    2.60    1.80
  -5  -6  12    0.30    0.60
   5   6 -12    2.30    1.20
  -5   6  12    1.90    0.60
  -4  -6  12    1.60    0.70
   4  -6 -12   -0.20    1.80
   4   6 -12    1.50    1.00
  -4   6  12    1.20    0.60
  -3  -6  12    1.70    0.70
   3  -6 -12    0.60    0.40
   3  -6 -12    0.70    1.80
   3   6 -12    0.40    0.80
  -3   6  12    1.50    0.70
  -3   6  12    1.40    0.60
  -2  -6  12    1.60    0.80
   2  -6 -12    1.20    0.40
   2  -6 -12    2.00    1.90
   2   6 -12    0.50    0.80
  -2   6  12    0.50    0.60
  -2   6  12    2.40    0.80
   1  -6 -12    1.70    1.90
   1  -6 -12    3.90    1.10
   1   6 -12    4.20    1.30
  -1   6  12    2.90    0.90
   0  -6 -12    6.10    1.20
   0  -6 -12    4.00    2.00
   0   6  12    3.70    1.00
   0   6 -12    4.70    1.30
  -1  -6 -12   16.10    3.40
  -1  -6 -12   14.50    1.60
   1   6  12   12.20    2.00
  -1   6 -12   13.70    1.50
  -2  -6 -12   21.20    3.20
  -2  -6 -12   22.10    2.00
   2   6  12   24.40    2.50
  -3  -6 -12    4.60    1.70
  -3  -6 -12    4.50    1.30
   3   6  12    6.50    2.00
  -4  -6 -12   -0.20    0.40
  -4  -6 -12    0.00    1.30
   4   6  12   -0.90    1.10
  -5  -6 -12   -0.40    1.10
  -5  -6 -12    0.10    0.50
   5   6  12    0.40    1.30
  -6  -6 -12    0.00    1.00
  -6  -6 -12   -0.20    0.40
   6   6  12   -0.30    1.20
  -7  -6 -12    0.60    0.90
  -7  -6 -12   -0.30    0.40
   7   6  12   -0.60    1.10
  -8  -6 -12   -0.20    0.30
   8   6  12    0.20    1.20
  18   7 -12   -0.30    1.10
  17   7 -12    0.90    1.20
  16   7 -12    1.70    1.20
  15   7 -12    3.00    1.30
  14   7 -12   12.70    2.30
  13   7 -12   17.80    2.60
 -12   7  12   23.50    2.00
  11   7 -12    2.50    1.50
 -11   7  12    4.00    1.30
  10  -7 -12   -0.60    2.00
  10  -7 -12   -0.30    2.00
 -10   7  12    0.70    0.70
  10   7 -12   -0.30    1.50
   9  -7 -12   -0.20    2.10
   9  -7 -12    0.20    1.90
  -9   7  12   -0.40    0.60
   9   7 -12   -0.30    1.40
   8  -7 -12    3.90    2.40
   8  -7 -12   -0.30    1.80
  -8   7  12    3.60    1.10
   8   7 -12    2.10    1.60
   7  -7 -12    6.30    2.30
  -7   7  12    7.20    1.20
   7   7 -12    9.70    2.60
   6  -7 -12   16.60    3.50
   6   7 -12   17.80    2.70
  -6   7  12   16.00    1.60
   5  -7 -12    3.80    2.00
   5   7 -12   11.70    2.30
  -5   7  12    6.60    1.10
   4  -7 -12    1.20    2.00
  -4   7  12    2.10    0.70
   4   7 -12    3.20    1.10
   3  -7 -12   -0.80    1.80
  -3   7  12   -1.00    0.60
  -3   7  12   -0.40    0.50
   3   7 -12   -0.20    0.80
   2  -7 -12    0.50    0.40
   2  -7 -12    0.40    1.80
   2   7 -12    0.00    0.80
  -2   7  12   -0.30    0.70
   1  -7 -12    5.20    1.20
   1  -7 -12    3.00    2.00
  -1   7  12    4.80    1.40
   1   7 -12    3.90    0.90
   0  -7 -12   23.90    1.90
   0  -7 -12   22.10    3.80
   0   7 -12   24.00    2.00
   0   7  12   22.50    2.20
  -1  -7 -12   34.90    2.40
  -1  -7 -12   33.10    4.20
   1   7  12   28.40    2.90
  -1   7 -12   33.30    2.40
  -2  -7 -12   22.80    3.30
  -2  -7 -12   30.00    2.20
   2   7  12   28.30    2.80
  -3  -7 -12    9.40    2.50
  -3  -7 -12    7.70    1.30
   3   7  12    7.10    2.00
  -4  -7 -12    3.10    1.40
  -4  -7 -12    4.90    1.20
   4   7  12    2.60    1.30
  -5  -7 -12    1.20    1.10
  -5  -7 -12    0.20    0.40
   5   7  12    1.90    1.30
  -6  -7 -12   -0.10    0.90
  -6  -7 -12   -0.20    0.40
   6   7  12   -0.70    1.10
  17   8 -12    0.50    1.20
  16   8 -12    3.00    1.30
  15   8 -12    9.00    2.30
  14   8 -12    5.60    1.60
  13   8 -12    4.90    1.60
 -13   8  12    6.40    1.40
 -12   8  12    2.20    0.70
  12   8 -12    2.90    1.60
  11   8 -12    4.40    1.70
 -11   8  12    6.90    1.30
  10  -8 -12    1.00    2.00
 -10   8  12   -0.40    0.60
  10   8 -12   -0.70    1.50
   9  -8 -12    2.10    2.10
  -9   8  12    5.80    1.20
   9   8 -12    3.30    1.70
   8  -8 -12    0.80    2.00
   8   8 -12    3.10    1.60
  -8   8  12    2.10    0.70
   7  -8 -12   -0.90    1.80
  -7   8  12    0.00    0.60
   7   8 -12    1.00    1.50
   6  -8 -12   -0.50    1.90
   6   8 -12    1.70    1.30
  -6   8  12    0.80    0.60
   5  -8 -12   -2.20    1.70
   5   8 -12    1.20    1.20
  -5   8  12    0.10    0.60
   4  -8 -12    0.50    2.00
  -4   8  12    1.10    0.60
   3  -8 -12    3.10    1.90
   3   8 -12    6.20    1.50
  -3   8  12    4.60    1.20
   2  -8 -12   -1.30    1.70
   2   8 -12   -0.30    0.70
  -2   8  12   -1.20    0.60
   1  -8 -12    3.30    1.90
   1   8 -12    8.40    1.40
  -1   8  12    6.00    1.50
   0  -8 -12    1.70    0.50
   0  -8  12    2.30    1.00
   0  -8 -12    1.70    2.00
   0   8  12    3.30    1.00
   0   8 -12    4.90    1.20
  -1  -8 -12    7.20    1.20
  -1  -8 -12    8.50    2.80
   1   8  12    8.10    1.90
  -1   8 -12    8.10    1.30
  -2  -8 -12    9.00    2.40
  -2  -8 -12    9.50    1.30
  -2   8 -12   10.10    1.30
   2   8  12    8.70    1.90
  -3  -8 -12   12.10    1.40
  -3  -8 -12   12.80    2.30
   3   8  12    9.90    2.00
  -4  -8 -12    3.20    1.30
  -4  -8 -12    4.80    1.10
   4   8  12    2.60    1.20
  -5  -8 -12    0.10    0.40
   5   8  12   -0.60    1.10
  15   9 -12    3.30    1.50
  14   9 -12    0.90    1.50
  13   9 -12    1.50    1.40
 -12   9  12    4.00    1.10
  12   9 -12    4.60    1.70
  11  -9 -12    1.90    2.00
 -11   9  12   -0.40    0.60
  11   9 -12   -0.60    1.40
  10  -9 -12   -0.50    1.90
 -10   9  12   -0.50    0.60
  10   9 -12   -0.10    1.50
   9  -9 -12    0.70    1.90
  -9   9  12    0.00    0.60
   9   9 -12    0.80    1.50
   8  -9 -12    0.20    2.00
   8   9 -12   -0.50    1.40
  -8   9  12   -0.20    0.60
   7  -9 -12    0.20    1.80
   7   9 -12    2.10    1.30
  -7   9  12    0.80    0.70
   6  -9 -12    1.80    2.00
  -6   9  12    4.50    1.20
   6   9 -12    6.30    2.00
   5  -9 -12    1.80    1.90
  -5   9  12    1.70    0.70
   5   9 -12    1.10    1.00
   4  -9 -12   -0.20    1.80
   4   9 -12   -0.70    0.80
  -4   9  12   -0.50    0.60
   3  -9 -12    0.00    1.70
  -3   9  12    0.30    0.70
   3   9 -12    0.20    0.80
  -2  -9  12    0.20    0.70
   2  -9 -12   -0.80    1.70
  -2   9  12   -0.20    0.60
   2   9 -12    0.30    0.70
   1  -9 -12   -2.50    1.70
  -1  -9  12    0.60    0.80
  -1   9  12    0.20    0.70
   1   9 -12    0.10    0.70
   0  -9 -12    2.70    1.80
   0  -9  12    2.40    1.00
   0   9  12    2.30    0.90
   0   9 -12    4.60    1.20
  -1  -9 -12    1.70    0.50
  -1  -9 -12    1.20    1.40
   1   9  12    1.50    0.90
  -1   9 -12    1.80    0.70
  -2  -9 -12    0.80    1.20
  -2  -9 -12    1.00    0.40
  -2   9 -12    0.80    0.60
   2   9  12    1.20    1.00
  -3  -9 -12    1.00    0.40
  -3  -9 -12    1.00    1.10
   3   9  12    1.30    1.00
 -12  10  12    0.50    0.60
  12  10 -12    1.00    1.40
  11 -10 -12   -0.20    2.00
  11  10 -12   -1.10    1.30
 -11  10  12   -0.20    0.60
  10 -10 -12   -0.80    1.90
 -10  10  12   -0.10    0.60
  10  10 -12   -0.20    1.30
   9 -10 -12   -0.20    1.90
   9  10 -12   -0.70    1.20
  -9  10  12   -0.10    0.60
   8 -10 -12    3.10    2.10
  -8  10  12    4.90    1.20
   8  10 -12    4.10    1.40
   7 -10 -12    6.50    2.30
   7  10 -12    9.10    1.90
  -7  10  12    8.10    1.30
   6 -10 -12   13.60    3.20
  -6  10  12   11.60    1.50
   6  10 -12   11.50    1.80
   5 -10 -12    5.20    2.10
  -5  10  12    8.80    1.40
   5  10 -12    9.30    1.50
  -4 -10  12    4.50    1.30
   4 -10 -12    2.10    1.80
   4  10 -12    2.50    0.90
  -4  10  12    6.30    1.20
  -3 -10  12    0.00    0.80
   3 -10 -12   -1.60    1.70
  -3  10  12    0.30    0.70
   3  10 -12   -0.40    0.70
  -2 -10  12   -0.60    0.70
   2 -10 -12    1.40    1.70
  -2  10  12    0.20    0.70
   2  10 -12   -0.50    0.70
  -1 -10  12   -0.90    0.80
   1 -10 -12   -0.80    1.50
  -1  10  12    0.70    0.80
   1  10 -12   -0.50    0.60
   0 -10 -12    0.30    1.20
   0  10 -12    0.00    0.50
   0  10  12    1.00    0.90
 -12   0  13  179.48    7.50
 -11   0  13   74.29    3.50
 -10   0  13    5.20    0.80
  -9   0  13    3.60    0.70
  -8   0  13  167.48    7.00
  -7   0  13  189.88    7.90
  -6   0  13  188.78    7.90
  -5   0  13  183.18    7.70
  -4   0  13    4.70    0.80
  -3   0  13    4.70    0.80
  -2   0  13   73.99    3.60
  -1   0  13  187.98    7.90
   0   0  13  138.89    6.10
   1   0  13   62.89    3.30
   2   0  13   61.49    3.20
   3   0  13   17.30    1.80
  -3   0 -13   17.70    1.60
   4   0  13    1.00    0.70
  -4   0 -13    0.10    0.50
  -5   0 -13    0.10    0.40
   5   0  13   -0.70    0.60
  -6   0 -13   26.80    2.00
  -7   0 -13   11.40    1.30
  -8   0 -13   14.70    1.40
  16   1 -13    4.10    1.60
  15   1 -13    8.30    2.50
  14   1 -13   39.40    3.60
  13   1 -13   76.99    5.30
  12   1 -13   47.80    3.90
 -11  -1  13   29.30    2.00
  11   1 -13   31.40    3.10
 -10  -1  13   10.00    1.30
  10   1 -13   12.00    2.40
 -10   1  13   10.90    1.30
  -9  -1  13    1.00    0.60
   9   1 -13    0.00    1.10
  -9   1  13    1.50    0.60
  -8  -1  13    6.50    1.20
   8   1 -13    5.70    1.30
  -8   1  13    7.60    1.20
  -7  -1  13   42.90    2.40
  -7   1  13   43.20    2.30
  -6  -1  13   47.90    2.70
  -6   1  13   50.09    2.60
  -5  -1  13    6.60    1.40
  -5   1  13    6.50    1.20
  -4  -1  13    1.00    0.60
  -4   1  13    1.60    0.60
  -3  -1  13   12.50    1.50
  -3   1  13    9.70    1.50
  -2  -1  13   35.60    2.20
  -2   1  13   33.70    2.20
  -1  -1  13   52.59    2.90
  -1   1  13   55.29    2.90
   0  -1  13   86.19    4.20
   0   1  13   90.09    4.20
   1  -1  13   48.30    2.80
   1   1  13   47.80    2.70
   2  -1  13    7.00    1.50
  -2  -1 -13    7.20    1.20
   2   1  13    6.70    1.40
   3  -1  13    2.70    0.80
  -3  -1 -13    1.90    0.50
   3   1  13    3.00    0.70
  -4  -1 -13   13.50    1.50
   4  -1  13   12.80    1.80
  -4   1 -13   13.10    1.50
   4   1  13   13.00    1.70
   5  -1  13    3.40    0.90
  -5  -1 -13    6.00    1.30
  -5   1 -13    5.10    1.10
   6  -1  13    0.20    0.70
  -6  -1 -13    0.50    0.40
  -6   1 -13    0.30    0.40
  -7  -1 -13   13.80    1.50
  -8  -1 -13    7.10    1.20
  19   2 -13    1.40    1.60
  18   2 -13    1.10    1.50
  17   2 -13    1.20    1.50
  16   2 -13    3.20    1.50
  15   2 -13    1.60    1.40
  14   2 -13    3.70    1.50
  13   2 -13    0.00    1.40
  12   2 -13   -0.40    1.30
  11   2 -13    7.20    2.30
  10   2 -13    6.60    1.60
  -9  -2  13   15.70    1.60
   9   2 -13   17.70    2.60
  -8  -2  13   44.60    2.50
   8   2 -13   45.80    3.50
  -7  -2  13   78.79    3.70
   7   2 -13   78.89    4.90
  -7   2  13   72.49    3.50
  -6  -2  13   82.69    3.70
   6   2 -13   72.69    4.70
  -6   2  13   79.19    3.60
  -5  -2  13   45.90    2.50
  -5   2  13   41.60    2.40
  -5   2  13   42.90    3.10
   5   2 -13   41.10    2.80
  -4  -2  13   18.50    1.60
  -4   2  13   18.90    2.10
  -4   2  13   18.20    1.60
  -3  -2  13    6.20    1.30
  -3   2  13    4.10    0.80
  -3   2  13    5.80    1.70
  -2  -2  13    5.80    1.30
  -2   2  13    6.10    1.30
  -2   2  13    6.00    1.80
  -1  -2  13    0.40    0.70
  -1   2  13    0.60    1.10
  -1   2  13    0.40    0.60
   0  -2  13   -0.40    0.60
   0   2  13    0.60    0.60
   0   2  13    0.30    1.10
   1  -2  13    3.60    0.80
  -1  -2 -13    5.60    1.00
   1   2  13    3.10    1.40
   1   2  13    3.20    0.70
   2  -2  13    3.40    0.80
  -2  -2 -13    1.70    0.50
   2   2  13    2.10    1.30
   2   2  13    2.10    0.70
   3  -2  13    8.60    1.50
  -3  -2 -13    6.40    1.20
   3   2  13    3.10    1.50
   3   2  13    4.70    0.90
  -4  -2 -13    1.50    0.50
   4  -2  13    1.80    0.80
   5  -2  13    3.30    0.90
  -5  -2 -13    1.90    0.50
  -5   2 -13    1.70    0.50
  -6  -2 -13    0.30    0.50
  -7  -2 -13    0.30    0.40
  -8  -2 -13    0.90    0.50
  -9  -2 -13    0.20    0.40
  20   3 -13    1.30    1.50
  19   3 -13    0.90    1.40
  18   3 -13   -0.90    1.40
  17   3 -13    0.40    1.40
  16   3 -13    0.20    1.30
  15   3 -13   -0.30    1.30
  14   3 -13    5.30    1.60
  13   3 -13    0.90    1.30
  12   3 -13    3.60    1.50
  11   3 -13    2.30    1.40
  10   3 -13    2.60    1.40
   9   3 -13   70.79    4.90
  -8  -3  13  171.98    7.20
  -8   3  13  167.88    9.40
   8   3 -13  170.18    9.70
  -7  -3  13  228.88    9.70
   7   3 -13  241.28   12.90
  -7   3  13  231.68   12.70
  -6  -3  13  237.08    9.60
   6   3 -13  230.58   12.80
  -6   3  13  229.98   12.70
  -6   3  13  231.58    9.50
  -5  -3  13  175.98    7.40
  -5   3  13  176.08    9.70
   5   3 -13  170.18    9.60
  -5   3  13  176.38    7.30
  -4  -3  13   78.39    3.70
  -4   3  13   79.49    4.70
  -4   3  13   74.79    3.60
   4   3 -13   68.79    4.40
  -3  -3  13    3.00    0.80
   3   3 -13    3.40    1.10
  -3   3  13    3.70    0.70
  -3   3  13    4.60    1.00
   2  -3 -13    2.60    0.50
  -2  -3  13    3.60    0.70
  -2   3  13    4.60    1.10
  -2   3  13    3.20    0.70
   1  -3 -13    6.00    1.10
  -1  -3  13    7.70    1.40
  -1   3  13    7.20    1.80
  -1   3  13    5.30    1.30
   0  -3 -13    1.40    0.50
   0  -3  13    2.10    0.70
   0   3  13    2.40    1.10
   0   3  13    1.70    0.70
   1  -3  13    8.30    1.50
  -1  -3 -13    7.70    1.20
   1   3  13    6.80    2.10
   1   3  13    8.70    1.40
   2  -3  13    0.80    0.70
  -2  -3 -13    0.30    0.40
   2   3  13    0.50    1.20
   2   3  13    1.10    0.70
   3  -3  13    0.50    0.70
  -3  -3 -13    0.60    0.50
   3   3  13   -0.20    1.20
  -4  -3 -13    1.20    0.50
   4  -3  13    0.90    0.80
   4   3  13    0.90    1.40
  -5  -3 -13    0.20    0.50
   5   3  13    0.70    1.30
  -6  -3 -13    1.10    0.50
  -7  -3 -13    0.40    0.50
  -8  -3 -13    0.30    0.40
  -9  -3 -13    0.20    0.40
  21   4 -13    2.40    1.40
  20   4 -13    0.70    1.40
  19   4 -13    0.60    1.40
  18   4 -13    0.80    1.40
  17   4 -13    0.20    1.30
  16   4 -13   -0.50    1.20
  15   4 -13   -0.10    1.30
  14   4 -13    0.10    1.20
  13   4 -13   11.20    2.40
  12  -4 -13   16.70    3.20
  12   4 -13    9.90    2.40
  10   4 -13    1.70    1.40
   9   4 -13   26.50    3.00
  -9   4  13   25.60    2.20
   8   4 -13  138.99    8.20
  -8   4  13  136.39    7.70
  -7  -4  13  294.37   12.10
   7   4 -13  301.67   16.30
  -7   4  13  295.47   16.00
  -6  -4  13  291.77   12.10
  -6   4  13  303.97   16.00
   6   4 -13  290.17   16.10
   5  -4 -13  118.39    9.40
   5  -4 -13  133.99    7.00
  -5  -4  13  142.19    6.00
  -5   4  13  144.59    5.90
  -5   4  13  133.59    7.70
   5   4 -13  138.79    7.80
   4  -4 -13   27.70    2.00
  -4  -4  13   29.90    2.10
   4  -4 -13   28.60    3.90
  -4   4  13   33.30    2.00
   4   4 -13   27.60    2.30
  -4   4  13   30.20    2.40
   3  -4 -13    0.40    0.40
   3  -4 -13    0.00    1.70
  -3  -4  13    0.70    0.70
  -3   4  13    1.50    0.60
   3   4 -13    0.60    0.70
  -3   4  13    1.10    0.80
   2  -4 -13    1.70    0.50
  -2  -4  13    1.90    0.70
   2  -4 -13    2.00    1.90
  -2   4  13    2.30    0.90
  -2   4  13    2.50    0.70
   2   4 -13    3.20    1.00
   1  -4 -13   13.20    1.30
  -1  -4  13   13.40    1.60
   1  -4 -13   14.90    3.50
  -1   4  13   12.10    1.50
  -1   4  13   14.30    2.00
   0  -4 -13   17.40    3.50
   0  -4  13   20.10    1.90
   0  -4 -13   18.20    1.60
   0   4  13   15.30    2.20
   0   4  13   16.30    1.60
  -1  -4 -13    0.60    0.40
  -1  -4 -13    0.00    1.60
   1  -4  13    0.10    0.70
   1   4  13    0.50    1.10
  -2  -4 -13    0.40    0.40
  -2  -4 -13   -1.30    1.50
   2  -4  13    0.70    0.70
   2   4  13    0.00    1.20
   3  -4  13   -0.20    0.80
  -3  -4 -13   -0.10    0.50
   3   4  13    0.00    1.30
  -4  -4 -13    0.00    0.50
   4   4  13    1.00    1.30
  -5  -4 -13    2.00    0.60
   5   4  13    2.50    1.40
  -6  -4 -13    0.40    0.50
   6   4  13    0.50    1.30
  -7  -4 -13   -0.30    0.40
   7   4  13   -1.00    1.20
  -8  -4 -13    0.00    0.40
  20   5 -13    0.60    1.30
  19   5 -13    0.70    1.30
  18   5 -13    0.60    1.30
  17   5 -13    3.10    1.50
  16   5 -13   -0.70    1.30
  15   5 -13   -0.40    1.30
  14   5 -13    0.10    1.20
  13  -5 -13    5.10    2.40
  13   5 -13    2.30    1.40
  12  -5 -13    0.00    1.80
  12   5 -13   -0.10    1.30
  11  -5 -13    5.60    2.50
 -11   5  13    4.30    1.30
  11   5 -13    4.20    1.60
  10   5 -13   -1.00    1.30
 -10   5  13    0.10    0.60
  -9   5  13   26.10    2.10
   8   5 -13   39.90    3.50
  -8   5  13   36.00    2.60
   7  -5 -13   23.10    3.90
  -7   5  13   25.20    2.10
   7   5 -13   25.70    2.90
  -6  -5  13   24.40    1.90
   6  -5 -13   23.90    4.00
   6   5 -13   26.00    2.70
  -6   5  13   25.30    2.10
  -5  -5  13   37.50    2.30
   5  -5 -13   31.90    4.50
  -5   5  13   37.10    2.20
   5   5 -13   35.80    3.00
  -5   5  13   40.40    2.70
   4  -5 -13   30.90    2.10
   4  -5 -13   28.30    4.10
  -4  -5  13   30.00    2.20
  -4   5  13   32.10    2.50
  -4   5  13   33.20    2.10
   4   5 -13   32.50    2.50
   3  -5 -13    0.00    0.40
   3  -5 -13    0.10    1.80
  -3  -5  13    0.20    0.70
   3   5 -13    0.90    0.70
  -3   5  13    0.80    0.60
  -3   5  13    0.00    0.70
  -2  -5  13    2.00    0.80
   2  -5 -13    5.50    1.10
   2  -5 -13    3.60    2.00
  -2   5  13    5.50    1.20
   2   5 -13    4.80    1.20
  -2   5  13    6.10    1.60
   1  -5 -13    0.10    0.40
   1  -5 -13   -1.20    1.70
  -1  -5  13    0.60    0.70
  -1   5  13    0.30    0.80
  -1   5  13   -0.30    0.60
   1   5 -13   -0.40    0.60
   0  -5  13    3.50    0.90
   0  -5 -13    7.40    1.20
   0  -5 -13    4.40    2.00
   0   5  13    4.40    1.20
  -1  -5 -13    0.30    0.40
   1  -5  13    0.60    0.80
  -1  -5 -13    0.30    1.60
   1   5  13    0.10    1.00
  -2  -5 -13    0.60    0.50
  -2  -5 -13    1.40    1.60
   2   5  13    0.50    1.10
  -3  -5 -13   -1.20    1.40
  -3  -5 -13   -0.30    0.40
   3   5  13    0.70    1.20
  -4  -5 -13    2.40    0.60
  -4  -5 -13    3.80    1.50
   4   5  13    4.10    1.60
  -5  -5 -13   -0.40    0.50
  -5  -5 -13   -0.60    1.20
   5   5  13    0.90    1.30
  -6  -5 -13    0.80    0.50
   6   5  13    1.70    1.30
  -7  -5 -13   -0.10    0.40
   7   5  13   -0.30    1.10
  19   6 -13    1.50    1.40
  18   6 -13    0.20    1.30
  17   6 -13    2.50    1.40
  16   6 -13    0.20    1.30
  15   6 -13    2.60    1.50
  14   6 -13   11.00    2.60
  13   6 -13    9.00    2.70
  12  -6 -13    9.80    3.00
  12   6 -13    6.70    1.90
  11  -6 -13   17.20    3.80
 -11   6  13   16.50    1.70
  11   6 -13   11.90    2.80
  10  -6 -13    7.10    2.90
 -10   6  13   10.90    1.40
  10   6 -13    6.40    1.80
   9   6 -13    1.20    1.50
  -9   6  13   -0.30    0.60
   8  -6 -13    0.20    2.00
   8   6 -13    0.80    1.40
  -8   6  13    3.80    1.10
   7  -6 -13   12.60    3.50
   7   6 -13   17.10    2.70
  -7   6  13   13.20    1.50
   6  -6 -13   13.70    3.60
   6   6 -13   16.60    2.40
  -6   6  13   15.10    1.60
   5  -6 -13    3.50    2.20
  -5  -6  13    0.90    0.70
   5   6 -13    2.20    1.10
  -5   6  13    0.80    0.70
  -5   6  13    0.30    0.60
   4  -6 -13   -0.20    1.80
  -4  -6  13   -0.30    0.60
   4   6 -13   -0.40    0.80
  -4   6  13    0.50    0.60
  -4   6  13   -0.50    0.60
   3  -6 -13    4.80    2.10
   3  -6 -13   10.50    1.20
  -3  -6  13    9.20    1.60
  -3   6  13    8.10    1.40
   3   6 -13    7.70    1.50
  -3   6  13    8.30    1.60
   2  -6 -13   16.30    3.60
   2  -6 -13   19.70    1.60
  -2  -6  13   22.50    2.00
   2   6 -13   16.40    1.80
  -2   6  13   17.60    2.00
  -2   6  13   15.80    1.70
   1  -6 -13   13.70    3.60
   1  -6 -13   14.00    1.50
   1   6 -13   10.10    1.50
  -1   6  13   12.80    2.00
   0  -6 -13   17.00    1.70
   0  -6 -13   18.60    3.70
   0   6 -13   17.10    1.70
   0   6  13   15.90    2.20
  -1  -6 -13   16.30    3.30
  -1  -6 -13   17.90    1.80
   1   6  13   16.50    2.30
  -2  -6 -13    8.10    2.60
  -2  -6 -13    6.60    1.40
   2   6  13    7.70    2.10
  -3  -6 -13    0.40    0.50
  -3  -6 -13    0.30    1.40
   3   6  13    0.20    1.10
  -4  -6 -13    3.70    1.40
  -4  -6 -13    4.70    1.20
   4   6  13    3.70    1.50
  -5  -6 -13    0.70    0.40
  -5  -6 -13    1.10    1.20
   5   6  13    0.90    1.20
  -6  -6 -13   -0.30    0.40
  -6  -6 -13    1.40    1.10
   6   6  13   -0.20    1.20
  18   7 -13    0.60    1.40
  17   7 -13    1.80    1.40
  16   7 -13    5.30    1.70
  15   7 -13   11.90    2.70
  14   7 -13   17.00    2.90
  13   7 -13    5.20    1.80
  12   7 -13   21.60    3.30
 -12   7  13   24.90    2.10
  11   7 -13   22.00    3.40
 -11   7  13   25.90    2.10
  10   7 -13    2.30    1.70
 -10   7  13    3.10    0.80
   9  -7 -13    1.50    2.30
  -9   7  13    0.50    0.60
   9   7 -13    1.10    1.60
   8  -7 -13   12.60    3.80
   8   7 -13   19.20    2.90
  -8   7  13   15.40    1.60
   7  -7 -13    4.00    2.20
  -7   7  13    9.80    1.40
   7   7 -13   12.20    2.60
   6  -7 -13    5.30    2.30
   6   7 -13   10.20    2.40
  -6   7  13    9.10    1.30
   5  -7 -13   11.90    3.80
   5   7 -13   16.90    2.20
  -5   7  13   13.70    1.60
  -5   7  13   15.10    1.60
   4  -7 -13    0.60    1.90
   4   7 -13    1.00    0.90
  -4   7  13    0.40    0.70
  -4   7  13    1.80    0.70
   3  -7 -13    3.30    2.10
   3   7 -13    2.60    0.90
  -3   7  13    2.40    0.90
   2  -7 -13   29.20    2.00
   2  -7 -13   21.50    4.00
   2   7 -13   26.70    2.20
  -2   7  13   24.90    2.40
   1  -7 -13   33.20    2.30
   1  -7 -13   28.30    4.20
   1   7 -13   32.80    2.50
  -1   7  13   31.30    2.70
   0  -7 -13    8.10    1.40
   0  -7 -13    5.10    2.10
   0   7 -13    7.20    1.40
   0   7  13    6.00    1.80
  -1  -7 -13   29.80    2.20
  -1  -7 -13   27.70    3.50
   1   7  13   26.90    2.70
  -2  -7 -13   19.10    1.70
  -2  -7 -13   18.60    2.90
   2   7  13   16.80    2.40
  -3  -7 -13   11.80    1.40
  -3  -7 -13   14.10    2.50
   3   7  13   10.00    2.30
  -4  -7 -13    4.10    1.10
  -4  -7 -13    2.50    1.20
   4   7  13    1.70    1.30
  -5  -7 -13    0.80    0.40
   5   7  13   -0.30    1.10
  17   8 -13    0.90    1.50
  16   8 -13    1.20    1.50
  15   8 -13    3.70    1.70
  14   8 -13    1.80    1.60
  13   8 -13   26.40    3.40
 -12   8  13    7.00    1.40
  12   8 -13    4.30    1.70
  11   8 -13    0.40    1.60
 -11   8  13   -0.30    0.60
  10  -8 -13    1.30    2.20
  10   8 -13    0.30    1.60
 -10   8  13   -0.60    0.60
   9  -8 -13    1.40    2.10
  -9   8  13    0.70    0.70
   9   8 -13    0.30    1.50
   8  -8 -13    0.50    2.00
  -8   8  13    0.30    0.60
   8   8 -13    0.60    1.50
   7  -8 -13    1.00    2.00
  -7   8  13    1.30    0.70
   7   8 -13    1.60    1.40
   6  -8 -13    0.60    1.90
  -6   8  13    0.60    0.70
   6   8 -13    2.60    1.30
   5  -8 -13    0.60    2.00
   5   8 -13    0.40    1.00
  -5   8  13    0.40    0.70
  -5   8  13    0.10    0.60
   4  -8 -13    0.00    1.80
   4   8 -13    0.40    0.80
  -4   8  13    0.60    0.70
   3  -8 -13   -0.20    1.80
  -3   8  13   -0.10    0.80
   3   8 -13   -0.10    0.70
   2  -8 -13   -0.50    1.80
  -2   8  13   -0.70    0.80
   2   8 -13    0.00    0.70
  -1  -8  13    6.80    1.50
   1  -8 -13    5.60    2.30
  -1   8  13    6.30    1.70
   1   8 -13   10.50    1.40
   0  -8 -13   33.50    2.30
   0  -8 -13   39.20    4.10
   0   8  13   33.30    2.90
   0   8 -13   37.50    2.50
  -1  -8 -13    1.60    0.50
  -1  -8 -13    1.50    1.50
   1   8  13    3.20    1.10
  -2  -8 -13    4.60    1.50
  -2  -8 -13    7.00    1.10
   2   8  13    3.60    1.20
  -3  -8 -13    2.50    1.20
  -3  -8 -13    1.60    0.50
   3   8  13    0.80    1.10
  -4  -8 -13    0.70    0.40
   4   8  13    2.10    1.20
  15   9 -13    0.00    1.30
  14   9 -13    4.10    1.50
  13   9 -13   -0.60    1.40
 -12   9  13    1.50    0.70
  12   9 -13    2.00    1.60
 -11   9  13    4.50    1.20
  11   9 -13    3.60    1.60
  10  -9 -13    0.50    2.00
 -10   9  13    0.80    0.70
  10   9 -13    1.30    1.40
   9  -9 -13    2.20    2.10
   9   9 -13   -0.10    1.40
  -9   9  13   -0.90    0.60
   8  -9 -13    1.00    2.00
  -8   9  13    0.20    0.60
   8   9 -13    1.30    1.30
   7  -9 -13    4.40    2.20
  -7   9  13    9.40    1.40
   7   9 -13   10.90    2.20
   6  -9 -13    3.00    2.20
  -6   9  13    7.00    1.40
   6   9 -13   11.40    1.90
  -6   9  13    7.80    1.30
   5  -9 -13   -0.70    1.70
   5   9 -13    0.10    0.80
  -5   9  13    0.90    0.70
   4  -9 -13    1.00    1.80
   4   9 -13   -0.70    0.70
  -4   9  13   -0.10    0.70
   3  -9 -13    2.20    1.90
  -3   9  13    0.70    0.80
   3   9 -13    1.60    0.80
  -2  -9  13    6.40    1.40
   2  -9 -13    3.20    2.10
   2   9 -13    6.90    1.30
  -2   9  13    5.60    1.50
  -1  -9  13    1.60    0.90
   1  -9 -13    2.80    1.90
   1   9 -13    2.10    0.80
  -1   9  13    3.00    1.00
   0  -9 -13   -0.10    1.30
   0   9  13    0.60    0.80
   0   9 -13    0.40    0.60
  -1  -9 -13    3.50    1.40
   1   9  13    3.50    1.10
  -2  -9 -13   -0.10    0.40
   2   9  13    0.70    1.00
  11  10 -13   -0.50    1.20
 -11  10  13    0.10    0.60
  10  10 -13    1.20    1.20
 -10  10  13    1.20    0.70
   9 -10 -13    4.90    2.10
  -9  10  13    5.80    1.20
   9  10 -13    6.70    1.90
   8 -10 -13    7.00    2.30
  -8  10  13    8.90    1.30
   8  10 -13    9.50    1.90
   7 -10 -13   10.20    3.30
   7  10 -13    9.50    1.60
  -7  10  13   10.20    1.40
   6 -10 -13    4.30    2.00
  -6  10  13   10.80    1.50
   6  10 -13   10.20    1.50
   5 -10 -13    4.20    2.00
  -5 -10  13    9.10    1.50
  -5  10  13    9.40    1.50
   5  10 -13    7.70    1.40
  -4 -10  13    5.70    1.30
   4 -10 -13    4.10    2.00
  -4  10  13    8.00    1.50
   4  10 -13    7.00    1.30
   3 -10 -13    1.20    1.60
  -3 -10  13    1.10    0.80
   3  10 -13    1.20    0.70
  -3  10  13    1.20    0.80
   2  10 -13   -0.50    0.60
  -2  10  13   -0.50    0.70
 -13   0  14   59.29    3.00
 -12   0  14   44.20    2.40
 -11   0  14   37.00    2.20
 -10   0  14    1.20    0.60
  -9   0  14   51.99    2.70
  -8   0  14  105.49    4.70
  -7   0  14  346.47   14.00
  -6   0  14  110.19    4.90
  -5   0  14   53.69    2.90
  -4   0  14    1.40    0.70
  -3   0  14   38.40    2.40
  -2   0  14   48.00    2.70
  -1   0  14   58.89    3.10
   0   0  14   63.59    3.30
   1   0  14   23.30    2.00
   2   0  14    0.40    0.60
  -3   0 -14    0.90    0.50
   3   0  14    0.70    0.70
   4   0  14   25.10    2.10
  -4   0 -14   29.90    2.10
   5   0  14   33.20    2.40
  -5   0 -14   32.80    2.30
  -6   0 -14   23.70    1.80
  -7   0 -14   21.80    1.70
 -14   1  14   10.60    1.30
 -13   1  14   46.50    2.50
  13   1 -14   45.80    3.90
 -12   1  14   61.19    3.00
  12   1 -14   55.79    4.30
 -11  -1  14   16.90    1.60
 -11   1  14   18.10    1.50
 -10  -1  14    1.90    0.60
 -10   1  14    1.00    0.60
  -9  -1  14    5.70    1.30
  -9   1  14    3.40    0.70
  -8  -1  14   58.69    3.00
  -8   1  14   55.69    2.90
  -7  -1  14    7.20    1.30
  -7   1  14   10.10    1.40
  -6  -1  14   55.29    3.00
  -6   1  14   58.59    3.00
  -5  -1  14    1.80    0.70
  -5   1  14    3.30    0.70
  -4  -1  14    1.50    0.70
  -4   1  14    1.30    0.70
  -3  -1  14   17.70    1.70
  -3   1  14   18.50    1.70
  -2  -1  14   61.59    3.20
  -2   1  14   62.29    3.20
  -1  -1  14   44.20    2.60
  -1   1  14   46.50    2.60
   0  -1  14   13.20    1.70
   0   1  14    9.70    1.50
   1  -1  14    2.20    0.70
   1   1  14    1.90    0.70
   2  -1  14   10.90    1.60
  -2  -1 -14    7.40    1.30
   2   1  14    9.20    1.50
   3  -1  14    2.60    0.80
  -3  -1 -14    2.00    0.60
   3   1  14    3.60    0.80
  -4  -1 -14   -0.10    0.50
   4  -1  14    0.90    0.70
   4   1  14   -0.10    0.70
  -4   1 -14   -0.20    0.40
  -5  -1 -14    5.90    1.20
   5  -1  14    3.90    0.90
  -5   1 -14    6.60    1.20
  -6  -1 -14   20.50    1.70
  -6   1 -14   20.40    1.70
  -7  -1 -14   13.30    1.40
  -8  -1 -14    9.70    1.20
  18   2 -14    3.90    1.70
  17   2 -14    0.40    1.50
  16   2 -14   -0.60    1.50
  15   2 -14    1.00    1.50
  14   2 -14   -0.20    1.30
  13   2 -14    3.40    1.50
  12   2 -14    6.10    1.60
  11   2 -14   19.50    2.80
 -10  -2  14   13.00    1.50
  10   2 -14   13.70    2.40
  -9  -2  14   24.90    1.90
  -9   2  14   22.50    1.70
   9   2 -14   28.10    2.80
  -8  -2  14   47.20    2.60
   8   2 -14   45.00    3.40
  -8   2  14   44.90    2.50
  -7  -2  14   14.50    1.50
   7   2 -14   14.10    1.90
  -7   2  14   14.10    1.40
  -6  -2  14   48.60    2.70
  -6   2  14   47.10    2.60
  -5  -2  14   25.00    1.90
  -5   2  14   24.50    1.90
  -4  -2  14   13.80    1.60
  -4   2  14   13.70    1.50
  -3  -2  14   18.10    1.70
  -3   2  14   19.80    1.70
  -2  -2  14    8.00    1.50
  -2   2  14    7.00    1.40
  -1  -2  14    3.20    0.80
  -1   2  14    3.30    0.70
   0  -2  14    0.00    0.60
   0  -2 -14    0.50    0.50
   0   2  14    0.70    0.60
   1  -2  14    0.60    0.70
  -1  -2 -14   -0.20    0.40
   1   2  14   -0.40    0.60
  -2  -2 -14    0.20    0.40
   2  -2  14    1.00    0.70
   2   2  14    0.00    0.60
  -3  -2 -14    0.10    0.50
   3  -2  14   -0.40    0.70
   3   2  14   -0.40    0.60
  -4  -2 -14    1.20    0.50
   4  -2  14    1.00    0.80
  -4   2 -14    1.10    0.50
   5  -2  14   -0.30    0.80
  -5  -2 -14   -0.50    0.40
  -5   2 -14    0.00    0.40
  -6  -2 -14    0.10    0.40
  -7  -2 -14    0.70    0.40
  -8  -2 -14    0.50    0.40
  20   3 -14    0.00    1.40
  19   3 -14    0.30    1.50
  18   3 -14   -0.80    1.70
  17   3 -14   -0.90    1.60
  16   3 -14    2.50    1.80
  15   3 -14   -1.00    1.40
  14   3 -14    2.40    1.50
  13   3 -14    8.10    2.60
  12   3 -14   -0.30    1.30
  11   3 -14    8.30    2.60
  10   3 -14   31.00    3.20
  -9  -3  14   56.79    3.00
   9   3 -14   60.29    4.20
  -8  -3  14  142.19    6.20
   8   3 -14  149.29    8.40
  -8   3  14  141.09    6.20
  -7  -3  14  205.88    8.60
   7   3 -14  200.98   11.30
  -7   3  14  201.88    8.50
  -7   3  14  207.78   11.40
  -6  -3  14  148.89    6.30
  -6   3  14  146.89    6.30
   6   3 -14  144.99    8.20
  -6   3  14  140.89    8.30
  -5  -3  14   62.79    3.20
  -5   3  14   62.99    3.10
   5   3 -14   56.69    3.70
  -5   3  14   61.99    4.10
  -4  -3  14   28.30    2.10
  -4   3  14   28.10    2.50
  -4   3  14   26.70    1.90
   3  -3 -14   10.80    1.30
  -3  -3  14   12.50    1.60
  -3   3  14   12.00    1.50
  -3   3  14   12.00    1.90
   2  -3 -14    0.50    0.40
  -2  -3  14    0.90    0.70
  -2   3  14    0.80    1.00
  -2   3  14    0.50    0.60
   1  -3 -14    9.90    1.30
  -1  -3  14    9.20    1.60
  -1   3  14    8.50    1.40
  -1   3  14   10.40    2.10
   0  -3 -14    0.70    0.40
   0  -3  14    2.40    0.80
   0   3  14    1.50    1.20
   0   3  14    2.10    0.70
  -1  -3 -14    1.40    0.50
   1  -3  14    0.40    0.70
   1   3  14    1.50    0.70
   1   3  14    0.60    1.30
  -2  -3 -14    2.50    0.60
   2  -3  14    1.70    0.80
   2   3  14    1.10    1.20
  -3  -3 -14   -0.20    0.50
   3  -3  14    0.40    0.80
   3   3  14    1.40    1.40
  -4  -3 -14   -0.40    0.50
   4  -3  14    0.60    0.80
  -4   3 -14    0.40    0.50
  -5  -3 -14    0.40    0.50
  -6  -3 -14    0.20    0.50
  -7  -3 -14   -0.40    0.40
  21   4 -14    1.10    1.40
  20   4 -14    0.50    1.30
  19   4 -14    1.60    1.60
  18   4 -14    4.00    1.80
  17   4 -14   -1.10    1.60
  16   4 -14    0.70    1.60
  15   4 -14   -1.60    1.50
  14   4 -14    4.70    1.80
  13   4 -14    0.50    1.50
  12   4 -14    1.60    1.50
  11   4 -14    1.50    1.50
  10   4 -14   18.60    2.90
   9   4 -14   93.79    5.90
  -9   4  14   90.89    5.50
  -8  -4  14   87.39    4.20
  -8   4  14   89.19    5.40
   8   4 -14   90.29    5.70
  -7  -4  14  122.09    5.60
  -7   4  14  131.59    7.30
   7   4 -14  122.69    7.50
  -7   4  14  132.19    5.60
   6  -4 -14   88.49    4.90
  -6  -4  14   90.59    4.30
   6   4 -14   88.49    5.50
  -6   4  14   93.49    4.20
  -6   4  14   96.99    5.60
  -5  -4  14   92.79    4.40
   5  -4 -14   89.59    5.00
   5   4 -14   91.39    5.50
  -5   4  14   96.59    4.30
  -5   4  14   94.49    5.60
  -4  -4  14   21.50    1.90
   4  -4 -14   19.50    1.60
   4   4 -14   21.20    1.80
  -4   4  14   22.40    1.80
  -4   4  14   19.20    2.10
   3  -4 -14    0.90    0.40
  -3  -4  14    1.10    0.70
   3   4 -14    1.50    0.60
  -3   4  14    2.50    1.00
  -3   4  14    1.80    0.70
   2  -4 -14    1.30    0.50
  -2  -4  14    1.20    0.70
  -2   4  14    1.80    1.00
  -2   4  14    2.70    0.70
  -1  -4  14    0.30    0.70
   1  -4 -14    0.80    0.40
  -1   4  14   -0.80    0.60
  -1   4  14    0.10    1.00
   0  -4 -14    5.20    1.20
   0  -4  14    3.60    0.90
   0   4  14    4.00    1.30
   0   4  14    3.60    0.80
  -1  -4 -14    0.00    0.40
   1  -4  14    0.60    0.80
   1   4  14   -0.80    1.10
   2  -4  14    1.30    0.80
  -2  -4 -14    0.60    0.50
   2   4  14    0.50    1.30
  -3  -4 -14    0.70    0.50
   3   4  14    1.10    1.30
  -4  -4 -14    6.40    1.30
   4   4  14    3.80    1.50
  -5  -4 -14    0.50    0.50
   5   4  14   -0.50    1.20
  -6  -4 -14   -0.20    0.40
  -7  -4 -14    0.30    0.40
  20   5 -14    1.40    1.40
  19   5 -14   -0.20    1.50
  18   5 -14   -1.30    1.50
  17   5 -14    0.10    1.60
  16   5 -14   -0.80    1.50
  15   5 -14    0.40    1.70
  14   5 -14    9.90    3.00
  13  -5 -14    0.10    2.10
  13   5 -14    0.20    1.50
  12  -5 -14    1.10    2.20
  12   5 -14    0.60    1.50
  11   5 -14    1.60    1.60
 -10   5  14    5.90    1.50
  10   5 -14    4.90    1.70
   9   5 -14    3.10    1.40
  -9   5  14    3.50    0.90
   8   5 -14    9.10    2.40
  -8   5  14   11.40    1.60
   7   5 -14   -0.30    1.20
  -7   5  14    0.50    0.80
  -6  -5  14   10.00    1.50
   6   5 -14   11.60    2.00
  -6   5  14    9.40    1.70
  -6   5  14   12.00    1.40
   5  -5 -14    5.00    1.00
   5  -5 -14    4.50    2.20
  -5  -5  14    5.90    1.40
  -5   5  14    4.20    0.80
   5   5 -14    3.40    1.00
  -5   5  14    5.30    1.50
   4  -5 -14    4.80    2.10
   4  -5 -14    6.90    1.10
  -4  -5  14    6.20    1.40
  -4   5  14    5.90    1.30
   4   5 -14    4.90    1.40
  -4   5  14    6.40    1.60
   3  -5 -14    2.60    2.00
  -3  -5  14    2.70    0.80
   3  -5 -14    2.00    0.50
  -3   5  14    2.60    0.70
  -3   5  14    3.50    1.00
   3   5 -14    2.70    0.80
  -2  -5  14    0.60    0.70
   2  -5 -14    0.30    1.80
   2  -5 -14   -0.20    0.40
   2   5 -14   -0.90    0.60
  -2   5  14   -0.40    0.90
  -2   5  14   -0.40    0.60
  -1  -5  14    0.40    0.70
   1  -5 -14    0.00    0.40
   1  -5 -14    0.40    1.90
  -1   5  14   -0.30    0.60
  -1   5  14    0.20    1.00
   0  -5 -14   15.40    1.60
   0  -5 -14   15.70    3.40
   0  -5  14   12.70    1.90
   0   5  14   13.30    2.20
   1  -5  14    2.30    0.90
  -1  -5 -14    1.50    0.50
  -1  -5 -14    2.90    1.80
   1   5  14    1.10    1.20
  -2  -5 -14    0.20    1.50
  -2  -5 -14    0.50    0.50
   2   5  14    0.00    1.10
  -3  -5 -14    0.80    0.60
  -3  -5 -14    0.40    1.40
   3   5  14    1.50    1.40
  -4  -5 -14   -0.50    0.50
   4   5  14    0.80    1.30
  -5  -5 -14   -0.40    0.40
   5   5  14    1.00    1.20
  -6  -5 -14    0.40    0.40
   6   5  14    0.10    1.10
  19   6 -14    3.20    1.70
  18   6 -14    0.40    1.50
  17   6 -14    0.50    1.60
  16   6 -14   -0.60    1.60
  15   6 -14    6.70    2.00
  14   6 -14   10.30    2.90
  13   6 -14   10.90    3.00
  12   6 -14   15.40    3.10
  11   6 -14    6.40    1.90
 -11   6  14    6.90    1.50
  10   6 -14    0.10    1.50
 -10   6  14   -0.20    0.70
   9   6 -14    9.20    2.70
  -9   6  14    5.00    1.30
   8   6 -14   24.80    3.00
  -8   6  14   20.20    2.00
   7  -6 -14    5.80    2.40
   7   6 -14   12.20    2.50
  -7   6  14   10.30    1.50
   6  -6 -14   17.20    3.90
  -6   6  14   16.50    1.60
   6   6 -14   21.20    2.40
  -6   6  14   21.00    2.00
   5  -6 -14    3.00    2.00
  -5  -6  14    6.90    1.50
   5   6 -14    5.40    1.70
  -5   6  14    3.70    0.80
  -5   6  14    5.20    1.50
   4  -6 -14   -1.50    1.70
  -4  -6  14    0.90    0.70
  -4   6  14   -0.10    0.60
   4   6 -14   -0.70    0.80
  -4   6  14   -0.90    0.70
   3  -6 -14    7.10    2.30
  -3  -6  14    6.90    1.60
   3  -6 -14   10.00    1.20
  -3   6  14    4.00    0.80
   3   6 -14    6.10    1.40
  -3   6  14    5.90    1.80
   2  -6 -14   25.20    4.00
  -2  -6  14   19.50    2.10
   2  -6 -14   23.70    1.80
  -2   6  14   19.30    2.30
   2   6 -14   19.10    1.90
   1  -6 -14   19.00    3.90
   1  -6 -14   18.60    1.70
   1   6 -14   16.40    1.70
  -1   6  14   14.20    2.30
   0  -6 -14   16.00    1.70
   0  -6 -14   16.10    3.40
   0   6  14   14.30    2.20
  -1  -6 -14    9.90    2.70
  -1  -6 -14   11.40    1.50
   1   6  14   12.60    2.20
  -2  -6 -14    4.70    1.20
  -2  -6 -14    1.70    1.40
   2   6  14    3.00    1.30
  -3  -6 -14   -0.70    1.20
  -3  -6 -14    0.20    0.40
   3   6  14    0.60    1.30
  -4  -6 -14    0.30    1.10
  -4  -6 -14    0.10    0.40
   4   6  14   -0.10    1.10
  -5  -6 -14    0.90    0.40
   5   6  14    0.20    1.10
  18   7 -14    2.20    1.40
  17   7 -14    2.00    1.50
  16   7 -14   -0.20    1.50
  15   7 -14    4.40    1.70
  14   7 -14    5.70    1.80
  13   7 -14   24.00    3.30
  12   7 -14   21.20    3.40
 -11   7  14    6.70    1.50
  11   7 -14   10.60    3.10
 -10   7  14   -0.50    0.70
  10   7 -14   -0.40    1.60
   9   7 -14    2.70    1.70
  -9   7  14    2.50    0.90
   8  -7 -14   16.50    3.90
  -8   7  14   17.00    1.80
   8   7 -14   22.90    3.00
   7  -7 -14   41.60    5.10
  -7   7  14   42.10    3.10
   7   7 -14   50.29    3.70
   6  -7 -14   12.30    3.90
   6   7 -14   24.00    2.40
  -6   7  14   18.60    1.70
  -6   7  14   18.40    2.00
   5  -7 -14    2.60    2.00
  -5   7  14    2.00    0.90
  -5   7  14    1.60    0.70
   5   7 -14    2.50    1.00
   4  -7 -14   -0.50    1.90
   4   7 -14    0.20    0.80
  -4   7  14   -0.90    0.80
  -4   7  14   -0.40    0.60
   3  -7 -14    4.40    2.20
   3   7 -14    7.60    1.50
  -3   7  14    5.70    1.80
   2  -7 -14   26.10    4.00
   2  -7 -14   27.60    2.00
   2   7 -14   26.80    2.20
  -2   7  14   24.90    2.60
   1  -7 -14   29.70    2.10
   1  -7 -14   25.80    4.00
  -1   7  14   26.10    2.70
   1   7 -14   30.10    2.20
   0  -7 -14    8.90    2.90
   0  -7 -14    9.30    1.40
   0   7  14    9.30    2.00
  -1  -7 -14    7.90    2.40
  -1  -7 -14    9.30    1.30
   1   7  14    6.40    2.00
  -2  -7 -14    2.50    1.40
  -2  -7 -14    1.70    0.50
   2   7  14    3.00    1.30
  -3  -7 -14    1.30    1.20
  -3  -7 -14    0.90    0.50
   3   7  14    0.40    1.20
  -4  -7 -14    1.30    0.40
   4   7  14    0.00    1.10
  16   8 -14    0.90    1.40
  15   8 -14   -0.10    1.40
  14   8 -14    3.80    1.70
  13   8 -14    3.00    1.70
  12   8 -14    7.30    1.90
 -12   8  14    6.00    1.40
 -11   8  14    8.70    1.50
  11   8 -14   11.90    2.80
 -10   8  14    0.90    0.80
  10   8 -14    2.90    1.60
   9  -8 -14   -1.10    1.90
  -9   8  14    0.30    0.70
   9   8 -14    2.00    1.50
   8  -8 -14   -0.20    2.00
  -8   8  14    1.90    0.80
   8   8 -14    4.90    1.60
   7  -8 -14    0.80    2.10
   7   8 -14    1.50    1.20
  -7   8  14    1.10    0.80
   6  -8 -14    2.30    2.00
   6   8 -14    2.70    1.10
  -6   8  14    1.70    0.80
  -6   8  14    1.90    0.70
   5  -8 -14    0.30    1.90
  -5   8  14    0.20    0.60
  -5   8  14    0.30    0.80
   5   8 -14    0.00    0.80
   4  -8 -14    1.60    1.90
   4   8 -14    1.50    0.80
  -4   8  14    1.00    0.90
   3  -8 -14   11.30    3.30
   3   8 -14   10.60    1.50
  -3   8  14   10.20    1.80
   2  -8 -14   13.50    3.30
  -2   8  14    7.20    1.80
   2   8 -14    9.30    1.40
   1  -8 -14    4.60    2.00
   1   8 -14    3.80    1.20
  -1   8  14    2.30    1.10
   0  -8 -14    8.00    1.10
   0  -8 -14    4.40    1.70
   0   8  14    7.60    1.80
  -1  -8 -14    0.60    0.40
  -1  -8 -14    2.20    1.50
   1   8  14    0.60    1.00
  -2  -8 -14   -0.40    0.40
   2   8  14   -0.50    1.00
  14   9 -14   -0.40    1.30
  13   9 -14    3.10    1.50
 -12   9  14    1.10    0.80
  12   9 -14    0.60    1.40
 -11   9  14    1.00    0.70
  11   9 -14    0.70    1.40
  10  -9 -14    2.00    2.10
  10   9 -14    1.50    1.30
 -10   9  14    1.50    0.80
   9  -9 -14    0.10    1.90
  -9   9  14    2.10    0.80
   9   9 -14    3.70    1.40
   8  -9 -14    0.20    1.90
  -8   9  14    4.10    1.30
   8   9 -14    2.20    1.10
   7  -9 -14    2.70    2.00
  -7   9  14    0.80    0.70
  -7   9  14    2.20    0.80
   7   9 -14    2.10    1.00
   6  -9 -14    1.90    1.90
   6   9 -14    2.40    0.90
  -6   9  14    3.00    0.90
   5  -9 -14    1.50    1.80
  -5   9  14    2.90    1.00
   5   9 -14    2.20    0.90
   4  -9 -14    2.90    1.90
  -4   9  14    1.40    0.80
   4   9 -14    1.00    0.80
   3  -9 -14    2.40    2.00
  -3  -9  14    1.40    0.80
  -3   9  14    0.60    0.90
   3   9 -14    0.60    0.70
   2  -9 -14    1.20    1.80
  -2  -9  14    0.70    0.80
  -2   9  14    1.20    0.90
   2   9 -14    1.90    0.70
   1  -9 -14    4.60    1.70
   1   9 -14    5.10    1.00
  -1   9  14    2.50    1.00
   0   9  14    0.30    0.90
  -9  10  14    4.10    1.30
  -9  10  14    6.10    1.30
   9  10 -14    3.30    1.10
   8  10 -14    9.30    1.60
  -8  10  14   12.20    1.50
  -8  10  14   10.40    1.50
  -7  10  14   18.30    1.90
   7  10 -14   17.30    1.80
  -6  10  14   10.90    1.60
   6  10 -14    9.70    1.40
   5  10 -14    5.20    1.10
  -5  10  14    2.50    0.90
 -13   0  15   58.39    3.00
 -12   0  15   15.60    1.50
 -11   0  15   -0.50    0.60
 -10   0  15    2.30    0.60
  -9   0  15   89.29    4.20
  -8   0  15  120.09    5.30
  -7   0  15  129.99    5.70
  -6   0  15   98.99    4.60
  -5   0  15    2.00    0.70
  -4   0  15   -0.90    0.60
  -3   0  15   12.70    1.50
  -2   0  15   60.19    3.20
  -1   0  15   17.10    1.70
   0   0  15    1.00    0.70
   1   0  15    0.00    0.60
   2   0  15   11.20    1.80
  -2   0 -15    9.70    1.50
   3   0  15    1.80    0.80
  -3   0 -15    5.10    1.20
  -4   0 -15    4.80    1.20
   4   0  15    2.60    0.80
  -5   0 -15   29.40    2.10
   5   0  15   25.10    2.10
  -6   0 -15   18.30    1.50
  -7   0 -15   18.90    1.50
 -15   1  15    1.40    0.60
 -14   1  15    2.90    0.70
 -13   1  15    6.40    1.20
 -12  -1  15   25.10    1.90
 -12   1  15   27.90    1.90
 -11  -1  15   17.10    1.60
 -11   1  15   17.90    1.60
 -10  -1  15    0.70    0.60
 -10   1  15    1.30    0.60
  -9  -1  15   13.30    1.60
  -9   1  15   12.10    1.50
  -8  -1  15   56.09    3.00
  -8   1  15   56.99    3.00
  -7  -1  15   55.09    3.10
  -7   1  15   63.69    3.10
  -6  -1  15   13.20    1.60
  -6   1  15   12.10    1.50
  -5  -1  15    0.70    0.60
  -5   1  15    1.30    0.70
  -4  -1  15   16.70    1.70
  -4   1  15   18.20    1.70
  -3  -1  15   27.50    2.10
  -3   1  15   30.40    2.10
  -2  -1  15   10.20    1.40
  -2   1  15    4.20    0.80
  -1  -1  15    2.90    0.80
  -1   1  15    2.30    0.70
   0  -1  15    1.30    0.70
   0   1  15    0.50    0.60
   1  -1  15    0.60    0.70
  -1  -1 -15   -0.40    0.50
   1   1  15   -1.40    0.60
  -2  -1 -15    8.60    1.40
   2  -1  15    4.40    0.90
   2   1  15    8.40    1.60
   3  -1  15    0.30    0.70
  -3  -1 -15   -0.30    0.50
   3   1  15   -0.60    0.70
  -3   1 -15    0.00    0.40
   4  -1  15    8.50    1.80
  -4  -1 -15   11.90    1.50
  -4   1 -15   10.50    1.30
   4   1  15   12.00    1.70
  -5  -1 -15    9.20    1.30
   5  -1  15    7.50    1.60
  -5   1 -15    9.00    1.20
  -6  -1 -15   12.10    1.40
  -6   1 -15   12.50    1.30
  -7  -1 -15    5.40    1.10
  16   2 -15    6.00    1.80
  15   2 -15    0.90    1.60
  14   2 -15   -1.30    1.40
  13   2 -15    1.70    1.50
 -13   2  15    1.90    0.60
 -12   2  15   10.50    1.30
  12   2 -15    9.90    2.50
 -11  -2  15   13.40    1.70
  11   2 -15   15.70    2.50
 -11   2  15   13.80    1.50
 -10  -2  15    5.00    0.90
  10   2 -15    6.40    1.40
 -10   2  15    5.80    1.30
  -9  -2  15    1.70    0.70
   9   2 -15    1.80    1.10
  -9   2  15    0.80    0.60
  -8  -2  15    6.80    1.40
  -8   2  15    8.50    1.30
  -7  -2  15   10.80    1.50
  -7   2  15   10.20    1.40
  -6  -2  15    1.20    0.70
  -6   2  15    1.30    0.60
  -5  -2  15    3.30    0.80
  -5   2  15    4.60    0.80
  -4  -2  15   15.70    1.60
  -4   2  15   14.40    1.60
  -3  -2  15   10.30    1.60
  -3   2  15   13.30    1.50
  -2  -2  15    1.60    0.80
  -2   2  15    2.40    0.70
   1  -2 -15    0.10    0.40
  -1  -2  15   -0.80    0.60
  -1   2  15    0.10    0.60
   0  -2  15   -0.20    0.70
   0  -2 -15    0.60    0.50
   0   2  15    0.00    0.60
   1  -2  15   12.00    1.70
  -1  -2 -15   12.40    1.50
   1   2  15   11.00    1.60
  -2  -2 -15   -0.10    0.50
   2  -2  15   -0.10    0.70
   2   2  15    0.70    0.70
   3  -2  15    0.60    0.80
  -3  -2 -15    1.00    0.50
  -3   2 -15    0.30    0.50
   4  -2  15   -0.20    0.70
  -4  -2 -15   -0.20    0.40
  -4   2 -15   -0.20    0.40
  -5  -2 -15   -0.30    0.40
  -5   2 -15   -0.40    0.40
  -6  -2 -15    0.10    0.40
  -7  -2 -15    1.10    0.50
  19   3 -15   -0.20    1.50
  18   3 -15    1.30    1.50
  17   3 -15    3.10    1.70
  16   3 -15   -0.40    1.50
  15   3 -15   11.60    2.90
  14   3 -15    1.60    1.60
  13   3 -15    1.50    1.60
  12   3 -15    4.40    1.60
  11   3 -15    2.20    1.40
 -10   3  15   18.10    1.60
  10   3 -15   21.00    2.70
  -9  -3  15   49.10    2.70
  -9   3  15   49.20    2.70
   9   3 -15   48.10    3.70
  -8  -3  15   36.90    2.30
  -8   3  15   40.00    2.30
   8   3 -15   39.00    3.10
  -7  -3  15   40.00    2.40
   7   3 -15   40.80    2.90
  -7   3  15   40.00    2.40
  -6  -3  15   48.00    2.80
  -6   3  15   50.79    2.80
   6   3 -15   51.99    3.40
  -5  -3  15   23.20    1.90
  -5   3  15   21.10    1.80
  -4  -3  15    1.40    0.70
   4  -3 -15    0.90    0.50
  -4   3  15    0.90    1.00
  -4   3  15    2.30    0.70
   3  -3 -15    1.60    0.50
  -3  -3  15    1.70    0.70
  -3   3  15    2.40    1.20
  -3   3  15    2.10    0.70
  -2  -3  15    0.40    0.70
   2  -3 -15    0.70    0.50
  -2   3  15    1.30    0.70
  -2   3  15    1.80    1.20
  -1  -3  15    1.40    0.80
   1  -3 -15    0.90    0.50
  -1   3  15    2.00    0.70
  -1   3  15    1.40    1.30
   0  -3  15   13.60    1.70
   0  -3 -15   14.90    1.60
   0   3  15   16.10    1.70
   0   3  15   11.20    2.50
  -1  -3 -15    0.40    0.50
   1  -3  15    0.30    0.70
   1   3  15    2.20    0.70
   2  -3  15    4.30    1.00
  -2  -3 -15    6.90    1.40
  -3  -3 -15    4.60    1.30
   3  -3  15    1.40    0.80
  -4  -3 -15    0.90    0.50
  -4   3 -15    0.60    0.50
  -5  -3 -15    0.20    0.40
  -6  -3 -15    0.00    0.40
  20   4 -15    0.20    1.30
  19   4 -15    0.30    1.40
  18   4 -15    3.30    1.70
  17   4 -15    6.40    1.90
  16   4 -15    4.10    1.80
  15   4 -15   -1.80    1.50
  14   4 -15   -0.20    1.50
  13   4 -15   -1.80    1.50
  12   4 -15   -0.50    1.50
  11   4 -15   11.70    2.80
  10   4 -15   25.30    3.00
   9   4 -15   17.10    2.60
  -9   4  15   20.10    1.70
  -8  -4  15   13.50    1.50
  -8   4  15   16.50    1.60
   8   4 -15   16.80    2.30
  -7  -4  15   13.60    1.50
   7   4 -15   13.30    1.90
  -7   4  15   14.00    1.50
  -7   4  15   13.50    1.90
   6  -4 -15   17.50    1.50
  -6  -4  15   17.40    1.70
  -6   4  15   17.00    2.10
   6   4 -15   19.30    1.90
  -6   4  15   19.00    1.70
   5  -4 -15   20.20    1.70
  -5  -4  15   20.90    1.90
  -5   4  15   21.20    1.80
   5   4 -15   21.90    1.90
  -5   4  15   22.20    2.30
   4  -4 -15   10.20    1.30
  -4  -4  15   11.20    1.60
  -4   4  15   12.40    1.50
  -4   4  15   10.70    1.90
  -3  -4  15   -0.30    0.70
   3  -4 -15   -0.20    0.40
  -3   4  15    0.00    0.60
  -3   4  15   -0.40    0.90
  -2  -4  15    0.30    0.70
   2  -4 -15   -0.40    0.40
  -2   4  15    0.20    1.00
  -2   4  15    0.10    0.60
  -1  -4  15   -0.30    0.70
   1  -4 -15   -0.10    0.50
  -1   4  15   -0.10    0.60
  -1   4  15    0.70    1.20
   0  -4 -15   -0.30    0.40
   0  -4  15   -0.70    0.70
   0   4  15    0.00    0.60
   0   4  15   -0.60    1.10
   1  -4  15    8.30    1.70
  -1  -4 -15   10.70    1.40
   2  -4  15   10.70    1.90
  -2  -4 -15   10.20    1.40
  -3  -4 -15    1.20    0.50
   3   4  15    0.30    1.20
  -4  -4 -15   -0.10    0.40
  -5  -4 -15    0.00    0.40
  -6  -4 -15    0.20    0.40
  20   5 -15    1.40    1.40
  19   5 -15    0.00    1.40
  18   5 -15    1.20    1.60
  17   5 -15    0.60    1.60
  16   5 -15    0.30    1.60
  15   5 -15    0.20    1.60
  14   5 -15    0.10    1.60
  13   5 -15    1.30    1.70
  12   5 -15    0.60    1.60
  11   5 -15    0.60    1.50
  10   5 -15    0.10    1.40
  -9   5  15    1.30    0.90
   9   5 -15    1.70    1.30
  -8   5  15   -0.90    0.80
   8   5 -15    0.20    1.20
  -8   5  15    0.10    0.60
  -7  -5  15    0.40    0.60
  -7   5  15    0.00    0.60
  -7   5  15   -0.40    0.80
   7   5 -15    0.70    1.00
  -6  -5  15    1.00    0.60
  -6   5  15    0.30    0.90
   6   5 -15    0.50    0.90
  -6   5  15    0.20    0.60
   5  -5 -15    0.20    0.40
  -5  -5  15    0.10    0.60
   5   5 -15   -0.50    0.70
  -5   5  15   -0.10    0.80
  -5   5  15    0.60    0.60
   4  -5 -15    0.30    0.40
  -4  -5  15    2.00    0.70
  -4   5  15    1.20    0.70
  -4   5  15    0.90    1.00
   4   5 -15    1.10    0.70
   3  -5 -15    0.30    0.40
  -3  -5  15    1.10    0.70
  -3   5  15    1.20    1.00
  -3   5  15    1.20    0.60
   2  -5 -15    0.50    0.50
  -2  -5  15    0.70    0.80
  -2   5  15    0.40    1.00
  -2   5  15    0.50    0.60
   1  -5 -15    1.10    0.50
  -1  -5  15    1.00    0.80
  -1   5  15    1.70    1.10
   0  -5 -15   -0.10    0.50
   0  -5  15   -0.40    0.70
   0   5  15    0.40    1.10
  -1  -5 -15    0.10    0.50
   1   5  15    0.10    1.20
  -2  -5 -15    0.10    0.40
   2   5  15    0.10    1.20
  -3  -5 -15    0.90    0.50
   3   5  15    0.20    1.30
  -4  -5 -15    0.80    0.50
   4   5  15   -0.20    1.10
  -5  -5 -15    0.30    0.40
  19   6 -15    2.00    1.40
  18   6 -15   -0.50    1.40
  17   6 -15   -0.50    1.40
  16   6 -15    0.70    1.50
  15   6 -15    6.80    1.90
  14   6 -15   10.10    3.10
  13   6 -15    4.60    1.80
  12   6 -15    1.60    1.70
  11   6 -15    0.30    1.50
  10   6 -15    8.60    2.60
 -10   6  15    4.80    1.10
   9   6 -15   12.50    2.70
  -9   6  15   12.70    1.90
  -8   6  15   36.10    2.30
   8   6 -15   39.70    3.30
  -8   6  15   34.00    2.80
  -7   6  15   38.70    2.40
  -7   6  15   34.80    2.90
   7   6 -15   40.50    3.10
  -6  -6  15    9.00    1.60
  -6   6  15    9.60    1.50
   6   6 -15    9.50    1.80
  -6   6  15   11.80    1.90
  -5  -6  15    8.30    1.60
   5  -6 -15    2.50    2.20
  -5   6  15    3.90    0.80
  -5   6  15    6.80    1.70
   5   6 -15    6.20    1.50
   4  -6 -15    1.10    2.00
  -4  -6  15   -0.10    0.70
  -4   6  15    0.00    0.60
  -4   6  15    0.70    0.90
   4   6 -15   -1.10    0.70
   3  -6 -15    4.40    2.20
  -3  -6  15    2.40    0.80
   3  -6 -15    4.10    1.10
  -3   6  15    2.40    1.10
  -3   6  15    2.70    0.70
   3   6 -15    2.60    0.80
   2  -6 -15    6.50    2.40
   2  -6 -15    8.00    1.30
  -2   6  15    6.30    1.90
   1  -6 -15    9.20    1.40
   1  -6 -15   12.90    3.20
  -1   6  15    8.20    2.00
   0  -6 -15   13.00    1.50
   0  -6 -15   11.70    2.90
   0   6  15    8.30    2.10
  -1  -6 -15    1.90    1.50
  -1  -6 -15    2.00    0.60
   1   6  15    2.40    1.20
  -2  -6 -15    1.30    1.40
  -2  -6 -15    0.60    0.40
   2   6  15    1.00    1.20
  -3  -6 -15    0.00    0.40
   3   6  15    0.70    1.10
  -4  -6 -15    0.80    0.40
   4   6  15    1.10    1.20
  17   7 -15    0.10    1.40
  16   7 -15   -0.70    1.50
  15   7 -15    4.10    1.70
  14   7 -15    6.10    1.90
  13   7 -15   19.50    3.30
  12   7 -15    5.50    1.80
 -11   7  15    0.70    0.90
  11   7 -15    0.50    1.50
  10   7 -15   -0.80    1.40
 -10   7  15    0.10    0.80
  -9   7  15   23.60    2.40
   9   7 -15   30.70    3.20
  -8   7  15   46.70    2.70
  -8   7  15   45.50    3.40
   8   7 -15   49.40    3.80
   7  -7 -15   33.50    4.70
  -7   7  15   45.30    2.60
  -7   7  15   40.50    3.20
   7   7 -15   48.40    3.40
   6  -7 -15   16.80    3.90
   6   7 -15   29.20    2.40
  -6   7  15   27.10    2.40
  -6   7  15   26.90    2.00
   5  -7 -15    0.60    2.00
  -5   7  15    0.40    0.60
   5   7 -15    1.00    0.80
  -5   7  15    0.50    0.90
   4  -7 -15    2.30    1.90
   4   7 -15    1.00    0.80
  -4   7  15    0.40    0.70
  -4   7  15    1.90    1.00
   3  -7 -15    4.30    2.10
  -3   7  15    7.10    1.80
   3   7 -15    8.60    1.50
   2  -7 -15   17.90    1.60
   2  -7 -15   15.80    3.60
  -2   7  15   17.50    2.20
   2   7 -15   16.50    1.70
   1  -7 -15    7.20    1.20
   1  -7 -15    4.90    2.00
  -1   7  15    7.00    1.90
   0  -7 -15    3.30    1.60
   0  -7 -15    3.90    1.10
   0   7  15    3.30    1.20
  -1  -7 -15    0.60    1.30
  -1  -7 -15    0.20    0.40
   1   7  15   -0.20    1.10
  -2  -7 -15    0.30    0.40
   2   7  15   -0.60    1.10
  15   8 -15    4.80    1.60
  14   8 -15    0.30    1.50
  13   8 -15    9.60    2.70
  12   8 -15   14.20    2.80
 -11   8  15    1.80    0.90
  11   8 -15    3.10    1.50
  10   8 -15    1.60    1.40
 -10   8  15   -0.30    0.70
  -9   8  15    1.80    0.90
   9   8 -15    2.80    1.30
   8  -8 -15    5.50    2.40
  -8   8  15    7.70    1.60
  -8   8  15    6.50    1.40
   8   8 -15   11.90    2.00
   7  -8 -15    2.50    2.10
  -7   8  15    9.20    1.40
  -7   8  15    8.80    1.70
   7   8 -15   10.10    1.80
   6  -8 -15    2.20    2.00
  -6   8  15    1.70    0.90
   6   8 -15    2.20    0.90
  -6   8  15    1.90    0.70
   5  -8 -15   -0.60    1.80
   5   8 -15    1.30    0.80
  -5   8  15   -0.40    0.90
   4  -8 -15    2.20    1.90
   4   8 -15    5.00    1.20
  -4   8  15    3.40    1.10
   3  -8 -15   11.40    3.30
  -3   8  15   12.80    1.90
   3   8 -15   14.40    1.60
   2  -8 -15   11.00    3.20
  -2   8  15    5.80    1.80
   2   8 -15    7.80    1.20
   1  -8 -15    0.30    1.40
  -1   8  15    0.00    0.90
   0  -8 -15    6.10    1.00
   0   8  15    6.20    1.80
  13   9 -15   -0.20    1.30
  12   9 -15    1.90    1.30
 -11   9  15    2.60    0.90
  11   9 -15    6.80    2.10
 -10   9  15    1.90    0.90
  10   9 -15    1.70    1.20
   9  -9 -15    1.00    2.00
  -9   9  15   -0.70    0.60
   9   9 -15   -0.30    1.00
  -9   9  15    0.20    0.80
   8  -9 -15    1.00    1.90
  -8   9  15   -0.20    0.80
   8   9 -15    0.60    0.90
  -8   9  15   -0.20    0.60
   7  -9 -15    0.90    1.80
  -7   9  15    0.90    0.60
   7   9 -15    0.90    0.80
  -7   9  15    0.80    0.80
   6  -9 -15   -1.00    1.60
  -6   9  15    0.00    0.80
   6   9 -15   -0.30    0.70
   5  -9 -15    2.80    1.80
  -5   9  15    2.10    1.00
   5   9 -15    1.20    0.70
   4  -9 -15    4.80    2.00
  -4   9  15    7.00    1.60
   4   9 -15    7.10    1.20
  -3   9  15    0.90    0.90
   3   9 -15    1.20    0.70
   2   9 -15    0.10    0.50
  -2   9  15    0.10    0.80
 -14   0  16    0.50    0.60
 -13   0  16   16.10    1.60
 -12   0  16   13.50    1.50
 -11   0  16    6.70    1.30
 -10   0  16   53.99    2.90
  -9   0  16   56.39    3.00
  -8   0  16  177.28    7.60
  -7   0  16   57.49    3.10
  -6   0  16   53.99    3.00
  -5   0  16    7.60    1.50
  -4   0  16   14.20    1.60
  -3   0  16   17.30    1.80
  -2   0  16    0.10    0.60
  -1   0  16    0.60    0.70
   0   0  16    2.20    0.80
   1   0  16    0.10    0.70
  -1   0 -16   -0.40    0.50
  -2   0 -16    5.30    1.30
   2   0  16    6.90    1.60
  -3   0 -16    0.00    0.50
   3   0  16    0.10    0.70
  -4   0 -16    5.90    1.20
   4   0  16    2.60    0.80
  -5   0 -16    8.10    1.20
  -6   0 -16   10.70    1.20
 -15   1  16    0.30    0.60
 -14   1  16    9.40    1.40
 -13   1  16    0.80    0.60
 -12  -1  16    0.50    0.60
 -12   1  16   -0.50    0.50
 -11  -1  16    0.20    0.60
 -11   1  16    0.90    0.60
 -10  -1  16    6.40    1.40
 -10   1  16    6.20    1.30
  -9  -1  16   73.39    3.70
  -9   1  16   71.39    3.60
  -8  -1  16   28.30    2.10
  -8   1  16   31.40    2.10
  -7  -1  16   68.79    3.60
  -7   1  16   73.29    3.60
  -6  -1  16    4.10    0.80
  -6   1  16    8.60    1.50
  -5  -1  16    0.40    0.70
  -5   1  16    0.70    0.70
  -4  -1  16    0.30    0.60
  -4   1  16    0.30    0.70
  -3  -1  16    1.20    0.70
  -3   1  16    1.60    0.70
  -2  -1  16    9.40    1.60
  -2   1  16    8.70    1.50
  -1  -1  16   -0.90    0.70
  -1   1  16   -0.60    0.60
   0  -1  16   26.10    2.10
   0  -1 -16   28.00    2.10
   0   1  16   21.20    2.00
   1  -1  16   13.60    1.80
  -1  -1 -16   14.90    1.60
   1   1  16   12.40    1.60
  -2  -1 -16    0.00    0.50
   2  -1  16    0.00    0.70
   2   1  16   -0.40    0.70
  -2   1 -16   -0.30    0.50
   3  -1  16    0.00    0.70
  -3  -1 -16   -0.10    0.50
  -3   1 -16   -0.10    0.40
   3   1  16   -0.10    0.60
   4  -1  16    1.30    0.70
  -4  -1 -16    0.30    0.40
  -4   1 -16    0.10    0.40
  -5  -1 -16    5.30    1.10
  -5   1 -16    6.90    1.10
 -16   2  16    8.40    1.50
 -15   2  16   13.50    1.50
 -14   2  16    0.10    0.60
 -13   2  16    3.70    0.80
 -12   2  16   13.80    1.60
 -11  -2  16    0.00    0.60
 -11   2  16   -0.30    0.50
 -10  -2  16    0.60    0.60
 -10   2  16    0.00    0.60
  -9  -2  16   -0.40    0.60
  -9   2  16   -0.50    0.60
  -8  -2  16    5.40    0.90
  -8   2  16    6.00    1.40
  -7  -2  16    0.30    0.60
  -7   2  16   -0.20    0.60
  -6  -2  16   -0.10    0.60
  -6   2  16    0.20    0.60
  -5  -2  16   -0.20    0.60
  -5   2  16    0.10    0.60
  -4  -2  16   12.70    1.70
  -4   2  16   14.70    1.70
  -3  -2  16    6.50    1.60
  -3   2  16    6.50    1.50
  -2  -2  16   -0.30    0.60
   2  -2 -16    0.30    0.50
  -2   2  16   -0.20    0.60
   1  -2 -16   12.30    1.50
  -1  -2  16   10.90    1.70
  -1   2  16    9.70    1.60
   0  -2  16    8.10    1.70
   0  -2 -16    9.90    1.40
   0   2  16    7.60    1.50
  -1  -2 -16   15.50    1.60
   1  -2  16   15.80    1.80
   1   2  16   13.60    1.70
  -2  -2 -16   16.70    1.70
   2  -2  16   15.70    1.90
   2   2  16   16.60    1.70
  -3  -2 -16   -0.30    0.40
   3  -2  16    0.50    0.70
  -3   2 -16   -0.10    0.40
  -4  -2 -16    0.20    0.40
  -4   2 -16    0.10    0.40
  -5  -2 -16    0.20    0.40
  17   3 -16   16.10    3.00
 -17   3  16   14.30    1.60
  16   3 -16    8.00    2.00
  15   3 -16   -0.60    1.60
  14   3 -16    2.30    1.60
 -14   3  16    1.40    0.70
  13   3 -16    1.20    1.40
 -13   3  16    1.40    0.60
  12   3 -16    4.60    1.50
 -12   3  16    2.60    0.70
 -11   3  16    6.90    1.30
  11   3 -16    7.20    2.30
 -10  -3  16    1.60    0.60
  10   3 -16    3.90    1.40
 -10   3  16    2.20    0.70
  -9  -3  16    0.20    0.60
  -9   3  16    0.60    0.60
   9   3 -16    0.30    1.00
  -8  -3  16    0.40    0.60
  -8   3  16    0.50    0.60
  -7  -3  16    0.30    0.60
  -7   3  16    0.00    0.60
  -6  -3  16    2.20    0.80
  -6   3  16    6.10    1.40
  -5  -3  16    7.40    1.50
   5  -3 -16    8.70    1.30
  -5   3  16    8.30    1.40
   4  -3 -16    4.60    1.20
  -4  -3  16    2.70    0.80
  -4   3  16    6.50    1.40
   3  -3 -16    0.60    0.50
  -3  -3  16    0.50    0.70
  -3   3  16    0.80    0.70
  -2  -3  16    3.70    0.90
   2  -3 -16    1.10    0.50
  -2   3  16    3.10    0.80
  -1  -3  16    0.70    0.70
   1  -3 -16    0.50    0.50
  -1   3  16    0.50    0.70
   0  -3 -16   10.50    1.50
   0  -3  16   10.90    1.70
   0   3  16   10.30    1.50
  -1  -3 -16   15.50    1.70
   1  -3  16   16.40    1.90
   1   3  16   16.90    1.70
  -2  -3 -16    5.40    1.30
   2  -3  16    2.40    0.90
  -3  -3 -16    1.30    0.50
  -3   3 -16    1.10    0.50
  -4  -3 -16   -0.10    0.40
  -5  -3 -16    0.10    0.40
  19   4 -16    0.80    1.50
  18   4 -16    0.10    1.60
  17   4 -16    0.70    1.60
  16   4 -16    6.50    1.90
  15   4 -16    5.90    1.90
  14   4 -16    1.00    1.60
  13   4 -16    0.00    1.40
  12   4 -16    1.00    1.40
 -11   4  16    2.20    0.70
  11   4 -16    2.80    1.50
 -10   4  16    1.60    0.70
  10   4 -16    2.30    1.30
   9   4 -16   -0.70    1.00
  -9   4  16    0.40    0.60
  -8  -4  16    1.30    0.70
  -8   4  16    2.00    0.70
   8   4 -16    1.40    1.00
  -7  -4  16    0.40    0.70
  -7   4  16   -0.30    0.60
   7   4 -16   -0.30    0.80
  -6  -4  16    1.70    0.70
   6  -4 -16    1.40    0.50
  -6   4  16    1.90    0.70
   5  -4 -16    1.30    0.50
  -5  -4  16    1.10    0.70
  -5   4  16    1.30    1.10
  -5   4  16    2.00    0.70
   4  -4 -16   -0.20    0.40
  -4  -4  16   -0.20    0.70
  -4   4  16   -0.10    1.00
  -4   4  16    0.40    0.60
   3  -4 -16    0.40    0.50
  -3  -4  16    0.20    0.70
  -3   4  16   -0.40    0.70
  -3   4  16    0.70    1.10
  -2  -4  16   -0.90    0.70
   2  -4 -16    0.40    0.50
  -2   4  16    0.50    1.10
  -2   4  16    1.20    0.70
   1  -4 -16    7.20    1.40
  -1  -4  16    7.30    1.70
  -1   4  16    6.70    1.60
  -1   4  16   10.20    1.40
   0  -4 -16    7.70    1.30
   0  -4  16    8.50    1.70
  -1  -4 -16    1.90    0.50
   1  -4  16    2.30    0.80
  -2  -4 -16    1.10    0.50
  -3  -4 -16    0.50    0.40
  -4  -4 -16    0.00    0.40
  19   5 -16   -0.20    1.40
  18   5 -16    1.70    1.60
  17   5 -16    0.20    1.60
  16   5 -16    0.30    1.60
  15   5 -16    0.90    1.60
  14   5 -16    0.80    1.60
  13   5 -16    0.00    1.50
  12   5 -16   -0.40    1.50
  11   5 -16    1.00    1.40
  10   5 -16    4.10    1.50
 -10   5  16    3.30    0.70
  -9   5  16   -0.40    0.60
   9   5 -16    0.00    1.10
  -8   5  16    6.30    1.40
   8   5 -16    8.20    1.80
  -7  -5  16   -0.40    0.60
   7   5 -16    0.40    0.80
  -7   5  16    0.10    0.90
  -7   5  16    0.00    0.60
  -6  -5  16    2.10    0.70
   6   5 -16    4.30    1.30
  -6   5  16    3.70    1.20
  -6   5  16    2.70    0.70
   5  -5 -16    0.80    0.40
  -5  -5  16   -0.30    0.60
  -5   5  16    0.40    0.60
  -5   5  16   -0.10    1.00
   5   5 -16    0.70    0.70
   4  -5 -16    0.00    0.40
  -4  -5  16   -1.20    0.60
  -4   5  16    0.00    1.00
  -4   5  16   -0.30    0.60
  -3  -5  16   -0.90    0.70
   3  -5 -16    0.20    0.40
  -3   5  16   -0.10    0.60
  -3   5  16   -0.40    1.00
  -2  -5  16   -0.90    0.70
   2  -5 -16   -0.50    0.40
  -2   5  16    0.50    1.10
  -2   5  16    0.60    0.70
   1  -5 -16   -0.40    0.40
  -1  -5  16   -0.80    0.70
  -1   5  16   -0.40    1.00
   0  -5 -16   -0.10    0.40
   0   5  16   -1.20    1.10
  -1  -5 -16    0.40    0.40
   1   5  16    0.60    1.20
  -2  -5 -16    1.20    0.50
  -3  -5 -16    0.40    0.40
  18   6 -16    0.10    1.50
  17   6 -16    1.40    1.60
  16   6 -16   -0.50    1.50
  15   6 -16    0.10    1.60
  14   6 -16    2.00    1.60
  13   6 -16    1.40    1.50
  12   6 -16    0.90    1.50
  11   6 -16    0.00    1.40
  10   6 -16    7.00    1.70
 -10   6  16    7.30    1.40
  -9   6  16   50.59    2.90
   9   6 -16   52.19    3.90
  -9   6  16   49.10    3.60
  -8   6  16   57.69    4.20
  -8   6  16   58.89    3.20
   8   6 -16   68.99    4.30
  -7   6  16   53.69    2.90
  -7   6  16   48.10    3.70
   7   6 -16   53.79    3.60
  -6  -6  16    4.40    0.90
  -6   6  16    8.80    1.50
  -6   6  16    7.60    1.80
   6   6 -16    7.80    1.50
  -5  -6  16    1.20    0.70
   5   6 -16   -0.80    0.60
  -5   6  16   -0.90    0.60
  -5   6  16    0.60    0.90
  -4  -6  16    0.20    0.70
  -4   6  16   -0.40    0.60
  -4   6  16   -0.20    0.90
   3  -6 -16    0.10    0.40
  -3   6  16    0.00    1.00
  -3   6  16    0.70    0.60
   2  -6 -16    4.40    1.10
  -2   6  16    3.80    1.20
   1  -6 -16    0.90    0.50
  -1   6  16    1.50    1.10
   0  -6 -16    0.00    0.40
   0   6  16    0.20    1.10
  -1  -6 -16    1.10    0.50
   1   6  16    1.70    1.20
  -2  -6 -16    0.90    0.40
   2   6  16   -0.10    1.10
  17   7 -16    1.80    1.40
  16   7 -16    0.00    1.50
  15   7 -16   -0.40    1.40
  14   7 -16    2.80    1.50
  13   7 -16    8.80    2.80
  12   7 -16    3.60    1.50
  11   7 -16    0.00    1.40
 -10   7  16   10.70    1.60
  -9   7  16   34.90    2.90
   9   7 -16   37.30    3.10
  -9   7  16   36.90    2.40
  -8   7  16   62.79    4.40
  -8   7  16   64.99    3.40
   8   7 -16   70.29    4.40
   7   7 -16   37.80    2.80
  -7   7  16   32.80    3.00
  -7   7  16   38.30    2.40
   6   7 -16   14.20    1.70
  -6   7  16   11.10    2.00
  -6   7  16   15.30    1.70
   5  -7 -16    0.90    2.00
  -5   7  16    0.40    0.90
  -5   7  16    0.50    0.60
   5   7 -16    0.20    0.70
   4  -7 -16    3.00    2.10
  -4   7  16    2.70    1.10
   4   7 -16    2.50    0.80
   3  -7 -16   14.00    3.50
  -3   7  16   10.30    2.00
   2  -7 -16    3.80    1.10
   2  -7 -16    4.20    1.90
  -2   7  16    2.40    1.10
   1  -7 -16   -0.30    0.40
   1  -7 -16    0.60    1.40
  -1   7  16    0.20    1.00
   0  -7 -16    0.20    0.40
   0   7  16    0.50    1.00
  -1  -7 -16    1.20    0.40
   1   7  16    1.20    1.10
  14   8 -16   -1.60    1.20
  13   8 -16    1.90    1.40
  12   8 -16    4.20    1.50
  11   8 -16    0.90    1.20
 -11   8  16    0.40    0.60
  10   8 -16    2.40    1.10
 -10   8  16    1.90    0.70
 -10   8  16    2.30    1.00
  -9   8  16    9.80    1.80
   9   8 -16   12.10    1.90
  -9   8  16    9.00    1.50
   8   8 -16    9.90    1.60
  -8   8  16    6.20    1.70
  -8   8  16    6.30    1.40
   7  -8 -16    5.10    2.40
  -7   8  16    9.20    1.80
   7   8 -16   10.80    1.50
  -7   8  16   10.50    1.50
   6  -8 -16    3.70    2.10
  -6   8  16    2.10    0.70
  -6   8  16    2.70    1.00
   6   8 -16    2.20    0.80
   5  -8 -16    0.20    1.80
   5   8 -16    0.50    0.70
  -5   8  16    0.10    0.90
   4  -8 -16    5.20    2.10
   4   8 -16    5.10    1.20
  -4   8  16    6.10    1.70
   3  -8 -16    1.50    1.80
  -3   8  16    0.80    1.00
  -2   8  16   -0.70    0.90
 -10   9  16   -0.40    0.60
 -10   9  16   -0.40    0.80
  10   9 -16   -0.50    0.80
  -9   9  16   -0.10    0.60
   9   9 -16   -0.50    0.70
  -9   9  16    0.30    0.90
  -8   9  16   -0.30    0.60
  -8   9  16   -0.50    0.80
   8   9 -16    0.30    0.70
   7   9 -16   -0.10    0.60
  -7   9  16   -0.30    0.80
   6   9 -16    0.40    0.60
  -6   9  16    0.10    0.80
 -14   0  17    1.70    0.70
 -13   0  17    0.60    0.60
 -12   0  17    0.00    0.60
 -11   0  17    0.50    0.60
 -10   0  17   83.99    4.10
  -9   0  17   98.49    4.70
  -8   0  17   97.39    4.70
  -7   0  17   84.39    4.20
  -6   0  17    0.80    0.70
  -5   0  17   -0.10    0.60
  -4   0  17    0.20    0.70
  -3   0  17    1.10    0.70
  -2   0  17   12.10    1.70
  -1   0  17   -0.10    0.70
   0   0 -17   23.40    2.00
   0   0  17   21.50    2.00
  -1   0 -17   16.80    1.70
   1   0  17   17.80    1.90
  -2   0 -17    9.00    1.30
   2   0  17    8.80    1.60
  -3   0 -17    4.10    1.10
  -4   0 -17    1.10    0.40
   4   0  17    0.50    0.60
 -15   1  17    8.70    1.50
 -14   1  17    2.60    0.70
 -13  -1  17   14.10    1.70
 -13   1  17   10.70    1.50
 -12  -1  17    0.10    0.70
 -12   1  17    0.60    0.60
 -11  -1  17   25.00    2.00
 -11   1  17   24.70    1.90
 -10  -1  17   19.00    1.90
 -10   1  17   17.30    1.70
  -9  -1  17   46.00    2.70
  -9   1  17   47.30    2.70
  -8  -1  17   46.30    2.80
  -8   1  17   49.50    2.80
  -7  -1  17   12.70    1.70
  -7   1  17   18.80    1.80
  -6  -1  17   22.90    2.00
  -6   1  17   25.80    2.10
  -5  -1  17   -1.30    0.60
  -5   1  17   -0.30    0.60
  -4  -1  17   12.20    1.60
  -4   1  17   11.10    1.60
  -3  -1  17    2.10    0.80
  -3   1  17    2.60    0.80
  -2  -1  17    5.00    1.00
  -2   1  17    7.10    1.50
   1  -1 -17   13.70    1.60
  -1  -1  17   10.90    1.70
  -1   1  17   12.60    1.70
   0  -1 -17    5.10    1.30
   0  -1  17    2.50    0.80
   0   1  17    3.50    0.80
   1  -1  17   11.90    1.70
  -1  -1 -17   15.60    1.60
  -1   1 -17   15.00    1.60
   1   1  17   13.90    1.70
  -2  -1 -17   11.30    1.40
   2  -1  17   11.60    1.70
   2   1  17   10.30    1.50
  -2   1 -17    9.60    1.40
   3  -1  17    0.10    0.70
  -3  -1 -17    0.10    0.40
  -3   1 -17    0.00    0.40
   3   1  17    0.40    0.60
  -4  -1 -17    0.20    0.40
  -4   1 -17    0.10    0.40
 -16   2  17   14.30    1.60
 -15   2  17    0.90    0.60
 -14   2  17    0.20    0.60
 -13   2  17    1.40    0.70
 -12   2  17    3.10    0.80
 -11  -2  17   -0.20    0.60
 -11   2  17   -0.40    0.60
 -10  -2  17   13.20    1.70
 -10   2  17   14.50    1.60
  -9  -2  17   21.80    1.90
  -9   2  17   26.40    1.90
  -8  -2  17   24.40    2.00
  -8   2  17   25.40    1.90
  -7  -2  17   16.10    1.70
  -7   2  17   18.70    1.70
  -6  -2  17   -0.30    0.60
  -6   2  17   -0.30    0.60
  -5  -2  17    3.50    0.90
  -5   2  17    8.50    1.50
  -4  -2  17    1.30    0.80
  -4   2  17    1.70    0.70
   3  -2 -17    0.10    0.50
  -3  -2  17    0.40    0.70
  -3   2  17   -0.10    0.70
   2  -2 -17    0.40    0.50
  -2  -2  17    0.90    0.80
  -2   2  17   -0.40    0.70
  -1  -2  17   16.90    1.90
   1  -2 -17   16.00    1.70
  -1   2  17   16.50    1.70
   0  -2 -17   50.09    3.00
   0  -2  17   44.10    2.80
   0   2  17   46.90    2.80
  -1  -2 -17   14.60    1.60
   1  -2  17   14.40    1.80
   1   2  17   12.30    1.60
  -2  -2 -17   -0.10    0.50
   2  -2  17   -0.20    0.70
  -2   2 -17    0.00    0.40
   3  -2  17   -0.60    0.70
  -3  -2 -17   -0.50    0.40
  -3   2 -17    0.10    0.40
  -4  -2 -17   -0.10    0.40
  -4   2 -17    0.50    0.40
 -18   3  17    6.50    1.40
 -17   3  17    8.00    1.40
 -16   3  17   16.60    1.70
 -15   3  17    6.20    1.50
 -14   3  17   -0.10    0.70
  14   3 -17   -0.40    1.40
 -13   3  17    0.50    0.70
  13   3 -17    0.70    1.40
 -12   3  17    0.60    0.60
 -11   3  17    0.10    0.60
 -10  -3  17    0.20    0.60
 -10   3  17    0.70    0.70
  -9  -3  17   11.80    1.60
  -9   3  17   12.90    1.60
  -8  -3  17    9.70    1.50
  -8   3  17   11.00    1.50
  -7  -3  17    0.30    0.70
  -7   3  17    0.10    0.60
  -6  -3  17    0.30    0.70
   6  -3 -17    0.10    0.50
  -6   3  17    0.10    0.60
  -5  -3  17    0.80    0.70
   5  -3 -17    0.30    0.50
  -5   3  17    0.40    0.70
   4  -3 -17    1.00    0.50
  -4  -3  17    0.80    0.80
  -4   3  17    0.80    0.70
   3  -3 -17   -0.60    0.50
  -3  -3  17    0.60    0.80
  -3   3  17    0.80    0.70
   2  -3 -17    5.30    1.30
  -2  -3  17    6.90    1.60
  -2   3  17    4.50    0.90
   1  -3 -17   16.00    1.60
  -1  -3  17   16.50    1.90
  -1   3  17   13.90    1.60
   0  -3  17    8.60    1.60
   0  -3 -17    8.80    1.40
   0   3  17    7.30    1.40
   1  -3  17    9.80    1.60
  -1  -3 -17    9.50    1.30
   2  -3  17    1.10    0.80
  -2  -3 -17    0.40    0.40
  -2   3 -17    1.20    0.50
  -3  -3 -17    0.20    0.40
  -3   3 -17    0.20    0.40
  18   4 -17    0.40    1.40
 -18   4  17    0.20    0.60
  17   4 -17    1.10    1.50
 -17   4  17    0.40    0.60
 -16   4  17    1.50    0.70
  16   4 -17    2.50    1.50
  15   4 -17    4.30    1.70
 -15   4  17    3.50    0.80
  14   4 -17    1.20    1.50
 -14   4  17    1.10    0.70
 -13   4  17    0.90    0.70
  13   4 -17    1.60    1.40
 -12   4  17    0.50    0.70
  12   4 -17    1.90    1.40
  11   4 -17    0.20    1.10
 -11   4  17   -0.20    0.60
 -10   4  17    0.20    0.60
  10   4 -17   -0.30    1.00
  -9  -4  17    0.60    0.70
   9   4 -17    1.20    0.90
  -9   4  17    1.10    0.70
  -8  -4  17    0.80    0.70
  -8   4  17   -0.20    0.60
  -7  -4  17   -0.30    0.70
  -7   4  17    0.10    0.60
  -6  -4  17    1.20    0.80
   6  -4 -17    0.90    0.50
  -6   4  17    1.00    0.70
  -5  -4  17    1.00    0.80
   5  -4 -17    0.20    0.50
  -5   4  17    1.30    0.70
  -4  -4  17   -0.40    0.70
   4  -4 -17    0.20    0.50
  -4   4  17    0.00    0.70
  -3  -4  17    0.20    0.70
   3  -4 -17   -0.40    0.50
  -3   4  17    0.70    0.70
   2  -4 -17    6.00    1.30
  -2  -4  17    8.50    1.60
  -2   4  17    8.80    1.40
  -1  -4  17    1.10    0.80
   1  -4 -17    1.30    0.50
  -1   4  17    1.40    0.60
   0  -4 -17    1.50    0.50
   0  -4  17    1.00    0.80
  -1  -4 -17    0.60    0.50
  -2  -4 -17    0.20    0.40
  -3  -4 -17    0.00    0.40
  19   5 -17   -0.70    1.20
 -19   5  17    0.10    0.50
 -18   5  17    1.10    0.60
  18   5 -17    1.60    1.40
  17   5 -17    1.30    1.40
 -17   5  17    1.90    0.60
  16   5 -17    1.50    1.50
  15   5 -17    0.50    1.50
 -14   5  17    0.20    0.60
  14   5 -17    0.70    1.50
  13   5 -17    3.80    1.60
 -13   5  17    2.40    0.70
 -12   5  17    0.30    0.60
  12   5 -17    1.10    1.30
  11   5 -17    0.10    1.20
 -11   5  17   -0.50    0.60
  10   5 -17    3.90    1.20
 -10   5  17    2.60    0.80
  -9   5  17   11.90    1.60
   9   5 -17   10.50    1.90
  -8  -5  17    8.80    1.70
   8   5 -17   11.20    1.70
  -8   5  17    9.30    1.50
  -7  -5  17    2.90    0.80
  -7   5  17    2.50    0.80
  -6  -5  17    0.00    0.60
  -6   5  17   -0.50    0.60
  -5  -5  17    0.50    0.70
   5  -5 -17   -0.10    0.40
  -5   5  17   -1.20    0.60
  -4  -5  17    2.90    0.80
   4  -5 -17    3.80    1.10
  -4   5  17    4.10    0.80
  -3  -5  17    0.20    0.80
   3  -5 -17    0.40    0.50
  -3   5  17    0.30    0.60
  -2  -5  17   -0.10    0.70
   2  -5 -17   -0.30    0.40
  -2   5  17    0.10    0.60
   1  -5 -17    0.40    0.50
  -1  -5  17    0.40    0.80
   0  -5 -17    5.20    1.10
  -1  -5 -17    4.70    1.10
  -2  -5 -17    0.50    0.40
  17   6 -17    2.00    1.40
  16   6 -17   -1.00    1.40
  15   6 -17   -0.50    1.40
  14   6 -17    0.10    1.40
  13   6 -17    2.50    1.40
 -13   6  17    1.60    0.70
 -12   6  17   -0.30    0.60
  12   6 -17   -0.20    1.40
 -11   6  17    3.30    0.80
  11   6 -17    5.20    1.40
  10   6 -17   18.90    2.30
 -10   6  17   20.00    1.80
   9   6 -17   64.09    4.30
  -9   6  17   64.99    3.40
   8   6 -17   63.49    4.00
  -8   6  17   61.29    3.30
  -7   6  17   16.40    2.30
   7   6 -17   20.90    1.90
  -7   6  17   20.90    1.90
  -6  -6  17    7.20    1.50
  -6   6  17    4.10    1.20
  -6   6  17    6.70    1.40
   6   6 -17    5.00    1.40
  -5  -6  17   -1.00    0.60
  -5   6  17   -0.20    0.60
  -5   6  17   -0.10    0.90
  -4   6  17    2.20    1.10
  -4   6  17    1.40    0.70
   3  -6 -17    0.30    0.40
  -3   6  17    0.10    1.00
   2  -6 -17    0.40    0.50
  -2   6  17    1.30    1.10
   1  -6 -17    0.80    0.50
  -1   6  17   -0.30    1.10
   0  -6 -17    1.30    0.50
  16   7 -17    1.30    1.30
  15   7 -17    0.30    1.30
  14   7 -17    1.20    1.30
 -14   7  17    0.60    0.60
  13   7 -17    1.80    1.40
 -13   7  17    1.00    0.60
  12   7 -17    0.00    1.30
 -12   7  17    0.00    0.60
  11   7 -17    1.50    1.20
 -11   7  17    1.70    0.70
  10   7 -17   32.80    2.80
 -10   7  17   26.40    2.10
  -9   7  17   36.00    2.30
   9   7 -17   38.60    2.90
  -8   7  17   36.50    2.30
  -8   7  17   31.60    2.90
   8   7 -17   37.70    2.70
  -7   7  17   28.30    2.60
  -7   7  17   29.60    2.10
   7   7 -17   27.80    2.20
   6   7 -17    1.60    0.70
  -6   7  17    1.50    1.00
  -6   7  17    1.00    0.60
  -5   7  17   -0.10    0.90
  -5   7  17    0.40    0.60
  -4   7  17    1.60    1.10
  -3   7  17    1.00    1.10
  -2   7  17   -0.80    1.00
   1  -7 -17    1.40    0.50
  -1   7  17    2.90    1.20
 -13   8  17    0.30    0.60
  13   8 -17    1.40    1.10
 -12   8  17    0.70    0.60
  12   8 -17    0.70    1.00
  11   8 -17    0.10    0.90
 -11   8  17    0.40    0.60
  10   8 -17    2.00    0.90
 -10   8  17    1.80    0.70
   9   8 -17   11.20    1.60
  -9   8  17   10.60    1.40
  -8   8  17   12.50    1.50
   8   8 -17   11.40    1.50
  -8   8  17    8.30    1.80
  -7   8  17    1.80    0.70
   7   8 -17    2.00    0.80
  -7   8  17    1.90    1.00
  -6   8  17    0.20    0.90
   6   8 -17   -0.30    0.60
  -5   8  17   -0.60    0.90
  -4   8  17    0.10    0.90
 -14   0  18   29.40    2.20
 -13   0  18    0.30    0.70
 -12   0  18   11.30    1.60
 -11   0  18    8.80    1.60
 -10   0  18   27.30    2.20
  -9   0  18  157.28    6.90
  -8   0  18   27.70    2.20
  -7   0  18    8.60    1.60
  -6   0  18    9.70    1.60
  -5   0  18    0.40    0.70
  -4   0  18   29.80    2.20
  -3   0  18    7.50    1.60
  -2   0  18    3.20    0.90
  -1   0  18   14.10    1.70
   1   0 -18   18.50    1.80
   0   0 -18   26.80    2.10
   0   0  18   22.20    2.00
  -1   0 -18   27.20    2.10
   1   0  18   29.80    2.10
  -2   0 -18   11.70    1.40
   2   0  18   14.60    1.60
  -3   0 -18    0.70    0.40
   3   0  18    0.90    0.60
 -15   1  18    0.40    0.60
 -14   1  18    0.20    0.70
 -13  -1  18    4.30    0.90
 -13   1  18    3.90    0.80
 -12  -1  18    1.00    0.70
 -12   1  18    1.60    0.70
 -11  -1  18   18.80    1.80
 -11   1  18   21.00    1.90
 -10  -1  18   65.59    3.40
 -10   1  18   65.19    3.40
  -9  -1  18   10.10    1.70
  -9   1  18   15.20    1.70
  -8  -1  18   63.09    3.50
  -8   1  18   67.09    3.50
  -7  -1  18   20.60    2.00
  -7   1  18   23.10    2.00
  -6  -1  18   -0.10    0.70
  -6   1  18    2.60    0.80
  -5  -1  18    7.80    1.60
  -5   1  18    6.60    1.50
  -4  -1  18    0.00    0.70
  -4   1  18    0.30    0.70
  -3  -1  18   -0.60    0.70
  -3   1  18    0.30    0.70
  -2  -1  18   -0.10    0.70
   2  -1 -18    0.30    0.50
  -2   1  18   -0.10    0.70
   1  -1 -18   14.80    1.70
  -1  -1  18   12.10    1.70
  -1   1  18   14.70    1.70
   0  -1 -18   29.80    2.10
   0  -1  18   24.50    2.10
   0   1 -18   28.30    2.10
   0   1  18   25.80    2.10
   1  -1  18   15.60    1.70
  -1  -1 -18   17.20    1.60
  -1   1 -18   18.90    1.70
   1   1  18   15.80    1.60
  -2  -1 -18    7.20    1.20
   2  -1  18    6.80    1.50
  -2   1 -18    7.50    1.20
   2   1  18    9.60    1.40
 -17   2  18   14.30    1.60
 -16   2  18   12.80    1.60
 -15   2  18    0.80    0.70
 -14   2  18    1.10    0.70
 -13   2  18    1.10    0.70
 -12  -2  18   -1.30    0.60
 -12   2  18   -0.80    0.60
 -11  -2  18    1.50    0.70
 -11   2  18    0.90    0.70
 -10  -2  18    6.60    1.50
 -10   2  18    8.00    1.50
  -9  -2  18   38.80    2.50
  -9   2  18   42.00    2.50
  -8  -2  18    9.00    1.50
  -8   2  18    8.60    1.50
  -7  -2  18    1.40    0.70
  -7   2  18    1.80    0.80
  -6  -2  18    0.00    0.70
  -6   2  18   -0.90    0.60
  -5  -2  18    2.10    0.80
  -5   2  18    1.10    0.70
  -4  -2  18    0.60    0.70
   4  -2 -18    0.70    0.60
  -4   2  18    0.70    0.70
  -3  -2  18    0.20    0.70
   3  -2 -18    0.70    0.50
  -3   2  18   -0.30    0.60
  -2  -2  18   12.60    1.80
   2  -2 -18   17.30    1.60
  -2   2  18   12.50    1.60
   1  -2 -18   14.00    1.50
  -1  -2  18   13.90    1.70
  -1   2  18   13.80    1.70
   0  -2 -18    7.50    1.30
   0  -2  18    9.90    1.60
   0   2  18    7.30    1.40
   1  -2  18    2.20    0.80
  -1  -2 -18    1.50    0.50
  -1   2 -18    1.90    0.50
   1   2  18    5.80    1.30
  -2  -2 -18   -0.20    0.40
   2  -2  18   -0.70    0.60
  -2   2 -18   -0.20    0.30
 -18   3  18    1.30    0.60
 -17   3  18   10.10    1.40
 -16   3  18    7.30    1.40
 -15   3  18    1.00    0.70
 -14   3  18   -0.40    0.60
 -13   3  18   -0.40    0.60
 -12   3  18    1.10    0.70
 -11   3  18   -0.10    0.60
 -10  -3  18    0.40    0.70
 -10   3  18    0.60    0.70
  -9  -3  18    1.80    0.80
  -9   3  18    0.80    0.70
   8  -3 -18    0.80    0.50
  -8  -3  18    0.80    0.70
  -8   3  18    0.00    0.60
   7  -3 -18    0.30    0.50
  -7  -3  18    0.80    0.70
  -7   3  18    0.80    0.70
   6  -3 -18    0.70    0.50
  -6  -3  18    0.40    0.70
  -6   3  18    0.90    0.70
   5  -3 -18   -0.10    0.50
  -5  -3  18    1.00    0.70
  -5   3  18   -0.30    0.70
   4  -3 -18   -0.50    0.50
  -4  -3  18   -0.20    0.70
  -4   3  18   -0.30    0.60
   3  -3 -18    2.10    0.60
  -3  -3  18    2.20    0.80
  -3   3  18    1.20    0.70
   2  -3 -18    5.50    1.30
  -2  -3  18    3.60    0.90
  -2   3  18    2.50    0.70
   1  -3 -18    9.60    1.40
  -1  -3  18   11.10    1.60
  -1   3  18   10.80    1.50
   0  -3 -18    1.60    0.50
   0  -3  18    1.80    0.80
   0   3  18    1.70    0.60
   1  -3  18    0.20    0.70
  -1  -3 -18   -0.20    0.40
  -1   3 -18    0.00    0.40
  -2  -3 -18    0.50    0.40
  -2   3 -18    0.50    0.40
 -19   4  18    0.60    0.60
 -18   4  18    0.70    0.60
 -17   4  18   -0.10    0.60
 -16   4  18    1.00    0.60
 -15   4  18    1.30    0.70
 -14   4  18    3.30    0.80
 -13   4  18    0.80    0.70
 -12   4  18   -0.40    0.60
 -11   4  18   -0.30    0.60
 -10   4  18    2.00    0.80
  -9  -4  18    0.50    0.70
  -9   4  18    0.00    0.70
  -8  -4  18    0.50    0.70
  -8   4  18    1.60    0.70
  -7  -4  18    0.10    0.70
  -7   4  18   -0.20    0.60
   6  -4 -18   -0.40    0.40
  -6  -4  18   -0.10    0.70
  -6   4  18   -0.50    0.60
  -5  -4  18    2.40    0.80
   5  -4 -18    1.20    0.50
  -5   4  18    1.50    0.70
  -4  -4  18    4.20    0.90
   4  -4 -18    6.40    1.30
  -4   4  18    6.20    1.40
   3  -4 -18    0.50    0.50
  -3  -4  18    1.90    0.70
  -3   4  18    0.70    0.60
  -2  -4  18    1.20    0.70
   2  -4 -18    1.00    0.50
  -2   4  18    0.50    0.60
  -1  -4  18   -0.40    0.60
   1  -4 -18    0.00    0.40
  -1   4  18    0.90    0.60
   0  -4  18    0.70    0.70
   0  -4 -18    0.20    0.40
  -1  -4 -18    0.00    0.40
  -1   4 -18    0.50    0.40
 -18   5  18    0.40    0.50
  17   5 -18    0.30    1.30
 -17   5  18    2.70    0.70
 -16   5  18    0.60    0.60
  16   5 -18    0.00    1.30
  15   5 -18    2.00    1.30
 -15   5  18    0.20    0.60
 -14   5  18   -0.70    0.60
  14   5 -18   -0.10    1.30
  13   5 -18    0.40    1.20
 -13   5  18   -0.20    0.60
  12   5 -18   -0.40    1.00
 -12   5  18   -0.40    0.60
 -11   5  18    0.80    0.70
  11   5 -18    0.30    1.00
 -10   5  18    3.50    0.80
  10   5 -18    4.90    1.50
  -9   5  18   31.20    2.30
  -8  -5  18    8.50    1.50
  -8   5  18    6.90    1.50
  -7  -5  18    1.10    0.70
  -7   5  18    0.40    0.60
  -6  -5  18   -0.50    0.60
  -6   5  18    0.10    0.60
  -5  -5  18   -0.50    0.60
   5  -5 -18    0.30    0.40
  -5   5  18    0.70    0.70
  -4  -5  18    0.10    0.70
   4  -5 -18    0.10    0.40
  -4   5  18    0.30    0.60
  -3  -5  18    1.30    0.70
   3  -5 -18    0.50    0.40
  -3   5  18    0.00    0.60
   2  -5 -18    1.30    0.50
  -2  -5  18    1.40    0.70
   1  -5 -18    3.50    1.00
   0  -5 -18    1.00    0.40
 -16   6  18    0.60    0.50
  16   6 -18   -0.20    1.20
  15   6 -18    0.30    1.20
 -15   6  18   -0.70    0.50
  14   6 -18   -0.30    1.30
 -14   6  18   -0.10    0.60
  13   6 -18    1.40    1.20
 -13   6  18   -0.10    0.60
  12   6 -18   -0.70    1.00
 -12   6  18    0.90    0.60
  11   6 -18   11.80    1.90
 -11   6  18    9.70    1.50
 -10   6  18   29.20    2.10
  10   6 -18   31.80    2.50
  -9   6  18   21.50    1.90
   9   6 -18   20.90    1.90
  -8   6  18   30.90    2.20
  -7   6  18    7.00    1.30
  -6   6  18   -0.60    0.60
  -5   6  18    1.90    0.70
  -4   6  18    0.70    0.60
   3  -6 -18   -0.10    0.40
   2  -6 -18    0.70    0.40
  14   7 -18    2.70    1.10
 -14   7  18    1.60    0.60
 -13   7  18    1.00    0.60
  13   7 -18    0.80    1.00
 -12   7  18    1.10    0.70
  12   7 -18    0.20    0.90
  11   7 -18    1.90    0.90
 -11   7  18    1.20    0.60
 -10   7  18   12.60    1.50
  10   7 -18   13.60    1.70
  -9   7  18   34.80    2.20
   9   7 -18   33.00    2.50
  -8   7  18   14.60    1.60
   8   7 -18   14.00    1.60
  -7   7  18    1.40    0.60
  -6   7  18    0.60    0.60
 -14   0  19   31.70    2.30
 -13   0  19   26.90    2.20
 -12   0  19   -0.10    0.70
 -11   0  19   46.00    2.80
 -10   0  19   19.50    2.00
  -9   0  19   18.50    1.90
  -8   0  19   48.20    2.90
  -7   0  19   -0.60    0.70
  -6   0  19   25.50    2.00
  -5   0  19   31.00    2.20
  -4   0  19    2.90    0.80
  -3   0  19    0.20    0.70
  -2   0  19   10.80    1.60
   2   0 -19   10.90    1.50
   1   0 -19   30.40    2.20
  -1   0  19   27.60    2.10
   0   0 -19   21.30    1.80
   0   0  19   23.80    1.80
   1   0  19   18.50    1.60
  -1   0 -19   17.20    1.50
 -16   1  19    0.40    0.60
 -15   1  19   10.60    1.50
 -14   1  19    3.70    0.80
 -13  -1  19    1.50    0.70
 -13   1  19   -0.30    0.70
 -12  -1  19    0.10    0.70
 -12   1  19   -0.20    0.70
 -11  -1  19    0.10    0.70
 -11   1  19   -0.30    0.70
 -10  -1  19   45.00    2.80
 -10   1  19   48.00    2.80
  -9  -1  19   47.20    3.00
  -9   1  19   54.69    3.10
  -8  -1  19   -0.80    0.60
  -8   1  19    0.10    0.70
  -7  -1  19   -0.60    0.70
  -7   1  19   -0.50    0.60
  -6  -1  19    0.10    0.70
  -6   1  19    0.70    0.70
  -5  -1  19    3.50    0.90
  -5   1  19    7.70    1.50
  -4  -1  19   12.90    1.70
  -4   1  19    9.40    1.50
  -3  -1  19   -0.50    0.60
   3  -1 -19    0.30    0.50
  -3   1  19    0.00    0.60
   2  -1 -19    9.80    1.40
  -2  -1  19    8.70    1.60
  -2   1  19    9.40    1.50
  -1  -1  19   15.90    1.70
   1  -1 -19   17.50    1.60
   1   1 -19   17.20    1.70
  -1   1  19   15.90    1.60
   0  -1  19   21.90    1.90
   0   1  19   22.50    1.80
   0   1 -19   24.20    1.90
   1  -1  19   10.60    1.50
  -1  -1 -19    9.20    1.20
   1   1  19    8.70    1.30
  -1   1 -19    9.60    1.20
 -17   2  19    1.00    0.60
 -16   2  19    0.70    0.60
 -15   2  19    0.50    0.60
 -14   2  19    0.20    0.70
 -13   2  19    0.70    0.70
 -12  -2  19   -0.20    0.60
 -12   2  19    0.30    0.60
 -11  -2  19    4.20    0.80
 -11   2  19    3.20    0.80
 -10  -2  19   -0.20    0.60
 -10   2  19   -0.50    0.60
  -9  -2  19   -0.70    0.60
  -9   2  19    0.00    0.70
  -8  -2  19    2.90    0.80
  -8   2  19    3.00    0.80
  -7  -2  19    1.40    0.80
  -7   2  19    0.00    0.70
  -6  -2  19   -0.10    0.70
  -6   2  19    0.30    0.70
  -5  -2  19   -0.10    0.70
   5  -2 -19   -0.50    0.50
  -5   2  19    0.10    0.60
  -4  -2  19    0.20    0.70
   4  -2 -19    0.00    0.50
  -4   2  19    0.10    0.60
   3  -2 -19    0.00    0.40
  -3  -2  19   -0.80    0.70
  -3   2  19    0.10    0.60
  -2  -2  19   -0.10    0.60
   2  -2 -19    0.30    0.40
  -2   2  19    0.10    0.60
   1  -2 -19    1.60    0.50
  -1  -2  19    1.60    0.70
  -1   2  19    2.40    0.70
   0  -2 -19    0.50    0.40
   0  -2  19   -0.20    0.60
   0   2  19    0.90    0.60
   0   2 -19    0.30    0.40
 -18   3  19    0.50    0.60
 -17   3  19    0.40    0.60
 -16   3  19    1.60    0.70
 -15   3  19    0.60    0.70
 -14   3  19   -0.70    0.60
 -13   3  19    1.60    0.70
 -12   3  19    0.90    0.70
 -11  -3  19    0.30    0.70
 -11   3  19    0.20    0.70
 -10  -3  19   -0.20    0.60
 -10   3  19    0.30    0.60
  -9  -3  19    0.00    0.60
  -9   3  19   -0.10    0.70
   8  -3 -19    0.00    0.40
  -8  -3  19    0.50    0.70
  -8   3  19    0.00    0.70
  -7  -3  19    0.20    0.70
   7  -3 -19    0.80    0.50
  -7   3  19    0.30    0.70
   6  -3 -19    0.50    0.50
  -6  -3  19    2.10    0.80
  -6   3  19    2.10    0.80
   5  -3 -19    0.00    0.40
  -5  -3  19    0.50    0.70
  -5   3  19    0.30    0.60
   4  -3 -19    0.20    0.50
  -4  -3  19    1.30    0.70
  -4   3  19    0.20    0.60
   3  -3 -19    0.40    0.50
  -3  -3  19    0.80    0.70
  -3   3  19    0.80    0.60
   2  -3 -19    0.90    0.50
  -2  -3  19    1.40    0.70
  -2   3  19    1.00    0.60
  -1  -3  19    0.40    0.60
   1  -3 -19   -0.20    0.40
  -1   3  19    0.50    0.60
   0  -3 -19    0.50    0.40
   0  -3  19    1.10    0.70
   0   3 -19    0.40    0.40
 -18   4  19    0.90    0.60
 -17   4  19    0.50    0.60
 -16   4  19    1.50    0.60
 -15   4  19   -0.20    0.60
 -14   4  19    1.20    0.70
 -13   4  19    0.70    0.60
 -12   4  19    0.00    0.70
 -11   4  19    1.10    0.70
 -10   4  19   10.20    1.60
  -9  -4  19    8.40    1.50
  -9   4  19    7.80    1.50
  -8  -4  19   -0.20    0.70
  -8   4  19   -0.60    0.60
  -7  -4  19    0.00    0.60
  -7   4  19    0.10    0.70
  -6  -4  19    0.50    0.70
   6  -4 -19    0.10    0.40
  -6   4  19    0.00    0.70
  -5  -4  19    1.00    0.70
   5  -4 -19    0.90    0.50
  -5   4  19    0.20    0.60
  -4  -4  19   -0.20    0.60
   4  -4 -19    0.30    0.40
  -4   4  19   -0.60    0.50
   3  -4 -19    0.80    0.40
  -3  -4  19    0.90    0.70
  -3   4  19    0.30    0.60
   2  -4 -19    0.20    0.40
  -2  -4  19    1.00    0.60
  -2   4  19    0.40    0.60
  -1  -4  19   -0.10    0.60
   1  -4 -19    0.00    0.40
 -17   5  19    0.30    0.50
 -16   5  19    0.30    0.50
 -15   5  19    0.80    0.60
 -14   5  19   -0.10    0.60
 -13   5  19    1.00    0.60
 -12   5  19   -0.20    0.60
 -11   5  19   10.80    1.50
 -10   5  19    7.40    1.50
  -9   5  19    5.80    1.40
  -8  -5  19   10.40    1.50
  -8   5  19    9.60    1.50
  -7  -5  19    0.30    0.60
  -7   5  19    0.70    0.60
  -6  -5  19    1.40    0.70
  -6   5  19    0.70    0.60
   5  -5 -19    0.10    0.40
  -5  -5  19    0.10    0.60
  -5   5  19    0.20    0.60
   4  -5 -19    0.80    0.40
  -4  -5  19    0.60    0.60
  -4   5  19    0.00    0.50
   3  -5 -19    0.80    0.40
  -3   5  19    0.10    0.50
   2  -5 -19    0.50    0.40
  15   6 -19    0.70    1.00
 -15   6  19    1.20    0.60
 -14   6  19    1.00    0.60
  14   6 -19    1.00    0.90
  13   6 -19    0.10    0.90
 -13   6  19   -0.20    0.60
 -12   6  19   -0.30    0.60
 -11   6  19    0.10    0.60
 -10   6  19   18.00    1.70
  -9   6  19   17.30    1.70
  -8   6  19    1.00    0.60
  -7   6  19   -0.60    0.50
  -6   6  19   -0.40    0.50
  -5   6  19    1.20    0.60
 -11   7  19    0.90    0.60
 -10   7  19    6.20    1.30
  -9   7  19    6.20    1.20
  -8   7  19    1.90    0.60
 -15   0  20   24.20    2.00
 -14   0  20   23.60    1.90
 -13   0  20   10.50    1.60
 -12   0  20    6.40    1.40
 -11   0  20    2.50    0.80
 -10   0  20   62.49    3.40
  -9   0  20    3.20    0.80
  -8   0  20    7.40    1.50
  -7   0  20    9.70    1.60
  -6   0  20   21.10    1.90
  -5   0  20   27.80    2.20
  -4   0  20    2.40    0.70
   3   0 -20    5.90    1.30
  -2   0  20   12.70    1.50
   2   0 -20   15.20    1.50
  -1   0  20   17.90    1.60
   1   0 -20   16.40    1.50
 -16   1  20    1.10    0.70
 -15   1  20    8.00    1.40
 -14   1  20   18.60    1.80
 -13  -1  20   11.60    1.60
 -13   1  20   11.20    1.60
 -12  -1  20    0.30    0.70
 -12   1  20    0.00    0.70
 -11  -1  20    1.90    0.70
 -11   1  20    1.30    0.80
 -10  -1  20    0.70    0.70
 -10   1  20    0.40    0.70
  -9  -1  20    1.60    0.80
  -9   1  20    1.50    0.70
  -8  -1  20   -0.60    0.60
  -8   1  20   -0.10    0.60
  -7  -1  20   11.30    1.60
  -7   1  20   12.70    1.60
  -6  -1  20   18.00    1.80
  -6   1  20   18.00    1.70
   5  -1 -20   10.20    1.40
  -5  -1  20    8.10    1.50
  -5   1  20    6.60    1.40
  -4  -1  20    0.80    0.70
   4  -1 -20    0.60    0.50
  -4   1  20    0.30    0.70
   3  -1 -20    0.30    0.50
  -3  -1  20    0.70    0.70
  -3   1  20    0.90    0.60
   2  -1 -20    7.10    1.20
  -2  -1  20    6.20    1.40
  -2   1  20    8.80    1.30
   2   1 -20    7.10    1.30
  -1  -1  20    7.90    1.40
   1  -1 -20    9.70    1.20
   1   1 -20   10.20    1.30
  -1   1  20   11.10    1.40
 -17   2  20    0.10    0.60
 -16   2  20    1.00    0.60
 -15   2  20   -0.30    0.60
 -14   2  20   -0.80    0.60
 -13   2  20   -0.50    0.60
 -12  -2  20    0.40    0.60
 -12   2  20    2.20    0.80
 -11  -2  20    2.10    0.70
 -11   2  20    1.80    0.70
 -10  -2  20   -0.50    0.60
 -10   2  20   -0.70    0.70
  -9  -2  20    1.30    0.70
  -9   2  20    1.50    0.80
  -8  -2  20    1.10    0.70
  -8   2  20    0.30    0.70
  -7  -2  20    0.00    0.60
   7  -2 -20   -0.10    0.50
  -7   2  20   -0.60    0.60
   6  -2 -20   -0.40    0.40
  -6  -2  20    0.80    0.70
  -6   2  20   -0.10    0.60
  -5  -2  20   -0.10    0.70
   5  -2 -20   -0.10    0.40
  -5   2  20   -1.10    0.50
   4  -2 -20    0.10    0.40
  -4  -2  20    0.60    0.70
  -4   2  20   -0.20    0.60
  -3  -2  20    0.40    0.60
   3  -2 -20   -0.10    0.40
  -3   2  20    0.00    0.60
  -2  -2  20   -0.60    0.60
   2  -2 -20   -0.30    0.40
  -2   2  20    0.60    0.50
 -18   3  20    1.80    0.60
 -17   3  20    0.00    0.50
 -16   3  20    0.10    0.50
 -15   3  20    0.00    0.60
 -14   3  20    0.20    0.60
 -13   3  20   -0.10    0.60
 -12   3  20   -0.90    0.60
 -11  -3  20   -0.40    0.60
 -11   3  20   -0.20    0.60
 -10  -3  20   -0.40    0.60
 -10   3  20    0.20    0.70
  -9  -3  20    0.90    0.70
  -9   3  20   -0.10    0.70
   8  -3 -20   -0.20    0.40
  -8  -3  20   -0.10    0.70
  -8   3  20   -1.40    0.60
   7  -3 -20    0.30    0.40
  -7  -3  20    0.20    0.60
  -7   3  20    0.10    0.60
  -6  -3  20    1.10    0.70
   6  -3 -20    0.50    0.40
  -6   3  20    0.20    0.60
  -5  -3  20    0.40    0.60
   5  -3 -20    0.10    0.40
  -5   3  20    0.20    0.60
   4  -3 -20    0.50    0.40
  -4  -3  20    0.50    0.60
  -4   3  20   -1.00    0.50
  -3  -3  20   -0.20    0.50
   3  -3 -20    0.60    0.40
  -3   3  20   -0.10    0.50
  -2  -3  20    0.00    0.60
   2  -3 -20    0.30    0.40
  -2   3  20    0.50    0.50
 -17   4  20    0.80    0.50
 -16   4  20    0.50    0.50
 -15   4  20   -0.20    0.50
 -14   4  20    0.00    0.60
 -13   4  20    0.10    0.60
 -12   4  20    0.30    0.60
 -11   4  20    1.10    0.60
 -10   4  20   -0.50    0.60
  -9  -4  20    0.30    0.60
  -9   4  20    1.40    0.70
  -8  -4  20    1.20    0.70
  -8   4  20    0.50    0.70
  -7  -4  20   -1.20    0.60
  -7   4  20   -0.20    0.60
   6  -4 -20   -0.40    0.40
  -6  -4  20    0.30    0.60
  -6   4  20   -0.70    0.50
  -5  -4  20   -0.50    0.50
   5  -4 -20    0.20    0.40
  -5   4  20    0.40    0.60
  -4  -4  20   -0.10    0.60
   4  -4 -20   -0.20    0.30
  -4   4  20    0.00    0.50
  -3  -4  20    0.30    0.60
   3  -4 -20    0.00    0.40
  -3   4  20   -0.40    0.50
 -15   5  20   -0.40    0.50
 -14   5  20    0.30    0.60
 -13   5  20    0.00    0.60
 -12   5  20   -0.10    0.60
 -11   5  20    0.70    0.60
 -10   5  20   11.50    1.40
  -9   5  20    0.70    0.60
  -8  -5  20    0.30    0.60
  -8   5  20    0.10    0.60
  -7  -5  20   -0.30    0.60
  -7   5  20   -0.50    0.60
  -6  -5  20    0.30    0.60
  -6   5  20   -0.50    0.50
  -5  -5  20    0.20    0.60
  -5   5  20   -0.70    0.50
 -12   6  20    0.20    0.60
 -11   6  20    1.80    0.60
 -10   6  20    1.00    0.60
  -9   6  20    1.70    0.60
  -8   6  20    0.60    0.60
 -15   0  21   12.60    1.50
 -14   0  21   18.20    1.70
 -13   0  21   13.90    1.60
 -12   0  21   -0.40    0.60
 -11   0  21    0.10    0.70
 -10   0  21    0.00    0.60
  -9   0  21   -0.10    0.60
  -8   0  21    9.10    1.40
  -7   0  21   18.20    1.80
  -6   0  21   13.90    1.60
  -5   0  21    8.10    1.40
  -4   0  21    1.90    0.70
   4   0 -21    0.90    0.50
   3   0 -21    0.90    0.50
  -3   0  21    0.70    0.60
 -16   1  21    7.40    1.40
 -15   1  21   12.90    1.50
 -14   1  21   10.60    1.60
 -13  -1  21    2.90    0.70
 -13   1  21    3.20    0.80
 -12  -1  21    2.20    0.70
 -12   1  21    2.50    0.70
 -11  -1  21    0.10    0.60
 -11   1  21    0.10    0.60
 -10  -1  21   -0.10    0.60
 -10   1  21   -0.30    0.60
  -9  -1  21    2.80    0.80
  -9   1  21    1.70    0.70
  -8  -1  21    3.40    0.80
  -8   1  21    2.70    0.80
  -7  -1  21   10.00    1.50
  -7   1  21    8.20    1.40
  -6  -1  21   10.10    1.40
   6  -1 -21   12.10    1.40
  -6   1  21    9.30    1.40
   5  -1 -21    5.90    1.10
  -5  -1  21    6.50    1.40
  -5   1  21    3.20    0.80
  -4  -1  21   -0.60    0.60
   4  -1 -21    0.30    0.40
  -4   1  21    0.80    0.60
 -17   2  21    0.40    0.60
 -16   2  21    0.70    0.60
 -15   2  21    0.50    0.60
 -14   2  21    0.80    0.60
 -13   2  21    0.30    0.60
 -12  -2  21   -0.30    0.60
 -12   2  21    0.80    0.70
 -11  -2  21    1.90    0.70
 -11   2  21    1.20    0.80
 -10  -2  21    1.20    0.70
 -10   2  21    0.90    0.70
  -9  -2  21    0.10    0.60
   9  -2 -21    0.40    0.50
  -9   2  21    0.40    0.60
  -8  -2  21    1.40    0.70
   8  -2 -21    0.90    0.50
  -8   2  21    0.30    0.60
  -7  -2  21    1.40    0.70
   7  -2 -21    0.60    0.40
  -7   2  21    0.10    0.60
   6  -2 -21    0.00    0.40
  -6  -2  21   -0.20    0.60
  -6   2  21    0.00    0.60
  -5  -2  21   -0.10    0.60
   5  -2 -21    0.30    0.40
  -5   2  21    0.70    0.60
  -4  -2  21   -0.40    0.50
   4  -2 -21   -0.10    0.40
  -4   2  21   -0.40    0.50
 -16   3  21   -0.80    0.50
 -15   3  21    0.40    0.50
 -14   3  21    0.60    0.60
 -13   3  21    0.30    0.60
 -12   3  21    0.60    0.60
 -11  -3  21    0.80    0.70
 -11   3  21    0.70    0.70
 -10  -3  21    0.30    0.70
 -10   3  21    0.40    0.70
  -9  -3  21    0.50    0.60
  -9   3  21   -0.30    0.60
  -8  -3  21    0.10    0.60
  -8   3  21    0.30    0.60
  -7  -3  21   -0.10    0.50
   7  -3 -21   -0.10    0.40
  -7   3  21   -0.20    0.60
  -6  -3  21   -0.10    0.50
   6  -3 -21    0.00    0.40
  -6   3  21   -0.40    0.50
   5  -3 -21    0.10    0.40
  -5  -3  21   -0.30    0.50
  -5   3  21   -0.40    0.50
 -15   4  21   -0.50    0.50
 -14   4  21   -0.20    0.50
 -13   4  21    0.40    0.60
 -12   4  21   -0.30    0.50
 -11   4  21   -0.70    0.60
 -10   4  21    0.20    0.60
  -9  -4  21    0.30    0.60
  -9   4  21    0.20    0.60
  -8  -4  21    0.10    0.60
  -8   4  21    0.00    0.50
  -7  -4  21   -0.50    0.50
  -7   4  21   -0.40    0.50
  -6  -4  21    0.50    0.60
  -6   4  21   -0.30    0.50
 -14   0  22    7.60    1.30
 -13   0  22    3.00    0.70
 -12   0  22    2.70    0.70
 -11   0  22   -0.60    0.50
 -10   0  22    1.00    0.60
  -9   0  22    1.40    0.60
  -8   0  22    7.50    1.40
  -7   0  22   13.00    1.50
  -6   0  22    8.90    1.30
   6   0 -22    9.50    1.30
 -15   1  22    3.00    0.70
 -14   1  22    8.90    1.30
 -13  -1  22    5.70    1.20
 -13   1  22    6.40    1.30
 -12  -1  22    0.50    0.60
 -12   1  22    0.00    0.60
 -11  -1  22    1.30    0.60
 -11   1  22    0.40    0.60
 -10  -1  22    0.20    0.60
 -10   1  22    0.50    0.60
   9  -1 -22    7.30    1.20
  -9  -1  22    6.00    1.40
   8  -1 -22    9.60    1.20
  -8  -1  22    5.40    1.20
  -8   1  22    6.10    1.20
  -7  -1  22    2.40    0.70
   7  -1 -22    5.30    1.00
  -7   1  22    2.20    0.70
 -15   2  22    1.90    0.60
 -14   2  22    0.90    0.60
 -13   2  22    0.30    0.60
 -12  -2  22    1.40    0.60
 -12   2  22    1.00    0.60
 -11  -2  22    0.70    0.60
 -11   2  22    0.80    0.60
 -10  -2  22    1.60    0.60
 -10   2  22    1.20    0.60
  -9  -2  22    0.80    0.60
  -9   2  22   -0.50    0.60
  -8  -2  22   -0.30    0.60
   8  -2 -22    1.30    0.40
  -8   2  22   -0.10    0.50
   7  -2 -22    1.30    0.40
  -7  -2  22    0.50    0.60
  -7   2  22    0.80    0.60
 -13   3  22    1.30    0.60
 -12   3  22    1.00    0.60
 -11  -3  22    1.30    0.60
 -11   3  22    1.40    0.60
 -10  -3  22    0.00    0.50
 -10   3  22    0.90    0.60
  -9  -3  22   -0.20    0.50
  -9   3  22    0.60    0.50

_computing_structure_solution     'SHELXT 2014/4 (Sheldrick, 2014)'
;
_shelx_hkl_checksum              89522
_shelx_fab_file
;
    1    0    0   -258.39      0.00
    2    0    0    132.34      0.00
    3    0    0    -19.22      0.00
    4    0    0    -17.05      0.00
    5    0    0      7.17      0.00
    6    0    0     -6.13      0.00
    7    0    0      5.65      0.00
    8    0    0     -3.09      0.00
    9    0    0      4.45      0.00
   10    0    0     -2.35      0.00
   11    0    0      1.61      0.00
   12    0    0      4.05      0.00
   13    0    0      0.09      0.00
   14    0    0      0.22      0.00
    0    1    0   -137.47      0.00
    1    1    0     68.40      0.00
    2    1    0     43.76      0.00
    3    1    0    -59.69      0.00
    4    1    0     19.34      0.00
    5    1    0    -12.25      0.00
    6    1    0      2.68      0.00
    7    1    0      0.18      0.00
    8    1    0     -5.18      0.00
    9    1    0      0.92      0.00
   10    1    0      1.74      0.00
   11    1    0     -1.60      0.00
   12    1    0      3.46      0.00
   13    1    0      3.52      0.00
   14    1    0     -1.32      0.00
   15    1    0      0.41      0.00
   16    1    0     -3.14      0.00
    0    2    0     36.06      0.00
    1    2    0     17.94      0.00
    2    2    0    -47.14      0.00
    3    2    0     19.83      0.00
    4    2    0     -4.96      0.00
    5    2    0     -4.52      0.00
    6    2    0      1.33      0.00
    7    2    0      4.68      0.00
    8    2    0      1.02      0.00
    9    2    0     -0.52      0.00
   10    2    0     -1.67      0.00
   11    2    0      2.28      0.00
   12    2    0      0.55      0.00
   13    2    0     -0.64      0.00
   14    2    0      2.92      0.00
   15    2    0     -3.42      0.00
   16    2    0     -1.05      0.00
   17    2    0      0.26      0.00
    0    3    0      8.71      0.00
    1    3    0      3.73      0.00
    2    3    0     16.07      0.00
    3    3    0     -5.63      0.00
    4    3    0     -6.10      0.00
    5    3    0      2.58      0.00
    6    3    0      2.80      0.00
    7    3    0      2.27      0.00
    8    3    0     -2.04      0.00
    9    3    0     -2.01      0.00
   10    3    0      1.88      0.00
   11    3    0     -0.68      0.00
   12    3    0     -0.27      0.00
   13    3    0      2.72      0.00
   14    3    0     -0.87      0.00
   16    3    0      1.09      0.00
   17    3    0     -1.47      0.00
   18    3    0      0.04      0.00
    0    4    0     16.62      0.00
    1    4    0      9.21      0.00
    2    4    0     -1.32      0.00
    3    4    0     -7.11      0.00
    4    4    0     -7.29      0.00
    5    4    0      0.57      0.00
    6    4    0     -0.48      0.00
    7    4    0      1.19      0.00
    8    4    0     -1.81      0.00
    9    4    0      1.83      0.00
   10    4    0     -0.62      0.00
   11    4    0      0.53      0.00
   12    4    0     -0.20      0.00
   13    4    0      0.81      0.00
   14    4    0     -1.34      0.00
   15    4    0     -0.31      0.00
   16    4    0      0.31      0.00
   17    4    0     -0.10      0.00
   18    4    0     -0.85      0.00
    0    5    0     12.83      0.00
    1    5    0     -0.39      0.00
    2    5    0     -6.03      0.00
    3    5    0      0.07      0.00
    4    5    0     -4.40      0.00
    5    5    0     -0.34      0.00
    6    5    0      2.71      0.00
    7    5    0     -0.68      0.00
    8    5    0      0.64      0.00
    9    5    0     -0.37      0.00
   10    5    0     -0.99      0.00
   11    5    0     -1.76      0.00
   12    5    0      5.88      0.00
   13    5    0     -3.76      0.00
   14    5    0      2.53      0.00
   15    5    0     -0.07      0.00
   16    5    0     -0.67      0.00
   17    5    0     -0.45      0.00
   18    5    0      1.11      0.00
    0    6    0      2.91      0.00
    1    6    0      3.46      0.00
    2    6    0      2.98      0.00
    3    6    0     -2.44      0.00
    4    6    0     -1.08      0.00
    5    6    0      0.03      0.00
    6    6    0     -0.88      0.00
    7    6    0      2.11      0.00
    8    6    0     -2.28      0.00
    9    6    0      0.49      0.00
   10    6    0      3.36      0.00
   11    6    0      1.54      0.00
   12    6    0     -0.86      0.00
   13    6    0      1.71      0.00
   14    6    0      0.68      0.00
   15    6    0     -1.31      0.00
   16    6    0     -0.19      0.00
   17    6    0     -0.48      0.00
    0    7    0      0.94      0.00
    1    7    0      0.83      0.00
    2    7    0      1.29      0.00
    3    7    0     -0.36      0.00
    4    7    0      1.44      0.00
    5    7    0     -2.82      0.00
    6    7    0      1.15      0.00
    7    7    0     -5.32      0.00
    8    7    0      0.33      0.00
    9    7    0     -1.02      0.00
   10    7    0     -0.54      0.00
   11    7    0      1.24      0.00
   12    7    0      0.59      0.00
   13    7    0      0.28      0.00
   14    7    0     -0.71      0.00
   15    7    0     -2.45      0.00
   16    7    0      0.82      0.00
    0    8    0      5.63      0.00
    1    8    0     -1.41      0.00
    2    8    0      0.16      0.00
    3    8    0      0.68      0.00
    4    8    0     -1.65      0.00
    5    8    0      0.14      0.00
    6    8    0     -0.13      0.00
    7    8    0      0.09      0.00
    8    8    0     -0.35      0.00
    9    8    0      0.19      0.00
   10    8    0      1.76      0.00
   11    8    0      0.54      0.00
   12    8    0      0.07      0.00
   13    8    0     -1.23      0.00
   14    8    0     -1.41      0.00
   15    8    0      2.71      0.00
    0    9    0      1.16      0.00
    1    9    0     -0.03      0.00
    2    9    0      0.21      0.00
    3    9    0      0.20      0.00
    4    9    0      0.25      0.00
    5    9    0     -0.31      0.00
    6    9    0     -0.29      0.00
    7    9    0     -1.31      0.00
    8    9    0     -0.92      0.00
    9    9    0     -0.40      0.00
   10    9    0     -0.98      0.00
   11    9    0      1.22      0.00
   12    9    0      0.33      0.00
   13    9    0      0.54      0.00
   14    9    0      0.64      0.00
    0   10    0     -3.67      0.00
    1   10    0      1.97      0.00
    2   10    0      0.93      0.00
    3   10    0     -0.41      0.00
    4   10    0      0.45      0.00
    5   10    0     -0.86      0.00
    6   10    0     -0.56      0.00
    7   10    0     -0.35      0.00
    8   10    0     -0.46      0.00
    9   10    0     -0.63      0.00
   10   10    0      0.27      0.00
   11   10    0      0.24      0.00
   12   10    0     -0.08      0.00
    0   11    0      1.18      0.00
    1   11    0     -0.67      0.00
    2   11    0     -0.23      0.00
    3   11    0      0.10      0.00
    4   11    0      0.54      0.00
    5   11    0      0.67      0.00
    6   11    0      0.48      0.00
    7   11    0     -0.23      0.00
    8   11    0     -0.10      0.00
    9   11    0     -0.39      0.00
   10   11    0     -0.14      0.00
    0   12    0     -0.67      0.00
    1   12    0      0.04      0.00
    2   12    0      0.50      0.00
    3   12    0     -0.18      0.00
    4   12    0     -0.46      0.00
    5   12    0     -0.46      0.00
    6   12    0     -1.90      0.00
    7   12    0      1.63      0.00
  -15    0    1     -0.32      0.00
  -14    0    1      2.77      0.00
  -13    0    1      0.10      0.00
  -12    0    1      0.85      0.00
  -11    0    1     -2.11      0.00
  -10    0    1     -1.84      0.00
   -9    0    1      3.04      0.00
   -8    0    1      2.95      0.00
   -7    0    1      4.36      0.00
   -6    0    1      7.97      0.00
   -5    0    1     -3.54      0.00
   -4    0    1      0.63      0.00
   -3    0    1    -24.95      0.00
   -2    0    1      7.08      0.00
    0    0    1    -76.50      0.00
    1    0    1     23.76      0.00
    2    0    1    -21.35      0.00
    3    0    1      0.99      0.00
    4    0    1     -6.74      0.00
    5    0    1      5.88      0.00
    6    0    1      4.75      0.00
    7    0    1      5.32      0.00
    8    0    1      3.21      0.00
    9    0    1     -2.40      0.00
   10    0    1     -2.33      0.00
   11    0    1      1.92      0.00
   12    0    1      0.24      0.00
   13    0    1      0.36      0.00
   14    0    1     -1.77      0.00
  -17    1    1      0.24      0.00
  -16    1    1     -1.31      0.00
  -15    1    1      0.65      0.00
  -14    1    1     -0.44      0.00
  -13    1    1      2.69      0.00
  -12    1    1     -1.76      0.00
  -11    1    1      2.12      0.00
  -10    1    1      0.13      0.00
   -9    1    1      0.07      0.00
   -8    1    1      4.41      0.00
   -7    1    1      6.87      0.00
   -6    1    1      8.80      0.00
   -5    1    1    -10.25      0.00
   -4    1    1      5.61      0.00
   -3    1    1    -13.81      0.00
   -2    1    1    -10.22      0.00
   -1    1    1     33.88      0.00
    0    1    1     38.02      0.00
    1    1    1     -8.28      0.00
    2    1    1    -18.40      0.00
    3    1    1     -4.02      0.00
    4    1    1     -6.53      0.00
    5    1    1      8.09      0.00
    6    1    1      6.27      0.00
    7    1    1      2.08      0.00
    8    1    1      0.36      0.00
    9    1    1     -0.49      0.00
   10    1    1      0.67      0.00
   11    1    1     -3.40      0.00
   12    1    1      2.19      0.00
   13    1    1     -0.27      0.00
   14    1    1     -0.70      0.00
   15    1    1     -0.58      0.00
   16    1    1     -0.87      0.00
  -18    2    1     -1.65      0.00
  -17    2    1     -0.42      0.00
  -16    2    1      0.07      0.00
  -15    2    1     -1.61      0.00
  -14    2    1      1.87      0.00
  -13    2    1     -0.10      0.00
  -12    2    1      2.79      0.00
  -11    2    1     -1.22      0.00
  -10    2    1      0.69      0.00
   -9    2    1     -1.49      0.00
   -8    2    1      5.30      0.00
   -7    2    1     -3.82      0.00
   -6    2    1      5.96      0.00
   -5    2    1     -1.47      0.00
   -4    2    1    -15.96      0.00
   -3    2    1     11.81      0.00
   -2    2    1      5.39      0.00
   -1    2    1     21.00      0.00
    0    2    1     21.62      0.00
    1    2    1      2.04      0.00
    2    2    1     10.49      0.00
    3    2    1    -15.79      0.00
    4    2    1     -0.32      0.00
    5    2    1      1.18      0.00
    6    2    1     -0.83      0.00
    7    2    1      6.27      0.00
    8    2    1     -0.60      0.00
    9    2    1      0.27      0.00
   10    2    1     -0.92      0.00
   11    2    1      2.97      0.00
   12    2    1      0.01      0.00
   13    2    1      0.77      0.00
   14    2    1     -0.14      0.00
   15    2    1     -2.01      0.00
   16    2    1      1.24      0.00
   17    2    1     -0.84      0.00
  -19    3    1     -0.61      0.00
  -18    3    1      2.00      0.00
  -17    3    1     -0.99      0.00
  -16    3    1     -0.92      0.00
  -15    3    1      0.70      0.00
  -14    3    1      1.84      0.00
  -13    3    1      1.09      0.00
  -12    3    1      0.71      0.00
  -11    3    1      0.11      0.00
  -10    3    1      1.13      0.00
   -9    3    1     -1.46      0.00
   -7    3    1      1.71      0.00
   -6    3    1     -0.62      0.00
   -5    3    1      2.79      0.00
   -4    3    1     -7.50      0.00
   -3    3    1    -16.31      0.00
   -2    3    1     13.51      0.00
   -1    3    1      4.99      0.00
    0    3    1      4.45      0.00
    1    3    1     12.55      0.00
    2    3    1     -8.86      0.00
    3    3    1    -11.29      0.00
    4    3    1     -2.59      0.00
    5    3    1     -2.57      0.00
    6    3    1      4.38      0.00
    7    3    1     -2.54      0.00
    8    3    1      0.25      0.00
    9    3    1      0.98      0.00
   10    3    1      0.97      0.00
   11    3    1      0.58      0.00
   12    3    1      1.36      0.00
   13    3    1     -0.20      0.00
   14    3    1     -0.63      0.00
   15    3    1     -0.17      0.00
   16    3    1     -2.19      0.00
   17    3    1      1.10      0.00
   18    3    1     -1.12      0.00
  -19    4    1      0.16      0.00
  -18    4    1     -0.77      0.00
  -17    4    1     -1.33      0.00
  -16    4    1     -0.55      0.00
  -15    4    1     -1.40      0.00
  -14    4    1      2.35      0.00
  -13    4    1      0.80      0.00
  -12    4    1      1.07      0.00
  -11    4    1      2.53      0.00
  -10    4    1     -1.91      0.00
   -9    4    1      1.15      0.00
   -8    4    1     -0.76      0.00
   -7    4    1     -1.94      0.00
   -6    4    1      8.72      0.00
   -5    4    1    -15.42      0.00
   -4    4    1     13.76      0.00
   -3    4    1     -2.41      0.00
   -2    4    1     -3.33      0.00
   -1    4    1     10.01      0.00
    0    4    1     11.60      0.00
    1    4    1     -4.02      0.00
    2    4    1     -6.42      0.00
    3    4    1      5.70      0.00
    4    4    1     -3.76      0.00
    5    4    1      2.16      0.00
    6    4    1      1.63      0.00
    7    4    1     -0.54      0.00
    8    4    1      2.08      0.00
    9    4    1      0.27      0.00
   10    4    1      1.31      0.00
   11    4    1      0.60      0.00
   12    4    1      2.52      0.00
   13    4    1      1.28      0.00
   14    4    1     -1.50      0.00
   15    4    1      0.31      0.00
   16    4    1     -1.28      0.00
   17    4    1      0.13      0.00
   18    4    1      1.21      0.00
  -18    5    1     -0.15      0.00
  -17    5    1      0.44      0.00
  -16    5    1     -1.76      0.00
  -15    5    1     -0.07      0.00
  -14    5    1     -1.65      0.00
  -13    5    1      1.49      0.00
  -12    5    1     -1.68      0.00
  -11    5    1      3.51      0.00
  -10    5    1     -1.13      0.00
   -9    5    1     -1.09      0.00
   -8    5    1     -1.44      0.00
   -7    5    1     -2.03      0.00
   -6    5    1     -1.15      0.00
   -5    5    1      2.16      0.00
   -4    5    1     -2.96      0.00
   -3    5    1     -4.58      0.00
   -2    5    1     12.39      0.00
   -1    5    1      2.73      0.00
    0    5    1      1.28      0.00
    1    5    1      8.73      0.00
    2    5    1      7.19      0.00
    3    5    1     -8.42      0.00
    4    5    1      1.93      0.00
    5    5    1     -1.37      0.00
    6    5    1     -1.19      0.00
    7    5    1     -0.40      0.00
    8    5    1     -1.88      0.00
    9    5    1      0.34      0.00
   10    5    1      2.01      0.00
   11    5    1      1.18      0.00
   12    5    1      0.79      0.00
   13    5    1     -1.92      0.00
   14    5    1      0.05      0.00
   15    5    1     -1.46      0.00
   16    5    1      0.40      0.00
   17    5    1     -0.08      0.00
  -17    6    1     -0.48      0.00
  -16    6    1      1.05      0.00
  -15    6    1     -0.16      0.00
  -14    6    1     -0.91      0.00
  -13    6    1      0.85      0.00
  -12    6    1      1.15      0.00
  -11    6    1     -1.73      0.00
  -10    6    1      0.43      0.00
   -9    6    1     -2.04      0.00
   -8    6    1     -2.60      0.00
   -7    6    1      1.30      0.00
   -6    6    1     -2.11      0.00
   -5    6    1      1.17      0.00
   -4    6    1     -2.32      0.00
   -3    6    1      2.18      0.00
   -2    6    1     -5.09      0.00
   -1    6    1      5.79      0.00
    0    6    1      6.32      0.00
    1    6    1     -4.59      0.00
    2    6    1     -1.63      0.00
    3    6    1     -1.82      0.00
    4    6    1      0.64      0.00
    5    6    1     -1.54      0.00
    6    6    1      1.32      0.00
    7    6    1     -0.92      0.00
    8    6    1     -1.51      0.00
    9    6    1      1.93      0.00
   10    6    1     -1.09      0.00
   11    6    1      0.82      0.00
   12    6    1     -0.31      0.00
   13    6    1     -0.26      0.00
   14    6    1      0.07      0.00
   15    6    1      0.98      0.00
   16    6    1      0.12      0.00
  -17    7    1     -0.21      0.00
  -16    7    1      0.75      0.00
  -15    7    1      0.87      0.00
  -14    7    1     -0.11      0.00
  -13    7    1     -1.45      0.00
  -12    7    1     -0.26      0.00
  -11    7    1      1.30      0.00
  -10    7    1     -1.92      0.00
   -9    7    1      1.37      0.00
   -8    7    1      0.27      0.00
   -7    7    1     -0.44      0.00
   -6    7    1      2.49      0.00
   -5    7    1     -1.53      0.00
   -4    7    1      0.04      0.00
   -3    7    1     -1.38      0.00
   -2    7    1      0.81      0.00
   -1    7    1      1.34      0.00
    0    7    1      2.46      0.00
    1    7    1      0.96      0.00
    2    7    1     -2.04      0.00
    3    7    1     -0.75      0.00
    4    7    1     -1.61      0.00
    5    7    1      2.16      0.00
    6    7    1     -1.03      0.00
    7    7    1     -0.67      0.00
    8    7    1      0.75      0.00
    9    7    1     -0.97      0.00
   10    7    1      0.83      0.00
   11    7    1      1.31      0.00
   12    7    1      0.62      0.00
   13    7    1      0.62      0.00
   14    7    1     -0.24      0.00
   15    7    1      1.59      0.00
   16    7    1     -0.21      0.00
  -15    8    1      0.60      0.00
  -14    8    1     -0.86      0.00
  -13    8    1      3.15      0.00
  -12    8    1     -1.36      0.00
  -11    8    1     -0.56      0.00
  -10    8    1      1.31      0.00
   -9    8    1     -5.72      0.00
   -8    8    1      0.57      0.00
   -7    8    1     -3.43      0.00
   -6    8    1      0.32      0.00
   -5    8    1      1.55      0.00
   -4    8    1     -0.20      0.00
   -3    8    1     -0.75      0.00
   -2    8    1      2.74      0.00
   -1    8    1     -2.31      0.00
    0    8    1     -0.99      0.00
    1    8    1      1.58      0.00
    2    8    1     -0.11      0.00
    3    8    1      1.81      0.00
    4    8    1     -1.42      0.00
    5    8    1      0.39      0.00
    6    8    1     -0.83      0.00
    7    8    1      0.37      0.00
    8    8    1     -0.60      0.00
    9    8    1     -0.14      0.00
   10    8    1      0.93      0.00
   11    8    1      0.60      0.00
   12    8    1     -0.24      0.00
   13    8    1      0.86      0.00
   14    8    1     -0.35      0.00
  -14    9    1      1.81      0.00
  -13    9    1     -4.93      0.00
  -12    9    1      2.40      0.00
  -11    9    1     -1.38      0.00
  -10    9    1      0.12      0.00
   -9    9    1      0.96      0.00
   -8    9    1     -1.15      0.00
   -7    9    1      0.95      0.00
   -6    9    1     -2.80      0.00
   -5    9    1      0.93      0.00
   -4    9    1     -0.57      0.00
   -3    9    1      0.76      0.00
   -2    9    1     -1.20      0.00
   -1    9    1      0.02      0.00
    0    9    1      0.28      0.00
    1    9    1     -2.00      0.00
    2    9    1      0.47      0.00
    3    9    1     -0.13      0.00
    4    9    1      0.75      0.00
    5    9    1      0.37      0.00
    6    9    1     -0.27      0.00
    7    9    1     -1.10      0.00
    8    9    1     -0.26      0.00
    9    9    1      0.63      0.00
   10    9    1      0.68      0.00
   11    9    1      0.92      0.00
   12    9    1     -0.84      0.00
   13    9    1      1.12      0.00
  -12   10    1      0.62      0.00
  -11   10    1     -0.33      0.00
  -10   10    1      0.59      0.00
   -9   10    1     -1.25      0.00
   -8   10    1     -0.57      0.00
   -7   10    1     -0.39      0.00
   -6   10    1      0.52      0.00
   -5   10    1     -0.11      0.00
   -4   10    1     -0.77      0.00
   -3   10    1     -0.78      0.00
   -2   10    1      0.10      0.00
   -1   10    1     -2.61      0.00
    0   10    1      0.10      0.00
    1   10    1      0.36      0.00
    2   10    1     -0.20      0.00
    3   10    1      0.44      0.00
    4   10    1     -0.36      0.00
    5   10    1      0.30      0.00
    6   10    1     -0.41      0.00
    7   10    1      0.42      0.00
    8   10    1     -0.87      0.00
    9   10    1      0.20      0.00
   10   10    1     -0.08      0.00
   11   10    1     -0.08      0.00
  -10   11    1      0.32      0.00
   -9   11    1     -1.30      0.00
   -8   11    1      0.14      0.00
   -7   11    1     -0.98      0.00
   -6   11    1     -0.27      0.00
   -5   11    1     -2.77      0.00
   -4   11    1      1.29      0.00
   -3   11    1     -0.54      0.00
   -2   11    1     -0.63      0.00
   -1   11    1      0.94      0.00
    0   11    1     -1.04      0.00
    1   11    1     -0.90      0.00
    2   11    1      0.09      0.00
    3   11    1      1.14      0.00
    4   11    1     -0.84      0.00
    5   11    1     -0.48      0.00
    6   11    1     -0.41      0.00
    7   11    1      0.06      0.00
    8   11    1     -1.04      0.00
    9   11    1      0.51      0.00
   -7   12    1      0.21      0.00
   -6   12    1     -0.04      0.00
   -5   12    1      2.47      0.00
   -4   12    1     -1.58      0.00
   -3   12    1      0.72      0.00
   -2   12    1     -0.43      0.00
   -1   12    1     -0.99      0.00
    0   12    1     -0.92      0.00
    1   12    1      0.06      0.00
    2   12    1      0.27      0.00
    3   12    1     -1.56      0.00
    4   12    1      1.13      0.00
    5   12    1      0.31      0.00
    6   12    1     -0.06      0.00
  -15    0    2      3.55      0.00
  -14    0    2      0.13      0.00
  -13    0    2     -2.22      0.00
  -12    0    2      9.22      0.00
  -11    0    2     -2.31      0.00
  -10    0    2     -5.21      0.00
   -8    0    2      0.48      0.00
   -7    0    2      1.04      0.00
   -6    0    2     -8.39      0.00
   -5    0    2     -8.96      0.00
   -4    0    2      9.56      0.00
   -3    0    2    -38.28      0.00
   -2    0    2    103.36      0.00
   -1    0    2    -52.26      0.00
    0    0    2    104.32      0.00
    1    0    2    -46.18      0.00
    2    0    2      3.40      0.00
    3    0    2    -13.44      0.00
    4    0    2     -6.36      0.00
    5    0    2      1.57      0.00
    6    0    2     -3.03      0.00
    9    0    2      0.65      0.00
   10    0    2      0.99      0.00
   11    0    2      0.33      0.00
   12    0    2      2.04      0.00
   13    0    2      1.47      0.00
  -17    1    2     -1.29      0.00
  -16    1    2     -0.20      0.00
  -15    1    2     -0.52      0.00
  -14    1    2      3.85      0.00
  -13    1    2      1.48      0.00
  -12    1    2     -0.78      0.00
  -11    1    2      1.10      0.00
  -10    1    2     -1.05      0.00
   -9    1    2      4.54      0.00
   -8    1    2     -1.80      0.00
   -7    1    2     -4.71      0.00
   -6    1    2     10.69      0.00
   -5    1    2    -14.36      0.00
   -4    1    2     14.77      0.00
   -3    1    2    -30.37      0.00
   -2    1    2     53.43      0.00
   -1    1    2    -29.27      0.00
    0    1    2     58.63      0.00
    1    1    2    -28.33      0.00
    2    1    2     19.40      0.00
    3    1    2    -12.33      0.00
    4    1    2     -1.25      0.00
    5    1    2     -2.80      0.00
    6    1    2     -1.83      0.00
    7    1    2      4.19      0.00
    8    1    2     -3.01      0.00
    9    1    2      1.40      0.00
   10    1    2      0.73      0.00
   11    1    2      1.28      0.00
   12    1    2     -0.46      0.00
   13    1    2     -0.84      0.00
   14    1    2     -0.84      0.00
   15    1    2     -1.63      0.00
  -18    2    2     -1.55      0.00
  -17    2    2     -1.82      0.00
  -16    2    2      0.36      0.00
  -15    2    2      0.30      0.00
  -14    2    2     -0.14      0.00
  -13    2    2      2.72      0.00
  -12    2    2      0.31      0.00
  -11    2    2     -1.38      0.00
  -10    2    2      1.95      0.00
   -9    2    2     -1.08      0.00
   -8    2    2     -2.38      0.00
   -7    2    2     10.93      0.00
   -6    2    2      0.13      0.00
   -5    2    2     -8.82      0.00
   -4    2    2     -1.61      0.00
   -3    2    2      7.82      0.00
   -2    2    2    -33.10      0.00
   -1    2    2     23.42      0.00
    0    2    2    -34.04      0.00
    1    2    2     10.17      0.00
    2    2    2     -5.49      0.00
    3    2    2    -11.12      0.00
    4    2    2      2.97      0.00
    5    2    2      2.49      0.00
    6    2    2     -0.04      0.00
    7    2    2     -1.21      0.00
    8    2    2     -1.51      0.00
    9    2    2     -0.30      0.00
   10    2    2     -0.10      0.00
   11    2    2      0.94      0.00
   12    2    2      0.03      0.00
   13    2    2      0.44      0.00
   14    2    2     -1.89      0.00
   15    2    2     -0.93      0.00
   16    2    2     -0.74      0.00
  -19    3    2      0.70      0.00
  -18    3    2      0.02      0.00
  -17    3    2     -2.00      0.00
  -16    3    2     -0.20      0.00
  -15    3    2      0.46      0.00
  -14    3    2     -0.94      0.00
  -13    3    2      2.07      0.00
  -12    3    2      1.04      0.00
  -11    3    2     -1.11      0.00
  -10    3    2      1.25      0.00
   -9    3    2     -0.53      0.00
   -8    3    2      3.03      0.00
   -7    3    2     -1.26      0.00
   -6    3    2     -4.94      0.00
   -5    3    2      7.39      0.00
   -4    3    2    -10.67      0.00
   -3    3    2      0.30      0.00
   -2    3    2      7.02      0.00
   -1    3    2     12.90      0.00
    0    3    2      3.78      0.00
    1    3    2      4.75      0.00
    2    3    2    -16.36      0.00
    3    3    2      3.60      0.00
    4    3    2     -0.22      0.00
    5    3    2     -1.16      0.00
    6    3    2      2.69      0.00
    7    3    2     -0.05      0.00
    8    3    2      0.98      0.00
    9    3    2     -2.02      0.00
   10    3    2      0.41      0.00
   11    3    2      0.23      0.00
   12    3    2      0.96      0.00
   13    3    2     -1.85      0.00
   14    3    2      0.84      0.00
   15    3    2     -1.81      0.00
   16    3    2      1.71      0.00
   17    3    2      0.60      0.00
  -19    4    2      0.20      0.00
  -18    4    2      0.43      0.00
  -17    4    2      0.61      0.00
  -16    4    2      0.06      0.00
  -15    4    2     -0.03      0.00
  -14    4    2     -1.62      0.00
  -13    4    2     -0.71      0.00
  -12    4    2      0.70      0.00
  -11    4    2     -0.76      0.00
  -10    4    2     -2.56      0.00
   -9    4    2      1.24      0.00
   -8    4    2      2.96      0.00
   -7    4    2     -5.72      0.00
   -6    4    2     18.50      0.00
   -5    4    2    -13.81      0.00
   -4    4    2      0.08      0.00
   -3    4    2     -2.21      0.00
   -2    4    2      5.19      0.00
   -1    4    2     -1.68      0.00
    0    4    2      8.60      0.00
    1    4    2     -4.22      0.00
    2    4    2     -0.93      0.00
    3    4    2     -4.57      0.00
    4    4    2     -2.73      0.00
    5    4    2      1.89      0.00
    6    4    2     -0.07      0.00
    7    4    2     -0.12      0.00
    8    4    2     -2.25      0.00
    9    4    2     -1.09      0.00
   10    4    2      1.28      0.00
   11    4    2      0.76      0.00
   12    4    2     -3.17      0.00
   13    4    2     -0.38      0.00
   14    4    2      0.68      0.00
   15    4    2     -0.38      0.00
   16    4    2      0.45      0.00
   17    4    2     -0.35      0.00
  -19    5    2     -0.01      0.00
  -18    5    2      0.65      0.00
  -17    5    2     -0.71      0.00
  -16    5    2      1.30      0.00
  -15    5    2     -0.77      0.00
  -14    5    2      3.88      0.00
  -13    5    2     -0.75      0.00
  -12    5    2      0.08      0.00
  -11    5    2      1.94      0.00
  -10    5    2      0.50      0.00
   -9    5    2      0.35      0.00
   -8    5    2      3.98      0.00
   -7    5    2      5.44      0.00
   -6    5    2     -2.37      0.00
   -5    5    2      0.98      0.00
   -4    5    2     -0.22      0.00
   -3    5    2     -6.46      0.00
   -2    5    2      0.74      0.00
   -1    5    2      5.85      0.00
    0    5    2      0.69      0.00
    1    5    2     -5.43      0.00
    2    5    2     -7.53      0.00
    3    5    2     -1.70      0.00
    4    5    2     -1.91      0.00
    5    5    2      2.73      0.00
    6    5    2     -0.30      0.00
    7    5    2      0.17      0.00
    8    5    2      1.33      0.00
    9    5    2      3.17      0.00
   10    5    2     -2.99      0.00
   11    5    2      0.81      0.00
   12    5    2      2.58      0.00
   13    5    2     -1.35      0.00
   14    5    2     -0.14      0.00
   15    5    2     -0.68      0.00
   16    5    2      0.83      0.00
   17    5    2     -0.25      0.00
  -18    6    2     -0.86      0.00
  -17    6    2      0.35      0.00
  -16    6    2     -0.37      0.00
  -15    6    2     -0.37      0.00
  -14    6    2     -1.39      0.00
  -13    6    2     -0.18      0.00
  -12    6    2      0.93      0.00
  -11    6    2     -2.79      0.00
  -10    6    2      0.94      0.00
   -9    6    2     -0.75      0.00
   -8    6    2     -1.22      0.00
   -7    6    2     -1.41      0.00
   -6    6    2      2.00      0.00
   -5    6    2      0.72      0.00
   -4    6    2     -3.90      0.00
   -3    6    2      1.18      0.00
   -2    6    2      3.92      0.00
   -1    6    2     -4.36      0.00
    0    6    2      2.85      0.00
    1    6    2      2.68      0.00
    2    6    2     -1.35      0.00
    3    6    2     -0.79      0.00
    4    6    2      0.64      0.00
    5    6    2     -2.64      0.00
    6    6    2      0.22      0.00
    7    6    2      0.86      0.00
    8    6    2     -1.06      0.00
    9    6    2     -1.32      0.00
   10    6    2      5.75      0.00
   11    6    2     -0.30      0.00
   12    6    2     -0.72      0.00
   13    6    2     -0.52      0.00
   14    6    2     -0.42      0.00
   15    6    2     -0.30      0.00
   16    6    2     -0.91      0.00
  -17    7    2     -0.84      0.00
  -16    7    2      0.04      0.00
  -15    7    2      0.70      0.00
  -14    7    2     -0.50      0.00
  -13    7    2      0.51      0.00
  -12    7    2      0.52      0.00
  -11    7    2      1.21      0.00
  -10    7    2     -0.30      0.00
   -9    7    2     -1.45      0.00
   -8    7    2     -1.30      0.00
   -7    7    2      0.91      0.00
   -6    7    2     -0.17      0.00
   -5    7    2      0.53      0.00
   -4    7    2      1.17      0.00
   -3    7    2     -0.14      0.00
   -2    7    2     -0.50      0.00
   -1    7    2      1.46      0.00
    0    7    2      0.70      0.00
    1    7    2     -0.28      0.00
    2    7    2      0.53      0.00
    3    7    2      1.01      0.00
    4    7    2     -0.55      0.00
    5    7    2      0.54      0.00
    6    7    2     -1.04      0.00
    7    7    2     -0.53      0.00
    8    7    2      1.97      0.00
    9    7    2      2.51      0.00
   10    7    2     -0.66      0.00
   11    7    2      0.63      0.00
   12    7    2     -0.77      0.00
   13    7    2      0.36      0.00
   14    7    2     -1.95      0.00
   15    7    2      0.38      0.00
  -16    8    2      0.96      0.00
  -15    8    2     -1.48      0.00
  -14    8    2     -0.38      0.00
  -13    8    2     -0.78      0.00
  -12    8    2     -0.44      0.00
  -11    8    2      1.35      0.00
  -10    8    2     -1.13      0.00
   -9    8    2      0.52      0.00
   -8    8    2      0.88      0.00
   -7    8    2     -1.03      0.00
   -6    8    2      0.35      0.00
   -5    8    2      0.90      0.00
   -4    8    2     -3.28      0.00
   -3    8    2      1.24      0.00
   -2    8    2     -1.89      0.00
   -1    8    2      1.44      0.00
    0    8    2     -1.02      0.00
    1    8    2      0.17      0.00
    2    8    2     -0.87      0.00
    3    8    2     -0.36      0.00
    4    8    2      0.97      0.00
    5    8    2     -0.78      0.00
    6    8    2     -0.26      0.00
    7    8    2     -0.64      0.00
    8    8    2     -1.73      0.00
    9    8    2      1.59      0.00
   10    8    2      1.14      0.00
   11    8    2      0.86      0.00
   12    8    2     -0.33      0.00
   13    8    2     -0.70      0.00
   14    8    2      1.27      0.00
  -15    9    2      1.47      0.00
  -14    9    2     -1.25      0.00
  -13    9    2      2.68      0.00
  -12    9    2      0.17      0.00
  -11    9    2     -0.95      0.00
  -10    9    2     -0.96      0.00
   -9    9    2      0.03      0.00
   -8    9    2     -1.77      0.00
   -7    9    2      1.43      0.00
   -6    9    2      0.43      0.00
   -5    9    2     -0.71      0.00
   -4    9    2      1.39      0.00
   -3    9    2     -0.32      0.00
   -2    9    2      0.23      0.00
   -1    9    2     -1.46      0.00
    0    9    2      2.52      0.00
    1    9    2     -1.15      0.00
    2    9    2      2.23      0.00
    3    9    2      0.39      0.00
    4    9    2     -1.14      0.00
    5    9    2      0.60      0.00
    6    9    2     -0.66      0.00
    7    9    2      0.54      0.00
    8    9    2      0.56      0.00
    9    9    2     -0.25      0.00
   10    9    2      0.05      0.00
   11    9    2      1.50      0.00
   12    9    2     -0.44      0.00
   13    9    2      0.21      0.00
  -13   10    2     -1.63      0.00
  -12   10    2     -0.55      0.00
  -11   10    2      0.43      0.00
  -10   10    2     -0.71      0.00
   -9   10    2     -0.04      0.00
   -8   10    2     -1.12      0.00
   -7   10    2      0.72      0.00
   -6   10    2      0.13      0.00
   -5   10    2      0.72      0.00
   -4   10    2     -0.17      0.00
   -3   10    2      0.67      0.00
   -2   10    2     -0.05      0.00
   -1   10    2      0.86      0.00
    0   10    2     -0.49      0.00
    1   10    2      0.05      0.00
    2   10    2      0.46      0.00
    3   10    2      0.34      0.00
    4   10    2      0.32      0.00
    5   10    2      0.92      0.00
    6   10    2     -1.19      0.00
    7   10    2      0.56      0.00
    8   10    2     -0.13      0.00
    9   10    2      1.04      0.00
   10   10    2      0.45      0.00
   11   10    2     -0.08      0.00
  -11   11    2     -0.91      0.00
  -10   11    2     -0.53      0.00
   -9   11    2      0.14      0.00
   -8   11    2      0.71      0.00
   -7   11    2      0.07      0.00
   -6   11    2     -0.23      0.00
   -5   11    2      0.97      0.00
   -4   11    2     -1.45      0.00
   -3   11    2      0.38      0.00
   -2   11    2     -0.93      0.00
   -1   11    2     -0.34      0.00
    0   11    2      0.04      0.00
    1   11    2      0.16      0.00
    2   11    2      0.35      0.00
    3   11    2      0.20      0.00
    4   11    2     -0.24      0.00
    5   11    2      1.20      0.00
    6   11    2      0.01      0.00
    7   11    2     -0.51      0.00
    8   11    2      0.05      0.00
    9   11    2     -0.41      0.00
   -8   12    2     -0.26      0.00
   -7   12    2      0.38      0.00
   -6   12    2     -0.54      0.00
   -5   12    2     -1.14      0.00
   -4   12    2      0.59      0.00
   -3   12    2      0.09      0.00
   -2   12    2      0.19      0.00
   -1   12    2     -0.14      0.00
    0   12    2      0.83      0.00
    1   12    2      0.12      0.00
    2   12    2      0.77      0.00
    3   12    2      0.81      0.00
    4   12    2     -0.55      0.00
    5   12    2      0.57      0.00
    6   12    2     -0.33      0.00
  -16    0    3      0.25      0.00
  -15    0    3      2.30      0.00
  -14    0    3     -1.96      0.00
  -13    0    3      3.32      0.00
  -12    0    3     -4.66      0.00
  -11    0    3      5.74      0.00
  -10    0    3      5.46      0.00
   -9    0    3     -1.73      0.00
   -8    0    3     12.23      0.00
   -7    0    3     -3.82      0.00
   -6    0    3     22.22      0.00
   -5    0    3    -18.60      0.00
   -4    0    3     -8.02      0.00
   -3    0    3      6.31      0.00
   -2    0    3    -20.93      0.00
   -1    0    3    -26.97      0.00
    0    0    3     23.52      0.00
    1    0    3     -6.49      0.00
    2    0    3    -16.76      0.00
    3    0    3     16.89      0.00
    4    0    3     -6.85      0.00
    5    0    3     10.71      0.00
    6    0    3      1.24      0.00
    7    0    3      1.49      0.00
    8    0    3      0.97      0.00
    9    0    3     -1.59      0.00
   10    0    3      0.73      0.00
   11    0    3     -4.18      0.00
   12    0    3      1.35      0.00
  -17    1    3     -2.34      0.00
  -16    1    3     -0.03      0.00
  -15    1    3     -1.49      0.00
  -14    1    3      1.29      0.00
  -13    1    3      0.37      0.00
  -12    1    3      0.92      0.00
  -11    1    3     -3.10      0.00
  -10    1    3     -0.05      0.00
   -9    1    3     -0.05      0.00
   -8    1    3      5.50      0.00
   -7    1    3     -1.66      0.00
   -6    1    3      2.94      0.00
   -5    1    3    -13.42      0.00
   -4    1    3     15.58      0.00
   -3    1    3    -45.15      0.00
   -2    1    3      9.37      0.00
   -1    1    3     -4.59      0.00
    0    1    3    -38.61      0.00
    1    1    3     -2.27      0.00
    2    1    3     -6.28      0.00
    3    1    3      1.49      0.00
    4    1    3     -1.12      0.00
    5    1    3      8.24      0.00
    6    1    3      0.50      0.00
    7    1    3      1.32      0.00
    8    1    3     -2.67      0.00
    9    1    3     -0.87      0.00
   10    1    3      0.82      0.00
   11    1    3      0.42      0.00
   12    1    3      0.77      0.00
   13    1    3     -0.60      0.00
   14    1    3     -1.59      0.00
  -19    2    3      1.28      0.00
  -18    2    3      0.24      0.00
  -17    2    3     -0.84      0.00
  -16    2    3      1.22      0.00
  -15    2    3     -0.01      0.00
  -14    2    3     -0.16      0.00
  -13    2    3      1.42      0.00
  -12    2    3     -0.59      0.00
  -11    2    3     -1.00      0.00
  -10    2    3      2.03      0.00
   -9    2    3     -1.23      0.00
   -8    2    3      1.51      0.00
   -7    2    3      0.28      0.00
   -6    2    3      0.36      0.00
   -5    2    3     -8.55      0.00
   -4    2    3    -13.28      0.00
   -3    2    3     18.27      0.00
   -2    2    3      1.19      0.00
   -1    2    3      8.02      0.00
    0    2    3     20.12      0.00
    1    2    3    -12.20      0.00
    2    2    3    -11.31      0.00
    3    2    3     -3.95      0.00
    4    2    3      0.05      0.00
    5    2    3      1.98      0.00
    6    2    3     -0.61      0.00
    7    2    3      0.41      0.00
    8    2    3      0.41      0.00
    9    2    3     -0.75      0.00
   10    2    3      0.77      0.00
   11    2    3     -0.62      0.00
   12    2    3     -0.80      0.00
   13    2    3     -0.33      0.00
   14    2    3     -0.22      0.00
   15    2    3      0.95      0.00
   16    2    3     -0.96      0.00
  -20    3    3      0.54      0.00
  -19    3    3     -0.95      0.00
  -18    3    3     -0.10      0.00
  -17    3    3      0.37      0.00
  -16    3    3     -0.72      0.00
  -15    3    3     -0.57      0.00
  -14    3    3      2.77      0.00
  -13    3    3     -0.86      0.00
  -12    3    3     -0.16      0.00
  -11    3    3      1.42      0.00
  -10    3    3      0.44      0.00
   -9    3    3     -1.91      0.00
   -8    3    3      3.90      0.00
   -7    3    3      4.04      0.00
   -6    3    3      3.44      0.00
   -5    3    3      0.74      0.00
   -4    3    3     -1.21      0.00
   -3    3    3     -9.71      0.00
   -2    3    3      6.18      0.00
   -1    3    3      4.96      0.00
    0    3    3    -11.52      0.00
    1    3    3     -1.08      0.00
    2    3    3      1.03      0.00
    3    3    3      1.16      0.00
    4    3    3     -0.05      0.00
    5    3    3      2.70      0.00
    6    3    3     -0.86      0.00
    7    3    3      2.11      0.00
    8    3    3      1.25      0.00
    9    3    3      1.43      0.00
   10    3    3     -0.79      0.00
   11    3    3      2.04      0.00
   12    3    3     -0.55      0.00
   13    3    3     -1.22      0.00
   14    3    3     -0.08      0.00
   15    3    3     -1.32      0.00
   16    3    3      1.44      0.00
   17    3    3     -1.17      0.00
  -20    4    3      1.78      0.00
  -19    4    3     -1.54      0.00
  -18    4    3      0.95      0.00
  -17    4    3     -3.29      0.00
  -16    4    3      1.44      0.00
  -15    4    3     -0.07      0.00
  -14    4    3     -0.09      0.00
  -13    4    3      2.22      0.00
  -12    4    3     -1.23      0.00
  -11    4    3      1.19      0.00
  -10    4    3     -1.24      0.00
   -9    4    3      0.16      0.00
   -8    4    3      0.86      0.00
   -7    4    3     -3.89      0.00
   -6    4    3     -3.01      0.00
   -5    4    3     -5.76      0.00
   -4    4    3     -0.16      0.00
   -3    4    3      0.77      0.00
   -2    4    3     -4.82      0.00
   -1    4    3     -3.06      0.00
    0    4    3      4.71      0.00
    1    4    3     -0.26      0.00
    2    4    3     -6.94      0.00
    3    4    3     -0.46      0.00
    4    4    3     -3.02      0.00
    5    4    3      0.94      0.00
    6    4    3      1.66      0.00
    7    4    3     -0.55      0.00
    8    4    3     -0.10      0.00
    9    4    3      0.35      0.00
   10    4    3      4.06      0.00
   11    4    3     -2.46      0.00
   12    4    3      0.53      0.00
   13    4    3      0.93      0.00
   14    4    3     -3.13      0.00
   15    4    3      0.59      0.00
   16    4    3      0.34      0.00
   17    4    3      0.67      0.00
  -19    5    3      0.03      0.00
  -18    5    3     -0.68      0.00
  -17    5    3     -0.47      0.00
  -16    5    3      0.31      0.00
  -15    5    3     -1.59      0.00
  -14    5    3     -0.94      0.00
  -13    5    3      0.56      0.00
  -12    5    3      0.25      0.00
  -11    5    3      1.14      0.00
  -10    5    3     -3.82      0.00
   -9    5    3      0.41      0.00
   -8    5    3     -8.91      0.00
   -7    5    3      1.95      0.00
   -6    5    3      1.99      0.00
   -5    5    3     -1.12      0.00
   -4    5    3     -0.54      0.00
   -3    5    3     -1.14      0.00
   -2    5    3      2.43      0.00
   -1    5    3      3.25      0.00
    0    5    3     -2.10      0.00
    1    5    3      0.53      0.00
    2    5    3      0.77      0.00
    3    5    3      3.52      0.00
    4    5    3      1.19      0.00
    5    5    3     -0.90      0.00
    6    5    3      0.35      0.00
    7    5    3     -0.80      0.00
    8    5    3      2.04      0.00
    9    5    3      1.93      0.00
   10    5    3     -0.31      0.00
   11    5    3      0.79      0.00
   12    5    3     -0.45      0.00
   13    5    3     -0.77      0.00
   14    5    3      0.52      0.00
   15    5    3      1.81      0.00
   16    5    3     -0.40      0.00
  -18    6    3      2.01      0.00
  -17    6    3      0.01      0.00
  -16    6    3      0.09      0.00
  -15    6    3     -0.42      0.00
  -14    6    3     -0.21      0.00
  -13    6    3      0.84      0.00
  -12    6    3     -0.32      0.00
  -11    6    3      0.80      0.00
  -10    6    3      0.46      0.00
   -9    6    3     -0.03      0.00
   -8    6    3      2.64      0.00
   -7    6    3      2.97      0.00
   -6    6    3      0.39      0.00
   -5    6    3     -1.48      0.00
   -4    6    3      1.77      0.00
   -3    6    3     -1.53      0.00
   -2    6    3     -0.11      0.00
   -1    6    3      1.48      0.00
    0    6    3     -0.52      0.00
    1    6    3      0.12      0.00
    2    6    3     -2.28      0.00
    3    6    3      0.70      0.00
    4    6    3      0.00      0.00
    5    6    3      1.30      0.00
    6    6    3      0.98      0.00
    7    6    3     -0.23      0.00
    8    6    3     -0.11      0.00
    9    6    3     -0.10      0.00
   10    6    3     -0.30      0.00
   11    6    3      0.17      0.00
   12    6    3     -0.58      0.00
   13    6    3     -0.45      0.00
   14    6    3      1.50      0.00
   15    6    3      0.06      0.00
  -17    7    3     -0.30      0.00
  -16    7    3      0.90      0.00
  -15    7    3     -1.81      0.00
  -14    7    3      1.49      0.00
  -13    7    3     -0.83      0.00
  -12    7    3      0.89      0.00
  -11    7    3     -1.45      0.00
  -10    7    3     -1.08      0.00
   -9    7    3     -0.37      0.00
   -8    7    3     -0.62      0.00
   -7    7    3      0.24      0.00
   -6    7    3     -0.90      0.00
   -5    7    3      1.16      0.00
   -4    7    3     -3.06      0.00
   -3    7    3     -0.74      0.00
   -2    7    3     -1.16      0.00
   -1    7    3     -0.48      0.00
    0    7    3     -0.56      0.00
    1    7    3     -2.52      0.00
    2    7    3      1.66      0.00
    3    7    3     -1.85      0.00
    4    7    3      1.14      0.00
    5    7    3      0.79      0.00
    6    7    3     -0.37      0.00
    7    7    3     -0.26      0.00
    8    7    3      0.35      0.00
    9    7    3      0.68      0.00
   10    7    3      1.59      0.00
   11    7    3     -0.08      0.00
   12    7    3     -0.31      0.00
   13    7    3      1.23      0.00
   14    7    3     -0.99      0.00
  -16    8    3      0.13      0.00
  -14    8    3     -1.54      0.00
  -13    8    3     -0.40      0.00
  -12    8    3      0.25      0.00
  -11    8    3     -1.17      0.00
  -10    8    3      2.14      0.00
   -9    8    3     -1.74      0.00
   -8    8    3      1.06      0.00
   -7    8    3      0.49      0.00
   -6    8    3      1.02      0.00
   -5    8    3      1.04      0.00
   -4    8    3     -0.30      0.00
   -3    8    3      1.00      0.00
   -2    8    3      0.77      0.00
   -1    8    3      0.37      0.00
    0    8    3      0.25      0.00
    1    8    3      1.27      0.00
    2    8    3     -0.72      0.00
    3    8    3      1.97      0.00
    4    8    3      0.73      0.00
    5    8    3     -0.81      0.00
    6    8    3      1.79      0.00
    7    8    3      1.80      0.00
    8    8    3     -0.23      0.00
    9    8    3      0.94      0.00
   10    8    3      0.00      0.00
   11    8    3      0.41      0.00
   12    8    3     -0.89      0.00
   13    8    3     -0.17      0.00
  -15    9    3     -2.51      0.00
  -14    9    3      2.48      0.00
  -13    9    3     -2.55      0.00
  -12    9    3     -0.19      0.00
  -11    9    3      1.08      0.00
  -10    9    3     -0.35      0.00
   -9    9    3     -1.76      0.00
   -8    9    3      1.52      0.00
   -7    9    3      0.47      0.00
   -6    9    3     -0.53      0.00
   -5    9    3     -0.27      0.00
   -4    9    3      0.04      0.00
   -3    9    3     -1.25      0.00
   -2    9    3     -0.71      0.00
   -1    9    3     -0.70      0.00
    0    9    3     -0.48      0.00
    1    9    3      0.82      0.00
    2    9    3      0.22      0.00
    3    9    3      0.03      0.00
    4    9    3      0.49      0.00
    5    9    3      2.97      0.00
    6    9    3     -2.11      0.00
    7    9    3     -0.29      0.00
    8    9    3      2.91      0.00
    9    9    3     -0.91      0.00
   10    9    3      1.00      0.00
   11    9    3     -0.28      0.00
   12    9    3     -0.44      0.00
  -13   10    3     -0.67      0.00
  -12   10    3      2.83      0.00
  -11   10    3     -3.20      0.00
  -10   10    3      1.48      0.00
   -9   10    3      1.00      0.00
   -8   10    3     -0.16      0.00
   -7   10    3     -0.77      0.00
   -6   10    3     -0.15      0.00
   -5   10    3     -0.86      0.00
   -4   10    3     -0.45      0.00
   -3   10    3     -0.94      0.00
   -2   10    3      0.47      0.00
   -1   10    3     -0.05      0.00
    0   10    3     -0.75      0.00
    1   10    3      0.47      0.00
    2   10    3     -0.52      0.00
    3   10    3      2.63      0.00
    4   10    3     -0.39      0.00
    5   10    3     -0.35      0.00
    6   10    3      1.37      0.00
    7   10    3      0.26      0.00
    8   10    3     -2.88      0.00
    9   10    3      2.06      0.00
   10   10    3      0.47      0.00
  -11   11    3      0.27      0.00
  -10   11    3      0.81      0.00
   -9   11    3     -0.46      0.00
   -8   11    3      0.10      0.00
   -7   11    3      1.20      0.00
   -6   11    3      0.04      0.00
   -5   11    3     -0.11      0.00
   -4   11    3      0.77      0.00
   -3   11    3      0.87      0.00
   -2   11    3     -1.02      0.00
   -1   11    3     -0.63      0.00
    0   11    3      1.19      0.00
    1   11    3      0.50      0.00
    2   11    3      0.97      0.00
    3   11    3     -0.47      0.00
    4   11    3      1.42      0.00
    5   11    3     -0.08      0.00
    6   11    3      0.38      0.00
    7   11    3      0.66      0.00
    8   11    3      0.63      0.00
   -8   12    3      1.28      0.00
   -7   12    3     -0.73      0.00
   -6   12    3     -0.08      0.00
   -5   12    3      0.49      0.00
   -4   12    3     -1.22      0.00
   -3   12    3     -0.52      0.00
   -2   12    3      0.65      0.00
   -1   12    3      0.39      0.00
    0   12    3     -0.78      0.00
    1   12    3     -1.51      0.00
    2   12    3      1.61      0.00
    3   12    3     -0.89      0.00
    4   12    3      1.68      0.00
    5   12    3      0.14      0.00
  -16    0    4     -2.15      0.00
  -15    0    4     -1.57      0.00
  -14    0    4      5.86      0.00
  -13    0    4     -4.70      0.00
  -12    0    4     -1.34      0.00
  -11    0    4     -1.70      0.00
  -10    0    4    -10.15      0.00
   -9    0    4     -4.00      0.00
   -8    0    4      2.64      0.00
   -7    0    4     -4.48      0.00
   -6    0    4     -9.62      0.00
   -5    0    4      2.27      0.00
   -4    0    4    -14.36      0.00
   -3    0    4     10.15      0.00
   -2    0    4     -3.50      0.00
   -1    0    4     12.70      0.00
    0    0    4    -24.69      0.00
    1    0    4      2.51      0.00
    2    0    4     -8.06      0.00
    3    0    4     -2.03      0.00
    4    0    4      1.11      0.00
    5    0    4     -2.79      0.00
    7    0    4     -1.55      0.00
    8    0    4      0.33      0.00
    9    0    4     -1.11      0.00
   10    0    4      4.60      0.00
   11    0    4     -1.15      0.00
  -18    1    4     -0.94      0.00
  -17    1    4      1.10      0.00
  -16    1    4     -1.87      0.00
  -15    1    4      3.99      0.00
  -14    1    4     -3.52      0.00
  -13    1    4      0.72      0.00
  -12    1    4     -0.76      0.00
  -11    1    4     -1.95      0.00
  -10    1    4     -0.52      0.00
   -9    1    4      0.81      0.00
   -8    1    4     -4.08      0.00
   -7    1    4     -1.67      0.00
   -6    1    4      8.11      0.00
   -5    1    4    -10.44      0.00
   -4    1    4     10.50      0.00
   -3    1    4     -5.43      0.00
   -2    1    4     15.26      0.00
   -1    1    4     -4.28      0.00
    0    1    4     14.75      0.00
    1    1    4     -4.80      0.00
    2    1    4     -3.33      0.00
    3    1    4      0.22      0.00
    4    1    4     -5.23      0.00
    5    1    4     -1.19      0.00
    6    1    4     -0.39      0.00
    7    1    4     -0.90      0.00
    8    1    4     -0.42      0.00
    9    1    4      0.44      0.00
   10    1    4     -1.76      0.00
   11    1    4      0.92      0.00
   12    1    4      0.00      0.00
   13    1    4     -0.82      0.00
  -19    2    4     -0.91      0.00
  -18    2    4      1.22      0.00
  -17    2    4     -2.90      0.00
  -16    2    4      0.45      0.00
  -15    2    4      0.73      0.00
  -14    2    4     -0.39      0.00
  -13    2    4      0.09      0.00
  -12    2    4      1.33      0.00
  -11    2    4      0.55      0.00
  -10    2    4     -3.12      0.00
   -9    2    4     -0.44      0.00
   -8    2    4      5.62      0.00
   -7    2    4      1.29      0.00
   -6    2    4      1.06      0.00
   -5    2    4     -0.56      0.00
   -4    2    4     -1.69      0.00
   -3    2    4    -12.40      0.00
   -2    2    4     -2.02      0.00
   -1    2    4    -10.44      0.00
    0    2    4     -4.57      0.00
    1    2    4      2.17      0.00
    2    2    4      2.34      0.00
    3    2    4      0.80      0.00
    4    2    4      6.76      0.00
    5    2    4     -1.33      0.00
    6    2    4     -0.66      0.00
    7    2    4      0.76      0.00
    8    2    4     -0.35      0.00
    9    2    4      0.24      0.00
   10    2    4     -0.32      0.00
   11    2    4      1.18      0.00
   12    2    4     -2.13      0.00
   13    2    4     -0.55      0.00
   14    2    4      0.04      0.00
   15    2    4      0.13      0.00
  -20    3    4     -0.85      0.00
  -19    3    4      1.99      0.00
  -18    3    4     -1.69      0.00
  -17    3    4      0.53      0.00
  -16    3    4     -1.59      0.00
  -15    3    4      0.32      0.00
  -14    3    4     -1.34      0.00
  -13    3    4     -0.60      0.00
  -12    3    4      0.81      0.00
  -11    3    4     -4.41      0.00
  -10    3    4      0.08      0.00
   -9    3    4      2.75      0.00
   -8    3    4     -7.75      0.00
   -7    3    4      0.28      0.00
   -6    3    4     -1.63      0.00
   -5    3    4     -4.20      0.00
   -4    3    4     -5.98      0.00
   -3    3    4     -1.77      0.00
   -2    3    4    -14.53      0.00
   -1    3    4     -1.74      0.00
    0    3    4     -3.23      0.00
    1    3    4     -4.36      0.00
    2    3    4      0.87      0.00
    3    3    4     -5.20      0.00
    4    3    4     -0.10      0.00
    5    3    4      1.38      0.00
    6    3    4     -0.19      0.00
    7    3    4     -3.17      0.00
    8    3    4     -1.79      0.00
    9    3    4      0.03      0.00
   10    3    4     -0.43      0.00
   11    3    4     -0.37      0.00
   12    3    4     -0.61      0.00
   13    3    4      0.04      0.00
   14    3    4      0.50      0.00
   15    3    4      0.86      0.00
   16    3    4     -0.06      0.00
  -20    4    4      1.54      0.00
  -19    4    4     -1.23      0.00
  -18    4    4      4.25      0.00
  -17    4    4     -1.60      0.00
  -16    4    4      0.87      0.00
  -15    4    4      0.49      0.00
  -14    4    4      0.94      0.00
  -13    4    4      0.37      0.00
  -12    4    4      0.66      0.00
  -11    4    4      2.28      0.00
  -10    4    4      0.90      0.00
   -9    4    4     -6.27      0.00
   -8    4    4     15.74      0.00
   -7    4    4     -4.20      0.00
   -6    4    4     11.93      0.00
   -5    4    4     -4.19      0.00
   -4    4    4     -1.86      0.00
   -3    4    4     -1.14      0.00
   -2    4    4      3.68      0.00
   -1    4    4      0.44      0.00
    0    4    4     -6.25      0.00
    1    4    4     -5.95      0.00
    2    4    4      2.27      0.00
    3    4    4      3.86      0.00
    4    4    4      5.53      0.00
    5    4    4     -1.79      0.00
    6    4    4      0.99      0.00
    7    4    4      1.08      0.00
    8    4    4      0.93      0.00
    9    4    4     -0.63      0.00
   10    4    4     -1.18      0.00
   11    4    4     -0.23      0.00
   12    4    4      1.57      0.00
   13    4    4     -2.81      0.00
   14    4    4      3.28      0.00
   15    4    4     -0.57      0.00
   16    4    4      0.66      0.00
  -19    5    4      1.21      0.00
  -18    5    4     -0.16      0.00
  -17    5    4      0.87      0.00
  -16    5    4     -0.43      0.00
  -15    5    4     -1.68      0.00
  -14    5    4      0.22      0.00
  -13    5    4     -1.11      0.00
  -12    5    4     -0.22      0.00
  -11    5    4     -3.75      0.00
  -10    5    4      3.24      0.00
   -9    5    4      3.61      0.00
   -8    5    4      2.60      0.00
   -7    5    4      3.11      0.00
   -6    5    4     -1.16      0.00
   -5    5    4     -0.87      0.00
   -4    5    4     -1.88      0.00
   -3    5    4     -2.04      0.00
   -2    5    4     -6.16      0.00
   -1    5    4     -2.66      0.00
    0    5    4     -0.68      0.00
    1    5    4      2.07      0.00
    2    5    4     -3.56      0.00
    3    5    4     -2.12      0.00
    4    5    4     -0.06      0.00
    5    5    4      1.67      0.00
    6    5    4      2.02      0.00
    7    5    4     -2.52      0.00
    8    5    4     -3.06      0.00
    9    5    4      2.30      0.00
   10    5    4     -1.20      0.00
   11    5    4     -0.78      0.00
   12    5    4     -0.72      0.00
   13    5    4     -1.15      0.00
   14    5    4      0.61      0.00
   15    5    4     -0.59      0.00
  -19    6    4      1.25      0.00
  -18    6    4     -0.87      0.00
  -17    6    4     -1.51      0.00
  -16    6    4      0.71      0.00
  -15    6    4      1.14      0.00
  -14    6    4     -0.56      0.00
  -13    6    4     -0.20      0.00
  -12    6    4      1.38      0.00
  -11    6    4      1.66      0.00
  -10    6    4     -1.14      0.00
   -9    6    4     -0.96      0.00
   -8    6    4     -0.61      0.00
   -7    6    4     -0.30      0.00
   -6    6    4      2.14      0.00
   -5    6    4     -0.98      0.00
   -4    6    4     -3.57      0.00
   -3    6    4     -0.68      0.00
   -2    6    4     -1.34      0.00
   -1    6    4      0.47      0.00
    0    6    4     -3.50      0.00
    1    6    4     -1.47      0.00
    2    6    4      1.36      0.00
    3    6    4      1.41      0.00
    4    6    4      0.39      0.00
    5    6    4     -0.03      0.00
    6    6    4     -1.94      0.00
    7    6    4      3.34      0.00
    8    6    4      2.46      0.00
    9    6    4     -1.02      0.00
   10    6    4      0.40      0.00
   11    6    4      0.08      0.00
   12    6    4     -0.21      0.00
   13    6    4     -2.00      0.00
   14    6    4     -0.08      0.00
   15    6    4      0.50      0.00
  -18    7    4      1.40      0.00
  -17    7    4      1.27      0.00
  -16    7    4     -0.53      0.00
  -15    7    4     -1.28      0.00
  -14    7    4     -2.04      0.00
  -13    7    4      0.56      0.00
  -12    7    4     -0.58      0.00
  -11    7    4      1.31      0.00
  -10    7    4     -0.76      0.00
   -9    7    4      1.23      0.00
   -8    7    4      1.70      0.00
   -7    7    4      1.04      0.00
   -6    7    4     -0.03      0.00
   -5    7    4      0.70      0.00
   -4    7    4      1.31      0.00
   -3    7    4     -2.03      0.00
   -2    7    4      2.08      0.00
   -1    7    4     -2.12      0.00
    0    7    4      1.82      0.00
    1    7    4      1.16      0.00
    2    7    4     -0.37      0.00
    3    7    4     -0.25      0.00
    4    7    4      1.11      0.00
    5    7    4      0.99      0.00
    6    7    4     -0.07      0.00
    7    7    4      0.35      0.00
    8    7    4     -1.23      0.00
    9    7    4      1.35      0.00
   10    7    4     -0.48      0.00
   11    7    4     -1.31      0.00
   12    7    4     -0.73      0.00
   13    7    4      0.97      0.00
   14    7    4      0.98      0.00
  -17    8    4      0.85      0.00
  -16    8    4     -0.64      0.00
  -15    8    4     -0.38      0.00
  -14    8    4      2.90      0.00
  -13    8    4     -0.91      0.00
  -12    8    4     -0.43      0.00
  -11    8    4      0.75      0.00
  -10    8    4     -2.87      0.00
   -9    8    4      1.88      0.00
   -8    8    4     -0.97      0.00
   -7    8    4      1.65      0.00
   -6    8    4     -0.07      0.00
   -5    8    4     -0.02      0.00
   -4    8    4     -2.24      0.00
   -3    8    4      1.02      0.00
   -2    8    4     -4.24      0.00
   -1    8    4      1.26      0.00
    0    8    4     -0.63      0.00
    1    8    4     -0.30      0.00
    2    8    4      1.10      0.00
    3    8    4      1.62      0.00
    4    8    4     -1.89      0.00
    5    8    4      1.85      0.00
    6    8    4     -3.36      0.00
    7    8    4      1.09      0.00
    8    8    4     -0.25      0.00
    9    8    4     -0.65      0.00
   10    8    4      0.89      0.00
   11    8    4      0.43      0.00
   12    8    4     -0.88      0.00
   13    8    4      1.08      0.00
  -15    9    4      1.78      0.00
  -14    9    4     -3.24      0.00
  -13    9    4      2.64      0.00
  -12    9    4     -0.07      0.00
  -11    9    4      0.59      0.00
  -10    9    4     -0.94      0.00
   -9    9    4      2.86      0.00
   -8    9    4     -2.57      0.00
   -7    9    4      1.42      0.00
   -6    9    4     -0.04      0.00
   -5    9    4      0.17      0.00
   -4    9    4     -0.77      0.00
   -3    9    4      0.68      0.00
   -2    9    4      0.20      0.00
   -1    9    4     -0.25      0.00
    0    9    4     -0.39      0.00
    1    9    4     -0.21      0.00
    2    9    4     -0.84      0.00
    3    9    4      1.75      0.00
    4    9    4     -2.36      0.00
    5    9    4      2.25      0.00
    6    9    4     -0.94      0.00
    7    9    4     -0.39      0.00
    8    9    4     -0.68      0.00
    9    9    4      1.38      0.00
   10    9    4     -1.04      0.00
   11    9    4      0.62      0.00
  -13   10    4     -1.08      0.00
  -12   10    4     -0.60      0.00
  -11   10    4      0.09      0.00
  -10   10    4     -0.15      0.00
   -9   10    4      0.06      0.00
   -8   10    4      2.04      0.00
   -7   10    4     -0.01      0.00
   -6   10    4      1.41      0.00
   -5   10    4      0.21      0.00
   -4   10    4      0.53      0.00
   -3   10    4     -0.61      0.00
   -2   10    4      0.26      0.00
   -1   10    4     -0.67      0.00
    0   10    4      1.42      0.00
    1   10    4      0.25      0.00
    2   10    4      0.51      0.00
    3   10    4     -0.04      0.00
    4   10    4      0.97      0.00
    5   10    4     -0.15      0.00
    6   10    4      0.96      0.00
    7   10    4      0.47      0.00
    8   10    4     -0.50      0.00
    9   10    4      0.58      0.00
   10   10    4     -0.80      0.00
  -11   11    4      0.29      0.00
  -10   11    4     -0.87      0.00
   -9   11    4      1.04      0.00
   -8   11    4     -0.43      0.00
   -7   11    4      0.69      0.00
   -6   11    4     -0.05      0.00
   -5   11    4     -1.81      0.00
   -4   11    4      0.32      0.00
   -3   11    4      0.50      0.00
   -2   11    4      0.61      0.00
   -1   11    4      0.45      0.00
    0   11    4     -0.08      0.00
    1   11    4     -1.50      0.00
    2   11    4      0.10      0.00
    3   11    4      0.92      0.00
    4   11    4     -0.27      0.00
    5   11    4      1.09      0.00
    6   11    4     -1.99      0.00
    7   11    4     -0.26      0.00
   -8   12    4      1.01      0.00
   -7   12    4     -0.83      0.00
   -6   12    4     -0.24      0.00
   -5   12    4      0.75      0.00
   -4   12    4      0.33      0.00
   -3   12    4     -0.63      0.00
   -2   12    4      0.66      0.00
   -1   12    4     -0.92      0.00
    0   12    4      0.88      0.00
    1   12    4      1.19      0.00
    2   12    4     -1.22      0.00
    3   12    4      1.67      0.00
    4   12    4     -1.57      0.00
  -16    0    5      2.13      0.00
  -15    0    5      0.15      0.00
  -14    0    5     -7.14      0.00
  -12    0    5      2.07      0.00
  -11    0    5      2.86      0.00
  -10    0    5      0.19      0.00
   -9    0    5     -3.33      0.00
   -8    0    5     12.74      0.00
   -7    0    5     -0.60      0.00
   -6    0    5      6.41      0.00
   -5    0    5      1.86      0.00
   -4    0    5      0.04      0.00
   -3    0    5    -21.26      0.00
   -2    0    5     -1.87      0.00
   -1    0    5    -13.51      0.00
    0    0    5      9.78      0.00
    1    0    5      4.57      0.00
    2    0    5     -0.98      0.00
    3    0    5     14.72      0.00
    4    0    5     -1.45      0.00
    5    0    5      1.04      0.00
    6    0    5      0.25      0.00
    7    0    5     -0.06      0.00
    8    0    5     -0.72      0.00
    9    0    5     -3.76      0.00
   10    0    5     -1.16      0.00
  -18    1    5     -0.89      0.00
  -17    1    5      0.80      0.00
  -16    1    5     -2.29      0.00
  -15    1    5      0.24      0.00
  -14    1    5      0.64      0.00
  -13    1    5      1.72      0.00
  -12    1    5     -1.69      0.00
  -11    1    5     -6.39      0.00
  -10    1    5      7.71      0.00
   -9    1    5      0.30      0.00
   -8    1    5      5.05      0.00
   -7    1    5     -6.06      0.00
   -6    1    5      7.79      0.00
   -5    1    5    -17.36      0.00
   -4    1    5     -5.51      0.00
   -3    1    5    -12.87      0.00
   -2    1    5     -8.23      0.00
   -1    1    5     -8.24      0.00
    0    1    5     -7.50      0.00
    1    1    5      7.40      0.00
    2    1    5     -3.69      0.00
    3    1    5      8.02      0.00
    4    1    5     -1.15      0.00
    5    1    5      5.68      0.00
    6    1    5     -3.11      0.00
    7    1    5     -1.75      0.00
    8    1    5     -1.19      0.00
    9    1    5      0.44      0.00
   10    1    5      1.93      0.00
   11    1    5     -3.22      0.00
   12    1    5      0.04      0.00
  -19    2    5      0.28      0.00
  -18    2    5     -0.39      0.00
  -17    2    5     -1.92      0.00
  -16    2    5      0.43      0.00
  -15    2    5     -0.60      0.00
  -14    2    5     -1.86      0.00
  -13    2    5     -1.35      0.00
  -12    2    5     -1.02      0.00
  -11    2    5     -1.13      0.00
  -10    2    5     -2.10      0.00
   -9    2    5     -1.77      0.00
   -8    2    5     -3.26      0.00
   -7    2    5      9.43      0.00
   -6    2    5     -3.30      0.00
   -5    2    5     -7.21      0.00
   -4    2    5      3.09      0.00
   -3    2    5     -6.30      0.00
   -2    2    5     -8.18      0.00
   -1    2    5      1.53      0.00
    0    2    5     -8.74      0.00
    1    2    5     -1.47      0.00
    2    2    5      6.76      0.00
    3    2    5     -1.75      0.00
    4    2    5      2.10      0.00
    5    2    5     -1.78      0.00
    6    2    5     -0.12      0.00
    7    2    5     -1.06      0.00
    8    2    5     -0.32      0.00
    9    2    5     -1.35      0.00
   10    2    5      0.01      0.00
   11    2    5      1.05      0.00
   12    2    5      0.53      0.00
   13    2    5     -0.64      0.00
   14    2    5      0.04      0.00
  -20    3    5      1.43      0.00
  -19    3    5      0.03      0.00
  -18    3    5      0.09      0.00
  -17    3    5      0.66      0.00
  -16    3    5     -0.78      0.00
  -15    3    5      0.64      0.00
  -14    3    5     -1.36      0.00
  -13    3    5      0.49      0.00
  -12    3    5     -2.12      0.00
  -11    3    5     -2.94      0.00
  -10    3    5      0.74      0.00
   -9    3    5      3.76      0.00
   -8    3    5      2.81      0.00
   -7    3    5     -1.30      0.00
   -6    3    5      0.53      0.00
   -5    3    5      1.40      0.00
   -4    3    5     -2.89      0.00
   -3    3    5      0.51      0.00
   -2    3    5      2.04      0.00
   -1    3    5      2.76      0.00
    0    3    5     -0.17      0.00
    1    3    5      0.31      0.00
    2    3    5     -0.26      0.00
    3    3    5      3.75      0.00
    4    3    5      0.42      0.00
    5    3    5      0.15      0.00
    6    3    5      0.15      0.00
    7    3    5     -0.82      0.00
    8    3    5      0.57      0.00
    9    3    5     -0.59      0.00
   10    3    5      0.28      0.00
   11    3    5     -0.93      0.00
   12    3    5     -0.28      0.00
   13    3    5      0.12      0.00
   14    3    5      0.54      0.00
   15    3    5     -0.06      0.00
  -20    4    5     -0.30      0.00
  -19    4    5     -0.89      0.00
  -18    4    5     -0.88      0.00
  -17    4    5     -1.80      0.00
  -16    4    5     -1.29      0.00
  -15    4    5     -1.46      0.00
  -14    4    5     -1.34      0.00
  -13    4    5     -2.20      0.00
  -12    4    5      1.61      0.00
  -11    4    5     -0.65      0.00
  -10    4    5     -2.02      0.00
   -9    4    5     -2.89      0.00
   -8    4    5     -2.06      0.00
   -7    4    5     -1.13      0.00
   -6    4    5     -1.64      0.00
   -5    4    5     -2.33      0.00
   -4    4    5     -4.80      0.00
   -3    4    5     -3.96      0.00
   -2    4    5     -1.44      0.00
   -1    4    5     -9.48      0.00
    0    4    5      9.54      0.00
    1    4    5      4.60      0.00
    2    4    5     -2.17      0.00
    3    4    5      1.03      0.00
    4    4    5     -1.25      0.00
    5    4    5     -0.27      0.00
    6    4    5     -0.27      0.00
    7    4    5     -0.40      0.00
    8    4    5     -0.86      0.00
    9    4    5     -0.96      0.00
   10    4    5      0.96      0.00
   11    4    5     -0.27      0.00
   12    4    5     -2.28      0.00
   13    4    5      0.80      0.00
   14    4    5     -0.46      0.00
   15    4    5      0.76      0.00
  -20    5    5      0.26      0.00
  -19    5    5      0.37      0.00
  -18    5    5      0.84      0.00
  -17    5    5     -1.32      0.00
  -16    5    5      1.58      0.00
  -15    5    5     -1.90      0.00
  -14    5    5      2.35      0.00
  -13    5    5      0.40      0.00
  -12    5    5      0.80      0.00
  -11    5    5      1.66      0.00
  -10    5    5     -4.93      0.00
   -9    5    5      5.14      0.00
   -8    5    5     -8.55      0.00
   -7    5    5      5.15      0.00
   -6    5    5     -2.13      0.00
   -5    5    5     -1.13      0.00
   -4    5    5     -0.16      0.00
   -3    5    5     -1.64      0.00
   -2    5    5     -0.41      0.00
   -1    5    5      4.09      0.00
    0    5    5     -4.29      0.00
    1    5    5     -0.57      0.00
    2    5    5      3.56      0.00
    3    5    5      1.17      0.00
    4    5    5      1.76      0.00
    5    5    5     -2.39      0.00
    6    5    5      1.06      0.00
    7    5    5     -0.76      0.00
    8    5    5      0.90      0.00
    9    5    5      0.46      0.00
   10    5    5     -2.91      0.00
   11    5    5      1.11      0.00
   12    5    5     -0.21      0.00
   13    5    5      1.08      0.00
   14    5    5      0.34      0.00
   15    5    5     -0.15      0.00
  -19    6    5      0.51      0.00
  -18    6    5      1.36      0.00
  -17    6    5     -0.83      0.00
  -16    6    5      2.12      0.00
  -15    6    5     -3.36      0.00
  -14    6    5      0.43      0.00
  -13    6    5      1.11      0.00
  -12    6    5     -2.13      0.00
  -11    6    5     -0.54      0.00
  -10    6    5     -0.77      0.00
   -9    6    5      0.86      0.00
   -8    6    5      0.91      0.00
   -7    6    5      0.63      0.00
   -6    6    5     -1.09      0.00
   -5    6    5      0.65      0.00
   -4    6    5     -0.46      0.00
   -3    6    5     -0.71      0.00
   -2    6    5     -2.48      0.00
   -1    6    5      0.67      0.00
    0    6    5      2.36      0.00
    1    6    5      0.51      0.00
    2    6    5      0.38      0.00
    3    6    5      0.36      0.00
    4    6    5      0.90      0.00
    5    6    5      0.22      0.00
    6    6    5      0.74      0.00
    7    6    5     -2.75      0.00
    8    6    5     -1.54      0.00
    9    6    5      0.33      0.00
   10    6    5     -0.17      0.00
   11    6    5      0.22      0.00
   12    6    5      0.19      0.00
   13    6    5      1.02      0.00
   14    6    5      0.71      0.00
  -18    7    5      0.41      0.00
  -17    7    5     -2.06      0.00
  -16    7    5     -1.16      0.00
  -15    7    5      2.24      0.00
  -14    7    5      0.56      0.00
  -13    7    5     -0.31      0.00
  -12    7    5      0.96      0.00
  -11    7    5      0.48      0.00
  -10    7    5      0.87      0.00
   -9    7    5      0.59      0.00
   -8    7    5      0.65      0.00
   -7    7    5      0.80      0.00
   -6    7    5      1.38      0.00
   -5    7    5     -2.98      0.00
   -4    7    5     -0.05      0.00
   -3    7    5     -0.34      0.00
   -2    7    5      0.03      0.00
   -1    7    5      0.24      0.00
    0    7    5     -1.62      0.00
    1    7    5      2.11      0.00
    2    7    5     -0.29      0.00
    3    7    5      0.92      0.00
    4    7    5      0.58      0.00
    5    7    5     -0.30      0.00
    6    7    5     -1.11      0.00
    7    7    5     -0.28      0.00
    8    7    5     -0.44      0.00
    9    7    5     -0.46      0.00
   10    7    5     -0.09      0.00
   11    7    5      0.03      0.00
   12    7    5     -2.65      0.00
   13    7    5      0.96      0.00
  -17    8    5     -0.03      0.00
  -16    8    5      1.23      0.00
  -15    8    5     -1.81      0.00
  -14    8    5     -1.36      0.00
  -13    8    5      2.11      0.00
  -12    8    5      0.48      0.00
  -11    8    5      0.76      0.00
  -10    8    5      2.34      0.00
   -9    8    5      0.20      0.00
   -8    8    5     -0.24      0.00
   -7    8    5     -0.19      0.00
   -6    8    5      0.16      0.00
   -5    8    5     -0.27      0.00
   -4    8    5     -0.43      0.00
   -3    8    5      0.38      0.00
   -2    8    5     -0.15      0.00
   -1    8    5      0.61      0.00
    0    8    5     -0.75      0.00
    1    8    5     -1.04      0.00
    2    8    5     -0.06      0.00
    3    8    5      0.02      0.00
    4    8    5      0.33      0.00
    5    8    5      1.73      0.00
    6    8    5      0.79      0.00
    7    8    5     -0.46      0.00
    8    8    5      1.46      0.00
    9    8    5     -1.82      0.00
   10    8    5     -0.58      0.00
   11    8    5      0.53      0.00
   12    8    5     -0.21      0.00
  -15    9    5     -3.54      0.00
  -14    9    5      3.01      0.00
  -13    9    5     -3.92      0.00
  -12    9    5      0.81      0.00
  -11    9    5      0.68      0.00
  -10    9    5     -0.36      0.00
   -9    9    5      1.46      0.00
   -8    9    5      3.02      0.00
   -7    9    5      0.28      0.00
   -6    9    5     -1.22      0.00
   -5    9    5      1.54      0.00
   -4    9    5     -0.33      0.00
   -3    9    5      1.03      0.00
   -2    9    5      0.27      0.00
   -1    9    5      1.09      0.00
    0    9    5      0.83      0.00
    1    9    5      0.33      0.00
    2    9    5      1.13      0.00
    3    9    5     -0.04      0.00
    4    9    5      2.95      0.00
    5    9    5     -1.71      0.00
    6    9    5      0.40      0.00
    7    9    5     -0.45      0.00
    8    9    5     -1.27      0.00
    9    9    5      0.48      0.00
   10    9    5      0.34      0.00
  -14   10    5     -1.07      0.00
  -13   10    5      1.30      0.00
  -12   10    5      0.68      0.00
  -11   10    5     -0.65      0.00
  -10   10    5      1.64      0.00
   -9   10    5      0.05      0.00
   -8   10    5     -1.33      0.00
   -7   10    5      0.95      0.00
   -6   10    5     -0.53      0.00
   -5   10    5     -0.80      0.00
   -4   10    5      0.50      0.00
   -3   10    5      0.13      0.00
   -2   10    5      0.15      0.00
   -1   10    5      0.23      0.00
    0   10    5     -0.54      0.00
    1   10    5     -1.01      0.00
    2   10    5      0.30      0.00
    3   10    5      0.07      0.00
    4   10    5     -0.75      0.00
    5   10    5     -0.02      0.00
    6   10    5     -0.28      0.00
    7   10    5     -0.88      0.00
    8   10    5      0.57      0.00
    9   10    5     -0.22      0.00
  -11   11    5      0.86      0.00
  -10   11    5      0.33      0.00
   -9   11    5      1.33      0.00
   -8   11    5      0.16      0.00
   -7   11    5      0.05      0.00
   -6   11    5      0.05      0.00
   -5   11    5      1.14      0.00
   -4   11    5     -0.83      0.00
   -3   11    5      0.42      0.00
   -2   11    5      0.32      0.00
   -1   11    5     -1.09      0.00
    0   11    5      0.61      0.00
    1   11    5      0.80      0.00
    2   11    5      0.28      0.00
    3   11    5     -0.11      0.00
    4   11    5      1.70      0.00
    5   11    5      0.45      0.00
    6   11    5      0.17      0.00
   -8   12    5      1.61      0.00
   -7   12    5      0.02      0.00
   -6   12    5      0.42      0.00
   -5   12    5      0.13      0.00
   -4   12    5      0.47      0.00
   -3   12    5      0.29      0.00
   -2   12    5      0.07      0.00
   -1   12    5      0.68      0.00
    0   12    5      0.06      0.00
    1   12    5     -0.82      0.00
    2   12    5      0.60      0.00
    3   12    5      0.22      0.00
  -16    0    6     -3.16      0.00
  -14    0    6      0.61      0.00
  -13    0    6     -3.83      0.00
  -12    0    6     -5.96      0.00
  -11    0    6     -0.73      0.00
   -9    0    6     -2.10      0.00
   -8    0    6     -1.12      0.00
   -7    0    6      0.74      0.00
   -6    0    6     -6.62      0.00
   -5    0    6      5.83      0.00
   -4    0    6    -15.28      0.00
   -3    0    6     21.41      0.00
   -2    0    6     -9.82      0.00
   -1    0    6      5.75      0.00
    0    0    6     -1.11      0.00
    1    0    6      3.08      0.00
    2    0    6     -3.87      0.00
    3    0    6     -1.34      0.00
    4    0    6     -4.88      0.00
    6    0    6     -0.42      0.00
    7    0    6     -1.02      0.00
    8    0    6      0.84      0.00
    9    0    6      1.87      0.00
  -18    1    6     -1.47      0.00
  -17    1    6      0.24      0.00
  -16    1    6     -1.31      0.00
  -14    1    6     -1.32      0.00
  -13    1    6     -0.18      0.00
  -12    1    6     -2.21      0.00
  -11    1    6     -3.43      0.00
  -10    1    6     -6.91      0.00
   -9    1    6     -0.14      0.00
   -8    1    6     -0.57      0.00
   -7    1    6      3.91      0.00
   -6    1    6      2.31      0.00
   -5    1    6      4.32      0.00
   -4    1    6      4.19      0.00
   -3    1    6      0.21      0.00
   -2    1    6     -4.52      0.00
   -1    1    6     10.67      0.00
    0    1    6     -8.60      0.00
    1    1    6      9.53      0.00
    2    1    6     -0.36      0.00
    3    1    6     -0.08      0.00
    4    1    6      1.03      0.00
    5    1    6     -4.06      0.00
    6    1    6      0.07      0.00
    7    1    6     -0.90      0.00
    8    1    6      0.68      0.00
    9    1    6     -0.20      0.00
   10    1    6     -0.04      0.00
   11    1    6      1.12      0.00
  -20    2    6     -0.44      0.00
  -19    2    6      0.19      0.00
  -18    2    6     -1.26      0.00
  -17    2    6      0.93      0.00
  -16    2    6     -0.84      0.00
  -15    2    6      0.45      0.00
  -13    2    6     -3.76      0.00
  -12    2    6     -1.08      0.00
  -11    2    6      1.94      0.00
  -10    2    6     -4.42      0.00
   -9    2    6      5.72      0.00
   -8    2    6     -3.00      0.00
   -7    2    6     -0.85      0.00
   -6    2    6      2.71      0.00
   -5    2    6      1.16      0.00
   -4    2    6     -2.79      0.00
   -3    2    6     -2.93      0.00
   -2    2    6      2.44      0.00
   -1    2    6      2.75      0.00
    0    2    6     10.19      0.00
    1    2    6     -1.93      0.00
    2    2    6      0.70      0.00
    3    2    6      0.40      0.00
    4    2    6     -2.83      0.00
    5    2    6      0.06      0.00
    6    2    6     -1.04      0.00
    7    2    6     -1.16      0.00
    8    2    6     -0.28      0.00
    9    2    6     -0.40      0.00
   10    2    6     -0.17      0.00
   11    2    6     -0.21      0.00
   12    2    6      0.00      0.00
   13    2    6      1.20      0.00
  -21    3    6     -0.06      0.00
  -20    3    6      0.41      0.00
  -19    3    6     -1.17      0.00
  -18    3    6      1.24      0.00
  -17    3    6     -0.82      0.00
  -16    3    6     -3.55      0.00
  -15    3    6      2.40      0.00
  -14    3    6      2.48      0.00
  -13    3    6      3.36      0.00
  -12    3    6      0.72      0.00
  -11    3    6      0.39      0.00
  -10    3    6     -0.50      0.00
   -9    3    6     -2.28      0.00
   -8    3    6      3.69      0.00
   -7    3    6      2.97      0.00
   -6    3    6      0.12      0.00
   -5    3    6     -3.01      0.00
   -4    3    6     -3.84      0.00
   -3    3    6     -2.26      0.00
   -2    3    6     -4.85      0.00
   -1    3    6     -4.32      0.00
    0    3    6      1.42      0.00
    1    3    6      4.97      0.00
    2    3    6      3.88      0.00
    3    3    6     -0.16      0.00
    4    3    6      0.89      0.00
    5    3    6      1.34      0.00
    6    3    6     -1.83      0.00
    7    3    6     -1.13      0.00
    8    3    6      0.97      0.00
    9    3    6      0.56      0.00
   10    3    6     -0.88      0.00
   11    3    6     -0.37      0.00
   12    3    6      0.60      0.00
   13    3    6     -1.46      0.00
   14    3    6      1.12      0.00
  -20    4    6      3.18      0.00
  -19    4    6      0.14      0.00
  -18    4    6      0.30      0.00
  -17    4    6     -0.63      0.00
  -16    4    6      4.26      0.00
  -15    4    6     -2.93      0.00
  -14    4    6      1.88      0.00
  -13    4    6     -4.82      0.00
  -12    4    6     -0.40      0.00
  -11    4    6     -2.53      0.00
  -10    4    6      2.18      0.00
   -9    4    6      0.78      0.00
   -8    4    6      1.88      0.00
   -7    4    6      0.71      0.00
   -6    4    6     -0.11      0.00
   -5    4    6      2.80      0.00
   -4    4    6     -3.01      0.00
   -3    4    6      0.86      0.00
   -2    4    6     -4.31      0.00
   -1    4    6      5.03      0.00
    0    4    6     -5.11      0.00
    1    4    6     -1.95      0.00
    2    4    6      2.12      0.00
    3    4    6      0.16      0.00
    4    4    6      1.92      0.00
    5    4    6     -2.63      0.00
    6    4    6     -0.87      0.00
    7    4    6      0.18      0.00
    8    4    6     -1.95      0.00
    9    4    6     -1.04      0.00
   10    4    6      1.78      0.00
   11    4    6     -0.74      0.00
   12    4    6      0.97      0.00
   13    4    6      0.60      0.00
   14    4    6      0.22      0.00
   15    4    6     -0.58      0.00
  -20    5    6      1.07      0.00
  -19    5    6     -1.47      0.00
  -18    5    6      1.12      0.00
  -17    5    6     -0.57      0.00
  -16    5    6     -2.07      0.00
  -15    5    6      1.24      0.00
  -14    5    6     -1.05      0.00
  -13    5    6      1.27      0.00
  -12    5    6     -0.07      0.00
  -11    5    6     -1.23      0.00
  -10    5    6      2.48      0.00
   -9    5    6      0.60      0.00
   -8    5    6      1.74      0.00
   -7    5    6      0.37      0.00
   -6    5    6      0.39      0.00
   -5    5    6     -1.08      0.00
   -4    5    6     -1.29      0.00
   -3    5    6     -1.00      0.00
   -2    5    6     -1.86      0.00
   -1    5    6     -0.80      0.00
    0    5    6      2.44      0.00
    1    5    6      0.58      0.00
    2    5    6      0.93      0.00
    3    5    6     -0.82      0.00
    4    5    6      1.47      0.00
    5    5    6      1.21      0.00
    6    5    6     -0.44      0.00
    7    5    6     -0.90      0.00
    8    5    6     -1.16      0.00
    9    5    6      2.49      0.00
   10    5    6     -0.89      0.00
   11    5    6     -1.58      0.00
   12    5    6      1.09      0.00
   13    5    6     -2.67      0.00
   14    5    6      1.43      0.00
  -19    6    6     -0.02      0.00
  -18    6    6      2.01      0.00
  -17    6    6     -5.35      0.00
  -16    6    6      1.37      0.00
  -15    6    6      0.25      0.00
  -14    6    6     -1.92      0.00
  -13    6    6      0.99      0.00
  -12    6    6      0.60      0.00
  -11    6    6      3.72      0.00
  -10    6    6     -1.25      0.00
   -9    6    6      1.95      0.00
   -8    6    6     -0.61      0.00
   -7    6    6      1.43      0.00
   -6    6    6     -1.67      0.00
   -5    6    6     -1.86      0.00
   -4    6    6     -0.18      0.00
   -3    6    6      0.37      0.00
   -2    6    6      0.44      0.00
   -1    6    6     -0.49      0.00
    0    6    6     -1.41      0.00
    1    6    6      0.80      0.00
    2    6    6     -0.91      0.00
    3    6    6      0.87      0.00
    4    6    6     -0.32      0.00
    5    6    6     -0.51      0.00
    6    6    6      0.52      0.00
    7    6    6     -0.38      0.00
    8    6    6     -0.51      0.00
    9    6    6     -1.43      0.00
   10    6    6      0.05      0.00
   11    6    6     -2.18      0.00
   12    6    6      0.56      0.00
   13    6    6     -0.83      0.00
  -18    7    6     -0.76      0.00
  -17    7    6      3.82      0.00
  -16    7    6     -0.98      0.00
  -15    7    6     -3.02      0.00
  -14    7    6      1.60      0.00
  -13    7    6     -0.58      0.00
  -12    7    6     -0.39      0.00
  -11    7    6     -0.95      0.00
  -10    7    6      0.87      0.00
   -9    7    6     -0.76      0.00
   -8    7    6     -0.48      0.00
   -7    7    6     -1.73      0.00
   -6    7    6     -0.28      0.00
   -5    7    6      1.48      0.00
   -4    7    6     -1.23      0.00
   -3    7    6     -0.34      0.00
   -2    7    6     -1.03      0.00
   -1    7    6      1.61      0.00
    0    7    6     -0.79      0.00
    1    7    6     -0.80      0.00
    2    7    6     -0.47      0.00
    3    7    6      0.29      0.00
    4    7    6      0.44      0.00
    5    7    6      0.88      0.00
    6    7    6     -0.98      0.00
    7    7    6      0.09      0.00
    8    7    6      0.19      0.00
    9    7    6     -0.81      0.00
   10    7    6     -0.89      0.00
   11    7    6      2.11      0.00
   12    7    6     -0.39      0.00
  -17    8    6     -1.84      0.00
  -16    8    6      0.20      0.00
  -15    8    6      0.89      0.00
  -14    8    6     -0.15      0.00
  -13    8    6     -0.29      0.00
  -12    8    6     -1.11      0.00
  -11    8    6      1.92      0.00
  -10    8    6     -3.18      0.00
   -9    8    6      1.53      0.00
   -8    8    6      0.95      0.00
   -7    8    6     -2.09      0.00
   -6    8    6      0.85      0.00
   -5    8    6     -1.43      0.00
   -4    8    6      0.56      0.00
   -3    8    6      0.99      0.00
   -2    8    6      0.69      0.00
   -1    8    6      0.43      0.00
    0    8    6      0.65      0.00
    1    8    6     -1.89      0.00
    2    8    6      1.15      0.00
    3    8    6      0.41      0.00
    4    8    6     -3.16      0.00
    5    8    6      1.74      0.00
    6    8    6     -3.07      0.00
    7    8    6     -0.95      0.00
    8    8    6     -0.47      0.00
    9    8    6      0.22      0.00
   10    8    6      0.39      0.00
   11    8    6     -1.46      0.00
  -16    9    6      0.27      0.00
  -15    9    6      0.80      0.00
  -14    9    6      1.61      0.00
  -13    9    6      0.38      0.00
  -12    9    6     -1.22      0.00
  -11    9    6      1.48      0.00
  -10    9    6      0.13      0.00
   -9    9    6     -1.28      0.00
   -8    9    6     -1.01      0.00
   -7    9    6     -1.04      0.00
   -6    9    6      1.05      0.00
   -5    9    6     -0.86      0.00
   -4    9    6     -0.72      0.00
   -3    9    6      0.59      0.00
   -2    9    6     -0.39      0.00
   -1    9    6     -2.08      0.00
    0    9    6      1.27      0.00
    1    9    6     -1.39      0.00
    2    9    6     -1.44      0.00
    3    9    6     -0.57      0.00
    4    9    6     -0.01      0.00
    5    9    6      0.31      0.00
    6    9    6     -0.95      0.00
    7    9    6      0.35      0.00
    8    9    6     -0.63      0.00
    9    9    6     -0.12      0.00
   10    9    6     -0.39      0.00
  -14   10    6     -2.15      0.00
  -13   10    6      0.35      0.00
  -12   10    6      1.26      0.00
  -11   10    6     -1.04      0.00
  -10   10    6      0.11      0.00
   -9   10    6      1.91      0.00
   -8   10    6     -0.37      0.00
   -7   10    6     -0.28      0.00
   -6   10    6     -0.08      0.00
   -5   10    6     -0.23      0.00
   -4   10    6      0.69      0.00
   -3   10    6      0.51      0.00
   -2   10    6      0.39      0.00
   -1   10    6      0.01      0.00
    0   10    6     -0.70      0.00
    1   10    6     -1.00      0.00
    2   10    6     -0.27      0.00
    3   10    6      1.68      0.00
    4   10    6     -0.08      0.00
    5   10    6     -0.47      0.00
    6   10    6     -0.32      0.00
    7   10    6     -0.64      0.00
    8   10    6     -1.45      0.00
  -11   11    6      1.09      0.00
  -10   11    6     -0.57      0.00
   -9   11    6     -0.49      0.00
   -8   11    6      0.45      0.00
   -7   11    6     -0.59      0.00
   -6   11    6     -0.35      0.00
   -5   11    6      0.57      0.00
   -4   11    6     -0.72      0.00
   -3   11    6      1.29      0.00
   -2   11    6     -0.77      0.00
   -1   11    6      1.28      0.00
    0   11    6     -1.34      0.00
    1   11    6     -0.03      0.00
    2   11    6     -0.99      0.00
    3   11    6     -0.30      0.00
    4   11    6     -1.22      0.00
    5   11    6      0.50      0.00
   -8   12    6      0.57      0.00
   -7   12    6     -1.67      0.00
   -6   12    6      0.36      0.00
   -5   12    6     -0.69      0.00
   -4   12    6      1.15      0.00
   -3   12    6      0.22      0.00
   -2   12    6      0.72      0.00
   -1   12    6     -1.05      0.00
    0   12    6     -0.62      0.00
    1   12    6     -0.85      0.00
    2   12    6      0.24      0.00
  -16    0    7     -2.51      0.00
  -15    0    7      0.53      0.00
  -14    0    7     -1.36      0.00
  -13    0    7      0.37      0.00
  -12    0    7     -0.72      0.00
   -9    0    7      2.91      0.00
   -8    0    7      2.81      0.00
   -7    0    7      2.73      0.00
   -6    0    7      2.31      0.00
   -5    0    7     -1.75      0.00
   -4    0    7     -6.10      0.00
   -3    0    7     -4.98      0.00
   -2    0    7     -7.27      0.00
   -1    0    7      4.54      0.00
    0    0    7      2.73      0.00
    1    0    7      5.62      0.00
    2    0    7      1.56      0.00
    3    0    7      4.02      0.00
    5    0    7     -2.02      0.00
    6    0    7     -1.15      0.00
    7    0    7     -1.74      0.00
    8    0    7     -0.94      0.00
    9    0    7      1.08      0.00
  -18    1    7     -0.04      0.00
  -17    1    7     -0.07      0.00
  -16    1    7      1.01      0.00
  -15    1    7      2.02      0.00
  -14    1    7     -1.88      0.00
  -13    1    7      0.24      0.00
  -12    1    7      1.05      0.00
  -11    1    7     -0.93      0.00
  -10    1    7      4.28      0.00
   -9    1    7      4.86      0.00
   -8    1    7      4.71      0.00
   -7    1    7      0.61      0.00
   -6    1    7      5.52      0.00
   -5    1    7     -3.12      0.00
   -4    1    7     -3.80      0.00
   -3    1    7      0.47      0.00
   -2    1    7     -1.86      0.00
   -1    1    7      8.64      0.00
    0    1    7      1.36      0.00
    1    1    7      6.80      0.00
    2    1    7      3.06      0.00
    3    1    7      0.21      0.00
    4    1    7      0.23      0.00
    5    1    7     -0.80      0.00
    6    1    7     -0.43      0.00
    7    1    7     -0.79      0.00
    8    1    7      0.88      0.00
    9    1    7     -0.80      0.00
   10    1    7     -0.10      0.00
  -20    2    7      0.65      0.00
  -19    2    7      2.04      0.00
  -18    2    7     -1.20      0.00
  -17    2    7     -0.55      0.00
  -16    2    7      1.09      0.00
  -15    2    7      2.00      0.00
  -14    2    7      0.97      0.00
  -12    2    7     -3.02      0.00
  -11    2    7     -0.55      0.00
  -10    2    7      2.03      0.00
   -9    2    7     -0.02      0.00
   -8    2    7      2.24      0.00
   -7    2    7      2.67      0.00
   -6    2    7     -2.06      0.00
   -5    2    7     -2.18      0.00
   -4    2    7     -0.25      0.00
   -3    2    7     -2.55      0.00
   -2    2    7     -3.28      0.00
   -1    2    7     -3.86      0.00
    0    2    7      1.20      0.00
    1    2    7      3.67      0.00
    2    2    7      1.02      0.00
    3    2    7      3.14      0.00
    4    2    7     -0.10      0.00
    5    2    7     -0.14      0.00
    6    2    7     -0.20      0.00
    7    2    7     -1.10      0.00
    8    2    7      0.34      0.00
    9    2    7      1.74      0.00
   10    2    7      0.13      0.00
   11    2    7     -0.70      0.00
   12    2    7     -0.61      0.00
  -21    3    7      0.68      0.00
  -20    3    7      0.24      0.00
  -19    3    7     -0.60      0.00
  -18    3    7     -0.51      0.00
  -17    3    7      2.28      0.00
  -16    3    7     -1.53      0.00
  -15    3    7     -1.11      0.00
  -14    3    7     -6.05      0.00
  -13    3    7     -7.12      0.00
  -12    3    7      1.83      0.00
  -11    3    7     -5.59      0.00
  -10    3    7     -0.96      0.00
   -9    3    7      1.41      0.00
   -8    3    7     -2.66      0.00
   -7    3    7      1.70      0.00
   -6    3    7      2.18      0.00
   -5    3    7      0.30      0.00
   -4    3    7      1.50      0.00
   -3    3    7     -1.27      0.00
   -2    3    7      3.48      0.00
   -1    3    7      2.06      0.00
    0    3    7      3.68      0.00
    1    3    7     -1.85      0.00
    2    3    7      0.96      0.00
    3    3    7     -1.58      0.00
    4    3    7     -0.79      0.00
    5    3    7     -0.56      0.00
    6    3    7     -2.00      0.00
    7    3    7     -0.64      0.00
    8    3    7     -0.14      0.00
    9    3    7     -0.74      0.00
   10    3    7      0.62      0.00
   11    3    7      0.77      0.00
   12    3    7      0.22      0.00
   13    3    7      0.07      0.00
  -21    4    7      0.11      0.00
  -20    4    7     -0.81      0.00
  -19    4    7      0.78      0.00
  -18    4    7     -1.01      0.00
  -17    4    7     -1.06      0.00
  -16    4    7     -0.41      0.00
  -15    4    7     -2.76      0.00
  -14    4    7      7.36      0.00
  -13    4    7     -1.30      0.00
  -12    4    7      0.75      0.00
  -11    4    7      1.03      0.00
  -10    4    7     -0.65      0.00
   -9    4    7      0.57      0.00
   -8    4    7     -0.85      0.00
   -7    4    7     -0.54      0.00
   -6    4    7     -0.37      0.00
   -5    4    7     -0.64      0.00
   -4    4    7     -0.85      0.00
   -3    4    7     -1.40      0.00
   -2    4    7      2.88      0.00
   -1    4    7     -0.09      0.00
    0    4    7      3.58      0.00
    1    4    7      0.76      0.00
    2    4    7      0.98      0.00
    3    4    7     -0.46      0.00
    4    4    7      0.72      0.00
    5    4    7     -0.51      0.00
    6    4    7      0.01      0.00
    7    4    7      0.27      0.00
    8    4    7     -0.62      0.00
    9    4    7      0.32      0.00
   10    4    7     -0.69      0.00
   11    4    7     -1.04      0.00
   12    4    7      0.02      0.00
   13    4    7     -0.55      0.00
   14    4    7      0.92      0.00
  -20    5    7     -0.12      0.00
  -19    5    7      0.36      0.00
  -18    5    7      1.03      0.00
  -17    5    7     -1.65      0.00
  -16    5    7      1.96      0.00
  -15    5    7      0.59      0.00
  -14    5    7     -3.06      0.00
  -13    5    7      0.25      0.00
  -12    5    7      0.09      0.00
  -11    5    7      0.33      0.00
  -10    5    7     -3.30      0.00
   -9    5    7      0.12      0.00
   -8    5    7      0.28      0.00
   -7    5    7     -2.14      0.00
   -6    5    7      0.40      0.00
   -5    5    7     -0.43      0.00
   -4    5    7      1.16      0.00
   -3    5    7      0.51      0.00
   -2    5    7      0.65      0.00
   -1    5    7      0.53      0.00
    0    5    7     -0.50      0.00
    1    5    7      0.15      0.00
    2    5    7     -0.38      0.00
    3    5    7     -0.60      0.00
    4    5    7     -0.51      0.00
    5    5    7     -0.92      0.00
    6    5    7     -0.21      0.00
    7    5    7     -2.48      0.00
    8    5    7     -0.17      0.00
    9    5    7     -0.40      0.00
   10    5    7     -0.41      0.00
   11    5    7      1.51      0.00
   12    5    7      0.23      0.00
   13    5    7      0.33      0.00
  -19    6    7      0.68      0.00
  -18    6    7      0.66      0.00
  -17    6    7      0.96      0.00
  -16    6    7      0.60      0.00
  -15    6    7      0.35      0.00
  -14    6    7     -0.22      0.00
  -13    6    7      0.38      0.00
  -12    6    7     -3.20      0.00
  -11    6    7     -0.55      0.00
  -10    6    7     -0.31      0.00
   -9    6    7      1.04      0.00
   -8    6    7     -5.45      0.00
   -7    6    7      1.95      0.00
   -6    6    7      1.40      0.00
   -5    6    7     -1.75      0.00
   -4    6    7      0.81      0.00
   -3    6    7      0.73      0.00
   -2    6    7     -0.04      0.00
   -1    6    7      0.53      0.00
    0    6    7      0.44      0.00
    1    6    7     -1.37      0.00
    2    6    7     -0.06      0.00
    3    6    7      0.35      0.00
    4    6    7      1.63      0.00
    5    6    7     -2.82      0.00
    6    6    7     -0.68      0.00
    7    6    7      0.07      0.00
    8    6    7      0.11      0.00
    9    6    7      0.20      0.00
   10    6    7      0.18      0.00
   11    6    7      0.47      0.00
   12    6    7     -0.34      0.00
  -18    7    7     -0.91      0.00
  -17    7    7     -0.44      0.00
  -16    7    7      0.39      0.00
  -15    7    7      2.13      0.00
  -14    7    7      0.94      0.00
  -13    7    7      0.76      0.00
  -12    7    7      1.75      0.00
  -11    7    7      1.54      0.00
  -10    7    7     -0.64      0.00
   -9    7    7     -0.35      0.00
   -8    7    7      0.54      0.00
   -7    7    7     -1.89      0.00
   -6    7    7     -1.36      0.00
   -5    7    7      1.26      0.00
   -4    7    7     -0.02      0.00
   -3    7    7      0.32      0.00
   -2    7    7      1.14      0.00
   -1    7    7     -0.28      0.00
    0    7    7     -1.24      0.00
    1    7    7     -1.46      0.00
    2    7    7     -0.05      0.00
    3    7    7     -0.77      0.00
    4    7    7      0.09      0.00
    5    7    7      0.52      0.00
    6    7    7      0.18      0.00
    7    7    7     -1.67      0.00
    8    7    7     -0.32      0.00
    9    7    7      0.82      0.00
   10    7    7     -0.58      0.00
   11    7    7      0.00      0.00
  -17    8    7     -1.62      0.00
  -16    8    7      1.34      0.00
  -15    8    7     -1.24      0.00
  -14    8    7     -1.04      0.00
  -13    8    7     -0.25      0.00
  -12    8    7      0.93      0.00
  -11    8    7      1.12      0.00
  -10    8    7      1.84      0.00
   -9    8    7      0.12      0.00
   -8    8    7      0.04      0.00
   -7    8    7      0.23      0.00
   -6    8    7      0.37      0.00
   -5    8    7      0.12      0.00
   -4    8    7      1.26      0.00
   -3    8    7      0.70      0.00
   -2    8    7      0.37      0.00
   -1    8    7     -1.55      0.00
    0    8    7      0.22      0.00
    1    8    7      0.04      0.00
    2    8    7     -0.02      0.00
    3    8    7      1.78      0.00
    4    8    7      1.36      0.00
    5    8    7      0.11      0.00
    6    8    7     -0.68      0.00
    7    8    7     -0.39      0.00
    8    8    7      0.27      0.00
    9    8    7      0.06      0.00
   10    8    7     -1.25      0.00
  -16    9    7      0.45      0.00
  -15    9    7     -2.30      0.00
  -14    9    7      1.50      0.00
  -13    9    7      1.12      0.00
  -12    9    7     -0.60      0.00
  -11    9    7      0.87      0.00
  -10    9    7     -0.04      0.00
   -9    9    7      0.30      0.00
   -8    9    7     -0.85      0.00
   -7    9    7     -1.32      0.00
   -6    9    7      0.18      0.00
   -5    9    7     -0.57      0.00
   -4    9    7      1.01      0.00
   -3    9    7      0.53      0.00
   -2    9    7      0.25      0.00
   -1    9    7      0.47      0.00
    0    9    7     -1.67      0.00
    1    9    7     -1.81      0.00
    2    9    7      0.36      0.00
    3    9    7     -0.36      0.00
    4    9    7      0.66      0.00
    5    9    7     -1.06      0.00
    6    9    7      0.56      0.00
    7    9    7     -0.19      0.00
    8    9    7     -0.72      0.00
    9    9    7     -0.39      0.00
  -14   10    7     -2.29      0.00
  -13   10    7     -0.15      0.00
  -12   10    7     -0.47      0.00
  -11   10    7      0.59      0.00
  -10   10    7      0.31      0.00
   -9   10    7     -0.40      0.00
   -8   10    7     -0.38      0.00
   -7   10    7     -0.13      0.00
   -6   10    7     -0.39      0.00
   -5   10    7      0.78      0.00
   -4   10    7      0.69      0.00
   -3   10    7     -0.45      0.00
   -2   10    7      1.61      0.00
   -1   10    7     -0.82      0.00
    0   10    7      0.10      0.00
    1   10    7     -0.23      0.00
    2   10    7      0.22      0.00
    3   10    7     -0.36      0.00
    4   10    7      0.51      0.00
    5   10    7     -0.19      0.00
    6   10    7      0.16      0.00
    7   10    7     -1.28      0.00
  -11   11    7      0.76      0.00
  -10   11    7      0.02      0.00
   -9   11    7      0.28      0.00
   -8   11    7     -0.76      0.00
   -7   11    7      0.23      0.00
   -6   11    7     -0.46      0.00
   -5   11    7      0.52      0.00
   -4   11    7      0.12      0.00
   -3   11    7      0.69      0.00
   -2   11    7     -0.36      0.00
   -1   11    7     -1.17      0.00
    0   11    7     -0.15      0.00
    1   11    7     -0.58      0.00
    2   11    7     -0.15      0.00
    3   11    7      0.68      0.00
    4   11    7      0.95      0.00
   -7   12    7      0.66      0.00
   -6   12    7     -0.89      0.00
   -5   12    7      0.31      0.00
   -4   12    7     -1.06      0.00
   -3   12    7     -1.07      0.00
   -2   12    7      0.66      0.00
   -1   12    7     -0.34      0.00
    0   12    7      0.57      0.00
  -16    0    8      1.71      0.00
  -15    0    8      1.74      0.00
  -14    0    8     -1.02      0.00
  -13    0    8      1.42      0.00
  -12    0    8     -2.63      0.00
   -9    0    8      5.41      0.00
   -8    0    8      0.67      0.00
   -7    0    8      7.31      0.00
   -6    0    8     -1.30      0.00
   -5    0    8      8.91      0.00
   -4    0    8      4.05      0.00
   -3    0    8      8.19      0.00
   -2    0    8      2.35      0.00
   -1    0    8      4.39      0.00
    0    0    8     -0.89      0.00
    1    0    8      4.53      0.00
    4    0    8     -1.00      0.00
    5    0    8      1.24      0.00
    6    0    8      0.61      0.00
    7    0    8      0.55      0.00
    8    0    8      1.16      0.00
    9    0    8      1.25      0.00
  -18    1    8     -0.01      0.00
  -17    1    8      0.83      0.00
  -16    1    8      0.47      0.00
  -15    1    8      0.56      0.00
  -14    1    8     -0.65      0.00
  -12    1    8     -2.94      0.00
  -11    1    8      1.63      0.00
  -10    1    8     -3.67      0.00
   -9    1    8      1.61      0.00
   -8    1    8     -4.92      0.00
   -7    1    8      3.38      0.00
   -6    1    8     -1.02      0.00
   -5    1    8      3.81      0.00
   -4    1    8     -3.69      0.00
   -3    1    8      3.59      0.00
   -2    1    8     -2.24      0.00
   -1    1    8      3.58      0.00
    0    1    8     -1.78      0.00
    1    1    8     -0.96      0.00
    2    1    8     -1.58      0.00
    3    1    8     -1.72      0.00
    4    1    8      0.24      0.00
    5    1    8     -1.00      0.00
    6    1    8      0.24      0.00
    7    1    8      0.85      0.00
    8    1    8      0.62      0.00
    9    1    8      0.30      0.00
   10    1    8     -1.34      0.00
  -20    2    8     -0.88      0.00
  -19    2    8     -0.59      0.00
  -18    2    8     -0.13      0.00
  -17    2    8      1.59      0.00
  -16    2    8     -1.88      0.00
  -15    2    8     -1.15      0.00
  -14    2    8      0.14      0.00
  -13    2    8     -0.30      0.00
  -12    2    8      0.23      0.00
  -11    2    8     -0.84      0.00
  -10    2    8     -1.57      0.00
   -9    2    8      1.49      0.00
   -8    2    8      1.67      0.00
   -7    2    8      3.73      0.00
   -6    2    8      1.73      0.00
   -5    2    8      1.52      0.00
   -4    2    8      2.89      0.00
   -3    2    8      2.84      0.00
   -2    2    8      1.81      0.00
   -1    2    8      6.90      0.00
    0    2    8      0.47      0.00
    1    2    8      1.75      0.00
    2    2    8     -1.57      0.00
    3    2    8     -0.52      0.00
    4    2    8     -1.09      0.00
    5    2    8     -1.04      0.00
    6    2    8      0.50      0.00
    7    2    8     -0.01      0.00
    8    2    8     -0.76      0.00
    9    2    8      1.06      0.00
   10    2    8     -0.65      0.00
   11    2    8     -1.33      0.00
  -21    3    8     -0.95      0.00
  -20    3    8      1.74      0.00
  -19    3    8     -0.52      0.00
  -17    3    8      0.63      0.00
  -16    3    8      2.42      0.00
  -14    3    8      5.38      0.00
  -13    3    8      0.33      0.00
  -12    3    8      0.08      0.00
  -11    3    8      4.39      0.00
  -10    3    8      0.66      0.00
   -9    3    8      3.95      0.00
   -8    3    8      0.01      0.00
   -7    3    8      0.71      0.00
   -6    3    8      1.62      0.00
   -5    3    8      0.81      0.00
   -4    3    8     -1.91      0.00
   -3    3    8      1.85      0.00
   -2    3    8      1.13      0.00
   -1    3    8      1.03      0.00
    0    3    8      0.40      0.00
    1    3    8     -0.15      0.00
    2    3    8      0.94      0.00
    3    3    8      0.37      0.00
    4    3    8     -0.70      0.00
    5    3    8     -0.05      0.00
    6    3    8      0.68      0.00
    7    3    8     -0.59      0.00
    8    3    8      2.48      0.00
    9    3    8     -1.84      0.00
   10    3    8      0.89      0.00
   11    3    8      0.03      0.00
   12    3    8     -0.70      0.00
  -21    4    8     -0.94      0.00
  -20    4    8      0.18      0.00
  -19    4    8      1.12      0.00
  -18    4    8     -0.19      0.00
  -17    4    8      0.47      0.00
  -16    4    8      2.30      0.00
  -15    4    8     -1.55      0.00
  -14    4    8     -1.16      0.00
  -13    4    8     -0.96      0.00
  -12    4    8      0.12      0.00
  -11    4    8      2.11      0.00
  -10    4    8     -1.05      0.00
   -9    4    8      1.12      0.00
   -8    4    8     -0.10      0.00
   -7    4    8      1.81      0.00
   -6    4    8     -0.66      0.00
   -5    4    8      1.90      0.00
   -4    4    8      1.00      0.00
   -3    4    8      1.92      0.00
   -2    4    8     -2.09      0.00
   -1    4    8      0.54      0.00
    0    4    8     -1.10      0.00
    1    4    8      0.74      0.00
    2    4    8     -0.47      0.00
    3    4    8      0.58      0.00
    4    4    8      0.30      0.00
    5    4    8     -0.20      0.00
    6    4    8     -1.01      0.00
    7    4    8     -0.07      0.00
    8    4    8      1.46      0.00
    9    4    8      0.81      0.00
   10    4    8     -0.97      0.00
   11    4    8      0.36      0.00
   12    4    8     -0.23      0.00
   13    4    8     -0.46      0.00
  -20    5    8      0.78      0.00
  -19    5    8     -2.36      0.00
  -18    5    8      0.94      0.00
  -17    5    8     -0.64      0.00
  -16    5    8      0.06      0.00
  -15    5    8     -0.24      0.00
  -14    5    8     -2.25      0.00
  -13    5    8      1.23      0.00
  -12    5    8     -0.69      0.00
  -11    5    8     -0.56      0.00
  -10    5    8      2.55      0.00
   -9    5    8     -0.62      0.00
   -8    5    8     -1.52      0.00
   -7    5    8      0.77      0.00
   -6    5    8     -0.37      0.00
   -5    5    8     -0.45      0.00
   -4    5    8     -0.73      0.00
   -3    5    8      1.16      0.00
   -2    5    8     -0.96      0.00
   -1    5    8      1.31      0.00
    0    5    8     -1.34      0.00
    1    5    8     -1.44      0.00
    2    5    8      0.80      0.00
    3    5    8      0.54      0.00
    4    5    8     -0.32      0.00
    5    5    8      0.03      0.00
    6    5    8      0.69      0.00
    7    5    8      0.02      0.00
    8    5    8      0.13      0.00
    9    5    8      0.72      0.00
   10    5    8      0.11      0.00
   11    5    8     -1.35      0.00
   12    5    8     -0.55      0.00
  -20    6    8      2.08      0.00
  -19    6    8     -3.41      0.00
  -18    6    8      2.48      0.00
  -16    6    8     -0.05      0.00
  -15    6    8      0.43      0.00
  -14    6    8      1.17      0.00
  -13    6    8     -0.97      0.00
  -12    6    8      3.61      0.00
  -11    6    8      1.22      0.00
  -10    6    8      0.43      0.00
   -9    6    8      0.23      0.00
   -8    6    8     -1.30      0.00
   -7    6    8     -0.59      0.00
   -6    6    8      0.62      0.00
   -5    6    8     -1.14      0.00
   -4    6    8      2.17      0.00
   -3    6    8     -1.22      0.00
   -2    6    8      0.20      0.00
   -1    6    8      0.09      0.00
    0    6    8     -1.17      0.00
    1    6    8     -1.16      0.00
    2    6    8      0.43      0.00
    3    6    8     -0.26      0.00
    4    6    8      2.73      0.00
    5    6    8     -1.10      0.00
    6    6    8      0.43      0.00
    7    6    8      0.37      0.00
    8    6    8     -0.06      0.00
    9    6    8     -0.05      0.00
   10    6    8     -0.48      0.00
   11    6    8     -0.35      0.00
   12    6    8      0.06      0.00
  -19    7    8      1.28      0.00
  -17    7    8      0.53      0.00
  -16    7    8     -0.06      0.00
  -15    7    8     -3.10      0.00
  -14    7    8     -2.35      0.00
  -13    7    8     -0.23      0.00
  -12    7    8     -1.23      0.00
  -11    7    8     -0.10      0.00
  -10    7    8     -0.15      0.00
   -9    7    8      0.74      0.00
   -8    7    8     -0.98      0.00
   -7    7    8     -1.00      0.00
   -6    7    8     -0.56      0.00
   -5    7    8      0.34      0.00
   -4    7    8      1.30      0.00
   -3    7    8      0.82      0.00
   -2    7    8      0.38      0.00
   -1    7    8     -1.19      0.00
    0    7    8     -1.22      0.00
    1    7    8      1.01      0.00
    2    7    8      0.53      0.00
    3    7    8     -0.36      0.00
    4    7    8     -0.33      0.00
    5    7    8     -0.40      0.00
    6    7    8     -0.03      0.00
    7    7    8     -1.03      0.00
    8    7    8      0.42      0.00
    9    7    8      0.25      0.00
   10    7    8     -0.29      0.00
   11    7    8      0.19      0.00
  -17    8    8      0.64      0.00
  -16    8    8      0.29      0.00
  -15    8    8      1.48      0.00
  -14    8    8      0.65      0.00
  -13    8    8      0.17      0.00
  -12    8    8     -1.68      0.00
  -11    8    8      0.16      0.00
  -10    8    8     -0.36      0.00
   -9    8    8     -5.53      0.00
   -8    8    8     -0.38      0.00
   -7    8    8     -2.38      0.00
   -6    8    8      0.37      0.00
   -5    8    8     -0.61      0.00
   -4    8    8     -0.72      0.00
   -3    8    8      0.52      0.00
   -2    8    8      0.69      0.00
   -1    8    8     -1.24      0.00
    0    8    8      0.61      0.00
    1    8    8     -5.88      0.00
    2    8    8     -0.17      0.00
    3    8    8     -0.20      0.00
    4    8    8     -1.26      0.00
    5    8    8      0.71      0.00
    6    8    8     -0.13      0.00
    7    8    8      0.31      0.00
    8    8    8     -0.30      0.00
    9    8    8     -0.10      0.00
  -16    9    8      1.88      0.00
  -15    9    8     -2.52      0.00
  -14    9    8      0.91      0.00
  -13    9    8     -3.36      0.00
  -12    9    8      1.61      0.00
  -11    9    8      0.44      0.00
  -10    9    8     -0.96      0.00
   -9    9    8      0.60      0.00
   -8    9    8     -0.39      0.00
   -7    9    8     -0.64      0.00
   -6    9    8     -1.44      0.00
   -5    9    8      3.80      0.00
   -4    9    8     -2.67      0.00
   -3    9    8      3.55      0.00
   -2    9    8     -1.20      0.00
   -1    9    8     -1.05      0.00
    0    9    8     -0.15      0.00
    1    9    8      0.75      0.00
    2    9    8     -0.31      0.00
    3    9    8      1.49      0.00
    4    9    8     -0.21      0.00
    5    9    8     -0.75      0.00
    6    9    8     -0.41      0.00
    7    9    8     -0.72      0.00
    8    9    8      1.33      0.00
  -14   10    8     -1.08      0.00
  -13   10    8      1.11      0.00
  -12   10    8      0.38      0.00
  -11   10    8     -1.71      0.00
  -10   10    8      0.27      0.00
   -9   10    8     -1.51      0.00
   -8   10    8     -0.62      0.00
   -7   10    8     -0.44      0.00
   -6   10    8     -0.49      0.00
   -5   10    8      0.38      0.00
   -4   10    8     -1.06      0.00
   -3   10    8      0.59      0.00
   -2   10    8     -0.23      0.00
   -1   10    8     -0.83      0.00
    0   10    8     -0.88      0.00
    1   10    8     -1.48      0.00
    2   10    8     -0.22      0.00
    3   10    8     -1.24      0.00
    4   10    8     -0.05      0.00
    5   10    8      0.57      0.00
    6   10    8     -0.98      0.00
  -11   11    8      0.00      0.00
  -10   11    8      0.71      0.00
   -9   11    8     -1.17      0.00
   -8   11    8     -0.21      0.00
   -7   11    8     -0.27      0.00
   -6   11    8      0.44      0.00
   -5   11    8     -0.88      0.00
   -4   11    8      1.44      0.00
   -3   11    8     -0.06      0.00
   -2   11    8      0.19      0.00
   -1   11    8      0.07      0.00
    0   11    8      0.11      0.00
    1   11    8     -1.40      0.00
    2   11    8      0.17      0.00
    3   11    8      0.81      0.00
   -6   12    8     -0.63      0.00
   -5   12    8      1.76      0.00
   -4   12    8     -0.24      0.00
   -3   12    8      1.03      0.00
   -2   12    8     -0.60      0.00
  -16    0    9     -0.33      0.00
  -15    0    9      0.61      0.00
  -14    0    9     -0.38      0.00
  -13    0    9      1.52      0.00
  -12    0    9     -5.64      0.00
   -9    0    9     -1.00      0.00
   -8    0    9      1.89      0.00
   -7    0    9      0.73      0.00
   -6    0    9     -1.53      0.00
   -5    0    9     -0.10      0.00
   -4    0    9     -5.09      0.00
   -3    0    9     -1.45      0.00
   -2    0    9      1.11      0.00
   -1    0    9      2.07      0.00
    2    0    9      0.37      0.00
    3    0    9     -2.95      0.00
    4    0    9      0.91      0.00
    5    0    9     -1.93      0.00
    6    0    9      1.05      0.00
    7    0    9      0.18      0.00
    8    0    9     -0.45      0.00
    9    0    9      0.35      0.00
  -18    1    9     -0.40      0.00
  -17    1    9      0.70      0.00
  -16    1    9      1.39      0.00
  -15    1    9      2.13      0.00
  -14    1    9     -0.15      0.00
  -13    1    9      1.51      0.00
  -12    1    9      2.14      0.00
  -11    1    9      1.72      0.00
   -9    1    9      3.58      0.00
   -8    1    9      2.17      0.00
   -7    1    9      2.42      0.00
   -6    1    9      0.30      0.00
   -5    1    9     -0.53      0.00
   -4    1    9     -0.42      0.00
   -3    1    9      1.13      0.00
   -2    1    9      0.99      0.00
   -1    1    9     -0.48      0.00
    0    1    9      1.48      0.00
    1    1    9     -0.45      0.00
    2    1    9      2.19      0.00
    3    1    9      0.50      0.00
    4    1    9      0.18      0.00
    5    1    9     -0.73      0.00
    6    1    9      0.34      0.00
    7    1    9      0.36      0.00
    8    1    9      0.22      0.00
    9    1    9      0.25      0.00
   10    1    9     -1.10      0.00
  -20    2    9      0.50      0.00
  -19    2    9     -0.07      0.00
  -18    2    9      0.88      0.00
  -17    2    9      0.54      0.00
  -16    2    9      2.82      0.00
  -15    2    9      0.73      0.00
  -14    2    9     -1.26      0.00
  -13    2    9     -0.30      0.00
  -12    2    9     -0.92      0.00
  -11    2    9      2.01      0.00
  -10    2    9      2.79      0.00
   -9    2    9      2.30      0.00
   -8    2    9      3.91      0.00
   -7    2    9     -3.04      0.00
   -6    2    9      6.20      0.00
   -5    2    9     -1.69      0.00
   -4    2    9      1.95      0.00
   -3    2    9      0.75      0.00
   -2    2    9     -1.05      0.00
   -1    2    9      0.96      0.00
    0    2    9      0.45      0.00
    1    2    9      1.02      0.00
    2    2    9     -0.99      0.00
    3    2    9      1.90      0.00
    4    2    9     -0.22      0.00
    5    2    9      0.45      0.00
    6    2    9      0.25      0.00
    7    2    9      0.49      0.00
    8    2    9      1.00      0.00
    9    2    9      0.64      0.00
   10    2    9     -0.64      0.00
   11    2    9     -0.39      0.00
  -21    3    9      1.61      0.00
  -20    3    9     -1.20      0.00
  -19    3    9      0.88      0.00
  -18    3    9      1.26      0.00
  -17    3    9      0.27      0.00
  -16    3    9     -0.72      0.00
  -15    3    9     -2.62      0.00
  -14    3    9      0.25      0.00
  -13    3    9     -0.98      0.00
  -12    3    9     -0.36      0.00
  -11    3    9     -0.81      0.00
  -10    3    9     -0.81      0.00
   -9    3    9     -5.37      0.00
   -8    3    9      0.86      0.00
   -7    3    9      0.05      0.00
   -6    3    9     -1.16      0.00
   -5    3    9      0.12      0.00
   -4    3    9     -0.12      0.00
   -3    3    9     -1.22      0.00
   -2    3    9     -0.69      0.00
   -1    3    9      0.06      0.00
    0    3    9     -3.12      0.00
    1    3    9      1.26      0.00
    2    3    9     -0.25      0.00
    3    3    9      0.60      0.00
    4    3    9     -0.12      0.00
    5    3    9      0.82      0.00
    6    3    9     -0.42      0.00
    7    3    9      0.83      0.00
    8    3    9     -0.98      0.00
    9    3    9      0.98      0.00
   10    3    9     -1.20      0.00
   11    3    9     -0.72      0.00
   12    3    9      0.07      0.00
  -21    4    9     -0.93      0.00
  -20    4    9      0.63      0.00
  -19    4    9     -0.12      0.00
  -18    4    9     -0.50      0.00
  -17    4    9     -0.05      0.00
  -16    4    9      1.74      0.00
  -15    4    9     -1.06      0.00
  -14    4    9     -1.39      0.00
  -13    4    9     -0.67      0.00
  -12    4    9     -1.59      0.00
  -11    4    9     -1.63      0.00
  -10    4    9     -0.71      0.00
   -9    4    9      1.57      0.00
   -8    4    9      0.58      0.00
   -7    4    9      0.12      0.00
   -6    4    9      1.27      0.00
   -5    4    9      0.89      0.00
   -4    4    9     -0.68      0.00
   -3    4    9      1.95      0.00
   -2    4    9      0.62      0.00
   -1    4    9     -0.03      0.00
    0    4    9      0.45      0.00
    1    4    9     -2.15      0.00
    2    4    9     -0.72      0.00
    3    4    9      0.06      0.00
    4    4    9     -0.21      0.00
    5    4    9     -0.65      0.00
    6    4    9     -0.34      0.00
    7    4    9      0.52      0.00
    8    4    9      0.18      0.00
    9    4    9     -0.85      0.00
   10    4    9      1.37      0.00
   11    4    9     -0.92      0.00
   12    4    9      1.08      0.00
  -20    5    9      0.24      0.00
  -19    5    9      0.27      0.00
  -18    5    9      1.17      0.00
  -17    5    9      0.41      0.00
  -16    5    9     -0.80      0.00
  -15    5    9      1.24      0.00
  -14    5    9      0.62      0.00
  -13    5    9      1.03      0.00
  -12    5    9     -0.70      0.00
  -11    5    9      1.53      0.00
  -10    5    9     -0.07      0.00
   -9    5    9     -1.91      0.00
   -8    5    9     -0.45      0.00
   -7    5    9      1.62      0.00
   -6    5    9      0.66      0.00
   -5    5    9      1.53      0.00
   -4    5    9      2.57      0.00
   -3    5    9     -0.55      0.00
   -2    5    9      0.13      0.00
   -1    5    9     -0.68      0.00
    0    5    9     -1.35      0.00
    1    5    9     -0.74      0.00
    2    5    9      2.08      0.00
    3    5    9     -1.79      0.00
    4    5    9      0.62      0.00
    5    5    9     -0.06      0.00
    6    5    9      0.22      0.00
    7    5    9      0.34      0.00
    8    5    9      0.16      0.00
    9    5    9      0.39      0.00
   10    5    9     -0.66      0.00
   11    5    9      0.65      0.00
  -20    6    9      0.21      0.00
  -19    6    9     -0.37      0.00
  -18    6    9      1.91      0.00
  -17    6    9      1.71      0.00
  -16    6    9      1.33      0.00
  -15    6    9      0.91      0.00
  -14    6    9     -2.24      0.00
  -13    6    9     -2.61      0.00
  -12    6    9      2.99      0.00
  -11    6    9     -3.23      0.00
  -10    6    9     -0.25      0.00
   -9    6    9     -0.52      0.00
   -8    6    9     -1.96      0.00
   -7    6    9      0.50      0.00
   -6    6    9      0.04      0.00
   -5    6    9      2.35      0.00
   -4    6    9     -0.23      0.00
   -3    6    9      2.58      0.00
   -2    6    9     -0.03      0.00
   -1    6    9     -3.08      0.00
    0    6    9     -0.82      0.00
    1    6    9     -0.83      0.00
    2    6    9     -1.44      0.00
    3    6    9      1.04      0.00
    4    6    9     -0.63      0.00
    5    6    9      0.09      0.00
    6    6    9     -0.32      0.00
    7    6    9      0.10      0.00
    8    6    9      0.56      0.00
    9    6    9     -0.27      0.00
   10    6    9      0.47      0.00
   11    6    9      0.21      0.00
  -19    7    9     -0.23      0.00
  -18    7    9     -1.29      0.00
  -17    7    9      0.02      0.00
  -16    7    9      0.35      0.00
  -15    7    9     -0.62      0.00
  -14    7    9      1.59      0.00
  -13    7    9      0.21      0.00
  -12    7    9      0.26      0.00
  -11    7    9      0.91      0.00
  -10    7    9     -1.64      0.00
   -9    7    9     -1.79      0.00
   -8    7    9      0.04      0.00
   -7    7    9     -0.03      0.00
   -6    7    9      1.42      0.00
   -5    7    9      0.04      0.00
   -4    7    9      1.53      0.00
   -3    7    9     -0.85      0.00
   -2    7    9     -0.69      0.00
   -1    7    9      0.65      0.00
    0    7    9     -2.12      0.00
    1    7    9     -1.55      0.00
    2    7    9      1.46      0.00
    3    7    9      0.50      0.00
    4    7    9      0.75      0.00
    5    7    9      0.37      0.00
    6    7    9      0.37      0.00
    7    7    9      0.97      0.00
    8    7    9      0.03      0.00
    9    7    9      0.32      0.00
   10    7    9     -0.85      0.00
  -17    8    9     -0.30      0.00
  -16    8    9      0.58      0.00
  -15    8    9     -0.09      0.00
  -14    8    9     -1.37      0.00
  -13    8    9      1.85      0.00
  -12    8    9     -0.45      0.00
  -11    8    9      2.13      0.00
  -10    8    9      0.17      0.00
   -9    8    9      0.44      0.00
   -8    8    9     -0.11      0.00
   -7    8    9      0.23      0.00
   -6    8    9      0.89      0.00
   -5    8    9      1.62      0.00
   -4    8    9      0.15      0.00
   -3    8    9      0.02      0.00
   -2    8    9      1.71      0.00
   -1    8    9     -4.12      0.00
    0    8    9      1.09      0.00
    1    8    9      0.65      0.00
    2    8    9      1.37      0.00
    3    8    9      0.30      0.00
    4    8    9      1.97      0.00
    5    8    9     -1.11      0.00
    6    8    9      0.96      0.00
    7    8    9      1.16      0.00
    8    8    9     -0.08      0.00
  -16    9    9      0.16      0.00
  -15    9    9      0.15      0.00
  -14    9    9     -0.58      0.00
  -13    9    9      1.29      0.00
  -12    9    9     -0.52      0.00
  -11    9    9     -0.49      0.00
  -10    9    9     -0.48      0.00
   -9    9    9     -0.85      0.00
   -8    9    9     -0.78      0.00
   -7    9    9      0.71      0.00
   -6    9    9      0.04      0.00
   -5    9    9     -1.34      0.00
   -4    9    9      3.84      0.00
   -3    9    9     -2.37      0.00
   -2    9    9      0.89      0.00
   -1    9    9      0.57      0.00
    0    9    9     -1.66      0.00
    1    9    9      0.07      0.00
    2    9    9     -0.59      0.00
    3    9    9     -0.01      0.00
    4    9    9      1.40      0.00
    5    9    9      0.56      0.00
    6    9    9      0.82      0.00
    7    9    9     -0.33      0.00
  -14   10    9     -0.83      0.00
  -13   10    9     -0.89      0.00
  -12   10    9      1.00      0.00
  -11   10    9      0.18      0.00
  -10   10    9      0.40      0.00
   -9   10    9     -1.23      0.00
   -8   10    9     -0.67      0.00
   -7   10    9     -0.59      0.00
   -6   10    9      1.38      0.00
   -5   10    9      0.40      0.00
   -4   10    9     -0.45      0.00
   -3   10    9      0.88      0.00
   -2   10    9      0.22      0.00
   -1   10    9     -0.76      0.00
    0   10    9     -1.11      0.00
    1   10    9      0.58      0.00
    2   10    9      0.40      0.00
    3   10    9      2.28      0.00
    4   10    9     -0.18      0.00
    5   10    9     -0.41      0.00
  -11   11    9     -0.81      0.00
  -10   11    9     -0.08      0.00
   -9   11    9     -0.49      0.00
   -8   11    9     -0.09      0.00
   -7   11    9     -0.25      0.00
   -6   11    9     -0.67      0.00
   -5   11    9     -0.34      0.00
   -4   11    9      0.89      0.00
   -3   11    9     -0.86      0.00
   -2   11    9      0.10      0.00
   -1   11    9     -0.73      0.00
    0   11    9      0.14      0.00
    1   11    9      0.38      0.00
    2   11    9     -0.46      0.00
  -15    0   10     -0.27      0.00
  -14    0   10      0.81      0.00
  -13    0   10     -1.62      0.00
  -12    0   10     10.98      0.00
  -11    0   10     -5.20      0.00
   -6    0   10     -2.84      0.00
   -5    0   10      2.87      0.00
   -4    0   10     -4.42      0.00
   -3    0   10      5.89      0.00
   -1    0   10      1.37      0.00
    0    0   10     -4.28      0.00
    1    0   10     -2.09      0.00
    2    0   10      2.99      0.00
    3    0   10      0.71      0.00
    4    0   10      1.77      0.00
    5    0   10     -0.92      0.00
    6    0   10      0.02      0.00
    7    0   10      0.12      0.00
    8    0   10     -0.29      0.00
  -18    1   10      0.83      0.00
  -17    1   10      0.23      0.00
  -16    1   10     -0.51      0.00
  -15    1   10      0.59      0.00
  -14    1   10     -1.84      0.00
  -13    1   10      1.54      0.00
  -12    1   10     -8.54      0.00
  -11    1   10      5.20      0.00
  -10    1   10      2.29      0.00
   -8    1   10     -2.33      0.00
   -7    1   10      4.65      0.00
   -6    1   10     -3.25      0.00
   -5    1   10      4.58      0.00
   -2    1   10     -1.73      0.00
   -1    1   10      1.25      0.00
    0    1   10     -0.52      0.00
    1    1   10      0.73      0.00
    2    1   10     -1.28      0.00
    3    1   10     -0.54      0.00
    4    1   10      0.06      0.00
    5    1   10      1.40      0.00
    6    1   10      0.30      0.00
    7    1   10      0.21      0.00
    8    1   10     -0.49      0.00
    9    1   10     -0.42      0.00
   10    1   10     -1.67      0.00
  -20    2   10      0.47      0.00
  -19    2   10     -0.21      0.00
  -18    2   10     -0.03      0.00
  -17    2   10      1.06      0.00
  -16    2   10     -0.83      0.00
  -15    2   10      0.12      0.00
  -14    2   10     -0.80      0.00
  -13    2   10      1.86      0.00
  -12    2   10      1.42      0.00
  -11    2   10     -2.24      0.00
  -10    2   10     -3.68      0.00
   -9    2   10     -2.27      0.00
   -8    2   10      2.37      0.00
   -6    2   10     -0.21      0.00
   -5    2   10     -4.27      0.00
   -4    2   10     -1.99      0.00
   -3    2   10      0.80      0.00
   -2    2   10     -0.79      0.00
   -1    2   10     -1.14      0.00
    0    2   10     -2.69      0.00
    1    2   10     -0.97      0.00
    2    2   10     -0.78      0.00
    3    2   10      0.53      0.00
    4    2   10     -0.96      0.00
    5    2   10      0.15      0.00
    6    2   10     -0.53      0.00
    7    2   10      0.48      0.00
    8    2   10     -0.95      0.00
    9    2   10     -0.33      0.00
   10    2   10     -0.42      0.00
   11    2   10     -0.23      0.00
  -21    3   10     -2.02      0.00
  -20    3   10      0.44      0.00
  -19    3   10      0.95      0.00
  -18    3   10     -1.52      0.00
  -17    3   10      1.20      0.00
  -16    3   10      1.52      0.00
  -15    3   10     -0.56      0.00
  -14    3   10      1.84      0.00
  -13    3   10     -1.87      0.00
  -12    3   10     -1.78      0.00
  -11    3   10      3.53      0.00
  -10    3   10      3.86      0.00
   -9    3   10      3.76      0.00
   -8    3   10      2.79      0.00
   -7    3   10      2.02      0.00
   -6    3   10     -0.32      0.00
   -5    3   10      5.15      0.00
   -4    3   10     -1.07      0.00
   -3    3   10      1.58      0.00
   -2    3   10      0.36      0.00
   -1    3   10      0.22      0.00
    0    3   10      1.21      0.00
    1    3   10     -0.64      0.00
    2    3   10      0.87      0.00
    3    3   10     -1.43      0.00
    4    3   10     -0.87      0.00
    5    3   10      0.84      0.00
    6    3   10     -0.14      0.00
    7    3   10      1.13      0.00
    8    3   10      0.18      0.00
    9    3   10     -0.95      0.00
   10    3   10      0.28      0.00
   11    3   10     -0.06      0.00
  -21    4   10      1.23      0.00
  -20    4   10     -1.02      0.00
  -19    4   10     -0.20      0.00
  -18    4   10      0.86      0.00
  -17    4   10      0.61      0.00
  -16    4   10     -0.52      0.00
  -15    4   10     -0.44      0.00
  -14    4   10     -0.64      0.00
  -13    4   10      4.55      0.00
  -12    4   10      2.81      0.00
  -11    4   10      1.73      0.00
  -10    4   10      0.11      0.00
   -9    4   10     -0.56      0.00
   -8    4   10     -0.09      0.00
   -7    4   10      0.07      0.00
   -6    4   10      1.94      0.00
   -5    4   10     -2.87      0.00
   -4    4   10      2.29      0.00
   -3    4   10     -0.91      0.00
   -2    4   10     -0.68      0.00
   -1    4   10     -1.28      0.00
    0    4   10     -0.03      0.00
    1    4   10      0.69      0.00
    2    4   10      0.64      0.00
    3    4   10      1.45      0.00
    4    4   10      0.25      0.00
    5    4   10      0.42      0.00
    6    4   10      0.35      0.00
    7    4   10      0.59      0.00
    8    4   10     -0.57      0.00
    9    4   10      1.40      0.00
   10    4   10     -2.65      0.00
   11    4   10      0.67      0.00
  -20    5   10     -0.64      0.00
  -19    5   10      0.02      0.00
  -18    5   10      0.81      0.00
  -17    5   10     -2.54      0.00
  -16    5   10      3.68      0.00
  -15    5   10     -2.25      0.00
  -14    5   10     -0.68      0.00
  -13    5   10     -1.40      0.00
  -12    5   10      2.56      0.00
  -11    5   10      0.75      0.00
  -10    5   10      0.84      0.00
   -9    5   10     -0.31      0.00
   -8    5   10      1.41      0.00
   -7    5   10     -1.04      0.00
   -6    5   10      1.57      0.00
   -5    5   10     -3.00      0.00
   -4    5   10      3.18      0.00
   -3    5   10     -2.62      0.00
   -2    5   10      0.83      0.00
   -1    5   10     -0.75      0.00
    0    5   10     -0.03      0.00
    1    5   10     -0.14      0.00
    2    5   10      2.22      0.00
    3    5   10      0.13      0.00
    4    5   10      1.05      0.00
    5    5   10     -2.78      0.00
    6    5   10      3.73      0.00
    7    5   10     -2.36      0.00
    8    5   10      0.43      0.00
    9    5   10     -0.84      0.00
   10    5   10     -0.24      0.00
  -20    6   10      0.35      0.00
  -19    6   10     -1.04      0.00
  -18    6   10     -0.74      0.00
  -17    6   10      0.05      0.00
  -16    6   10     -5.00      0.00
  -15    6   10     -1.38      0.00
  -14    6   10      0.97      0.00
  -13    6   10     -0.28      0.00
  -12    6   10      1.08      0.00
  -11    6   10     -2.14      0.00
  -10    6   10      3.21      0.00
   -9    6   10      0.56      0.00
   -8    6   10      0.52      0.00
   -7    6   10     -1.32      0.00
   -6    6   10      2.40      0.00
   -5    6   10     -2.28      0.00
   -4    6   10     -1.67      0.00
   -3    6   10      1.15      0.00
   -2    6   10     -0.75      0.00
   -1    6   10     -0.20      0.00
    0    6   10      2.36      0.00
    1    6   10     -0.01      0.00
    2    6   10      0.92      0.00
    3    6   10     -0.27      0.00
    4    6   10      0.10      0.00
    5    6   10      0.69      0.00
    6    6   10     -0.52      0.00
    7    6   10      1.41      0.00
    8    6   10      0.80      0.00
    9    6   10     -0.18      0.00
   10    6   10     -1.14      0.00
  -19    7   10      0.51      0.00
  -18    7   10      1.12      0.00
  -17    7   10      0.71      0.00
  -16    7   10      2.00      0.00
  -15    7   10     -0.55      0.00
  -14    7   10     -0.70      0.00
  -13    7   10     -1.63      0.00
  -12    7   10      2.97      0.00
  -11    7   10      0.13      0.00
  -10    7   10     -0.26      0.00
   -9    7   10     -1.36      0.00
   -8    7   10      0.58      0.00
   -7    7   10      1.14      0.00
   -6    7   10     -1.61      0.00
   -5    7   10      1.47      0.00
   -4    7   10      1.53      0.00
   -3    7   10     -1.71      0.00
   -2    7   10      1.88      0.00
   -1    7   10     -1.76      0.00
    0    7   10     -0.28      0.00
    1    7   10     -0.93      0.00
    2    7   10      0.76      0.00
    3    7   10     -0.19      0.00
    4    7   10     -0.35      0.00
    5    7   10      0.46      0.00
    6    7   10      0.19      0.00
    7    7   10      0.05      0.00
    8    7   10     -1.04      0.00
    9    7   10     -0.24      0.00
  -17    8   10     -1.48      0.00
  -16    8   10     -0.93      0.00
  -15    8   10     -2.10      0.00
  -14    8   10     -1.56      0.00
  -13    8   10     -0.12      0.00
  -12    8   10     -0.72      0.00
  -11    8   10     -0.23      0.00
  -10    8   10      0.51      0.00
   -9    8   10     -1.01      0.00
   -8    8   10     -1.83      0.00
   -7    8   10      1.67      0.00
   -6    8   10     -3.02      0.00
   -5    8   10      2.61      0.00
   -4    8   10     -2.46      0.00
   -3    8   10      2.53      0.00
   -2    8   10     -1.52      0.00
   -1    8   10     -0.03      0.00
    0    8   10      0.59      0.00
    1    8   10      0.19      0.00
    2    8   10     -0.05      0.00
    3    8   10      0.09      0.00
    4    8   10     -0.08      0.00
    5    8   10     -1.21      0.00
    6    8   10      0.44      0.00
    7    8   10     -0.87      0.00
  -16    9   10      0.38      0.00
  -15    9   10     -0.65      0.00
  -14    9   10      0.33      0.00
  -13    9   10     -0.02      0.00
  -12    9   10     -0.37      0.00
  -11    9   10      0.35      0.00
  -10    9   10     -1.39      0.00
   -9    9   10     -0.04      0.00
   -8    9   10     -0.69      0.00
   -7    9   10      0.02      0.00
   -6    9   10      0.07      0.00
   -5    9   10     -0.29      0.00
   -4    9   10     -0.79      0.00
   -3    9   10     -0.32      0.00
   -2    9   10      0.18      0.00
   -1    9   10     -0.94      0.00
    0    9   10     -1.45      0.00
    1    9   10     -0.13      0.00
    2    9   10     -0.54      0.00
    3    9   10     -0.16      0.00
    4    9   10     -0.61      0.00
    5    9   10      0.65      0.00
    6    9   10      0.22      0.00
  -14   10   10     -0.08      0.00
  -13   10   10     -0.52      0.00
  -12   10   10      0.81      0.00
  -11   10   10      0.09      0.00
  -10   10   10     -0.35      0.00
   -9   10   10      0.67      0.00
   -8   10   10      0.73      0.00
   -7   10   10      0.21      0.00
   -6   10   10     -0.83      0.00
   -5   10   10      1.49      0.00
   -4   10   10     -0.21      0.00
   -3   10   10      1.13      0.00
   -2   10   10     -0.34      0.00
   -1   10   10      0.82      0.00
    0   10   10     -0.60      0.00
    1   10   10      0.83      0.00
    2   10   10     -1.56      0.00
    3   10   10      1.07      0.00
    4   10   10     -0.81      0.00
  -10   11   10     -0.15      0.00
   -9   11   10     -0.03      0.00
   -8   11   10     -1.02      0.00
   -7   11   10      1.62      0.00
   -6   11   10     -0.60      0.00
   -5   11   10      0.37      0.00
   -4   11   10     -0.28      0.00
   -3   11   10      0.95      0.00
   -2   11   10     -0.04      0.00
   -1   11   10     -0.19      0.00
    0   11   10     -0.65      0.00
  -14    0   11     -1.39      0.00
  -13    0   11     -1.91      0.00
  -12    0   11     -2.82      0.00
  -11    0   11     -1.47      0.00
   -9    0   11     -7.62      0.00
   -8    0   11      4.63      0.00
   -7    0   11     -2.41      0.00
   -6    0   11     -2.55      0.00
   -5    0   11     -2.10      0.00
   -4    0   11      1.01      0.00
   -3    0   11     -1.72      0.00
   -2    0   11     -0.69      0.00
   -1    0   11     -2.18      0.00
    0    0   11      2.16      0.00
    1    0   11     -0.42      0.00
    2    0   11     -1.31      0.00
    3    0   11     -1.60      0.00
    4    0   11     -2.21      0.00
    5    0   11      3.54      0.00
    6    0   11     -0.86      0.00
    7    0   11     -0.44      0.00
    8    0   11      0.78      0.00
  -18    1   11     -1.19      0.00
  -17    1   11     -1.09      0.00
  -16    1   11      0.39      0.00
  -15    1   11      0.69      0.00
  -14    1   11      0.95      0.00
  -13    1   11      0.97      0.00
  -12    1   11      0.90      0.00
  -11    1   11     -2.44      0.00
  -10    1   11     -0.07      0.00
   -9    1   11      3.96      0.00
   -6    1   11     -1.16      0.00
   -5    1   11     -3.40      0.00
   -4    1   11      1.39      0.00
   -3    1   11     -2.06      0.00
   -2    1   11      2.37      0.00
   -1    1   11      1.01      0.00
    0    1   11     -3.69      0.00
    1    1   11      0.79      0.00
    2    1   11     -0.67      0.00
    3    1   11      0.22      0.00
    4    1   11      0.37      0.00
    5    1   11     -3.01      0.00
    6    1   11      0.01      0.00
    7    1   11      0.47      0.00
    8    1   11     -0.43      0.00
    9    1   11      1.13      0.00
  -19    2   11     -2.72      0.00
  -18    2   11      1.70      0.00
  -17    2   11     -0.03      0.00
  -16    2   11     -0.24      0.00
  -15    2   11      0.33      0.00
  -14    2   11     -0.43      0.00
  -13    2   11      0.28      0.00
  -12    2   11      0.26      0.00
  -11    2   11      1.89      0.00
  -10    2   11      1.67      0.00
   -9    2   11      2.33      0.00
   -8    2   11     -0.22      0.00
   -7    2   11     -0.14      0.00
   -6    2   11      0.42      0.00
   -5    2   11      0.82      0.00
   -4    2   11      0.15      0.00
   -3    2   11     -0.94      0.00
   -2    2   11      0.04      0.00
   -1    2   11     -1.56      0.00
    0    2   11      1.65      0.00
    1    2   11      1.76      0.00
    2    2   11      0.08      0.00
    3    2   11     -0.52      0.00
    4    2   11      0.70      0.00
    5    2   11     -0.31      0.00
    6    2   11      1.17      0.00
    7    2   11      0.03      0.00
    8    2   11     -1.41      0.00
    9    2   11     -0.01      0.00
   10    2   11      0.65      0.00
  -21    3   11     -1.12      0.00
  -20    3   11      0.58      0.00
  -19    3   11      0.57      0.00
  -18    3   11     -0.07      0.00
  -17    3   11     -0.41      0.00
  -16    3   11     -0.44      0.00
  -15    3   11      0.40      0.00
  -14    3   11     -2.13      0.00
  -13    3   11      5.13      0.00
  -12    3   11     -2.35      0.00
  -11    3   11      0.38      0.00
  -10    3   11     -1.00      0.00
   -9    3   11     -5.59      0.00
   -8    3   11      5.83      0.00
   -7    3   11     -4.62      0.00
   -6    3   11     -0.36      0.00
   -5    3   11     -0.23      0.00
   -4    3   11     -3.13      0.00
   -3    3   11      3.80      0.00
   -2    3   11     -3.15      0.00
   -1    3   11      1.01      0.00
    0    3   11     -0.96      0.00
    1    3   11     -0.36      0.00
    2    3   11      0.86      0.00
    3    3   11      2.06      0.00
    4    3   11     -0.75      0.00
    5    3   11     -0.51      0.00
    6    3   11     -0.85      0.00
    7    3   11     -0.17      0.00
    8    3   11      0.10      0.00
    9    3   11      0.15      0.00
   10    3   11     -0.84      0.00
   11    3   11      0.90      0.00
  -21    4   11     -0.44      0.00
  -20    4   11     -0.59      0.00
  -19    4   11      0.65      0.00
  -18    4   11      0.03      0.00
  -17    4   11     -0.91      0.00
  -16    4   11      0.51      0.00
  -15    4   11      0.06      0.00
  -14    4   11     -1.76      0.00
  -13    4   11     -1.40      0.00
  -12    4   11     -1.99      0.00
  -11    4   11     -1.45      0.00
  -10    4   11      2.53      0.00
   -9    4   11     -0.48      0.00
   -8    4   11     -0.57      0.00
   -7    4   11      2.06      0.00
   -6    4   11     -0.85      0.00
   -5    4   11     -1.34      0.00
   -4    4   11      1.02      0.00
   -3    4   11     -0.26      0.00
   -2    4   11     -1.39      0.00
   -1    4   11      1.53      0.00
    0    4   11     -0.01      0.00
    1    4   11      0.80      0.00
    2    4   11      0.41      0.00
    3    4   11     -2.12      0.00
    4    4   11     -0.77      0.00
    5    4   11      1.26      0.00
    6    4   11     -0.58      0.00
    7    4   11     -0.17      0.00
    8    4   11      0.05      0.00
    9    4   11     -1.25      0.00
   10    4   11      0.67      0.00
  -20    5   11      2.06      0.00
  -19    5   11     -1.00      0.00
  -18    5   11      2.53      0.00
  -17    5   11     -0.68      0.00
  -16    5   11     -0.52      0.00
  -15    5   11     -1.46      0.00
  -14    5   11     -0.38      0.00
  -13    5   11      1.35      0.00
  -12    5   11     -1.96      0.00
  -11    5   11     -0.69      0.00
  -10    5   11     -0.59      0.00
   -9    5   11      3.51      0.00
   -8    5   11     -0.76      0.00
   -7    5   11      0.28      0.00
   -6    5   11      0.76      0.00
   -5    5   11      1.87      0.00
   -4    5   11     -1.48      0.00
   -3    5   11      1.08      0.00
   -2    5   11      0.94      0.00
   -1    5   11     -0.42      0.00
    0    5   11     -0.81      0.00
    1    5   11     -1.42      0.00
    2    5   11     -0.16      0.00
    3    5   11      0.33      0.00
    4    5   11     -1.58      0.00
    5    5   11      1.87      0.00
    6    5   11     -1.64      0.00
    7    5   11      3.07      0.00
    8    5   11     -1.81      0.00
    9    5   11      1.69      0.00
  -20    6   11     -0.05      0.00
  -19    6   11     -0.84      0.00
  -18    6   11      1.51      0.00
  -17    6   11      0.36      0.00
  -16    6   11      1.73      0.00
  -15    6   11      0.17      0.00
  -14    6   11      1.29      0.00
  -13    6   11     -3.65      0.00
  -12    6   11      7.44      0.00
  -11    6   11     -1.28      0.00
  -10    6   11     -1.75      0.00
   -9    6   11     -1.04      0.00
   -8    6   11     -0.97      0.00
   -7    6   11      5.01      0.00
   -6    6   11     -1.18      0.00
   -5    6   11      1.72      0.00
   -4    6   11      3.01      0.00
   -3    6   11     -0.70      0.00
   -2    6   11     -0.74      0.00
   -1    6   11     -1.69      0.00
    0    6   11      1.22      0.00
    1    6   11      0.46      0.00
    2    6   11      0.51      0.00
    3    6   11     -0.30      0.00
    4    6   11      0.61      0.00
    5    6   11      0.12      0.00
    6    6   11     -1.12      0.00
    7    6   11     -0.92      0.00
    8    6   11     -0.55      0.00
    9    6   11     -0.18      0.00
  -19    7   11     -0.29      0.00
  -18    7   11     -0.54      0.00
  -17    7   11     -0.18      0.00
  -16    7   11     -1.36      0.00
  -15    7   11     -2.14      0.00
  -14    7   11      0.33      0.00
  -13    7   11      3.41      0.00
  -12    7   11     -3.35      0.00
  -11    7   11      1.55      0.00
  -10    7   11      1.35      0.00
   -9    7   11      1.32      0.00
   -8    7   11     -0.45      0.00
   -7    7   11     -0.21      0.00
   -6    7   11     -0.14      0.00
   -5    7   11     -0.50      0.00
   -4    7   11      0.36      0.00
   -3    7   11     -1.22      0.00
   -2    7   11      0.89      0.00
   -1    7   11      0.34      0.00
    0    7   11      0.12      0.00
    1    7   11      1.36      0.00
    2    7   11      1.05      0.00
    3    7   11      0.45      0.00
    4    7   11     -1.02      0.00
    5    7   11      0.03      0.00
    6    7   11      2.12      0.00
    7    7   11      0.20      0.00
    8    7   11     -0.24      0.00
  -17    8   11      0.32      0.00
  -16    8   11      0.40      0.00
  -15    8   11      2.94      0.00
  -14    8   11      0.17      0.00
  -13    8   11     -0.14      0.00
  -12    8   11      1.00      0.00
  -11    8   11     -0.19      0.00
  -10    8   11     -0.52      0.00
   -9    8   11      0.20      0.00
   -8    8   11      1.58      0.00
   -7    8   11      1.35      0.00
   -6    8   11      0.61      0.00
   -5    8   11      1.24      0.00
   -4    8   11     -0.54      0.00
   -3    8   11      0.43      0.00
   -2    8   11      0.58      0.00
   -1    8   11     -0.24      0.00
    0    8   11     -1.37      0.00
    1    8   11     -0.70      0.00
    2    8   11     -0.15      0.00
    3    8   11     -0.58      0.00
    4    8   11      2.49      0.00
    5    8   11      1.42      0.00
    6    8   11     -0.85      0.00
  -15    9   11     -0.47      0.00
  -14    9   11     -1.30      0.00
  -13    9   11      1.75      0.00
  -12    9   11      1.34      0.00
  -11    9   11      0.20      0.00
  -10    9   11      0.58      0.00
   -9    9   11     -0.56      0.00
   -8    9   11      1.90      0.00
   -7    9   11     -0.45      0.00
   -6    9   11      0.68      0.00
   -5    9   11     -0.15      0.00
   -4    9   11      1.41      0.00
   -3    9   11      0.80      0.00
   -2    9   11     -0.25      0.00
   -1    9   11     -0.46      0.00
    0    9   11      1.04      0.00
    1    9   11      2.02      0.00
    2    9   11      1.58      0.00
    3    9   11      0.41      0.00
    4    9   11      0.43      0.00
  -13   10   11     -0.63      0.00
  -12   10   11      0.03      0.00
  -11   10   11     -0.51      0.00
  -10   10   11      0.06      0.00
   -9   10   11      0.51      0.00
   -8   10   11     -1.98      0.00
   -7   10   11      0.53      0.00
   -6   10   11     -0.15      0.00
   -5   10   11     -0.89      0.00
   -4   10   11      0.37      0.00
   -3   10   11     -1.61      0.00
   -2   10   11      1.00      0.00
   -1   10   11      0.37      0.00
    0   10   11     -0.77      0.00
    1   10   11     -0.21      0.00
    2   10   11     -0.30      0.00
   -9   11   11     -0.30      0.00
   -8   11   11      0.80      0.00
   -7   11   11      0.52      0.00
   -6   11   11      0.18      0.00
   -5   11   11      0.06      0.00
   -4   11   11      0.85      0.00
   -3   11   11      0.36      0.00
   -2   11   11     -0.06      0.00
  -12    0   12      0.30      0.00
  -11    0   12     -6.50      0.00
  -10    0   12     15.09      0.00
   -9    0   12     -6.11      0.00
   -8    0   12      1.53      0.00
   -7    0   12      0.28      0.00
   -6    0   12     -1.63      0.00
   -5    0   12      0.16      0.00
   -4    0   12      0.11      0.00
   -3    0   12     -5.75      0.00
   -2    0   12      9.47      0.00
   -1    0   12     -5.31      0.00
    0    0   12      0.93      0.00
    1    0   12      0.30      0.00
    2    0   12      1.06      0.00
    3    0   12      0.12      0.00
    4    0   12     -0.79      0.00
    5    0   12     -1.41      0.00
    6    0   12      0.07      0.00
    7    0   12     -0.79      0.00
    8    0   12      0.13      0.00
  -17    1   12     -0.77      0.00
  -16    1   12     -0.98      0.00
  -15    1   12      0.87      0.00
  -14    1   12      0.13      0.00
  -13    1   12     -2.13      0.00
  -12    1   12      1.63      0.00
  -11    1   12      0.20      0.00
  -10    1   12     -4.70      0.00
   -9    1   12      1.59      0.00
   -8    1   12      0.66      0.00
   -7    1   12     -2.00      0.00
   -6    1   12     -2.00      0.00
   -5    1   12     -0.98      0.00
   -4    1   12     -0.42      0.00
   -3    1   12      2.17      0.00
   -2    1   12     -6.73      0.00
   -1    1   12      0.75      0.00
    0    1   12      1.00      0.00
    1    1   12     -0.18      0.00
    2    1   12      0.49      0.00
    3    1   12      0.78      0.00
    4    1   12     -0.67      0.00
    5    1   12      0.74      0.00
    6    1   12     -0.31      0.00
    7    1   12     -0.28      0.00
    8    1   12     -0.21      0.00
    9    1   12     -0.16      0.00
  -19    2   12      0.22      0.00
  -18    2   12     -1.65      0.00
  -17    2   12      1.25      0.00
  -16    2   12     -0.25      0.00
  -15    2   12     -0.04      0.00
  -14    2   12     -2.62      0.00
  -13    2   12      2.44      0.00
  -12    2   12     -6.35      0.00
  -11    2   12      3.52      0.00
  -10    2   12     -1.45      0.00
   -9    2   12      0.92      0.00
   -8    2   12      0.97      0.00
   -7    2   12     -1.26      0.00
   -6    2   12     -0.74      0.00
   -5    2   12     -0.63      0.00
   -4    2   12     -1.10      0.00
   -3    2   12      0.33      0.00
   -2    2   12     -0.11      0.00
   -1    2   12      1.89      0.00
    0    2   12     -2.45      0.00
    1    2   12      1.09      0.00
    2    2   12     -0.80      0.00
    3    2   12      0.03      0.00
    4    2   12     -1.04      0.00
    5    2   12      0.40      0.00
    6    2   12     -0.75      0.00
    7    2   12     -0.02      0.00
    8    2   12      1.16      0.00
    9    2   12     -0.67      0.00
   10    2   12      0.47      0.00
  -21    3   12     -0.66      0.00
  -20    3   12     -0.89      0.00
  -19    3   12      0.72      0.00
  -18    3   12     -0.16      0.00
  -17    3   12     -0.82      0.00
  -16    3   12     -0.87      0.00
  -15    3   12      0.25      0.00
  -14    3   12     -1.46      0.00
  -13    3   12      0.98      0.00
  -12    3   12     -1.35      0.00
  -11    3   12     -1.46      0.00
  -10    3   12      4.84      0.00
   -9    3   12     -1.12      0.00
   -8    3   12      0.55      0.00
   -7    3   12      0.53      0.00
   -6    3   12     -2.08      0.00
   -5    3   12      0.09      0.00
   -4    3   12     -0.66      0.00
   -3    3   12      0.42      0.00
   -2    3   12     -0.37      0.00
   -1    3   12      0.81      0.00
    0    3   12      0.03      0.00
    1    3   12      0.79      0.00
    2    3   12     -1.17      0.00
    3    3   12     -0.86      0.00
    4    3   12     -0.89      0.00
    5    3   12      1.21      0.00
    6    3   12      0.20      0.00
    7    3   12      0.34      0.00
    8    3   12     -0.64      0.00
    9    3   12      0.19      0.00
   10    3   12      0.30      0.00
  -21    4   12     -0.15      0.00
  -20    4   12      0.48      0.00
  -19    4   12     -0.28      0.00
  -18    4   12      1.42      0.00
  -17    4   12     -0.47      0.00
  -16    4   12      0.34      0.00
  -15    4   12      0.31      0.00
  -14    4   12     -0.86      0.00
  -13    4   12      2.77      0.00
  -12    4   12      1.51      0.00
  -11    4   12      0.63      0.00
  -10    4   12      1.65      0.00
   -9    4   12     -0.13      0.00
   -8    4   12      1.04      0.00
   -7    4   12      0.72      0.00
   -6    4   12     -1.03      0.00
   -5    4   12      0.39      0.00
   -4    4   12      1.16      0.00
   -3    4   12     -1.00      0.00
   -2    4   12      0.70      0.00
   -1    4   12      0.30      0.00
    0    4   12     -0.93      0.00
    1    4   12      1.27      0.00
    2    4   12      0.31      0.00
    3    4   12      0.12      0.00
    4    4   12      1.37      0.00
    5    4   12     -2.32      0.00
    6    4   12      0.83      0.00
    7    4   12      0.26      0.00
    8    4   12     -0.62      0.00
    9    4   12      1.33      0.00
  -20    5   12     -1.92      0.00
  -19    5   12     -0.19      0.00
  -18    5   12     -0.26      0.00
  -17    5   12     -1.45      0.00
  -16    5   12      1.16      0.00
  -15    5   12     -2.44      0.00
  -14    5   12      3.65      0.00
  -13    5   12     -1.05      0.00
  -12    5   12      6.63      0.00
  -11    5   12     -2.62      0.00
  -10    5   12      1.16      0.00
   -9    5   12      0.33      0.00
   -8    5   12      0.25      0.00
   -7    5   12     -1.38      0.00
   -6    5   12      0.69      0.00
   -5    5   12     -1.81      0.00
   -4    5   12     -0.05      0.00
   -3    5   12      0.06      0.00
   -2    5   12      1.59      0.00
   -1    5   12     -2.03      0.00
    0    5   12      7.63      0.00
    1    5   12     -1.46      0.00
    2    5   12      2.43      0.00
    3    5   12     -1.15      0.00
    4    5   12     -0.88      0.00
    5    5   12     -0.26      0.00
    6    5   12      1.09      0.00
    7    5   12     -1.59      0.00
    8    5   12     -0.01      0.00
  -20    6   12      0.82      0.00
  -19    6   12      0.80      0.00
  -18    6   12      0.82      0.00
  -17    6   12     -0.44      0.00
  -16    6   12     -0.75      0.00
  -15    6   12      0.09      0.00
  -14    6   12      1.15      0.00
  -13    6   12     -1.30      0.00
  -12    6   12     -2.81      0.00
  -11    6   12      3.72      0.00
  -10    6   12      2.47      0.00
   -9    6   12     -0.10      0.00
   -8    6   12      2.83      0.00
   -7    6   12     -4.13      0.00
   -6    6   12      1.24      0.00
   -5    6   12     -3.91      0.00
   -4    6   12      2.07      0.00
   -3    6   12     -0.77      0.00
   -2    6   12      1.92      0.00
   -1    6   12      1.66      0.00
    0    6   12     -1.35      0.00
    1    6   12      0.78      0.00
    2    6   12     -0.82      0.00
    3    6   12      0.00      0.00
    4    6   12      0.55      0.00
    5    6   12      0.09      0.00
    6    6   12      1.23      0.00
    7    6   12     -0.11      0.00
    8    6   12      0.29      0.00
  -18    7   12     -0.61      0.00
  -17    7   12      0.36      0.00
  -16    7   12      0.03      0.00
  -15    7   12     -1.05      0.00
  -14    7   12     -1.28      0.00
  -13    7   12      0.08      0.00
  -12    7   12      3.86      0.00
  -11    7   12     -4.34      0.00
  -10    7   12      0.49      0.00
   -9    7   12     -0.01      0.00
   -8    7   12     -0.04      0.00
   -7    7   12      1.30      0.00
   -6    7   12     -0.34      0.00
   -5    7   12      0.24      0.00
   -4    7   12     -0.26      0.00
   -3    7   12      0.12      0.00
   -2    7   12      0.63      0.00
   -1    7   12      0.12      0.00
    0    7   12     -0.41      0.00
    1    7   12      0.71      0.00
    2    7   12     -0.88      0.00
    3    7   12     -0.27      0.00
    4    7   12     -0.73      0.00
    5    7   12     -0.32      0.00
    6    7   12     -0.55      0.00
  -17    8   12     -0.26      0.00
  -16    8   12     -1.25      0.00
  -15    8   12     -1.14      0.00
  -14    8   12      0.46      0.00
  -13    8   12      0.19      0.00
  -12    8   12      1.20      0.00
  -11    8   12      1.08      0.00
  -10    8   12      0.70      0.00
   -9    8   12      0.79      0.00
   -8    8   12     -2.66      0.00
   -7    8   12      1.78      0.00
   -6    8   12     -3.33      0.00
   -5    8   12      0.72      0.00
   -4    8   12     -0.64      0.00
   -3    8   12      0.43      0.00
   -2    8   12      0.18      0.00
   -1    8   12     -0.40      0.00
    0    8   12      3.63      0.00
    1    8   12      0.18      0.00
    2    8   12      0.11      0.00
    3    8   12     -0.72      0.00
    4    8   12     -1.01      0.00
    5    8   12      0.03      0.00
  -15    9   12      1.13      0.00
  -14    9   12     -1.00      0.00
  -13    9   12      1.10      0.00
  -12    9   12     -1.86      0.00
  -11    9   12      1.74      0.00
  -10    9   12     -0.19      0.00
   -9    9   12     -0.27      0.00
   -8    9   12      0.25      0.00
   -7    9   12     -0.38      0.00
   -6    9   12     -0.88      0.00
   -5    9   12     -0.25      0.00
   -4    9   12      0.04      0.00
   -3    9   12     -0.33      0.00
   -2    9   12      0.00      0.00
   -1    9   12      3.71      0.00
    0    9   12     -5.16      0.00
    1    9   12      1.18      0.00
    2    9   12     -2.31      0.00
    3    9   12      0.47      0.00
  -12   10   12      0.54      0.00
  -11   10   12      0.34      0.00
  -10   10   12     -1.07      0.00
   -9   10   12      1.65      0.00
   -8   10   12      0.58      0.00
   -7   10   12     -0.52      0.00
   -6   10   12      1.15      0.00
   -5   10   12     -0.66      0.00
   -4   10   12      0.04      0.00
   -3   10   12      1.71      0.00
   -2   10   12     -1.85      0.00
   -1   10   12     -0.58      0.00
    0   10   12      0.03      0.00
  -12    0   13      1.28      0.00
  -11    0   13     -3.58      0.00
  -10    0   13      1.16      0.00
   -9    0   13     -0.74      0.00
   -8    0   13      0.21      0.00
   -7    0   13      0.82      0.00
   -6    0   13     -0.86      0.00
   -5    0   13      2.12      0.00
   -4    0   13     -1.08      0.00
   -3    0   13      3.70      0.00
   -2    0   13     -3.70      0.00
   -1    0   13      2.23      0.00
    0    0   13     -1.59      0.00
    1    0   13      0.73      0.00
    2    0   13      0.11      0.00
    3    0   13     -0.20      0.00
    4    0   13     -1.62      0.00
    5    0   13      0.98      0.00
    6    0   13      0.23      0.00
    7    0   13      0.60      0.00
    8    0   13     -0.11      0.00
  -16    1   13     -0.83      0.00
  -15    1   13     -0.45      0.00
  -14    1   13      0.47      0.00
  -13    1   13     -1.81      0.00
  -12    1   13      0.18      0.00
  -11    1   13     -0.08      0.00
  -10    1   13      1.86      0.00
   -9    1   13      1.13      0.00
   -8    1   13     -1.31      0.00
   -7    1   13     -0.45      0.00
   -6    1   13     -1.72      0.00
   -5    1   13     -0.46      0.00
   -4    1   13      1.04      0.00
   -3    1   13      0.07      0.00
   -2    1   13      0.29      0.00
   -1    1   13      2.27      0.00
    0    1   13     -0.74      0.00
    1    1   13      0.25      0.00
    2    1   13     -1.15      0.00
    3    1   13     -0.94      0.00
    4    1   13      0.90      0.00
    5    1   13     -0.55      0.00
    6    1   13     -0.07      0.00
    7    1   13      0.89      0.00
    8    1   13      1.09      0.00
  -19    2   13     -0.99      0.00
  -18    2   13     -0.26      0.00
  -17    2   13     -0.73      0.00
  -16    2   13      0.17      0.00
  -15    2   13      0.17      0.00
  -14    2   13      1.14      0.00
  -13    2   13      0.46      0.00
  -12    2   13      1.24      0.00
  -11    2   13     -0.06      0.00
  -10    2   13      1.35      0.00
   -9    2   13      0.10      0.00
   -8    2   13     -0.74      0.00
   -7    2   13     -0.58      0.00
   -6    2   13     -0.24      0.00
   -5    2   13      0.77      0.00
   -4    2   13      0.14      0.00
   -3    2   13      2.05      0.00
   -2    2   13      0.60      0.00
   -1    2   13     -1.09      0.00
    0    2   13     -0.51      0.00
    1    2   13      1.17      0.00
    2    2   13     -0.23      0.00
    3    2   13     -0.94      0.00
    4    2   13     -1.20      0.00
    5    2   13     -0.72      0.00
    6    2   13      0.39      0.00
    7    2   13      0.11      0.00
    8    2   13     -0.18      0.00
    9    2   13      1.85      0.00
  -20    3   13     -0.19      0.00
  -19    3   13     -0.18      0.00
  -18    3   13      1.16      0.00
  -17    3   13     -0.30      0.00
  -16    3   13     -0.28      0.00
  -15    3   13      0.07      0.00
  -14    3   13      0.23      0.00
  -13    3   13      1.96      0.00
  -12    3   13     -1.51      0.00
  -11    3   13      1.94      0.00
  -10    3   13     -2.20      0.00
   -9    3   13      0.29      0.00
   -8    3   13      0.52      0.00
   -7    3   13     -1.52      0.00
   -6    3   13     -1.36      0.00
   -5    3   13      0.67      0.00
   -4    3   13     -0.19      0.00
   -3    3   13     -1.50      0.00
   -2    3   13      0.07      0.00
   -1    3   13     -0.06      0.00
    0    3   13      1.68      0.00
    1    3   13      0.24      0.00
    2    3   13      0.01      0.00
    3    3   13      0.23      0.00
    4    3   13     -0.39      0.00
    5    3   13     -0.38      0.00
    6    3   13     -0.34      0.00
    7    3   13      0.34      0.00
    8    3   13      0.35      0.00
    9    3   13     -0.22      0.00
  -21    4   13      0.69      0.00
  -20    4   13     -0.23      0.00
  -19    4   13      0.84      0.00
  -18    4   13     -1.53      0.00
  -17    4   13     -1.18      0.00
  -16    4   13      0.56      0.00
  -15    4   13      0.07      0.00
  -14    4   13     -0.65      0.00
  -13    4   13     -1.04      0.00
  -12    4   13      1.59      0.00
  -10    4   13      2.93      0.00
   -9    4   13     -0.15      0.00
   -8    4   13     -1.43      0.00
   -7    4   13     -0.66      0.00
   -6    4   13     -0.60      0.00
   -5    4   13     -1.27      0.00
   -4    4   13      0.25      0.00
   -3    4   13      2.21      0.00
   -2    4   13     -0.07      0.00
   -1    4   13      1.21      0.00
    0    4   13      0.86      0.00
    1    4   13      0.39      0.00
    2    4   13     -1.76      0.00
    3    4   13      1.03      0.00
    4    4   13     -2.58      0.00
    5    4   13      2.10      0.00
    6    4   13     -0.30      0.00
    7    4   13      0.17      0.00
    8    4   13     -0.33      0.00
  -20    5   13      1.24      0.00
  -19    5   13     -0.42      0.00
  -18    5   13      2.70      0.00
  -17    5   13     -1.85      0.00
  -16    5   13      0.89      0.00
  -15    5   13     -2.10      0.00
  -14    5   13      0.01      0.00
  -13    5   13     -2.47      0.00
  -12    5   13     -0.95      0.00
  -11    5   13      0.50      0.00
  -10    5   13     -0.69      0.00
   -9    5   13      0.82      0.00
   -8    5   13      0.09      0.00
   -7    5   13     -0.04      0.00
   -6    5   13     -0.18      0.00
   -5    5   13     -0.34      0.00
   -4    5   13      1.68      0.00
   -3    5   13     -1.78      0.00
   -2    5   13      1.05      0.00
   -1    5   13     -0.16      0.00
    0    5   13     -2.55      0.00
    1    5   13     -0.07      0.00
    2    5   13     -0.35      0.00
    3    5   13     -0.73      0.00
    4    5   13      0.92      0.00
    5    5   13     -0.42      0.00
    6    5   13     -0.73      0.00
    7    5   13      0.75      0.00
  -19    6   13     -1.58      0.00
  -18    6   13      1.51      0.00
  -17    6   13     -1.62      0.00
  -16    6   13     -0.70      0.00
  -15    6   13     -1.07      0.00
  -14    6   13      0.57      0.00
  -13    6   13      2.70      0.00
  -12    6   13      0.52      0.00
  -11    6   13     -0.92      0.00
  -10    6   13     -1.12      0.00
   -9    6   13     -0.12      0.00
   -8    6   13     -0.80      0.00
   -7    6   13      0.36      0.00
   -6    6   13      0.31      0.00
   -5    6   13     -1.43      0.00
   -4    6   13      0.05      0.00
   -3    6   13     -0.16      0.00
   -2    6   13     -0.50      0.00
   -1    6   13      0.54      0.00
    0    6   13      2.02      0.00
    1    6   13      0.51      0.00
    2    6   13     -0.64      0.00
    3    6   13     -0.17      0.00
    4    6   13     -2.52      0.00
    5    6   13      1.59      0.00
    6    6   13     -0.63      0.00
  -18    7   13     -0.73      0.00
  -17    7   13      0.90      0.00
  -16    7   13      0.47      0.00
  -15    7   13      1.88      0.00
  -14    7   13     -0.39      0.00
  -13    7   13      0.93      0.00
  -12    7   13      1.37      0.00
  -11    7   13      1.52      0.00
  -10    7   13      1.37      0.00
   -9    7   13      0.87      0.00
   -8    7   13     -0.64      0.00
   -7    7   13     -0.03      0.00
   -6    7   13     -0.67      0.00
   -5    7   13      0.47      0.00
   -4    7   13      0.26      0.00
   -3    7   13      0.98      0.00
   -2    7   13      0.61      0.00
   -1    7   13      0.91      0.00
    0    7   13      0.48      0.00
    1    7   13     -0.40      0.00
    2    7   13     -0.11      0.00
    3    7   13      0.77      0.00
    4    7   13      1.13      0.00
    5    7   13     -0.25      0.00
  -17    8   13      1.21      0.00
  -16    8   13     -0.64      0.00
  -15    8   13      0.03      0.00
  -14    8   13      1.69      0.00
  -13    8   13     -0.55      0.00
  -12    8   13     -0.06      0.00
  -11    8   13     -0.14      0.00
  -10    8   13     -0.04      0.00
   -9    8   13      0.11      0.00
   -8    8   13      0.79      0.00
   -7    8   13      0.19      0.00
   -6    8   13     -1.33      0.00
   -5    8   13      0.85      0.00
   -4    8   13      0.39      0.00
   -3    8   13     -0.36      0.00
   -2    8   13     -0.41      0.00
   -1    8   13      1.21      0.00
    0    8   13     -2.66      0.00
    1    8   13      1.47      0.00
    2    8   13      0.30      0.00
    3    8   13     -0.47      0.00
    4    8   13      0.38      0.00
  -15    9   13      0.09      0.00
  -14    9   13      0.17      0.00
  -13    9   13      0.23      0.00
  -12    9   13      0.06      0.00
  -11    9   13      0.35      0.00
  -10    9   13     -0.10      0.00
   -9    9   13      0.69      0.00
   -8    9   13     -0.41      0.00
   -7    9   13      0.50      0.00
   -6    9   13     -0.76      0.00
   -5    9   13     -0.81      0.00
   -4    9   13      1.03      0.00
   -3    9   13     -1.58      0.00
   -2    9   13      1.88      0.00
   -1    9   13     -2.04      0.00
    0    9   13      1.35      0.00
    1    9   13      1.32      0.00
    2    9   13     -0.59      0.00
  -11   10   13     -0.08      0.00
  -10   10   13      0.64      0.00
   -9   10   13     -0.04      0.00
   -8   10   13     -0.58      0.00
   -7   10   13     -0.52      0.00
   -6   10   13     -0.21      0.00
   -5   10   13      0.38      0.00
   -4   10   13     -0.19      0.00
   -3   10   13      1.30      0.00
   -2   10   13      0.04      0.00
  -13    0   14      0.09      0.00
  -12    0   14      1.07      0.00
  -11    0   14     -4.75      0.00
  -10    0   14      6.19      0.00
   -9    0   14     -2.79      0.00
   -8    0   14      0.25      0.00
   -7    0   14     -1.33      0.00
   -6    0   14      0.88      0.00
   -5    0   14     -3.70      0.00
   -4    0   14      7.58      0.00
   -3    0   14     -4.68      0.00
   -2    0   14      0.01      0.00
   -1    0   14      1.14      0.00
    0    0   14      0.60      0.00
    1    0   14      1.13      0.00
    2    0   14     -1.73      0.00
    3    0   14      1.81      0.00
    4    0   14     -1.48      0.00
    5    0   14      0.67      0.00
    6    0   14      0.72      0.00
    7    0   14     -0.53      0.00
  -14    1   14     -0.58      0.00
  -13    1   14      0.69      0.00
  -12    1   14     -0.06      0.00
  -11    1   14     -0.84      0.00
  -10    1   14     -0.08      0.00
   -9    1   14     -1.84      0.00
   -8    1   14      1.20      0.00
   -7    1   14     -0.04      0.00
   -6    1   14      2.08      0.00
   -5    1   14      0.23      0.00
   -4    1   14     -1.25      0.00
   -3    1   14      0.53      0.00
   -2    1   14      0.95      0.00
   -1    1   14     -1.50      0.00
    0    1   14     -0.01      0.00
    1    1   14      0.75      0.00
    2    1   14      0.66      0.00
    3    1   14     -0.91      0.00
    4    1   14     -1.17      0.00
    5    1   14      0.15      0.00
    6    1   14      0.67      0.00
    7    1   14      0.42      0.00
    8    1   14      1.03      0.00
  -18    2   14     -0.68      0.00
  -17    2   14     -0.13      0.00
  -16    2   14      0.56      0.00
  -15    2   14     -0.37      0.00
  -14    2   14      0.31      0.00
  -13    2   14      0.44      0.00
  -12    2   14     -2.77      0.00
  -11    2   14     -0.32      0.00
  -10    2   14     -0.34      0.00
   -9    2   14     -0.23      0.00
   -8    2   14      1.05      0.00
   -7    2   14     -1.82      0.00
   -6    2   14      0.19      0.00
   -5    2   14     -0.29      0.00
   -4    2   14     -0.18      0.00
   -3    2   14      0.12      0.00
   -2    2   14     -3.77      0.00
   -1    2   14      4.23      0.00
    0    2   14      0.81      0.00
    1    2   14     -0.01      0.00
    2    2   14      0.96      0.00
    3    2   14     -0.80      0.00
    4    2   14      3.07      0.00
    5    2   14     -0.68      0.00
    6    2   14      0.99      0.00
    7    2   14      0.19      0.00
    8    2   14      0.15      0.00
  -20    3   14      0.76      0.00
  -19    3   14     -0.86      0.00
  -18    3   14      0.27      0.00
  -17    3   14     -0.16      0.00
  -16    3   14     -0.77      0.00
  -15    3   14      2.13      0.00
  -14    3   14     -3.28      0.00
  -13    3   14      1.11      0.00
  -12    3   14     -1.02      0.00
  -11    3   14      1.00      0.00
  -10    3   14      0.11      0.00
   -9    3   14     -0.41      0.00
   -8    3   14     -0.04      0.00
   -7    3   14      0.16      0.00
   -6    3   14      0.15      0.00
   -5    3   14      1.48      0.00
   -4    3   14     -1.10      0.00
   -3    3   14      3.27      0.00
   -2    3   14      0.73      0.00
   -1    3   14     -0.03      0.00
    0    3   14     -1.23      0.00
    1    3   14      0.79      0.00
    2    3   14     -0.06      0.00
    3    3   14     -0.55      0.00
    4    3   14     -0.19      0.00
    5    3   14     -0.53      0.00
    6    3   14      1.60      0.00
    7    3   14      0.60      0.00
  -21    4   14      0.64      0.00
  -20    4   14     -1.94      0.00
  -19    4   14      1.63      0.00
  -18    4   14      1.44      0.00
  -17    4   14     -2.86      0.00
  -16    4   14      1.32      0.00
  -15    4   14     -1.01      0.00
  -14    4   14      0.00      0.00
  -13    4   14      3.24      0.00
  -12    4   14     -2.64      0.00
  -11    4   14     -1.40      0.00
  -10    4   14      0.49      0.00
   -9    4   14     -0.63      0.00
   -8    4   14     -0.62      0.00
   -7    4   14      1.34      0.00
   -6    4   14     -0.94      0.00
   -5    4   14      0.07      0.00
   -4    4   14     -0.31      0.00
   -3    4   14      1.10      0.00
   -2    4   14     -3.98      0.00
   -1    4   14      3.23      0.00
    0    4   14     -0.08      0.00
    1    4   14     -1.37      0.00
    2    4   14      1.76      0.00
    3    4   14     -3.63      0.00
    4    4   14      2.58      0.00
    5    4   14     -0.70      0.00
    6    4   14      0.14      0.00
    7    4   14      0.01      0.00
  -20    5   14      1.32      0.00
  -19    5   14     -0.80      0.00
  -18    5   14     -0.88      0.00
  -17    5   14      1.88      0.00
  -16    5   14      0.13      0.00
  -15    5   14      0.54      0.00
  -14    5   14      2.85      0.00
  -13    5   14     -1.44      0.00
  -12    5   14      4.21      0.00
  -11    5   14     -0.58      0.00
  -10    5   14     -0.34      0.00
   -9    5   14      0.01      0.00
   -8    5   14     -0.92      0.00
   -7    5   14     -1.82      0.00
   -6    5   14     -1.15      0.00
   -5    5   14      0.40      0.00
   -4    5   14     -0.75      0.00
   -3    5   14     -0.44      0.00
   -2    5   14      3.09      0.00
   -1    5   14     -1.38      0.00
    0    5   14      2.22      0.00
    1    5   14      0.60      0.00
    2    5   14     -0.75      0.00
    3    5   14      1.14      0.00
    4    5   14     -0.75      0.00
    5    5   14     -0.25      0.00
    6    5   14      1.77      0.00
  -19    6   14     -0.33      0.00
  -18    6   14      1.34      0.00
  -17    6   14     -1.05      0.00
  -16    6   14      1.34      0.00
  -15    6   14     -0.28      0.00
  -14    6   14      1.01      0.00
  -13    6   14     -0.54      0.00
  -12    6   14     -0.55      0.00
  -11    6   14      0.18      0.00
  -10    6   14      0.73      0.00
   -9    6   14     -0.27      0.00
   -8    6   14     -0.57      0.00
   -7    6   14      0.40      0.00
   -6    6   14     -0.42      0.00
   -5    6   14      0.30      0.00
   -4    6   14      0.94      0.00
   -3    6   14      1.02      0.00
   -2    6   14      0.23      0.00
   -1    6   14     -0.34      0.00
    0    6   14      0.80      0.00
    1    6   14     -0.81      0.00
    2    6   14     -0.30      0.00
    3    6   14      0.55      0.00
    4    6   14     -0.06      0.00
    5    6   14      0.78      0.00
  -18    7   14     -0.35      0.00
  -17    7   14      0.72      0.00
  -16    7   14     -2.13      0.00
  -15    7   14      0.56      0.00
  -14    7   14     -0.74      0.00
  -13    7   14      0.65      0.00
  -12    7   14     -0.66      0.00
  -11    7   14     -0.33      0.00
  -10    7   14     -1.19      0.00
   -9    7   14      0.40      0.00
   -8    7   14      0.10      0.00
   -7    7   14     -1.73      0.00
   -6    7   14     -0.68      0.00
   -5    7   14      0.37      0.00
   -4    7   14     -1.57      0.00
   -3    7   14      0.14      0.00
   -2    7   14      0.64      0.00
   -1    7   14      0.11      0.00
    0    7   14      0.78      0.00
    1    7   14      0.67      0.00
    2    7   14     -1.12      0.00
    3    7   14     -0.83      0.00
    4    7   14     -0.35      0.00
  -16    8   14     -0.55      0.00
  -15    8   14      0.92      0.00
  -14    8   14     -0.74      0.00
  -13    8   14     -0.04      0.00
  -12    8   14      1.32      0.00
  -11    8   14     -0.32      0.00
  -10    8   14     -0.03      0.00
   -9    8   14     -0.75      0.00
   -8    8   14     -0.36      0.00
   -7    8   14     -0.88      0.00
   -6    8   14      0.59      0.00
   -5    8   14     -2.29      0.00
   -4    8   14      1.40      0.00
   -3    8   14      2.05      0.00
   -2    8   14     -1.65      0.00
   -1    8   14      3.47      0.00
    0    8   14     -2.19      0.00
    1    8   14     -0.02      0.00
    2    8   14      0.01      0.00
  -14    9   14      1.20      0.00
  -13    9   14      1.04      0.00
  -12    9   14     -0.07      0.00
  -11    9   14      0.13      0.00
  -10    9   14      0.20      0.00
   -9    9   14     -0.25      0.00
   -8    9   14     -0.31      0.00
   -7    9   14      0.24      0.00
   -6    9   14      0.12      0.00
   -5    9   14      0.71      0.00
   -4    9   14     -0.47      0.00
   -3    9   14      0.77      0.00
   -2    9   14      0.37      0.00
   -1    9   14      0.88      0.00
    0    9   14      0.18      0.00
   -9   10   14      0.48      0.00
   -8   10   14     -0.96      0.00
   -7   10   14     -0.50      0.00
   -6   10   14     -1.39      0.00
   -5   10   14      0.06      0.00
  -13    0   15      2.43      0.00
  -12    0   15     -0.83      0.00
  -11    0   15     -3.27      0.00
  -10    0   15      0.46      0.00
   -9    0   15     -0.13      0.00
   -8    0   15      0.54      0.00
   -7    0   15      1.28      0.00
   -6    0   15     -0.95      0.00
   -5    0   15      0.05      0.00
   -4    0   15     -2.55      0.00
   -3    0   15     -0.39      0.00
   -2    0   15      0.96      0.00
   -1    0   15      1.56      0.00
    0    0   15     -0.68      0.00
    1    0   15     -0.53      0.00
    2    0   15      0.23      0.00
    3    0   15      1.85      0.00
    4    0   15     -0.28      0.00
    5    0   15     -0.08      0.00
    6    0   15      1.87      0.00
    7    0   15     -0.23      0.00
  -15    1   15      1.09      0.00
  -14    1   15     -0.12      0.00
  -13    1   15     -1.57      0.00
  -12    1   15      0.51      0.00
  -11    1   15      1.07      0.00
  -10    1   15      1.78      0.00
   -9    1   15     -0.16      0.00
   -8    1   15      1.35      0.00
   -7    1   15      1.09      0.00
   -6    1   15     -0.08      0.00
   -5    1   15      2.43      0.00
   -4    1   15      0.24      0.00
   -3    1   15      1.00      0.00
   -2    1   15     -0.61      0.00
   -1    1   15     -0.40      0.00
    0    1   15      2.23      0.00
    1    1   15      0.09      0.00
    2    1   15      0.50      0.00
    3    1   15     -1.29      0.00
    4    1   15      1.27      0.00
    5    1   15      0.93      0.00
    6    1   15     -0.01      0.00
    7    1   15      1.05      0.00
  -16    2   15     -0.45      0.00
  -15    2   15     -1.28      0.00
  -14    2   15      0.87      0.00
  -13    2   15      0.06      0.00
  -12    2   15     -0.89      0.00
  -11    2   15      0.10      0.00
  -10    2   15     -0.99      0.00
   -9    2   15      0.34      0.00
   -8    2   15      0.80      0.00
   -7    2   15     -0.25      0.00
   -6    2   15      0.47      0.00
   -5    2   15      0.19      0.00
   -4    2   15     -0.03      0.00
   -3    2   15     -0.11      0.00
   -2    2   15      0.45      0.00
   -1    2   15     -0.44      0.00
    0    2   15     -1.99      0.00
    1    2   15      0.70      0.00
    2    2   15     -2.22      0.00
    3    2   15      0.44      0.00
    4    2   15     -1.68      0.00
    5    2   15      0.69      0.00
    6    2   15      0.76      0.00
    7    2   15      0.33      0.00
  -19    3   15      1.31      0.00
  -18    3   15     -0.18      0.00
  -17    3   15     -1.73      0.00
  -16    3   15      2.54      0.00
  -15    3   15     -2.31      0.00
  -14    3   15      2.64      0.00
  -13    3   15     -1.09      0.00
  -12    3   15     -0.08      0.00
  -11    3   15     -0.76      0.00
  -10    3   15     -0.16      0.00
   -9    3   15      0.82      0.00
   -8    3   15     -0.57      0.00
   -7    3   15     -0.28      0.00
   -6    3   15     -0.13      0.00
   -5    3   15     -0.02      0.00
   -4    3   15     -1.16      0.00
   -3    3   15     -1.20      0.00
   -2    3   15     -2.38      0.00
   -1    3   15      1.70      0.00
    0    3   15     -1.10      0.00
    1    3   15      1.16      0.00
    2    3   15     -1.59      0.00
    3    3   15      0.21      0.00
    4    3   15      0.61      0.00
    5    3   15     -0.10      0.00
    6    3   15      0.65      0.00
  -20    4   15      0.48      0.00
  -19    4   15     -1.72      0.00
  -18    4   15      1.39      0.00
  -17    4   15     -0.01      0.00
  -16    4   15     -0.28      0.00
  -15    4   15      0.14      0.00
  -14    4   15     -0.61      0.00
  -13    4   15     -1.86      0.00
  -12    4   15      0.39      0.00
  -11    4   15     -0.44      0.00
  -10    4   15      0.01      0.00
   -9    4   15     -1.38      0.00
   -8    4   15     -0.49      0.00
   -7    4   15      0.92      0.00
   -6    4   15     -2.17      0.00
   -5    4   15     -0.35      0.00
   -4    4   15     -0.49      0.00
   -3    4   15     -0.72      0.00
   -2    4   15      0.51      0.00
   -1    4   15     -0.85      0.00
    0    4   15      0.45      0.00
    1    4   15      0.16      0.00
    2    4   15      0.88      0.00
    3    4   15     -0.34      0.00
    4    4   15      0.48      0.00
    5    4   15     -0.01      0.00
    6    4   15      0.32      0.00
  -20    5   15      0.47      0.00
  -19    5   15      0.69      0.00
  -18    5   15     -0.95      0.00
  -17    5   15     -0.79      0.00
  -16    5   15     -1.31      0.00
  -15    5   15      0.21      0.00
  -14    5   15     -0.80      0.00
  -13    5   15     -0.05      0.00
  -12    5   15     -0.99      0.00
  -11    5   15     -1.71      0.00
  -10    5   15     -0.91      0.00
   -9    5   15      2.79      0.00
   -8    5   15     -0.83      0.00
   -7    5   15      0.05      0.00
   -6    5   15      1.54      0.00
   -5    5   15     -0.75      0.00
   -4    5   15      0.17      0.00
   -3    5   15     -0.40      0.00
   -2    5   15     -0.04      0.00
   -1    5   15     -0.17      0.00
    0    5   15      0.17      0.00
    1    5   15     -1.57      0.00
    2    5   15     -0.71      0.00
    3    5   15     -0.36      0.00
    4    5   15     -0.25      0.00
    5    5   15      0.16      0.00
  -19    6   15     -0.57      0.00
  -18    6   15      0.98      0.00
  -17    6   15     -1.54      0.00
  -16    6   15     -0.34      0.00
  -15    6   15     -1.20      0.00
  -14    6   15      0.07      0.00
  -13    6   15     -1.51      0.00
  -12    6   15      0.80      0.00
  -11    6   15     -0.10      0.00
  -10    6   15      0.21      0.00
   -9    6   15     -0.95      0.00
   -8    6   15     -0.01      0.00
   -7    6   15     -0.30      0.00
   -6    6   15     -0.87      0.00
   -5    6   15     -2.56      0.00
   -4    6   15      1.31      0.00
   -3    6   15     -0.73      0.00
   -2    6   15     -1.19      0.00
   -1    6   15      1.38      0.00
    0    6   15     -1.80      0.00
    1    6   15      1.16      0.00
    2    6   15     -0.67      0.00
    3    6   15     -0.61      0.00
    4    6   15      0.79      0.00
  -17    7   15      0.33      0.00
  -16    7   15      0.54      0.00
  -15    7   15     -0.18      0.00
  -14    7   15     -0.26      0.00
  -13    7   15      1.85      0.00
  -12    7   15     -1.06      0.00
  -11    7   15     -1.16      0.00
  -10    7   15      0.37      0.00
   -9    7   15     -1.07      0.00
   -8    7   15      0.28      0.00
   -7    7   15     -0.61      0.00
   -6    7   15     -0.61      0.00
   -5    7   15      0.99      0.00
   -4    7   15     -0.38      0.00
   -3    7   15     -0.83      0.00
   -2    7   15      0.71      0.00
   -1    7   15     -0.37      0.00
    0    7   15     -1.74      0.00
    1    7   15      1.01      0.00
    2    7   15     -0.26      0.00
  -15    8   15      0.29      0.00
  -14    8   15      0.64      0.00
  -13    8   15     -0.77      0.00
  -12    8   15     -0.13      0.00
  -11    8   15      1.22      0.00
  -10    8   15     -0.03      0.00
   -9    8   15      0.49      0.00
   -8    8   15      0.27      0.00
   -7    8   15      0.17      0.00
   -6    8   15      0.33      0.00
   -5    8   15     -0.75      0.00
   -4    8   15     -0.08      0.00
   -3    8   15     -0.04      0.00
   -2    8   15     -0.94      0.00
   -1    8   15      0.44      0.00
    0    8   15      1.34      0.00
  -13    9   15     -0.26      0.00
  -12    9   15     -0.31      0.00
  -11    9   15     -0.28      0.00
  -10    9   15      0.29      0.00
   -9    9   15     -0.14      0.00
   -8    9   15     -1.16      0.00
   -7    9   15     -0.57      0.00
   -6    9   15     -0.75      0.00
   -5    9   15     -0.33      0.00
   -4    9   15      1.78      0.00
   -3    9   15     -1.50      0.00
   -2    9   15      1.06      0.00
  -14    0   16     -2.51      0.00
  -13    0   16      1.78      0.00
  -12    0   16     -2.54      0.00
  -11    0   16      1.18      0.00
  -10    0   16     -0.90      0.00
   -9    0   16      0.62      0.00
   -8    0   16      0.13      0.00
   -7    0   16      1.18      0.00
   -6    0   16      0.34      0.00
   -5    0   16      3.30      0.00
   -4    0   16     -1.98      0.00
   -3    0   16      1.47      0.00
   -2    0   16     -1.04      0.00
   -1    0   16     -1.66      0.00
    0    0   16      0.75      0.00
    1    0   16      1.98      0.00
    2    0   16     -5.42      0.00
    3    0   16      1.06      0.00
    4    0   16     -0.20      0.00
    5    0   16     -0.27      0.00
    6    0   16      1.11      0.00
  -15    1   16      1.28      0.00
  -14    1   16      1.42      0.00
  -13    1   16     -1.34      0.00
  -12    1   16     -0.73      0.00
  -11    1   16     -3.20      0.00
  -10    1   16     -0.45      0.00
   -9    1   16      0.30      0.00
   -8    1   16     -0.06      0.00
   -7    1   16      0.26      0.00
   -6    1   16      0.18      0.00
   -5    1   16     -2.74      0.00
   -4    1   16     -0.50      0.00
   -3    1   16     -0.60      0.00
   -2    1   16     -0.24      0.00
   -1    1   16      1.13      0.00
    0    1   16      1.12      0.00
    1    1   16     -2.62      0.00
    2    1   16      2.36      0.00
    3    1   16     -0.40      0.00
    4    1   16     -0.70      0.00
    5    1   16      0.58      0.00
  -16    2   16     -0.06      0.00
  -15    2   16      1.04      0.00
  -14    2   16     -0.37      0.00
  -13    2   16      0.55      0.00
  -12    2   16     -1.84      0.00
  -11    2   16      0.10      0.00
  -10    2   16     -1.70      0.00
   -9    2   16      1.04      0.00
   -8    2   16     -0.76      0.00
   -7    2   16      1.40      0.00
   -6    2   16     -0.87      0.00
   -5    2   16      0.56      0.00
   -4    2   16     -1.24      0.00
   -3    2   16     -0.16      0.00
   -2    2   16     -0.06      0.00
   -1    2   16      1.34      0.00
    0    2   16      0.58      0.00
    1    2   16      0.78      0.00
    2    2   16      1.65      0.00
    3    2   16     -1.87      0.00
    4    2   16      1.90      0.00
    5    2   16      0.26      0.00
  -17    3   16     -0.58      0.00
  -16    3   16      0.31      0.00
  -15    3   16      0.98      0.00
  -14    3   16     -0.55      0.00
  -13    3   16     -0.47      0.00
  -12    3   16     -1.11      0.00
  -11    3   16     -1.08      0.00
  -10    3   16     -0.15      0.00
   -9    3   16     -0.25      0.00
   -8    3   16      2.63      0.00
   -7    3   16     -0.64      0.00
   -6    3   16      0.75      0.00
   -5    3   16     -0.35      0.00
   -4    3   16     -0.19      0.00
   -3    3   16      1.32      0.00
   -2    3   16      0.76      0.00
   -1    3   16      0.49      0.00
    0    3   16      0.97      0.00
    1    3   16     -1.03      0.00
    2    3   16      0.34      0.00
    3    3   16     -0.36      0.00
    4    3   16      0.56      0.00
    5    3   16     -0.38      0.00
  -19    4   16      0.97      0.00
  -18    4   16     -0.08      0.00
  -17    4   16     -2.01      0.00
  -16    4   16      1.91      0.00
  -15    4   16     -0.29      0.00
  -14    4   16      0.91      0.00
  -13    4   16      1.38      0.00
  -12    4   16     -0.26      0.00
  -11    4   16     -1.42      0.00
  -10    4   16      2.03      0.00
   -9    4   16     -1.00      0.00
   -8    4   16      0.83      0.00
   -7    4   16     -0.53      0.00
   -6    4   16      1.31      0.00
   -5    4   16      0.54      0.00
   -4    4   16      0.39      0.00
   -3    4   16      1.37      0.00
   -2    4   16     -0.83      0.00
   -1    4   16     -0.71      0.00
    0    4   16      1.27      0.00
    1    4   16     -1.85      0.00
    2    4   16     -0.22      0.00
    3    4   16     -0.61      0.00
    4    4   16      0.09      0.00
  -19    5   16     -0.42      0.00
  -18    5   16     -0.13      0.00
  -17    5   16      0.44      0.00
  -16    5   16      0.24      0.00
  -15    5   16     -1.18      0.00
  -14    5   16      0.27      0.00
  -13    5   16     -0.23      0.00
  -12    5   16     -1.82      0.00
  -11    5   16      1.16      0.00
  -10    5   16     -2.10      0.00
   -9    5   16      0.37      0.00
   -8    5   16     -0.89      0.00
   -7    5   16      0.47      0.00
   -6    5   16     -2.58      0.00
   -5    5   16      2.01      0.00
   -4    5   16     -2.64      0.00
   -3    5   16     -0.36      0.00
   -2    5   16      0.45      0.00
   -1    5   16     -1.11      0.00
    0    5   16      0.47      0.00
    1    5   16      0.04      0.00
    2    5   16      0.95      0.00
    3    5   16     -0.08      0.00
  -18    6   16     -0.05      0.00
  -17    6   16      0.99      0.00
  -16    6   16     -0.52      0.00
  -15    6   16      2.98      0.00
  -14    6   16      0.05      0.00
  -13    6   16      0.72      0.00
  -12    6   16     -1.06      0.00
  -11    6   16     -0.08      0.00
  -10    6   16     -0.82      0.00
   -9    6   16      0.23      0.00
   -8    6   16      0.18      0.00
   -7    6   16     -0.03      0.00
   -6    6   16      0.68      0.00
   -5    6   16     -0.01      0.00
   -4    6   16      0.01      0.00
   -3    6   16      0.45      0.00
   -2    6   16     -0.57      0.00
   -1    6   16      1.65      0.00
    0    6   16     -1.15      0.00
    1    6   16      1.26      0.00
    2    6   16     -1.59      0.00
  -17    7   16     -0.84      0.00
  -16    7   16      0.06      0.00
  -15    7   16     -0.23      0.00
  -14    7   16     -1.01      0.00
  -13    7   16      0.62      0.00
  -12    7   16     -0.22      0.00
  -11    7   16      0.97      0.00
  -10    7   16     -0.37      0.00
   -9    7   16      0.90      0.00
   -8    7   16      0.07      0.00
   -7    7   16     -0.06      0.00
   -6    7   16     -0.24      0.00
   -5    7   16      0.76      0.00
   -4    7   16     -0.10      0.00
   -3    7   16      1.69      0.00
   -2    7   16     -0.23      0.00
   -1    7   16      0.10      0.00
    0    7   16      1.02      0.00
    1    7   16     -1.87      0.00
  -14    8   16      1.24      0.00
  -13    8   16     -0.32      0.00
  -12    8   16     -0.94      0.00
  -11    8   16     -0.12      0.00
  -10    8   16     -0.52      0.00
   -9    8   16      0.07      0.00
   -8    8   16     -0.93      0.00
   -7    8   16      0.46      0.00
   -6    8   16     -0.75      0.00
   -5    8   16      1.74      0.00
   -4    8   16     -1.09      0.00
   -3    8   16      1.42      0.00
   -2    8   16      0.04      0.00
  -10    9   16     -0.27      0.00
   -9    9   16     -0.06      0.00
   -8    9   16      1.34      0.00
   -7    9   16      0.04      0.00
   -6    9   16     -0.50      0.00
  -14    0   17     -0.12      0.00
  -13    0   17     -0.25      0.00
  -12    0   17     -2.22      0.00
  -11    0   17     -0.70      0.00
  -10    0   17      1.44      0.00
   -9    0   17      0.27      0.00
   -8    0   17      1.21      0.00
   -7    0   17      0.78      0.00
   -6    0   17     -0.32      0.00
   -5    0   17     -2.82      0.00
   -4    0   17     -0.14      0.00
   -3    0   17      1.87      0.00
   -2    0   17     -1.23      0.00
   -1    0   17      2.88      0.00
    0    0   17      0.66      0.00
    1    0   17      3.14      0.00
    2    0   17      0.20      0.00
    3    0   17     -0.87      0.00
    4    0   17      1.24      0.00
  -15    1   17     -2.09      0.00
  -14    1   17     -1.00      0.00
  -13    1   17     -0.20      0.00
  -12    1   17     -1.65      0.00
  -11    1   17     -0.54      0.00
  -10    1   17      0.14      0.00
   -9    1   17      0.32      0.00
   -8    1   17      0.72      0.00
   -7    1   17     -0.28      0.00
   -6    1   17     -1.11      0.00
   -5    1   17      0.64      0.00
   -4    1   17      0.69      0.00
   -3    1   17     -2.98      0.00
   -2    1   17      3.79      0.00
   -1    1   17     -2.79      0.00
    0    1   17     -0.12      0.00
    1    1   17     -1.82      0.00
    2    1   17     -0.56      0.00
    3    1   17      1.32      0.00
    4    1   17     -0.27      0.00
  -16    2   17      0.29      0.00
  -15    2   17     -0.54      0.00
  -14    2   17     -0.10      0.00
  -13    2   17     -1.62      0.00
  -12    2   17     -0.45      0.00
  -11    2   17      0.52      0.00
  -10    2   17      0.12      0.00
   -9    2   17      1.03      0.00
   -8    2   17      1.35      0.00
   -7    2   17     -0.29      0.00
   -6    2   17      0.43      0.00
   -5    2   17     -0.19      0.00
   -4    2   17     -0.60      0.00
   -3    2   17      0.88      0.00
   -2    2   17     -2.32      0.00
   -1    2   17      0.95      0.00
    0    2   17     -0.48      0.00
    1    2   17     -0.12      0.00
    2    2   17     -1.68      0.00
    3    2   17     -0.44      0.00
    4    2   17      0.00      0.00
  -18    3   17      0.58      0.00
  -17    3   17      0.62      0.00
  -16    3   17     -1.13      0.00
  -15    3   17     -1.33      0.00
  -14    3   17      1.53      0.00
  -13    3   17     -2.38      0.00
  -12    3   17     -0.60      0.00
  -11    3   17     -1.77      0.00
  -10    3   17      1.77      0.00
   -9    3   17     -2.04      0.00
   -8    3   17     -0.39      0.00
   -7    3   17      0.94      0.00
   -6    3   17     -1.97      0.00
   -5    3   17      0.84      0.00
   -4    3   17     -2.15      0.00
   -3    3   17      0.20      0.00
   -2    3   17     -1.44      0.00
   -1    3   17     -0.05      0.00
    0    3   17     -0.18      0.00
    1    3   17     -1.21      0.00
    2    3   17      1.69      0.00
    3    3   17     -1.23      0.00
  -18    4   17     -0.22      0.00
  -17    4   17     -0.18      0.00
  -16    4   17      0.66      0.00
  -15    4   17      0.31      0.00
  -14    4   17     -3.15      0.00
  -13    4   17     -0.83      0.00
  -12    4   17     -0.96      0.00
  -11    4   17     -0.68      0.00
  -10    4   17     -1.04      0.00
   -9    4   17      3.38      0.00
   -8    4   17     -0.51      0.00
   -7    4   17      0.61      0.00
   -6    4   17     -1.33      0.00
   -5    4   17     -0.95      0.00
   -4    4   17     -1.43      0.00
   -3    4   17     -1.92      0.00
   -2    4   17      1.52      0.00
   -1    4   17     -0.97      0.00
    0    4   17     -0.02      0.00
    1    4   17      0.73      0.00
    2    4   17     -0.45      0.00
    3    4   17     -0.21      0.00
  -19    5   17     -0.13      0.00
  -18    5   17     -0.56      0.00
  -17    5   17      0.90      0.00
  -16    5   17     -0.72      0.00
  -15    5   17     -0.46      0.00
  -14    5   17      1.47      0.00
  -13    5   17     -1.84      0.00
  -12    5   17      0.92      0.00
  -11    5   17     -1.17      0.00
  -10    5   17      1.62      0.00
   -9    5   17      0.35      0.00
   -8    5   17     -0.63      0.00
   -7    5   17      2.05      0.00
   -6    5   17     -0.83      0.00
   -5    5   17     -0.36      0.00
   -4    5   17      2.31      0.00
   -3    5   17     -0.23      0.00
   -2    5   17     -0.24      0.00
   -1    5   17      0.39      0.00
    0    5   17     -0.49      0.00
    1    5   17     -1.18      0.00
    2    5   17     -0.35      0.00
  -17    6   17     -0.14      0.00
  -16    6   17     -1.75      0.00
  -15    6   17     -0.76      0.00
  -14    6   17     -0.59      0.00
  -13    6   17     -1.48      0.00
  -12    6   17      0.28      0.00
  -11    6   17     -0.30      0.00
  -10    6   17      0.28      0.00
   -9    6   17      1.12      0.00
   -8    6   17     -0.39      0.00
   -7    6   17     -0.07      0.00
   -6    6   17     -0.32      0.00
   -5    6   17      0.74      0.00
   -4    6   17     -0.69      0.00
   -3    6   17      0.38      0.00
   -2    6   17     -1.51      0.00
   -1    6   17     -0.71      0.00
    0    6   17     -0.15      0.00
  -16    7   17      0.38      0.00
  -15    7   17     -0.70      0.00
  -14    7   17     -0.52      0.00
  -13    7   17     -0.13      0.00
  -12    7   17     -1.47      0.00
  -11    7   17      0.71      0.00
  -10    7   17     -0.31      0.00
   -9    7   17      0.32      0.00
   -8    7   17      0.60      0.00
   -7    7   17     -1.14      0.00
   -6    7   17      1.37      0.00
   -5    7   17     -2.24      0.00
   -4    7   17     -0.12      0.00
   -3    7   17     -1.29      0.00
   -2    7   17      0.12      0.00
   -1    7   17     -0.89      0.00
  -13    8   17      1.10      0.00
  -12    8   17     -0.91      0.00
  -11    8   17      0.17      0.00
  -10    8   17      0.08      0.00
   -9    8   17     -0.13      0.00
   -8    8   17      0.15      0.00
   -7    8   17      0.21      0.00
   -6    8   17     -1.03      0.00
   -5    8   17      0.09      0.00
   -4    8   17      1.37      0.00
  -14    0   18     -2.06      0.00
  -13    0   18      0.13      0.00
  -12    0   18      1.32      0.00
  -11    0   18     -1.68      0.00
  -10    0   18      0.29      0.00
   -9    0   18     -1.39      0.00
   -8    0   18      0.05      0.00
   -7    0   18     -0.78      0.00
   -6    0   18     -1.06      0.00
   -5    0   18      0.37      0.00
   -4    0   18     -0.54      0.00
   -3    0   18     -0.19      0.00
   -2    0   18      0.01      0.00
   -1    0   18     -2.41      0.00
    0    0   18     -4.40      0.00
    1    0   18     -1.55      0.00
    2    0   18     -0.38      0.00
    3    0   18     -0.44      0.00
  -15    1   18      0.15      0.00
  -14    1   18     -0.04      0.00
  -13    1   18     -0.21      0.00
  -12    1   18     -3.47      0.00
  -11    1   18      0.63      0.00
  -10    1   18     -0.58      0.00
   -9    1   18      0.31      0.00
   -8    1   18     -0.31      0.00
   -7    1   18      0.35      0.00
   -6    1   18     -0.72      0.00
   -5    1   18      0.07      0.00
   -4    1   18     -0.48      0.00
   -3    1   18     -0.74      0.00
   -2    1   18      0.37      0.00
   -1    1   18      1.07      0.00
    0    1   18      2.17      0.00
    1    1   18      0.07      0.00
    2    1   18     -1.78      0.00
  -17    2   18      1.65      0.00
  -16    2   18      0.30      0.00
  -15    2   18      0.52      0.00
  -14    2   18      0.05      0.00
  -13    2   18     -1.01      0.00
  -12    2   18     -0.17      0.00
  -11    2   18     -0.65      0.00
  -10    2   18     -0.68      0.00
   -9    2   18      1.97      0.00
   -8    2   18     -0.45      0.00
   -7    2   18     -0.15      0.00
   -6    2   18     -0.37      0.00
   -5    2   18     -1.64      0.00
   -4    2   18      1.34      0.00
   -3    2   18      0.95      0.00
   -2    2   18      1.18      0.00
   -1    2   18     -0.60      0.00
    0    2   18     -1.06      0.00
    1    2   18     -0.24      0.00
    2    2   18      0.97      0.00
  -18    3   18      0.63      0.00
  -17    3   18      0.04      0.00
  -16    3   18      0.25      0.00
  -15    3   18      0.55      0.00
  -14    3   18     -0.36      0.00
  -13    3   18      0.62      0.00
  -12    3   18     -1.35      0.00
  -11    3   18      1.73      0.00
  -10    3   18     -0.04      0.00
   -9    3   18      1.14      0.00
   -8    3   18      0.07      0.00
   -7    3   18      0.10      0.00
   -6    3   18     -0.26      0.00
   -5    3   18      1.00      0.00
   -4    3   18     -0.14      0.00
   -3    3   18      0.35      0.00
   -2    3   18      0.34      0.00
   -1    3   18     -0.25      0.00
    0    3   18      0.32      0.00
    1    3   18      0.00      0.00
    2    3   18     -1.90      0.00
  -19    4   18      0.59      0.00
  -18    4   18     -1.01      0.00
  -17    4   18     -1.07      0.00
  -16    4   18      1.13      0.00
  -15    4   18     -1.01      0.00
  -14    4   18      1.86      0.00
  -13    4   18     -0.79      0.00
  -12    4   18      1.01      0.00
  -11    4   18     -0.34      0.00
  -10    4   18     -0.87      0.00
   -9    4   18      0.28      0.00
   -8    4   18     -0.12      0.00
   -7    4   18     -0.51      0.00
   -6    4   18      1.54      0.00
   -5    4   18      0.77      0.00
   -4    4   18      2.29      0.00
   -3    4   18     -0.21      0.00
   -2    4   18      0.43      0.00
   -1    4   18      0.20      0.00
    0    4   18     -1.34      0.00
    1    4   18     -0.15      0.00
  -18    5   18      1.73      0.00
  -17    5   18     -0.99      0.00
  -16    5   18      1.16      0.00
  -15    5   18     -0.34      0.00
  -14    5   18     -0.18      0.00
  -13    5   18      0.30      0.00
  -12    5   18     -0.76      0.00
  -11    5   18      0.18      0.00
  -10    5   18      1.44      0.00
   -9    5   18     -0.41      0.00
   -8    5   18     -0.55      0.00
   -7    5   18      1.50      0.00
   -6    5   18     -0.93      0.00
   -5    5   18      0.26      0.00
   -4    5   18     -0.74      0.00
   -3    5   18     -0.30      0.00
   -2    5   18     -0.01      0.00
   -1    5   18     -0.68      0.00
    0    5   18      1.55      0.00
  -16    6   18     -0.27      0.00
  -15    6   18      0.51      0.00
  -14    6   18     -0.75      0.00
  -13    6   18      0.57      0.00
  -12    6   18     -0.71      0.00
  -11    6   18      1.03      0.00
  -10    6   18     -0.58      0.00
   -9    6   18     -0.23      0.00
   -8    6   18      1.36      0.00
   -7    6   18     -1.26      0.00
   -6    6   18      0.43      0.00
   -5    6   18      0.19      0.00
   -4    6   18     -0.33      0.00
   -3    6   18      0.71      0.00
   -2    6   18      0.37      0.00
  -14    7   18      0.47      0.00
  -13    7   18      0.75      0.00
  -12    7   18     -0.91      0.00
  -11    7   18      0.51      0.00
  -10    7   18     -0.41      0.00
   -9    7   18     -0.03      0.00
   -8    7   18     -0.20      0.00
   -7    7   18      0.48      0.00
   -6    7   18      0.19      0.00
  -14    0   19      1.04      0.00
  -13    0   19     -1.52      0.00
  -12    0   19     -4.26      0.00
  -11    0   19      0.53      0.00
  -10    0   19      1.08      0.00
   -9    0   19      0.78      0.00
   -8    0   19      0.40      0.00
   -7    0   19     -1.30      0.00
   -6    0   19      0.28      0.00
   -5    0   19      0.74      0.00
   -4    0   19      0.83      0.00
   -3    0   19     -1.00      0.00
   -2    0   19      2.65      0.00
   -1    0   19      0.82      0.00
    0    0   19      0.93      0.00
    1    0   19      1.48      0.00
  -16    1   19      1.43      0.00
  -15    1   19      0.61      0.00
  -14    1   19     -0.53      0.00
  -13    1   19      1.62      0.00
  -12    1   19      0.91      0.00
  -11    1   19      1.45      0.00
  -10    1   19     -0.79      0.00
   -9    1   19     -0.78      0.00
   -8    1   19      0.59      0.00
   -7    1   19     -0.25      0.00
   -6    1   19     -0.60      0.00
   -5    1   19      0.26      0.00
   -4    1   19      0.94      0.00
   -3    1   19      0.83      0.00
   -2    1   19     -0.36      0.00
   -1    1   19     -1.94      0.00
    0    1   19     -0.95      0.00
    1    1   19     -0.82      0.00
  -17    2   19     -1.14      0.00
  -16    2   19     -0.05      0.00
  -15    2   19     -1.03      0.00
  -14    2   19     -0.22      0.00
  -13    2   19     -0.67      0.00
  -12    2   19     -0.41      0.00
  -11    2   19     -1.40      0.00
  -10    2   19     -0.28      0.00
   -9    2   19     -0.05      0.00
   -8    2   19     -2.60      0.00
   -7    2   19      0.79      0.00
   -6    2   19      0.55      0.00
   -5    2   19      0.01      0.00
   -4    2   19      0.07      0.00
   -3    2   19     -1.42      0.00
   -2    2   19     -0.14      0.00
   -1    2   19     -0.43      0.00
    0    2   19      0.55      0.00
  -18    3   19     -1.60      0.00
  -17    3   19      1.98      0.00
  -16    3   19     -1.24      0.00
  -15    3   19      0.39      0.00
  -14    3   19      0.08      0.00
  -13    3   19     -0.83      0.00
  -12    3   19      0.30      0.00
  -11    3   19     -0.75      0.00
  -10    3   19      0.24      0.00
   -9    3   19     -0.21      0.00
   -8    3   19      0.04      0.00
   -7    3   19      1.12      0.00
   -6    3   19     -0.85      0.00
   -5    3   19      0.45      0.00
   -4    3   19      0.91      0.00
   -3    3   19     -0.40      0.00
   -2    3   19      0.91      0.00
   -1    3   19      0.11      0.00
    0    3   19     -1.10      0.00
  -18    4   19      0.76      0.00
  -17    4   19      0.02      0.00
  -16    4   19      0.66      0.00
  -15    4   19     -1.56      0.00
  -14    4   19      0.36      0.00
  -13    4   19     -1.60      0.00
  -12    4   19      0.14      0.00
  -11    4   19      0.77      0.00
  -10    4   19      0.35      0.00
   -9    4   19      0.41      0.00
   -8    4   19      0.21      0.00
   -7    4   19     -0.49      0.00
   -6    4   19     -0.53      0.00
   -5    4   19     -0.28      0.00
   -4    4   19     -0.50      0.00
   -3    4   19     -0.09      0.00
   -2    4   19      0.12      0.00
   -1    4   19     -1.41      0.00
  -17    5   19      0.07      0.00
  -16    5   19     -0.68      0.00
  -15    5   19      0.29      0.00
  -14    5   19     -0.53      0.00
  -13    5   19     -0.56      0.00
  -12    5   19      1.14      0.00
  -11    5   19     -1.25      0.00
  -10    5   19     -0.17      0.00
   -9    5   19      1.01      0.00
   -8    5   19     -1.66      0.00
   -7    5   19      1.19      0.00
   -6    5   19      0.65      0.00
   -5    5   19     -0.26      0.00
   -4    5   19      1.98      0.00
   -3    5   19     -0.98      0.00
   -2    5   19      0.07      0.00
  -15    6   19     -0.29      0.00
  -14    6   19      0.24      0.00
  -13    6   19     -0.19      0.00
  -12    6   19      0.21      0.00
  -11    6   19     -0.86      0.00
  -10    6   19      0.81      0.00
   -9    6   19      0.23      0.00
   -8    6   19     -0.38      0.00
   -7    6   19      0.20      0.00
   -6    6   19      0.64      0.00
   -5    6   19      0.54      0.00
  -11    7   19      2.09      0.00
  -10    7   19     -0.39      0.00
   -9    7   19     -0.70      0.00
   -8    7   19      0.91      0.00
  -15    0   20     -0.43      0.00
  -14    0   20      1.13      0.00
  -13    0   20      2.99      0.00
  -12    0   20      1.69      0.00
  -11    0   20     -5.19      0.00
  -10    0   20      4.07      0.00
   -9    0   20     -5.49      0.00
   -8    0   20      1.26      0.00
   -7    0   20     -0.47      0.00
   -6    0   20      1.19      0.00
   -5    0   20     -1.48      0.00
   -4    0   20      0.62      0.00
   -3    0   20     -0.84      0.00
   -2    0   20     -0.97      0.00
   -1    0   20      0.67      0.00
  -16    1   20     -0.37      0.00
  -15    1   20      0.42      0.00
  -14    1   20      0.01      0.00
  -13    1   20     -2.08      0.00
  -12    1   20      0.32      0.00
  -11    1   20      1.43      0.00
  -10    1   20     -1.02      0.00
   -9    1   20      1.76      0.00
   -8    1   20      0.25      0.00
   -7    1   20      0.76      0.00
   -6    1   20      0.07      0.00
   -5    1   20      0.58      0.00
   -4    1   20      0.11      0.00
   -3    1   20      0.27      0.00
   -2    1   20     -0.89      0.00
   -1    1   20     -0.58      0.00
  -17    2   20      1.16      0.00
  -16    2   20     -0.77      0.00
  -15    2   20      1.63      0.00
  -14    2   20     -0.68      0.00
  -13    2   20      1.99      0.00
  -12    2   20     -1.71      0.00
  -11    2   20      2.58      0.00
  -10    2   20     -2.21      0.00
   -9    2   20      3.44      0.00
   -8    2   20     -1.79      0.00
   -7    2   20      0.37      0.00
   -6    2   20     -0.18      0.00
   -5    2   20      0.61      0.00
   -4    2   20      0.41      0.00
   -3    2   20      0.54      0.00
   -2    2   20      0.43      0.00
  -18    3   20      0.95      0.00
  -17    3   20     -0.22      0.00
  -16    3   20      0.69      0.00
  -15    3   20     -0.37      0.00
  -14    3   20      0.77      0.00
  -13    3   20      0.29      0.00
  -12    3   20      0.49      0.00
  -11    3   20      0.19      0.00
  -10    3   20      1.03      0.00
   -9    3   20     -1.39      0.00
   -8    3   20      0.21      0.00
   -7    3   20      0.37      0.00
   -6    3   20      0.02      0.00
   -5    3   20      0.69      0.00
   -4    3   20      0.05      0.00
   -3    3   20     -0.30      0.00
   -2    3   20     -1.23      0.00
  -17    4   20     -1.14      0.00
  -16    4   20      1.90      0.00
  -15    4   20     -0.24      0.00
  -14    4   20      0.92      0.00
  -13    4   20      0.96      0.00
  -12    4   20     -0.64      0.00
  -11    4   20     -0.03      0.00
  -10    4   20     -1.52      0.00
   -9    4   20     -0.20      0.00
   -8    4   20      0.54      0.00
   -7    4   20      0.27      0.00
   -6    4   20      0.74      0.00
   -5    4   20      0.72      0.00
   -4    4   20      0.33      0.00
   -3    4   20     -0.02      0.00
  -15    5   20     -0.85      0.00
  -14    5   20      1.52      0.00
  -13    5   20     -0.79      0.00
  -12    5   20     -0.28      0.00
  -11    5   20      1.26      0.00
  -10    5   20     -1.28      0.00
   -9    5   20      1.98      0.00
   -8    5   20     -2.08      0.00
   -7    5   20      0.56      0.00
   -6    5   20      0.64      0.00
   -5    5   20     -0.79      0.00
  -12    6   20      0.84      0.00
  -11    6   20     -0.55      0.00
  -10    6   20     -0.05      0.00
   -9    6   20     -1.28      0.00
   -8    6   20      1.36      0.00
  -15    0   21     -0.15      0.00
  -14    0   21     -0.11      0.00
  -13    0   21      2.24      0.00
  -12    0   21      1.01      0.00
  -11    0   21      0.01      0.00
  -10    0   21      0.93      0.00
   -9    0   21      1.32      0.00
   -8    0   21      0.89      0.00
   -7    0   21     -0.05      0.00
   -6    0   21      1.62      0.00
   -5    0   21     -1.64      0.00
   -4    0   21      3.79      0.00
   -3    0   21     -2.36      0.00
  -16    1   21      0.53      0.00
  -15    1   21      0.94      0.00
  -14    1   21      1.62      0.00
  -13    1   21     -0.63      0.00
  -12    1   21     -1.10      0.00
  -11    1   21      0.23      0.00
  -10    1   21      0.15      0.00
   -9    1   21     -2.55      0.00
   -8    1   21     -0.08      0.00
   -7    1   21     -0.06      0.00
   -6    1   21     -0.26      0.00
   -5    1   21      1.50      0.00
   -4    1   21     -0.79      0.00
  -17    2   21      0.39      0.00
  -16    2   21      0.98      0.00
  -15    2   21      1.16      0.00
  -14    2   21      0.07      0.00
  -13    2   21      2.55      0.00
  -12    2   21      0.79      0.00
  -11    2   21     -1.43      0.00
  -10    2   21     -1.22      0.00
   -9    2   21      0.55      0.00
   -8    2   21      0.90      0.00
   -7    2   21      0.25      0.00
   -6    2   21      1.29      0.00
   -5    2   21     -0.66      0.00
   -4    2   21      0.36      0.00
  -16    3   21     -0.88      0.00
  -15    3   21      0.70      0.00
  -14    3   21      1.22      0.00
  -13    3   21     -1.64      0.00
  -12    3   21     -0.42      0.00
  -11    3   21     -0.10      0.00
  -10    3   21     -0.89      0.00
   -9    3   21      0.79      0.00
   -8    3   21     -1.17      0.00
   -7    3   21      0.84      0.00
   -6    3   21      0.34      0.00
   -5    3   21     -0.37      0.00
  -15    4   21      0.07      0.00
  -14    4   21     -0.44      0.00
  -13    4   21      0.80      0.00
  -12    4   21      0.76      0.00
  -11    4   21     -0.27      0.00
  -10    4   21      0.05      0.00
   -9    4   21      0.06      0.00
   -8    4   21      0.16      0.00
   -7    4   21     -0.36      0.00
   -6    4   21     -0.18      0.00
  -14    0   22     -2.06      0.00
  -13    0   22     -0.07      0.00
  -12    0   22      1.56      0.00
  -11    0   22     -0.83      0.00
  -10    0   22      0.98      0.00
   -9    0   22      0.26      0.00
   -8    0   22     -0.48      0.00
   -7    0   22      1.74      0.00
   -6    0   22     -0.74      0.00
  -15    1   22      0.36      0.00
  -14    1   22      2.65      0.00
  -13    1   22      0.71      0.00
  -12    1   22     -0.98      0.00
  -11    1   22     -0.38      0.00
  -10    1   22     -0.40      0.00
   -9    1   22      1.42      0.00
   -8    1   22      0.53      0.00
   -7    1   22      0.36      0.00
  -15    2   22     -0.25      0.00
  -14    2   22     -0.84      0.00
  -13    2   22     -0.53      0.00
  -12    2   22      0.44      0.00
  -11    2   22      1.85      0.00
  -10    2   22     -0.48      0.00
   -9    2   22      0.95      0.00
   -8    2   22     -0.55      0.00
   -7    2   22     -0.02      0.00
  -13    3   22      1.55      0.00
  -12    3   22     -1.49      0.00
  -11    3   22      0.47      0.00
  -10    3   22     -0.68      0.00
   -9    3   22      0.21      0.00
   15    0    0     -1.07      0.00
   16    0    0      0.15      0.00
   17    0    0     -0.58      0.00
   18    0    0      0.10      0.00
   19    0    0      0.94      0.00
   20    0    0     -0.25      0.00
   17    1    0     -0.64      0.00
   18    1    0     -0.13      0.00
   19    1    0      0.60      0.00
   20    1    0     -0.01      0.00
   18    2    0      0.01      0.00
   19    2    0      0.66      0.00
   15    3    0     -2.58      0.00
   19    3    0      0.07      0.00
   19    4    0      0.36      0.00
   17    7    0     -0.44      0.00
   13   10    0      0.72      0.00
   11   11    0      0.00      0.00
    8   12    0     -1.30      0.00
  -20    0    1      0.46      0.00
  -19    0    1     -0.35      0.00
  -18    0    1      1.25      0.00
  -17    0    1     -2.13      0.00
  -16    0    1     -1.86      0.00
   -1    0    1    -38.52      0.00
   15    0    1     -0.75      0.00
   16    0    1     -1.69      0.00
   17    0    1      0.61      0.00
   18    0    1      0.54      0.00
   19    0    1      0.87      0.00
  -20    1    1      0.15      0.00
  -19    1    1      0.50      0.00
  -18    1    1      0.50      0.00
   17    1    1      0.50      0.00
   18    1    1      0.71      0.00
   19    1    1      0.00      0.00
  -20    2    1     -0.39      0.00
  -19    2    1      1.43      0.00
   18    2    1      0.67      0.00
   19    2    1     -0.09      0.00
  -20    3    1     -0.15      0.00
   -8    3    1      2.88      0.00
   19    3    1      0.60      0.00
  -19    5    1     -0.48      0.00
   18    5    1     -0.58      0.00
  -18    6    1     -0.19      0.00
   17    6    1      0.13      0.00
  -16    8    1     -1.09      0.00
   15    8    1     -1.25      0.00
  -15    9    1     -1.09      0.00
   14    9    1     -0.82      0.00
  -13   10    1      1.10      0.00
   12   10    1      0.68      0.00
  -11   11    1      0.02      0.00
   10   11    1      0.11      0.00
   -8   12    1     -0.32      0.00
    7   12    1     -0.71      0.00
  -21    0    2      0.04      0.00
  -20    0    2     -0.07      0.00
  -19    0    2      0.36      0.00
  -18    0    2      0.23      0.00
  -17    0    2     -1.97      0.00
  -16    0    2     -2.56      0.00
   -9    0    2     -0.56      0.00
    7    0    2     -2.43      0.00
    8    0    2     -2.98      0.00
   14    0    2     -2.94      0.00
   15    0    2     -0.27      0.00
   16    0    2     -0.01      0.00
   17    0    2      0.10      0.00
   18    0    2      0.34      0.00
   19    0    2      0.22      0.00
  -20    1    2      0.25      0.00
  -19    1    2      0.38      0.00
  -18    1    2     -0.11      0.00
   16    1    2      0.05      0.00
   17    1    2      0.61      0.00
   18    1    2      0.30      0.00
  -20    2    2     -0.21      0.00
  -19    2    2      1.31      0.00
   17    2    2      1.17      0.00
   18    2    2      0.23      0.00
  -20    3    2     -0.46      0.00
   18    3    2      0.20      0.00
  -20    4    2     -0.41      0.00
   18    4    2      0.07      0.00
   -9   12    2     -0.10      0.00
    7   12    2      0.00      0.00
  -21    0    3     -0.05      0.00
  -20    0    3      1.07      0.00
  -19    0    3      0.30      0.00
  -18    0    3     -1.18      0.00
  -17    0    3      1.08      0.00
   13    0    3     -2.05      0.00
   14    0    3      0.31      0.00
   15    0    3     -0.75      0.00
   16    0    3      0.72      0.00
   17    0    3      0.03      0.00
   18    0    3     -0.23      0.00
  -21    1    3      0.10      0.00
  -20    1    3      0.06      0.00
  -19    1    3     -0.19      0.00
  -18    1    3     -0.24      0.00
   15    1    3     -0.06      0.00
   16    1    3      0.91      0.00
   17    1    3      0.32      0.00
   18    1    3     -0.30      0.00
  -21    2    3      0.49      0.00
  -20    2    3      0.12      0.00
   17    2    3      0.92      0.00
   18    2    3     -0.11      0.00
  -19    6    3     -0.72      0.00
   16    6    3      0.56      0.00
  -18    7    3     -0.06      0.00
   15    7    3      0.83      0.00
  -17    8    3     -0.23      0.00
  -15    8    3      0.58      0.00
   14    8    3     -0.66      0.00
  -14   10    3     -0.40      0.00
   11   10    3      0.12      0.00
  -12   11    3      0.39      0.00
    9   11    3      0.48      0.00
   -9   12    3     -0.30      0.00
    6   12    3      0.48      0.00
  -21    0    4      0.99      0.00
  -20    0    4      0.64      0.00
  -19    0    4     -0.23      0.00
  -18    0    4     -0.22      0.00
  -17    0    4     -1.10      0.00
    6    0    4     -3.28      0.00
   12    0    4     -1.03      0.00
   13    0    4     -0.15      0.00
   14    0    4     -0.56      0.00
   15    0    4     -0.23      0.00
   16    0    4      0.88      0.00
   17    0    4      0.53      0.00
  -21    1    4      0.70      0.00
  -20    1    4      0.45      0.00
  -19    1    4      0.26      0.00
   14    1    4      0.19      0.00
   15    1    4     -0.02      0.00
   16    1    4      0.74      0.00
   17    1    4     -0.06      0.00
  -21    2    4      0.16      0.00
  -20    2    4     -0.02      0.00
   16    2    4      0.70      0.00
   17    2    4      0.36      0.00
  -21    3    4      0.59      0.00
   17    3    4      0.66      0.00
  -20    5    4      0.04      0.00
   16    5    4      0.29      0.00
  -16    9    4     -0.07      0.00
   12    9    4      0.16      0.00
  -14   10    4      1.44      0.00
  -12   11    4     -0.15      0.00
    8   11    4     -0.01      0.00
   -9   12    4      0.19      0.00
    5   12    4      1.13      0.00
  -21    0    5      0.00      0.00
  -20    0    5     -0.88      0.00
  -19    0    5      0.74      0.00
  -18    0    5     -0.28      0.00
  -17    0    5     -3.47      0.00
  -13    0    5      1.35      0.00
   11    0    5      2.69      0.00
   12    0    5     -0.76      0.00
   13    0    5      0.11      0.00
   14    0    5      0.90      0.00
   15    0    5      0.04      0.00
   16    0    5      0.81      0.00
   17    0    5      0.18      0.00
  -21    1    5      0.35      0.00
  -20    1    5      0.24      0.00
  -19    1    5      0.89      0.00
   13    1    5      0.70      0.00
   14    1    5      0.68      0.00
   15    1    5      0.33      0.00
   16    1    5      0.00      0.00
   17    1    5      0.09      0.00
  -21    2    5      0.17      0.00
  -20    2    5      1.05      0.00
   15    2    5      0.55      0.00
   16    2    5      0.26      0.00
  -21    3    5     -0.16      0.00
   16    3    5      0.40      0.00
  -21    4    5     -0.14      0.00
   16    4    5      0.22      0.00
  -16    9    5      0.88      0.00
   11    9    5     -1.11      0.00
  -12   11    5     -0.96      0.00
    7   11    5     -0.16      0.00
   -9   12    5     -0.24      0.00
    4   12    5      0.73      0.00
  -21    0    6      0.55      0.00
  -20    0    6      0.74      0.00
  -19    0    6      0.23      0.00
  -18    0    6     -1.24      0.00
  -17    0    6      2.51      0.00
  -15    0    6      5.79      0.00
  -10    0    6     -1.51      0.00
    5    0    6     -0.27      0.00
   10    0    6      0.50      0.00
   11    0    6     -0.40      0.00
   12    0    6     -0.43      0.00
   13    0    6      0.72      0.00
   14    0    6      0.31      0.00
   15    0    6     -0.65      0.00
   16    0    6      0.84      0.00
  -21    1    6      0.95      0.00
  -20    1    6      0.23      0.00
  -19    1    6     -0.28      0.00
  -15    1    6     -1.60      0.00
   12    1    6     -0.73      0.00
   13    1    6     -0.40      0.00
   14    1    6      0.76      0.00
   15    1    6      0.69      0.00
   16    1    6      0.17      0.00
  -21    2    6      0.64      0.00
  -14    2    6     -0.61      0.00
   14    2    6      0.27      0.00
   15    2    6      0.75      0.00
   16    2    6     -0.10      0.00
   15    3    6      0.11      0.00
  -21    4    6     -0.62      0.00
  -20    6    6     -1.14      0.00
   14    6    6     -0.44      0.00
  -19    7    6     -0.32      0.00
   13    7    6     -0.02      0.00
  -18    8    6      0.22      0.00
   12    8    6      0.51      0.00
    9   10    6      0.61      0.00
  -12   11    6     -1.05      0.00
    6   11    6     -1.35      0.00
   -9   12    6     -0.60      0.00
    3   12    6      0.11      0.00
  -21    0    7      0.87      0.00
  -20    0    7      0.29      0.00
  -19    0    7     -0.24      0.00
  -18    0    7      0.20      0.00
  -17    0    7     -0.37      0.00
  -11    0    7      2.09      0.00
  -10    0    7     -1.86      0.00
    4    0    7      1.34      0.00
   10    0    7     -0.95      0.00
   11    0    7      0.20      0.00
   12    0    7     -0.25      0.00
   13    0    7      1.28      0.00
   14    0    7      0.82      0.00
   15    0    7     -0.12      0.00
  -21    1    7      0.43      0.00
  -20    1    7     -1.06      0.00
  -19    1    7      0.85      0.00
   11    1    7      1.36      0.00
   12    1    7      0.01      0.00
   13    1    7     -0.12      0.00
   14    1    7      0.43      0.00
   15    1    7      0.02      0.00
  -21    2    7      0.46      0.00
  -13    2    7      1.03      0.00
   13    2    7      0.43      0.00
   14    2    7      0.11      0.00
   15    2    7     -0.15      0.00
   14    3    7      0.13      0.00
   15    3    7      0.68      0.00
  -21    5    7      0.55      0.00
   14    5    7      0.23      0.00
  -20    6    7     -0.14      0.00
   13    6    7      0.53      0.00
  -19    7    7     -0.32      0.00
   12    7    7     -0.84      0.00
  -18    8    7      0.61      0.00
   11    8    7      0.39      0.00
  -15   10    7      2.11      0.00
    8   10    7      0.93      0.00
  -12   11    7     -0.78      0.00
    5   11    7     -0.89      0.00
   -9   12    7     -0.24      0.00
   -8   12    7      0.03      0.00
    1   12    7     -0.32      0.00
    2   12    7      0.13      0.00
  -21    0    8     -0.07      0.00
  -20    0    8      0.50      0.00
  -19    0    8     -0.43      0.00
  -18    0    8     -1.01      0.00
  -17    0    8      1.71      0.00
  -11    0    8      0.97      0.00
  -10    0    8     -1.71      0.00
    2    0    8     -3.14      0.00
    3    0    8      0.56      0.00
   10    0    8     -0.58      0.00
   11    0    8     -1.19      0.00
   12    0    8     -0.46      0.00
   13    0    8      0.41      0.00
   14    0    8      0.35      0.00
  -21    1    8      0.23      0.00
  -20    1    8      0.39      0.00
  -19    1    8      0.52      0.00
  -13    1    8     -1.95      0.00
   11    1    8      1.33      0.00
   12    1    8     -1.22      0.00
   13    1    8      0.09      0.00
   14    1    8      0.54      0.00
  -21    2    8      0.77      0.00
   12    2    8      0.66      0.00
   13    2    8      0.48      0.00
   14    2    8     -0.29      0.00
  -18    3    8     -1.41      0.00
  -15    3    8      1.85      0.00
   13    3    8      0.07      0.00
   14    3    8      0.33      0.00
  -21    5    8      0.16      0.00
   13    5    8      0.06      0.00
  -17    6    8     -3.53      0.00
  -18    7    8     -0.22      0.00
  -18    8    8      0.32      0.00
   10    8    8      0.29      0.00
  -15   10    8      1.40      0.00
    7   10    8      1.19      0.00
  -12   11    8     -0.48      0.00
    4   11    8     -0.89      0.00
   -8   12    8     -0.83      0.00
   -7   12    8     -0.45      0.00
   -1   12    8     -0.32      0.00
    0   12    8     -1.26      0.00
  -21    0    9      0.59      0.00
  -20    0    9     -0.09      0.00
  -19    0    9      0.34      0.00
  -18    0    9      2.04      0.00
  -17    0    9      0.94      0.00
  -11    0    9      1.78      0.00
  -10    0    9      3.46      0.00
    0    0    9      1.76      0.00
    1    0    9      0.10      0.00
   10    0    9     -0.18      0.00
   11    0    9     -0.73      0.00
   12    0    9      0.14      0.00
   13    0    9      0.25      0.00
   14    0    9     -0.60      0.00
  -21    1    9      0.17      0.00
  -20    1    9     -0.34      0.00
  -19    1    9     -0.04      0.00
  -10    1    9     -2.03      0.00
   11    1    9      0.92      0.00
   12    1    9     -0.79      0.00
   13    1    9      0.02      0.00
  -21    2    9     -0.33      0.00
   12    2    9      0.58      0.00
   13    2    9     -0.15      0.00
   13    3    9     -0.47      0.00
  -21    5    9     -0.36      0.00
   12    5    9     -0.45      0.00
  -18    8    9      0.49      0.00
    9    8    9      0.32      0.00
    6   10    9      0.57      0.00
  -12   11    9      0.18      0.00
    3   11    9     -0.27      0.00
   -7   12    9      0.20      0.00
   -6   12    9      0.13      0.00
   -5   12    9      0.10      0.00
   -4   12    9     -0.31      0.00
   -3   12    9      0.07      0.00
   -2   12    9      0.80      0.00
  -21    0   10      0.08      0.00
  -20    0   10     -0.49      0.00
  -19    0   10     -1.00      0.00
  -18    0   10      0.29      0.00
  -17    0   10     -0.35      0.00
  -16    0   10      0.97      0.00
  -10    0   10     -3.68      0.00
   -9    0   10      6.15      0.00
   -8    0   10     -2.08      0.00
   -7    0   10      3.56      0.00
   -2    0   10     -5.59      0.00
    9    0   10     -0.56      0.00
   10    0   10     -0.85      0.00
   11    0   10      0.29      0.00
   12    0   10      0.12      0.00
   13    0   10     -0.24      0.00
  -21    1   10     -0.20      0.00
  -20    1   10      0.98      0.00
  -19    1   10      0.26      0.00
   -9    1   10      1.33      0.00
   -4    1   10     -1.36      0.00
   -3    1   10      0.79      0.00
   11    1   10     -0.31      0.00
   12    1   10     -0.01      0.00
   13    1   10      0.22      0.00
  -21    2   10      0.14      0.00
   -7    2   10     -2.41      0.00
   12    2   10     -0.36      0.00
   12    3   10     -0.03      0.00
   12    4   10     -0.18      0.00
  -21    5   10     -0.95      0.00
   11    5   10     -0.13      0.00
  -18    8   10      0.52      0.00
    8    8   10      0.27      0.00
  -11   11   10      0.02      0.00
    1   11   10     -0.22      0.00
  -21    0   11      0.06      0.00
  -20    0   11      0.20      0.00
  -19    0   11     -1.21      0.00
  -18    0   11      0.61      0.00
  -17    0   11      1.02      0.00
  -16    0   11      1.19      0.00
  -15    0   11     -1.03      0.00
  -10    0   11      3.20      0.00
    9    0   11     -1.51      0.00
   10    0   11      0.69      0.00
   11    0   11      0.14      0.00
   12    0   11     -0.66      0.00
  -21    1   11     -1.29      0.00
  -20    1   11     -0.73      0.00
  -19    1   11      1.27      0.00
   -8    1   11     -2.15      0.00
   -7    1   11      1.05      0.00
   10    1   11     -0.65      0.00
   11    1   11      0.35      0.00
   12    1   11      0.17      0.00
  -21    2   11      0.40      0.00
  -20    2   11     -0.24      0.00
   11    2   11     -0.59      0.00
   11    4   11     -0.33      0.00
  -21    5   11     -0.26      0.00
   10    5   11     -0.14      0.00
  -18    8   11      0.26      0.00
    7    8   11      0.57      0.00
  -16    9   11     -0.33      0.00
    5    9   11     -0.69      0.00
  -14   10   11      0.60      0.00
    3   10   11      0.57      0.00
  -11   11   11      0.21      0.00
  -10   11   11      0.43      0.00
   -1   11   11     -0.25      0.00
    0   11   11     -0.08      0.00
  -21    0   12      0.97      0.00
  -20    0   12      0.22      0.00
  -19    0   12     -1.32      0.00
  -18    0   12     -0.97      0.00
  -17    0   12     -0.20      0.00
  -16    0   12     -0.30      0.00
  -15    0   12      0.29      0.00
  -14    0   12     -0.63      0.00
  -13    0   12      2.56      0.00
    9    0   12      0.55      0.00
   10    0   12     -0.03      0.00
   11    0   12     -0.40      0.00
  -21    1   12     -0.51      0.00
  -20    1   12     -0.86      0.00
  -19    1   12      0.39      0.00
  -18    1   12      0.94      0.00
   10    1   12      0.16      0.00
   11    1   12      0.80      0.00
  -21    2   12     -0.40      0.00
  -20    2   12      1.28      0.00
   10    4   12     -0.19      0.00
  -21    5   12     -0.03      0.00
    9    5   12     -0.90      0.00
  -19    7   12      0.61      0.00
    7    7   12     -0.19      0.00
  -18    8   12      0.74      0.00
    6    8   12     -0.21      0.00
  -16    9   12     -0.11      0.00
    4    9   12      0.25      0.00
  -13   10   12      0.39      0.00
    1   10   12      1.11      0.00
   -9   11   12     -0.07      0.00
   -8   11   12     -0.46      0.00
   -7   11   12     -0.75      0.00
   -6   11   12     -0.79      0.00
   -5   11   12     -0.63      0.00
   -4   11   12      0.16      0.00
   -3   11   12     -0.06      0.00
  -21    0   13     -0.65      0.00
  -20    0   13     -0.55      0.00
  -19    0   13      0.81      0.00
  -18    0   13     -1.43      0.00
  -17    0   13     -0.62      0.00
  -16    0   13      0.91      0.00
  -15    0   13      0.70      0.00
  -14    0   13     -1.35      0.00
  -13    0   13      0.08      0.00
    9    0   13      2.05      0.00
   10    0   13     -0.15      0.00
  -21    1   13     -0.13      0.00
  -20    1   13     -1.09      0.00
  -19    1   13      0.22      0.00
  -18    1   13     -0.70      0.00
  -17    1   13     -0.29      0.00
    9    1   13     -0.76      0.00
   10    1   13      0.44      0.00
  -21    2   13     -0.29      0.00
  -20    2   13      0.60      0.00
  -21    3   13     -0.65      0.00
  -11    4   13     -2.55      0.00
  -21    5   13     -0.07      0.00
    8    5   13      0.06      0.00
  -20    6   13      0.45      0.00
    7    6   13      0.02      0.00
  -19    7   13      0.43      0.00
    6    7   13     -0.47      0.00
  -13   10   13      0.61      0.00
  -12   10   13      0.83      0.00
   -1   10   13      1.31      0.00
    0   10   13      0.90      0.00
  -21    0   14      0.25      0.00
  -20    0   14      0.29      0.00
  -19    0   14      0.07      0.00
  -18    0   14      0.07      0.00
  -17    0   14      0.02      0.00
  -16    0   14     -0.34      0.00
  -15    0   14      1.25      0.00
  -14    0   14     -0.50      0.00
    8    0   14      0.92      0.00
    9    0   14      0.49      0.00
  -21    1   14      0.08      0.00
  -20    1   14     -0.44      0.00
  -19    1   14      0.44      0.00
  -18    1   14      0.52      0.00
  -17    1   14      0.11      0.00
  -16    1   14      0.69      0.00
  -15    1   14      1.04      0.00
  -21    2   14     -0.30      0.00
  -20    2   14      0.17      0.00
  -19    2   14     -0.15      0.00
  -21    3   14     -0.10      0.00
    8    3   14      0.35      0.00
  -21    5   14     -0.36      0.00
    7    5   14      0.22      0.00
  -20    6   14      0.20      0.00
    6    6   14     -0.75      0.00
  -17    8   14     -0.43      0.00
    3    8   14     -0.61      0.00
  -15    9   14     -1.43      0.00
    1    9   14     -0.23      0.00
  -11   10   14     -0.01      0.00
  -10   10   14     -0.52      0.00
   -4   10   14     -0.10      0.00
   -3   10   14     -0.14      0.00
  -21    0   15      0.57      0.00
  -20    0   15     -0.40      0.00
  -19    0   15      0.10      0.00
  -18    0   15     -0.21      0.00
  -17    0   15      0.32      0.00
  -16    0   15      0.12      0.00
  -15    0   15      0.51      0.00
  -14    0   15     -0.96      0.00
  -21    1   15     -0.10      0.00
  -20    1   15      0.13      0.00
  -19    1   15      0.17      0.00
  -18    1   15     -0.39      0.00
  -17    1   15     -0.67      0.00
  -16    1   15     -0.14      0.00
  -21    2   15      0.34      0.00
  -20    2   15      0.89      0.00
  -19    2   15      0.26      0.00
  -18    2   15      0.55      0.00
  -17    2   15      0.12      0.00
  -21    3   15      0.40      0.00
  -20    3   15     -0.28      0.00
    7    3   15     -0.19      0.00
  -21    4   15      0.64      0.00
  -18    7   15     -0.06      0.00
    3    7   15      0.82      0.00
  -16    8   15     -0.50      0.00
    1    8   15     -0.48      0.00
  -14    9   15     -0.17      0.00
   -1    9   15     -0.59      0.00
   -8   10   15      0.47      0.00
   -7   10   15      0.52      0.00
  -21    0   16     -0.49      0.00
  -20    0   16     -0.28      0.00
  -19    0   16      0.65      0.00
  -18    0   16      0.17      0.00
  -17    0   16     -0.76      0.00
  -16    0   16      0.56      0.00
  -15    0   16     -0.70      0.00
  -21    1   16     -0.38      0.00
  -20    1   16      0.25      0.00
  -19    1   16      0.26      0.00
  -18    1   16     -0.43      0.00
  -17    1   16     -0.24      0.00
  -16    1   16      0.93      0.00
    6    1   16     -0.12      0.00
  -21    2   16     -0.05      0.00
  -20    2   16     -0.14      0.00
  -19    2   16     -1.02      0.00
  -18    2   16      0.01      0.00
  -17    2   16      1.05      0.00
    6    2   16     -0.16      0.00
  -21    3   16      0.48      0.00
  -20    3   16     -0.91      0.00
  -19    3   16     -0.53      0.00
  -18    3   16     -0.27      0.00
  -21    4   16     -0.07      0.00
  -20    4   16     -0.31      0.00
    5    4   16      0.72      0.00
  -20    5   16     -0.29      0.00
    4    5   16      0.45      0.00
  -19    6   16     -0.05      0.00
    3    6   16      0.26      0.00
  -15    8   16     -0.34      0.00
   -1    8   16     -0.56      0.00
  -12    9   16      0.46      0.00
  -11    9   16     -0.23      0.00
   -5    9   16     -0.14      0.00
   -4    9   16      0.40      0.00
  -21    0   17      0.34      0.00
  -20    0   17     -0.27      0.00
  -19    0   17     -0.74      0.00
  -18    0   17      1.25      0.00
  -17    0   17     -0.39      0.00
  -16    0   17      1.21      0.00
  -15    0   17      2.39      0.00
    5    0   17     -0.40      0.00
  -21    1   17     -0.05      0.00
  -20    1   17      0.33      0.00
  -19    1   17     -0.13      0.00
  -18    1   17      0.30      0.00
  -17    1   17     -0.60      0.00
  -16    1   17      0.37      0.00
    5    1   17      0.01      0.00
  -21    2   17     -0.31      0.00
  -20    2   17      0.27      0.00
  -19    2   17      0.66      0.00
  -18    2   17     -0.99      0.00
  -17    2   17     -0.15      0.00
  -21    3   17      0.52      0.00
  -20    3   17      0.58      0.00
  -19    3   17      0.06      0.00
    4    3   17      0.97      0.00
  -20    4   17     -0.52      0.00
  -19    4   17      0.72      0.00
  -18    6   17     -0.62      0.00
    1    6   17     -0.43      0.00
  -17    7   17     -0.59      0.00
    0    7   17     -0.01      0.00
  -14    8   17     -0.99      0.00
   -3    8   17     -1.48      0.00
  -21    0   18      0.05      0.00
  -20    0   18     -0.57      0.00
  -19    0   18     -0.38      0.00
  -18    0   18     -0.48      0.00
  -17    0   18     -0.72      0.00
  -16    0   18     -0.03      0.00
  -15    0   18     -0.22      0.00
  -21    1   18     -0.46      0.00
  -20    1   18     -0.34      0.00
  -19    1   18      0.39      0.00
  -18    1   18      0.22      0.00
  -17    1   18     -0.62      0.00
  -16    1   18      0.23      0.00
    3    1   18      0.23      0.00
  -21    2   18     -0.07      0.00
  -20    2   18     -0.13      0.00
  -19    2   18      0.27      0.00
  -18    2   18     -1.24      0.00
    3    2   18      0.07      0.00
  -20    3   18     -0.68      0.00
  -19    3   18     -0.25      0.00
  -20    4   18     -0.38      0.00
    2    4   18      0.16      0.00
  -19    5   18     -0.63      0.00
    1    5   18     -0.51      0.00
  -17    6   18      0.79      0.00
   -1    6   18     -0.05      0.00
  -15    7   18      0.41      0.00
   -5    7   18      1.78      0.00
   -4    7   18      0.66      0.00
   -3    7   18      0.14      0.00
  -12    8   18      0.28      0.00
  -11    8   18      0.49      0.00
  -10    8   18      0.32      0.00
   -9    8   18      0.60      0.00
   -8    8   18     -0.25      0.00
   -7    8   18      0.45      0.00
   -6    8   18     -0.41      0.00
  -21    0   19      0.20      0.00
  -20    0   19     -0.49      0.00
  -19    0   19      0.58      0.00
  -18    0   19     -0.19      0.00
  -17    0   19      0.07      0.00
  -16    0   19      0.74      0.00
  -15    0   19     -1.97      0.00
    2    0   19     -0.90      0.00
  -20    1   19     -0.48      0.00
  -19    1   19     -0.05      0.00
  -18    1   19      0.32      0.00
  -17    1   19     -0.04      0.00
  -20    2   19     -0.12      0.00
  -19    2   19      0.26      0.00
  -18    2   19      0.41      0.00
    1    2   19     -0.84      0.00
  -20    3   19      0.21      0.00
  -19    3   19      0.29      0.00
    1    3   19     -0.03      0.00
  -19    4   19      1.13      0.00
    0    4   19      1.60      0.00
  -18    5   19     -0.32      0.00
   -1    5   19     -0.12      0.00
  -16    6   19      0.12      0.00
   -4    6   19     -0.08      0.00
   -3    6   19     -0.20      0.00
  -13    7   19     -0.17      0.00
  -12    7   19     -0.86      0.00
   -7    7   19     -0.36      0.00
   -6    7   19     -0.67      0.00
  -20    0   20      0.36      0.00
  -19    0   20      0.40      0.00
  -18    0   20      0.01      0.00
  -17    0   20     -0.12      0.00
  -16    0   20      1.31      0.00
    0    0   20     -1.87      0.00
  -20    1   20     -0.12      0.00
  -19    1   20      0.35      0.00
  -18    1   20      0.23      0.00
  -17    1   20     -0.10      0.00
    0    1   20     -0.05      0.00
  -19    2   20      0.18      0.00
  -18    2   20     -0.07      0.00
   -1    2   20      0.31      0.00
  -19    3   20     -0.36      0.00
   -1    3   20     -0.35      0.00
  -18    4   20      0.12      0.00
   -2    4   20      0.32      0.00
  -16    5   20      0.15      0.00
   -4    5   20      0.37      0.00
  -14    6   20     -0.44      0.00
  -13    6   20      0.29      0.00
   -7    6   20     -0.03      0.00
   -6    6   20     -0.44      0.00
  -19    0   21      0.54      0.00
  -18    0   21     -0.63      0.00
  -17    0   21      1.22      0.00
  -16    0   21      1.15      0.00
   -2    0   21      0.16      0.00
  -18    1   21     -0.18      0.00
  -17    1   21     -0.15      0.00
   -3    1   21      0.06      0.00
  -18    2   21      0.29      0.00
   -3    2   21     -0.22      0.00
  -17    3   21      0.36      0.00
   -4    3   21      0.54      0.00
  -16    4   21      0.30      0.00
   -5    4   21      0.24      0.00
  -14    5   21      0.73      0.00
  -13    5   21      0.09      0.00
  -12    5   21     -0.61      0.00
  -11    5   21     -0.34      0.00
  -10    5   21     -0.35      0.00
   -9    5   21     -0.41      0.00
   -8    5   21      0.21      0.00
   -7    5   21      0.43      0.00
  -17    0   22      0.03      0.00
  -16    0   22      1.07      0.00
  -15    0   22      1.71      0.00
   -5    0   22      0.62      0.00
  -17    1   22      0.80      0.00
  -16    1   22     -0.39      0.00
   -6    1   22      0.13      0.00
   -5    1   22      0.19      0.00
  -16    2   22      0.51      0.00
   -6    2   22      0.07      0.00
  -15    3   22      1.24      0.00
  -14    3   22      0.31      0.00
   -8    3   22     -0.25      0.00
   -7    3   22      0.38      0.00
  -12    4   22      0.09      0.00
  -11    4   22     -1.04      0.00
  -10    4   22      0.28      0.00
    0    0    0      0.00      0.00
# SQUEEZE RESULTS
# Note: Data are Listed for all Voids in the P1 Unit Cell
# i.e. Centre of Gravity, Solvent Accessible Volume,
# Recovered number of Electrons in the Void and
# Details about the Squeezed Material
loop_
  _platon_squeeze_void_nr
  _platon_squeeze_void_average_x
  _platon_squeeze_void_average_y
  _platon_squeeze_void_average_z
  _platon_squeeze_void_volume
  _platon_squeeze_void_count_electrons
  _platon_squeeze_void_content
   1  0.000  0.000  0.000       136        21 ' '
   2 -0.002 -0.101  0.477      2545       508 ' '
_platon_squeeze_void_probe_radius                  1.20
_platon_squeeze_details
(replace by semicolon in column 1 when used as .sqf)
TITL P2m_a     P 2/m        R = 0.23
CELL   21.6317   12.2815   21.6273     90.00    119.97     90.00
SPGR P2/m
# Solvent Accessible Volume =    2686.1
# Electrons Found in S.A.V. =     525.2
# Note: Atoms in Void as Cxxx and Qxxx all others
Q101 0.134 0.501 0.102 !       1.37 eA-3
Q102 0.062 0.369 0.126 !       1.28 eA-3
Q103 0.901 0.500 0.867 !       1.28 eA-3
C104 0.337 0.499 0.669 !       1.21 eA-3
C105 0.529 0.897 0.450 !       1.09 eA-3
C106 0.608 0.323 0.010 !       1.07 eA-3
C107 0.477 0.773 0.929 !       0.98 eA-3
C108 0.439 0.502 0.838 !       0.98 eA-3
C109 0.446 0.834 0.921 !       0.95 eA-3
C110 0.367 0.494 0.236 !       0.93 eA-3
C111 0.643 0.415 0.294 !       0.91 eA-3
C112 0.304 0.496 0.994 !       0.91 eA-3
C113 0.444 0.904 0.958 !       0.91 eA-3
Q114 0.969 0.331 0.941 !       0.91 eA-3
C115 0.869 0.501 0.304 !       0.90 eA-3
C116 0.650 0.590 0.347 !       0.90 eA-3
C117 0.518 0.315 0.405 !       0.90 eA-3
C118 0.687 0.501 0.122 !       0.89 eA-3
C119 0.413 0.380 0.482 !       0.89 eA-3
C120 0.484 0.901 0.939 !       0.88 eA-3
C121 0.515 0.894 0.381 !       0.88 eA-3
C122 0.466 1.004 0.892 !       0.88 eA-3
C123 0.563 0.244 0.472 !       0.88 eA-3
C124 0.396 0.507 0.352 !       0.87 eA-3
C125 0.354 0.493 0.971 !       0.87 eA-3
C126 0.169 0.994 0.076 !       0.87 eA-3
C127 0.916 0.997 0.843 !       0.86 eA-3
C128 0.656 0.493 0.978 !       0.86 eA-3
C129 0.616 0.506 0.413 !       0.84 eA-3
C130 0.368 0.440 0.360 !       0.84 eA-3
C131 0.476 0.830 0.979 !       0.84 eA-3
C132 0.482 0.811 0.425 !       0.83 eA-3
C133 0.485 0.186 0.984 !       0.83 eA-3
C134 0.560 0.996 0.489 !       0.83 eA-3
C135 0.667 0.401 0.390 !       0.83 eA-3
C136 0.150 0.029 0.002 !       0.83 eA-3
C137 0.139 1.001 0.960 !       0.83 eA-3
C138 0.483 0.829 0.403 !       0.83 eA-3
C139 0.562 0.415 0.963 !       0.82 eA-3
C140 0.478 1.003 0.571 !       0.82 eA-3
C141 0.601 0.507 0.352 !       0.80 eA-3
C142 0.515 0.378 0.896 !       0.79 eA-3
C143 0.834 1.001 0.898 !       0.79 eA-3
C144 0.436 0.715 0.584 !       0.79 eA-3
C145 0.618 0.354 0.174 !       0.79 eA-3
C146 0.275 0.419 0.629 !       0.78 eA-3
Q147 0.047 0.346 0.994 !       0.78 eA-3
C148 0.484 0.815 0.486 !       0.78 eA-3
C149 0.619 0.457 0.955 !       0.78 eA-3
C150 0.554 0.395 0.912 !       0.78 eA-3
Q151 0.453 0.364 0.235 !       0.77 eA-3
C152 0.366 0.539 0.304 !       0.77 eA-3
C153 0.180 0.249 0.603 !       0.77 eA-3
Q154 0.444 0.363 0.300 !       0.77 eA-3
C155 0.511 0.761 0.999 !       0.77 eA-3
C156 0.438 0.316 0.546 !       0.76 eA-3
C157 0.549 0.374 0.174 !       0.76 eA-3
C158 0.383 0.466 0.737 !       0.76 eA-3
C159 0.376 0.437 0.455 !       0.76 eA-3
C160 0.446 0.064 0.933 !       0.75 eA-3
C161 0.319 0.575 0.673 !       0.75 eA-3
C162 0.564 0.777 0.493 !       0.75 eA-3
C163 0.487 0.228 0.580 !       0.75 eA-3
Q164 0.814 0.361 0.859 !       0.74 eA-3
C165 0.608 0.498-0.002 !       0.74 eA-3
C166 0.492 0.777 0.540 !       0.74 eA-3
C167 0.443 0.500 0.735 !       0.74 eA-3
C168 0.763 0.406 0.514 !       0.74 eA-3
C169 0.623 0.372 0.083 !       0.74 eA-3
C170 0.571 0.747 0.530 !       0.73 eA-3
C171 0.599 0.501 0.611 !       0.73 eA-3
C172 0.072 0.891 0.531 !       0.73 eA-3
C173 0.453 0.506 0.357 !       0.73 eA-3
C174 0.576 0.803 0.446 !       0.73 eA-3
C175 0.558 0.358 0.407 !       0.73 eA-3
C176 0.782 0.505 0.631 !       0.73 eA-3
C177 0.368 0.332 0.785 !       0.72 eA-3
C178 0.485 0.392 0.231 !       0.72 eA-3
C179 0.419 0.407 0.735 !       0.72 eA-3
C180 0.258 0.421 0.581 !       0.72 eA-3
Q181 0.741 0.406 0.576 !       0.72 eA-3
C182 0.449 0.109 0.508 !       0.72 eA-3
C183 0.348 0.497 0.392 !       0.72 eA-3
Q184 0.933 0.393 0.060 !       0.71 eA-3
C185 0.432 0.690 0.610 !       0.71 eA-3
C186 0.483 0.159 0.380 !       0.71 eA-3
C187 0.563 0.258 0.068 !       0.71 eA-3
C188 0.546 0.488 0.348 !       0.71 eA-3
C189 0.562 0.744 0.586 !       0.70 eA-3
C190 0.531 0.375 0.363 !       0.70 eA-3
C191 0.297 0.425 0.699 !       0.70 eA-3
C192 0.564 0.784 0.075 !       0.70 eA-3
C193 0.734 0.488 0.640 !       0.70 eA-3
C194 0.415 0.379 0.420 !       0.70 eA-3
C195 0.643 0.423 0.011 !       0.70 eA-3
C196 0.436 0.766 0.858 !       0.70 eA-3
C197 0.710 0.499 0.578 !       0.70 eA-3
C198 0.438 0.428 0.781 !       0.70 eA-3
C199 0.521 0.704 0.446 !       0.70 eA-3
(replace by semicolon in column 1 when used as .sqf)
;
_shelx_fab_checksum              34892
loop_
_space_group_symop_operation_xyz
'x, y, z'
'-x, y, -z'
'-x, -y, -z'
'x, -y, z'
loop_
_atom_site_label
_atom_site_type_symbol
_atom_site_fract_x
_atom_site_fract_y
_atom_site_fract_z
_atom_site_U_iso_or_equiv
_atom_site_adp_type
_atom_site_occupancy
_atom_site_site_symmetry_order
_atom_site_calc_flag
_atom_site_refinement_flags_posn
_atom_site_refinement_flags_adp
_atom_site_refinement_flags_occupancy
_atom_site_disorder_assembly
_atom_site_disorder_group
C1 C 0.8959(6) 0.6806(9) 0.1006(6) 0.103(3) Uani 0.706(8) 1 d D U P . .
C2 C 0.8649(9) 0.7509(11) 0.1375(7) 0.143(5) Uani 0.706(8) 1 d D U P A .
C3 C 0.8850(15) 0.738(2) 0.2070(10) 0.139(8) Uani 0.353(4) 1 d D U P A 4
H3 H 0.921048 0.686524 0.235403 0.167 Uiso 0.353(4) 1 calc R U P A 4
C4 C 0.8518(14) 0.801(2) 0.2374(12) 0.126(7) Uani 0.353(4) 1 d D U P A 4
H4 H 0.864757 0.790069 0.285961 0.151 Uiso 0.353(4) 1 calc R U P A 4
C5 C 0.8009(8) 0.8774(10) 0.1972(7) 0.121(4) Uani 0.706(8) 1 d D U P . .
C6 C 0.7718(16) 0.877(3) 0.1237(10) 0.147(9) Uani 0.353(4) 1 d D U P A 4
H6 H 0.727495 0.911423 0.093328 0.176 Uiso 0.353(4) 1 calc R U P A 4
C7 C 0.8100(14) 0.823(2) 0.0949(12) 0.133(7) Uani 0.353(4) 1 d D U P A 4
H7 H 0.798166 0.835836 0.046927 0.159 Uiso 0.353(4) 1 calc R U P A 4
C3B C 0.9051(10) 0.8278(15) 0.1897(10) 0.141(8) Uani 0.353(4) 1 d D U P A 5
H3B H 0.954217 0.837457 0.204921 0.169 Uiso 0.353(4) 1 calc R U P A 5
C4B C 0.8722(11) 0.8915(15) 0.2197(10) 0.162(10) Uani 0.353(4) 1 d D U P A 5
H4B H 0.899302 0.943988 0.255440 0.194 Uiso 0.353(4) 1 calc R U P A 5
C6B C 0.7616(10) 0.8012(15) 0.1460(10) 0.128(7) Uani 0.353(4) 1 d D U P A 5
H6B H 0.712505 0.791396 0.130878 0.153 Uiso 0.353(4) 1 calc R U P A 5
C7B C 0.7947(11) 0.7366(14) 0.1156(10) 0.128(7) Uani 0.353(4) 1 d D U P A 5
H7B H 0.767577 0.683816 0.080194 0.153 Uiso 0.353(4) 1 calc R U P A 5
C8 C 0.7687(7) 0.9437(10) 0.2316(7) 0.106(4) Uani 0.706(8) 1 d . U P A .
C9 C 0.7344(7) 0.8842(9) 0.2644(6) 0.100(4) Uani 0.706(8) 1 d . U P . .
H9 H 0.734019 0.806870 0.263796 0.120 Uiso 0.706(8) 1 calc R U P A .
C10 C 0.7025(5) 0.9398(8) 0.2962(5) 0.075(3) Uani 0.706(8) 1 d . U P A .
C11 C 0.6680(6) 0.8954(8) 0.3338(6) 0.089(3) Uani 0.706(8) 1 d . U P . .
H11 H 0.667950 0.814024 0.333797 0.107 Uiso 0.706(8) 1 calc R U P A .
C12 C 0.5931(6) 0.9417(7) 0.2968(5) 0.077(3) Uani 0.706(8) 1 d . U P A .
C13 C 0.5294(7) 0.8847(9) 0.2658(6) 0.101(4) Uani 0.706(8) 1 d . U P . .
H13 H 0.529699 0.807356 0.266528 0.121 Uiso 0.706(8) 1 calc R U P A .
C14 C 0.4631(7) 0.9423(9) 0.2328(7) 0.111(4) Uani 0.706(8) 1 d . U P A .
C15 C 0.3989(8) 0.8782(10) 0.1983(8) 0.129(5) Uani 0.706(8) 1 d D U P . .
C16 C 0.3849(15) 0.798(2) 0.2380(15) 0.124(7) Uani 0.353(4) 1 d D U P A 4
H16 H 0.416858 0.791401 0.287844 0.149 Uiso 0.353(4) 1 calc R U P A 4
C17 C 0.3265(12) 0.732(2) 0.2056(12) 0.144(9) Uani 0.353(4) 1 d D U P A 4
H17 H 0.321243 0.672386 0.230572 0.173 Uiso 0.353(4) 1 calc R U P A 4
C18 C 0.2762(10) 0.7529(12) 0.1368(8) 0.150(6) Uani 0.706(8) 1 d D U P . .
C19 C 0.2847(15) 0.820(2) 0.0903(14) 0.137(8) Uani 0.353(4) 1 d D U P A 4
H19 H 0.248577 0.829986 0.041935 0.164 Uiso 0.353(4) 1 calc R U P A 4
C20 C 0.3534(18) 0.873(2) 0.1217(12) 0.145(9) Uani 0.353(4) 1 d D U P A 4
H20 H 0.368762 0.905052 0.091674 0.173 Uiso 0.353(4) 1 calc R U P A 4
C16B C 0.3470(14) 0.887(2) 0.2209(14) 0.160(10) Uani 0.353(4) 1 d D U P A 5
H16B H 0.354338 0.936927 0.257604 0.192 Uiso 0.353(4) 1 calc R U P A 5
C17B C 0.2888(17) 0.8257(18) 0.1904(11) 0.152(9) Uani 0.353(4) 1 d D U P A 5
H17B H 0.254875 0.832000 0.205876 0.182 Uiso 0.353(4) 1 calc R U P A 5
C19B C 0.3220(13) 0.7372(19) 0.1117(12) 0.125(8) Uani 0.353(4) 1 d D U P A 5
H19B H 0.313683 0.686359 0.075258 0.149 Uiso 0.353(4) 1 calc R U P A 5
C20B C 0.3795(16) 0.8003(16) 0.1433(11) 0.130(8) Uani 0.353(4) 1 d D U P A 5
H20B H 0.412308 0.791956 0.126570 0.156 Uiso 0.353(4) 1 calc R U P A 5
C21 C 0.2061(6) 0.6791(9) 0.1017(5) 0.118(4) Uani 0.706(8) 1 d D U P A .
C22 C 0.7037(5) 0.9415(7) 0.4082(5) 0.078(3) Uani 0.706(8) 1 d . U P A .
C23 C 0.7351(7) 0.8858(9) 0.4706(6) 0.105(4) Uani 0.706(8) 1 d . U P . .
H23 H 0.735826 0.808440 0.470205 0.126 Uiso 0.706(8) 1 calc R U P A .
C24 C 0.7669(7) 0.9428(9) 0.5364(6) 0.114(4) Uani 0.706(8) 1 d . U P A .
C25 C 0.8013(7) 0.8743(9) 0.6042(7) 0.121(4) Uani 0.706(8) 1 d D U P . .
C26 C 0.8741(11) 0.8860(18) 0.6519(10) 0.147(9) Uani 0.353(4) 1 d D U P A 4
H26 H 0.901417 0.937242 0.642719 0.176 Uiso 0.353(4) 1 calc R U P A 4
C27 C 0.9062(14) 0.8218(15) 0.7128(11) 0.141(8) Uani 0.353(4) 1 d D U P A 4
H27 H 0.955840 0.829688 0.745310 0.169 Uiso 0.353(4) 1 calc R U P A 4
C28 C 0.8672(7) 0.7461(12) 0.7274(9) 0.142(5) Uani 0.706(8) 1 d D U P . .
C29 C 0.7960(11) 0.7387(18) 0.6783(9) 0.140(9) Uani 0.353(4) 1 d D U P A 4
H29 H 0.768538 0.687196 0.687097 0.168 Uiso 0.353(4) 1 calc R U P A 4
C30 C 0.7611(13) 0.8009(15) 0.6166(11) 0.133(8) Uani 0.353(4) 1 d D U P A 4
H30 H 0.711390 0.792855 0.584317 0.159 Uiso 0.353(4) 1 calc R U P A 4
C26B C 0.8538(10) 0.7996(14) 0.6159(12) 0.126(8) Uani 0.353(4) 1 d D U P A 5
H26B H 0.867703 0.791988 0.580821 0.152 Uiso 0.353(4) 1 calc R U P A 5
C27B C 0.8869(12) 0.7354(17) 0.6765(11) 0.131(8) Uani 0.353(4) 1 d D U P A 5
H27B H 0.922710 0.684694 0.682688 0.157 Uiso 0.353(4) 1 calc R U P A 5
C29B C 0.8133(11) 0.8230(17) 0.7130(13) 0.153(9) Uani 0.353(4) 1 d D U P A 5
H29B H 0.799195 0.830794 0.747865 0.184 Uiso 0.353(4) 1 calc R U P A 5
C30B C 0.7792(13) 0.8880(18) 0.6533(11) 0.140(9) Uani 0.353(4) 1 d D U P A 5
H30B H 0.743033 0.938490 0.646594 0.168 Uiso 0.353(4) 1 calc R U P A 5
C31 C 0.9008(6) 0.6827(8) 0.7955(5) 0.106(4) Uani 0.706(8) 1 d D U P A .
C32 C 1.000000 0.842200 0.000000 0.150(9) Uiso 0.5 2 d S U P . .
Zr1X Zr 0.9053(2) 0.6432(2) -0.04704(14) 0.1003(11) Uani 0.3333 1 d D U P B 1
Zr2X Zr 1.0002(2) 0.500000 0.1155(2) 0.0774(13) Uani 0.3333 2 d DS TU P B 1
O1X O 0.9902(18) 0.6425(16) 0.0526(14) 0.106(8) Uiso 0.3333 1 d D U P B 1
O2X O 0.907(2) 0.500000 0.0076(16) 0.090(11) Uiso 0.3333 2 d DS U P B 1
O2AX O 0.9128(18) 0.500000 -0.0966(17) 0.062(11) Uiso 0.3333 2 d DS U P B 1
O3X O 0.9132(10) 0.5989(12) 0.1241(9) 0.098(5) Uiso 0.3333 1 d D U P B 1
O4X O 0.9020(16) 0.706(3) 0.0512(13) 0.181(8) Uiso 0.3333 1 d D U P B 1
O5X O 0.9254(10) 0.6037(13) 0.7947(9) 0.101(5) Uiso 0.3333 1 d D U P A 1
O6X O 0.8785(13) 0.701(2) 0.8350(12) 0.147(7) Uiso 0.3333 1 d D U P A 1
O7X O 0.1661(12) 0.690(2) 0.1439(12) 0.142(7) Uiso 0.3333 1 d D U P A 1
O8X O 0.1947(18) 0.617(2) 0.0373(12) 0.209(11) Uiso 0.3333 1 d D U P A 1
O9X O 0.9204(12) 0.8138(15) -0.0389(10) 0.126(6) Uani 0.3333 1 d . U P B 1
Zr1Y Zr 0.95263(19) 0.64329(19) 0.04716(15) 0.1002(11) Uani 0.3333 1 d D U P B
2
Zr2Y Zr 0.8844(3) 0.500000 -0.1154(3) 0.0797(15) Uani 0.3333 2 d DS TU P B 2
O1Y O 0.9034(17) 0.500000 -0.0085(10) 0.080(10) Uiso 0.3333 2 d DS U P B 2
O1AY O 1.0095(15) 0.500000 0.0958(17) 0.079(9) Uiso 0.3333 2 d DS U P B 2
O2Y O 0.9405(13) 0.6446(17) -0.0529(13) 0.096(7) Uiso 0.3333 1 d D U P B 2
O3Y O 0.8773(10) 0.5991(12) 0.7917(9) 0.097(4) Uiso 0.3333 1 d D U P A 2
O4Y O 0.9500(14) 0.724(2) 0.8492(13) 0.188(9) Uiso 0.3333 1 d D U P A 2
O5Y O 0.1594(11) 0.7102(18) 0.0399(10) 0.137(6) Uiso 0.3333 1 d D U P A 2
O6Y O 0.2041(8) 0.6058(12) 0.1337(8) 0.093(4) Uiso 0.3333 1 d D U P A 2
O7Y O 0.9634(12) 0.622(2) 0.1509(14) 0.174(9) Uiso 0.3333 1 d D U P B 2
O8Y O 0.8492(13) 0.687(2) 0.0195(10) 0.149(7) Uiso 0.3333 1 d D U P B 2
O9Y O 0.9593(12) 0.8114(16) 0.0384(11) 0.140(6) Uani 0.3333 1 d . U P B 2
Zr1Z Zr 1.04632(17) 0.64428(18) 0.09327(17) 0.1012(10) Uani 0.3333 1 d D U P B
3
Zr2Z Zr 0.8845(3) 0.500000 0.0004(2) 0.0774(12) Uani 0.3333 2 d DS TU P B 3
O1Z O 0.9436(15) 0.6393(16) -0.001(2) 0.120(6) Uiso 0.3333 1 d D U P B 3
O2Z O 0.9936(15) 0.500000 0.095(2) 0.082(12) Uiso 0.3333 2 d DS U P B 3
O2AZ O 1.1021(17) 0.500000 0.097(3) 0.09(2) Uiso 0.3333 2 d DS U P B 3
O3Z O 0.8688(9) 0.6081(11) 0.0743(8) 0.087(4) Uiso 0.3333 1 d D U P B 3
O4Z O 0.9545(11) 0.705(2) 0.1237(13) 0.147(7) Uiso 0.3333 1 d D U P B 3
O5Z O 0.2111(9) 0.6001(12) 0.0879(9) 0.099(5) Uiso 0.3333 1 d D U P A 3
O6Z O 0.1619(15) 0.729(2) 0.0991(16) 0.205(10) Uiso 0.3333 1 d D U P A 3
O7Z O 0.8511(14) 0.623(2) 0.8122(14) 0.181(10) Uiso 0.3333 1 d D U P A 3
O8Z O 0.9833(10) 0.691(2) 0.8373(11) 0.142(7) Uiso 0.3333 1 d D U P A 3
O9Z O 1.0414(12) 0.812(2) 0.0801(12) 0.140(7) Uiso 0.3333 1 d . U P B 3
loop_
_atom_site_aniso_label
_atom_site_aniso_U_11
_atom_site_aniso_U_22
_atom_site_aniso_U_33
_atom_site_aniso_U_23
_atom_site_aniso_U_13
_atom_site_aniso_U_12
C1 0.091(7) 0.131(8) 0.119(7) -0.003(7) 0.076(6) -0.015(7)
C2 0.169(11) 0.122(9) 0.146(10) 0.018(8) 0.086(10) -0.013(8)
C3 0.155(15) 0.126(14) 0.145(13) 0.005(12) 0.081(12) 0.009(12)
C4 0.139(14) 0.121(13) 0.134(13) -0.009(11) 0.081(11) 0.007(12)
C5 0.140(10) 0.108(8) 0.141(9) -0.005(7) 0.088(8) 0.006(7)
C6 0.171(16) 0.143(16) 0.145(14) -0.002(13) 0.094(13) 0.025(13)
C7 0.151(15) 0.153(15) 0.140(14) 0.004(12) 0.108(12) 0.022(13)
C3B 0.159(15) 0.143(15) 0.153(14) -0.015(13) 0.103(12) 0.001(13)
C4B 0.174(16) 0.153(16) 0.159(15) -0.010(14) 0.083(14) -0.014(14)
C6B 0.153(14) 0.117(13) 0.132(13) -0.002(12) 0.086(11) 0.008(12)
C7B 0.145(14) 0.113(13) 0.143(13) 0.000(12) 0.086(12) -0.003(12)
C8 0.118(9) 0.104(7) 0.118(8) -0.004(6) 0.076(7) 0.001(6)
C9 0.108(9) 0.091(7) 0.107(7) 0.005(6) 0.059(7) 0.000(6)
C10 0.078(7) 0.078(5) 0.070(5) -0.004(4) 0.037(5) 0.001(5)
C11 0.093(7) 0.073(5) 0.090(6) 0.005(5) 0.038(6) 0.004(5)
C12 0.085(7) 0.074(5) 0.069(5) -0.006(4) 0.036(5) -0.010(5)
C13 0.110(9) 0.073(6) 0.109(8) 0.000(5) 0.046(7) 0.004(6)
C14 0.102(9) 0.090(6) 0.135(9) -0.004(6) 0.056(8) -0.007(6)
C15 0.108(9) 0.106(8) 0.150(10) -0.004(7) 0.047(8) 0.004(7)
C16 0.113(13) 0.126(13) 0.134(13) 0.001(12) 0.063(11) -0.016(11)
C17 0.140(15) 0.119(13) 0.148(14) 0.004(12) 0.054(12) -0.025(12)
C18 0.159(12) 0.122(10) 0.149(10) 0.005(8) 0.062(9) -0.004(9)
C19 0.131(15) 0.111(13) 0.141(14) 0.020(12) 0.047(12) -0.020(12)
C20 0.130(15) 0.125(15) 0.153(15) -0.003(13) 0.052(13) -0.024(13)
C16B 0.134(15) 0.144(15) 0.164(16) -0.022(14) 0.047(13) -0.020(13)
C17B 0.132(15) 0.134(14) 0.161(15) -0.033(14) 0.051(13) -0.024(13)
C19B 0.120(14) 0.104(13) 0.147(14) -0.033(12) 0.065(11) -0.010(11)
C20B 0.123(14) 0.104(13) 0.145(14) -0.018(12) 0.054(12) 0.011(11)
C21 0.094(8) 0.129(9) 0.115(8) 0.004(7) 0.042(7) 0.023(7)
C22 0.090(7) 0.073(5) 0.068(5) 0.006(4) 0.037(5) 0.001(5)
C23 0.135(10) 0.094(7) 0.073(6) -0.002(5) 0.041(6) 0.003(6)
C24 0.147(10) 0.098(7) 0.072(6) 0.006(5) 0.037(6) 0.001(7)
C25 0.136(10) 0.105(8) 0.100(7) 0.003(6) 0.042(7) 0.013(7)
C26 0.155(15) 0.131(14) 0.105(13) 0.004(12) 0.028(12) 0.013(13)
C27 0.158(15) 0.143(15) 0.106(13) 0.019(12) 0.054(12) -0.008(13)
C28 0.149(11) 0.130(10) 0.125(9) -0.013(8) 0.053(8) -0.017(8)
C29 0.144(14) 0.114(13) 0.125(13) 0.020(11) 0.039(12) -0.017(12)
C30 0.157(15) 0.118(13) 0.108(12) 0.025(11) 0.056(12) -0.028(12)
C26B 0.132(14) 0.123(14) 0.108(13) 0.008(11) 0.048(11) 0.035(12)
C27B 0.143(14) 0.107(13) 0.115(13) 0.006(11) 0.045(11) 0.014(12)
C29B 0.171(16) 0.139(15) 0.103(13) 0.007(12) 0.034(13) 0.008(14)
C30B 0.171(16) 0.119(14) 0.113(13) -0.002(12) 0.057(12) 0.009(13)
C31 0.125(9) 0.122(8) 0.067(5) -0.018(6) 0.045(6) -0.002(7)
Zr1X 0.138(3) 0.0991(16) 0.0774(17) 0.0177(10) 0.0636(18) 0.0353(15)
Zr2X 0.110(3) 0.0686(19) 0.068(2) 0.000 0.0544(19) 0.000
O9X 0.172(14) 0.097(10) 0.126(11) 0.033(9) 0.086(11) 0.032(10)
Zr1Y 0.086(2) 0.0979(16) 0.0785(17) -0.0139(10) 0.0128(15) 0.0207(12)
Zr2Y 0.069(3) 0.069(2) 0.067(2) 0.000 0.008(2) 0.000
O9Y 0.173(13) 0.099(10) 0.133(11) 0.000(9) 0.066(11) 0.041(10)
Zr1Z 0.087(2) 0.0978(16) 0.132(2) -0.0321(13) 0.0646(19) -0.0160(11)
Zr2Z 0.078(3) 0.0683(18) 0.098(2) 0.000 0.053(2) 0.000
loop_
_atom_type_symbol
_atom_type_description
_atom_type_scat_dispersion_real
_atom_type_scat_dispersion_imag
_atom_type_scat_source
C C 0.0181 0.0091 'International Tables Vol C Tables 4.2.6.8 and 6.1.1.4'
H H 0.0000 0.0000 'International Tables Vol C Tables 4.2.6.8 and 6.1.1.4'
O O 0.0492 0.0322 'International Tables Vol C Tables 4.2.6.8 and 6.1.1.4'
Zr Zr -0.1862 2.2449 'International Tables Vol C Tables 4.2.6.8 and 6.1.1.4'
loop_
_geom_angle_atom_site_label_1
_geom_angle_atom_site_label_2
_geom_angle_atom_site_label_3
_geom_angle
_geom_angle_site_symmetry_1
_geom_angle_site_symmetry_3
O3Z C1 O4Z 130.3(19) . .
O3X C1 O4X 119(2) . .
O7Y C1 O8Y 134.9(18) . .
O3Z C1 C2 118.7(13) . .
O3X C1 C2 114.1(13) . .
O4Z C1 C2 107.6(15) . .
O4X C1 C2 127(2) . .
O7Y C1 C2 114.4(14) . .
O8Y C1 C2 110.8(12) . .
O7Y C1 Zr1Y 70.8(12) . .
O8Y C1 Zr1Y 67.4(11) . .
C2 C1 Zr1Y 158.1(8) . .
C7B C2 C3B 120.5(15) . .
C3 C2 C7 120.4(19) . .
C3 C2 C1 121.9(13) . .
C7B C2 C1 116.7(12) . .
C3B C2 C1 122.9(13) . .
C7 C2 C1 117.5(12) . .
C2 C3 C4 119.6(19) . .
C2 C3 H3 120.2 . .
C4 C3 H3 120.2 . .
C5 C4 C3 120.5(18) . .
C5 C4 H4 119.7 . .
C3 C4 H4 119.7 . .
C6B C5 C4B 120.3(15) . .
C4 C5 C6 118.9(17) . .
C6B C5 C8 121.2(14) . .
C4B C5 C8 118.4(13) . .
C4 C5 C8 118.8(14) . .
C6 C5 C8 121.2(14) . .
C5 C6 C7 118.3(19) . .
C5 C6 H6 120.8 . .
C7 C6 H6 120.8 . .
C2 C7 C6 119.7(18) . .
C2 C7 H7 120.2 . .
C6 C7 H7 120.2 . .
C2 C3B C4B 119.6(11) . .
C2 C3B H3B 120.2 . .
C4B C3B H3B 120.2 . .
C5 C4B C3B 119.9(12) . .
C5 C4B H4B 120.0 . .
C3B C4B H4B 120.0 . .
C5 C6B C7B 119.9(11) . .
C5 C6B H6B 120.1 . .
C7B C6B H6B 120.1 . .
C2 C7B C6B 119.8(12) . .
C2 C7B H7B 120.1 . .
C6B C7B H7B 120.1 . .
C8 C8 C9 120.2(7) 4_575 .
C8 C8 C5 123.1(7) 4_575 .
C9 C8 C5 116.7(11) . .
C10 C9 C8 120.1(11) . .
C10 C9 H9 120.0 . .
C8 C9 H9 120.0 . .
C9 C10 C11 128.3(10) . .
C9 C10 C10 119.7(7) . 4_575
C11 C10 C10 111.9(6) . 4_575
C10 C11 C22 108.9(9) . .
C10 C11 C12 106.1(8) . .
C22 C11 C12 105.4(9) . .
C10 C11 H11 112.0 . .
C22 C11 H11 112.0 . .
C12 C11 H11 112.0 . .
C13 C12 C12 120.4(6) . 4_575
C13 C12 C11 127.6(9) . .
C12 C12 C11 112.0(5) 4_575 .
C12 C13 C14 119.9(10) . .
C12 C13 H13 120.0 . .
C14 C13 H13 120.0 . .
C14 C14 C13 119.7(7) 4_575 .
C14 C14 C15 123.2(7) 4_575 .
C13 C14 C15 117.1(11) . .
C20B C15 C16B 113(2) . .
C20B C15 C14 128(2) . .
C16 C15 C14 120.2(16) . .
C16B C15 C14 119.9(18) . .
C16 C15 C20 115(2) . .
C14 C15 C20 123.1(19) . .
C17 C16 C15 121(2) . .
C17 C16 H16 119.4 . .
C15 C16 H16 119.4 . .
C18 C17 C16 119(2) . .
C18 C17 H17 120.7 . .
C16 C17 H17 120.7 . .
C19B C18 C17B 123(2) . .
C17 C18 C19 126(2) . .
C17 C18 C21 117.7(14) . .
C19B C18 C21 116.0(16) . .
C17B C18 C21 121(2) . .
C19 C18 C21 115.6(13) . .
C18 C19 C20 114(2) . .
C18 C19 H19 123.0 . .
C20 C19 H19 123.0 . .
C19 C20 C15 121(3) . .
C19 C20 H20 119.7 . .
C15 C20 H20 119.7 . .
C17B C16B C15 120(3) . .
C17B C16B H16B 120.1 . .
C15 C16B H16B 120.1 . .
C16B C17B C18 122(3) . .
C16B C17B H17B 119.1 . .
C18 C17B H17B 119.1 . .
C20B C19B C18 113(2) . .
C20B C19B H19B 123.4 . .
C18 C19B H19B 123.4 . .
C19B C20B C15 129(3) . .
C19B C20B H20B 115.3 . .
C15 C20B H20B 115.3 . .
O5Z C21 O6Z 136(3) . .
O6Y C21 O5Y 128.4(18) . .
O8X C21 O7X 135.6(19) . .
O5Z C21 C18 117.2(14) . .
O6Z C21 C18 107(2) . .
O6Y C21 C18 118.1(12) . .
O5Y C21 C18 113.5(14) . .
O8X C21 C18 114.0(17) . .
O7X C21 C18 110.4(12) . .
O8X C21 Zr1X 76.3(15) . 2_655
O7X C21 Zr1X 62.3(9) . 2_655
C18 C21 Zr1X 157.3(7) . 2_655
C23 C22 C22 120.4(6) . 4_575
C23 C22 C11 127.5(9) . .
C22 C22 C11 112.1(5) 4_575 .
C22 C23 C24 120.0(10) . .
C22 C23 H23 120.0 . .
C24 C23 H23 120.0 . .
C24 C24 C23 119.6(6) 4_575 .
C24 C24 C25 123.5(6) 4_575 .
C23 C24 C25 116.9(10) . .
C30B C25 C26B 120.8(19) . .
C30 C25 C26 121.1(19) . .
C30 C25 C24 120.0(14) . .
C30B C25 C24 119.0(15) . .
C26B C25 C24 120.2(15) . .
C26 C25 C24 118.9(14) . .
C27 C26 C25 119(2) . .
C27 C26 H26 120.4 . .
C25 C26 H26 120.4 . .
C26 C27 C28 121(2) . .
C26 C27 H27 119.3 . .
C28 C27 H27 119.3 . .
C29 C28 C27 116(2) . .
C27B C28 C29B 116(2) . .
C29 C28 C31 122.4(13) . .
C27B C28 C31 123.2(14) . .
C27 C28 C31 121.3(13) . .
C29B C28 C31 120.7(15) . .
C28 C29 C30 125(2) . .
C28 C29 H29 117.6 . .
C30 C29 H29 117.6 . .
C25 C30 C29 117(2) . .
C25 C30 H30 121.4 . .
C29 C30 H30 121.4 . .
C25 C26B C27B 123(2) . .
C25 C26B H26B 118.6 . .
C27B C26B H26B 118.6 . .
C28 C27B C26B 119(2) . .
C28 C27B H27B 120.5 . .
C26B C27B H27B 120.5 . .
C30B C29B C28 126(3) . .
C30B C29B H29B 116.8 . .
C28 C29B H29B 116.8 . .
C25 C30B C29B 115(2) . .
C25 C30B H30B 122.5 . .
C29B C30B H30B 122.5 . .
O5X C31 O6X 122.9(19) . .
O3Y C31 O4Y 126(2) . .
O5X C31 C28 116.2(12) . .
O3Y C31 C28 114.9(12) . .
O6X C31 C28 115.8(15) . .
O4Y C31 C28 119.1(18) . .
O7Z C31 C28 116.2(12) . .
O7Z C31 O8Z 130.7(17) . .
C28 C31 O8Z 113.0(10) . .
O5X C31 Zr1Z 80.4(11) . 2_756
O6X C31 Zr1Z 54.3(13) . 2_756
C28 C31 Zr1Z 161.3(7) . 2_756
O9Y C32 O9Y 151.3(14) 2_755 .
O9X C32 O9X 153.7(13) . 2_755
O9Y C32 O9Z 60.0(11) 2_755 2_755
O9Y C32 O9Z 112.5(11) . 2_755
O9X C32 O9Z 57.8(10) . 2_755
O9X C32 O9Z 115.1(10) 2_755 2_755
O9Z C32 O9Z 152.6(18) . 2_755
O7X Zr1X O1X 161.9(9) 2_655 .
O7X Zr1X O2X 128.9(12) 2_655 .
O1X Zr1X O2X 69.1(9) . .
O7X Zr1X O2AX 85.6(11) 2_655 .
O1X Zr1X O2AX 106.2(11) . .
O2X Zr1X O2AX 66.6(10) . .
O7X Zr1X O9X 78.7(9) 2_655 .
O1X Zr1X O9X 84.0(8) . .
O2X Zr1X O9X 145.3(8) . .
O2AX Zr1X O9X 145.2(8) . .
O7X Zr1X C21 44.0(5) 2_655 2_655
O1X Zr1X C21 140.1(9) . 2_655
O2X Zr1X C21 100.8(12) . 2_655
O2AX Zr1X C21 104.1(10) . 2_655
O9X Zr1X C21 85.8(7) . 2_655
O7X Zr1X O4X 121.2(10) 2_655 .
O1X Zr1X O4X 56.3(10) . .
O2X Zr1X O4X 76.2(10) . .
O2AX Zr1X O4X 142.7(10) . .
O9X Zr1X O4X 70.6(9) . .
C21 Zr1X O4X 84.0(8) 2_655 .
O7X Zr1X O8X 82.2(9) 2_655 2_655
O1X Zr1X O8X 107.4(10) . 2_655
O2X Zr1X O8X 65.9(13) . 2_655
O2AX Zr1X O8X 104.3(11) . 2_655
O9X Zr1X O8X 104.1(9) . 2_655
C21 Zr1X O8X 39.2(6) 2_655 2_655
O4X Zr1X O8X 59.7(9) . 2_655
O7X Zr1X O1X 102.3(9) 2_655 2_755
O1X Zr1X O1X 70.4(10) . 2_755
O2X Zr1X O1X 106.0(10) . 2_755
O2AX Zr1X O1X 69.3(9) . 2_755
O9X Zr1X O1X 83.9(8) . 2_755
C21 Zr1X O1X 146.2(8) 2_655 2_755
O4X Zr1X O1X 122.0(9) . 2_755
O8X Zr1X O1X 171.6(9) 2_655 2_755
O7X Zr1X O6X 31.3(7) 2_655 1_554
O1X Zr1X O6X 137.5(10) . 1_554
O2X Zr1X O6X 139.6(9) . 1_554
O2AX Zr1X O6X 75.4(9) . 1_554
O9X Zr1X O6X 75.1(8) . 1_554
C21 Zr1X O6X 75.3(6) 2_655 1_554
O4X Zr1X O6X 140.9(10) . 1_554
O8X Zr1X O6X 113.3(8) 2_655 1_554
O1X Zr1X O6X 70.9(9) 2_755 1_554
O7X Zr1X Zr1X 107.1(7) 2_655 4_565
O1X Zr1X Zr1X 89.7(6) . 4_565
O2X Zr1X Zr1X 33.4(6) . 4_565
O2AX Zr1X Zr1X 33.4(6) . 4_565
O9X Zr1X Zr1X 172.3(6) . 4_565
C21 Zr1X Zr1X 101.9(3) 2_655 4_565
O4X Zr1X Zr1X 109.5(7) . 4_565
O8X Zr1X Zr1X 82.1(7) 2_655 4_565
O1X Zr1X Zr1X 89.8(5) 2_755 4_565
O6X Zr1X Zr1X 107.0(6) 1_554 4_565
O7X Zr1X Zr2X 164.4(7) 2_655 .
O1X Zr1X Zr2X 33.6(6) . .
O2X Zr1X Zr2X 35.5(10) . .
O2AX Zr1X Zr2X 86.3(8) . .
O9X Zr1X Zr2X 115.0(5) . .
C21 Zr1X Zr2X 126.1(3) 2_655 .
O4X Zr1X Zr2X 61.0(8) . .
O8X Zr1X Zr2X 86.9(6) 2_655 .
O1X Zr1X Zr2X 87.3(7) 2_755 .
O6X Zr1X Zr2X 155.3(6) 1_554 .
Zr1X Zr1X Zr2X 60.11(6) 4_565 .
O2AX Zr2X O1X 72.4(10) 3_765 .
O2AX Zr2X O1X 72.4(10) 3_765 4_565
O1X Zr2X O1X 108.2(13) . 4_565
O2AX Zr2X O2X 102.9(14) 3_765 .
O1X Zr2X O2X 65.1(7) . .
O1X Zr2X O2X 65.1(7) 4_565 .
O2AX Zr2X O5X 80.9(9) 3_765 2_756
O1X Zr2X O5X 83.5(9) . 2_756
O1X Zr2X O5X 145.3(11) 4_565 2_756
O2X Zr2X O5X 144.7(4) . 2_756
O2AX Zr2X O5X 80.9(9) 3_765 3_766
O1X Zr2X O5X 145.3(11) . 3_766
O1X Zr2X O5X 83.5(9) 4_565 3_766
O2X Zr2X O5X 144.7(4) . 3_766
O5X Zr2X O5X 70.6(9) 2_756 3_766
O2AX Zr2X O3X 148.1(4) 3_765 .
O1X Zr2X O3X 78.3(9) . .
O1X Zr2X O3X 130.1(10) 4_565 .
O2X Zr2X O3X 74.8(9) . .
O5X Zr2X O3X 83.8(7) 2_756 .
O5X Zr2X O3X 119.7(7) 3_766 .
O2AX Zr2X O3X 148.1(4) 3_765 4_565
O1X Zr2X O3X 130.1(10) . 4_565
O1X Zr2X O3X 78.3(9) 4_565 4_565
O2X Zr2X O3X 74.8(9) . 4_565
O5X Zr2X O3X 119.7(7) 2_756 4_565
O5X Zr2X O3X 83.8(7) 3_766 4_565
O3X Zr2X O3X 63.0(8) . 4_565
O2AX Zr2X Zr1X 86.5(8) 3_765 .
O1X Zr2X Zr1X 31.1(8) . .
O1X Zr2X Zr1X 87.2(7) 4_565 .
O2X Zr2X Zr1X 34.0(4) . .
O5X Zr2X Zr1X 113.3(4) 2_756 .
O5X Zr2X Zr1X 166.1(5) 3_766 .
O3X Zr2X Zr1X 74.2(4) . .
O3X Zr2X Zr1X 104.4(5) 4_565 .
O2AX Zr2X Zr1X 86.5(8) 3_765 4_565
O1X Zr2X Zr1X 87.2(7) . 4_565
O1X Zr2X Zr1X 31.1(8) 4_565 4_565
O2X Zr2X Zr1X 34.0(4) . 4_565
O5X Zr2X Zr1X 166.1(5) 2_756 4_565
O5X Zr2X Zr1X 113.3(4) 3_766 4_565
O3X Zr2X Zr1X 104.4(5) . 4_565
O3X Zr2X Zr1X 74.2(4) 4_565 4_565
Zr1X Zr2X Zr1X 59.78(11) . 4_565
O2AX Zr2X Zr1X 33.1(4) 3_765 2_755
O1X Zr2X Zr1X 39.6(8) . 2_755
O1X Zr2X Zr1X 92.1(7) 4_565 2_755
O2X Zr2X Zr1X 88.1(8) . 2_755
O5X Zr2X Zr1X 76.2(5) 2_756 2_755
O5X Zr2X Zr1X 109.7(6) 3_766 2_755
O3X Zr2X Zr1X 115.7(4) . 2_755
O3X Zr2X Zr1X 162.7(5) 4_565 2_755
Zr1X Zr2X Zr1X 60.35(13) . 2_755
Zr1X Zr2X Zr1X 90.07(12) 4_565 2_755
O2AX Zr2X Zr1X 33.1(4) 3_765 3_765
O1X Zr2X Zr1X 92.1(7) . 3_765
O1X Zr2X Zr1X 39.6(8) 4_565 3_765
O2X Zr2X Zr1X 88.1(8) . 3_765
O5X Zr2X Zr1X 109.7(6) 2_756 3_765
O5X Zr2X Zr1X 76.2(5) 3_766 3_765
O3X Zr2X Zr1X 162.7(5) . 3_765
O3X Zr2X Zr1X 115.7(4) 4_565 3_765
Zr1X Zr2X Zr1X 90.07(12) . 3_765
Zr1X Zr2X Zr1X 60.35(13) 4_565 3_765
Zr1X Zr2X Zr1X 59.69(13) 2_755 3_765
Zr1X O1X Zr2X 115.3(13) . .
Zr1X O1X Zr1X 109.6(10) . 2_755
Zr2X O1X Zr1X 104.0(12) . 2_755
Zr1X O2X Zr1X 113.3(13) . 4_565
Zr1X O2X Zr2X 110.5(13) . .
Zr1X O2X Zr2X 110.5(13) 4_565 .
Zr1X O2AX Zr1X 113.1(12) 4_565 .
Zr1X O2AX Zr2X 113.6(10) 4_565 3_765
Zr1X O2AX Zr2X 113.6(10) . 3_765
C1 O3X Zr2X 122.8(13) . .
C1 O4X Zr1X 145(2) . .
C31 O5X Zr2X 129.4(13) . 3_766
C31 O6X O7X 153(3) . 2_656
C31 O6X Zr1X 136.8(17) . 1_556
O7X O6X Zr1X 54.1(14) 2_656 1_556
O6X O7X C21 167(2) 2_656 .
O6X O7X Zr1X 94.6(18) 2_656 2_655
C21 O7X Zr1X 73.6(10) . 2_655
C21 O8X Zr1X 64.5(12) . 2_655
C32 O9X Zr1X 110.9(10) . .
O2Y Zr1Y O8Y 98.2(9) . .
O2Y Zr1Y O9Y 82.8(9) . .
O8Y Zr1Y O9Y 80.1(10) . .
O2Y Zr1Y O1Y 68.8(7) . .
O8Y Zr1Y O1Y 83.6(11) . .
O9Y Zr1Y O1Y 144.8(7) . .
O2Y Zr1Y O1AY 105.6(12) . .
O8Y Zr1Y O1AY 129.7(11) . .
O9Y Zr1Y O1AY 145.5(9) . .
O1Y Zr1Y O1AY 65.6(10) . .
O2Y Zr1Y C1 140.7(8) . .
O8Y Zr1Y C1 42.7(5) . .
O9Y Zr1Y C1 85.4(8) . .
O1Y Zr1Y C1 103.2(8) . .
O1AY Zr1Y C1 105.2(10) . .
O2Y Zr1Y O7Y 173.5(9) . .
O8Y Zr1Y O7Y 82.6(8) . .
O9Y Zr1Y O7Y 103.7(9) . .
O1Y Zr1Y O7Y 104.9(9) . .
O1AY Zr1Y O7Y 69.3(12) . .
C1 Zr1Y O7Y 41.1(5) . .
C1 Zr1Y O2Y 145.9(7) . 2_755
C1 Zr1Y O5Y 73.4(6) . 2_655
C1 Zr1Y O4Y 83.0(8) . 2_756
C1 Zr1Y Zr1Y 102.5(3) . 4_565
O2Y Zr1Y Zr2Y 35.0(6) . .
O8Y Zr1Y Zr2Y 89.4(6) . .
O9Y Zr1Y Zr2Y 114.6(6) . .
O1Y Zr1Y Zr2Y 33.9(5) . .
O1AY Zr1Y Zr2Y 86.0(8) . .
C1 Zr1Y Zr2Y 125.8(3) . .
O7Y Zr1Y Zr2Y 138.8(7) . .
O2Y Zr1Y Zr2Y 88.0(6) 2_755 .
O5Y Zr1Y Zr2Y 68.0(5) 2_655 .
O4Y Zr1Y Zr2Y 150.9(8) 2_756 .
Zr1Y Zr1Y Zr2Y 60.08(6) 4_565 .
O1AY Zr2Y O1Y 100.4(13) 3_765 .
O1AY Zr2Y O2Y 70.5(9) 3_765 .
O1Y Zr2Y O2Y 65.5(7) . .
O6Y Zr2Y O2Y 139.4(9) 3_665 .
O6Y Zr2Y O2Y 78.2(8) 2_655 .
O2Y Zr2Y O2Y 108.1(11) 4_565 .
O1AY Zr2Y Zr1Y 85.9(8) 3_765 .
O1Y Zr2Y Zr1Y 33.2(4) . .
O6Y Zr2Y Zr1Y 111.7(5) 3_665 .
O6Y Zr2Y Zr1Y 77.0(4) 2_655 .
O2Y Zr2Y Zr1Y 87.9(6) 4_565 .
O2Y Zr2Y Zr1Y 32.4(7) . .
O3Y Zr2Y Zr1Y 162.1(5) 4_564 .
O3Y Zr2Y Zr1Y 114.9(4) 1_554 .
Zr1Y O1Y Zr2Y 112.9(7) . .
Zr1Y O1Y Zr2Y 112.9(7) 4_565 .
Zr1Y O1AY Zr1Y 113.6(13) 4_565 .
Zr1Y O2Y Zr2Y 112.6(10) . .
C31 O3Y Zr2Y 126.0(12) . 1_556
C31 O4Y Zr1Y 131(2) . 2_756
O8Y O5Y C21 131(2) 2_655 .
C21 O5Y Zr1Y 134.3(16) . 2_655
C21 O6Y Zr2Y 130.6(13) . 3_665
C1 O7Y Zr1Y 68.1(11) . .
O5Y O8Y C1 151(2) 2_655 .
O5Y O8Y Zr1Y 86.5(19) 2_655 .
C1 O8Y Zr1Y 69.9(10) . .
C32 O9Y Zr1Y 112.3(11) . .
O8Z Zr1Z O9Z 78.5(10) 2_756 .
O8Z Zr1Z O2Z 81.1(11) 2_756 .
O9Z Zr1Z O2Z 147.3(8) . .
O1Z Zr1Z O2Z 107.9(12) 2_755 .
O8Z Zr1Z O2AZ 126.9(15) 2_756 .
O9Z Zr1Z O2AZ 145.6(9) . .
O1Z Zr1Z O2AZ 72.0(15) 2_755 .
O2Z Zr1Z O2AZ 66.5(6) . .
O8Z Zr1Z O1Z 98.9(10) 2_756 .
O9Z Zr1Z O1Z 86.5(8) . .
O1Z Zr1Z O1Z 69.3(10) 2_755 .
O2Z Zr1Z O1Z 71.5(12) . .
O2AZ Zr1Z O1Z 108.4(14) . .
C31 Zr1Z O7Z 40.6(5) 2_756 2_756
O8Z Zr1Z O4Z 27.9(7) 2_756 .
O9Z Zr1Z O4Z 75.3(9) . .
O1Z Zr1Z O4Z 136.7(9) 2_755 .
O2Z Zr1Z O4Z 74.7(8) . .
O2AZ Zr1Z O4Z 138.4(10) . .
O1Z Zr1Z O4Z 71.1(10) . .
C31 Zr1Z O4Z 71.7(6) 2_756 .
O7Z Zr1Z O4Z 111.4(8) 2_756 .
C31 Zr1Z O6Z 84.1(7) 2_756 1_655
C31 Zr1Z Zr1Z 167.2(3) 2_756 2_755
O8Z Zr1Z Zr2Z 88.4(6) 2_756 .
O9Z Zr1Z Zr2Z 116.9(6) . .
O1Z Zr1Z Zr2Z 89.3(8) 2_755 .
O2Z Zr1Z Zr2Z 36.8(10) . .
O2AZ Zr1Z Zr2Z 89.2(8) . .
O1Z Zr1Z Zr2Z 34.8(6) . .
C31 Zr1Z Zr2Z 125.0(3) 2_756 .
O7Z Zr1Z Zr2Z 137.6(7) 2_756 .
O4Z Zr1Z Zr2Z 66.8(5) . .
O6Z Zr1Z Zr2Z 150.4(7) 1_655 .
Zr1Z Zr1Z Zr2Z 60.55(10) 2_755 .
O1Z Zr2Z O2Z 69.4(11) . .
O1Z Zr2Z O2Z 69.4(11) 4_565 .
O1Z Zr2Z O3Z 80.9(9) . .
O1Z Zr2Z O3Z 142.2(11) 4_565 .
O2Z Zr2Z O3Z 79.0(8) . .
O1Z Zr2Z Zr1Z 34.6(10) . .
O1Z Zr2Z Zr1Z 88.8(8) 4_565 .
O2Z Zr2Z Zr1Z 34.9(4) . .
O3Z Zr2Z Zr1Z 75.9(4) . .
O3Z Zr2Z Zr1Z 110.8(4) 4_565 .
O2AZ Zr2Z Zr1Z 88.8(8) 3_765 .
O5Z Zr2Z Zr1Z 161.8(5) 3_665 .
O5Z Zr2Z Zr1Z 115.0(4) 2_655 .
Zr1Z Zr2Z Zr1Z 60.43(12) 4_565 .
Zr1Z O1Z Zr1Z 110.6(10) 2_755 .
Zr1Z O1Z Zr2Z 112.3(14) 2_755 .
Zr1Z O1Z Zr2Z 110.6(14) . .
Zr1Z O2Z Zr2Z 108.3(13) . .
Zr1Z O2Z Zr2Z 108.3(13) 4_565 .
C1 O3Z Zr2Z 129.9(14) . .
C1 O4Z O8Z 152(3) . 2_756
C1 O4Z Zr1Z 131.3(18) . .
O8Z O4Z Zr1Z 51.6(15) 2_756 .
C21 O5Z Zr2Z 123.3(14) . 3_665
C21 O6Z Zr1Z 123(2) . 1_455
C31 O7Z Zr1Z 69.1(10) . 2_756
O4Z O8Z C31 171(3) 2_756 .
C31 O8Z Zr1Z 73.1(10) . 2_756
C32 O9Z Zr1Z 110.5(13) . .
loop_
_geom_bond_atom_site_label_1
_geom_bond_atom_site_label_2
_geom_bond_distance
_geom_bond_site_symmetry_2
C1 O3Z 1.061(14) .
C1 O3X 1.102(15) .
C1 O4Z 1.145(17) .
C1 O4X 1.181(18) .
C1 O7Y 1.498(18) .
C1 O8Y 1.528(17) .
C1 C2 1.538(19) .
C1 Zr1Y 2.115(12) .
C2 C3 1.350(16) .
C2 C7B 1.357(16) .
C2 C3B 1.394(16) .
C2 C7 1.395(16) .
C3 C4 1.42(2) .
C3 H3 0.9500 .
C4 C5 1.376(16) .
C4 H4 0.9500 .
C5 C6B 1.372(15) .
C5 C4B 1.376(16) .
C5 C6 1.387(17) .
C5 C8 1.490(18) .
C6 C7 1.42(2) .
C6 H6 0.9500 .
C7 H7 0.9500 .
C3B C4B 1.42(2) .
C3B H3B 0.9500 .
C4B H4B 0.9500 .
C6B C7B 1.43(2) .
C6B H6B 0.9500 .
C7B H7B 0.9500 .
C8 C8 1.38(2) 4_575
C8 C9 1.453(16) .
C9 C10 1.375(15) .
C9 H9 0.9500 .
C10 C11 1.456(15) .
C10 C10 1.480(19) 4_575
C11 C22 1.506(14) .
C11 C12 1.514(15) .
C11 H11 1.0000 .
C12 C13 1.384(15) .
C12 C12 1.432(18) 4_575
C13 C14 1.429(16) .
C13 H13 0.9500 .
C14 C14 1.42(2) 4_575
C14 C15 1.439(18) .
C15 C20B 1.418(19) .
C15 C16 1.431(19) .
C15 C16B 1.43(2) .
C15 C20 1.45(2) .
C16 C17 1.37(3) .
C16 H16 0.9500 .
C17 C18 1.358(18) .
C17 H17 0.9500 .
C18 C19B 1.360(19) .
C18 C17B 1.379(19) .
C18 C19 1.381(18) .
C18 C21 1.60(2) .
C19 C20 1.45(4) .
C19 H19 0.9500 .
C20 H20 0.9500 .
C16B C17B 1.33(4) .
C16B H16B 0.9500 .
C17B H17B 0.9500 .
C19B C20B 1.33(4) .
C19B H19B 0.9500 .
C20B H20B 0.9500 .
C21 O5Z 1.037(15) .
C21 O6Z 1.116(18) .
C21 O6Y 1.150(15) .
C21 O5Y 1.266(16) .
C21 O8X 1.493(19) .
C21 O7X 1.545(17) .
C21 Zr1X 2.132(13) 2_655
C22 C23 1.354(13) .
C22 C22 1.436(18) 4_575
C23 C24 1.419(15) .
C23 H23 0.9500 .
C24 C24 1.41(2) 4_575
C24 C25 1.524(17) .
C25 C30 1.368(18) .
C25 C30B 1.376(19) .
C25 C26B 1.382(18) .
C25 C26 1.393(19) .
C26 C27 1.39(2) .
C26 H26 0.9500 .
C27 C28 1.394(18) .
C27 H27 0.9500 .
C28 C29 1.368(17) .
C28 C27B 1.373(19) .
C28 C29B 1.408(19) .
C28 C31 1.494(19) .
C29 C30 1.39(2) .
C29 H29 0.9500 .
C30 H30 0.9500 .
C26B C27B 1.38(2) .
C26B H26B 0.9500 .
C27B H27B 0.9500 .
C29B C30B 1.38(2) .
C29B H29B 0.9500 .
C30B H30B 0.9500 .
C31 O5X 1.111(15) .
C31 O3Y 1.131(15) .
C31 O6X 1.195(17) .
C31 O4Y 1.224(18) .
C31 O7Z 1.491(18) .
C31 O8Z 1.550(17) .
C31 Zr1Z 2.138(11) 2_756
C32 O9Y 1.53(3) 2_755
C32 O9Y 1.53(3) .
C32 O9X 1.53(2) .
C32 O9X 1.53(2) 2_755
C32 O9Z 1.55(2) .
C32 O9Z 1.55(2) 2_755
Zr1X O7X 1.97(2) 2_655
Zr1X O1X 2.02(3) .
Zr1X O2X 2.106(15) .
Zr1X O2AX 2.108(15) .
Zr1X O9X 2.115(19) .
Zr1X O4X 2.29(3) .
Zr1X O8X 2.30(3) 2_655
Zr1X O1X 2.32(3) 2_755
Zr1X O6X 2.42(2) 1_554
Zr1X Zr1X 3.518(5) 4_565
Zr1X Zr2X 3.530(5) .
Zr2X O2AX 2.12(3) 3_765
Zr2X O1X 2.160(17) .
Zr2X O1X 2.160(17) 4_565
Zr2X O2X 2.19(4) .
Zr2X O5X 2.205(16) 2_756
Zr2X O5X 2.205(16) 3_766
Zr2X O3X 2.324(18) .
Zr2X O3X 2.324(18) 4_565
O6X O7X 1.26(3) 2_656
Zr1Y O2Y 2.05(3) .
Zr1Y O8Y 2.08(3) .
Zr1Y O9Y 2.08(2) .
Zr1Y O1Y 2.098(13) .
Zr1Y O1AY 2.103(15) .
Zr1Y O7Y 2.15(3) .
Zr1Y O2Y 2.25(3) 2_755
Zr1Y O5Y 2.35(2) 2_655
Zr1Y O4Y 2.39(3) 2_756
Zr1Y Zr1Y 3.520(5) 4_565
Zr1Y Zr2Y 3.528(5) .
Zr2Y O1AY 2.12(3) 3_765
Zr2Y O1Y 2.136(18) .
Zr2Y O6Y 2.180(16) 3_665
Zr2Y O6Y 2.180(16) 2_655
Zr2Y O2Y 2.19(2) 4_565
Zr2Y O2Y 2.19(2) .
Zr2Y O3Y 2.289(17) 4_564
Zr2Y O3Y 2.289(17) 1_554
O5Y O8Y 1.23(3) 2_655
Zr1Z O8Z 1.99(2) 2_756
Zr1Z O9Z 2.08(2) .
Zr1Z O1Z 2.11(3) 2_755
Zr1Z O2Z 2.120(12) .
Zr1Z O2AZ 2.120(12) .
Zr1Z O1Z 2.14(3) .
Zr1Z O7Z 2.15(3) 2_756
Zr1Z O4Z 2.50(2) .
Zr1Z O6Z 2.65(3) 1_655
Zr1Z Zr1Z 3.495(6) 2_755
Zr1Z Zr2Z 3.521(5) .
Zr2Z O1Z 2.146(17) .
Zr2Z O1Z 2.146(17) 4_565
Zr2Z O2Z 2.22(4) .
Zr2Z O3Z 2.232(15) .
Zr2Z O3Z 2.232(15) 4_565
Zr2Z O2AZ 2.27(5) 3_765
Zr2Z O5Z 2.343(17) 3_665
Zr2Z O5Z 2.343(17) 2_655
O4Z O8Z 1.19(2) 2_756
loop_
_geom_torsion_atom_site_label_1
_geom_torsion_atom_site_label_2
_geom_torsion_atom_site_label_3
_geom_torsion_atom_site_label_4
_geom_torsion
_geom_torsion_site_symmetry_1
_geom_torsion_site_symmetry_4
C7 C2 C3 C4 -2(4) . .
C1 C2 C3 C4 -177(2) . .
C2 C3 C4 C5 -2(5) . .
C3 C4 C5 C6 13(4) . .
C3 C4 C5 C8 -179(2) . .
C4 C5 C6 C7 -20(4) . .
C8 C5 C6 C7 172(2) . .
C3 C2 C7 C6 -4(4) . .
C1 C2 C7 C6 170(2) . .
C5 C6 C7 C2 16(5) . .
C7B C2 C3B C4B -0.2(3) . .
C1 C2 C3B C4B 178.3(10) . .
C6B C5 C4B C3B 0.5(6) . .
C8 C5 C4B C3B 178.2(11) . .
C2 C3B C4B C5 -0.2(3) . .
C4B C5 C6B C7B -0.4(9) . .
C8 C5 C6B C7B -178.1(12) . .
C3B C2 C7B C6B 0.3(6) . .
C1 C2 C7B C6B -178.3(10) . .
C5 C6B C7B C2 0.0(9) . .
C6B C5 C8 C8 -123.8(10) . 4_575
C4B C5 C8 C8 58.5(12) . 4_575
C4 C5 C8 C8 124.9(17) . 4_575
C6 C5 C8 C8 -67(2) . 4_575
C6B C5 C8 C9 54.4(15) . .
C4B C5 C8 C9 -123.3(12) . .
C4 C5 C8 C9 -57(2) . .
C6 C5 C8 C9 111(2) . .
C8 C8 C9 C10 -0.7(13) 4_575 .
C5 C8 C9 C10 -179.0(11) . .
C8 C9 C10 C11 -177.7(10) . .
C8 C9 C10 C10 0.7(13) . 4_575
C9 C10 C11 C22 122.9(11) . .
C10 C10 C11 C22 -55.5(8) 4_575 .
C9 C10 C11 C12 -124.0(11) . .
C10 C10 C11 C12 57.5(8) 4_575 .
C10 C11 C12 C13 123.0(11) . .
C22 C11 C12 C13 -121.6(11) . .
C10 C11 C12 C12 -57.6(8) . 4_575
C22 C11 C12 C12 57.8(8) . 4_575
C12 C12 C13 C14 0.8(14) 4_575 .
C11 C12 C13 C14 -179.8(11) . .
C12 C13 C14 C14 -0.8(14) . 4_575
C12 C13 C14 C15 176.8(12) . .
C14 C14 C15 C20B 121.0(11) 4_575 .
C13 C14 C15 C20B -56.5(17) . .
C14 C14 C15 C16 -124.5(17) 4_575 .
C13 C14 C15 C16 58(2) . .
C14 C14 C15 C16B -61.2(13) 4_575 .
C13 C14 C15 C16B 121.3(13) . .
C14 C14 C15 C20 69(2) 4_575 .
C13 C14 C15 C20 -109(2) . .
C14 C15 C16 C17 -176(3) . .
C20 C15 C16 C17 -8(4) . .
C15 C16 C17 C18 -9(5) . .
C16 C17 C18 C19 15(5) . .
C16 C17 C18 C21 -176(2) . .
C17 C18 C19 C20 -3(4) . .
C21 C18 C19 C20 -171(2) . .
C18 C19 C20 C15 -16(4) . .
C16 C15 C20 C19 21(4) . .
C14 C15 C20 C19 -171(2) . .
C20B C15 C16B C17B 0.0(3) . .
C14 C15 C16B C17B -178.1(12) . .
C15 C16B C17B C18 -0.3(3) . .
C19B C18 C17B C16B 0.8(7) . .
C21 C18 C17B C16B 179.4(9) . .
C17B C18 C19B C20B -0.9(9) . .
C21 C18 C19B C20B -179.6(10) . .
C18 C19B C20B C15 0.7(10) . .
C16B C15 C20B C19B -0.3(7) . .
C14 C15 C20B C19B 177.7(14) . .
C10 C11 C22 C23 -122.7(13) . .
C12 C11 C22 C23 123.8(12) . .
C10 C11 C22 C22 55.6(9) . 4_575
C12 C11 C22 C22 -57.8(8) . 4_575
C22 C22 C23 C24 1.4(16) 4_575 .
C11 C22 C23 C24 179.6(12) . .
C22 C23 C24 C24 -1.4(16) . 4_575
C22 C23 C24 C25 -179.9(12) . .
C24 C24 C25 C30 122.0(10) 4_575 .
C23 C24 C25 C30 -59.5(17) . .
C24 C24 C25 C30B 57.6(12) 4_575 .
C23 C24 C25 C30B -123.9(13) . .
C24 C24 C25 C26B -122.4(9) 4_575 .
C23 C24 C25 C26B 56.1(16) . .
C24 C24 C25 C26 -59.6(12) 4_575 .
C23 C24 C25 C26 118.9(14) . .
C30 C25 C26 C27 0.1(3) . .
C24 C25 C26 C27 -178.3(11) . .
C25 C26 C27 C28 -0.1(3) . .
C26 C27 C28 C29 0.3(6) . .
C26 C27 C28 C31 -175.7(11) . .
C27 C28 C29 C30 -0.4(9) . .
C31 C28 C29 C30 175.5(12) . .
C26 C25 C30 C29 -0.2(6) . .
C24 C25 C30 C29 178.1(12) . .
C28 C29 C30 C25 0.4(9) . .
C30B C25 C26B C27B -0.2(3) . .
C24 C25 C26B C27B 179.9(11) . .
C29B C28 C27B C26B 0.4(6) . .
C31 C28 C27B C26B -178.5(9) . .
C25 C26B C27B C28 -0.2(3) . .
C27B C28 C29B C30B -0.3(10) . .
C31 C28 C29B C30B 178.6(10) . .
C26B C25 C30B C29B 0.3(7) . .
C24 C25 C30B C29B -179.8(11) . .
C28 C29B C30B C25 -0.1(10) . .
O4X C1 O3X Zr2X 25.6(13) . .
C2 C1 O3X Zr2X -154.8(11) . .
O3X C1 O4X Zr1X 29(3) . .
C2 C1 O4X Zr1X -151(3) . .
O6X C31 O5X Zr2X -41(3) . 3_766
C28 C31 O5X Zr2X 165.4(12) . 3_766
O5X C31 O6X O7X -73(6) . 2_656
C28 C31 O6X O7X 81(6) . 2_656
O5X C31 O6X Zr1X 30(3) . 1_556
C28 C31 O6X Zr1X -176.8(18) . 1_556
O8X C21 O7X O6X -44(10) . 2_656
C18 C21 O7X O6X 135(10) . 2_656
Zr1X C21 O7X O6X -21(10) 2_655 2_656
O8X C21 O7X Zr1X -23.3(9) . 2_655
C18 C21 O7X Zr1X 156.5(7) . 2_655
O7X C21 O8X Zr1X 21.2(8) . 2_655
C18 C21 O8X Zr1X -158.6(7) . 2_655
O9X C32 O9X Zr1X -0.4(7) 2_755 .
O4Y C31 O3Y Zr2Y 21.9(15) . 1_556
C28 C31 O3Y Zr2Y -158.1(12) . 1_556
O3Y C31 O4Y Zr1Y 27(2) . 2_756
C28 C31 O4Y Zr1Y -153.0(19) . 2_756
O6Y C21 O5Y O8Y -91(3) . 2_655
C18 C21 O5Y O8Y 88(3) . 2_655
O6Y C21 O5Y Zr1Y -2.3(19) . 2_655
C18 C21 O5Y Zr1Y 176.6(17) . 2_655
O5Y C21 O6Y Zr2Y -11.9(14) . 3_665
C18 C21 O6Y Zr2Y 169.2(12) . 3_665
O8Y C1 O7Y Zr1Y 22.9(9) . .
C2 C1 O7Y Zr1Y -157.0(8) . .
O7Y C1 O8Y O5Y -60(5) . 2_655
C2 C1 O8Y O5Y 120(5) . 2_655
Zr1Y C1 O8Y O5Y -37(5) . 2_655
O7Y C1 O8Y Zr1Y -23.4(9) . .
C2 C1 O8Y Zr1Y 156.5(8) . .
O9Y C32 O9Y Zr1Y 0.8(7) 2_755 .
O4Z C1 O3Z Zr2Z -35(3) . .
C2 C1 O3Z Zr2Z 168.5(10) . .
O3Z C1 O4Z O8Z -59(7) . 2_756
C2 C1 O4Z O8Z 100(6) . 2_756
O3Z C1 O4Z Zr1Z 25(3) . .
C2 C1 O4Z Zr1Z -176.3(16) . .
O6Z C21 O5Z Zr2Z 25.5(15) . 3_665
C18 C21 O5Z Zr2Z -155.6(11) . 3_665
O5Z C21 O6Z Zr1Z 22(2) . 1_455
C18 C21 O6Z Zr1Z -156.5(16) . 1_455
C28 C31 O7Z Zr1Z -161.0(8) . 2_756
O8Z C31 O7Z Zr1Z 19.0(8) . 2_756
O7Z C31 O8Z Zr1Z -20.1(9) . 2_756
C28 C31 O8Z Zr1Z 159.8(8) . 2_756
O9Z C32 O9Z Zr1Z -1.2(8) 2_755 .
