#------------------------------------------------------------------------------
#$Date: 2019-11-03 11:07:56 +0200 (Sun, 03 Nov 2019) $
#$Revision: 221223 $
#$URL: file:///home/coder/svn-repositories/cod/cif/4/12/80/4128092.cif $
#------------------------------------------------------------------------------
#
# This file is available in the Crystallography Open Database (COD),
# http://www.crystallography.net/
#
# All data on this site have been placed in the public domain by the
# contributors.
#
data_4128092
loop_
_publ_author_name
'Rizzuto, Felix J.'
'Pr\"ohm, Patrick'
'Plajer, Alex J.'
'Greenfield, Jake L.'
'Nitschke, Jonathan R.'
_publ_section_title
;
 Hydrogen-Bond-Assisted Symmetry Breaking in a Network of Chiral
 Metal-Organic Assemblies.
;
_journal_issue                   4
_journal_name_full               'Journal of the American Chemical Society'
_journal_page_first              1707
_journal_page_last               1715
_journal_paper_doi               10.1021/jacs.8b12323
_journal_volume                  141
_journal_year                    2019
_chemical_formula_moiety
'(Zn2 C96 H78 N18 O6), 4(C F3 S O3), 4(C H4 O)'
_chemical_formula_sum            'C110 H106 F12 N18 O22 S4 Zn2'
_chemical_formula_weight         2519.10
_space_group_crystal_system      monoclinic
_space_group_IT_number           14
_space_group_name_Hall           '-P 2yn'
_space_group_name_H-M_alt        'P 1 21/n 1'
_symmetry_space_group_name_Hall  '-P 2yn'
_symmetry_space_group_name_H-M   'P 1 21/n 1'
_atom_sites_solution_hydrogens   mixed
_audit_creation_method           SHELXL-2016/6
_cell_angle_alpha                90
_cell_angle_beta                 91.51(3)
_cell_angle_gamma                90
_cell_formula_units_Z            2
_cell_length_a                   17.046(3)
_cell_length_b                   16.504(3)
_cell_length_c                   21.373(4)
_cell_measurement_reflns_used    17241
_cell_measurement_temperature    100(2)
_cell_measurement_theta_max      24.4870
_cell_measurement_theta_min      1.4556
_cell_volume                     6010.7(19)
_computing_cell_refinement       'XIA2 0.4.0.331-g9691117'
_computing_data_collection       'GDA 8.44; generic data acquisition software'
_computing_data_reduction        'XIA2 0.4.0.331-g9691117'
_computing_structure_refinement  'SHELXL-2016/6 (Sheldrick, 2016)'
_computing_structure_solution    'SHELXT 2014/5 (Sheldrick, 2014)'
_diffrn_ambient_temperature      100(2)
_diffrn_detector                 'Photon counting pixel array'
_diffrn_measured_fraction_theta_full 0.999
_diffrn_measured_fraction_theta_max 0.999
_diffrn_measurement_device       'Fixed \c 3-circle diffractometer'
_diffrn_measurement_device_type  'Fluid Film Devices'
_diffrn_measurement_method       'shutterless scans'
_diffrn_measurement_specimen_support 'MiTeGen MicroMount'
_diffrn_radiation_monochromator  'Silicon 111'
_diffrn_radiation_source         'Diamond Light Source Beamline I19-1'
_diffrn_radiation_type           Synchrotron
_diffrn_radiation_wavelength     0.6889
_diffrn_reflns_av_R_equivalents  0.0760
_diffrn_reflns_av_unetI/netI     0.0553
_diffrn_reflns_Laue_measured_fraction_full 0.999
_diffrn_reflns_Laue_measured_fraction_max 0.999
_diffrn_reflns_limit_h_max       17
_diffrn_reflns_limit_h_min       -17
_diffrn_reflns_limit_k_max       16
_diffrn_reflns_limit_k_min       -16
_diffrn_reflns_limit_l_max       21
_diffrn_reflns_limit_l_min       -21
_diffrn_reflns_number            29765
_diffrn_reflns_point_group_measured_fraction_full 0.999
_diffrn_reflns_point_group_measured_fraction_max 0.999
_diffrn_reflns_theta_full        20.147
_diffrn_reflns_theta_max         20.147
_diffrn_reflns_theta_min         1.462
_exptl_absorpt_coefficient_mu    0.514
_exptl_absorpt_correction_T_max  1.0
_exptl_absorpt_correction_T_min  0.9860
_exptl_absorpt_correction_type   empirical
_exptl_absorpt_process_details
;
CCP4 7.0.040: AIMLESS, version 0.5.32 : 29/03/17
Scaling & analysis of unmerged intensities, absorption correction using spherical harmonics
;
_exptl_crystal_colour            colorless
_exptl_crystal_density_diffrn    1.392
_exptl_crystal_description       block
_exptl_crystal_F_000             2600
_exptl_crystal_size_max          0.100
_exptl_crystal_size_mid          0.080
_exptl_crystal_size_min          0.070
_refine_diff_density_max         1.373
_refine_diff_density_min         -0.593
_refine_diff_density_rms         0.104
_refine_ls_extinction_method     none
_refine_ls_goodness_of_fit_ref   1.021
_refine_ls_hydrogen_treatment    mixed
_refine_ls_matrix_type           full
_refine_ls_number_parameters     881
_refine_ls_number_reflns         6287
_refine_ls_number_restraints     407
_refine_ls_restrained_S_all      1.177
_refine_ls_R_factor_all          0.0902
_refine_ls_R_factor_gt           0.0860
_refine_ls_shift/su_max          0.003
_refine_ls_shift/su_mean         0.000
_refine_ls_structure_factor_coef Fsqd
_refine_ls_weighting_details
'w=1/[\s^2^(Fo^2^)+(0.2000P)^2^+5.0000P] where P=(Fo^2^+2Fc^2^)/3'
_refine_ls_weighting_scheme      calc
_refine_ls_wR_factor_gt          0.2493
_refine_ls_wR_factor_ref         0.2560
_reflns_Friedel_coverage         0.000
_reflns_number_gt                5485
_reflns_number_total             6287
_reflns_threshold_expression     'I > 2\s(I)'
_cod_data_source_file            ja8b12323_si_003.cif
_cod_data_source_block           shelx
_cod_original_cell_volume        6011(2)
_cod_database_code               4128092
_shelx_shelxl_version_number     2016/6
_shelx_space_group_comment
;
The symmetry employed for this shelxl refinement is uniquely defined
by the following loop, which should always be used as a source of
symmetry information in preference to the above space-group names.
They are only intended as comments.
;
_shelx_estimated_absorpt_t_min   0.950
_shelx_estimated_absorpt_t_max   0.965
_shelx_res_file
;
TITL p21n_a.res in P2(1)/n
    shelx.res
    created by SHELXL-2016/6 at 17:44:21 on 20-Jul-2017
CELL   0.6889   17.0464  16.5043  21.3729   90.000   91.515   90.000
ZERR     2.00   0.0034   0.0033   0.0043    0.000    0.030    0.000
LATT   1
SYMM  1/2 - X, 1/2 + Y, 1/2 - Z
SFAC  C    H    N    ZN   S    O    F
DISP $C  0.00315  0.00158 10.63663!source kissel
DISP $H -0.00002  0.00000  0.66583!source kissel
DISP $N  0.00614  0.00319 18.02576!source kissel
DISP $Zn  0.30323  1.36268 5381.41079!source kissel
DISP $S  0.12025  0.11793 478.96261!source kissel
DISP $O  0.01061  0.00581 29.59539!source kissel
DISP $F  0.01683  0.00993 46.72991!source kissel
UNIT  220 212 36 4 8 44 24
MERG   2
SIMU 0.02 0.04 2.0 S1 > H50C
ISOR 0.005 0.01 O3 F2 S2 C30 O10 C10
EQIV $3 -x+1, -y+1, -z+2
FREE C10 C10_$3
FREE O10 O10_$3
FREE O10 C10_$3
EQIV $2 -x+3/2, y-1/2, -z+1/2
EQIV $4 x+1/2, -y+3/2, z+1/2
EQIV $5 -x+1/2, y-1/2, -z+1/2
EQIV $6 -x+1/2, y+1/2, -z+1/2
EQIV $1 -x+1, -y+1, -z+1
HTAB N142 O100_$1
HTAB O50 O120
DFIX 1.418 0.030 S1 O1
DFIX 1.418 0.030 S1 O2
DFIX 2.064 0.030 S1 C1
DFIX 1.418 0.030 S1 O3
DFIX 1.321 0.020 C1 F1
DFIX 1.321 0.020 C1 F2
DFIX 1.321 0.020 C1 F3
DANG  2.409 O1   O2
DANG  2.409 O1  O3
DANG  2.722 O1   C1
DANG  2.410 O2   O3
DANG  2.722 O2   C1
DANG  2.722 O3   C1
DANG  2.823 S1   F1
DANG  2.824 S1   F2
DANG  2.824 S1   F3
DANG  2.134 F1   F2
DANG  2.134 F1   F3
DANG  2.134 F2   F3
DFIX 1.418 0.030 S2 O4
DFIX 1.418 0.030 S2 O5
DFIX 2.064 0.030 S2 C2
DFIX 1.418 0.030 S2 O6
DFIX 1.321 0.020 C2 F4
DFIX 1.321 0.020 C2 F5
DFIX 1.321 0.020 C2 F6
DANG  2.409 0.040 O4   O5
DANG  2.409 0.040 O4   O6
DANG  2.722 0.040 O4   C2
DANG  2.410 0.040 O5   O6
DANG  2.722 0.040 O5   C2
DANG  2.722 0.040 O6   C2
DANG  2.823 0.040 S2   F4
DANG  2.824 0.040 S2   F5
DANG  2.824 0.040 S2   F6
DANG  2.134 0.040 F4   F5
DANG  2.134 0.040 F4   F6
DANG  2.134 0.040 F5   F6
DFIX 1.418 0.030 S2A O4A
DFIX 1.418 0.030 S2A O5A
DFIX 2.064 0.030 S2A C2A
DFIX 1.418 0.030 S2A O6A
DFIX 1.321 0.020 C2A F4A
DFIX 1.321 0.020 C2A F5A
DFIX 1.321 0.020 C2A F6A
DANG  2.409  O4A   O5A
DANG  2.409  O4A   O6A
DANG  2.722  O4A   C2A
DANG  2.410  O5A   O6A
DANG  2.722  O5A   C2A
DANG  2.722  O6A   C2A
DANG  2.823  S2A   F4A
DANG  2.824  S2A   F5A
DANG  2.824  S2A   F6A
DANG  2.134  F4A   F5A
DANG  2.134  F4A   F6A
DANG  2.134  F5A   F6A
DFIX  1.427 0.02 C10 O10 C20B O20B C30 O30 C30A O30A
DFIX  0.880 0.1 N102 H10N N122 H12N N142 H14N
SUMP  1.0 0.00001 1.0 3 1.0 6 1.0 7 1.0 11
FMAP   2
PLAN  10
SIZE     0.070   0.080   0.100
ACTA
BOND   $H
CONF
LIST   6
L.S.  10
TEMP  -173.15
WGHT    0.200000    5.000000
FVAR       0.22483   0.77139   0.18822   0.50663   0.36462   0.40587   0.22141
FVAR       0.02904   0.22434   0.70771   0.18450
ZN01  4    0.949870    0.389183    0.678116    11.00000    0.09099    0.07591 =
         0.05094    0.00171   -0.00963    0.00812
C100  1    1.097774    0.278322    0.686031    11.00000    0.10369    0.10036 =
         0.06226    0.00984   -0.00913    0.01431
AFIX  43
H100  2    1.094188    0.284196    0.730079    11.00000   -1.20000
AFIX   0
C101  1    1.158398    0.232117    0.662560    11.00000    0.11550    0.12949 =
         0.08535   -0.00477   -0.01165    0.04409
AFIX  43
H101  2    1.196111    0.206867    0.689650    11.00000   -1.20000
AFIX   0
C102  1    1.161809    0.224244    0.598274    11.00000    0.13107    0.15220 =
         0.08229   -0.01157   -0.00491    0.05739
AFIX  43
H102  2    1.202755    0.193473    0.580554    11.00000   -1.20000
AFIX   0
C103  1    1.107223    0.260071    0.560486    11.00000    0.11888    0.12431 =
         0.07119   -0.00874   -0.00008    0.04055
AFIX  43
H103  2    1.108775    0.253533    0.516375    11.00000   -1.20000
AFIX   0
C104  1    1.049383    0.306133    0.586736    11.00000    0.09608    0.08522 =
         0.05877   -0.00116   -0.00618    0.00524
C105  1    0.987198    0.345695    0.549048    11.00000    0.10331    0.08392 =
         0.05160    0.00311   -0.00457    0.00785
AFIX  43
H105  2    0.986306    0.340497    0.504767    11.00000   -1.20000
AFIX   0
C106  1    0.873130    0.422525    0.537760    11.00000    0.09793    0.07210 =
         0.04703    0.00606    0.00184    0.00862
C107  1    0.818924    0.374137    0.505425    11.00000    0.11231    0.06883 =
         0.05742    0.00271   -0.01208   -0.00061
AFIX  43
H107  2    0.824460    0.316861    0.505628    11.00000   -1.20000
AFIX   0
C108  1    0.756504    0.410375    0.472772    11.00000    0.10523    0.07982 =
         0.05106    0.00502   -0.01623   -0.00437
AFIX  43
H108  2    0.719168    0.377312    0.451061    11.00000   -1.20000
AFIX   0
C109  1    0.747835    0.494391    0.471382    11.00000    0.09749    0.08253 =
         0.03995    0.00304   -0.00379    0.01217
C110  1    0.803067    0.541382    0.502645    11.00000    0.11055    0.06609 =
         0.05418    0.00157   -0.01144    0.00861
AFIX  43
H110  2    0.798664    0.598736    0.501194    11.00000   -1.20000
AFIX   0
C111  1    0.865685    0.505794    0.536574    11.00000    0.09655    0.08318 =
         0.05257    0.00158   -0.01044   -0.00143
AFIX  43
H111  2    0.902749    0.538831    0.558606    11.00000   -1.20000
AFIX   0
C112  1    0.677778    0.531935    0.436064    11.00000    0.09158    0.08502 =
         0.04947    0.00096   -0.00589    0.01304
AFIX  13
H112  2    0.644432    0.487100    0.418519    11.00000   -1.20000
AFIX   0
C113  1    0.702148    0.586501    0.381917    11.00000    0.10792    0.12480 =
         0.05344    0.02254   -0.00119    0.01550
AFIX  33
H11A  2    0.733141    0.555011    0.352561    11.00000   -1.50000
H11B  2    0.655152    0.607687    0.360170    11.00000   -1.50000
H11C  2    0.733737    0.631699    0.398392    11.00000   -1.50000
AFIX   0
C114  1    0.554830    0.595199    0.469534    11.00000    0.09787    0.05861 =
         0.04968    0.00682   -0.00686    0.00916
C115  1    0.512594    0.632937    0.521586    11.00000    0.08920    0.05940 =
         0.04793    0.00168   -0.01113    0.00034
C116  1    0.456120    0.692833    0.509915    11.00000    0.09527    0.06060 =
         0.05134    0.00607   -0.01296    0.00255
AFIX  43
H116  2    0.447205    0.712545    0.468575    11.00000   -1.20000
AFIX   0
C120  1   -0.007901    0.578768    0.182465    11.00000    0.10525    0.08189 =
         0.05921   -0.00674   -0.02308    0.01406
AFIX  43
H120  2   -0.043438    0.540433    0.198938    11.00000   -1.20000
AFIX   0
C121  1   -0.000700    0.584977    0.117759    11.00000    0.11793    0.09405 =
         0.06612   -0.00158   -0.03226    0.02147
AFIX  43
H121  2   -0.029400    0.549484    0.090680    11.00000   -1.20000
AFIX   0
C122  1    0.047095    0.641477    0.093750    11.00000    0.11501    0.10943 =
         0.05304    0.00022   -0.01745    0.02942
AFIX  43
H122  2    0.051686    0.646478    0.049718    11.00000   -1.20000
AFIX   0
C123  1    0.089714    0.692489    0.133987    11.00000    0.10941    0.09540 =
         0.04655   -0.00028   -0.01489    0.01662
AFIX  43
H123  2    0.123241    0.733262    0.118267    11.00000   -1.20000
AFIX   0
C124  1    0.081454    0.681638    0.197264    11.00000    0.08961    0.07970 =
         0.05050    0.00445   -0.00581    0.01659
C125  1    0.126742    0.731225    0.242812    11.00000    0.08581    0.08549 =
         0.05208    0.00361   -0.01078    0.00771
AFIX  43
H125  2    0.157964    0.774935    0.228750    11.00000   -1.20000
AFIX   0
C126  1    0.169045    0.765075    0.343303    11.00000    0.09600    0.06588 =
         0.04474    0.00469   -0.01072    0.00968
C127  1    0.132072    0.805690    0.391223    11.00000    0.09434    0.06915 =
         0.05839    0.00659   -0.00441    0.00951
AFIX  43
H127  2    0.076714    0.802486    0.394703    11.00000   -1.20000
AFIX   0
C128  1    0.176288    0.850954    0.433986    11.00000    0.10262    0.06835 =
         0.05430    0.00023   -0.00821    0.01314
AFIX  43
H128  2    0.150673    0.879837    0.466021    11.00000   -1.20000
AFIX   0
C129  1    0.255975    0.854571    0.430685    11.00000    0.10935    0.05936 =
         0.06096    0.00353   -0.02132    0.01039
C130  1    0.292670    0.815826    0.381582    11.00000    0.09420    0.07715 =
         0.06718   -0.00318   -0.01861    0.01484
AFIX  43
H130  2    0.347958    0.819961    0.378014    11.00000   -1.20000
AFIX   0
C131  1    0.249756    0.771546    0.338091    11.00000    0.09187    0.07609 =
         0.05432   -0.00084   -0.01045    0.01040
AFIX  43
H131  2    0.275342    0.745522    0.304635    11.00000   -1.20000
AFIX   0
C132  1    0.305623    0.899374    0.480261    11.00000    0.12108    0.06317 =
         0.06983   -0.00637   -0.03305    0.01011
AFIX  13
H132  2    0.271323    0.915562    0.515384    11.00000   -1.20000
AFIX   0
C133  1    0.345521    0.975768    0.454101    11.00000    0.14754    0.06569 =
         0.10387    0.00208   -0.05055    0.00849
AFIX  33
H13A  2    0.305332    1.013201    0.437756    11.00000   -1.50000
H13B  2    0.376265    1.002371    0.487606    11.00000   -1.50000
H13C  2    0.380285    0.960211    0.420339    11.00000   -1.50000
AFIX   0
C134  1    0.349062    0.786476    0.546849    11.00000    0.09836    0.07015 =
         0.05613   -0.01516   -0.01817    0.00835
C135  1    0.413173    0.723409    0.558701    11.00000    0.09070    0.06177 =
         0.05441   -0.00317   -0.01546    0.00622
C136  1    0.423501    0.693098    0.619618    11.00000    0.08706    0.06779 =
         0.05657   -0.00592   -0.01724    0.00874
AFIX  43
H136  2    0.393385    0.713928    0.652753    11.00000   -1.20000
AFIX   0
C140  1    1.098472    0.505717    0.663225    11.00000    0.09541    0.10588 =
         0.07623    0.00555   -0.00498    0.00156
AFIX  43
H140  2    1.127211    0.458417    0.653036    11.00000   -1.20000
AFIX   0
C141  1    1.136626    0.578907    0.665157    11.00000    0.10242    0.10498 =
         0.09560    0.01050    0.00454   -0.00935
AFIX  43
H141  2    1.190467    0.582379    0.655074    11.00000   -1.20000
AFIX   0
C142  1    1.096099    0.646923    0.681812    11.00000    0.12576    0.09310 =
         0.11318    0.00841   -0.01157   -0.02579
AFIX  43
H142  2    1.122365    0.697491    0.685874    11.00000   -1.20000
AFIX   0
C143  1    1.016749    0.641401    0.692653    11.00000    0.11145    0.08202 =
         0.09226   -0.00056    0.00182   -0.00260
AFIX  43
H143  2    0.986952    0.688422    0.701659    11.00000   -1.20000
AFIX   0
C144  1    0.981924    0.566447    0.690119    11.00000    0.10103    0.07895 =
         0.05826    0.00424   -0.01165   -0.00237
C145  1    0.898257    0.554849    0.702475    11.00000    0.10055    0.08306 =
         0.05603    0.00441   -0.00690    0.01302
AFIX  43
H145  2    0.867949    0.599753    0.715599    11.00000   -1.20000
AFIX   0
C146  1    0.784457    0.479396    0.711284    11.00000    0.08179    0.06314 =
         0.05163    0.00142   -0.00760    0.00882
C147  1    0.734044    0.437429    0.671709    11.00000    0.09912    0.06993 =
         0.04898   -0.00531   -0.00756    0.01441
AFIX  43
H147  2    0.753870    0.411117    0.635892    11.00000   -1.20000
AFIX   0
C148  1    0.655137    0.433247    0.683573    11.00000    0.09190    0.08036 =
         0.04872    0.00092   -0.00905    0.00571
AFIX  43
H148  2    0.621058    0.404329    0.655674    11.00000   -1.20000
AFIX   0
C149  1    0.624405    0.471193    0.736396    11.00000    0.09819    0.06731 =
         0.04436    0.01185   -0.00836    0.00669
C150  1    0.676854    0.511420    0.776526    11.00000    0.11307    0.06618 =
         0.04373    0.00448   -0.00426    0.01366
AFIX  43
H150  2    0.657783    0.536514    0.813124    11.00000   -1.20000
AFIX   0
C151  1    0.755877    0.515794    0.764517    11.00000    0.08873    0.07231 =
         0.05182    0.00264   -0.01062    0.00435
AFIX  43
H151  2    0.790560    0.543635    0.792613    11.00000   -1.20000
AFIX   0
C152  1    0.537042    0.470974    0.747274    11.00000    0.09339    0.08284 =
         0.04762    0.00647   -0.00390    0.00511
AFIX  13
H152  2    0.527394    0.499310    0.787706    11.00000   -1.20000
AFIX   0
C153  1    0.501534    0.385927    0.750419    11.00000    0.11067    0.10269 =
         0.07218    0.02563   -0.00391    0.00027
AFIX  33
H15A  2    0.527629    0.355285    0.784281    11.00000   -1.50000
H15B  2    0.445339    0.390060    0.758445    11.00000   -1.50000
H15C  2    0.508903    0.357989    0.710543    11.00000   -1.50000
AFIX   0
C154  1    0.492402    0.596478    0.695580    11.00000    0.08210    0.08410 =
         0.04858   -0.00580   -0.00875    0.00353
C155  1    0.478153    0.632408    0.630903    11.00000    0.08612    0.07019 =
         0.04909   -0.00029   -0.00877    0.00351
C156  1    0.522899    0.603743    0.582009    11.00000    0.09042    0.06617 =
         0.05065    0.00103   -0.01560    0.00403
AFIX  43
H156  2    0.561379    0.563231    0.590290    11.00000   -1.20000
AFIX   0
N100  3    1.044811    0.314468    0.649241    11.00000    0.09426    0.08372 =
         0.05688    0.00827   -0.00243    0.01127
N101  3    0.934897    0.386613    0.575339    11.00000    0.09119    0.07104 =
         0.05020    0.00242   -0.00674    0.00703
N102  3    0.631059    0.578084    0.480833    11.00000    0.10099    0.07758 =
         0.04564    0.00104   -0.00585    0.00835
N120  3    0.034113    0.625580    0.221666    11.00000    0.09332    0.07964 =
         0.04519   -0.00339   -0.01911    0.01599
N121  3    0.123944    0.715314    0.301322    11.00000    0.08759    0.07584 =
         0.04514    0.00141   -0.01027    0.00733
N122  3    0.367048    0.844071    0.504529    11.00000    0.10915    0.06355 =
         0.06033   -0.00340   -0.02727    0.01266
N140  3    1.021005    0.498654    0.675391    11.00000    0.08669    0.08623 =
         0.05921    0.00650   -0.00570    0.00581
N141  3    0.865405    0.485639    0.695941    11.00000    0.09348    0.06690 =
         0.04744    0.00021   -0.01494    0.00954
N142  3    0.497821    0.516562    0.696561    11.00000    0.09462    0.07238 =
         0.04432    0.00275   -0.00847    0.00459
O100  6    0.520188    0.578003    0.419715    11.00000    0.10304    0.07166 =
         0.05179   -0.00350   -0.01270    0.00988
O120  6    0.287326    0.783442    0.573556    11.00000    0.09835    0.08474 =
         0.07147   -0.00729   -0.01054    0.02072
O140  6    0.499218    0.641162    0.741653    11.00000    0.11182    0.08416 =
         0.05445   -0.00689   -0.01010    0.00534
S1    5    0.302992    0.777176    0.112897    11.00000    0.13562    0.09602 =
         0.07529   -0.00762    0.00463   -0.02960
O1    6    0.375991    0.807868    0.089627    11.00000    0.12215    0.10565 =
         0.06959    0.01397   -0.00664   -0.02982
O2    6    0.234580    0.797044    0.074773    11.00000    0.12174    0.09946 =
         0.19775    0.05194   -0.02033   -0.00782
O3    6    0.296855    0.781695    0.178419    11.00000    0.22075    0.15236 =
         0.10592   -0.03767    0.03737   -0.07840
C1    1    0.311414    0.664436    0.099235    11.00000    0.13076    0.11709 =
         0.06940    0.02084   -0.02137   -0.01884
F1    7    0.377542    0.636017    0.119239    11.00000    0.11117    0.12968 =
         0.17610    0.04136   -0.02096   -0.00460
F2    7    0.305443    0.649852    0.039459    11.00000    0.21846    0.11398 =
         0.09530   -0.00077   -0.00468   -0.03051
F3    7    0.252390    0.627910    0.127970    11.00000    0.11380    0.09332 =
         0.12180    0.03122   -0.00589   -0.01305
PART    1
S2    5    0.528422    0.850285    0.381528   101.00000    0.18700    0.14738 =
         0.06278    0.00568   -0.00067    0.06501
O4    6    0.499389    0.890551    0.331045   101.00000    0.20587    0.06970 =
         0.05542    0.02628   -0.02407    0.02037
O5    6    0.496759    0.761988    0.369028   101.00000    0.15601    0.08723 =
         0.09212   -0.01784   -0.01331   -0.01372
O6    6    0.512474    0.883298    0.444194   101.00000    0.13924    0.05750 =
         0.04880   -0.01861   -0.00209    0.03282
C2    1    0.630136    0.821287    0.383499   101.00000    0.20413    0.17392 =
         0.11689    0.02387    0.02638   -0.00714
F4    7    0.657636    0.898455    0.396559   101.00000    0.21634    0.14822 =
         0.19119   -0.03481    0.07728   -0.05366
F5    7    0.635666    0.770449    0.433109   101.00000    0.17389    0.12158 =
         0.16344    0.04674   -0.02715    0.05256
F6    7    0.640698    0.789773    0.326084   101.00000    0.18260    0.14155 =
         0.11935    0.01100    0.06792    0.06021
PART    2
S2A   5    0.582458    0.831605    0.386729  -101.00000    0.07734    0.07531 =
         0.07630    0.02188    0.01338    0.03502
C2A   1    0.578354    0.921841    0.334547  -101.00000    0.17095    0.12433 =
         0.10922   -0.00013    0.00485    0.04107
F4A   7    0.612699    0.931509    0.279491  -101.00000    0.38757    0.32252 =
         0.30916    0.00055    0.01382    0.01596
F5A   7    0.630102    0.952034    0.377128  -101.00000    0.15916    0.11344 =
         0.11756    0.01156    0.00325   -0.00907
F6A   7    0.502762    0.928444    0.322964  -101.00000    0.27095    0.20799 =
         0.14991   -0.00148    0.00343    0.02014
O4A   6    0.557640    0.749519    0.366448  -101.00000    0.18898    0.16554 =
         0.11389    0.00192    0.00447    0.06359
O5A   6    0.652498    0.820581    0.425999  -101.00000    0.22453    0.16823 =
         0.06612    0.06765   -0.00911    0.02604
O6A   6    0.522990    0.859795    0.437104  -101.00000    0.17464    0.07400 =
         0.03144   -0.00269    0.01339    0.04485
PART 1
AFIX   6
O20B  6    1.196375    0.040847    0.721383   111.00000    0.17550    0.09986 =
         0.15370    0.05417   -0.07460   -0.02664
H20K  2    1.201791    0.083832    0.742095   111.00000   -1.50000
C20B  1    1.121005    0.041356    0.688741   111.00000    0.19704    0.09587 =
         0.20300    0.00827   -0.02506   -0.03642
H20D  2    1.095188   -0.011127    0.694222   111.00000   -1.50000
H20E  2    1.128541    0.051167    0.644078   111.00000   -1.50000
H20F  2    1.088199    0.084369    0.705794   111.00000   -1.50000
PART    2
O30   6    0.020291    0.920057    0.512893    31.00000    0.11131    0.11942 =
         0.09507    0.03334    0.02305    0.02700
H30   2   -0.028368    0.915974    0.517300    31.00000   -1.50000
C30   1    0.059702    0.918122    0.573772    31.00000    0.09980    0.10406 =
         0.08069    0.01507    0.01843    0.01317
H30A  2    0.106580    0.952451    0.573118    31.00000   -1.50000
H30B  2    0.075055    0.862319    0.583873    31.00000   -1.50000
H30C  2    0.024121    0.938291    0.605508    31.00000   -1.50000
PART    3
O30A  6    0.073780    0.816041    0.583924    61.00000    0.23299    0.17113 =
         0.08613    0.03365    0.05845    0.04135
H30K  2    0.120855    0.817487    0.573307    61.00000   -1.50000
C30A  1    0.026693    0.811948    0.532398    61.00000    0.12798    0.15571 =
         0.14884   -0.03842    0.02634    0.02182
H30D  2    0.013440    0.866866    0.518254    61.00000   -1.50000
H30E  2   -0.021492    0.782760    0.542270    61.00000   -1.50000
H30F  2    0.053879    0.783237    0.499191    61.00000   -1.50000
PART    4
O10   6    0.506483    0.507752    0.989156    71.00000    0.17990    0.16744 =
         0.17132   -0.00628    0.02006   -0.00792
H10   2    0.524509    0.460885    0.994856    71.00000   -1.50000
C10   1    0.480842    0.516604    0.925044    71.00000    0.15257    0.15183 =
         0.15026   -0.00336    0.00500   -0.00220
H10A  2    0.479640    0.574220    0.913971    71.00000   -1.50000
H10B  2    0.428136    0.493575    0.919394    71.00000   -1.50000
H10C  2    0.517227    0.488061    0.897970    71.00000   -1.50000
PART    0
O50   6    0.259001    0.764023    0.695802    11.00000    0.13090    0.21359 =
         0.10081    0.00352   -0.00329   -0.00355
H50   2    0.269285    0.762571    0.657597    11.00000   -1.50000
C50   1    0.239912    0.844276    0.712906    11.00000    0.19011    0.25327 =
         0.13462   -0.07106   -0.00151    0.06075
H50A  2    0.201306    0.843190    0.746067    11.00000   -1.50000
H50B  2    0.217804    0.872994    0.676386    11.00000   -1.50000
H50C  2    0.287405    0.872252    0.728120    11.00000   -1.50000
AFIX   0
H10N  2    0.660028    0.596247    0.515063    11.00000    0.09808
H12N  2    0.418617    0.836409    0.480233    11.00000    0.09854
H14N  2    0.490595    0.490627    0.662523    11.00000    0.05797
HKLF    4




REM  p21n_a.res in P2(1)/n
REM R1 =  0.0860 for    5485 Fo > 4sig(Fo)  and  0.0902 for all    6287 data
REM    881 parameters refined using    407 restraints

END

WGHT      0.2000      0.0000

REM Highest difference peak  1.373,  deepest hole -0.593,  1-sigma level  0.104
Q1    1   0.5639  0.8936  0.3798  11.00000  0.05    1.37
Q2    1   0.4508  0.5370  0.9150  11.00000  0.05    0.81
Q3    1   0.5956  0.8565  0.4253  11.00000  0.05    0.61
Q4    1   1.2545 -0.0239  0.6944  11.00000  0.05    0.58
Q5    1   1.2166  0.0303  0.6520  11.00000  0.05    0.58
Q6    1   0.1395  0.8510  0.5958  11.00000  0.05    0.57
Q7    1   0.3583  0.7260  0.1924  11.00000  0.05    0.56
Q8    1   1.1870  0.0945  0.7925  11.00000  0.05    0.55
Q9    1   0.4492  0.5791  0.8620  11.00000  0.05    0.53
Q10   1   0.2508  0.8362  0.1416  11.00000  0.05    0.53
;
_shelx_res_checksum              64758
_shelx_hkl_file
;
 -17   0   1    6.76    1.34
 -17   0   1    7.18    1.58
  17   0  -1    7.11    1.47
 -17   0   2   -0.09    0.88
 -17   0   2    0.09    1.19
  17   0  -2   -0.23    1.05
 -17   1   1    1.89    0.97
 -17   1   1    1.46    1.24
  17  -1  -1    1.92    1.12
  17   1  -1    1.29    1.10
 -17  -1   1    1.30    0.95
 -17  -1   1    2.06    1.26
 -16   0   1    0.03    0.83
 -16   0   1   -0.73    1.16
  16   0  -1   -0.28    0.97
 -16   0   2    0.60    0.86
 -16   0   2   -0.31    1.13
  16   0  -2    0.19    0.98
 -16   0   3    0.47    0.85
 -16   0   3   -0.58    1.15
  16   0  -3    0.21    0.96
 -16   0   4   14.04    1.69
 -16   0   4    7.78    1.77
  16   0  -4   10.20    1.70
 -16   0   6    2.98    1.04
 -16   0   6    3.45    1.33
  16   0  -6    3.64    1.20
 -16   0   7    0.28    0.89
 -16   0   7   -0.45    1.22
  16   0  -7   -0.07    1.03
 -16   1   1    4.31    1.06
 -16   1   1    3.13    1.31
  16  -1  -1    4.37    1.18
  16   1  -1    4.05    1.18
 -16  -1   1    4.65    1.09
 -16  -1   1    3.08    1.30
 -16   1   2    1.00    0.87
 -16   1   2    0.77    1.16
  16  -1  -2    1.09    1.02
  16   1  -2    1.01    1.01
 -16  -1   2    0.05    0.86
 -16  -1   2    0.05    1.16
 -16   1   3    0.02    0.84
 -16   1   3    0.82    1.18
  16  -1  -3    0.14    0.99
 -16  -1   3    0.29    1.15
 -16   1   4    0.87    0.88
 -16   1   4    0.79    1.16
  16  -1  -4    1.69    1.05
  16   1  -4    1.11    1.03
 -16  -1   4    0.63    0.85
 -16  -1   4    0.66    1.16
 -16   1   5    1.36    0.90
  16  -1  -5    0.18    1.01
  16   1  -5    0.52    1.01
 -16  -1   5    0.59    0.85
 -16   1   6    2.00    0.96
 -16   1   6    0.16    1.17
  16  -1  -6    0.53    1.03
  16   1  -6    0.58    1.03
 -16  -1   6    1.53    0.90
 -16  -1   6   -0.25    1.17
 -16   1   7    2.26    0.99
 -16   1   7    1.03    1.24
  16  -1  -7    1.83    1.10
  16   1  -7    1.86    1.10
 -16  -1   7    1.76    0.96
 -16  -1   7    0.73    1.22
 -16   2   1    1.16    0.89
 -16   2   1    0.87    1.17
  16  -2  -1    0.88    1.00
 -16  -2   1    1.21    1.17
 -16   2   2   10.89    1.57
 -16   2   2    8.03    1.73
  16  -2  -2   10.22    1.65
  16   2  -2    9.77    1.65
 -16  -2   2   12.31    1.59
 -16  -2   2    7.11    1.71
 -16   2   3   24.40    2.79
 -16   2   3   19.19    2.88
  16  -2  -3   21.05    2.81
  16   2  -3   26.82    2.89
 -16  -2   3   26.75    2.81
 -16  -2   3   20.44    2.89
 -16   2   4    7.32    1.28
 -16   2   4    5.01    1.47
  16  -2  -4    5.82    1.37
  16   2  -4    7.34    1.40
 -16  -2   4    7.75    1.28
 -16  -2   4    4.22    1.42
 -16   2   5    3.69    1.08
  16  -2  -5    3.82    1.20
  16   2  -5    4.45    1.21
 -16  -2   5    4.08    1.05
 -16   2   6   -0.37    0.89
 -16   2   6    0.14    1.17
  16  -2  -6   -0.07    1.00
  16   2  -6    0.48    1.00
 -16  -2   6    0.26    0.86
 -16  -2   6    0.62    1.14
 -16   2   7    0.60    0.92
 -16   2   7    0.30    1.19
  16  -2  -7    0.23    1.03
  16   2  -7   -0.60    1.03
 -16  -2   7    0.08    0.86
 -16  -2   7    0.85    1.19
 -16   3   1    0.46    0.85
 -16   3   1    0.27    1.13
  16  -3  -1   -0.16    0.97
  16   3  -1   -0.16    0.98
 -16  -3   1    0.00    0.85
 -16  -3   1    0.00    1.13
 -16   3   2    5.90    1.20
 -16   3   2    4.37    1.38
  16  -3  -2    4.84    1.29
  16   3  -2    6.41    1.34
 -16  -3   2    6.81    1.23
 -16  -3   2    4.54    1.39
 -16   3   3    7.89    1.29
 -16   3   3    4.62    1.44
  16  -3  -3    6.27    1.37
  16   3  -3    7.17    1.39
 -16  -3   3    5.95    1.47
 -16   3   4    0.17    0.85
 -16   3   4   -0.22    1.16
  16  -3  -4   -0.42    0.99
  16   3  -4   -1.01    1.03
 -16  -3   4   -0.49    1.15
 -16   3   5    1.05    0.92
  16  -3  -5    1.21    1.03
  16   3  -5    0.40    1.02
 -16  -3   5    1.80    1.21
 -16   3   6    5.58    1.24
 -16   3   6    5.92    1.48
  16  -3  -6    5.72    1.34
  16   3  -6    4.89    1.29
 -16  -3   6    5.22    1.44
 -16   4   1   -0.35    0.45
 -16   4   1    0.69    1.15
  16  -4  -1   -0.07    0.96
  16   4  -1   -0.33    1.00
 -16  -4   1    0.73    0.88
 -16  -4   1    0.55    1.17
 -16   4   2    8.35    1.37
 -16   4   2    6.56    1.54
  16  -4  -2    7.85    1.46
  16   4  -2    8.08    1.49
 -16  -4   2    7.76    1.57
 -16   4   3   -0.32    0.85
 -16   4   3    0.22    1.12
  16  -4  -3    0.32    0.98
  16   4  -3   -0.31    0.99
 -16  -4   3   -0.10    1.13
 -16   4   4    3.63    1.06
 -16   4   4    2.75    1.26
  16  -4  -4    2.34    1.12
  16   4  -4    3.99    1.18
 -16  -4   4    2.16    1.25
 -16   4   5    3.06    1.04
  16  -4  -5    3.15    1.15
  16   4  -5    1.98    1.09
 -16  -4   5    2.07    1.26
 -16   5   1    6.01    1.21
 -16   5   1    6.56    1.49
  16  -5  -1    6.09    1.31
  16   5  -1    5.58    1.33
 -16  -5   1    5.55    1.46
 -16   5   2    2.01    0.94
 -16   5   2    1.30    1.19
  16  -5  -2    1.93    1.05
  16   5  -2    3.02    1.10
 -16  -5   2    1.76    1.22
 -16   5   3   -0.89    0.64
 -16   5   3    0.20    1.13
  16  -5  -3    0.99    1.02
  16   5  -3    0.29    1.00
 -16  -5   3    0.74    1.16
 -16   5   4    2.14    0.96
 -16   5   4    1.11    1.18
  16  -5  -4    1.90    1.05
  16   5  -4    1.45    1.04
 -16  -5   4    0.20    1.18
 -15   0   1   68.86    6.53
 -15   0   1   52.22    6.54
  15   0  -1   63.42    6.53
 -15   0   2   -0.31    0.82
 -15   0   2    0.69    1.10
  15   0  -2    0.11    0.90
 -15   0   3    5.99    1.12
 -15   0   3    3.77    1.31
  15   0  -3    4.54    1.16
 -15   0   4   -0.41    0.83
 -15   0   4   -0.12    1.12
  15   0  -4   -0.06    0.93
 -15   0   5   37.43    3.85
 -15   0   5   30.36    3.92
  15   0  -5   34.62    3.87
 -15   0   6    0.47    0.88
 -15   0   6   -0.78    1.16
  15   0  -6    0.48    0.95
 -15   0   7    1.76    1.21
  15   0  -7    1.91    1.02
 -15   0   8   -0.11    1.16
  15   0  -8    0.01    0.96
 -15   0   9    3.89    1.35
  15   0  -9    3.43    1.16
 -15   0  10    0.40    0.90
 -15   0  10   -0.15    1.20
  15   0 -10   -0.31    1.00
 -15   1   1    0.78    1.14
  15  -1  -1    0.69    0.91
  15   1  -1    1.36    0.95
 -15  -1   1    1.10    0.84
 -15  -1   1    0.59    1.11
 -15   1   2    7.71    1.55
  15  -1  -2    6.69    1.38
  15   1  -2    8.54    1.44
 -15  -1   2    8.83    1.36
 -15  -1   2    9.31    1.59
 -15   1   3   -0.69    1.13
  15  -1  -3    0.16    0.90
  15   1  -3    0.19    0.90
 -15  -1   3   -0.11    0.80
 -15  -1   3   -0.68    1.10
 -15   1   4   22.95    2.94
  15  -1  -4   24.51    2.85
 -15   1   5    8.41    1.66
  15  -1  -5    9.25    1.53
  15   1  -5    9.86    1.55
 -15  -1   5    8.78    1.44
 -15  -1   5    8.86    1.65
 -15   1   6   -0.19    1.14
  15  -1  -6   -0.67    0.97
  15   1  -6   -0.27    0.94
 -15  -1   6    0.41    0.85
 -15  -1   6   -1.17    1.16
 -15   1   7   -0.71    1.18
  15   1  -7   -0.36    0.95
 -15  -1   7    0.13    0.86
 -15  -1   7   -0.22    1.14
 -15   1   8    0.03    0.84
 -15   1   8   -0.41    1.16
  15  -1  -8   -0.28    0.97
  15   1  -8   -0.21    0.95
 -15  -1   8   -0.32    0.87
 -15  -1   8   -0.11    1.16
 -15   1   9    0.60    0.88
 -15   1   9    1.08    1.19
  15  -1  -9    0.36    1.00
  15   1  -9    0.66    0.98
 -15  -1   9    0.24    1.17
 -15   1  10   13.16    1.75
 -15   1  10    9.94    1.88
  15  -1 -10   10.98    1.79
  15   1 -10   12.35    1.80
 -15  -1  10   10.31    1.89
 -15   2   1   -0.13    1.08
  15  -2  -1   -0.18    0.90
  15   2  -1   -0.29    0.92
 -15  -2   1    0.16    0.81
 -15  -2   1   -0.28    1.07
 -15   2   2    1.00    1.14
  15  -2  -2    1.50    0.96
  15   2  -2    2.35    1.01
 -15  -2   2    0.92    1.12
 -15   2   3    1.15    1.13
  15  -2  -3    1.69    0.98
 -15  -2   3    1.59    0.87
 -15  -2   3    0.58    1.11
 -15   2   4    0.29    1.11
  15  -2  -4    1.88    0.99
 -15  -2   4    2.00    0.89
 -15   2   5    0.21    1.12
  15  -2  -5    0.50    0.95
 -15  -2   5    0.29    0.81
 -15  -2   5    0.37    1.10
 -15   2   6    2.01    0.93
 -15   2   6    2.29    1.22
  15  -2  -6    1.30    0.98
  15   2  -6    0.73    0.98
 -15  -2   6    2.48    0.92
 -15  -2   6    0.43    1.14
 -15   2   7   -0.04    0.87
 -15   2   7    0.25    1.15
  15  -2  -7    0.60    0.98
  15   2  -7    0.08    0.94
 -15  -2   7    0.85    0.88
 -15  -2   7    0.39    1.14
 -15   2   8    1.32    0.91
 -15   2   8    0.76    1.21
  15  -2  -8    0.86    0.98
  15   2  -8    1.92    1.01
 -15  -2   8    1.26    0.96
 -15  -2   8    0.18    1.15
 -15   2   9    3.58    1.04
 -15   2   9    1.95    1.26
  15  -2  -9    3.40    1.15
  15   2  -9    2.25    1.07
 -15  -2   9    3.05    1.08
 -15  -2   9    2.34    1.27
 -15   2  10    2.46    1.01
 -15   2  10    1.96    1.26
  15  -2 -10    1.70    1.07
  15   2 -10    1.46    1.03
 -15  -2  10    2.22    1.02
 -15  -2  10    1.65    1.25
 -15   3   1    0.28    0.78
 -15   3   1   -0.26    1.11
  15  -3  -1    0.21    0.89
 -15  -3   1   -0.05    0.81
 -15  -3   1    0.29    1.05
 -15   3   2    0.19    0.79
 -15   3   2   -0.09    1.09
  15  -3  -2    0.25    0.90
 -15  -3   2   -0.25    0.81
 -15  -3   2    0.44    1.08
 -15   3   3    3.20    0.96
 -15   3   3    2.37    1.22
  15  -3  -3    3.35    1.08
 -15  -3   3    3.19    0.99
 -15  -3   3    2.88    1.21
 -15   3   4   22.53    2.69
 -15   3   4   19.51    2.82
  15  -3  -4   22.37    2.74
 -15  -3   4   25.85    2.72
 -15   3   5    1.36    0.89
 -15   3   5    0.15    1.14
  15  -3  -5    0.46    0.94
 -15  -3   5    0.99    0.87
 -15  -3   5    0.67    1.13
 -15   3   6    3.55    1.05
 -15   3   6    3.30    1.31
  15  -3  -6    4.31    1.17
 -15  -3   6    4.23    1.08
 -15  -3   6    3.25    1.27
 -15   3   7    6.66    1.26
 -15   3   7    4.45    1.42
  15  -3  -7    6.50    1.33
 -15  -3   7    7.80    1.29
 -15  -3   7    5.69    1.44
 -15   3   8    1.36    0.92
 -15   3   8    0.81    1.20
  15  -3  -8    0.67    0.99
 -15  -3   8    0.64    0.94
 -15  -3   8    0.91    1.19
 -15   3   9   -0.11    0.88
 -15   3   9   -0.25    1.17
  15  -3  -9    0.60    0.98
  15   3  -9    0.46    0.94
 -15  -3   9    0.17    0.93
 -15  -3   9    0.54    1.16
 -15   4   1    1.28    0.70
 -15   4   1    4.52    1.26
  15  -4  -1    4.53    1.09
 -15  -4   1    6.53    1.10
 -15  -4   1    4.20    1.30
 -15   4   2    2.43    0.90
 -15   4   2    1.17    1.13
  15  -4  -2    2.63    1.00
 -15  -4   2    2.22    0.93
 -15  -4   2    1.30    1.16
 -15   4   3    0.38    0.82
 -15   4   3    0.62    1.11
  15  -4  -3   -0.29    0.92
 -15  -4   3   -0.02    0.84
 -15  -4   3    0.48    1.11
 -15   4   4    8.89    1.40
 -15   4   4    6.05    1.56
  15  -4  -4    7.57    1.45
 -15  -4   4    9.55    1.42
 -15   4   5   16.54    2.14
  15  -4  -5   17.21    2.22
 -15  -4   5   18.73    2.17
 -15  -4   5   13.66    2.25
 -15   4   6    0.47    0.88
 -15   4   6    1.30    1.15
  15  -4  -6    0.31    0.95
 -15  -4   6    0.64    0.89
 -15  -4   6    0.12    1.13
 -15   4   7    1.01    0.89
 -15   4   7    0.77    1.17
  15  -4  -7    0.24    0.97
 -15  -4   7    1.61    0.94
 -15  -4   7    0.44    1.15
 -15   4   8    0.06    0.88
 -15   4   8    0.26    1.14
  15  -4  -8   -0.23    0.98
 -15  -4   8    0.15    0.89
 -15  -4   8    0.54    1.15
 -15   4   9   12.98    1.72
 -15   4   9    7.38    1.78
  15  -4  -9   10.77    1.75
 -15  -4   9   12.55    1.68
 -15  -4   9    9.89    1.81
 -15   5   1    0.68    0.80
 -15   5   1    1.36    1.14
  15  -5  -1    0.44    0.91
 -15  -5   1    0.42    0.86
 -15  -5   1    1.11    1.14
 -15   5   2    4.41    1.03
 -15   5   2    3.15    1.28
  15  -5  -2    4.06    1.11
 -15  -5   2    5.46    1.13
 -15  -5   2    3.96    1.33
 -15   5   3   -0.09    0.41
 -15   5   3   -0.13    1.12
  15  -5  -3    0.69    0.94
 -15  -5   3    0.69    0.90
 -15  -5   3    1.11    1.14
 -15   5   4   17.29    2.10
 -15   5   4   12.94    2.21
  15  -5  -4   15.26    2.13
  15   5  -4   16.71    2.15
 -15  -5   4   17.87    2.12
 -15   5   5    1.23    0.92
  15  -5  -5    1.42    0.99
  15   5  -5    1.77    1.02
 -15  -5   5    2.00    0.98
 -15  -5   5    1.51    1.21
 -15   5   6    5.51    1.16
 -15   5   6    3.70    1.35
  15  -5  -6    4.85    1.22
  15   5  -6    4.36    1.19
 -15  -5   6    5.84    1.16
 -15  -5   6    4.81    1.39
 -15   5   7    1.41    0.95
 -15   5   7    1.24    1.19
  15  -5  -7    0.83    1.00
  15   5  -7    0.58    0.97
 -15  -5   7    1.01    0.92
 -15  -5   7    1.44    1.21
 -15   5   8   -0.60    0.90
 -15   5   8    0.80    1.19
  15  -5  -8    0.35    1.00
 -15  -5   8    0.14    0.90
 -15  -5   8    0.25    1.17
 -15   6   1    0.05    0.77
 -15   6   1    0.40    1.15
  15  -6  -1   -0.65    0.91
 -15  -6   1    0.59    0.91
 -15  -6   1    0.25    1.11
 -15   6   2    2.98    0.92
 -15   6   2    1.71    1.22
  15  -6  -2    2.45    1.00
 -15  -6   2    3.46    1.04
 -15  -6   2    1.41    1.18
 -15   6   3    0.71    0.83
 -15   6   3    0.06    1.12
  15  -6  -3    0.66    0.90
  15   6  -3    0.19    0.93
 -15  -6   3   -0.44    0.91
 -15  -6   3    0.08    1.11
 -15   6   4   13.70    1.82
 -15   6   4   10.02    1.99
  15  -6  -4   13.17    1.89
  15   6  -4   14.50    1.91
 -15  -6   4   15.06    1.88
 -15   6   5    1.54    0.84
  15  -6  -5   -0.25    0.95
  15   6  -5    0.05    0.92
 -15  -6   5    0.44    0.90
 -15  -6   5    0.52    1.13
 -15   6   6    3.96    1.06
 -15   6   6    2.70    1.29
  15  -6  -6    2.33    1.11
  15   6  -6    4.49    1.13
 -15  -6   6    3.81    1.06
 -15  -6   6    2.43    1.30
 -15   6   7    3.02    1.07
 -15   6   7    2.37    1.31
  15  -6  -7    3.95    1.19
  15   6  -7    3.84    1.12
 -15  -6   7    4.61    1.08
 -15  -6   7    2.74    1.30
 -15   7   1    9.78    1.39
 -15   7   1    7.49    1.67
  15  -7  -1    8.98    1.45
 -15  -7   1    9.66    1.50
 -15  -7   1    8.11    1.66
 -15   7   2    0.47    0.80
 -15   7   2    0.43    1.17
  15  -7  -2    0.72    0.90
 -15  -7   2    0.64    0.91
 -15  -7   2    0.96    1.16
 -15   7   3    6.18    1.18
 -15   7   3    4.25    1.44
  15  -7  -3    5.07    1.23
  15   7  -3    6.18    1.27
 -15  -7   3    6.67    1.23
 -15  -7   3    6.04    1.45
 -15   7   4    1.97    0.95
 -15   7   4    0.91    1.19
  15  -7  -4    1.16    0.98
  15   7  -4    0.83    0.97
 -15  -7   4    2.94    0.99
 -15   7   5    3.52    1.05
  15  -7  -5    3.03    1.15
  15   7  -5    5.00    1.15
 -15  -7   5    4.21    1.09
 -15  -7   5    2.36    1.30
 -14   0   1    0.13    0.75
 -14   0   1   -0.85    1.04
  14   0  -1    0.42    0.86
 -14   0   2   54.49    5.54
 -14   0   2   47.50    5.61
  14   0  -2   53.75    5.57
 -14   0   3    0.21    0.76
 -14   0   3    0.52    1.06
  14   0  -3    0.10    0.84
 -14   0   4   20.84    2.46
  14   0  -4   20.78    2.50
 -14   0   5    0.20    0.78
 -14   0   5    0.25    1.06
  14   0  -5   -0.31    0.86
 -14   0   6    1.01    1.11
 -14   0   7    0.33    0.81
 -14   0   7   -0.97    1.14
 -14   0   8    7.06    1.27
 -14   0   8    7.17    1.51
 -14   0   9   -0.32    0.85
 -14   0   9   -0.93    1.15
 -14   0  10    0.07    0.85
 -14   0  10    0.46    1.16
  14   0 -10    0.31    0.93
 -14   0  11   -0.42    0.92
  14   0 -11   -0.49    0.95
 -14   0  12   13.62    2.23
  14   0 -12   17.88    2.17
 -14   1   1   11.34    1.47
 -14   1   1    7.90    1.61
  14  -1  -1   11.12    1.53
  14   1  -1   10.16    1.51
 -14  -1   1   10.31    1.45
 -14  -1   1    7.44    1.58
 -14   1   2   12.25    1.59
 -14   1   2   10.63    1.75
  14  -1  -2   11.79    1.64
  14   1  -2   11.01    1.61
 -14  -1   2   13.44    1.60
 -14  -1   2    7.57    1.69
 -14   1   3   -0.04    0.76
 -14   1   3    0.07    1.08
  14  -1  -3   -0.21    0.88
  14   1  -3    0.38    0.87
 -14  -1   3    0.43    0.77
 -14  -1   3    0.98    1.07
 -14   1   4    1.19    0.81
  14   1  -4    0.85    0.89
 -14  -1   4    1.00    0.80
 -14   1   5    1.47    0.86
 -14   1   5    2.44    1.16
  14   1  -5    1.60    0.95
 -14  -1   5    1.82    0.88
 -14  -1   5    2.03    1.16
 -14   1   6   23.12    2.64
 -14   1   6   21.62    2.77
  14   1  -6   22.52    2.67
 -14  -1   6   23.64    2.64
 -14  -1   6   19.71    2.75
 -14   1   7   11.21    1.57
 -14   1   7    8.47    1.72
  14   1  -7   11.14    1.62
 -14  -1   7   11.08    1.54
 -14  -1   7   10.02    1.74
 -14   1   8   10.92    1.57
 -14   1   8    9.77    1.75
  14  -1  -8   11.27    1.64
  14   1  -8    9.79    1.60
 -14  -1   8   11.70    1.56
 -14  -1   8    8.39    1.71
 -14   1   9    0.87    0.86
 -14   1   9    0.38    1.14
  14  -1  -9    0.19    0.94
 -14  -1   9    0.43    0.85
 -14  -1   9    0.14    1.12
 -14   1  10   11.74    1.62
 -14   1  10    9.08    1.78
  14  -1 -10   10.21    1.65
 -14  -1  10   11.83    1.63
 -14  -1  10    9.34    1.77
  14  -1 -11    1.06    0.98
 -14  -1  11    1.85    0.99
 -14   1  12   -0.03    0.87
 -14   1  12   -0.09    1.15
  14  -1 -12   -0.41    0.97
  14   1 -12   -0.27    0.95
 -14  -1  12   -0.34    0.95
 -14  -1  12   -0.27    1.15
 -14   2   1   30.80    3.23
 -14   2   1   24.45    3.32
  14   2  -1   29.45    3.27
 -14  -2   1   31.17    3.25
 -14  -2   1   26.88    3.33
 -14   2   2    0.86    0.77
 -14   2   2    0.03    1.04
 -14  -2   2    0.99    0.80
 -14  -2   2    0.00    1.02
 -14   2   3   41.75    4.51
 -14   2   3   40.32    4.63
  14   2  -3   41.74    4.55
 -14  -2   3   43.58    4.52
 -14  -2   3   41.27    4.63
 -14   2   4    0.70    0.79
  14   2  -4    0.34    0.88
 -14  -2   4    0.41    0.80
 -14   2   5    3.86    1.00
 -14   2   5    2.86    1.22
  14   2  -5    3.67    1.06
 -14  -2   5    3.86    0.98
 -14  -2   5    2.75    1.20
 -14   2   6   14.07    1.80
 -14   2   6   12.01    1.94
  14  -2  -6   12.40    1.82
  14   2  -6   15.19    1.86
 -14  -2   6   14.08    1.78
 -14  -2   6   10.34    1.91
 -14   2   7    1.40    0.86
 -14   2   7    1.69    1.15
  14  -2  -7    1.10    0.94
  14   2  -7    0.73    0.92
 -14  -2   7    0.46    0.83
 -14  -2   7    1.70    1.14
 -14   2   8    3.60    1.01
 -14   2   8    2.51    1.26
  14  -2  -8    2.43    1.03
  14   2  -8    4.47    1.10
 -14  -2   8    4.85    1.07
 -14  -2   8    2.50    1.22
 -14   2   9    2.13    1.22
  14   2  -9    2.99    1.05
 -14  -2   9    3.20    1.00
 -14  -2   9    2.45    1.22
 -14   2  10    0.40    1.16
  14  -2 -10    0.26    0.93
  14   2 -10    0.01    0.91
 -14  -2  10   -0.37    0.90
 -14  -2  10   -0.54    1.14
 -14   2  11    3.98    1.09
  14  -2 -11    4.02    1.17
 -14  -2  11    5.20    1.16
 -14   2  12    2.85    0.99
 -14   2  12    1.95    1.22
  14  -2 -12    1.27    1.04
 -14  -2  12    1.82    1.00
 -14  -2  12    2.09    1.22
 -14   3   1    1.65    0.80
 -14   3   1    0.60    1.05
  14  -3  -1    1.64    0.89
  14   3  -1    1.87    0.94
 -14  -3   1    1.77    0.84
 -14  -3   1    0.70    1.04
 -14   3   2   10.74    1.43
 -14   3   2    8.41    1.60
  14  -3  -2    9.34    1.47
  14   3  -2    9.62    1.49
 -14  -3   2    9.58    1.43
 -14  -3   2    9.08    1.60
 -14   3   3    0.62    0.79
 -14   3   3   -0.06    1.07
  14  -3  -3   -0.06    0.86
  14   3  -3    0.42    0.89
 -14  -3   3   -0.30    0.79
 -14  -3   3    0.63    1.07
 -14   3   4   28.51    3.00
  14  -3  -4   24.16    3.00
  14   3  -4   25.90    3.02
 -14  -3   4   25.58    2.96
 -14   3   5    1.83    0.88
 -14   3   5    0.88    1.12
  14  -3  -5    0.99    0.93
  14   3  -5    1.78    0.95
 -14  -3   5    1.36    0.84
 -14  -3   5    1.17    1.10
 -14   3   6   16.91    2.19
 -14   3   6   17.06    2.36
  14  -3  -6   17.80    2.25
  14   3  -6   18.52    2.25
 -14  -3   6   17.71    2.18
 -14  -3   6   17.76    2.35
 -14   3   7    0.51    1.10
  14  -3  -7   -0.24    0.89
  14   3  -7    0.04    0.89
 -14  -3   7   -0.65    0.86
 -14  -3   7    0.10    1.06
 -14   3   8    3.48    1.28
  14  -3  -8    3.64    1.09
  14   3  -8    3.24    1.07
 -14  -3   8    3.84    1.07
 -14  -3   8    2.99    1.24
 -14   3   9    5.16    1.14
 -14   3   9    4.90    1.40
  14  -3  -9    3.60    1.16
  14   3  -9    5.91    1.21
 -14  -3   9    6.38    1.20
 -14  -3   9    3.68    1.34
 -14   3  10   -0.43    1.16
  14   3 -10    0.47    0.91
 -14  -3  10   -0.48    0.89
 -14  -3  10    0.24    1.15
 -14   3  11    1.40    0.91
  14  -3 -11    1.36    1.02
  14   3 -11    1.90    0.99
 -14  -3  11    1.78    0.96
 -14   3  12    1.87    0.96
 -14   3  12    2.01    1.22
  14  -3 -12    1.42    1.03
  14   3 -12    1.96    1.03
 -14  -3  12    2.09    0.98
 -14  -3  12    1.44    1.20
 -14   4   1    1.51    0.69
 -14   4   1   -0.28    1.05
  14  -4  -1    0.60    0.84
  14   4  -1    0.47    0.87
 -14  -4   1    0.07    0.78
 -14  -4   1    0.29    1.06
 -14   4   2    1.92    0.69
 -14   4   2    0.18    1.03
  14  -4  -2    0.17    0.83
  14   4  -2    0.17    0.87
 -14  -4   2    0.12    0.79
 -14  -4   2    0.00    1.04
 -14   4   3    1.72    0.82
 -14   4   3    1.04    1.07
  14  -4  -3    0.98    0.88
  14   4  -3    2.49    0.96
 -14  -4   3    0.91    0.84
 -14  -4   3    0.76    1.10
 -14   4   4    1.46    0.85
  14  -4  -4    0.86    0.90
  14   4  -4    1.49    0.93
 -14  -4   4    1.22    0.84
 -14   4   5    4.14    1.33
  14  -4  -5    5.84    1.19
  14   4  -5    6.13    1.20
 -14  -4   5    4.66    1.12
 -14  -4   5    6.29    1.40
 -14   4   6    4.16    1.36
  14  -4  -6    5.70    1.21
  14   4  -6    6.80    1.23
 -14  -4   6    7.10    1.20
 -14  -4   6    4.34    1.37
 -14   4   7    1.88    0.94
 -14   4   7    3.23    1.20
  14  -4  -7    2.44    1.03
  14   4  -7    3.36    1.04
 -14  -4   7    2.82    0.98
 -14  -4   7    2.01    1.19
 -14   4   8    9.00    1.48
 -14   4   8    8.34    1.66
  14  -4  -8    9.11    1.55
  14   4  -8   10.83    1.54
 -14  -4   8   10.66    1.51
 -14  -4   8    8.17    1.66
 -14   4   9    6.78    1.27
 -14   4   9    5.86    1.47
  14  -4  -9    6.73    1.37
  14   4  -9    6.79    1.29
 -14  -4   9    6.87    1.28
 -14  -4   9    6.37    1.49
 -14   4  10   14.78    1.89
 -14   4  10   10.37    1.97
  14  -4 -10   13.27    1.94
  14   4 -10   13.50    1.85
 -14  -4  10   15.30    1.87
 -14  -4  10   11.78    1.99
 -14   4  11   -0.90    1.17
  14   4 -11    0.30    0.90
 -14  -4  11   -0.01    0.86
 -14   5   1   17.35    2.48
  14  -5  -1   18.16    2.33
  14   5  -1   21.60    2.40
 -14  -5   1   22.06    2.37
 -14  -5   1   16.72    2.45
 -14   5   2    2.75    1.19
  14  -5  -2    2.63    0.97
  14   5  -2    3.79    1.04
 -14  -5   2    2.90    0.98
 -14  -5   2    4.18    1.23
 -14   5   3    5.49    1.29
  14  -5  -3    4.28    1.08
  14   5  -3    3.47    1.07
 -14  -5   3    3.59    1.04
 -14  -5   3    4.34    1.28
  14  -5  -4    1.03    0.88
  14   5  -4    2.21    0.95
 -14  -5   4    0.89    0.87
 -14   5   5    2.89    0.95
 -14   5   5    3.14    1.22
  14  -5  -5    3.32    1.03
  14   5  -5    3.85    1.05
 -14  -5   5    3.48    1.01
 -14  -5   5    3.78    1.26
 -14   5   6    0.05    0.80
 -14   5   6   -0.46    1.10
  14  -5  -6   -0.27    0.89
  14   5  -6    0.30    0.88
 -14  -5   6    0.28    0.84
 -14  -5   6   -0.64    1.11
 -14   5   7   15.12    1.88
 -14   5   7   10.84    1.99
  14  -5  -7   13.69    1.91
  14   5  -7   15.14    1.89
 -14  -5   7   15.13    1.86
 -14  -5   7   10.50    1.99
 -14   5   8    0.96    0.87
 -14   5   8    1.62    1.21
  14  -5  -8    0.69    0.97
  14   5  -8    0.76    0.93
 -14  -5   8    1.08    0.88
 -14  -5   8    1.16    1.17
 -14   5   9    0.53    0.85
 -14   5   9    0.45    1.16
  14  -5  -9   -0.24    0.96
  14   5  -9    0.02    0.88
 -14  -5   9   -0.20    0.86
 -14  -5   9   -0.36    1.15
 -14   5  10    0.40    0.87
 -14   5  10   -0.32    1.16
  14  -5 -10   -0.36    1.02
  14   5 -10   -0.32    0.90
 -14  -5  10   -0.39    0.90
 -14  -5  10    0.00    1.15
 -14   6   1   10.36    2.10
  14  -6  -1   15.30    1.98
  14   6  -1   17.28    2.05
 -14  -6   1   19.48    2.07
 -14  -6   1   14.77    2.15
 -14   6   2    3.94    0.98
 -14   6   2    4.88    1.33
  14  -6  -2    4.43    1.06
  14   6  -2    5.21    1.13
 -14  -6   2    4.86    1.11
 -14  -6   2    4.26    1.29
 -14   6   3   17.55    2.11
 -14   6   3   14.99    2.28
  14  -6  -3   15.83    2.12
  14   6  -3   18.34    2.17
 -14  -6   3   18.63    2.15
 -14  -6   3   15.37    2.28
 -14   6   4    0.93    0.82
 -14   6   4    1.00    1.13
  14  -6  -4    1.25    0.90
  14   6  -4    0.28    0.89
 -14  -6   4    0.61    0.86
 -14   6   5    2.23    0.74
 -14   6   5    0.09    1.11
  14  -6  -5    0.28    0.88
  14   6  -5    0.61    0.90
 -14  -6   5    0.03    0.84
 -14  -6   5    1.01    1.13
 -14   6   6    2.15    0.91
 -14   6   6    1.09    1.18
  14  -6  -6    2.94    1.04
  14   6  -6    2.60    1.00
 -14  -6   6    3.74    0.99
 -14  -6   6    0.49    1.15
 -14   6   7    4.32    1.06
 -14   6   7    3.20    1.30
  14  -6  -7    3.24    1.13
  14   6  -7    4.25    1.10
 -14  -6   7    4.83    1.07
 -14  -6   7    4.15    1.32
 -14   6   8    1.67    0.93
 -14   6   8    1.95    1.24
  14  -6  -8    1.57    1.02
  14   6  -8    2.44    0.97
 -14  -6   8    2.25    0.93
 -14  -6   8    1.61    1.17
 -14   6   9   -0.28    0.87
 -14   6   9    0.06    1.17
  14  -6  -9   -0.01    0.99
  14   6  -9   -0.46    0.89
 -14  -6   9    0.05    0.85
 -14  -6   9    0.22    1.13
 -14   7   1    6.59    1.08
 -14   7   1    5.77    1.43
  14  -7  -1    5.15    1.11
  14   7  -1    6.13    1.24
 -14  -7   1    5.46    1.18
 -14  -7   1    4.19    1.35
 -14   7   2    2.55    0.87
 -14   7   2    0.49    1.16
  14  -7  -2    2.20    0.93
  14   7  -2    3.56    1.02
 -14  -7   2    3.05    0.98
 -14  -7   2    1.27    1.14
 -14   7   3    1.33    0.83
 -14   7   3    0.96    1.17
  14  -7  -3    0.66    0.88
  14   7  -3    1.84    0.95
 -14  -7   3    1.75    0.93
 -14  -7   3    0.61    1.14
 -14   7   4    6.33    1.17
 -14   7   4    3.77    1.42
  14  -7  -4    6.37    1.27
  14   7  -4    7.63    1.27
 -14  -7   4    6.53    1.23
 -14  -7   4    5.77    1.42
 -14   7   5    1.34    0.87
 -14   7   5    0.52    1.18
  14  -7  -5    0.89    0.95
  14   7  -5    2.21    0.97
 -14  -7   5    1.99    0.92
 -14  -7   5    1.55    1.17
 -14   7   6    1.91    0.70
 -14   7   6    4.86    1.40
  14  -7  -6    7.05    1.23
  14   7  -6    7.11    1.20
 -14  -7   6    7.85    1.16
 -14  -7   6    5.63    1.37
 -14   7   7    6.41    1.20
 -14   7   7    3.94    1.42
  14  -7  -7    3.82    1.22
  14   7  -7    6.14    1.19
 -14  -7   7    6.29    1.17
 -14  -7   7    5.14    1.42
 -14   7   8    0.44    0.89
 -14   7   8   -0.10    1.20
  14  -7  -8    0.66    1.02
  14   7  -8    0.97    0.92
 -14  -7   8    1.05    0.87
 -14  -7   8    0.99    1.17
 -14   8   1    1.07    0.76
 -14   8   1    0.60    1.18
  14  -8  -1    0.52    0.82
  14   8  -1    0.85    0.93
 -14  -8   1    0.78    0.90
 -14  -8   1    1.34    1.12
 -14   8   2    8.72    1.26
 -14   8   2    5.07    1.51
  14  -8  -2    5.57    1.25
  14   8  -2    8.22    1.34
 -14  -8   2   10.50    1.38
 -14  -8   2    5.91    1.49
 -14   8   3    2.12    0.88
 -14   8   3    1.81    1.24
  14  -8  -3    2.06    0.94
  14   8  -3    2.60    0.98
 -14  -8   3    2.06    0.95
 -14  -8   3    1.66    1.19
 -14   8   4    0.05    0.77
 -14   8   4   -0.56    1.17
  14  -8  -4    0.50    0.88
  14   8  -4   -0.06    0.87
 -14  -8   4    0.80    0.87
 -14  -8   4    0.09    1.12
 -14   8   5    9.39    1.50
 -14   8   5    8.78    1.76
  14  -8  -5    9.25    1.57
  14   8  -5   11.81    1.57
 -14  -8   5   11.37    1.53
 -14  -8   5    8.18    1.72
 -14   8   6   -0.71    0.85
 -14   8   6    0.10    1.20
  14  -8  -6    0.44    0.96
  14   8  -6    0.19    0.89
 -14  -8   6   -0.12    0.84
 -14  -8   6   -0.15    1.11
 -14   9   1   11.01    1.42
 -14   9   1    6.40    1.73
  14  -9  -1    8.36    1.43
  14   9  -1   12.15    1.59
 -14  -9   1   12.32    1.57
 -14  -9   1    8.43    1.68
 -14   9   2    0.59    0.76
 -14   9   2    0.62    1.20
  14  -9  -2    0.04    0.82
  14   9  -2    0.91    0.91
 -14  -9   2    0.51    0.87
 -14  -9   2    0.10    1.09
 -14   9   3    2.75    0.88
 -14   9   3    2.47    1.28
  14  -9  -3    2.26    0.96
  14   9  -3    2.45    0.98
 -14  -9   3    1.99    0.95
 -14  -9   3    1.41    1.17
 -14   9   4    0.70    0.82
 -14   9   4    0.42    1.21
  14  -9  -4    1.70    0.94
  14   9  -4    1.25    0.92
 -14  -9   4   -0.22    0.87
 -14  -9   4    0.43    1.12
 -13   0   1    2.83    0.81
 -13   0   1    1.13    1.03
  13   0  -1    2.35    0.89
 -13   0   2    0.30    0.72
 -13   0   2   -0.48    1.00
  13   0  -2   -0.12    0.81
 -13   0   3   67.04    6.66
 -13   0   3   57.03    6.72
  13   0  -3   65.90    6.68
 -13   0   4   -0.11    0.71
  13   0  -4    0.10    0.80
 -13   0   5   18.95    2.27
 -13   0   5   21.06    2.46
  13   0  -5   17.98    2.30
 -13   0   6    0.01    0.75
 -13   0   6    0.24    1.01
  13   0  -6   -0.02    0.82
 -13   0   7   28.46    2.93
 -13   0   7   22.27    3.01
  13   0  -7   24.80    2.93
 -13   0   8   -0.05    0.78
 -13   0   8   -0.39    1.07
  13   0  -8    0.59    0.87
 -13   0   9   10.55    1.53
 -13   0   9    9.69    1.71
  13   0  -9   10.99    1.60
 -13   0  10   -0.17    0.78
 -13   0  10    0.52    1.10
  13   0 -10    0.46    0.90
 -13   0  11    4.87    1.12
  13   0 -11    5.13    1.17
 -13   0  12   -0.04    0.88
 -13   0  12   -0.42    1.15
 -13   0  13   55.46    5.17
 -13   0  13   39.63    5.12
 -13   0  14    0.00    0.88
 -13   0  14    0.05    1.08
  13   0 -14   -0.70    0.94
 -13   1   1    2.12    0.81
 -13   1   1    2.68    1.10
  13  -1  -1    2.87    0.91
  13   1  -1    2.94    0.90
 -13  -1   1    2.86    0.84
 -13  -1   1    3.58    1.10
 -13   1   2   79.70    8.30
 -13   1   2   84.24    8.43
  13  -1  -2   81.64    8.34
  13   1  -2   81.17    8.33
 -13  -1   2   77.37    8.29
 -13  -1   2   79.75    8.42
 -13   1   3   32.80    3.69
 -13   1   3   32.39    3.83
  13  -1  -3   37.47    3.76
  13   1  -3   33.98    3.74
 -13  -1   3   34.55    3.70
 -13  -1   3   32.28    3.82
 -13   1   4   26.29    3.02
  13  -1  -4   27.21    3.07
  13   1  -4   26.90    3.06
 -13  -1   4   27.74    3.03
 -13   1   5    0.96    0.77
 -13   1   5    0.40    1.03
  13  -1  -5    0.94    0.84
 -13  -1   5    0.32    1.02
 -13   1   6    0.24    0.77
 -13   1   6    0.51    1.05
  13  -1  -6    0.34    0.83
  13   1  -6    0.60    0.84
 -13  -1   6    0.24    0.74
 -13  -1   6    0.66    1.03
 -13   1   7    2.93    0.90
 -13   1   7    2.04    1.16
  13  -1  -7    2.43    0.95
  13   1  -7    3.24    0.97
 -13  -1   7    2.85    0.88
 -13  -1   7    2.23    1.13
 -13   1   8    6.10    1.48
  13   1  -8    7.49    1.31
 -13  -1   8    7.27    1.25
 -13  -1   8    8.92    1.51
 -13   1   9    2.17    0.89
 -13   1   9    0.51    1.14
  13  -1  -9    1.40    0.95
  13   1  -9    2.59    0.97
 -13  -1   9    2.48    0.91
 -13  -1   9    1.71    1.15
 -13   1  10   23.48    2.54
 -13   1  10   17.95    2.61
  13  -1 -10   20.03    2.55
  13   1 -10   20.30    2.53
 -13  -1  10   22.42    2.52
 -13  -1  10   20.33    2.64
 -13   1  11   -0.07    0.83
  13   1 -11    0.70    0.91
 -13  -1  11    0.26    0.90
 -13   1  12    2.79    0.98
 -13   1  12    1.73    1.21
  13  -1 -12    2.18    1.01
  13   1 -12    2.04    1.00
 -13  -1  12    2.56    0.99
 -13  -1  12    2.82    1.24
 -13   1  13    0.72    0.93
 -13   1  13   -0.10    1.16
  13  -1 -13   -0.41    0.93
  13   1 -13    0.39    0.91
 -13  -1  13    1.21    0.93
 -13  -1  13    0.22    1.02
 -13   1  14    0.75    1.11
  13  -1 -14    1.62    0.99
 -13  -1  14    1.33    0.96
 -13  -1  14    1.02    1.08
 -13   2   1   12.24    1.56
 -13   2   1   10.73    1.73
  13  -2  -1   11.64    1.60
  13   2  -1   12.48    1.63
 -13  -2   1   12.54    1.58
 -13  -2   1   10.54    1.71
 -13   2   2    5.31    0.99
 -13   2   2    3.17    1.18
  13  -2  -2    4.72    1.04
  13   2  -2    6.29    1.09
 -13  -2   2    5.84    1.02
 -13  -2   2    2.79    1.16
 -13   2   3    4.01    0.92
 -13   2   3    3.00    1.17
  13  -2  -3    4.07    1.00
 -13  -2   3    4.38    1.16
 -13   2   4   19.03    2.31
  13  -2  -4   19.34    2.35
  13   2  -4   21.52    2.39
 -13  -2   4   19.10    2.31
 -13  -2   4   19.09    2.46
 -13   2   5   19.83    2.33
 -13   2   5   19.26    2.48
  13  -2  -5   18.12    2.34
  13   2  -5   20.60    2.37
 -13  -2   5   20.36    2.32
 -13  -2   5   18.60    2.46
 -13   2   6    7.39    1.23
 -13   2   6    5.57    1.41
  13  -2  -6    8.03    1.30
  13   2  -6    8.27    1.31
 -13  -2   6    8.46    1.26
 -13  -2   6    6.39    1.42
 -13   2   7    9.19    1.36
 -13   2   7    7.95    1.55
  13  -2  -7    8.25    1.40
  13   2  -7    8.52    1.38
 -13  -2   7    9.25    1.35
 -13  -2   7    7.81    1.53
 -13   2   8    5.76    1.15
 -13   2   8    6.14    1.39
  13  -2  -8    5.66    1.21
  13   2  -8    6.29    1.22
 -13  -2   8    6.46    1.17
 -13  -2   8    7.69    1.41
 -13   2   9    3.50    1.25
  13   2  -9    2.51    0.99
 -13  -2   9    3.19    0.98
 -13  -2   9    3.35    1.21
 -13   2  10    5.57    1.18
 -13   2  10    5.61    1.42
  13   2 -10    5.77    1.21
 -13  -2  10    7.07    1.22
 -13  -2  10    5.86    1.40
 -13   2  11   14.86    2.01
  13  -2 -11   14.79    2.06
  13   2 -11   16.88    2.06
 -13  -2  11   15.29    2.02
 -13   2  12   42.32    4.59
 -13   2  12   36.97    4.65
  13  -2 -12   40.14    4.61
  13   2 -12   45.07    4.60
 -13  -2  12   47.01    4.60
 -13  -2  12   38.72    4.66
 -13   2  13    0.27    1.17
  13  -2 -13   -0.03    0.93
  13   2 -13    0.63    0.92
 -13  -2  13    0.87    0.91
 -13  -2  13    0.12    0.98
 -13   2  14    3.07    1.07
 -13   2  14    1.72    1.17
  13  -2 -14    2.74    1.09
  13   2 -14    2.48    1.01
 -13  -2  14    3.55    1.04
 -13  -2  14    2.85    1.14
 -13   3   1   23.89    2.66
 -13   3   1   21.27    2.79
  13  -3  -1   23.81    2.69
 -13  -3   1   24.39    2.83
 -13   3   2   13.88    1.73
 -13   3   2   10.84    1.87
  13  -3  -2   14.27    1.78
  13   3  -2   13.73    1.79
 -13  -3   2   14.93    1.76
 -13  -3   2   12.93    1.90
 -13   3   3   13.21    1.73
 -13   3   3   11.98    1.89
  13  -3  -3   13.52    1.79
  13   3  -3   14.79    1.81
 -13  -3   3   14.54    1.75
 -13  -3   3   12.22    1.90
 -13   3   4   15.34    1.85
  13  -3  -4   13.92    1.88
  13   3  -4   15.61    1.90
 -13  -3   4   14.08    1.82
 -13  -3   4   13.29    2.00
 -13   3   5    0.96    0.77
 -13   3   5    1.52    1.07
  13  -3  -5    0.79    0.85
  13   3  -5    0.66    0.85
 -13  -3   5    1.14    0.77
 -13  -3   5    0.71    1.04
 -13   3   6    3.15    0.90
 -13   3   6    1.34    1.09
  13  -3  -6    3.60    1.00
  13   3  -6    2.41    0.95
 -13  -3   6    2.65    0.89
 -13  -3   6    2.21    1.11
 -13   3   7    0.16    0.74
 -13   3   7   -0.04    1.04
  13   3  -7    0.38    0.85
 -13  -3   7    0.41    0.83
 -13  -3   7   -0.43    1.04
 -13   3   8    1.12    0.80
 -13   3   8    0.84    1.11
  13   3  -8    0.66    0.86
 -13  -3   8    1.15    0.87
 -13  -3   8    0.23    1.05
 -13   3   9   36.94    4.05
 -13   3   9   36.07    4.16
  13   3  -9   38.94    4.06
 -13  -3   9   36.44    4.01
 -13  -3   9   34.71    4.13
 -13   3  10    9.63    1.49
 -13   3  10    5.71    1.61
  13  -3 -10    9.69    1.54
  13   3 -10   11.45    1.53
 -13  -3  10   11.36    1.50
 -13  -3  10    8.53    1.65
  13  -3 -11    2.40    1.04
  13   3 -11    2.76    1.01
 -13  -3  11    3.62    1.02
 -13   3  12    0.78    1.15
  13  -3 -12    0.64    0.95
  13   3 -12    1.75    0.95
 -13  -3  12    1.57    0.93
 -13  -3  12    0.86    1.16
 -13   3  13   10.06    1.52
 -13   3  13    9.33    1.69
  13  -3 -13    8.95    1.57
  13   3 -13    9.06    1.49
 -13  -3  13   10.16    1.50
 -13  -3  13    7.73    1.55
 -13   4   1    8.82    1.26
 -13   4   1    6.62    1.45
  13  -4  -1    8.50    1.32
  13   4  -1    9.62    1.37
 -13  -4   1    9.19    1.31
 -13  -4   1    7.10    1.46
 -13   4   2   -0.24    0.48
 -13   4   2    0.36    0.99
  13  -4  -2    1.07    0.82
  13   4  -2    0.64    0.83
 -13  -4   2    0.83    0.75
 -13  -4   2    0.69    1.01
 -13   4   3    2.12    0.82
 -13   4   3    1.87    1.06
  13  -4  -3    1.47    0.86
  13   4  -3    2.58    0.92
 -13  -4   3    2.16    0.83
 -13  -4   3    2.51    1.09
 -13   4   4   14.43    1.79
  13   4  -4   14.69    1.84
 -13  -4   4   13.81    1.78
 -13  -4   4   11.58    1.94
 -13   4   5   36.49    4.09
 -13   4   5   33.09    4.20
  13   4  -5   39.84    4.13
 -13  -4   5   42.90    4.13
 -13  -4   5   35.14    4.21
 -13   4   6    8.69    1.29
 -13   4   6    7.14    1.50
  13   4  -6    8.53    1.34
 -13  -4   6    7.57    1.28
 -13  -4   6    6.59    1.49
 -13   4   7    1.02    0.79
 -13   4   7    1.22    1.08
  13  -4  -7    1.29    0.90
  13   4  -7    1.04    0.88
 -13  -4   7    1.25    0.85
 -13  -4   7    1.61    1.12
 -13   4   8    1.27    0.83
 -13   4   8    0.81    1.08
  13  -4  -8    0.64    0.90
  13   4  -8    1.04    0.88
 -13  -4   8    1.50    0.86
 -13  -4   8    0.68    1.11
 -13   4   9   -0.15    1.07
  13  -4  -9    0.30    0.89
  13   4  -9   -0.37    0.86
 -13  -4   9    0.08    0.84
 -13  -4   9    0.41    1.10
 -13   4  10    0.35    1.08
  13  -4 -10    0.12    0.91
  13   4 -10    0.42    0.86
 -13  -4  10    0.18    0.82
 -13  -4  10    0.03    1.07
 -13   4  11   15.36    1.94
  13  -4 -11   14.32    1.99
  13   4 -11   14.92    1.90
 -13  -4  11   13.13    1.83
 -13  -4  11   12.20    2.02
 -13   4  12    1.56    0.90
 -13   4  12    2.03    1.17
  13  -4 -12    1.76    1.03
  13   4 -12    1.64    0.94
 -13  -4  12    2.51    0.94
 -13  -4  12    1.21    1.17
 -13   4  13    0.59    0.87
 -13   4  13    1.18    1.17
  13  -4 -13    0.44    0.98
  13   4 -13    0.88    0.90
 -13  -4  13    1.16    0.90
 -13  -4  13    0.48    0.99
 -13   5   1    8.61    1.26
 -13   5   1    6.78    1.48
  13   5  -1   10.83    1.41
 -13  -5   1    8.66    1.31
 -13  -5   1    7.08    1.47
 -13   5   2    5.25    1.02
 -13   5   2    4.63    1.27
  13   5  -2    5.16    1.09
 -13  -5   2    6.52    1.11
 -13  -5   2    4.68    1.26
 -13   5   3    1.26    0.62
 -13   5   3   -0.28    1.02
  13   5  -3    0.22    0.81
 -13  -5   3    0.32    0.80
 -13   5   4   28.78    3.21
  13   5  -4   30.63    3.25
 -13  -5   4   32.21    3.25
 -13  -5   4   22.72    3.29
 -13   5   5    0.25    0.78
 -13   5   5    0.32    1.05
  13  -5  -5    0.12    0.82
  13   5  -5    0.29    0.84
 -13  -5   5   -0.26    0.80
 -13  -5   5    0.30    1.05
 -13   5   6   35.04    3.95
 -13   5   6   31.61    4.06
  13  -5  -6   36.05    3.99
  13   5  -6   37.34    3.97
 -13  -5   6   38.18    3.95
 -13  -5   6   37.85    4.10
 -13   5   7   11.29    1.51
 -13   5   7    5.99    1.61
  13  -5  -7    8.65    1.50
  13   5  -7   11.43    1.52
 -13  -5   7   11.84    1.49
 -13  -5   7    7.86    1.63
 -13   5   8   -0.24    1.09
  13  -5  -8    0.33    0.90
  13   5  -8    0.93    0.87
 -13  -5   8    1.07    0.82
 -13  -5   8    0.89    1.10
 -13   5   9    0.29    0.81
 -13   5   9    0.60    1.13
  13  -5  -9   -0.51    0.91
  13   5  -9   -0.08    0.83
 -13  -5   9   -0.54    0.84
 -13  -5   9   -0.03    1.08
 -13   5  10    0.48    0.86
 -13   5  10    0.86    1.12
  13  -5 -10    1.02    0.99
  13   5 -10   -0.04    0.86
 -13  -5  10    0.50    0.86
 -13  -5  10    1.28    1.15
 -13   5  11    0.28    0.87
  13  -5 -11    0.29    0.97
  13   5 -11    1.00    0.88
 -13  -5  11    0.54    0.87
 -13  -5  11   -0.23    1.14
 -13   5  12   -0.23    0.90
 -13   5  12    0.99    1.14
  13  -5 -12    0.39    1.01
  13   5 -12    0.37    0.87
 -13  -5  12   -0.14    0.84
 -13  -5  12    0.83    1.15
 -13   6   1    0.64    0.70
 -13   6   1    0.41    1.06
  13   6  -1   -0.02    0.84
 -13  -6   1    0.32    0.82
 -13  -6   1    0.71    1.04
 -13   6   2   12.12    1.56
 -13   6   2    8.70    1.76
  13  -6  -2    9.95    1.57
  13   6  -2   14.49    1.68
 -13  -6   2   15.23    1.67
 -13  -6   2    9.19    1.75
 -13   6   3   -0.35    0.71
 -13   6   3    0.06    1.05
  13  -6  -3    0.19    0.78
  13   6  -3    0.34    0.82
 -13  -6   3   -0.07    0.80
 -13   6   4   10.72    1.58
  13  -6  -4   10.72    1.62
  13   6  -4   13.28    1.66
 -13  -6   4   12.69    1.63
 -13  -6   4   10.97    1.79
 -13   6   5    0.07    1.07
  13  -6  -5    0.86    0.84
  13   6  -5    0.38    0.85
 -13  -6   5    0.10    0.80
 -13  -6   5   -0.16    1.02
 -13   6   6    0.70    1.11
  13  -6  -6    0.30    0.86
  13   6  -6    0.78    0.86
 -13  -6   6    0.56    0.82
 -13  -6   6    1.48    1.09
 -13   6   7    0.21    0.77
 -13   6   7    0.15    1.10
  13  -6  -7    0.15    0.88
  13   6  -7    0.39    0.85
 -13  -6   7    0.74    0.83
 -13  -6   7    1.00    1.12
 -13   6   8    5.16    1.14
 -13   6   8    5.85    1.42
  13  -6  -8    4.47    1.20
  13   6  -8    6.75    1.18
 -13  -6   8    5.57    1.11
 -13  -6   8    5.65    1.38
 -13   6   9    0.14    0.84
 -13   6   9    0.39    1.14
  13  -6  -9    0.89    0.97
  13   6  -9    0.14    0.85
 -13  -6   9   -0.40    0.80
 -13  -6   9    0.10    1.09
 -13   6  10    0.96    0.89
 -13   6  10   -0.57    1.15
  13  -6 -10    0.68    0.99
  13   6 -10    0.28    0.86
 -13  -6  10    0.46    0.85
 -13   6  11   10.11    1.70
  13  -6 -11    9.64    1.77
  13   6 -11   11.92    1.65
 -13  -6  11   14.05    1.65
 -13  -6  11   10.26    1.83
 -13   7   1   12.95    1.63
 -13   7   1   13.18    1.94
  13  -7  -1   11.96    1.65
  13   7  -1   13.53    1.76
 -13  -7   1   13.23    1.73
 -13  -7   1   11.56    1.86
 -13   7   2    2.23    0.82
 -13   7   2    1.22    1.13
  13  -7  -2    2.92    0.87
  13   7  -2    2.13    0.93
 -13  -7   2    2.32    0.91
 -13  -7   2    1.46    1.10
 -13   7   3   15.80    2.21
  13  -7  -3   14.78    1.97
  13   7  -3   16.54    2.01
 -13  -7   3   15.70    1.98
  13  -7  -4   34.49    3.93
  13   7  -4   36.28    3.92
 -13  -7   4   41.29    3.95
 -13  -7   4   30.11    4.02
 -13   7   5    0.84    0.79
 -13   7   5    1.25    1.13
  13  -7  -5    0.65    0.86
  13   7  -5    1.67    0.89
 -13  -7   5    0.77    0.84
 -13  -7   5    0.84    1.11
 -13   7   6   -0.41    0.42
 -13   7   6   -0.20    1.12
  13  -7  -6   -0.25    0.89
  13   7  -6   -0.16    0.84
 -13  -7   6   -0.30    0.81
 -13  -7   6    0.61    1.08
 -13   7   7    0.31    0.80
 -13   7   7    0.48    1.14
  13  -7  -7    0.35    0.93
  13   7  -7    0.85    0.88
 -13  -7   7    1.04    0.83
 -13  -7   7    0.20    1.11
 -13   7   8    0.29    0.84
 -13   7   8    0.68    1.18
  13  -7  -8   -0.22    0.94
  13   7  -8    1.42    0.87
 -13  -7   8    0.34    0.80
 -13  -7   8   -0.07    1.11
 -13   7   9   16.70    2.11
 -13   7   9   12.64    2.22
  13  -7  -9   14.84    2.14
  13   7  -9   19.55    2.08
 -13  -7   9   17.75    2.02
 -13  -7   9   11.98    2.16
 -13   7  10   -0.01    0.88
 -13   7  10    0.11    1.16
  13  -7 -10    0.64    1.03
  13   7 -10   -0.06    0.84
 -13  -7  10   -0.14    0.79
 -13   8   1   21.14    2.85
  13  -8  -1   20.57    2.61
  13   8  -1   26.03    2.73
 -13  -8   1   26.99    2.72
 -13  -8   1   20.33    2.80
 -13   8   2    0.12    1.13
  13  -8  -2    0.76    0.78
  13   8  -2    0.33    0.88
 -13  -8   2    0.16    0.83
 -13  -8   2    0.03    1.04
 -13   8   3    3.76    0.95
 -13   8   3    5.86    1.36
  13  -8  -3    3.01    0.99
  13   8  -3    4.58    1.06
 -13  -8   3    4.63    1.04
 -13   8   4   13.38    1.78
  13  -8  -4   12.08    1.82
  13   8  -4   15.13    1.86
 -13  -8   4   15.95    1.85
 -13  -8   4   12.31    2.01
 -13   8   5   14.22    1.81
 -13   8   5    9.26    2.00
  13  -8  -5   12.18    1.85
  13   8  -5   15.57    1.86
 -13  -8   5   16.64    1.86
 -13  -8   5   13.46    2.01
 -13   8   6   49.19    5.34
 -13   8   6   47.68    5.50
  13  -8  -6   47.30    5.38
  13   8  -6   57.85    5.37
 -13  -8   6   46.71    5.46
 -13   8   7   14.74    2.32
 -13   8   7   18.18    2.64
  13  -8  -7   24.08    2.57
  13   8  -7   26.88    2.50
 -13  -8   7   19.81    2.62
 -13   8   8    0.17    0.85
 -13   8   8    0.20    1.20
  13  -8  -8   -0.10    0.98
  13   8  -8    0.54    0.85
 -13  -8   8    0.08    1.11
 -13   8   9    1.95    0.96
 -13   8   9    0.33    1.21
  13  -8  -9    1.55    1.08
  13   8  -9    2.40    0.91
 -13  -8   9    1.24    1.19
 -13   9   1    1.43    0.74
 -13   9   1    2.21    1.25
  13  -9  -1    1.51    0.81
  13   9  -1    1.27    0.92
 -13  -9   1    1.00    0.86
 -13  -9   1    1.48    1.15
 -13   9   2   72.26    6.94
 -13   9   2   51.08    7.06
  13  -9  -2   60.29    6.93
  13   9  -2   76.00    7.01
 -13  -9   2   80.94    7.02
 -13  -9   2   57.16    7.06
 -13   9   3    4.26    0.94
 -13   9   3    3.23    1.33
  13  -9  -3    3.23    0.99
  13   9  -3    3.63    1.02
 -13  -9   3    3.28    1.00
 -13   9   4   19.98    2.36
  13  -9  -4   17.24    2.39
  13   9  -4   22.71    2.43
 -13  -9   4   22.17    2.40
 -13  -9   4   16.64    2.54
 -13   9   5    0.51    0.78
 -13   9   5   -0.33    1.22
  13  -9  -5    0.26    0.89
  13   9  -5    0.61    0.84
 -13  -9   5    0.80    1.10
 -13   9   6    1.05    0.84
 -13   9   6    0.84    1.23
  13  -9  -6    1.46    0.97
  13   9  -6    1.47    0.90
 -13  -9   6    1.28    1.12
 -13   9   7    0.88    0.86
 -13   9   7    1.87    1.25
  13  -9  -7    1.54    1.02
  13   9  -7    0.06    0.85
 -13  -9   7    0.73    1.14
 -13  10   1    1.12    0.64
 -13  10   1    0.12    1.20
  13 -10  -1    0.10    0.78
  13  10  -1    0.94    0.89
 -13 -10   1    1.37    0.85
 -13 -10   1    0.08    1.11
 -13  10   2   14.66    1.70
 -13  10   2    8.39    1.96
  13 -10  -2   10.55    1.70
  13  10  -2   15.07    1.81
 -13 -10   2   17.52    1.81
 -13 -10   2   10.51    1.96
 -13  10   3    8.61    1.31
 -13  10   3    5.89    1.62
  13 -10  -3    7.30    1.35
  13  10  -3   10.03    1.41
 -13 -10   3   10.16    1.39
 -13  10   4   -0.01    0.73
  13 -10  -4   -0.39    0.86
  13  10  -4   -0.23    0.83
 -13 -10   4   -0.49    0.82
 -13 -10   4   -0.35    1.12
 -13  10   5    2.64    0.90
 -13  10   5    3.62    1.32
  13 -10  -5    2.29    1.00
  13  10  -5    3.58    0.96
 -13 -10   5    2.43    1.23
 -12   0   1   -0.29    0.63
 -12   0   1    0.07    0.88
  12   0  -1    0.34    0.71
 -12   0   2    0.20    0.63
 -12   0   2    0.28    0.91
  12   0  -2    0.60    0.72
 -12   0   3   -0.33    0.66
  12   0  -3   -0.39    0.73
 -12   0   4   23.97    2.66
 -12   0   4   21.75    2.77
  12   0  -4   24.65    2.70
 -12   0   5   -0.18    0.67
 -12   0   5   -0.26    0.95
  12   0  -5   -0.11    0.74
 -12   0   6    8.50    1.26
 -12   0   6    6.81    1.44
  12   0  -6    8.89    1.31
 -12   0   7    0.25    1.00
 -12   0   8   17.90    2.20
 -12   0   8   19.98    2.38
  12   0  -8   17.81    2.23
 -12   0   9    0.27    0.73
 -12   0   9   -0.82    1.06
  12   0  -9    0.27    0.83
 -12   0  10   36.05    3.67
 -12   0  10   28.94    3.73
  12   0 -10   33.57    3.68
 -12   0  11    0.47    0.80
 -12   0  11   -0.45    1.05
  12   0 -11   -0.44    0.87
 -12   0  12    0.97    0.86
 -12   0  12    0.28    1.10
  12   0 -12    0.46    0.85
 -12   0  13   -0.25    0.87
 -12   0  13   -0.50    0.98
  12   0 -13   -0.55    0.89
 -12   0  14   21.63    2.35
 -12   0  14   16.28    2.37
  12   0 -14   17.14    2.30
 -12   0  15   -0.06    0.90
 -12   0  15    0.30    1.06
 -12   1   1    0.51    0.64
 -12   1   1    0.42    0.92
  12  -1  -1    0.84    0.74
  12   1  -1   -0.13    0.71
 -12  -1   1   -0.06    0.64
 -12  -1   1    0.47    0.90
 -12   1   2    0.88    0.67
 -12   1   2    0.57    0.93
  12  -1  -2    0.91    0.74
  12   1  -2    0.18    0.73
 -12  -1   2    0.44    0.66
 -12  -1   2   -0.27    0.90
 -12   1   3   14.69    1.98
 -12   1   3   19.98    2.22
  12  -1  -3   16.60    2.04
  12   1  -3   17.05    2.05
 -12  -1   3   17.50    2.01
 -12   1   4   79.34    8.02
 -12   1   4   68.98    8.08
  12  -1  -4   81.28    8.05
  12   1  -4   84.30    8.06
 -12  -1   4   78.45    8.01
 -12  -1   4   71.92    8.09
 -12   1   5    5.44    1.05
 -12   1   5    6.57    1.29
  12  -1  -5    5.58    1.10
  12   1  -5    6.37    1.10
 -12  -1   5    5.78    1.05
 -12  -1   5    6.58    1.28
 -12   1   6   16.37    1.98
 -12   1   6   16.21    2.16
  12  -1  -6   16.45    2.03
  12   1  -6   17.16    2.04
 -12  -1   6   16.03    1.98
 -12  -1   6   15.56    2.13
 -12   1   7    8.91    1.28
 -12   1   7    7.43    1.47
  12  -1  -7    9.01    1.32
  12   1  -7    8.58    1.32
 -12  -1   7    8.29    1.26
 -12  -1   7    6.52    1.43
 -12   1   8    2.07    0.79
 -12   1   8    2.51    1.09
  12  -1  -8    1.40    0.86
  12   1  -8    1.24    0.85
 -12  -1   8    1.04    0.78
 -12  -1   8    1.24    1.05
 -12   1   9    0.06    0.74
 -12   1   9    0.62    1.06
  12  -1  -9    0.94    0.85
  12   1  -9    0.17    0.82
 -12  -1   9   -0.08    0.75
 -12  -1   9   -0.43    1.04
 -12   1  10    4.67    0.99
 -12   1  10    2.53    1.19
  12  -1 -10    3.77    1.04
  12   1 -10    3.46    1.02
 -12  -1  10    4.21    0.99
 -12  -1  10    2.01    1.18
 -12   1  11    5.80    1.15
 -12   1  11    6.29    1.39
  12  -1 -11    6.33    1.23
  12   1 -11    5.72    1.20
 -12  -1  11    6.86    1.21
 -12  -1  11    6.79    1.39
 -12   1  12    9.50    1.46
 -12   1  12    8.17    1.63
  12  -1 -12    9.80    1.50
  12   1 -12    9.30    1.49
 -12  -1  12   11.15    1.50
 -12  -1  12    8.41    1.64
 -12   1  13    5.54    1.14
 -12   1  13    3.53    1.21
  12  -1 -13    4.75    1.13
  12   1 -13    5.00    1.10
 -12  -1  13    5.13    1.11
 -12  -1  13    2.55    1.14
 -12   1  14   38.26    3.90
 -12   1  14   28.70    3.90
  12   1 -14   37.34    3.89
 -12  -1  14   37.30    3.86
 -12  -1  14   31.07    3.90
 -12   1  15    1.05    0.93
 -12   1  15    0.57    1.04
  12  -1 -15    1.26    0.93
  12   1 -15    0.96    0.90
 -12  -1  15    1.08    0.91
 -12  -1  15    0.89    1.06
 -12   2   1  111.76   11.73
 -12   2   1  111.79   11.85
  12  -2  -1  117.13   11.77
  12   2  -1  115.93   11.76
 -12  -2   1  116.69   11.75
 -12  -2   1  119.43   11.86
 -12   2   2    6.74    1.03
 -12   2   2    5.56    1.23
  12  -2  -2    6.03    1.07
  12   2  -2    5.15    1.05
 -12  -2   2    6.71    1.04
 -12  -2   2    4.93    1.21
 -12   2   3   15.51    1.81
 -12   2   3   12.94    1.95
  12  -2  -3   14.83    1.85
  12   2  -3   15.02    1.85
 -12   2   4    0.91    0.72
 -12   2   4    2.01    1.00
  12  -2  -4    0.89    0.78
 -12  -2   4    1.54    0.95
 -12   2   5   23.50    2.52
 -12   2   5   19.09    2.63
  12  -2  -5   21.63    2.54
  12   2  -5   24.39    2.57
 -12  -2   5   19.92    2.62
 -12   2   6   29.28    3.28
 -12   2   6   27.50    3.40
  12  -2  -6   27.56    3.29
  12   2  -6   31.12    3.31
 -12  -2   6   32.18    3.30
 -12  -2   6   30.08    3.40
 -12   2   7   27.29    3.03
 -12   2   7   23.34    3.13
  12  -2  -7   28.72    3.08
  12   2  -7   27.43    3.05
 -12  -2   7   30.00    3.04
 -12  -2   7   24.02    3.12
 -12   2   8   -0.36    0.73
 -12   2   8    0.80    1.05
  12  -2  -8    0.13    0.78
  12   2  -8   -0.01    0.78
 -12  -2   8    0.26    0.76
 -12  -2   8    0.20    0.98
 -12   2   9   10.25    1.49
 -12   2   9   10.63    1.70
  12  -2  -9   11.52    1.56
  12   2  -9   10.92    1.53
 -12  -2   9   10.10    1.50
 -12  -2   9    9.94    1.68
 -12   2  10   11.10    1.60
 -12   2  10   10.68    1.78
  12  -2 -10   10.08    1.62
  12   2 -10   12.68    1.64
 -12  -2  10   12.68    1.63
 -12   2  11    1.89    0.87
  12  -2 -11    2.05    0.95
  12   2 -11    1.02    0.89
 -12  -2  11    1.74    0.87
 -12  -2  11    2.03    1.11
 -12   2  12    3.13    0.95
 -12   2  12    1.88    1.16
  12   2 -12    2.66    0.97
 -12  -2  12    2.05    0.93
 -12  -2  12    2.18    1.15
 -12   2  13    6.09    1.20
 -12   2  13    5.16    1.31
  12   2 -13    5.29    1.17
 -12  -2  13    6.82    1.20
 -12  -2  13    6.08    1.30
 -12   2  14    1.08    0.92
 -12   2  14    1.92    1.10
  12  -2 -14    1.91    0.98
  12   2 -14    1.57    0.90
 -12  -2  14    0.93    0.89
 -12  -2  14    1.30    1.03
 -12   2  15    0.35    1.06
  12  -2 -15   -0.16    0.93
  12   2 -15    0.21    0.86
 -12  -2  15    0.10    0.86
 -12  -2  15    0.00    0.98
 -12   3   1    2.94    0.79
 -12   3   1    3.03    1.06
  12  -3  -1    3.30    0.87
  12   3  -1    3.25    0.89
 -12  -3   1    4.99    1.12
 -12   3   2    6.31    1.08
 -12   3   2    6.38    1.31
  12  -3  -2    6.74    1.14
  12   3  -2    7.89    1.19
 -12  -3   2    7.45    1.33
 -12   3   3   38.46    4.27
 -12   3   3   35.33    4.37
  12  -3  -3   41.70    4.31
  12   3  -3   44.80    4.33
 -12   3   4    7.43    1.19
 -12   3   4    8.34    1.43
  12  -3  -4    6.81    1.24
  12   3  -4    8.96    1.28
 -12  -3   4    8.11    1.41
 -12   3   5   -0.13    0.68
 -12   3   5    0.46    0.95
  12  -3  -5    0.09    0.76
  12   3  -5    0.11    0.78
 -12  -3   5   -0.08    0.95
 -12   3   6   39.05    4.26
 -12   3   6   35.74    4.36
  12  -3  -6   40.27    4.30
  12   3  -6   42.83    4.30
 -12  -3   6   40.19    4.39
 -12   3   7    0.13    0.72
 -12   3   7   -0.18    1.02
  12  -3  -7    0.53    0.80
  12   3  -7    0.06    0.77
 -12  -3   7    0.61    1.02
 -12   3   8    2.46    0.86
 -12   3   8    3.63    1.17
  12  -3  -8    1.98    0.91
  12   3  -8    2.60    0.91
 -12  -3   8    3.44    1.13
 -12   3   9    1.51    0.81
 -12   3   9    0.88    1.07
  12  -3  -9    2.07    0.90
  12   3  -9    1.26    0.84
 -12  -3   9    1.21    0.82
 -12  -3   9    1.34    1.06
 -12   3  10    1.13    0.81
 -12   3  10   -0.04    1.06
  12  -3 -10    0.11    0.86
  12   3 -10    0.47    0.82
 -12  -3  10    0.47    0.82
 -12   3  11   17.28    2.17
  12   3 -11   18.71    2.18
 -12  -3  11   17.78    2.15
 -12  -3  11   15.44    2.26
 -12   3  12   17.45    2.12
 -12   3  12   14.57    2.22
  12  -3 -12   14.80    2.13
  12   3 -12   18.96    2.12
 -12  -3  12   17.96    2.09
 -12  -3  12   13.92    2.21
 -12   3  13    4.31    1.12
 -12   3  13    4.57    1.25
  12  -3 -13    6.19    1.24
  12   3 -13    5.98    1.17
 -12  -3  13    5.96    1.13
 -12  -3  13    4.39    1.22
 -12   3  14   -0.25    1.00
  12  -3 -14   -0.35    0.94
  12   3 -14    0.17    0.84
 -12  -3  14   -0.10    0.84
 -12  -3  14    0.10    0.97
 -12   3  15    3.49    1.05
 -12   3  15    1.78    1.12
  12  -3 -15    3.02    1.09
  12   3 -15    3.30    1.00
 -12  -3  15    3.32    0.99
 -12  -3  15    1.97    1.10
 -12   4   1    0.44    0.63
 -12   4   1    0.75    0.93
  12  -4  -1    0.43    0.72
  12   4  -1    0.68    0.77
 -12  -4   1    0.48    0.93
 -12   4   2    0.91    0.45
 -12   4   2    2.68    1.03
  12  -4  -2    2.95    0.84
  12   4  -2    3.16    0.86
 -12  -4   2    3.22    1.03
 -12   4   3   11.13    1.36
 -12   4   3    8.53    1.53
  12  -4  -3    9.39    1.38
  12   4  -3    9.38    1.39
 -12   4   4   -0.06    0.67
 -12   4   4    0.60    0.96
  12  -4  -4    0.50    0.77
  12   4  -4    0.25    0.77
 -12  -4   4    1.53    0.98
 -12   4   5   25.75    2.76
 -12   4   5   19.51    2.85
  12  -4  -5   24.90    2.78
  12   4  -5   26.99    2.80
 -12  -4   5   23.48    2.88
 -12   4   6   41.66    4.56
 -12   4   6   40.25    4.68
  12  -4  -6   43.49    4.60
  12   4  -6   44.40    4.59
 -12  -4   6   43.50    4.69
 -12   4   7    4.65    0.99
 -12   4   7    5.22    1.25
  12  -4  -7    4.74    1.05
  12   4  -7    4.35    1.03
 -12  -4   7    4.09    1.24
 -12   4   8   11.31    1.50
 -12   4   8    9.40    1.66
  12  -4  -8   10.00    1.53
  12   4  -8   11.30    1.51
 -12  -4   8    9.12    1.66
 -12   4   9    0.98    0.82
 -12   4   9    1.44    1.09
  12   4  -9    1.01    0.83
 -12  -4   9    1.40    1.07
 -12   4  10    0.69    0.83
 -12   4  10   -0.33    1.06
  12   4 -10    1.20    0.84
 -12   4  11   21.22    2.59
  12  -4 -11   20.29    2.62
  12   4 -11   23.19    2.57
 -12  -4  11   23.20    2.55
 -12  -4  11   19.14    2.66
 -12   4  12    1.12    1.11
  12  -4 -12    0.65    0.93
  12   4 -12    0.39    0.85
 -12  -4  12    0.49    0.85
 -12  -4  12    0.35    1.09
 -12   4  13    0.56    0.99
  12  -4 -13    0.64    0.96
  12   4 -13    0.92    0.86
 -12  -4  13    0.83    0.84
 -12  -4  13    1.24    0.99
 -12   4  14   11.70    1.64
 -12   4  14    7.43    1.65
  12  -4 -14   11.90    1.74
  12   4 -14   11.93    1.61
 -12  -4  14   12.74    1.60
 -12  -4  14    8.96    1.65
 -12   5   1    0.45    0.65
 -12   5   1    0.16    0.98
  12  -5  -1    0.83    0.74
  12   5  -1    0.53    0.76
 -12  -5   1    0.11    0.93
 -12   5   2    0.87    0.67
 -12   5   2    0.78    0.98
  12  -5  -2    0.69    0.73
  12   5  -2    0.67    0.77
 -12  -5   2    1.48    0.97
 -12   5   3   23.48    2.66
 -12   5   3   22.64    2.84
  12  -5  -3   22.40    2.68
  12   5  -3   25.99    2.73
 -12   5   4   38.19    4.07
  12  -5  -4   37.88    4.11
  12   5  -4   39.11    4.12
 -12  -5   4   38.53    4.09
 -12  -5   4   35.74    4.21
 -12   5   5    1.22    0.74
 -12   5   5    0.23    1.04
  12  -5  -5    2.01    0.83
  12   5  -5    1.09    0.81
 -12  -5   5    0.45    0.76
 -12  -5   5    0.78    1.01
 -12   5   6   11.80    1.58
 -12   5   6   10.82    1.78
  12  -5  -6   10.19    1.60
  12   5  -6   13.92    1.64
 -12  -5   6   12.45    1.59
 -12  -5   6   10.89    1.76
 -12   5   7    1.00    0.77
 -12   5   7    0.36    1.03
  12   5  -7    0.27    0.79
 -12  -5   7    0.60    0.77
 -12  -5   7    0.32    1.01
 -12   5   8    0.52    0.79
 -12   5   8    0.28    1.06
  12   5  -8    0.26    0.78
 -12  -5   8    0.50    0.78
 -12  -5   8    0.19    1.03
 -12   5   9   12.18    1.60
 -12   5   9   10.05    1.76
  12  -5  -9   10.19    1.63
  12   5  -9   11.12    1.56
 -12  -5   9   11.15    1.55
 -12  -5   9   10.80    1.74
 -12   5  10    9.48    1.47
 -12   5  10    6.96    1.59
  12  -5 -10    8.86    1.50
  12   5 -10   10.67    1.44
  12  -5 -11   15.04    2.09
  12   5 -11   15.58    1.98
 -12  -5  11   16.35    2.18
 -12   5  12    1.31    0.90
 -12   5  12    0.45    1.12
  12  -5 -12    0.61    0.97
  12   5 -12    0.62    0.84
 -12  -5  12    0.63    1.14
 -12   5  13    9.15    1.41
 -12   5  13    5.88    1.43
  12  -5 -13    6.90    1.46
  12   5 -13    8.63    1.34
 -12  -5  13    9.98    1.35
 -12  -5  13    6.69    1.46
 -12   5  14    1.39    0.91
 -12   5  14    1.40    1.11
  12  -5 -14    0.83    1.02
  12   5 -14    1.69    0.89
 -12  -5  14    1.66    0.87
 -12  -5  14    0.57    1.00
 -12   6   1    2.40    0.75
 -12   6   1    2.22    1.07
  12  -6  -1    2.25    0.78
  12   6  -1    2.54    0.87
 -12  -6   1    2.18    1.04
 -12   6   2    0.30    0.65
 -12   6   2    0.34    1.00
  12  -6  -2    0.15    0.69
  12   6  -2    0.03    0.78
 -12  -6   2   -0.20    0.94
 -12   6   3    3.99    0.88
 -12   6   3    3.77    1.18
  12  -6  -3    3.39    0.91
  12   6  -3    4.17    0.96
 -12  -6   3    3.96    0.94
 -12   6   4    7.57    1.18
  12  -6  -4    8.12    1.25
  12   6  -4    7.62    1.23
 -12  -6   4    7.41    1.21
 -12  -6   4    6.54    1.42
 -12   6   5   11.21    1.82
  12   6  -5   13.38    1.66
 -12  -6   5   13.00    1.62
 -12  -6   5    9.93    1.76
 -12   6   6   -0.05    0.73
 -12   6   6    0.31    1.06
  12   6  -6    0.19    0.78
 -12  -6   6    0.43    0.74
 -12  -6   6    0.00    1.01
 -12   6   7   10.80    1.51
 -12   6   7    9.82    1.71
  12  -6  -7    9.13    1.53
  12   6  -7   10.85    1.50
 -12  -6   7   11.44    1.48
 -12  -6   7   10.01    1.68
 -12   6   8    0.12    0.78
 -12   6   8   -0.02    1.06
  12  -6  -8    0.26    0.87
  12   6  -8   -0.13    0.80
 -12  -6   8   -0.45    0.76
 -12  -6   8    0.62    1.05
 -12   6   9   28.82    3.84
  12  -6  -9   31.31    3.78
  12   6  -9   37.64    3.74
 -12  -6   9   36.65    3.71
 -12  -6   9   32.40    3.84
 -12   6  10    2.96    0.97
 -12   6  10    0.91    1.16
  12  -6 -10    2.42    1.03
  12   6 -10    2.47    0.92
 -12  -6  10    3.15    0.91
 -12   6  11    5.38    1.21
  12  -6 -11    6.32    1.33
  12   6 -11    7.15    1.18
 -12  -6  11    7.35    1.18
 -12  -6  11    4.23    1.37
 -12   6  12    0.68    0.91
 -12   6  12    0.66    1.15
  12  -6 -12    0.81    1.02
  12   6 -12    1.13    0.85
 -12  -6  12    1.13    1.13
 -12   6  13   12.09    1.72
 -12   6  13   10.03    1.83
  12  -6 -13   11.47    1.78
  12   6 -13   12.13    1.60
 -12  -6  13    8.52    1.69
 -12   7   1  114.89   11.06
 -12   7   1   89.15   11.16
  12  -7  -1  112.42   11.09
  12   7  -1  127.61   11.15
 -12  -7   1   94.47   11.17
 -12   7   2    1.52    0.75
 -12   7   2    2.68    1.15
  12  -7  -2    2.31    0.81
  12   7  -2    1.56    0.87
 -12  -7   2    2.27    0.85
 -12  -7   2    2.56    1.09
 -12   7   3    6.55    1.10
 -12   7   3    5.04    1.39
  12   7  -3    8.03    1.21
 -12  -7   3    7.57    1.18
 -12   7   4    1.31    0.74
  12   7  -4    1.40    0.84
 -12  -7   4    1.74    0.81
 -12  -7   4    0.93    1.03
 -12   7   5    2.37    0.84
 -12   7   5    3.32    1.21
  12  -7  -5    2.66    0.93
  12   7  -5    2.70    0.91
 -12  -7   5    3.62    0.90
 -12  -7   5    4.49    1.17
 -12   7   6   34.32    3.92
  12   7  -6   33.72    3.74
 -12  -7   6   35.35    3.72
 -12  -7   6   32.52    3.87
 -12   7   7   20.85    3.18
  12  -7  -7   25.02    3.09
  12   7  -7   30.08    3.08
 -12  -7   7   30.59    3.05
 -12  -7   7   26.70    3.22
 -12   7   8    0.63    1.13
  12  -7  -8    2.08    0.98
  12   7  -8    2.29    0.89
 -12  -7   8    2.89    0.85
 -12  -7   8    1.62    1.13
 -12   7   9    1.78    0.93
 -12   7   9    2.97    1.25
  12  -7  -9    2.14    1.04
  12   7  -9    2.61    0.91
 -12  -7   9    3.26    0.88
 -12  -7   9    2.67    1.19
 -12   7  10   13.23    1.79
 -12   7  10   10.42    1.92
  12  -7 -10   11.78    1.83
  12   7 -10   13.00    1.69
 -12  -7  10   12.79    1.66
 -12   7  11    1.59    0.93
  12  -7 -11    0.17    1.03
  12   7 -11    1.47    0.85
 -12  -7  11    0.98    0.82
 -12  -7  11    0.91    1.12
 -12   7  12   10.86    1.64
 -12   7  12    8.79    1.77
  12  -7 -12    8.54    1.68
  12   7 -12   11.79    1.52
 -12  -7  12   11.49    1.51
 -12  -7  12    8.73    1.72
 -12   8   1    6.25    1.08
 -12   8   1    6.70    1.48
  12   8  -1    7.66    1.22
 -12  -8   1    6.85    1.42
 -12   8   2   73.44    7.22
 -12   8   2   59.17    7.37
  12   8  -2   75.90    7.28
 -12  -8   2   73.39    7.26
 -12  -8   2   62.54    7.35
 -12   8   3   -0.08    0.67
 -12   8   3   -0.20    1.08
  12  -8  -3    0.10    0.75
  12   8  -3    0.13    0.78
 -12  -8   3   -0.18    0.76
 -12   8   4    9.29    1.36
  12  -8  -4    8.79    1.40
  12   8  -4   10.03    1.42
 -12  -8   4   11.55    1.42
 -12  -8   4    7.41    1.57
 -12   8   5   -0.07    1.09
  12  -8  -5    0.36    0.82
  12   8  -5    0.02    0.77
 -12  -8   5    0.40    0.75
 -12  -8   5    0.56    1.02
 -12   8   6    2.98    1.26
  12  -8  -6    3.63    1.04
 -12  -8   6    4.29    0.95
 -12  -8   6    3.41    1.20
 -12   8   7    9.98    1.75
 -12   8   7   14.14    2.13
  12  -8  -7   18.08    2.03
 -12  -8   7   17.85    1.89
 -12  -8   7   17.12    2.11
 -12   8   8    9.58    1.43
 -12   8   8    6.09    1.60
  12  -8  -8    7.74    1.47
 -12  -8   8   11.08    1.37
 -12  -8   8    8.04    1.58
 -12   8   9   12.44    1.75
 -12   8   9   11.67    1.95
  12  -8  -9   12.43    1.83
 -12  -8   9   12.53    1.63
 -12  -8   9   11.92    1.91
 -12   8  10   34.14    3.84
 -12   8  10   28.64    3.91
  12  -8 -10   30.19    3.85
 -12  -8  10   40.50    3.75
 -12   8  11    0.63    0.92
  12  -8 -11    0.14    1.00
  12   8 -11    0.61    0.81
 -12  -8  11    0.67    0.77
 -12  -8  11    0.73    1.11
 -12   9   1    2.41    0.73
 -12   9   1    2.17    1.22
  12  -9  -1    1.52    0.77
  12   9  -1    2.05    0.89
 -12  -9   1    1.55    1.12
 -12   9   2   18.68    2.35
 -12   9   2   21.75    2.69
  12  -9  -2   18.52    2.38
  12   9  -2   22.86    2.47
 -12  -9   2   22.26    2.45
 -12  -9   2   22.66    2.66
 -12   9   3   14.16    2.10
  12  -9  -3   13.11    1.79
  12   9  -3   15.56    1.85
 -12  -9   3   13.52    1.79
  12  -9  -4    9.31    1.52
  12   9  -4   12.38    1.56
 -12  -9   4   12.96    1.54
 -12  -9   4    7.71    1.70
 -12   9   5   10.12    1.43
 -12   9   5    9.20    1.74
  12  -9  -5    9.33    1.48
 -12  -9   5   10.65    1.43
 -12  -9   5    9.29    1.67
 -12   9   6    0.20    0.77
 -12   9   6    0.34    1.18
  12  -9  -6   -0.28    0.89
 -12  -9   6    0.22    0.75
 -12  -9   6    0.07    1.06
 -12   9   7   16.18    2.15
 -12   9   7   16.92    2.40
  12  -9  -7   15.80    2.20
 -12  -9   7   21.25    2.13
 -12  -9   7   15.05    2.31
 -12   9   8    1.02    0.73
 -12   9   8    0.14    1.19
  12  -9  -8    0.22    0.90
 -12  -9   8    0.12    0.75
 -12  -9   8    0.32    1.08
 -12   9   9   -0.11    0.87
 -12   9   9   -0.32    1.19
  12  -9  -9    0.48    0.96
 -12  -9   9    0.96    0.78
 -12  -9   9   -0.91    1.11
 -12   9  10    0.61    0.92
 -12   9  10    0.82    1.22
  12  -9 -10    0.21    1.00
 -12  -9  10    0.83    0.78
 -12  10   1   61.18    7.53
  12 -10  -1   71.75    7.35
  12  10  -1   82.51    7.43
 -12 -10   1   65.22    7.51
 -12  10   2   24.20    2.68
 -12  10   2   20.17    2.97
  12 -10  -2   21.89    2.70
  12  10  -2   26.97    2.79
 -12 -10   2   27.96    2.78
 -12 -10   2   20.91    2.93
 -12  10   3   53.81    5.66
 -12  10   3   44.97    5.85
  12 -10  -3   47.95    5.67
  12  10  -3   60.94    5.74
 -12 -10   3   61.43    5.72
 -12  10   4    3.07    0.85
  12  10  -4    2.73    0.92
 -12 -10   4    3.26    0.91
 -12 -10   4    1.98    1.19
 -12  10   5    1.00    0.78
 -12  10   5    0.78    1.20
  12 -10  -5    0.13    0.83
 -12 -10   5    0.32    0.76
 -12 -10   5   -0.34    1.10
 -12  10   6   -0.02    0.78
 -12  10   6   -0.21    1.18
  12 -10  -6   -0.21    0.88
 -12 -10   6    1.17    0.79
 -12 -10   6    0.87    1.13
 -12  10   7    0.33    0.83
 -12  10   7   -0.08    1.21
  12 -10  -7    0.37    0.91
 -12 -10   7    0.35    0.76
 -12 -10   7    0.97    1.12
 -12  10   8   18.79    2.33
 -12  10   8   14.03    2.48
  12 -10  -8   15.95    2.34
 -12 -10   8   24.03    2.26
 -12 -10   8   17.04    2.44
 -12  11   1    0.81    0.62
 -12  11   1    0.39    1.19
  12 -11  -1    0.75    0.74
  12  11  -1    0.82    0.84
 -12 -11   1   -0.06    1.08
 -12  11   2    4.13    0.86
 -12  11   2    3.82    1.40
  12 -11  -2    3.91    0.98
  12  11  -2    4.91    1.05
 -12 -11   2    4.29    1.02
 -12 -11   2    5.01    1.32
 -12  11   3    0.62    1.22
  12  11  -3    0.49    0.82
 -12 -11   3   -0.13    0.75
 -12  11   4   18.80    2.16
  12 -11  -4   14.39    2.16
 -12 -11   4   23.22    2.22
 -12 -11   4   15.21    2.37
 -12  11   5    1.86    0.85
 -12  11   5    2.59    1.32
  12 -11  -5    1.67    0.93
 -12 -11   5    2.32    0.85
 -12 -11   5    2.19    1.20
 -11   0   1    0.51    0.60
 -11   0   1    0.46    0.84
  11   0  -1    0.59    0.67
 -11   0   2    0.06    0.62
 -11   0   2    0.36    0.87
  11   0  -2    0.18    0.66
 -11   0   3  225.37   22.61
  11   0  -3  224.59   22.62
 -11   0   4   -0.05    0.62
 -11   0   4    0.16    0.85
  11   0  -4    0.21    0.68
 -11   0   5   59.84    6.28
 -11   0   5   61.31    6.39
  11   0  -5   60.43    6.30
 -11   0   6    0.25    0.90
  11   0  -6   -0.35    0.71
 -11   0   7   44.81    4.85
  11   0  -7   44.76    4.76
 -11   0   8   -0.23    0.96
  11   0  -8   -0.60    0.75
 -11   0   9    4.44    0.93
 -11   0   9    2.51    1.11
  11   0  -9    4.49    0.98
 -11   0  10    0.02    0.71
  11   0 -10    0.02    0.78
 -11   0  11  125.43   11.96
 -11   0  11  109.84   12.00
  11   0 -11  114.17   11.95
 -11   0  12    0.16    0.81
 -11   0  12   -0.54    1.06
  11   0 -12    0.24    0.81
 -11   0  13   15.25    1.94
 -11   0  13   13.72    2.01
  11   0 -13   16.00    1.97
 -11   0  14    0.44    0.84
 -11   0  14    0.20    0.95
  11   0 -14   -0.21    0.83
 -11   0  15    1.60    0.91
 -11   0  15    1.52    1.07
  11   0 -15    1.65    0.92
 -11   0  16    0.41    0.87
 -11   0  16    0.46    1.04
  11   0 -16    0.31    0.86
 -11   1   1  106.78   10.77
  11  -1  -1  106.15   10.69
  11   1  -1  105.62   10.69
 -11  -1   1  101.34   10.66
 -11  -1   1  105.28   10.77
 -11   1   2   64.32    6.55
  11  -1  -2   62.10    6.45
  11   1  -2   62.88    6.45
 -11  -1   2   59.20    6.41
 -11  -1   2   63.49    6.54
  11  -1  -3    2.17    0.77
  11   1  -3    2.76    0.79
 -11  -1   3    2.23    0.72
 -11   1   4   31.67    3.80
  11  -1  -4   34.58    3.72
  11   1  -4   35.89    3.73
 -11  -1   4   35.27    3.71
 -11  -1   4   34.57    3.82
 -11   1   5   12.05    1.69
  11  -1  -5   11.40    1.54
  11   1  -5   10.61    1.52
 -11  -1   5   12.17    1.51
 -11  -1   5   12.33    1.69
 -11   1   6   15.95    2.05
  11  -1  -6   14.43    1.91
 -11  -1   6   17.23    2.06
 -11   1   7    3.12    0.82
 -11   1   7    3.39    1.09
  11  -1  -7    2.92    0.87
  11   1  -7    3.18    0.89
 -11  -1   7    3.73    0.86
 -11  -1   7    3.27    1.06
 -11   1   8   41.21    4.47
 -11   1   8   41.23    4.58
  11  -1  -8   44.18    4.51
  11   1  -8   43.35    4.50
 -11  -1   8   39.08    4.55
 -11   1   9   14.40    1.92
  11  -1  -9   12.42    1.76
  11   1  -9   14.17    1.77
 -11  -1   9   13.56    1.89
 -11   1  10   32.39    3.45
  11  -1 -10   29.49    3.45
  11   1 -10   31.75    3.46
 -11   1  11    3.62    0.94
 -11   1  11    3.62    1.17
  11  -1 -11    3.40    0.98
  11   1 -11    4.39    1.00
 -11  -1  11    3.51    0.95
 -11  -1  11    3.43    1.15
 -11   1  12    2.53    0.87
 -11   1  12    1.54    1.10
  11  -1 -12    1.68    0.90
  11   1 -12    2.15    0.88
 -11  -1  12    2.79    0.90
 -11  -1  12    2.12    1.12
 -11   1  13    6.81    1.24
 -11   1  13    6.45    1.37
  11  -1 -13    7.32    1.28
  11   1 -13    6.92    1.24
 -11  -1  13    7.86    1.26
 -11  -1  13    6.29    1.32
 -11   1  14    3.88    1.05
 -11   1  14    3.26    1.15
  11  -1 -14    3.67    1.04
  11   1 -14    3.64    1.01
 -11  -1  14    4.18    1.03
 -11  -1  14    2.47    1.09
 -11   1  15    6.03    1.21
 -11   1  15    4.17    1.28
  11  -1 -15    5.52    1.21
  11   1 -15    7.14    1.22
 -11  -1  15    6.31    1.19
 -11  -1  15    5.72    1.29
 -11   1  16    1.52    0.95
 -11   1  16    2.04    1.11
  11   1 -16    2.39    0.95
 -11  -1  16    2.59    0.95
 -11  -1  16    1.51    1.08
 -11   2   1    1.26    0.90
  11  -2  -1    1.58    0.70
  11   2  -1    1.33    0.72
 -11  -2   1    1.09    0.65
 -11  -2   1    0.36    0.87
 -11   2   2   74.94    7.54
  11  -2  -2   70.16    7.43
  11   2  -2   69.26    7.42
 -11  -2   2   71.99    7.41
 -11  -2   2   75.45    7.52
  11  -2  -3    6.87    1.07
  11   2  -3    5.52    1.06
 -11  -2   3    6.93    1.04
 -11   2   4  165.41   18.04
 -11   2   4  184.17   18.19
  11  -2  -4  189.35   18.08
  11   2  -4  184.16   18.08
 -11  -2   4  178.69   18.05
 -11  -2   4  175.05   18.15
 -11   2   5   38.07    4.35
 -11   2   5   43.54    4.50
  11  -2  -5   41.62    4.39
  11   2  -5   44.13    4.41
 -11  -2   5   40.76    4.37
 -11  -2   5   39.95    4.46
 -11   2   6    6.64    1.06
 -11   2   6    6.91    1.28
  11  -2  -6    6.15    1.09
  11   2  -6    6.58    1.11
 -11  -2   6    5.31    1.04
 -11  -2   6    7.25    1.26
 -11   2   7    0.55    0.68
 -11   2   7   -0.19    0.93
  11  -2  -7    0.46    0.73
  11   2  -7   -0.44    0.74
 -11  -2   7   -0.42    0.70
 -11  -2   7    0.26    0.92
 -11   2   8    0.70    0.70
 -11   2   8    0.62    0.97
  11  -2  -8    0.73    0.76
  11   2  -8    0.16    0.75
 -11  -2   8    0.28    0.73
 -11  -2   8    0.57    0.94
 -11   2   9    1.98    0.80
 -11   2   9    2.39    1.08
  11  -2  -9    1.55    0.84
  11   2  -9    2.11    0.84
 -11  -2   9    2.20    0.83
 -11  -2   9    1.87    1.04
  11   2 -10    7.23    1.22
 -11   2  11    1.58    0.81
 -11   2  11    1.45    1.05
  11  -2 -11    1.34    0.86
  11   2 -11    0.82    0.81
 -11  -2  11    0.36    1.01
 -11   2  12   26.26    2.94
 -11   2  12   22.71    3.02
  11  -2 -12   26.14    2.96
  11   2 -12   27.34    2.94
 -11  -2  12   24.52    3.02
 -11   2  13   20.95    2.38
 -11   2  13   17.85    2.44
  11  -2 -13   20.88    2.43
  11   2 -13   21.42    2.38
 -11  -2  13   20.88    2.36
 -11  -2  13   15.15    2.37
 -11   2  14   20.54    2.32
 -11   2  14   16.00    2.34
  11  -2 -14   18.49    2.33
  11   2 -14   19.32    2.28
 -11  -2  14   20.55    2.28
 -11  -2  14   15.63    2.31
 -11   2  15   13.03    1.73
 -11   2  15   10.12    1.77
  11   2 -15   12.08    1.67
 -11  -2  15   13.30    1.68
 -11  -2  15   10.17    1.73
 -11   2  16   -0.04    0.88
 -11   2  16    0.20    1.00
  11  -2 -16    0.96    0.94
  11   2 -16   -0.01    0.83
 -11  -2  16    0.60    0.84
 -11  -2  16   -0.50    1.00
 -11   3   1   18.64    2.38
 -11   3   1   24.11    2.62
  11  -3  -1   23.38    2.48
  11   3  -1   21.63    2.48
 -11  -3   1   23.15    2.48
 -11  -3   1   23.36    2.60
 -11   3   2    7.36    1.08
 -11   3   2    6.41    1.28
  11  -3  -2    6.78    1.11
 -11  -3   2    7.52    1.12
 -11  -3   2    7.78    1.28
 -11   3   3    1.57    0.67
  11  -3  -3    1.50    0.74
 -11  -3   3    1.85    0.74
 -11   3   4    7.19    1.05
 -11   3   4    5.58    1.24
  11  -3  -4    6.44    1.08
 -11  -3   4    7.38    1.08
 -11  -3   4    4.91    1.21
 -11   3   5    1.93    0.72
 -11   3   5    1.80    0.99
  11  -3  -5    2.56    0.81
 -11  -3   5    1.36    0.77
 -11  -3   5    4.05    1.04
 -11   3   6    6.93    1.07
 -11   3   6    3.73    1.22
  11  -3  -6    7.04    1.12
 -11  -3   6    8.07    1.12
 -11  -3   6    5.35    1.25
 -11   3   7   12.76    1.63
 -11   3   7   12.92    1.82
  11  -3  -7   13.31    1.68
 -11  -3   7   11.80    1.61
 -11  -3   7   12.89    1.80
 -11   3   8    0.14    0.70
 -11   3   8    0.23    0.96
  11  -3  -8    0.22    0.75
  11   3  -8    0.40    0.75
 -11  -3   8    0.27    0.72
 -11  -3   8    0.15    0.96
 -11   3   9   44.16    4.63
 -11   3   9   37.02    4.68
  11  -3  -9   44.36    4.66
  11   3  -9   46.40    4.63
 -11  -3   9   48.31    4.63
 -11  -3   9   37.47    4.67
 -11   3  10   24.83    2.85
  11  -3 -10   24.70    2.88
  11   3 -10   25.20    2.84
 -11  -3  10   24.95    2.81
 -11   3  11    0.34    1.02
  11   3 -11    0.18    0.79
 -11  -3  11   -0.06    0.77
 -11  -3  11    0.52    1.00
 -11   3  12   41.39    4.49
 -11   3  12   36.72    4.55
  11  -3 -12   44.08    4.55
  11   3 -12   44.47    4.49
 -11  -3  12   39.75    4.56
 -11   3  13   10.51    1.48
 -11   3  13    7.95    1.52
  11  -3 -13    9.67    1.52
  11   3 -13   10.21    1.45
 -11  -3  13    8.56    1.51
 -11   3  14   10.46    1.47
 -11   3  14    7.26    1.51
  11   3 -14    8.55    1.38
 -11  -3  14   10.06    1.41
 -11  -3  14    8.56    1.50
 -11   3  15    0.63    0.89
 -11   3  15   -0.25    1.00
  11  -3 -15   -0.20    0.91
  11   3 -15   -0.02    0.82
 -11  -3  15    1.10    0.84
 -11  -3  15    0.58    0.98
 -11   3  16    0.86    1.01
  11  -3 -16   -0.07    0.93
  11   3 -16    0.34    0.81
 -11  -3  16   -0.54    0.82
 -11   4   1    1.23    0.64
 -11   4   1    1.32    0.90
  11  -4  -1    1.59    0.69
 -11  -4   1    1.23    0.72
 -11  -4   1    1.06    0.88
 -11   4   2    2.56    0.70
 -11   4   2    6.57    1.14
  11  -4  -2    4.44    0.89
 -11  -4   2    4.05    0.89
 -11  -4   2    5.45    1.11
 -11   4   3  127.43   13.23
  11  -4  -3  124.09   13.25
 -11  -4   3  140.34   13.25
 -11   4   4   10.19    1.39
 -11   4   4    8.16    1.54
  11  -4  -4   11.29    1.45
 -11  -4   4   12.51    1.45
 -11  -4   4   10.07    1.58
 -11   4   5   22.74    2.40
 -11   4   5   18.02    2.50
  11  -4  -5   20.61    2.41
 -11  -4   5   24.77    2.42
 -11  -4   5   17.00    2.48
 -11   4   6    4.51    0.98
 -11   4   6    5.14    1.23
  11  -4  -6    5.16    1.05
 -11  -4   6    7.65    1.07
 -11  -4   6    6.04    1.22
 -11   4   7    4.22    0.93
 -11   4   7    5.73    1.21
  11  -4  -7    3.77    0.97
 -11  -4   7    4.09    0.95
 -11  -4   7    5.86    1.19
 -11   4   8   30.27    3.25
 -11   4   8   29.78    3.36
  11  -4  -8   28.61    3.26
 -11  -4   8   28.85    3.20
 -11  -4   8   28.12    3.33
 -11   4   9    1.18    0.79
 -11   4   9    2.55    1.07
  11  -4  -9    1.81    0.86
 -11  -4   9    1.49    0.78
 -11  -4   9    1.68    1.05
 -11   4  10    0.85    0.78
 -11   4  10    0.53    1.03
  11  -4 -10    0.10    0.81
 -11  -4  10    0.94    0.77
 -11   4  11    2.47    0.92
 -11   4  11    3.12    1.12
  11  -4 -11    1.79    0.97
  11   4 -11    2.27    0.88
 -11  -4  11    2.65    0.87
 -11  -4  11    3.07    1.13
 -11   4  12    3.40    1.24
  11   4 -12    3.59    1.00
 -11  -4  12    4.41    0.99
 -11  -4  12    5.22    1.26
 -11   4  13    0.30    0.83
 -11   4  13    0.29    0.95
  11  -4 -13    0.34    0.88
  11   4 -13    0.12    0.79
 -11  -4  13    0.13    0.80
 -11  -4  13    0.28    0.90
 -11   4  14    1.66    0.89
 -11   4  14    0.30    0.96
  11  -4 -14    0.79    0.95
  11   4 -14    1.02    0.80
 -11  -4  14    0.94    0.96
 -11   4  15    1.74    1.04
  11  -4 -15    1.18    1.00
  11   4 -15    0.98    0.83
 -11  -4  15    1.61    1.00
 -11   5   1   -0.03    0.58
 -11   5   1    0.41    0.90
  11  -5  -1   -0.16    0.63
 -11  -5   1    0.36    0.68
 -11  -5   1   -0.19    0.88
 -11   5   2  110.31   11.34
 -11   5   2  101.75   11.45
  11  -5  -2  115.36   11.38
 -11  -5   2  120.06   11.38
 -11  -5   2  107.85   11.46
 -11   5   3    2.42    0.74
  11  -5  -3    3.22    0.82
 -11  -5   3    3.47    0.84
 -11   5   4   -0.11    0.46
 -11   5   4   -0.05    0.92
  11  -5  -4   -0.43    0.69
 -11  -5   4    0.29    0.69
 -11  -5   4   -0.32    0.92
 -11   5   5   15.44    1.92
 -11   5   5   14.16    2.08
  11  -5  -5   15.15    1.94
  11   5  -5   18.00    1.98
 -11  -5   5   16.56    1.93
 -11  -5   5   16.46    2.08
 -11   5   6    8.77    1.28
 -11   5   6    8.57    1.50
  11  -5  -6    7.94    1.31
  11   5  -6    9.00    1.32
 -11  -5   6    9.66    1.28
 -11  -5   6    8.17    1.46
 -11   5   7    1.59    0.76
 -11   5   7    0.57    0.99
  11  -5  -7    0.93    0.80
  11   5  -7    1.11    0.79
 -11  -5   7    1.30    0.77
 -11  -5   7    0.24    0.96
 -11   5   8    9.50    1.37
 -11   5   8    8.02    1.52
  11  -5  -8    8.67    1.39
 -11  -5   8   10.16    1.34
 -11  -5   8    8.63    1.52
 -11   5   9    0.43    0.76
 -11   5   9   -0.06    0.99
  11  -5  -9    0.63    0.85
 -11  -5   9    1.00    0.76
 -11  -5   9    0.21    0.99
 -11   5  10    0.08    0.78
 -11   5  10    0.16    1.04
 -11  -5  10    0.08    0.72
 -11   5  11    6.25    1.17
 -11   5  11    5.06    1.34
 -11  -5  11    6.82    1.09
 -11  -5  11    4.21    1.28
 -11   5  12    3.04    0.96
 -11   5  12    2.73    1.20
  11  -5 -12    2.48    1.05
 -11  -5  12    2.37    0.87
 -11  -5  12    2.45    1.05
 -11   5  13   17.42    2.65
  11  -5 -13   21.60    2.68
  11   5 -13   24.70    2.58
 -11  -5  13   25.01    2.56
 -11  -5  13   19.06    2.64
 -11   5  14   14.56    1.94
 -11   5  14   12.73    2.02
  11  -5 -14   12.12    1.97
  11   5 -14   15.88    1.89
 -11  -5  14   16.63    1.88
 -11  -5  14   13.49    2.00
 -11   5  15    1.34    0.89
 -11   5  15    1.55    1.09
  11  -5 -15    0.41    0.97
  11   5 -15    1.80    0.84
 -11  -5  15    0.67    0.99
 -11   6   1    0.10    0.58
 -11   6   1   -0.38    0.92
  11  -6  -1    0.51    0.63
 -11  -6   1   -0.16    0.68
 -11  -6   1    0.64    0.88
 -11   6   2   -0.16    0.59
 -11   6   2   -0.50    0.93
  11  -6  -2    0.16    0.64
 -11  -6   2   -0.13    0.68
 -11  -6   2   -0.42    0.90
 -11   6   3    2.25    0.69
  11  -6  -3    1.96    0.75
  11   6  -3    1.71    0.79
 -11  -6   3    1.14    0.74
 -11  -6   3    2.01    0.96
 -11   6   4    0.88    0.64
 -11   6   4    0.55    0.97
  11  -6  -4    0.24    0.70
  11   6  -4    2.06    0.79
 -11  -6   4    0.69    0.71
 -11  -6   4    0.90    0.93
 -11   6   5   10.11    1.53
  11  -6  -5    8.47    1.31
  11   6  -5    7.30    1.29
 -11  -6   5    9.07    1.28
 -11  -6   5    9.99    1.49
 -11   6   6   -0.26    0.68
 -11   6   6   -0.36    1.00
  11  -6  -6    0.31    0.74
  11   6  -6    0.10    0.74
 -11  -6   6   -0.15    0.70
 -11  -6   6    0.42    0.98
 -11   6   7   -0.22    0.73
 -11   6   7    0.27    1.01
  11  -6  -7    0.03    0.78
  11   6  -7   -0.25    0.75
 -11  -6   7   -0.43    0.71
 -11  -6   7    0.16    0.96
 -11   6   8    1.06    0.79
 -11   6   8    0.80    1.06
  11   6  -8    1.96    0.82
 -11  -6   8    1.43    0.76
 -11  -6   8    1.05    1.02
 -11   6   9    8.54    1.33
 -11   6   9    8.20    1.53
  11   6  -9    8.24    1.29
 -11  -6   9    7.60    1.24
 -11  -6   9    8.66    1.50
 -11   6  10   46.99    4.90
 -11   6  10   38.92    4.94
  11  -6 -10   43.67    4.91
  11   6 -10   46.28    4.83
 -11  -6  10   48.81    4.82
 -11   6  11    5.51    1.43
  11  -6 -11    7.16    1.34
 -11  -6  11    8.30    1.19
 -11  -6  11    5.67    1.41
 -11   6  12   18.41    2.47
  11  -6 -12   19.74    2.41
 -11  -6  12   18.91    2.22
 -11  -6  12   17.47    2.37
 -11   6  13    1.86    0.92
 -11   6  13    0.02    1.01
  11  -6 -13    0.59    0.98
 -11  -6  13    1.17    0.79
 -11  -6  13    1.32    1.03
 -11   6  14    0.27    0.82
 -11   6  14    0.93    1.06
  11  -6 -14    0.48    0.96
 -11  -6  14    0.68    0.79
 -11  -6  14    0.01    0.99
 -11   7   1   49.51    5.11
 -11   7   1   48.67    5.31
  11  -7  -1   49.08    5.13
 -11  -7   1   49.75    5.17
 -11  -7   1   47.46    5.28
 -11   7   2    8.21    1.17
 -11   7   2    7.28    1.47
  11  -7  -2    8.96    1.23
 -11  -7   2    9.30    1.27
 -11  -7   2    8.34    1.45
 -11   7   3   53.24    5.41
 -11   7   3   43.31    5.54
  11  -7  -3   49.95    5.42
  11   7  -3   53.89    5.45
 -11  -7   3   57.61    5.45
 -11  -7   3   49.97    5.55
 -11   7   4   45.89    5.00
 -11   7   4   41.18    5.14
  11  -7  -4   46.02    5.02
  11   7  -4   49.99    5.03
 -11  -7   4   52.15    5.03
 -11  -7   4   48.66    5.15
 -11   7   5    2.31    0.81
 -11   7   5    3.75    1.18
  11  -7  -5    1.98    0.86
  11   7  -5    2.90    0.87
 -11  -7   5    2.54    0.82
 -11  -7   5    2.74    1.05
 -11   7   6    0.58    0.55
 -11   7   6    5.14    1.22
  11   7  -6    4.88    0.93
 -11  -7   6    3.85    0.86
 -11  -7   6    5.06    1.16
 -11   7   7    0.74    0.75
 -11   7   7    0.94    1.09
  11   7  -7    0.39    0.78
 -11  -7   7    1.06    0.73
 -11  -7   7    0.52    0.97
 -11   7   8    1.47    0.81
 -11   7   8    1.23    1.12
  11  -7  -8    0.88    0.88
  11   7  -8    1.61    0.81
 -11  -7   8    1.34    0.76
 -11  -7   8    0.84    1.03
 -11   7   9   10.72    1.52
 -11   7   9    7.98    1.68
  11  -7  -9   10.20    1.55
  11   7  -9   10.94    1.46
 -11  -7   9   11.34    1.42
 -11  -7   9    7.70    1.61
 -11   7  10   13.75    2.16
  11  -7 -10   15.16    2.07
  11   7 -10   16.02    1.94
 -11  -7  10   16.31    1.92
 -11   7  11    0.91    0.86
 -11   7  11    1.91    1.17
  11  -7 -11    1.38    0.98
  11   7 -11    1.64    0.84
 -11  -7  11    1.66    0.82
 -11  -7  11    0.85    1.09
 -11   7  12    8.10    1.39
 -11   7  12    6.84    1.58
  11  -7 -12    7.81    1.47
  11   7 -12    8.15    1.28
 -11  -7  12    8.45    1.27
 -11  -7  12    7.63    1.46
 -11   7  13   11.31    1.76
 -11   7  13    9.56    1.81
  11  -7 -13   10.82    1.82
  11   7 -13   12.89    1.65
 -11  -7  13   14.36    1.63
 -11  -7  13   11.94    1.83
 -11   8   1   18.00    1.98
 -11   8   1   17.02    2.27
  11  -8  -1   16.29    1.99
 -11  -8   1   18.34    2.07
 -11  -8   1   15.56    2.21
 -11   8   2   14.66    1.76
 -11   8   2   13.59    2.06
  11  -8  -2   14.82    1.80
 -11  -8   2   15.56    1.85
 -11  -8   2   14.82    2.03
 -11   8   3    3.55    0.84
 -11   8   3    3.04    1.22
  11  -8  -3    2.98    0.88
  11   8  -3    5.13    1.00
 -11  -8   3    5.40    0.95
 -11  -8   3    3.78    1.17
 -11   8   4   26.17    3.04
 -11   8   4   24.15    3.24
  11   8  -4   28.50    3.08
 -11  -8   4   30.66    3.08
 -11  -8   4   27.37    3.23
 -11   8   5   67.07    7.08
 -11   8   5   65.82    7.26
  11   8  -5   68.97    7.08
 -11  -8   5   74.55    7.09
 -11  -8   5   62.08    7.20
 -11   8   6   36.83    4.01
 -11   8   6   30.50    4.13
  11  -8  -6   37.26    4.05
  11   8  -6   41.62    4.02
 -11  -8   6   42.04    4.00
 -11  -8   6   30.68    4.09
 -11   8   7   -0.08    0.56
 -11   8   7    0.23    1.10
  11  -8  -7    0.76    0.85
  11   8  -7    1.06    0.78
 -11  -8   7    1.58    0.76
 -11  -8   7    0.10    0.99
 -11   8   8    0.21    1.10
  11  -8  -8    0.79    0.87
  11   8  -8   -0.33    0.76
 -11  -8   8    0.01    0.71
 -11  -8   8   -0.20    1.01
 -11   8   9    4.27    1.04
 -11   8   9    3.15    1.30
  11  -8  -9    4.43    1.12
  11   8  -9    4.54    1.00
 -11  -8   9    5.49    0.98
 -11  -8   9    3.68    1.21
 -11   8  10    0.26    0.83
 -11   8  10    0.34    1.13
  11  -8 -10    0.58    0.93
  11   8 -10   -0.41    0.77
 -11  -8  10    0.03    0.72
 -11  -8  10   -0.11    1.03
 -11   8  11   16.73    2.24
  11  -8 -11   16.09    2.30
  11   8 -11   18.46    2.14
 -11  -8  11   20.41    2.14
 -11  -8  11   15.17    2.33
 -11   8  12    8.76    1.45
 -11   8  12    7.91    1.64
  11  -8 -12    8.90    1.54
  11   8 -12    7.72    1.29
 -11  -8  12    8.31    1.27
 -11  -8  12    7.88    1.51
 -11   9   1    5.95    0.92
 -11   9   1    3.58    1.29
  11  -9  -1    4.75    0.95
 -11  -9   1    6.99    1.06
 -11  -9   1    4.43    1.26
 -11   9   2   36.77    4.03
 -11   9   2   30.74    4.22
  11   9  -2   41.52    4.13
 -11  -9   2   42.06    4.11
 -11   9   3    0.85    0.67
 -11   9   3    0.27    1.09
  11   9  -3    0.93    0.81
 -11  -9   3    0.98    0.76
 -11  -9   3    1.58    1.06
 -11   9   4   14.34    1.80
 -11   9   4   10.81    2.04
  11  -9  -4   13.02    1.82
  11   9  -4   17.54    1.86
 -11  -9   4   16.61    1.83
 -11  -9   4   13.13    2.00
 -11   9   5    0.76    0.75
 -11   9   5    0.53    1.11
  11  -9  -5    0.65    0.79
  11   9  -5    1.61    0.81
 -11  -9   5    1.31    0.76
 -11  -9   5    0.37    1.04
 -11   9   6    2.86    1.25
  11  -9  -6    3.13    0.97
  11   9  -6    5.55    0.97
 -11  -9   6    3.50    0.90
 -11  -9   6    2.89    1.19
 -11   9   7    2.68    0.89
 -11   9   7    1.57    1.20
  11  -9  -7    1.57    0.92
  11   9  -7    2.37    0.86
 -11  -9   7    2.77    0.83
 -11  -9   7    1.80    1.12
 -11   9   8   29.94    3.69
 -11   9   8   32.12    3.92
  11  -9  -8   31.30    3.79
  11   9  -8   37.43    3.72
 -11  -9   8   38.24    3.70
 -11  -9   8   33.60    3.88
 -11   9   9    7.34    1.28
 -11   9   9    5.16    1.50
  11  -9  -9    6.11    1.35
  11   9  -9    7.82    1.22
 -11  -9   9    8.69    1.18
 -11  -9   9    5.81    1.42
 -11   9  10    8.34    1.38
 -11   9  10    8.44    1.63
  11  -9 -10    6.70    1.43
  11   9 -10    7.97    1.26
 -11  -9  10    8.41    1.23
 -11  -9  10    7.46    1.52
 -11   9  11    2.15    0.99
  11  -9 -11    1.94    1.08
  11   9 -11    2.88    0.89
 -11  -9  11    3.22    0.85
 -11  -9  11    2.15    1.18
 -11  10   1   24.64    2.80
 -11  10   1   23.26    3.12
 -11 -10   1   28.73    2.92
 -11 -10   1   26.20    3.09
 -11  10   2   37.06    3.82
 -11  10   2   28.58    4.04
  11 -10  -2   32.55    3.82
  11  10  -2   38.45    3.90
 -11 -10   2   40.62    3.89
 -11  10   3    4.92    0.91
 -11  10   3    4.65    1.37
  11 -10  -3    3.41    0.94
  11  10  -3    4.80    1.01
 -11 -10   3    3.79    0.95
 -11 -10   3    5.60    1.27
  11 -10  -4   12.28    1.79
  11  10  -4   14.38    1.81
 -11 -10   4   17.26    1.83
 -11 -10   4   12.68    1.99
 -11  10   5    7.77    1.27
 -11  10   5    6.76    1.58
  11 -10  -5    8.29    1.32
  11  10  -5    9.48    1.30
 -11 -10   5    8.64    1.27
 -11 -10   5    8.48    1.55
 -11  10   6    0.13    0.75
 -11  10   6   -0.13    1.17
  11 -10  -6    0.01    0.82
  11  10  -6    0.12    0.75
 -11 -10   6    0.25    0.73
 -11 -10   6   -0.54    1.10
 -11  10   7    6.27    1.16
 -11  10   7    3.51    1.44
  11 -10  -7    5.48    1.21
  11  10  -7    7.36    1.13
 -11 -10   7    7.43    1.10
 -11 -10   7    4.38    1.37
 -11  10   8   -0.21    0.81
 -11  10   8    0.28    1.19
  11 -10  -8    0.45    0.91
  11  10  -8    0.11    0.75
 -11 -10   8    0.06    0.71
 -11 -10   8    0.01    1.08
 -11  10   9    2.03    0.74
 -11  10   9    1.96    1.27
  11 -10  -9    1.22    1.00
  11  10  -9    1.81    0.83
 -11 -10   9    0.49    0.75
 -11 -10   9    1.22    1.15
 -11  10  10    0.29    0.85
 -11  10  10    0.49    1.20
  11 -10 -10    0.46    0.97
  11  10 -10    0.04    0.77
 -11 -10  10    0.41    0.74
 -11 -10  10   -0.06    1.07
 -11  11   1    9.58    1.16
 -11  11   1    6.27    1.57
  11 -11  -1    7.03    1.19
 -11 -11   1   10.81    1.34
 -11 -11   1    6.88    1.53
 -11  11   2    8.15    1.79
  11 -11  -2   10.43    1.49
  11  11  -2   12.78    1.58
 -11 -11   2   12.55    1.56
 -11  11   3    0.30    0.67
 -11  11   3   -0.14    1.17
  11 -11  -3    0.07    0.72
  11  11  -3    0.43    0.80
 -11 -11   3    0.40    0.73
 -11 -11   3    0.31    1.08
 -11  11   4    1.76    0.76
  11 -11  -4    1.07    0.81
  11  11  -4    2.51    0.85
 -11 -11   4    3.03    0.84
 -11 -11   4    2.33    1.15
 -11  11   5    0.39    0.74
 -11  11   5    0.96    1.20
  11 -11  -5    0.86    0.83
  11  11  -5    1.47    0.79
 -11 -11   5    1.39    0.78
 -11 -11   5    0.81    1.11
 -11  11   6   10.85    1.59
 -11  11   6    9.28    1.89
  11 -11  -6   10.24    1.63
  11  11  -6   12.39    1.59
 -11 -11   6   14.66    1.59
 -11 -11   6   10.91    1.85
 -11  11   7   19.33    2.34
 -11  11   7   15.24    2.53
  11 -11  -7   16.65    2.35
  11  11  -7   21.37    2.29
 -11 -11   7   22.66    2.27
 -11 -11   7   16.63    2.48
 -11  11   8   -0.01    0.80
 -11  11   8   -0.48    1.20
  11 -11  -8    0.01    0.91
  11  11  -8    0.43    0.77
 -11 -11   8   -0.05    0.71
 -11 -11   8   -0.34    1.11
 -11  12   1    1.38    0.61
 -11  12   1    0.40    1.20
  11 -12  -1    1.72    0.76
 -11 -12   1    1.85    0.80
 -11 -12   1    0.92    1.10
 -11  12   2    9.84    1.29
 -11  12   2    7.81    1.73
  11 -12  -2    8.71    1.39
  11  12  -2   10.81    1.45
 -11 -12   2   11.17    1.42
 -11  12   3    1.78    0.73
 -11  12   3    1.74    1.23
  11 -12  -3    1.85    0.88
  11  12  -3    2.74    0.89
 -11 -12   3    3.55    0.88
 -11 -12   3    1.66    1.17
  11  12  -4   14.44    1.81
 -11 -12   4   15.13    1.80
 -11 -12   4   12.46    2.05
 -11  12   5    0.32    0.74
 -11  12   5    0.13    1.17
  11 -12  -5    0.48    0.82
  11  12  -5    0.07    0.75
 -11 -12   5    0.43    0.73
 -11 -12   5   -0.08    1.10
 -10   0   1    0.09    0.55
 -10   0   1    0.22    0.78
 -10   0   2    9.98    1.37
 -10   0   2   13.10    1.57
 -10   0   3   -0.17    0.57
 -10   0   4    6.66    1.03
 -10   0   4    7.27    1.22
 -10   0   5    0.19    0.58
 -10   0   5    0.43    0.83
 -10   0   6  102.36   11.57
 -10   0   6  136.62   11.77
 -10   0   7    0.66    0.65
 -10   0   7    0.39    0.87
 -10   0   8   44.52    4.80
 -10   0   9    0.24    0.67
 -10   0   9    0.18    0.90
  10   0  -9   -0.21    0.71
 -10   0  10    3.36    0.90
  10   0 -10    4.26    0.94
 -10   0  11   -0.33    0.97
  10   0 -11    0.01    0.74
 -10   0  12  214.16   22.45
  10   0 -12  228.77   22.41
 -10   0  13    0.08    0.79
 -10   0  13   -0.28    0.91
  10   0 -13   -0.24    0.78
 -10   0  14   79.83    7.82
 -10   0  14   68.11    7.84
  10   0 -14   76.84    7.83
 -10   0  15    0.45    0.80
 -10   0  15    0.20    0.96
  10   0 -15    0.39    0.83
 -10   0  16    1.20    0.86
  10   0 -16    0.49    0.86
 -10   0  17   -0.30    0.85
 -10   0  17   -0.16    1.03
  10   0 -17    0.01    0.84
 -10   1   1    8.71    1.24
 -10   1   1   14.78    1.51
  10   1  -1    8.54    1.28
 -10  -1   1    7.93    1.24
 -10  -1   1   13.00    1.47
 -10   1   2  169.52   17.38
 -10   1   2  181.38   17.49
  10   1  -2  180.47   17.41
 -10  -1   2  169.80   17.38
 -10  -1   2  164.04   17.45
 -10   1   3    7.83    1.17
  10   1  -3    8.14    1.20
 -10  -1   3    8.27    1.18
 -10  -1   3   12.05    1.39
 -10   1   4  120.18   12.42
 -10   1   4  126.08   12.55
  10   1  -4  126.59   12.45
 -10  -1   4  119.70   12.42
 -10  -1   4  122.27   12.52
 -10   1   5   40.25    4.47
 -10   1   5   43.22    4.58
  10  -1  -5   43.07    4.51
  10   1  -5   43.88    4.50
 -10  -1   5   43.29    4.49
 -10  -1   5   41.99    4.58
 -10   1   6    3.39    0.78
 -10   1   6    5.01    1.06
  10  -1  -6    4.19    0.86
  10   1  -6    2.52    0.82
 -10  -1   6    3.71    0.83
 -10  -1   6    3.78    1.02
 -10   1   7   23.80    2.79
 -10   1   7   28.19    2.95
  10  -1  -7   26.95    2.84
 -10  -1   7   22.66    2.78
 -10  -1   7   26.89    2.93
 -10   1   8    4.22    0.88
 -10   1   8    4.54    1.11
  10  -1  -8    4.25    0.91
 -10  -1   8    4.28    0.90
 -10  -1   8    4.14    1.09
 -10   1   9   81.15    8.51
 -10  -1   9   84.23    8.43
 -10  -1   9   79.56    8.50
  10  -1 -10   41.97    4.50
  10   1 -10   42.29    4.50
 -10  -1  10   41.79    4.47
 -10   1  11   62.51    6.64
 -10   1  11   67.99    6.75
  10  -1 -11   64.72    6.67
  10   1 -11   60.75    6.64
 -10  -1  11   62.20    6.63
 -10  -1  11   65.96    6.73
 -10   1  12   49.73    4.94
 -10   1  12   42.75    4.98
  10  -1 -12   45.40    4.93
  10   1 -12   48.25    4.93
 -10  -1  12   53.18    4.95
 -10  -1  12   37.69    4.91
 -10   1  13   13.16    1.80
 -10   1  13   13.59    1.90
  10  -1 -13   13.82    1.83
  10   1 -13   14.94    1.82
 -10  -1  13   13.18    1.86
 -10   1  14   28.26    3.05
 -10   1  14   23.63    3.08
  10  -1 -14   28.43    3.08
  10   1 -14   26.70    3.03
 -10  -1  14   26.74    3.01
 -10  -1  14   25.49    3.08
 -10   1  15    3.82    1.01
 -10   1  15    1.85    1.07
  10  -1 -15    3.66    1.02
  10   1 -15    3.84    0.99
 -10  -1  15    3.31    0.97
 -10  -1  15    3.49    1.11
 -10   1  16    5.43    1.15
  10  -1 -16    4.57    1.14
  10   1 -16    5.14    1.11
 -10  -1  16    5.99    1.13
 -10   1  17    0.37    0.86
 -10   1  17    0.23    1.02
  10  -1 -17   -0.02    0.85
  10   1 -17   -0.12    0.84
 -10  -1  17   -0.35    0.83
 -10  -1  17   -0.81    1.05
 -10   2   1  102.61   10.66
 -10   2   1  104.94   10.77
  10  -2  -1  107.58   10.70
  10   2  -1  103.17   10.69
 -10  -2   1  102.04   10.67
 -10  -2   1  114.69   10.81
 -10   2   2    1.69    0.62
 -10   2   2    1.13    0.83
  10  -2  -2    1.32    0.65
  10   2  -2    1.12    0.65
 -10  -2   2    1.15    0.62
 -10  -2   2    0.59    0.82
 -10   2   3   17.64    2.01
  10  -2  -3   16.81    2.02
  10   2  -3   18.08    2.03
 -10  -2   3   18.43    2.03
 -10  -2   3   16.32    2.13
 -10   2   4    5.10    0.86
 -10   2   4    4.20    1.07
  10  -2  -4    4.91    0.92
  10   2  -4    5.16    0.92
 -10  -2   4    5.19    0.91
 -10  -2   4    4.18    1.06
 -10   2   5   17.84    2.09
 -10   2   5   18.92    2.24
  10  -2  -5   17.92    2.12
 -10  -2   5   18.68    2.23
 -10   2   6   18.91    2.22
 -10   2   6   20.16    2.37
  10  -2  -6   19.05    2.25
  10   2  -6   19.89    2.25
 -10  -2   6   20.43    2.23
 -10  -2   6   18.10    2.33
 -10   2   7   96.16    9.85
  10  -2  -7   94.95    9.78
  10   2  -7   93.17    9.75
 -10  -2   7   96.96    9.75
 -10  -2   7   96.04    9.84
 -10   2   8   13.01    1.93
  10  -2  -8   14.73    1.84
  10   2  -8   16.27    1.86
 -10  -2   8   17.08    1.85
 -10  -2   8   12.69    1.91
 -10   2   9   16.47    2.01
 -10   2   9   18.13    2.17
  10  -2  -9   16.98    2.04
 -10  -2   9   16.14    2.00
 -10  -2   9   16.77    2.13
 -10  -2  10    2.25    0.79
 -10   2  11    1.30    0.76
 -10   2  11    1.65    1.02
  10  -2 -11    1.52    0.82
 -10  -2  11    1.80    0.77
 -10  -2  11    1.69    1.00
 -10   2  12    4.29    0.96
 -10   2  12    2.51    1.15
  10  -2 -12    4.59    1.04
  10   2 -12    4.33    0.98
 -10  -2  12    5.84    0.99
 -10  -2  12    2.52    1.00
 -10   2  13   32.80    3.40
 -10   2  13   28.13    3.44
  10  -2 -13   29.30    3.41
  10   2 -13   29.71    3.36
 -10  -2  13   33.14    3.38
 -10  -2  13   28.50    3.42
 -10   2  14   48.23    4.95
 -10   2  14   40.44    4.96
  10  -2 -14   49.86    4.99
  10   2 -14   49.69    4.94
 -10  -2  14   41.62    4.95
 -10   2  15   13.71    1.74
 -10   2  15    9.33    1.74
  10  -2 -15   14.39    1.78
  10   2 -15   13.62    1.70
 -10  -2  15   10.52    1.74
 -10   2  16    8.31    1.43
  10  -2 -16    8.13    1.46
  10   2 -16    9.56    1.42
 -10  -2  16   10.31    1.42
 -10   2  17   11.11    1.56
 -10   2  17    8.09    1.59
  10   2 -17    9.79    1.48
 -10  -2  17   10.71    1.49
 -10  -2  17    9.19    1.61
 -10   3   1    0.82    0.35
 -10   3   1    0.61    0.83
  10  -3  -1    1.78    0.65
  10   3  -1    2.05    0.69
 -10  -3   1    2.54    0.70
 -10  -3   1    0.99    0.82
 -10   3   2    1.38    0.60
 -10   3   2    0.19    0.83
  10  -3  -2    0.98    0.65
  10   3  -2    1.81    0.68
 -10  -3   2    1.34    0.66
 -10  -3   2    1.37    0.84
 -10   3   3   30.95    3.53
  10  -3  -3   33.05    3.57
 -10  -3   3   37.66    3.69
 -10   3   4  183.08   19.65
 -10   3   4  199.67   19.80
  10  -3  -4  198.15   19.68
  10   3  -4  205.86   19.69
 -10  -3   4  190.52   19.65
 -10  -3   4  200.49   19.78
 -10   3   5    4.96    1.19
  10  -3  -5    6.37    1.04
  10   3  -5    6.88    1.06
 -10  -3   5    7.95    1.07
 -10  -3   5    4.70    1.16
 -10   3   6   75.15    7.75
  10  -3  -6   70.82    7.64
  10   3  -6   78.81    7.66
 -10  -3   6   75.74    7.63
 -10  -3   6   69.95    7.70
 -10   3   7    0.78    0.67
 -10   3   7    1.63    0.95
  10  -3  -7    1.41    0.72
  10   3  -7    0.53    0.72
 -10  -3   7    0.74    0.69
 -10  -3   7    1.81    0.94
 -10   3   8   15.05    1.92
 -10   3   8   17.05    2.09
  10  -3  -8   16.07    1.96
  10   3  -8   15.44    1.93
 -10  -3   8   16.30    1.92
 -10  -3   8   16.73    2.07
 -10   3   9    3.27    0.82
 -10   3   9    1.39    1.01
  10  -3  -9    3.16    0.89
  10   3  -9    2.51    0.83
 -10  -3   9    3.13    0.82
 -10  -3   9    1.78    0.99
 -10   3  10   26.77    2.97
  10  -3 -10   25.79    2.99
  10   3 -10   26.42    2.96
 -10  -3  10   26.03    2.93
 -10  -3  10   27.34    3.07
 -10   3  11    2.51    1.04
 -10  -3  11    2.48    0.82
 -10  -3  11    1.80    1.02
 -10   3  12   32.52    3.36
 -10   3  12   28.22    3.42
  10  -3 -12   29.95    3.37
 -10  -3  12   33.73    3.33
 -10  -3  12   25.02    3.33
 -10   3  13    7.96    1.30
 -10   3  13    7.80    1.42
  10  -3 -13    8.70    1.40
 -10  -3  13    9.01    1.29
 -10  -3  13    7.64    1.37
 -10   3  14   21.63    2.44
 -10   3  14   18.06    2.46
  10  -3 -14   20.34    2.47
  10   3 -14   20.26    2.38
 -10  -3  14   22.72    2.39
 -10  -3  14   17.10    2.43
 -10   3  15    0.61    0.83
 -10   3  15   -0.07    0.96
  10  -3 -15   -0.39    0.90
  10   3 -15    0.32    0.77
 -10  -3  15   -0.25    0.76
 -10  -3  15    0.06    0.91
 -10   3  16    3.86    1.07
  10   3 -16    4.07    0.99
 -10   3  17    0.30    0.88
 -10   3  17   -0.20    0.98
  10  -3 -17   -0.30    0.91
  10   3 -17    0.19    0.80
 -10  -3  17    0.67    0.81
 -10  -3  17    0.14    0.98
 -10   4   1    7.47    1.31
  10  -4  -1    7.77    1.13
 -10  -4   1    9.81    1.35
 -10   4   2    7.03    1.21
  10  -4  -2    7.46    1.05
  10   4  -2    6.19    1.06
 -10  -4   2    6.62    1.05
  10  -4  -3   38.93    4.09
  10   4  -3   38.23    4.10
 -10  -4   3   37.25    4.07
 -10  -4   3   40.54    4.21
 -10   4   4   76.89    8.19
  10  -4  -4   76.82    8.08
  10   4  -4   80.44    8.07
 -10  -4   4   79.34    8.06
 -10  -4   4   78.83    8.18
 -10   4   5    0.05    0.60
 -10   4   5    0.09    0.84
  10  -4  -5    0.17    0.64
  10   4  -5    0.06    0.68
 -10  -4   5    0.61    0.64
 -10  -4   5    0.15    0.84
 -10   4   6    0.24    0.63
 -10   4   6    0.76    0.89
  10  -4  -6    0.76    0.69
  10   4  -6    0.23    0.68
 -10  -4   6    0.44    0.67
 -10  -4   6    0.25    0.88
 -10   4   7   66.44    6.89
 -10   4   7   61.50    6.97
  10  -4  -7   69.53    6.92
  10   4  -7   69.49    6.89
 -10  -4   7   67.11    6.87
 -10  -4   7   63.19    6.96
 -10   4   8    8.86    1.33
 -10   4   8   11.22    1.56
  10  -4  -8    9.20    1.38
  10   4  -8    9.83    1.35
 -10  -4   8    8.48    1.31
 -10  -4   8   11.45    1.54
 -10   4   9   31.41    3.36
 -10   4   9   26.33    3.42
  10  -4  -9   29.61    3.37
  10   4  -9   31.24    3.34
 -10  -4   9   32.62    3.33
 -10  -4   9   30.49    3.44
 -10   4  10   63.61    6.81
  10  -4 -10   64.78    6.84
  10   4 -10   67.15    6.80
 -10  -4  10   70.54    6.79
 -10  -4  10   58.93    6.84
 -10   4  11   10.22    1.39
 -10   4  11    8.35    1.51
  10  -4 -11    8.17    1.40
  10   4 -11    9.76    1.35
 -10  -4  11    9.14    1.32
 -10  -4  11    7.87    1.49
 -10   4  12    2.17    1.10
  10   4 -12    2.27    0.85
 -10  -4  12    2.46    0.82
 -10  -4  12    1.46    0.93
 -10   4  13    1.11    0.79
 -10   4  13    0.92    0.92
  10  -4 -13    1.01    0.91
 -10  -4  13    1.36    0.78
 -10  -4  13    0.53    0.88
 -10   4  14    5.25    1.05
 -10   4  14    3.70    1.13
 -10  -4  14    4.11    0.97
 -10  -4  14    4.59    1.12
 -10   4  15    8.60    1.30
 -10   4  15    4.41    1.29
  10  -4 -15    6.47    1.31
  10   4 -15    7.74    1.20
 -10  -4  15    8.57    1.22
 -10  -4  15    4.91    1.27
 -10   4  16    0.68    1.04
  10  -4 -16    0.13    0.91
  10   4 -16   -0.02    0.75
 -10  -4  16    0.45    0.78
 -10   5   1   30.78    3.23
  10  -5  -1   24.91    3.04
  10   5  -1   29.18    3.10
 -10  -5   1   28.47    3.09
 -10  -5   1   31.27    3.22
 -10   5   2    0.88    0.86
  10  -5  -2    0.77    0.63
  10   5  -2    0.49    0.68
 -10  -5   2    0.79    0.67
 -10   5   3   37.49    4.15
  10  -5  -3   38.19    4.18
  10   5  -3   40.65    4.20
 -10  -5   3   40.90    4.19
 -10  -5   3   41.26    4.30
 -10   5   4    6.46    1.32
  10  -5  -4    8.11    1.17
  10   5  -4    8.16    1.18
 -10  -5   4    9.56    1.18
 -10  -5   4    6.20    1.29
 -10   5   5   97.08   10.02
 -10   5   5   94.03   10.14
  10  -5  -5   95.97   10.05
  10   5  -5  105.08   10.04
 -10  -5   5   97.73   10.00
 -10  -5   5   98.01   10.12
 -10   5   6   11.41    1.56
 -10   5   6    9.37    1.70
  10  -5  -6   12.42    1.61
  10   5  -6   13.73    1.61
 -10  -5   6   13.88    1.58
 -10  -5   6   12.44    1.73
 -10   5   7    2.33    0.79
 -10   5   7    1.47    1.00
  10  -5  -7    2.71    0.83
  10   5  -7    3.09    0.82
 -10  -5   7    3.16    0.81
 -10  -5   7    1.58    0.98
 -10   5   8   13.80    1.82
 -10   5   8   12.17    1.95
  10  -5  -8   15.70    1.88
  10   5  -8   15.77    1.83
 -10  -5   8   15.90    1.81
 -10  -5   8   13.33    1.93
 -10   5   9   75.90    7.60
 -10   5   9   65.29    7.64
  10  -5  -9   68.16    7.59
  10   5  -9   78.49    7.57
 -10  -5   9   78.50    7.55
 -10  -5   9   69.51    7.64
 -10   5  10    0.02    0.74
  10  -5 -10   -0.07    0.82
  10   5 -10    0.09    0.73
 -10  -5  10    0.40    0.70
 -10  -5  10   -0.07    0.93
 -10   5  11   28.28    3.12
 -10   5  11   22.62    3.16
  10  -5 -11   28.18    3.16
  10   5 -11   28.16    3.06
 -10  -5  11   32.47    3.07
 -10  -5  11   23.16    3.14
 -10   5  12   -0.22    0.78
 -10   5  12   -0.53    1.05
  10  -5 -12    0.33    0.88
  10   5 -12    0.58    0.77
 -10  -5  12    0.42    0.74
 -10  -5  12   -0.25    0.91
 -10   5  13    7.56    1.27
 -10   5  13    5.71    1.35
  10   5 -13    7.97    1.22
 -10  -5  13    8.25    1.20
 -10  -5  13    5.94    1.32
 -10   5  14    2.08    0.87
 -10   5  14    2.07    1.06
  10  -5 -14    0.94    0.93
  10   5 -14    0.65    0.77
 -10  -5  14    2.01    0.81
 -10  -5  14    1.49    0.99
 -10   5  15   31.64    4.18
  10  -5 -15   37.32    4.22
 -10  -5  15   45.91    4.12
 -10  -5  15   34.55    4.18
 -10   5  16    2.00    0.93
 -10   5  16    0.91    1.09
  10  -5 -16    1.42    1.00
 -10  -5  16    2.47    0.85
 -10   6   1   71.46    7.50
 -10   6   1   70.64    7.65
  10  -6  -1   74.89    7.52
  10   6  -1   76.25    7.56
 -10  -6   1   76.30    7.56
 -10  -6   1   69.24    7.64
 -10   6   2   10.33    1.26
 -10   6   2    9.51    1.51
  10  -6  -2    8.91    1.27
  10   6  -2   10.13    1.35
 -10  -6   2    9.69    1.32
 -10   6   3    5.16    0.87
  10  -6  -3    4.85    0.91
  10   6  -3    4.25    0.93
 -10  -6   3    5.38    0.93
 -10  -6   3    4.90    1.11
 -10   6   4    0.28    0.61
 -10   6   4    0.10    0.91
  10  -6  -4    0.13    0.66
  10   6  -4   -0.03    0.69
 -10  -6   4    0.44    0.67
 -10  -6   4    0.17    0.86
 -10   6   5   -0.27    0.38
 -10   6   5    0.04    0.92
  10  -6  -5    0.21    0.67
  10   6  -5    1.29    0.71
 -10  -6   5    0.17    0.64
 -10  -6   5    0.31    0.87
 -10   6   6   66.72    7.11
 -10   6   6   62.66    7.21
  10  -6  -6   69.92    7.15
  10   6  -6   70.29    7.11
 -10  -6   6   71.89    7.10
 -10  -6   6   69.44    7.23
 -10   6   7   31.77    3.52
 -10   6   7   28.54    3.62
  10  -6  -7   31.45    3.54
  10   6  -7   36.25    3.53
 -10  -6   7   33.63    3.48
 -10  -6   7   30.27    3.60
 -10   6   8   22.95    2.75
 -10   6   8   24.51    2.92
  10  -6  -8   27.18    2.83
  10   6  -8   24.27    2.74
 -10  -6   8   24.29    2.72
 -10  -6   8   23.40    2.86
 -10   6   9    3.40    0.92
 -10   6   9    1.92    1.12
  10  -6  -9    3.17    0.98
  10   6  -9    4.67    0.92
 -10  -6   9    4.71    0.90
 -10  -6   9    2.04    1.09
 -10   6  10    4.14    0.97
  10  -6 -10    3.13    1.02
  10   6 -10    4.70    0.94
 -10  -6  10    4.27    0.89
 -10  -6  10    2.54    1.10
 -10   6  11   19.58    2.40
 -10   6  11   17.35    2.49
  10   6 -11   21.28    2.33
 -10  -6  11   22.82    2.32
 -10  -6  11   16.42    2.44
 -10   6  12    2.38    0.92
 -10   6  12    3.09    1.18
  10  -6 -12    1.55    0.96
  10   6 -12    2.13    0.84
 -10  -6  12    2.73    0.83
 -10  -6  12    2.06    1.01
 -10   6  13    6.83    1.51
  10  -6 -13    8.95    1.53
  10   6 -13    9.51    1.37
 -10  -6  13   11.70    1.38
 -10  -6  13    8.06    1.50
 -10   6  14    2.52    1.16
  10  -6 -14    3.73    1.10
  10   6 -14    4.59    0.96
 -10  -6  14    3.48    0.92
 -10  -6  14    2.98    1.12
 -10   6  15    5.45    1.15
 -10   6  15    3.37    1.24
  10  -6 -15    4.61    1.21
  10   6 -15    4.84    1.02
 -10  -6  15    5.54    1.02
 -10  -6  15    4.52    1.23
 -10   7   1    0.12    0.52
 -10   7   1   -0.04    0.91
  10  -7  -1   -0.17    0.59
  10   7  -1    0.11    0.69
 -10  -7   1    1.15    0.69
 -10  -7   1    0.17    0.87
 -10   7   2   20.67    2.36
 -10   7   2   23.64    2.63
  10  -7  -2   19.96    2.38
  10   7  -2   22.63    2.44
 -10  -7   2   21.54    2.42
 -10   7   3    3.51    0.75
  10  -7  -3    3.64    0.80
  10   7  -3    2.63    0.83
 -10  -7   3    2.14    0.78
 -10  -7   3    3.65    1.06
 -10   7   4   33.90    3.66
 -10   7   4   30.30    3.81
  10  -7  -4   33.85    3.68
  10   7  -4   36.12    3.69
 -10  -7   4   36.69    3.68
 -10  -7   4   32.43    3.79
 -10   7   5    1.28    0.69
 -10   7   5    2.05    1.05
  10  -7  -5    2.03    0.77
  10   7  -5    1.73    0.75
 -10  -7   5    1.14    0.70
 -10  -7   5    2.55    1.00
 -10   7   6    8.34    1.44
  10  -7  -6    6.40    1.17
  10   7  -6    7.40    1.15
 -10  -7   6    7.29    1.11
 -10  -7   6    7.62    1.35
 -10   7   7    2.19    0.79
 -10   7   7    1.34    1.07
  10  -7  -7    2.85    0.88
  10   7  -7    2.18    0.80
 -10  -7   7    2.17    0.75
 -10  -7   7    3.25    1.04
 -10   7   8    6.75    1.16
 -10   7   8    6.18    1.39
  10  -7  -8    6.53    1.22
  10   7  -8    7.36    1.14
 -10  -7   8    7.32    1.10
 -10  -7   8    7.03    1.34
 -10   7   9    3.10    0.92
 -10   7   9    2.65    1.18
  10   7  -9    3.77    0.89
 -10  -7   9    4.33    0.86
 -10   7  10    3.91    0.99
  10  -7 -10    2.84    1.03
  10   7 -10    4.10    0.93
 -10  -7  10    4.65    0.92
 -10  -7  10    3.65    1.14
 -10   7  11    0.02    0.79
 -10   7  11    0.36    1.07
  10  -7 -11    0.51    0.88
  10   7 -11   -0.39    0.73
 -10  -7  11    0.59    0.72
 -10  -7  11    0.05    1.01
 -10   7  12    2.76    1.23
  10  -7 -12    3.90    1.10
  10   7 -12    3.70    0.90
 -10  -7  12    2.63    0.85
 -10  -7  12    3.97    1.10
 -10   7  13   33.78    3.60
 -10   7  13   24.47    3.57
  10  -7 -13   33.21    3.65
  10   7 -13   32.76    3.47
 -10  -7  13   35.56    3.46
 -10  -7  13   28.21    3.58
 -10   7  14    0.78    0.91
 -10   7  14    1.64    1.10
  10  -7 -14    0.72    1.01
  10   7 -14    1.77    0.80
 -10  -7  14    1.28    0.76
 -10  -7  14    1.47    1.04
 -10   7  15    0.41    0.85
 -10   7  15    0.25    1.08
  10  -7 -15    0.19    0.97
  10   7 -15    0.56    0.74
 -10  -7  15    0.58    0.75
 -10  -7  15   -0.49    1.02
 -10   8   1    1.47    0.59
 -10   8   1    0.62    1.02
  10  -8  -1    1.81    0.66
  10   8  -1    2.15    0.76
 -10  -8   1    1.90    0.74
 -10  -8   1    0.88    0.93
 -10   8   2   29.11    3.28
 -10   8   2   32.28    3.54
  10  -8  -2   29.67    3.31
  10   8  -2   32.22    3.35
 -10  -8   2   31.82    3.34
 -10   8   3    8.29    1.18
  10  -8  -3    8.12    1.22
  10   8  -3    9.33    1.27
 -10  -8   3    8.76    1.24
 -10  -8   3    8.54    1.45
 -10   8   4    8.12    1.20
 -10   8   4    7.72    1.49
  10  -8  -4    8.94    1.26
  10   8  -4    8.63    1.26
 -10  -8   4    9.54    1.24
 -10  -8   4    7.82    1.44
 -10   8   5    8.70    1.32
 -10   8   5    8.86    1.61
  10  -8  -5    9.13    1.37
  10   8  -5   10.69    1.37
 -10  -8   5   10.89    1.34
 -10  -8   5    9.33    1.55
 -10   8   6    4.56    0.91
 -10   8   6    3.54    1.20
  10  -8  -6    3.45    0.96
  10   8  -6    4.08    0.91
 -10  -8   6    3.91    0.86
 -10  -8   6    3.21    1.13
 -10   8   7   18.25    2.55
  10   8  -7   20.29    2.33
 -10  -8   7   22.13    2.32
 -10  -8   7   18.66    2.50
 -10   8   8    0.60    0.74
 -10   8   8    0.48    1.08
  10  -8  -8    0.25    0.81
  10   8  -8    0.40    0.72
 -10  -8   8    0.28    0.67
 -10  -8   8    0.72    0.99
 -10   8   9   -0.16    0.75
 -10   8   9   -0.16    1.07
  10  -8  -9   -0.10    0.83
  10   8  -9    0.07    0.70
 -10  -8   9    0.02    0.67
  10  -8 -10    7.86    1.42
  10   8 -10    8.84    1.28
 -10  -8  10    9.63    1.26
 -10  -8  10    6.97    1.46
 -10   8  11    1.57    0.87
 -10   8  11    0.34    1.11
  10  -8 -11    0.94    0.95
  10   8 -11    1.58    0.78
 -10  -8  11    1.43    0.75
 -10  -8  11    0.53    1.04
 -10   8  12    3.58    1.07
 -10   8  12    3.81    1.33
  10  -8 -12    4.72    1.20
  10   8 -12    4.62    0.96
 -10  -8  12    5.45    0.96
 -10  -8  12    3.17    1.13
 -10   8  13    0.19    0.87
 -10   8  13   -0.27    1.05
  10  -8 -13    0.61    1.01
  10   8 -13    0.75    0.75
 -10  -8  13    1.45    0.77
 -10  -8  13    1.10    1.03
 -10   8  14   13.08    1.80
 -10   8  14    9.54    1.82
  10  -8 -14   10.65    1.83
  10   8 -14   12.88    1.61
 -10  -8  14   13.96    1.59
 -10  -8  14   10.01    1.78
 -10   9   1    1.09    0.58
 -10   9   1    1.37    1.07
  10  -9  -1    1.53    0.66
  10   9  -1    1.46    0.76
 -10  -9   1    1.58    0.73
 -10  -9   1    1.75    1.00
 -10   9   2   -0.07    0.56
 -10   9   2    0.58    1.03
  10  -9  -2    0.76    0.66
  10   9  -2   -0.05    0.71
 -10  -9   2    0.44    0.70
 -10   9   3   14.95    1.80
  10  -9  -3   13.74    1.82
  10   9  -3   15.51    1.87
 -10  -9   3   15.86    1.85
 -10  -9   3   16.68    2.06
 -10   9   4    0.20    0.64
 -10   9   4   -0.10    1.05
  10  -9  -4    0.22    0.70
  10   9  -4    1.24    0.73
 -10  -9   4    1.04    0.69
 -10  -9   4   -0.20    0.96
 -10   9   5   11.34    1.55
 -10   9   5    8.82    1.80
  10   9  -5   14.45    1.60
 -10  -9   5   13.68    1.57
 -10  -9   5   10.04    1.75
 -10   9   6    0.14    0.69
 -10   9   6   -0.67    1.08
  10   9  -6    0.18    0.70
 -10  -9   6   -0.16    0.59
 -10  -9   6    0.11    1.00
 -10   9   7    3.20    0.88
 -10   9   7    1.04    1.16
  10  -9  -7    2.91    0.94
  10   9  -7    3.67    0.86
 -10  -9   7    3.14    0.74
 -10  -9   7    1.92    1.10
 -10   9   8    5.27    1.40
  10  -9  -8    5.82    1.20
  10   9  -8    7.46    1.10
 -10  -9   8    5.35    0.95
 -10  -9   8    6.10    1.34
 -10   9   9    3.35    0.94
 -10   9   9    2.79    1.25
  10  -9  -9    2.10    0.99
  10   9  -9    4.35    0.91
 -10  -9   9    2.94    0.75
 -10   9  10    1.39    0.87
 -10   9  10    1.17    1.19
  10  -9 -10    2.09    0.99
  10   9 -10    1.96    0.79
 -10  -9  10    1.20    0.64
 -10  -9  10    1.82    1.08
 -10   9  11   18.37    2.18
 -10   9  11   15.00    2.30
  10  -9 -11   15.75    2.20
  10   9 -11   18.77    2.04
 -10  -9  11   17.32    1.96
 -10  -9  11   12.94    2.19
 -10   9  12    2.12    0.97
 -10   9  12    1.60    1.27
  10  -9 -12    1.64    1.05
  10   9 -12    3.57    0.86
 -10  -9  12    2.95    0.73
 -10  -9  12    1.92    1.05
 -10   9  13   -0.24    0.88
 -10   9  13    0.59    1.12
  10  -9 -13    0.14    1.00
  10   9 -13    0.00    0.71
 -10  -9  13    0.00    0.98
 -10  10   1   40.80    5.36
  10  10  -1   55.22    5.26
 -10 -10   1   55.06    5.25
 -10 -10   1   44.28    5.35
 -10  10   2    3.06    0.72
 -10  10   2    3.28    1.22
  10 -10  -2    1.81    0.75
  10  10  -2    3.85    0.88
 -10 -10   2    2.58    0.82
 -10  10   3    9.56    1.38
  10  10  -3   11.65    1.48
 -10 -10   3   12.16    1.46
 -10 -10   3    9.38    1.67
 -10  10   4    3.03    0.81
 -10  10   4    1.65    1.21
  10  10  -4    3.42    0.88
 -10 -10   4    3.44    0.84
 -10 -10   4    2.46    1.14
 -10  10   5    4.52    0.91
 -10  10   5    2.38    1.24
  10 -10  -5    2.86    0.92
  10  10  -5    4.65    0.92
 -10 -10   5    4.36    0.82
 -10 -10   5    3.17    1.18
 -10  10   6   12.86    2.09
  10 -10  -6   13.62    1.88
  10  10  -6   17.69    1.85
 -10 -10   6   14.59    1.76
 -10 -10   6   13.71    2.03
 -10  10   7    1.39    0.78
 -10  10   7    1.20    1.17
  10 -10  -7    1.26    0.85
  10  10  -7    1.84    0.79
 -10 -10   7    1.23    0.64
 -10 -10   7    0.91    1.06
 -10  10   8    3.27    0.93
 -10  10   8    3.20    1.29
  10 -10  -8    3.23    1.03
  10  10  -8    2.94    0.87
 -10 -10   8    3.59    0.78
 -10 -10   8    3.70    1.21
 -10  10   9    4.49    1.40
  10 -10  -9    4.13    1.17
  10  10  -9    6.15    1.03
 -10 -10   9    5.56    0.93
 -10  10  10    1.03    0.86
  10 -10 -10    0.38    0.92
  10  10 -10    0.88    0.75
 -10 -10  10    0.53    0.59
 -10 -10  10    0.14    1.06
 -10  10  11   -0.29    0.89
 -10  10  11    0.20    1.17
  10 -10 -11   -0.33    0.98
  10  10 -11   -0.39    0.73
 -10 -10  11    0.01    0.58
 -10 -10  11   -0.29    1.10
 -10  11   1   65.36    6.70
 -10  11   1   51.58    6.91
  10  11  -1   72.46    6.81
 -10 -11   1   70.64    6.79
 -10 -11   1   62.27    6.94
 -10  11   2   40.81    4.35
 -10  11   2   29.49    4.54
  10  11  -2   44.77    4.44
 -10 -11   2   48.34    4.45
 -10  11   3    0.34    0.64
  10 -11  -3    0.31    0.68
  10  11  -3    0.69    0.75
 -10 -11   3    0.18    0.68
 -10 -11   3    0.29    1.03
 -10  11   4    2.05    1.26
  10 -11  -4    3.04    0.90
  10  11  -4    4.64    0.95
 -10 -11   4    6.24    0.94
 -10 -11   4    2.66    1.17
 -10  11   5    9.63    1.37
 -10  11   5    7.67    1.66
  10 -11  -5    8.98    1.40
  10  11  -5   10.54    1.38
 -10 -11   5   10.67    1.32
 -10 -11   5    9.12    1.63
 -10  11   6    2.39    0.82
 -10  11   6    1.58    1.19
  10 -11  -6    1.83    0.87
  10  11  -6    2.59    0.81
 -10 -11   6    2.19    0.69
 -10 -11   6    0.92    1.10
 -10  11   7    2.55    0.88
 -10  11   7    2.74    1.26
  10 -11  -7    2.26    0.94
  10  11  -7    1.59    0.81
 -10 -11   7    2.49    0.71
 -10 -11   7    3.90    1.21
 -10  11   8    2.95    0.92
 -10  11   8    1.18    1.22
  10 -11  -8    1.50    0.98
  10  11  -8    2.98    0.84
 -10 -11   8    2.98    0.73
 -10 -11   8    2.70    1.19
 -10  11   9    0.52    0.85
 -10  11   9    0.74    1.18
  10 -11  -9    0.43    0.95
  10  11  -9    0.74    0.74
 -10 -11   9    0.75    0.62
 -10  11  10   15.54    2.34
  10 -11 -10   15.94    2.23
 -10 -11  10   18.37    2.31
 -10  12   1   10.77    1.28
 -10  12   1   10.78    1.81
  10 -12  -1    8.73    1.32
  10  12  -1   10.70    1.44
 -10 -12   1   11.62    1.43
 -10 -12   1    8.94    1.66
 -10  12   2    4.95    1.48
  10 -12  -2    5.72    1.08
  10  12  -2    6.59    1.11
 -10 -12   2    7.42    1.11
 -10  12   3    4.04    1.40
  10 -12  -3    4.02    1.01
  10  12  -3    5.82    1.02
 -10 -12   3    6.03    1.00
 -10 -12   3    3.50    1.27
 -10  12   4   18.67    2.06
 -10  12   4   13.01    2.34
  10 -12  -4   13.88    2.05
  10  12  -4   20.37    2.10
 -10 -12   4   19.74    2.04
 -10 -12   4   15.35    2.29
 -10  12   5    3.62    0.87
 -10  12   5    3.30    1.32
  10 -12  -5    3.46    0.95
  10  12  -5    3.36    0.88
 -10 -12   5    3.05    0.77
 -10 -12   5    2.69    1.21
 -10  12   6    5.04    1.02
 -10  12   6    5.74    1.47
  10 -12  -6    4.21    1.07
  10  12  -6    4.83    0.97
 -10 -12   6    4.72    0.88
 -10 -12   6    4.31    1.31
 -10  12   7   17.24    2.25
 -10  12   7   13.99    2.47
  10 -12  -7   16.97    2.31
  10  12  -7   21.68    2.21
 -10 -12   7   20.07    2.14
 -10 -12   7   18.59    2.46
 -10  13   1    0.43    1.20
  10  13  -1    1.44    0.80
 -10 -13   1    1.62    0.76
 -10 -13   1    1.97    1.14
 -10  13   2    0.31    0.57
 -10  13   2    0.25    1.17
  10  13  -2    0.40    0.75
 -10 -13   2    0.72    0.72
 -10  13   3   24.60    2.81
 -10  13   3   18.79    3.11
  10  13  -3   28.94    2.89
 -10 -13   3   31.48    2.89
 -10 -13   3   20.16    3.06
 -10  13   4   -0.12    0.64
 -10  13   4    0.33    1.20
 -10 -13   4   -0.19    1.08
  -9   0   1  227.14   25.05
  -9   0   1  343.56   25.27
   9   0  -1  234.70   25.07
  -9   0   2    0.00    0.54
   9   0  -2    0.15    0.58
  -9   0   3  498.89   51.69
  -9   0   3  569.04   51.84
   9   0  -3  510.64   51.70
  -9   0   4    0.41    0.57
  -9   0   4    0.12    0.79
   9   0  -4    0.03    0.59
  -9   0   5   21.46    2.33
  -9   0   5   18.36    2.42
   9   0  -5   22.49    2.36
  -9   0   6   -0.04    0.57
  -9   0   6    0.18    0.79
   9   0  -6    0.01    0.60
  -9   0   7   14.01    1.69
  -9   0   7   14.71    1.82
   9   0  -7   13.53    1.70
  -9   0   8   -0.08    0.63
  -9   0   8    0.19    0.82
  -9   0   9   70.81    7.28
  -9   0   9   74.19    7.37
   9   0  -9   67.58    7.28
  -9   0  10    0.46    0.66
  -9   0  10   -0.46    0.85
  -9   0  11    2.73    0.79
  -9   0  11    1.07    0.94
  -9   0  12   -0.01    0.69
  -9   0  12   -0.40    0.83
   9   0 -12    0.13    0.71
  -9   0  13   32.49    3.51
  -9   0  13   30.91    3.55
   9   0 -13   32.03    3.52
  -9   0  14   -0.17    0.87
   9   0 -14    0.47    0.77
  -9   0  15   22.27    2.55
  -9   0  15   21.44    2.62
   9   0 -15   21.43    2.56
  -9   0  16    0.12    0.78
   9   0 -16   -0.23    0.78
  -9   0  17   14.53    1.86
  -9   0  17   12.28    1.93
   9   0 -17   15.44    1.91
  -9   0  18   -0.27    0.81
  -9   0  18   -0.16    1.01
   9   0 -18    0.07    0.82
  -9   1   1   89.31    9.27
  -9   1   1   99.42    9.38
   9  -1  -1   88.94    9.28
   9   1  -1   91.32    9.30
  -9  -1   1   89.35    9.27
  -9  -1   1   92.67    9.37
  -9   1   2    0.61    0.56
   9  -1  -2    0.54    0.59
   9   1  -2    0.52    0.60
  -9  -1   2    1.12    0.57
  -9   1   3   86.01    9.69
  -9   1   3  116.72    9.89
   9  -1  -3   91.84    9.72
   9   1  -3   92.78    9.72
  -9  -1   3   90.51    9.70
  -9  -1   3  115.23    9.87
  -9   1   4   28.68    3.16
  -9   1   4   34.72    3.31
   9  -1  -4   30.24    3.18
   9   1  -4   27.87    3.17
  -9  -1   4   27.99    3.15
  -9  -1   4   29.89    3.26
  -9   1   5  433.81   43.98
  -9   1   5  453.62   44.08
   9  -1  -5  440.12   43.98
   9   1  -5  440.97   43.98
  -9  -1   5  437.67   43.97
  -9  -1   5  440.67   44.05
  -9   1   6   48.03    5.14
  -9   1   6   50.24    5.23
   9  -1  -6   49.62    5.16
   9   1  -6   48.54    5.15
  -9  -1   6   49.72    5.15
  -9  -1   6   50.64    5.23
  -9   1   7    0.25    0.57
  -9   1   7    0.41    0.82
   9  -1  -7    0.21    0.63
  -9  -1   7    0.20    0.80
  -9   1   8    3.26    0.79
  -9   1   8    3.21    0.98
   9   1  -8    3.45    0.81
  -9  -1   8    3.54    0.79
  -9  -1   8    2.51    0.95
  -9   1   9   14.87    1.84
  -9   1   9   16.51    1.98
   9   1  -9   14.85    1.85
  -9  -1   9   15.09    1.83
  -9   1  10    1.49    0.73
  -9   1  10    1.85    0.95
   9  -1 -10    2.18    0.77
   9   1 -10    2.08    0.77
  -9  -1  10    1.94    0.75
  -9  -1  10    2.19    0.92
  -9   1  11   12.33    1.71
  -9   1  11   17.42    1.90
   9  -1 -11   13.20    1.75
   9   1 -11   13.48    1.74
  -9  -1  11   12.90    1.71
  -9  -1  11   15.42    1.87
  -9   1  12   50.40    5.42
   9  -1 -12   51.83    5.38
  -9  -1  12   50.38    5.34
  -9  -1  12   50.54    5.40
  -9   1  13  161.44   17.42
   9  -1 -13  178.77   17.42
   9   1 -13  169.27   17.38
  -9  -1  13  177.48   17.37
  -9  -1  13  170.14   17.43
  -9   1  14   45.77    4.83
  -9   1  14   43.39    4.88
   9  -1 -14   46.23    4.86
   9   1 -14   44.59    4.82
  -9  -1  14   45.79    4.81
  -9  -1  14   45.21    4.88
  -9   1  15    0.15    0.77
  -9   1  15   -0.26    0.92
   9  -1 -15    0.29    0.80
   9   1 -15    0.24    0.77
  -9  -1  15   -0.09    0.90
  -9   1  16    0.81    0.82
   9  -1 -16    0.89    0.86
   9   1 -16    1.38    0.83
  -9   1  17    9.41    1.49
  -9   1  17    9.70    1.61
   9  -1 -17   10.39    1.54
   9   1 -17   11.14    1.52
  -9  -1  17   10.00    1.47
  -9  -1  17    9.46    1.61
  -9   1  18    0.31    0.84
  -9   1  18   -0.11    0.98
   9  -1 -18   -0.23    0.85
   9   1 -18   -0.34    0.82
  -9  -1  18    0.10    0.80
  -9  -1  18    0.04    1.02
  -9   2   1    2.23    0.61
  -9   2   1    0.77    0.80
   9  -2  -1    1.59    0.61
   9   2  -1    2.06    0.65
  -9  -2   1    2.06    0.62
  -9  -2   1    1.11    0.79
  -9   2   2  323.95   33.21
  -9   2   2  368.37   33.35
   9  -2  -2  324.26   33.22
   9   2  -2  330.13   33.23
  -9  -2   2  330.34   33.22
  -9   2   3    2.89    0.68
  -9   2   3    4.10    0.94
   9  -2  -3    2.33    0.70
   9   2  -3    2.88    0.72
  -9  -2   3    1.79    0.69
  -9  -2   3    3.59    0.91
  -9   2   4   55.34    6.30
  -9   2   4   85.13    6.54
   9  -2  -4   57.58    6.32
   9   2  -4   57.81    6.32
  -9  -2   4   55.04    6.30
  -9  -2   4   77.76    6.49
  -9   2   5    5.07    0.88
  -9   2   5    8.39    1.16
   9  -2  -5    4.60    0.92
   9   2  -5    5.42    0.93
  -9  -2   5    4.43    0.91
  -9  -2   5    7.83    1.15
  -9   2   6   25.71    3.03
  -9   2   6   29.96    3.16
   9   2  -6   26.57    3.04
  -9  -2   6   32.33    3.17
  -9   2   7    3.56    0.81
  -9   2   7    4.21    1.03
   9   2  -7    4.08    0.86
  -9  -2   7    4.44    0.85
  -9  -2   7    4.88    1.03
  -9   2   8    0.76    0.64
  -9   2   8    2.67    0.92
   9  -2  -8    1.03    0.69
   9   2  -8    0.42    0.67
  -9  -2   8    0.48    0.63
  -9  -2   8    2.07    0.88
  -9   2   9   11.82    1.52
  -9   2   9   13.03    1.68
   9  -2  -9   11.84    1.55
   9   2  -9   11.01    1.52
  -9  -2   9   11.82    1.51
  -9   2  10   62.59    6.74
   9  -2 -10   60.43    6.68
   9   2 -10   70.14    6.70
  -9  -2  10   64.93    6.66
  -9  -2  10   63.27    6.72
  -9   2  11    9.52    1.60
   9  -2 -11   11.80    1.53
   9   2 -11   11.33    1.49
  -9  -2  11   13.61    1.50
  -9  -2  11    8.10    1.55
  -9   2  12  110.64   10.86
  -9   2  12   94.94   10.87
   9  -2 -12  108.57   10.88
   9   2 -12  107.25   10.84
  -9  -2  12  118.29   10.85
  -9  -2  12   94.53   10.86
  -9   2  13    5.20    1.02
  -9   2  13    3.92    1.12
   9  -2 -13    5.16    1.07
  -9  -2  13    5.85    1.01
  -9  -2  13    4.38    1.08
  -9   2  14   46.59    4.92
  -9   2  14   44.70    4.96
   9  -2 -14   47.42    4.96
  -9  -2  14   46.79    4.89
  -9  -2  14   44.32    4.95
  -9   2  15   23.52    2.62
  -9   2  15   18.87    2.62
   9  -2 -15   23.13    2.64
   9   2 -15   21.86    2.57
  -9  -2  15   24.96    2.59
  -9  -2  15   20.37    2.62
  -9   2  16   23.93    2.92
   9  -2 -16   26.49    2.98
   9   2 -16   26.37    2.91
  -9  -2  16   27.65    2.91
  -9  -2  16   22.74    2.94
  -9   2  17    3.12    0.97
  -9   2  17    1.58    1.05
   9  -2 -17    1.83    0.94
   9   2 -17    2.73    0.91
  -9  -2  17    2.53    1.06
  -9   2  18    3.43    1.01
  -9   2  18    1.55    1.06
   9  -2 -18    3.03    1.03
   9   2 -18    3.26    0.95
  -9  -2  18    3.73    0.94
  -9  -2  18    2.50    1.10
  -9   3   1   93.41   13.05
  -9   3   1  152.97   13.28
   9  -3  -1  139.51   13.14
   9   3  -1  145.75   13.16
  -9  -3   1  144.16   13.15
  -9  -3   1  150.32   13.27
  -9   3   2   40.45    4.23
  -9   3   2   45.69    4.38
   9  -3  -2   40.45    4.25
   9   3  -2   40.44    4.25
  -9  -3   2   37.61    4.23
  -9   3   3   12.17    1.37
  -9   3   3    9.20    1.50
   9   3  -3   11.28    1.39
  -9  -3   3   12.29    1.39
  -9  -3   3    8.85    1.47
  -9   3   4    4.59    0.76
  -9   3   4    2.57    0.93
  -9  -3   4    3.49    0.93
  -9   3   5   31.20    3.55
  -9   3   5   37.99    3.71
   9   3  -5   31.37    3.56
  -9  -3   5   31.18    3.55
  -9  -3   5   40.06    3.70
  -9   3   6   54.00    5.78
  -9   3   6   55.65    5.88
   9  -3  -6   54.86    5.80
   9   3  -6   58.06    5.80
  -9  -3   6   56.99    5.78
  -9  -3   6   54.67    5.86
  -9   3   7   33.82    3.71
  -9   3   7   31.79    3.79
   9  -3  -7   34.99    3.73
   9   3  -7   36.42    3.72
  -9  -3   7   36.47    3.71
  -9  -3   7   33.93    3.79
  -9   3   8    7.41    1.19
  -9   3   8    9.14    1.38
   9  -3  -8    8.50    1.23
   9   3  -8    8.47    1.20
  -9  -3   8    8.46    1.19
  -9  -3   8    8.24    1.34
  -9   3   9   -0.27    0.88
   9  -3  -9    0.14    0.68
   9   3  -9   -0.09    0.66
  -9  -3   9    0.39    0.63
  -9   3  10    3.59    0.90
   9  -3 -10    4.02    0.95
   9   3 -10    4.92    0.92
  -9  -3  10    5.07    0.91
  -9  -3  10    3.62    1.06
  -9   3  11   18.75    2.21
  -9   3  11   17.51    2.30
   9   3 -11   19.86    2.20
  -9  -3  11   19.42    2.18
  -9  -3  11   16.96    2.28
  -9   3  12   31.14    3.55
  -9   3  12   29.47    3.59
   9  -3 -12   34.94    3.62
   9   3 -12   35.95    3.57
  -9  -3  12   34.31    3.54
  -9  -3  12   29.05    3.57
  -9   3  13    1.87    0.83
  -9   3  13    4.43    1.04
   9  -3 -13    3.52    0.96
   9   3 -13    2.14    0.83
  -9  -3  13    2.26    0.82
  -9  -3  13    4.05    0.98
  -9   3  14    3.97    0.99
  -9   3  14    4.18    1.11
   9  -3 -14    4.58    1.07
   9   3 -14    4.39    0.98
  -9  -3  14    5.53    1.00
  -9  -3  14    4.70    1.09
  -9   3  15    1.22    0.84
  -9   3  15    2.45    0.98
   9  -3 -15    1.41    0.88
  -9  -3  15    1.45    0.78
  -9  -3  15    1.89    0.94
  -9   3  16    1.38    0.90
   9  -3 -16    1.91    0.94
  -9  -3  16    2.04    0.82
  -9  -3  16    1.84    0.98
  -9   3  17    0.96    0.90
  -9   3  17    0.58    0.97
   9   3 -17    0.23    0.75
  -9  -3  17    1.07    0.79
  -9  -3  17    0.67    0.96
  -9   3  18    0.01    0.87
  -9   3  18    0.09    1.01
   9  -3 -18   -0.27    0.87
   9   3 -18   -0.10    0.75
  -9  -3  18   -0.35    0.98
  -9   4   1   72.12    7.65
  -9   4   1   71.36    7.77
  -9  -4   1   80.55    7.71
  -9  -4   1   76.93    7.77
  -9   4   2    9.30    1.31
  -9   4   2   14.42    1.57
   9   4  -2   10.92    1.39
  -9   4   3    0.40    0.40
  -9   4   3    1.82    0.84
   9   4  -3    2.26    0.68
  -9  -4   3    3.05    0.68
  -9  -4   3    2.04    0.83
  -9   4   4    6.71    0.96
  -9   4   4    6.76    1.17
   9  -4  -4    6.01    0.98
   9   4  -4    6.42    1.00
  -9  -4   4    6.20    0.93
  -9  -4   4    6.05    1.14
  -9   4   5    0.04    0.55
  -9   4   5    0.80    0.81
   9  -4  -5    0.19    0.60
   9   4  -5    0.56    0.63
  -9  -4   5    0.13    0.52
  -9  -4   5    0.32    0.79
  -9   4   6    0.52    0.59
  -9   4   6   -0.15    0.83
   9  -4  -6    0.40    0.63
   9   4  -6    0.18    0.63
  -9  -4   6    0.33    0.53
  -9  -4   6    0.11    0.81
  -9   4   7    4.67    1.12
   9  -4  -7    5.99    1.00
   9   4  -7    6.11    0.98
  -9  -4   7    5.43    0.88
  -9  -4   7    5.34    1.12
  -9   4   8    1.45    0.90
   9  -4  -8    0.79    0.71
   9   4  -8    0.99    0.69
  -9  -4   8    1.21    0.67
  -9  -4   8    0.99    0.87
  -9   4   9  122.74   12.75
  -9   4   9  116.60   12.81
   9  -4  -9  123.89   12.78
   9   4  -9  131.06   12.74
  -9  -4   9  130.34   12.72
  -9   4  10    0.30    0.68
   9  -4 -10    0.67    0.77
   9   4 -10    0.91    0.71
  -9  -4  10    0.54    0.67
  -9  -4  10    1.55    0.91
  -9   4  11   95.98    9.82
  -9   4  11   93.87    9.89
   9  -4 -11   93.45    9.85
   9   4 -11  102.19    9.81
  -9  -4  11   95.77    9.77
  -9  -4  11   91.07    9.85
  -9   4  12    5.25    1.16
   9   4 -12    5.86    1.06
  -9  -4  12    6.00    1.04
  -9  -4  12    6.98    1.20
  -9   4  13    0.23    0.75
  -9   4  13    1.47    0.91
   9  -4 -13    0.83    0.85
   9   4 -13    0.86    0.73
  -9  -4  13    2.01    0.77
  -9  -4  13    1.40    0.89
  -9   4  14    0.10    0.76
  -9   4  14    0.31    0.89
   9  -4 -14    0.31    0.83
   9   4 -14    0.27    0.71
  -9  -4  14    0.75    0.73
  -9  -4  14    0.20    0.84
  -9   4  15    0.50    0.79
  -9   4  15    0.58    0.94
   9  -4 -15    0.22    0.85
   9   4 -15    0.20    0.73
  -9  -4  15    0.22    0.72
  -9  -4  15    0.17    0.86
  -9   4  16    3.57    1.03
   9   4 -16    3.76    0.94
  -9  -4  16    4.28    0.93
  -9  -4  16    2.98    1.07
  -9   4  17    5.97    1.18
  -9   4  17    3.35    1.22
   9  -4 -17    5.11    1.18
  -9  -4  17    6.14    1.05
  -9  -4  17    3.73    1.18
  -9   5   1  107.71   10.55
  -9   5   1   93.97   10.66
   9  -5  -1  107.23   10.57
   9   5  -1  108.15   10.60
  -9  -5   1  110.73   10.60
  -9  -5   1   92.43   10.64
  -9   5   2  117.16   11.98
  -9   5   2  122.11   12.14
   9  -5  -2  114.69   11.99
   9   5  -2  121.65   12.01
  -9  -5   2  118.95   12.01
  -9   5   3   17.87    2.00
  -9   5   3   16.50    2.17
   9  -5  -3   19.01    2.03
   9   5  -3   18.04    2.04
  -9  -5   3   17.57    2.00
  -9  -5   3   16.59    2.13
  -9   5   4   15.02    2.05
   9  -5  -4   14.73    1.90
   9   5  -4   19.26    1.96
  -9  -5   4   16.10    1.88
  -9  -5   4   18.06    2.06
  -9   5   5    1.22    0.88
   9  -5  -5    0.88    0.64
   9   5  -5    0.66    0.65
  -9  -5   5    0.34    0.53
  -9  -5   5    0.67    0.81
  -9   5   6    1.28    0.90
   9  -5  -6    0.78    0.67
   9   5  -6    0.63    0.66
  -9  -5   6    0.47    0.55
  -9  -5   6    1.03    0.84
  -9   5   7   34.15    3.67
  -9   5   7   30.60    3.76
   9  -5  -7   35.10    3.70
   9   5  -7   38.68    3.69
  -9  -5   7   33.40    3.63
  -9  -5   7   32.18    3.74
  -9   5   8    0.45    0.65
  -9   5   8    1.99    0.96
   9  -5  -8    0.46    0.72
   9   5  -8    0.92    0.69
  -9  -5   8    0.73    0.56
  -9  -5   8    1.16    0.88
  -9   5   9    7.58    1.17
  -9   5   9    9.00    1.39
   9  -5  -9    7.36    1.22
   9   5  -9    8.07    1.17
  -9  -5   9    6.55    1.06
  -9   5  10    8.80    1.34
   9  -5 -10   10.22    1.44
   9   5 -10    9.78    1.33
  -9  -5  10    9.57    1.26
  -9  -5  10    8.76    1.46
  -9   5  11   -0.29    0.72
  -9   5  11    0.13    0.95
   9  -5 -11   -0.14    0.81
   9   5 -11    0.44    0.70
  -9  -5  11   -0.17    0.67
  -9  -5  11    0.03    0.93
  -9   5  12   55.74    5.88
  -9   5  12   49.60    5.90
   9  -5 -12   53.44    5.90
   9   5 -12   60.81    5.84
  -9  -5  12   57.53    5.81
  -9  -5  12   54.44    5.91
  -9   5  13    3.11    1.08
   9  -5 -13    2.97    1.02
   9   5 -13    4.20    0.92
  -9  -5  13    4.88    0.91
  -9  -5  13    3.12    1.06
  -9   5  14    3.01    0.92
  -9   5  14    2.61    1.06
   9   5 -14    2.54    0.83
  -9  -5  14    3.12    0.84
  -9  -5  14    1.80    0.99
  -9   5  15    7.55    1.36
  -9   5  15    5.91    1.43
   9  -5 -15    8.91    1.45
   9   5 -15   10.07    1.31
  -9  -5  15    9.51    1.29
  -9  -5  15    7.73    1.43
  -9   5  16    1.68    0.91
   9  -5 -16    1.38    0.94
   9   5 -16    0.51    0.74
  -9  -5  16    1.50    0.77
  -9  -5  16    1.58    0.98
  -9   5  17   12.40    2.02
   9  -5 -17   14.08    2.00
   9   5 -17   16.07    1.86
  -9  -5  17   15.49    1.83
  -9  -5  17   13.02    1.96
  -9   6   1   25.12    2.92
  -9   6   1   33.28    3.19
   9  -6  -1   27.16    2.95
   9   6  -1   27.99    3.01
  -9  -6   1   24.32    2.97
  -9  -6   1   35.41    3.17
  -9   6   2   22.73    2.59
   9  -6  -2   20.89    2.39
   9   6  -2   23.36    2.45
  -9  -6   2   20.93    2.40
   9  -6  -3  186.16   17.89
   9   6  -3  177.29   17.88
  -9  -6   3  168.12   17.86
  -9  -6   3  181.30   18.01
  -9   6   4   13.05    1.52
  -9   6   4   12.20    1.71
   9  -6  -4   12.14    1.53
   9   6  -4   12.76    1.54
  -9  -6   4   11.65    1.48
  -9  -6   4   11.91    1.67
  -9   6   5    0.09    0.85
   9  -6  -5    0.12    0.64
   9   6  -5    0.57    0.66
  -9  -6   5   -0.10    0.52
  -9  -6   5    1.00    0.86
  -9   6   6   13.86    1.65
  -9   6   6   13.78    1.85
   9  -6  -6   13.10    1.68
   9   6  -6   13.72    1.66
  -9  -6   6   13.08    1.60
  -9  -6   6   13.48    1.80
  -9   6   7   15.87    1.87
  -9   6   7   19.94    2.10
   9  -6  -7   16.46    1.92
   9   6  -7   14.55    1.84
  -9  -6   7   13.09    1.78
  -9  -6   7   16.62    2.01
  -9   6   8    4.55    0.95
  -9   6   8    4.93    1.19
   9  -6  -8    4.76    1.03
   9   6  -8    5.43    0.95
  -9  -6   8    5.69    0.88
  -9  -6   8    5.28    1.13
  -9   6   9   23.82    2.74
  -9   6   9   24.16    2.88
   9  -6  -9   22.69    2.78
   9   6  -9   26.67    2.73
  -9  -6   9   23.81    2.66
  -9   6  10    8.26    1.24
   9  -6 -10    6.88    1.27
   9   6 -10    7.87    1.18
  -9  -6  10    7.28    1.08
  -9  -6  10    8.40    1.37
  -9   6  11   22.41    2.59
  -9   6  11   20.19    2.70
   9  -6 -11   21.79    2.63
   9   6 -11   23.42    2.53
  -9  -6  11   22.14    2.47
  -9  -6  11   22.41    2.67
  -9   6  12   59.32    6.18
  -9   6  12   50.63    6.19
   9  -6 -12   55.97    6.20
   9   6 -12   67.57    6.14
  -9  -6  12   62.68    6.08
  -9  -6  12   51.85    6.16
  -9   6  13    2.53    0.91
  -9   6  13    1.24    1.02
   9   6 -13    2.19    0.80
  -9  -6  13    1.72    0.77
  -9  -6  13    1.77    0.98
  -9   6  14    5.71    1.14
  -9   6  14    4.33    1.23
   9  -6 -14    5.65    1.21
   9   6 -14    5.57    1.04
  -9  -6  14    6.47    1.03
  -9  -6  14    4.27    1.19
  -9   6  15    2.26    1.11
   9  -6 -15    1.97    1.00
   9   6 -15    3.22    0.85
  -9  -6  15    3.19    0.84
  -9  -6  15    3.46    1.10
  -9   6  16    3.18    1.00
   9  -6 -16    4.43    1.16
   9   6 -16    3.62    0.92
  -9  -6  16    4.43    0.93
  -9  -6  16    3.26    1.13
  -9   7   1  106.83   10.28
   9  -7  -1   96.12   10.06
   9   7  -1   99.82   10.10
  -9  -7   1   98.26   10.10
  -9  -7   1   98.57   10.22
  -9   7   2   50.80    5.36
  -9   7   2   55.79    5.56
   9  -7  -2   53.52    5.39
   9   7  -2   55.63    5.42
  -9  -7   2   46.33    5.37
  -9   7   3   27.63    2.95
   9  -7  -3   25.14    2.95
   9   7  -3   29.45    3.00
  -9  -7   3   26.83    2.95
  -9  -7   3   28.53    3.12
  -9   7   4    6.92    1.06
  -9   7   4    8.71    1.37
   9  -7  -4    6.67    1.09
   9   7  -4    7.15    1.10
  -9  -7   4    7.12    1.04
  -9  -7   4    8.80    1.32
  -9   7   5    8.62    1.24
  -9   7   5    9.38    1.52
   9  -7  -5   10.01    1.31
   9   7  -5   10.03    1.28
  -9  -7   5    8.35    1.20
  -9  -7   5    9.99    1.47
  -9   7   6   -0.58    0.45
  -9   7   6    0.76    0.95
   9  -7  -6    0.61    0.72
   9   7  -6    1.03    0.68
  -9  -7   6    0.76    0.55
  -9  -7   6    0.72    0.89
  -9   7   7   19.13    2.34
  -9   7   7   17.85    2.49
   9  -7  -7   21.61    2.41
   9   7  -7   22.08    2.34
  -9  -7   7   21.09    2.29
  -9  -7   7   19.95    2.47
  -9   7   8    3.58    0.91
  -9   7   8    4.39    1.20
   9  -7  -8    4.94    1.00
   9   7  -8    4.66    0.90
  -9  -7   8    4.70    0.81
  -9  -7   8    3.78    1.12
  -9   7   9    0.16    0.71
  -9   7   9    0.63    1.01
   9  -7  -9   -0.07    0.78
   9   7  -9    0.22    0.67
  -9  -7   9    0.07    0.55
  -9   7  10   12.91    1.73
   9  -7 -10   11.95    1.77
   9   7 -10   14.38    1.67
  -9  -7  10   12.88    1.59
  -9  -7  10   13.65    1.84
  -9   7  11   33.49    3.60
  -9   7  11   26.06    3.64
   9   7 -11   35.96    3.52
  -9  -7  11   33.31    3.47
  -9  -7  11   30.60    3.63
  -9   7  12    0.15    0.79
  -9   7  12    0.89    1.10
   9  -7 -12    0.05    0.88
   9   7 -12    0.18    0.71
  -9  -7  12    0.82    0.60
  -9  -7  12   -0.06    0.88
  -9   7  13   27.92    3.86
   9  -7 -13   34.89    3.91
   9   7 -13   38.34    3.76
  -9  -7  13   37.64    3.72
  -9  -7  13   31.56    3.85
  -9   7  14   -0.48    1.04
   9  -7 -14    0.13    0.91
   9   7 -14    0.27    0.72
  -9  -7  14    0.23    0.60
  -9  -7  14   -0.58    0.97
  -9   7  15    0.81    0.82
  -9   7  15    1.60    1.09
   9  -7 -15    1.28    0.98
   9   7 -15    1.42    0.74
  -9  -7  15    0.73    0.64
  -9   7  16    0.25    0.85
   9  -7 -16    1.87    1.05
   9   7 -16    1.14    0.75
  -9  -7  16    1.24    0.75
  -9  -7  16    1.55    1.07
  -9   8   1   58.75    6.36
  -9   8   1   56.40    6.55
   9  -8  -1   63.05    6.40
   9   8  -1   65.83    6.45
  -9  -8   1   66.32    6.44
  -9  -8   1   62.73    6.55
  -9   8   2   60.21    6.30
  -9   8   2   65.75    6.53
   9  -8  -2   65.52    6.35
   9   8  -2   61.64    6.35
  -9  -8   2   56.45    6.32
  -9   8   3   29.96    3.17
   9  -8  -3   28.52    3.19
   9   8  -3   31.28    3.22
  -9  -8   3   29.77    3.18
  -9  -8   3   27.66    3.32
  -9   8   4    0.06    0.59
  -9   8   4    0.19    0.96
   9  -8  -4    0.23    0.66
   9   8  -4    0.39    0.65
  -9  -8   4    0.17    0.54
  -9  -8   4   -0.18    0.88
  -9   8   5   58.16    6.24
  -9   8   5   57.46    6.41
   9  -8  -5   57.91    6.27
   9   8  -5   66.35    6.27
  -9  -8   5   62.07    6.23
  -9  -8   5   57.78    6.36
  -9   8   6    9.52    1.34
  -9   8   6    8.64    1.58
   9  -8  -6    9.17    1.38
   9   8  -6   10.72    1.35
  -9  -8   6   11.30    1.29
  -9  -8   6    7.95    1.50
  -9   8   7    0.15    1.01
   9  -8  -7    0.16    0.75
   9   8  -7    0.90    0.69
  -9  -8   7    1.00    0.57
  -9  -8   7    0.22    0.92
  -9   8   8    6.77    1.13
  -9   8   8    7.08    1.40
   9  -8  -8    5.35    1.17
   9   8  -8    7.36    1.09
  -9  -8   8    7.48    1.01
  -9  -8   8    6.14    1.30
  -9   8   9    1.89    0.79
  -9   8   9    1.65    1.10
   9   8  -9    1.73    0.74
  -9  -8   9    1.71    0.63
  -9   8  10   22.51    2.56
   9  -8 -10   21.42    2.60
   9   8 -10   22.60    2.46
  -9  -8  10   20.52    2.40
  -9  -8  10   21.59    2.65
  -9   8  11    7.65    1.33
  -9   8  11    6.37    1.49
   9  -8 -11    6.73    1.36
   9   8 -11    9.34    1.23
  -9  -8  11    9.37    1.15
  -9  -8  11    6.98    1.43
  -9   8  12    2.36    1.17
   9  -8 -12    1.81    0.97
   9   8 -12    1.94    0.76
  -9  -8  12    1.84    0.66
  -9  -8  12    1.86    0.98
  -9   8  13    0.35    0.82
  -9   8  13    0.54    1.05
   9  -8 -13    0.22    0.92
   9   8 -13    0.27    0.70
  -9  -8  13    0.13    0.56
  -9  -8  13   -0.09    0.92
  -9   8  14   16.87    2.17
  -9   8  14   13.06    2.22
   9  -8 -14   16.67    2.25
   9   8 -14   18.47    2.01
  -9  -8  14   18.00    1.95
  -9  -8  14   14.35    2.17
  -9   8  15    0.74    1.12
  -9   9   1    0.84    0.53
  -9   9   1    1.71    1.05
   9  -9  -1    1.14    0.60
   9   9  -1    1.49    0.70
  -9  -9   1    1.02    0.61
  -9  -9   1    1.08    0.92
  -9   9   2   13.69    1.62
  -9   9   2   13.20    1.93
   9  -9  -2   12.24    1.64
   9   9  -2   14.92    1.71
  -9  -9   2   15.06    1.67
  -9   9   3    2.81    0.71
   9  -9  -3    2.39    0.74
   9   9  -3    2.94    0.80
  -9  -9   3    2.36    0.68
  -9  -9   3    3.12    1.02
  -9   9   4    0.65    0.62
  -9   9   4   -0.08    1.00
   9  -9  -4    0.12    0.66
   9   9  -4    1.43    0.72
  -9  -9   4    0.68    0.56
  -9  -9   4    0.47    0.92
  -9   9   5   -0.02    0.62
  -9   9   5    1.40    1.07
   9  -9  -5    0.57    0.70
   9   9  -5   -0.33    0.66
  -9  -9   5    0.41    0.56
  -9  -9   5    0.71    0.95
  -9   9   6   41.36    4.51
  -9   9   6   36.80    4.66
   9  -9  -6   39.22    4.53
   9   9  -6   47.09    4.51
  -9  -9   6   45.17    4.48
  -9  -9   6   42.93    4.65
  -9   9   7   12.93    1.56
  -9   9   7    9.55    1.76
   9   9  -7   11.44    1.48
  -9  -9   7   11.86    1.43
  -9  -9   7    9.91    1.68
  -9   9   8    0.18    0.45
  -9   9   8    3.08    1.17
   9   9  -8    1.95    0.67
  -9  -9   8    2.36    0.63
  -9  -9   8    2.40    1.05
  -9   9   9    0.93    0.76
  -9   9   9    0.49    1.10
   9  -9  -9    0.97    0.83
   9   9  -9   -0.10    0.59
   9  -9 -10    0.96    0.91
   9   9 -10    1.81    0.67
  -9  -9  10    1.92    1.07
  -9   9  11    3.08    0.98
  -9   9  11    3.71    1.28
   9  -9 -11    3.66    1.09
   9   9 -11    3.88    0.81
  -9  -9  11    3.57    1.11
  -9   9  12    0.33    0.83
  -9   9  12    0.39    1.16
   9  -9 -12    0.09    0.94
   9   9 -12    0.75    0.63
  -9  -9  12    0.80    0.59
  -9  -9  12   -0.23    0.95
  -9   9  13    8.21    1.31
  -9   9  13    6.11    1.44
   9  -9 -13    6.34    1.37
   9   9 -13    6.80    1.08
  -9  -9  13    5.74    0.99
  -9  -9  13    6.59    1.34
  -9   9  14    9.69    1.52
  -9   9  14    7.40    1.58
   9  -9 -14    9.29    1.61
  -9  -9  14    8.34    1.51
  -9  10   1    0.04    1.02
   9  10  -1    0.09    0.67
  -9 -10   1    0.18    0.59
  -9 -10   1    0.63    0.94
  -9  10   2    2.12    0.64
  -9  10   2    1.89    1.09
   9 -10  -2    1.23    0.65
   9  10  -2    1.66    0.75
  -9 -10   2    2.60    0.67
  -9 -10   2    2.69    1.03
  -9  10   3   21.35    2.46
   9 -10  -3   21.65    2.49
   9  10  -3   23.80    2.52
  -9 -10   3   21.62    2.47
  -9 -10   3   24.37    2.72
  -9  10   4    3.53    0.82
  -9  10   4    4.25    1.25
   9 -10  -4    3.88    0.88
   9  10  -4    4.25    0.89
  -9 -10   4    4.46    0.81
  -9 -10   4    4.70    1.16
  -9  10   5    2.50    0.76
  -9  10   5    2.59    1.17
   9  10  -5    3.04    0.78
  -9 -10   5    1.95    0.66
  -9 -10   5    2.07    1.06
  -9  10   6    2.99    0.83
  -9  10   6    2.66    1.19
   9  10  -6    2.83    0.74
  -9 -10   6    3.43    0.73
  -9 -10   6    2.40    1.09
  -9  10   7   17.60    2.18
  -9  10   7   17.24    2.41
   9 -10  -7   17.66    2.22
   9  10  -7   20.08    2.12
  -9 -10   7   17.83    2.35
  -9  10   8    2.55    1.19
   9 -10  -8    1.46    0.88
   9  10  -8    1.55    0.67
  -9 -10   8    0.90    1.04
  -9  10   9   27.54    3.45
   9 -10  -9   28.00    3.32
   9  10  -9   30.69    3.18
  -9  10  10   31.79    3.29
   9 -10 -10   25.69    3.28
   9  10 -10   30.01    3.12
  -9 -10  10   25.67    3.31
  -9  10  11   11.12    1.68
  -9  10  11    9.57    1.85
   9 -10 -11   10.92    1.76
   9  10 -11   13.38    1.51
  -9 -10  11   11.78    1.78
  -9  10  12    4.15    1.07
  -9  10  12    3.37    1.30
   9 -10 -12    2.81    1.13
   9  10 -12    3.61    0.79
  -9 -10  12    2.82    1.13
  -9  10  13    1.67    0.95
  -9  10  13    1.18    1.14
   9 -10 -13    0.47    1.05
  -9 -10  13    0.98    1.03
  -9  11   1   26.07    2.79
  -9  11   1   24.81    3.13
   9 -11  -1   23.75    2.82
   9  11  -1   29.75    2.91
  -9 -11   1   27.58    2.87
  -9 -11   1   23.93    3.06
  -9  11   2    5.47    1.43
   9  11  -2    7.31    1.12
  -9 -11   2    7.37    1.06
  -9 -11   2    6.79    1.38
  -9  11   3    0.03    0.59
   9  11  -3   -0.50    0.70
  -9 -11   3    0.10    0.57
  -9 -11   3    0.22    0.98
  -9  11   4   10.03    1.34
  -9  11   4    9.81    1.71
   9  11  -4   10.28    1.37
  -9 -11   4    9.61    1.30
  -9 -11   4    9.92    1.63
  -9  11   5   10.92    1.42
  -9  11   5    9.94    1.73
   9 -11  -5    9.65    1.44
   9  11  -5   10.56    1.37
  -9 -11   5   10.32    1.35
  -9 -11   5   11.36    1.68
  -9  11   6   10.77    1.90
   9 -11  -6   12.09    1.67
   9  11  -6   13.02    1.56
  -9 -11   6   13.29    1.86
  -9  11   7    2.52    0.83
  -9  11   7    1.34    1.17
   9 -11  -7    2.21    0.91
   9  11  -7    1.57    0.68
  -9 -11   7    1.68    1.08
  -9  11   8   36.98    3.94
  -9  11   8   33.10    4.09
   9 -11  -8   34.38    3.97
   9  11  -8   38.64    3.84
  -9 -11   8   33.61    4.04
  -9  11   9   -0.07    0.79
  -9  11   9    0.47    1.13
   9 -11  -9   -0.29    0.91
   9  11  -9    0.22    0.58
  -9 -11   9   -0.17    0.57
  -9  11  10    0.62    0.68
   9 -11 -10    4.31    1.15
   9  11 -10    5.05    0.81
  -9 -11  10    4.82    0.78
  -9 -11  10    4.87    1.25
  -9  11  11    3.64    1.05
  -9  11  11    3.70    1.32
   9 -11 -11    2.84    1.15
  -9 -11  11    4.12    1.18
  -9  12   1    2.73    0.65
  -9  12   1    1.16    1.21
   9  12  -1    3.80    0.87
  -9 -12   1    4.10    0.79
  -9 -12   1    2.96    1.17
  -9  12   2   14.46    1.75
  -9  12   2   11.62    2.12
   9  12  -2   17.75    1.88
  -9 -12   2   15.93    1.82
  -9 -12   2   14.94    2.10
  -9  12   3    1.69    0.64
   9 -12  -3    1.66    0.76
   9  12  -3    1.65    0.76
  -9 -12   3    1.55    0.66
  -9 -12   3    3.28    1.14
  -9  12   4   16.83    2.58
   9 -12  -4   16.22    2.29
   9  12  -4   24.35    2.33
  -9 -12   4   22.62    2.27
  -9 -12   4   17.06    2.48
  -9  12   5    9.09    1.33
  -9  12   5   10.49    1.74
   9 -12  -5    8.02    1.37
   9  12  -5   10.85    1.29
  -9 -12   5    8.10    1.60
  -9  12   6   10.51    1.46
  -9  12   6    7.66    1.77
   9 -12  -6    9.95    1.52
   9  12  -6   12.74    1.40
  -9 -12   6    9.16    1.68
  -9  12   7   -0.05    0.73
  -9  12   7   -0.36    1.20
   9 -12  -7   -0.24    0.86
   9  12  -7   -0.06    0.60
  -9 -12   7   -0.31    1.06
  -9  12   8   16.94    2.08
  -9  12   8   12.93    2.30
   9 -12  -8   15.42    2.14
   9  12  -8   17.94    1.94
  -9 -12   8   17.64    1.92
  -9 -12   8   14.52    2.22
  -9  12   9   13.36    1.74
  -9  12   9   10.47    1.95
   9 -12  -9   11.94    1.81
  -9 -12   9   12.08    1.87
  -9  13   1    2.43    0.46
  -9  13   1    1.46    0.58
  -9  13   1    0.70    1.20
   9  13  -1    1.62    0.79
  -9 -13   1    2.12    0.70
  -9 -13   1    1.24    1.12
  -9  13   2    0.51    1.15
   9  13  -2    0.85    0.74
  -9 -13   2    1.20    0.64
  -9 -13   2    1.08    1.08
  -9  13   3    0.73    0.61
   9  13  -3    1.81    0.75
  -9 -13   3    0.96    0.63
  -9 -13   3    0.60    1.05
  -9  13   4    2.77    0.78
  -9  13   4    1.38    1.26
   9  13  -4    3.90    0.82
  -9 -13   4    4.44    0.79
  -9 -13   4    2.34    1.19
  -9  13   5    3.11    0.82
  -9  13   5    2.24    1.26
   9  13  -5    2.13    0.71
  -9 -13   5    2.93    1.21
  -9  13   6    1.47    0.78
  -9  13   6    0.23    1.19
  -9 -13   6    0.98    1.10
  -9  13   7    0.86    0.79
  -9  13   7    0.24    1.20
  -9 -13   7    1.12    1.13
  -9  14   1    2.68    1.34
  -8   0   1    0.03    0.45
  -8   0   1    0.39    0.73
   8   0  -1   -0.14    0.54
  -8   0   2  400.31   39.69
   8   0  -2  395.27   39.70
  -8   0   3    0.36    0.46
  -8   0   3    0.24    0.73
   8   0  -3   -0.07    0.55
  -8   0   4  366.70   38.59
  -8   0   4  459.98   38.75
   8   0  -4  369.09   38.60
  -8   0   5    0.06    0.53
  -8   0   5    0.30    0.77
   8   0  -5    0.24    0.59
  -8   0   6   33.75    3.82
  -8   0   6   48.35    3.99
   8   0  -6   32.42    3.82
  -8   0   7    0.07    0.58
  -8   0   7   -0.15    0.76
   8   0  -7    0.14    0.59
  -8   0   8   81.40    9.00
  -8   0   8   97.06    9.11
   8   0  -8   89.69    9.03
  -8   0   9   -0.29    0.62
   8   0  -9   -0.53    0.65
  -8   0  10    3.17    0.79
  -8   0  10    3.92    0.96
   8   0 -10    3.46    0.81
  -8   0  11    0.41    0.64
  -8   0  11   -0.16    0.83
   8   0 -11    0.02    0.65
  -8   0  12   47.53    5.03
  -8   0  12   48.48    5.09
   8   0 -12   47.43    5.05
  -8   0  13   -0.11    0.66
  -8   0  13   -0.32    0.80
  -8   0  14    5.23    0.95
  -8   0  14    2.83    1.02
   8   0 -14    3.84    0.93
  -8   0  15    0.53    0.73
  -8   0  15   -0.43    0.88
   8   0 -15    0.28    0.74
  -8   0  16    2.73    1.06
   8   0 -16    4.20    0.96
  -8   0  17   -0.38    0.76
  -8   0  17   -0.02    0.92
   8   0 -17   -0.20    0.78
  -8   0  18  106.04   10.53
  -8   0  18   94.44   10.55
   8   0 -18  106.43   10.57
  -8   0  19   -0.05    0.78
  -8   0  19    0.22    0.95
   8   0 -19    0.01    0.81
  -8   1   1   10.19    1.09
  -8   1   1    5.58    1.19
   8  -1  -1    9.42    1.11
   8   1  -1    9.00    1.11
  -8  -1   1    7.68    1.04
  -8  -1   1    6.41    1.20
  -8   1   2    3.21    0.66
   8  -1  -2    3.27    0.69
   8   1  -2    3.28    0.70
  -8  -1   2    2.63    0.61
  -8   1   3    6.25    0.87
  -8   1   3    4.55    1.03
   8  -1  -3    5.08    0.87
   8   1  -3    6.00    0.89
  -8  -1   3    5.99    0.83
  -8  -1   3    4.29    1.01
  -8   1   4   50.99    5.56
  -8   1   4   57.62    5.66
   8  -1  -4   52.99    5.58
   8   1  -4   55.17    5.59
  -8  -1   4   50.77    5.56
  -8  -1   4   60.25    5.68
  -8   1   5   92.11    9.85
  -8   1   5  117.82    9.99
   8  -1  -5   90.57    9.86
   8   1  -5   95.16    9.87
  -8  -1   5   88.77    9.85
  -8  -1   5  114.12    9.99
  -8   1   6   16.42    1.86
  -8   1   6   17.09    1.98
   8  -1  -6   16.61    1.87
   8   1  -6   17.00    1.88
  -8  -1   6   14.17    1.82
  -8  -1   6   16.19    1.95
  -8   1   7  278.61   27.57
  -8   1   7  292.00   27.65
   8  -1  -7  270.92   27.57
   8   1  -7  266.43   27.56
  -8  -1   7  276.00   27.56
  -8  -1   7  271.92   27.62
  -8   1   8  101.82   10.52
  -8   1   8  108.34   10.59
   8  -1  -8   98.70   10.52
   8   1  -8  100.88   10.52
  -8  -1   8  104.50   10.52
  -8  -1   8  108.87   10.59
  -8   1   9    5.19    0.98
   8  -1  -9    6.32    0.99
   8   1  -9    6.60    1.00
  -8  -1   9    5.86    0.97
  -8   1  10    8.01    1.22
  -8   1  10    8.58    1.35
   8  -1 -10    8.30    1.24
   8   1 -10    8.85    1.25
  -8  -1  10    9.94    1.24
  -8  -1  10    8.77    1.33
  -8   1  11    6.23    1.02
  -8   1  11    5.40    1.15
   8   1 -11    6.22    1.02
  -8  -1  11    6.14    1.01
  -8  -1  11    6.04    1.15
  -8   1  12    0.51    0.67
  -8   1  12    1.72    0.84
   8   1 -12    0.76    0.69
  -8  -1  12    0.37    0.66
  -8  -1  12    0.31    0.74
  -8   1  13   26.14    2.93
  -8   1  13   26.30    2.99
   8  -1 -13   26.29    2.95
   8   1 -13   27.15    2.94
  -8  -1  13   26.82    2.92
  -8  -1  13   24.66    2.95
  -8   1  14   37.29    4.51
   8  -1 -14   44.22    4.54
  -8  -1  14   46.39    4.51
  -8  -1  14   40.24    4.52
  -8   1  15    1.53    0.95
   8  -1 -15    3.41    0.91
  -8  -1  15    3.16    0.86
  -8   1  16    0.41    0.77
  -8   1  16    0.24    0.92
   8  -1 -16    0.59    0.78
   8   1 -16    1.12    0.78
  -8  -1  16    1.16    0.77
  -8  -1  16    0.05    0.89
  -8   1  17   62.29    6.15
  -8   1  17   55.97    6.16
   8  -1 -17   59.61    6.17
   8   1 -17   53.39    6.11
  -8  -1  17   64.47    6.14
  -8  -1  17   53.77    6.15
  -8   1  18    0.36    0.82
  -8   1  18   -0.08    0.94
   8  -1 -18    0.10    0.82
   8   1 -18   -0.14    0.78
  -8  -1  18    0.85    1.01
  -8   1  19    1.63    0.88
  -8   1  19    0.55    0.97
   8  -1 -19    1.11    0.87
   8   1 -19    1.69    0.85
  -8  -1  19    0.91    0.82
  -8  -1  19    1.33    1.02
  -8   2   1  174.49   17.70
  -8   2   1  178.52   17.81
   8  -2  -1  175.15   17.71
   8   2  -1  180.69   17.72
  -8  -2   1  171.47   17.71
  -8  -2   1  181.43   17.79
  -8   2   2   11.10    1.35
   8  -2  -2   11.87    1.38
   8   2  -2   11.77    1.39
  -8  -2   2   10.57    1.33
  -8   2   3   10.93    1.47
  -8   2   3   15.97    1.68
   8  -2  -3   11.49    1.50
   8   2  -3   13.07    1.52
  -8  -2   3   11.23    1.47
  -8  -2   3   16.52    1.67
  -8   2   4   35.18    3.89
  -8   2   4   36.00    3.99
   8  -2  -4   37.29    3.92
   8   2  -4   39.75    3.93
  -8  -2   4   34.41    3.88
  -8  -2   4   42.56    4.02
  -8   2   5   59.45    6.65
  -8   2   5   72.44    6.79
   8  -2  -5   63.95    6.67
   8   2  -5   65.85    6.67
  -8  -2   5   62.14    6.65
  -8  -2   5   71.25    6.77
  -8   2   6   37.58    4.10
  -8   2   6   40.12    4.20
   8  -2  -6   38.39    4.12
  -8  -2   6   41.08    4.19
  -8   2   7  126.78   12.60
  -8   2   7  123.58   12.66
   8  -2  -7  122.30   12.60
   8   2  -7  126.09   12.59
  -8  -2   7  120.50   12.57
  -8  -2   7  127.87   12.66
  -8   2   8   27.19    2.92
  -8   2   8   30.02    3.04
   8  -2  -8   23.90    2.91
   8   2  -8   26.54    2.92
  -8  -2   8   25.85    2.89
  -8  -2   8   29.50    3.02
  -8   2   9   23.33    2.60
   8   2  -9   25.09    2.61
  -8  -2   9   21.92    2.55
  -8   2  10   15.22    1.90
  -8   2  10   17.42    2.01
   8   2 -10   14.69    1.88
  -8  -2  10   14.78    1.86
  -8  -2  10   19.06    2.01
  -8   2  11  161.36   16.80
  -8   2  11  164.63   16.87
   8  -2 -11  171.13   16.84
   8   2 -11  166.53   16.79
  -8  -2  11  168.55   16.78
  -8  -2  11  165.67   16.85
  -8   2  12    9.70    1.38
  -8   2  12    9.44    1.45
   8  -2 -12   10.74    1.43
   8   2 -12    9.83    1.37
  -8  -2  12    9.86    1.35
  -8  -2  12   10.45    1.44
  -8   2  13   65.13    7.22
   8  -2 -13   71.16    7.23
   8   2 -13   70.81    7.18
  -8  -2  13   74.40    7.18
  -8  -2  13   63.81    7.20
  -8   2  14   37.30    3.82
  -8   2  14   30.80    3.80
   8  -2 -14   34.74    3.82
   8   2 -14   35.53    3.78
  -8  -2  14   39.50    3.79
  -8  -2  14   30.89    3.79
  -8   2  15   -0.20    0.77
  -8   2  15   -0.11    0.85
   8  -2 -15    0.33    0.77
   8   2 -15   -0.04    0.72
  -8  -2  15    0.29    0.70
  -8   2  16    0.47    0.80
  -8   2  16    0.26    0.90
   8  -2 -16    0.78    0.83
  -8  -2  16    0.90    0.75
  -8  -2  16    0.57    0.88
  -8   2  17    0.12    0.82
  -8   2  17   -0.23    0.90
   8  -2 -17    0.00    0.83
  -8  -2  17    0.09    0.73
  -8  -2  17    0.02    0.92
  -8   2  18    2.52    0.94
  -8   2  18    2.48    1.03
   8  -2 -18    1.47    0.90
   8   2 -18    2.09    0.86
  -8  -2  18    1.38    0.81
  -8  -2  18    1.90    1.03
  -8   3   1  120.79   13.32
  -8   3   1  156.00   13.49
   8  -3  -1  122.25   13.33
   8   3  -1  132.55   13.35
  -8  -3   1  126.86   13.34
  -8  -3   1  161.93   13.47
  -8   3   2  259.35   30.40
   8  -3  -2  322.64   30.44
   8   3  -2  332.63   30.46
  -8  -3   2  320.27   30.44
  -8   3   3  467.42   47.97
  -8   3   3  489.36   48.11
   8  -3  -3  460.33   47.98
   8   3  -3  510.04   48.01
  -8  -3   3  486.86   47.99
  -8  -3   3  480.41   48.07
  -8   3   4  139.62   15.03
  -8   3   4  167.67   15.18
   8  -3  -4  146.19   15.05
   8   3  -4  150.34   15.05
  -8  -3   4  142.64   15.03
  -8  -3   4  162.58   15.14
  -8   3   5  107.29   10.86
  -8   3   5  110.93   10.96
   8  -3  -5   99.33   10.86
   8   3  -5  109.68   10.87
  -8  -3   5  105.45   10.85
  -8  -3   5  113.60   10.95
  -8   3   6    9.54    1.24
  -8   3   6    8.10    1.37
   8  -3  -6    9.81    1.25
   8   3  -6   10.12    1.26
  -8  -3   6    9.55    1.19
  -8  -3   6    8.35    1.34
  -8   3   7   41.56    4.21
  -8   3   7   37.47    4.27
   8   3  -7   41.98    4.20
  -8  -3   7   39.88    4.18
  -8  -3   7   37.20    4.25
  -8   3   8   13.07    1.67
  -8   3   8   18.99    1.88
   8   3  -8   13.84    1.69
  -8  -3   8   11.68    1.62
  -8  -3   8   16.18    1.82
  -8   3   9    9.95    1.42
   8  -3  -9   11.30    1.47
   8   3  -9   12.44    1.45
  -8  -3   9   11.18    1.39
  -8   3  10   15.00    1.79
  -8   3  10   19.49    1.96
   8  -3 -10   15.19    1.83
   8   3 -10   14.97    1.78
  -8  -3  10   10.59    1.69
  -8  -3  10   18.36    1.93
  -8   3  11    8.45    1.31
   8  -3 -11    7.33    1.20
   8   3 -11    7.48    1.13
  -8  -3  11    6.77    1.06
  -8  -3  11    7.14    1.19
  -8   3  12   25.92    3.20
   8  -3 -12   29.51    3.22
   8   3 -12   30.11    3.16
  -8  -3  12   32.49    3.16
  -8  -3  12   25.29    3.18
  -8   3  13   -0.11    0.69
  -8   3  13   -0.02    0.81
   8  -3 -13    0.55    0.76
   8   3 -13    0.01    0.68
  -8  -3  13    0.30    0.65
  -8  -3  13    0.15    0.77
  -8   3  14   22.81    2.43
  -8   3  14   16.76    2.40
   8  -3 -14   20.10    2.43
   8   3 -14   22.05    2.38
  -8  -3  14   22.51    2.36
  -8  -3  14   17.88    2.39
  -8   3  15    1.18    0.82
  -8   3  15    1.88    0.91
   8  -3 -15    1.60    0.85
   8   3 -15    1.76    0.78
  -8  -3  15    1.13    0.75
  -8   3  16    0.98    0.84
  -8   3  16   -0.22    0.88
   8  -3 -16    0.97    0.85
   8   3 -16    0.60    0.74
  -8  -3  16    0.27    0.73
  -8  -3  16    0.11    0.86
  -8   3  17    7.17    1.22
  -8   3  17    4.09    1.22
   8  -3 -17    5.89    1.21
   8   3 -17    5.59    1.09
  -8  -3  17    8.07    1.12
  -8  -3  17    4.83    1.20
  -8   3  18   26.42    2.86
  -8   3  18   19.70    2.82
   8  -3 -18   22.63    2.84
  -8  -3  18   29.54    2.79
  -8  -3  18   21.66    2.82
  -8   4   1   28.87    3.05
  -8   4   1   31.06    3.20
   8  -4  -1   29.22    3.06
   8   4  -1   28.69    3.08
  -8  -4   1   27.36    3.06
  -8  -4   1   28.83    3.16
  -8   4   2    8.20    1.10
   8  -4  -2    9.14    1.14
  -8  -4   2    8.98    1.13
  -8   4   3   47.66    5.60
   8  -4  -3   54.73    5.54
   8   4  -3   59.02    5.56
  -8  -4   3   55.85    5.54
  -8  -4   3   48.82    5.60
  -8   4   4    2.38    0.63
  -8   4   4    1.43    0.83
   8  -4  -4    2.28    0.65
   8   4  -4    2.69    0.67
  -8  -4   4    2.02    0.58
  -8  -4   4    1.54    0.80
  -8   4   5    2.38    0.64
  -8   4   5    1.88    0.85
   8   4  -5    1.76    0.66
  -8  -4   5    1.58    0.57
  -8  -4   5    2.34    0.82
  -8   4   6   80.21    8.57
  -8   4   6   87.50    8.70
   8   4  -6   86.56    8.58
  -8  -4   6   78.63    8.55
  -8  -4   6   92.02    8.69
  -8   4   7   29.35    3.20
  -8   4   7   28.24    3.29
   8  -4  -7   27.84    3.21
   8   4  -7   31.48    3.21
  -8  -4   7   29.55    3.17
  -8  -4   7   32.14    3.30
  -8   4   8  141.49   14.45
  -8   4   8  138.18   14.53
   8  -4  -8  142.89   14.48
   8   4  -8  140.98   14.43
  -8  -4   8  146.06   14.42
  -8  -4   8  147.47   14.53
   8  -4  -9   19.77    2.19
   8   4  -9   18.95    2.13
  -8  -4   9   17.32    2.08
  -8   4  10    8.63    1.34
   8  -4 -10    7.87    1.24
   8   4 -10    7.90    1.16
  -8  -4  10    7.18    1.09
  -8  -4  10    9.62    1.34
  -8   4  11    1.26    0.72
  -8   4  11    1.38    0.93
   8  -4 -11    1.52    0.80
   8   4 -11    1.16    0.70
  -8  -4  11    1.48    0.61
  -8  -4  11    0.90    0.81
  -8   4  12   54.70    6.19
   8   4 -12   62.96    6.14
  -8  -4  12   60.26    6.11
  -8  -4  12   56.30    6.19
  -8   4  13   54.24    5.63
  -8   4  13   48.97    5.65
   8  -4 -13   53.14    5.66
   8   4 -13   56.78    5.60
  -8  -4  13   52.46    5.56
  -8  -4  13   53.76    5.65
  -8   4  14   38.54    4.48
  -8   4  14   38.18    4.52
   8  -4 -14   40.70    4.54
   8   4 -14   43.81    4.46
  -8  -4  14   48.13    4.47
  -8  -4  14   40.30    4.51
  -8   4  15   16.21    2.14
  -8   4  15   14.43    2.18
   8  -4 -15   19.65    2.24
   8   4 -15   18.16    2.10
  -8  -4  15   19.21    2.10
  -8   4  16    4.33    1.03
  -8   4  16    4.10    1.13
   8  -4 -16    3.47    1.04
   8   4 -16    4.24    0.93
  -8  -4  16    4.51    0.93
  -8  -4  16    3.03    1.03
  -8   4  17    3.22    1.00
  -8   4  17    3.58    1.11
   8   4 -17    3.24    0.86
  -8  -4  17    3.00    0.86
  -8  -4  17    1.82    1.00
  -8   4  18    1.47    0.92
  -8   4  18    0.83    1.05
   8  -4 -18    1.21    0.93
   8   4 -18    2.18    0.81
  -8  -4  18    1.71    0.78
  -8  -4  18    1.01    0.98
  -8   5   1  297.34   30.90
  -8   5   1  351.66   31.09
   8  -5  -1  298.56   30.90
   8   5  -1  305.18   30.94
  -8  -5   1  299.40   30.93
  -8  -5   1  340.60   31.06
  -8   5   2   99.68   10.30
   8  -5  -2  102.11   10.32
   8   5  -2  104.12   10.33
  -8  -5   2  101.35   10.32
  -8  -5   2  102.81   10.46
  -8   5   3  264.31   27.34
  -8   5   3  295.83   27.51
   8   5  -3  269.11   27.36
  -8  -5   3  262.60   27.34
  -8  -5   3  295.05   27.49
  -8   5   4   26.36    3.10
   8   5  -4   30.26    3.01
  -8  -5   4   26.07    2.96
  -8  -5   4   28.70    3.10
  -8   5   5    0.07    0.53
  -8   5   5   -0.08    0.79
   8  -5  -5    0.01    0.57
   8   5  -5    0.46    0.53
  -8  -5   5    0.17    0.47
  -8  -5   5    0.33    0.76
  -8   5   6   14.79    1.69
  -8   5   6   14.20    1.84
   8  -5  -6   15.12    1.73
   8   5  -6   14.68    1.67
  -8  -5   6   12.73    1.63
  -8  -5   6   13.85    1.79
  -8   5   7    6.39    1.20
   8  -5  -7    6.80    1.05
   8   5  -7    5.82    0.95
  -8  -5   7    6.99    0.94
  -8  -5   7    5.98    1.13
  -8   5   8    1.06    0.89
   8  -5  -8    1.38    0.71
   8   5  -8    1.52    0.66
  -8  -5   8    1.30    0.55
  -8  -5   8    1.96    0.85
  -8   5   9   31.32    3.38
  -8   5   9   26.07    3.43
   8  -5  -9   32.23    3.42
   8   5  -9   32.23    3.35
  -8  -5   9   32.30    3.32
  -8   5  10    3.47    0.83
  -8   5  10    3.41    1.03
   8  -5 -10    3.58    0.92
   8   5 -10    3.54    0.80
  -8  -5  10    2.87    0.70
  -8  -5  10    3.38    1.00
  -8   5  11   34.94    3.85
  -8   5  11   35.76    3.94
   8  -5 -11   36.55    3.90
   8   5 -11   37.56    3.82
  -8  -5  11   36.23    3.78
  -8  -5  11   31.90    3.86
  -8   5  12   12.75    1.64
  -8   5  12   12.19    1.72
   8  -5 -12   12.25    1.69
   8   5 -12   12.42    1.56
  -8  -5  12   12.58    1.52
  -8  -5  12   11.03    1.65
  -8   5  13    0.97    0.91
   8   5 -13    0.43    0.66
  -8  -5  13    0.41    0.59
  -8  -5  13   -0.01    0.84
  -8   5  14   24.52    2.73
  -8   5  14   20.57    2.75
   8  -5 -14   23.04    2.75
   8   5 -14   24.26    2.64
  -8  -5  14   23.35    2.59
  -8  -5  14   23.61    2.74
  -8   5  15    3.44    0.97
  -8   5  15    3.79    1.12
   8  -5 -15    3.66    1.06
   8   5 -15    4.83    0.92
  -8  -5  15    3.84    0.82
  -8   5  16    0.75    0.83
   8   5 -16    1.43    0.73
  -8  -5  16    1.49    0.74
  -8  -5  16    0.42    0.93
  -8   5  17    1.92    0.94
  -8   5  17    1.62    1.08
   8  -5 -17    2.35    1.00
   8   5 -17    1.45    0.78
  -8  -5  17    1.94    0.78
  -8  -5  17    1.99    0.98
  -8   6   1  154.08   15.78
  -8   6   1  168.67   15.99
   8   6  -1  156.35   15.83
  -8  -6   1  151.92   15.82
  -8  -6   1  163.89   15.95
  -8   6   2    0.21    0.48
   8   6  -2    0.29    0.59
  -8  -6   2    0.32    0.50
  -8  -6   2    0.44    0.77
  -8   6   3   30.25    3.19
  -8   6   3   34.27    3.38
   8  -6  -3   30.30    3.21
   8   6  -3   30.06    3.20
  -8  -6   3   27.91    3.18
  -8  -6   3   28.93    3.30
  -8   6   4    1.97    0.62
  -8   6   4    3.27    0.95
   8  -6  -4    2.62    0.69
   8   6  -4    1.89    0.62
  -8  -6   4    2.43    0.87
  -8   6   5   30.18    3.33
   8  -6  -5   29.32    3.20
   8   6  -5   28.99    3.17
  -8  -6   5   30.53    3.30
  -8   6   6   19.58    2.25
   8  -6  -6   18.34    2.10
   8   6  -6   16.42    2.02
  -8  -6   6   19.17    2.20
  -8   6   7   75.78    7.40
  -8   6   7   66.88    7.46
   8  -6  -7   70.39    7.41
   8   6  -7   74.52    7.36
  -8  -6   7   68.74    7.45
  -8   6   8   12.69    1.62
  -8   6   8   11.84    1.78
   8  -6  -8   12.78    1.67
   8   6  -8   14.60    1.59
  -8  -6   8   12.45    1.73
  -8   6   9    2.95    0.80
  -8   6   9    3.27    1.06
   8  -6  -9    3.17    0.87
   8   6  -9    3.51    0.73
  -8   6  10    2.92    0.83
  -8   6  10    3.91    1.09
   8  -6 -10    3.08    0.92
   8   6 -10    3.05    0.74
  -8  -6  10    4.25    1.01
  -8   6  11   22.64    2.60
  -8   6  11   18.27    2.66
   8  -6 -11   24.45    2.67
   8   6 -11   23.80    2.51
  -8  -6  11   23.22    2.49
  -8  -6  11   21.69    2.62
  -8   6  12    6.04    1.11
  -8   6  12    5.78    1.21
   8  -6 -12    7.04    1.21
   8   6 -12    6.90    1.03
  -8  -6  12    4.66    0.91
  -8  -6  12    6.01    1.18
  -8   6  13    4.54    1.01
  -8   6  13    2.96    1.09
   8  -6 -13    3.90    1.08
   8   6 -13    4.86    0.91
  -8  -6  13    4.48    0.82
  -8  -6  13    4.06    1.08
  -8   6  14    2.98    0.92
  -8   6  14    3.22    1.08
   8   6 -14    2.43    0.78
  -8  -6  14    2.34    0.70
  -8  -6  14    3.17    1.02
  -8   6  15    4.66    1.05
  -8   6  15    2.64    1.15
   8  -6 -15    4.91    1.14
   8   6 -15    4.51    0.93
  -8  -6  15    5.13    0.87
  -8   6  16   -0.03    0.83
   8  -6 -16    0.47    0.92
   8   6 -16    0.12    0.68
  -8  -6  16   -0.22    0.61
  -8  -6  16    0.79    0.98
  -8   6  17    1.33    0.91
  -8   6  17    2.22    1.11
   8  -6 -17    2.62    1.05
   8   6 -17    1.73    0.78
  -8  -6  17    1.55    0.69
  -8  -6  17    2.24    1.06
  -8   7   1    1.13    0.50
  -8   7   1    0.67    0.86
   8  -7  -1    1.18    0.55
   8   7  -1    1.73    0.64
  -8  -7   1    1.55    0.57
  -8  -7   1    1.83    0.83
  -8   7   2   94.21    9.52
   8  -7  -2   97.39    9.55
   8   7  -2   95.37    9.55
  -8  -7   2   89.78    9.54
  -8  -7   2   92.63    9.66
  -8   7   3   23.32    2.53
   8  -7  -3   18.77    2.30
   8   7  -3   20.90    2.32
  -8  -7   3   22.87    2.48
  -8   7   4   60.16    6.30
   8  -7  -4   63.05    6.18
   8   7  -4   56.83    6.13
  -8  -7   4   58.88    6.26
  -8   7   5   11.48    1.42
  -8   7   5   11.09    1.65
   8  -7  -5   11.27    1.47
   8   7  -5   11.69    1.41
  -8  -7   5   11.92    1.61
  -8   7   6    1.37    0.95
   8  -7  -6    0.60    0.66
   8   7  -6    0.39    0.55
  -8  -7   6    0.97    0.84
  -8   7   7    0.32    0.61
  -8   7   7    0.85    0.94
   8  -7  -7    0.02    0.68
   8   7  -7    0.19    0.54
  -8  -7   7    0.16    0.84
  -8   7   8   38.77    4.21
  -8   7   8   38.60    4.33
   8  -7  -8   38.40    4.24
   8   7  -8   41.38    4.17
  -8  -7   8   39.46    4.29
  -8   7   9    0.22    0.66
  -8   7   9    0.83    0.99
   8  -7  -9    1.12    0.78
   8   7  -9    0.69    0.58
  -8  -7   9    0.87    0.88
  -8   7  10    3.98    0.95
  -8   7  10    5.08    1.21
   8  -7 -10    5.11    1.05
   8   7 -10    4.54    0.83
  -8  -7  10    4.28    1.11
  -8   7  11   11.59    1.52
  -8   7  11    9.59    1.66
   8  -7 -11   10.69    1.56
   8   7 -11   11.06    1.38
  -8  -7  11    9.72    1.53
  -8   7  12    5.98    1.09
  -8   7  12    3.52    1.17
   8  -7 -12    4.85    1.14
   8   7 -12    6.30    0.93
  -8  -7  12    4.53    1.12
  -8   7  13   11.03    1.41
  -8   7  13    5.22    1.38
   8   7 -13    8.94    1.18
  -8  -7  13    7.76    1.38
  -8   7  14    2.33    0.94
  -8   7  14    2.87    1.09
   8   7 -14    2.70    0.78
  -8  -7  14    3.65    0.74
  -8  -7  14    2.59    1.04
  -8   7  15    0.54    1.05
   8  -7 -15    0.88    0.94
   8   7 -15    0.40    0.66
  -8  -7  15    0.94    0.61
  -8   7  16    7.07    1.35
   8  -7 -16    8.29    1.49
   8   7 -16    8.87    1.22
  -8  -7  16    8.42    1.16
  -8  -7  16    7.46    1.45
  -8   8   1   12.61    1.79
   8  -8  -1   12.33    1.51
   8   8  -1   13.89    1.59
  -8  -8   1   13.23    1.55
  -8   8   2    3.18    1.03
   8  -8  -2    3.22    0.70
   8   8  -2    3.30    0.71
  -8  -8   2    3.37    0.70
  -8  -8   2    3.43    0.97
  -8   8   3   32.75    3.72
  -8   8   3   38.79    3.97
   8  -8  -3   34.84    3.75
   8   8  -3   34.91    3.74
  -8  -8   3   39.73    3.92
  -8   8   4   25.54    2.70
  -8   8   4   22.82    2.89
   8  -8  -4   23.72    2.72
   8   8  -4   25.39    2.71
  -8  -8   4   26.12    2.87
  -8   8   5   27.04    2.93
  -8   8   5   27.34    3.12
   8  -8  -5   26.11    2.95
   8   8  -5   26.29    2.90
  -8  -8   5   28.51    3.08
  -8   8   6    6.46    0.98
  -8   8   6    4.82    1.24
   8  -8  -6    6.18    1.03
   8   8  -6    5.71    0.92
  -8  -8   6    6.11    0.90
  -8  -8   6    5.92    1.19
  -8   8   7   29.64    3.53
   8  -8  -7   30.84    3.42
   8   8  -7   31.85    3.34
  -8  -8   7   29.34    3.31
  -8  -8   7   35.82    3.54
  -8   8   8    7.01    1.09
  -8   8   8    5.47    1.32
   8  -8  -8    6.35    1.14
   8   8  -8    7.03    0.99
  -8  -8   8    6.59    0.95
  -8  -8   8    6.24    1.25
  -8   8   9    1.14    0.74
  -8   8   9    0.55    1.03
   8  -8  -9    0.38    0.78
   8   8  -9    0.72    0.57
  -8  -8   9    0.66    0.54
  -8  -8   9    1.29    0.94
  -8   8  10    2.25    0.82
  -8   8  10    2.53    1.09
   8  -8 -10    1.65    0.86
   8   8 -10    1.94    0.65
  -8  -8  10    1.62    0.60
  -8  -8  10    1.70    0.98
  -8   8  11   24.01    2.85
  -8   8  11   22.25    2.97
   8   8 -11   24.53    2.73
  -8  -8  11   26.72    2.73
  -8  -8  11   25.39    2.91
  -8   8  12   11.99    1.59
  -8   8  12    8.80    1.66
   8  -8 -12   11.23    1.63
   8   8 -12   10.67    1.38
  -8  -8  12   12.70    1.39
  -8  -8  12    7.99    1.57
  -8   8  13    6.09    1.30
   8  -8 -13    4.60    1.16
   8   8 -13    4.71    0.87
  -8  -8  13    4.19    1.14
  -8   8  14   11.35    1.61
  -8   8  14   10.17    1.71
   8  -8 -14   11.70    1.70
   8   8 -14   10.66    1.38
  -8  -8  14    9.19    1.60
  -8   8  15    7.21    1.52
   8   8 -15    8.52    1.16
  -8   8  16    7.69    1.32
   8  -8 -16    6.67    1.42
  -8  -8  16    6.18    1.38
  -8   9   1  111.20   11.37
  -8   9   1  103.60   11.58
   8  -9  -1  108.36   11.39
   8   9  -1  116.43   11.43
  -8  -9   1  122.25   11.44
  -8   9   2   -0.04    0.52
  -8   9   2    0.52    0.95
   8  -9  -2    0.51    0.56
   8   9  -2    0.14    0.55
  -8  -9   2    0.97    0.88
  -8   9   3  146.54   15.13
  -8   9   3  142.81   15.36
   8  -9  -3  147.70   15.16
   8   9  -3  160.78   15.17
  -8  -9   3  151.17   15.31
  -8   9   4   11.75    1.39
  -8   9   4    9.47    1.67
   8  -9  -4   10.20    1.41
   8   9  -4   11.54    1.39
  -8  -9   4   11.09    1.62
  -8   9   5   21.97    2.50
  -8   9   5   21.62    2.73
   8  -9  -5   21.23    2.52
   8   9  -5   24.18    2.49
  -8  -9   5   22.75    2.47
  -8  -9   5   22.91    2.68
  -8   9   6    1.88    0.70
  -8   9   6    2.24    1.10
   8  -9  -6    1.70    0.75
   8   9  -6    2.02    0.62
  -8  -9   6    1.45    0.58
  -8  -9   6    1.23    0.95
  -8   9   7    9.92    1.42
  -8   9   7   11.46    1.71
   8  -9  -7   11.15    1.48
   8   9  -7    9.92    1.34
  -8  -9   7   11.02    1.33
  -8  -9   7   11.25    1.61
  -8   9   8    0.96    1.07
   8  -9  -8    0.99    0.80
   8   9  -8    1.13    0.60
  -8  -9   8    1.35    0.56
  -8  -9   8    1.81    0.99
  -8   9   9   28.49    3.14
  -8   9   9   26.51    3.27
   8   9  -9   28.46    3.02
  -8  -9   9   27.55    3.00
  -8  -9   9   28.04    3.22
  -8   9  10    0.25    0.76
   8  -9 -10    0.20    0.83
   8   9 -10    0.46    0.58
  -8  -9  10    0.81    0.55
  -8  -9  10    0.76    0.97
  -8   9  11   10.73    1.80
   8  -9 -11   11.36    1.68
   8   9 -11   11.02    1.42
  -8  -9  11   11.83    1.41
  -8  -9  11   11.33    1.67
  -8   9  12    4.87    1.29
   8  -9 -12    4.31    1.19
   8   9 -12    5.01    0.89
  -8  -9  12    6.23    0.89
  -8  -9  12    5.71    1.23
  -8   9  13    1.15    0.86
  -8   9  13    0.00    1.05
   8  -9 -13    0.64    0.97
   8   9 -13    0.48    0.60
  -8  -9  13    0.80    0.57
  -8  -9  13    1.84    0.99
  -8   9  14    5.74    1.18
  -8   9  14    3.88    1.29
   8  -9 -14    6.33    1.32
   8   9 -14    4.82    0.87
  -8  -9  14    4.88    0.85
  -8  -9  14    4.21    1.19
  -8   9  15   14.99    1.99
  -8   9  15   12.11    2.02
   8  -9 -15   15.42    2.10
  -8  10   1    1.15    0.53
  -8  10   1    0.94    1.01
   8 -10  -1    0.54    0.55
   8  10  -1    0.90    0.66
  -8 -10   1    0.54    0.57
  -8  10   2    1.29    0.55
  -8  10   2    0.60    0.98
   8 -10  -2    0.30    0.57
   8  10  -2    0.81    0.59
  -8 -10   2    0.51    0.90
  -8  10   3   -0.04    0.55
  -8  10   3   -0.13    0.97
   8 -10  -3    0.26    0.60
   8  10  -3    0.31    0.56
  -8 -10   3   -0.50    0.91
  -8  10   4   22.15    2.45
  -8  10   4   19.23    2.67
   8 -10  -4   18.89    2.45
   8  10  -4   24.53    2.46
  -8 -10   4   24.38    2.44
  -8 -10   4   20.91    2.63
  -8  10   5    0.23    0.62
  -8  10   5    0.52    1.00
   8 -10  -5    0.19    0.69
   8  10  -5    0.24    0.56
  -8 -10   5    0.31    0.52
  -8 -10   5   -0.21    0.93
  -8  10   6   34.41    4.17
   8 -10  -6   36.90    4.03
   8  10  -6   37.06    3.95
  -8 -10   6   38.30    3.94
  -8 -10   6   39.22    4.15
  -8  10   7   41.22    4.54
  -8  10   7   39.69    4.70
   8  10  -7   44.41    4.49
  -8 -10   7   42.60    4.46
  -8 -10   7   44.50    4.68
  -8  10   8    4.91    1.01
  -8  10   8    3.46    1.27
   8 -10  -8    4.20    1.05
  -8 -10   8    6.08    0.85
  -8 -10   8    4.88    1.21
  -8  10   9    3.17    0.74
  -8  10   9    2.95    1.18
   8 -10  -9    1.60    0.93
  -8 -10   9    3.03    0.67
  -8 -10   9    3.25    1.09
   8 -10 -10    1.21    0.92
  -8 -10  10    1.06    0.56
  -8 -10  10    2.32    1.08
  -8  10  11   31.12    3.36
  -8  10  11   24.81    3.42
   8 -10 -11   27.09    3.38
  -8 -10  11   33.68    3.18
  -8 -10  11   26.53    3.36
  -8  10  12   10.25    1.59
  -8  10  12   12.01    1.77
   8 -10 -12    9.81    1.68
  -8 -10  12   10.17    1.33
  -8 -10  12   12.28    1.70
  -8  10  13   20.81    2.45
  -8  10  13   16.48    2.48
   8 -10 -13   20.49    2.52
  -8 -10  13   19.17    2.45
  -8  11   1   34.70    3.57
  -8  11   1   24.65    3.79
   8 -11  -1   29.46    3.59
   8  11  -1   40.64    3.69
  -8 -11   1   39.97    3.66
  -8  11   2   64.31    7.09
   8  11  -2   70.27    6.88
  -8 -11   2   63.24    7.02
  -8  11   3    0.78    0.59
   8 -11  -3    0.79    0.65
   8  11  -3    0.25    0.58
  -8 -11   3    1.00    0.98
  -8  11   4   13.30    1.66
  -8  11   4   14.01    2.02
   8 -11  -4   12.10    1.69
   8  11  -4   14.32    1.66
  -8 -11   4   14.25    1.64
  -8 -11   4   15.59    1.95
  -8  11   5   10.65    1.44
  -8  11   5    8.35    1.74
   8  11  -5   11.76    1.41
  -8 -11   5   12.84    1.40
  -8 -11   5    9.74    1.67
  -8  11   6    0.15    0.66
  -8  11   6    0.73    1.11
   8 -11  -6    0.05    0.73
   8  11  -6    0.00    0.56
  -8 -11   6    0.19    0.53
  -8 -11   6   -0.41    1.00
  -8  11   7    2.26    0.79
  -8  11   7    1.90    1.18
   8 -11  -7    2.15    0.87
  -8 -11   7    1.21    0.59
  -8 -11   7    3.06    1.09
  -8  11   8   10.71    1.84
   8 -11  -8   11.48    1.64
  -8 -11   8   11.76    1.41
  -8  11   9    0.18    0.77
  -8  11   9    0.22    1.14
   8 -11  -9    0.11    0.87
  -8 -11   9    0.11    0.53
  -8 -11   9    0.80    1.01
  -8  11  10   29.91    3.21
   8 -11 -10   24.70    3.24
  -8 -11  10   28.90    3.02
  -8 -11  10   27.49    3.29
  -8  11  11    0.30    0.84
  -8  11  11    0.27    1.15
   8 -11 -11    0.24    0.96
   8  11 -11    0.27    0.59
  -8 -11  11   -0.33    0.54
  -8 -11  11   -0.06    0.96
  -8  11  12    1.13    0.91
  -8  11  12    1.93    1.18
   8 -11 -12    1.07    1.04
  -8 -11  12    1.31    1.02
  -8  12   1   31.09    3.36
  -8  12   1   32.81    3.42
  -8  12   1   29.27    3.73
   8  12  -1   36.69    3.52
  -8 -12   1   32.81    3.48
  -8  12   2    0.62    0.39
  -8  12   2    0.38    0.53
  -8  12   2    1.61    1.12
   8  12  -2    0.68    0.61
  -8 -12   2    0.01    1.01
   8  12  -3   23.79    2.53
  -8 -12   3   21.53    2.51
  -8 -12   3   23.98    2.80
  -8  12   4    0.06    0.61
  -8  12   4    0.08    1.08
   8  12  -4    0.30    0.59
  -8 -12   4   -0.18    0.56
  -8 -12   4   -0.01    0.99
  -8  12   5    3.70    0.85
  -8  12   5    3.70    1.29
   8  12  -5    3.34    0.77
  -8 -12   5    4.29    0.76
  -8 -12   5    4.04    1.19
  -8  12   6    4.18    1.41
  -8 -12   6    7.21    0.98
  -8 -12   6    6.38    1.36
  -8  12   7    8.79    1.31
  -8  12   7    7.16    1.60
  -8 -12   7    8.85    1.14
  -8 -12   7    7.74    1.51
  -8  12   8    0.23    0.76
  -8  12   8   -0.11    1.17
   8  12  -8    0.18    0.58
  -8 -12   8    0.11    0.53
  -8  12   9    0.83    0.81
  -8  12   9    1.16    1.20
   8  12  -9    1.03    0.61
  -8 -12   9    1.11    0.56
  -8 -12   9    0.40    1.04
  -8  12  10   -0.09    0.81
  -8 -12  10    0.15    1.05
  -8  13   1   16.62    1.88
  -8  13   1   16.73    1.95
  -8  13   1   15.91    2.38
   8  13  -1   21.64    2.10
  -8 -13   1   18.84    2.03
  -8  13   2    3.85    0.63
  -8  13   2    4.47    0.77
  -8  13   2    4.81    1.36
   8  13  -2    5.03    0.85
  -8 -13   2    4.14    1.25
  -8  13   3    3.37    0.59
  -8  13   3    3.56    0.77
   8  13  -3    3.21    0.76
  -8 -13   3    3.68    0.74
  -8 -13   3    3.19    1.17
  -8  13   4    0.03    0.41
  -8  13   4   -0.66    1.15
   8  13  -4    0.02    0.59
  -8 -13   4    0.05    0.55
  -8 -13   4    0.29    1.03
  -8  13   5    8.46    0.99
  -8  13   5    7.09    1.15
  -8  13   5    5.94    1.54
  -8 -13   5    7.25    1.05
  -8 -13   5    7.30    1.47
  -8  13   6    1.14    0.75
  -8  13   6    0.51    1.16
  -8 -13   6    0.61    0.55
  -8 -13   6    1.24    1.07
  -8  13   7    0.74    0.76
  -8  13   7    0.21    1.17
  -8 -13   7    0.89    1.08
  -8  13   8    1.79    0.86
  -8  13   8    2.52    1.29
  -8  14   1   14.25    1.65
  -8  14   1    9.65    2.06
   8  14  -1   15.28    1.74
  -8 -14   1   15.76    1.73
  -8  14   2    1.25    1.21
   8  14  -2    1.86    0.67
  -8 -14   2    1.96    1.12
  -8  14   3    3.19    0.75
  -8 -14   3    2.81    1.20
  -8  14   4    1.91    0.72
  -8  14   4    1.77    1.25
  -8 -14   4    1.76    1.13
  -8  14   5    0.88    1.22
  -8 -14   5    0.47    1.10
  -7   0   1  120.64   12.07
  -7   0   1  117.52   12.14
   7   0  -1  120.78   12.07
  -7   0   2    0.07    0.42
  -7   0   2   -0.06    0.68
   7   0  -2    0.18    0.51
  -7   0   3  368.45   36.05
  -7   0   3  329.07   36.10
   7   0  -3  380.31   36.06
  -7   0   4    0.06    0.43
  -7   0   4    0.33    0.71
   7   0  -4    0.36    0.54
  -7   0   5  202.02   21.05
  -7   0   5  214.47   21.13
   7   0  -5  215.86   21.07
  -7   0   6   -0.04    0.46
  -7   0   6    0.63    0.73
   7   0  -6    0.02    0.55
  -7   0   7  318.72   32.43
  -7   0   7  340.44   32.51
   7   0  -7  319.63   32.44
  -7   0   8    0.05    0.48
  -7   0   8   -0.04    0.72
   7   0  -8   -0.14    0.55
  -7   0  10    0.03    0.56
  -7   0  10    0.34    0.75
   7   0 -10   -0.08    0.60
  -7   0  11   94.66    9.50
  -7   0  11   96.21    9.54
   7   0 -11   88.67    9.49
  -7   0  12   -0.30    0.62
  -7   0  12    0.15    0.72
   7   0 -12    0.25    0.65
  -7   0  13  162.00   17.18
  -7   0  13  184.20   17.27
   7   0 -13  168.14   17.21
  -7   0  14   -0.30    0.67
  -7   0  14   -0.08    0.79
   7   0 -14    0.18    0.68
  -7   0  15   33.69    3.66
  -7   0  16   -0.15    0.71
  -7   0  16   -0.34    0.87
   7   0 -16    0.12    0.72
  -7   0  17   12.70    1.64
  -7   0  17   11.69    1.70
   7   0 -17   12.49    1.67
  -7   0  18    0.70    0.94
   7   0 -18    0.57    0.79
  -7   0  19    0.15    0.78
  -7   0  19    0.04    0.89
   7   0 -19   -0.01    0.77
  -7   1   1   78.38    7.72
  -7   1   1   70.53    7.79
   7  -1  -1   78.83    7.74
   7   1  -1   77.58    7.73
  -7  -1   1   75.65    7.72
  -7  -1   1   73.61    7.78
  -7   1   2   25.76    2.93
   7  -1  -2   30.72    2.98
   7   1  -2   26.16    2.94
  -7  -1   2   23.99    2.93
  -7  -1   2   41.56    3.13
  -7   1   3    9.11    1.22
  -7   1   3   13.16    1.43
   7  -1  -3   10.17    1.28
   7   1  -3    9.75    1.24
  -7  -1   3    9.65    1.23
  -7  -1   3   14.47    1.44
  -7   1   4    1.42    0.49
  -7   1   4    1.79    0.79
   7  -1  -4    1.54    0.61
   7   1  -4    2.04    0.61
  -7  -1   4    1.88    0.52
  -7  -1   4    1.43    0.77
  -7   1   5  114.05   12.31
  -7   1   5  138.74   12.43
   7  -1  -5  114.99   12.32
   7   1  -5  124.31   12.33
  -7  -1   5  114.66   12.30
  -7  -1   5  141.09   12.43
  -7   1   6   23.20    2.69
  -7   1   6   26.61    2.81
   7  -1  -6   23.58    2.72
   7   1  -6   27.87    2.74
  -7  -1   6   23.67    2.69
  -7  -1   6   28.01    2.81
  -7   1   7    6.29    0.94
  -7   1   7    7.27    1.10
   7  -1  -7    6.32    0.95
   7   1  -7    6.22    0.94
  -7  -1   7    5.16    0.88
  -7  -1   7    7.34    1.08
  -7   1   8  128.69   13.71
  -7   1   8  147.43   13.79
   7  -1  -8  130.98   13.72
   7   1  -8  135.81   13.73
  -7  -1   8  140.35   13.77
  -7   1   9   36.50    3.90
   7  -1  -9   36.82    3.91
   7   1  -9   39.15    3.91
  -7  -1   9   36.04    3.88
  -7  -1   9   35.69    3.94
  -7   1  10    1.39    0.80
   7  -1 -10    1.32    0.66
   7   1 -10    1.24    0.65
  -7  -1  10    2.04    0.61
  -7  -1  10    1.63    0.80
  -7   1  11  126.39   12.83
  -7   1  11  119.40   12.85
   7  -1 -11  128.49   12.85
   7   1 -11  127.81   12.83
  -7  -1  11  130.05   12.82
  -7  -1  11  125.91   12.86
  -7   1  12  198.94   19.30
  -7   1  12  190.97   19.33
   7  -1 -12  195.71   19.32
   7   1 -12  180.85   19.27
  -7  -1  12  186.37   19.27
  -7  -1  12  199.14   19.34
  -7   1  13    2.23    0.74
  -7   1  13    0.84    0.80
   7   1 -13    1.30    0.71
  -7  -1  13    1.50    0.68
  -7  -1  13    0.64    0.74
  -7   1  14    5.18    1.02
  -7   1  14    6.23    1.12
   7   1 -14    6.04    1.04
  -7  -1  14    6.33    1.02
  -7  -1  14    5.61    1.08
  -7   1  15    1.05    0.73
   7  -1 -15    0.61    0.73
   7   1 -15    0.10    0.69
  -7  -1  15    0.70    0.69
  -7   1  16    0.41    0.83
   7  -1 -16    0.40    0.75
   7   1 -16    1.35    0.76
  -7  -1  16    0.62    0.69
  -7  -1  16    0.86    0.86
  -7   1  17    1.17    0.89
   7  -1 -17    0.19    0.78
  -7  -1  17    0.69    0.71
  -7  -1  17   -0.56    0.90
  -7   1  18    7.44    1.22
  -7   1  18    5.25    1.25
   7  -1 -18    7.01    1.24
   7   1 -18    7.32    1.20
  -7  -1  18    8.12    1.19
  -7  -1  18    6.52    1.30
  -7   1  19   17.63    1.93
  -7   1  19   12.03    1.89
   7  -1 -19   13.91    1.90
   7   1 -19   14.88    1.88
  -7  -1  19   14.53    1.94
  -7   2   1   22.76    2.58
  -7   2   1   31.70    2.76
   7  -2  -1   24.68    2.61
   7   2  -1   20.51    2.59
  -7  -2   1   29.43    2.73
  -7   2   2  258.29   27.41
   7  -2  -2  259.01   27.41
   7   2  -2  275.42   27.43
  -7  -2   2  335.41   27.55
  -7   2   3   14.94    2.00
  -7   2   3   29.03    2.26
   7  -2  -3   17.63    2.05
   7   2  -3   15.85    2.02
  -7  -2   3   27.26    2.22
  -7   2   4  117.32   12.39
  -7   2   4  143.39   12.52
   7  -2  -4  113.75   12.40
   7   2  -4  114.29   12.39
  -7  -2   4  144.11   12.51
  -7   2   5   18.40    2.08
  -7   2   5   23.31    2.24
   7  -2  -5   19.46    2.10
   7   2  -5   15.72    2.04
  -7  -2   5   20.59    2.19
  -7   2   6   12.78    1.70
  -7   2   6   23.64    1.94
   7  -2  -6   13.61    1.72
   7   2  -6   11.63    1.67
  -7  -2   6   21.83    1.89
  -7   2   7   40.20    4.30
  -7   2   7   41.34    4.37
   7  -2  -7   38.34    4.30
   7   2  -7   43.60    4.31
  -7  -2   7   38.96    4.28
  -7  -2   7   45.72    4.38
  -7   2   8   51.02    5.60
  -7   2   8   56.75    5.69
   7  -2  -8   52.78    5.62
   7   2  -8   57.54    5.62
  -7  -2   8   50.82    5.58
  -7  -2   8   58.37    5.68
  -7   2   9   68.27    7.20
   7  -2  -9   68.71    7.21
   7   2  -9   72.71    7.20
  -7  -2   9   64.11    7.16
  -7  -2   9   79.81    7.27
  -7   2  10  201.34   20.15
  -7   2  10  215.81   20.22
   7  -2 -10  193.89   20.15
   7   2 -10  193.14   20.12
  -7  -2  10  191.95   20.11
  -7  -2  10  213.87   20.19
  -7   2  11    1.83    0.72
  -7   2  11    4.38    0.87
   7  -2 -11    2.20    0.77
   7   2 -11    2.07    0.70
  -7  -2  11    1.20    0.62
  -7  -2  11    3.68    0.80
  -7   2  12    1.10    0.68
  -7   2  12    0.61    0.76
   7   2 -12    0.51    0.64
  -7  -2  12    0.28    0.56
  -7  -2  12    0.39    0.69
  -7   2  13   33.23    3.65
  -7   2  13   31.91    3.67
   7  -2 -13   35.04    3.69
   7   2 -13   34.51    3.64
  -7  -2  13   35.88    3.63
  -7  -2  13   31.57    3.65
  -7   2  14   52.04    5.65
  -7   2  14   50.44    5.67
   7  -2 -14   52.27    5.68
   7   2 -14   58.25    5.66
  -7  -2  14   55.68    5.63
  -7  -2  14   54.18    5.67
   7  -2 -15  103.61   11.10
   7   2 -15  109.37   11.07
  -7  -2  15  111.37   11.06
  -7   2  16   16.07    2.01
  -7   2  16   16.77    2.05
   7  -2 -16   17.31    2.06
   7   2 -16   16.19    1.99
  -7  -2  16   15.65    1.95
  -7  -2  16   15.80    2.02
  -7   2  17    1.75    0.84
  -7   2  17    1.46    0.91
   7  -2 -17    1.16    0.84
   7   2 -17    1.77    0.80
  -7  -2  17    1.96    0.77
  -7  -2  17    0.76    0.90
  -7   2  18    0.61    0.81
  -7   2  18    0.14    0.92
   7  -2 -18   -0.32    0.82
  -7  -2  18   -0.40    0.71
  -7  -2  18    0.15    0.89
  -7   2  19    0.31    0.82
  -7   2  19    0.68    0.95
   7  -2 -19    0.87    0.86
  -7  -2  19    0.10    0.71
  -7  -2  19    1.17    0.98
  -7   3   1  117.75   11.92
  -7   3   1  132.11   12.06
   7  -3  -1  112.97   11.92
   7   3  -1  117.45   11.94
   7  -3  -2   13.43    1.50
   7   3  -2   12.64    1.48
  -7  -3   2   12.51    1.60
  -7   3   3  272.35   28.94
  -7   3   3  312.82   29.07
   7  -3  -3  270.50   28.95
   7   3  -3  300.61   28.97
  -7  -3   3  315.77   29.06
  -7   3   4  285.15   30.33
  -7   3   4  331.69   30.46
   7  -3  -4  288.36   30.33
   7   3  -4  306.79   30.34
  -7  -3   4  327.59   30.43
  -7   3   5  181.68   19.21
  -7   3   5  204.43   19.33
   7  -3  -5  189.46   19.23
  -7  -3   5  197.60   19.29
  -7   3   6   10.41    1.39
  -7   3   6   15.29    1.59
   7  -3  -6   11.75    1.42
   7   3  -6    9.68    1.36
  -7  -3   6   13.31    1.53
  -7   3   7   32.30    3.74
  -7   3   7   41.46    3.87
   7  -3  -7   34.22    3.77
   7   3  -7   33.94    3.74
  -7  -3   7   39.39    3.84
  -7   3   8   27.59    2.88
  -7   3   8   24.49    2.93
   7  -3  -8   27.63    2.90
   7   3  -8   25.52    2.85
  -7  -3   8   27.18    2.94
  -7   3   9    6.33    1.01
   7  -3  -9    6.76    1.06
   7   3  -9    7.60    1.00
  -7  -3   9    6.56    1.13
  -7   3  10   13.80    1.74
  -7   3  10   13.15    1.81
   7   3 -10   15.14    1.73
  -7  -3  10   14.68    1.69
  -7  -3  10   15.38    1.82
  -7   3  11  107.09   11.70
  -7   3  11  116.91   11.76
   7  -3 -11  113.87   11.74
   7   3 -11  120.56   11.70
  -7  -3  11  113.68   11.67
  -7  -3  11  119.15   11.73
  -7   3  12   12.65    1.59
  -7   3  12   11.01    1.61
   7  -3 -12   12.27    1.62
   7   3 -12   11.58    1.54
  -7  -3  12   13.22    1.52
  -7  -3  12   13.55    1.63
  -7   3  13  159.20   16.81
   7  -3 -13  168.62   16.83
   7   3 -13  169.74   16.76
  -7  -3  13  166.35   16.73
  -7  -3  13  164.45   16.79
  -7   3  14  120.08   11.90
  -7   3  14  110.38   11.89
   7  -3 -14  117.89   11.93
   7   3 -14  122.60   11.87
  -7  -3  14  110.69   11.88
  -7   3  15    9.52    1.47
   7  -3 -15   10.82    1.52
   7   3 -15    9.81    1.41
  -7  -3  15   11.40    1.42
  -7   3  16   10.84    1.60
  -7   3  16   10.76    1.65
   7  -3 -16   10.92    1.63
   7   3 -16   11.47    1.54
  -7  -3  16   13.30    1.55
  -7  -3  16   12.29    1.63
  -7   3  17   26.32    2.98
  -7   3  17   21.86    2.96
   7  -3 -17   26.43    3.01
   7   3 -17   26.66    2.92
  -7  -3  17   28.52    2.91
  -7  -3  17   25.26    2.96
  -7   3  18    7.94    1.31
  -7   3  18    4.19    1.29
   7  -3 -18    8.24    1.34
   7   3 -18    8.51    1.24
  -7  -3  18    9.68    1.23
  -7  -3  18    5.74    1.28
  -7   3  19    4.71    1.14
  -7   3  19    4.69    1.23
   7  -3 -19    5.92    1.21
   7   3 -19    6.03    1.07
  -7  -3  19    6.15    1.05
  -7  -3  19    5.59    1.22
  -7   4   1  180.56   18.18
  -7   4   1  214.39   18.35
   7  -4  -1  171.36   18.18
   7   4  -1  176.68   18.20
  -7   4   2  276.72   28.02
   7  -4  -2  270.73   28.03
   7   4  -2  282.17   28.05
  -7  -4   2  302.61   28.15
  -7   4   3  274.32   26.05
   7  -4  -3  244.22   25.92
  -7  -4   3  270.72   26.04
  -7   4   4   37.95    4.18
  -7   4   4   48.68    4.35
   7  -4  -4   40.00    4.20
   7   4  -4   38.19    4.18
  -7  -4   4   35.73    4.16
  -7  -4   4   48.58    4.32
  -7   4   5  170.04   17.52
  -7   4   5  163.39   17.59
   7  -4  -5  175.00   17.53
   7   4  -5  183.24   17.52
  -7  -4   5  181.01   17.51
  -7  -4   5  169.25   17.59
  -7   4   6    4.19    0.80
  -7   4   6    6.68    1.04
   7  -4  -6    4.12    0.83
   7   4  -6    4.93    0.78
  -7  -4   6    4.52    0.76
  -7  -4   6    5.93    0.98
  -7   4   7   71.80    7.92
  -7   4   7   76.94    8.01
   7  -4  -7   79.39    7.96
   7   4  -7   80.40    7.92
  -7  -4   7   76.46    7.90
  -7  -4   7   81.49    8.00
  -7   4   8    1.12    0.62
  -7   4   8    3.58    0.90
   7   4  -8    1.23    0.56
  -7  -4   8    3.05    0.82
  -7   4   9  287.71   30.14
   7   4  -9  300.35   30.11
  -7  -4   9  318.82   30.20
  -7   4  10    6.84    1.10
  -7   4  10    8.70    1.28
   7  -4 -10    7.47    1.17
   7   4 -10    7.37    1.05
  -7  -4  10    7.82    1.22
  -7   4  11    9.98    1.29
   7  -4 -11    6.47    1.12
   7   4 -11    5.33    0.96
  -7  -4  11    7.31    1.14
  -7   4  12    4.64    1.15
   7   4 -12    7.79    1.07
  -7  -4  12    8.06    1.03
  -7  -4  12    5.86    1.14
  -7   4  13  129.12   13.35
  -7   4  13  118.59   13.36
   7  -4 -13  127.89   13.38
   7   4 -13  143.57   13.33
  -7  -4  13  137.33   13.29
  -7  -4  13  126.67   13.36
  -7   4  14    0.50    0.71
  -7   4  14    0.51    0.84
   7  -4 -14    0.20    0.76
   7   4 -14    0.30    0.64
  -7  -4  14    0.07    0.56
  -7  -4  14    0.12    0.80
  -7   4  15    1.05    0.77
   7  -4 -15    1.17    0.83
   7   4 -15    1.20    0.71
  -7  -4  15    1.37    0.63
  -7   4  16    4.51    1.04
  -7   4  16    2.91    1.07
   7  -4 -16    5.57    1.09
   7   4 -16    2.99    0.88
  -7  -4  16    5.54    0.88
  -7  -4  16    3.76    1.02
  -7   4  17    0.55    0.85
  -7   4  17    0.81    0.96
   7  -4 -17    1.39    0.89
   7   4 -17    0.24    0.70
  -7  -4  17    0.77    0.71
  -7  -4  17    0.47    0.87
  -7   4  18   24.05    2.71
  -7   4  18   19.23    2.69
   7  -4 -18   21.98    2.72
   7   4 -18   22.89    2.59
  -7  -4  18   26.46    2.60
  -7  -4  18   20.21    2.65
  -7   4  19    6.97    1.29
  -7   4  19    6.87    1.37
   7   4 -19    6.14    1.13
  -7  -4  19    7.94    1.15
  -7  -4  19    5.89    1.28
  -7   5   1    3.05    0.61
  -7   5   1    2.27    0.87
   7  -5  -1    3.10    0.63
   7   5  -1    4.42    0.68
  -7   5   2  308.04   31.10
   7  -5  -2  299.08   31.10
   7   5  -2  321.11   31.13
  -7  -5   2  310.01   31.13
  -7  -5   2  327.58   31.23
  -7   5   3   20.09    2.12
  -7   5   3   16.77    2.24
   7  -5  -3   19.26    2.13
   7   5  -3   20.04    2.13
  -7  -5   3   21.24    2.13
  -7  -5   3   16.94    2.21
  -7   5   4    3.13    0.82
  -7   5   4    8.63    1.19
   7  -5  -4    8.05    0.98
   7   5  -4    8.11    0.95
  -7  -5   4    8.71    0.94
  -7  -5   4    8.07    1.14
  -7   5   5   62.60    6.58
  -7   5   5   58.89    6.65
   7  -5  -5   64.05    6.61
   7   5  -5   68.91    6.58
  -7  -5   5   64.47    6.56
  -7  -5   5   64.45    6.67
  -7   5   6   36.35    4.14
  -7   5   6   50.35    4.34
   7   5  -6   37.00    4.13
  -7  -5   6   37.17    4.12
  -7  -5   6   44.94    4.26
  -7   5   7   11.52    1.49
  -7   5   7   11.73    1.63
   7   5  -7   12.77    1.46
  -7  -5   7   12.88    1.44
  -7  -5   7   11.64    1.60
  -7   5   8   33.59    3.63
  -7   5   8   36.05    3.74
   7  -5  -8   33.32    3.66
   7   5  -8   34.64    3.60
  -7  -5   8   33.13    3.58
  -7   5   9   14.48    1.69
   7  -5  -9   13.47    1.71
   7   5  -9   14.16    1.62
  -7  -5   9   12.51    1.58
  -7  -5   9   14.58    1.76
  -7   5  10  108.06   10.85
   7  -5 -10  101.68   10.81
   7   5 -10  107.66   10.73
  -7  -5  10  101.51   10.70
  -7  -5  10  110.97   10.82
  -7   5  11    3.95    0.88
  -7   5  11    2.64    1.03
   7  -5 -11    4.01    0.93
   7   5 -11    4.55    0.77
  -7  -5  11    2.87    0.91
  -7   5  12   86.70    9.08
  -7   5  12   90.18    9.15
   7  -5 -12   87.35    9.12
   7   5 -12   86.86    9.02
  -7  -5  12   91.00    9.11
  -7   5  13    3.41    1.02
   7   5 -13    4.58    0.80
  -7  -5  13    3.36    0.97
  -7   5  14    0.55    0.74
  -7   5  14    1.47    0.92
   7  -5 -14    1.69    0.84
   7   5 -14    1.33    0.69
  -7  -5  14    1.68    0.62
  -7  -5  14    1.45    0.88
  -7   5  15   10.28    1.45
  -7   5  15    8.10    1.51
   7  -5 -15    8.55    1.49
   7   5 -15   10.66    1.36
  -7  -5  15   10.94    1.32
  -7   5  16    4.40    1.06
  -7   5  16    5.15    1.21
   7  -5 -16    5.06    1.15
   7   5 -16    5.65    0.98
  -7  -5  16    4.71    0.89
  -7  -5  16    5.32    1.14
  -7   5  17   11.19    1.63
  -7   5  17    9.92    1.68
   7   5 -17   11.69    1.50
  -7  -5  17   11.16    1.43
  -7  -5  17   10.96    1.60
  -7   5  18    0.17    0.86
  -7   5  18    0.56    1.01
   7  -5 -18    0.30    0.92
   7   5 -18    0.74    0.71
  -7  -5  18    0.70    0.63
  -7  -5  18    0.52    0.90
  -7   6   1  224.86   23.63
  -7   6   1  290.29   23.87
   7  -6  -1  231.87   23.65
   7   6  -1  231.42   23.68
  -7   6   2   75.28    7.56
   7  -6  -2   75.60    7.58
   7   6  -2   75.78    7.59
  -7  -6   2   72.25    7.58
  -7  -6   2   72.53    7.68
  -7   6   3   43.18    4.57
  -7   6   3   51.28    4.75
   7  -6  -3   43.74    4.58
   7   6  -3   43.56    4.57
  -7  -6   3   40.38    4.55
  -7  -6   3   47.70    4.70
  -7   6   4   62.97    6.71
  -7   6   4   74.78    6.88
   7   6  -4   66.48    6.71
  -7  -6   4   59.77    6.69
  -7  -6   4   70.69    6.83
  -7   6   5  148.30   14.69
   7   6  -5  145.28   14.55
  -7  -6   5  142.38   14.53
  -7  -6   5  143.10   14.64
  -7   6   6    3.12    0.74
  -7   6   6    3.59    0.99
   7  -6  -6    4.04    0.82
   7   6  -6    4.39    0.72
  -7  -6   6    3.99    0.69
  -7  -6   6    4.20    0.95
  -7   6   7   12.06    1.55
  -7   6   7   15.23    1.77
   7  -6  -7   13.24    1.60
   7   6  -7   11.82    1.50
  -7  -6   7   11.72    1.48
  -7  -6   7   15.54    1.71
  -7   6   8   70.32    7.41
   7  -6  -8   71.11    7.35
   7   6  -8   74.81    7.28
  -7  -6   8   68.15    7.25
  -7   6   9    5.84    0.98
   7  -6  -9    6.42    1.05
   7   6  -9    4.75    0.87
  -7  -6   9    5.77    0.86
  -7  -6   9    6.65    1.12
  -7   6  10   56.01    5.98
  -7   6  10   58.32    6.06
   7  -6 -10   56.56    6.01
   7   6 -10   57.44    5.91
  -7  -6  10   58.14    5.90
  -7  -6  10   56.43    6.01
  -7   6  11   15.22    1.83
  -7   6  11   15.81    1.96
   7  -6 -11   14.74    1.86
   7   6 -11   13.96    1.70
  -7  -6  11   15.01    1.69
  -7  -6  11   12.79    1.82
  -7   6  12   13.82    1.69
  -7   6  12   11.04    1.73
   7  -6 -12   12.84    1.72
   7   6 -12   13.04    1.55
  -7  -6  12   13.26    1.53
  -7  -6  12   11.70    1.68
  -7   6  13    2.88    0.89
  -7   6  13    2.05    1.01
   7  -6 -13    3.40    0.97
   7   6 -13    3.62    0.73
  -7  -6  13    3.84    0.72
  -7  -6  13    2.60    0.96
  -7   6  14    0.05    0.72
  -7   6  14    0.59    0.91
   7  -6 -14    0.48    0.83
   7   6 -14    0.54    0.57
  -7  -6  14    0.54    0.86
  -7   6  15    2.60    0.89
  -7   6  15    2.32    1.03
   7  -6 -15    2.86    0.99
   7   6 -15    2.54    0.71
  -7  -6  15    2.29    0.99
  -7   6  16    7.39    1.31
  -7   6  16    6.55    1.42
   7   6 -16    7.93    1.15
  -7  -6  16    8.52    1.13
  -7  -6  16    8.09    1.38
  -7   6  17   31.29    3.35
  -7   6  17   24.75    3.33
   7  -6 -17   29.11    3.38
   7   6 -17   28.90    3.18
  -7  -6  17   31.96    3.17
  -7  -6  17   26.67    3.28
  -7   6  18    0.47    1.07
   7  -6 -18    0.31    0.93
  -7  -6  18    0.14    0.95
  -7   7   1    3.54    0.63
  -7   7   1    3.28    0.95
   7  -7  -1    4.36    0.68
   7   7  -1    3.43    0.69
  -7  -7   1    3.74    0.69
  -7   7   2   34.26    3.66
   7   7  -2   34.47    3.69
  -7  -7   2   32.92    3.67
  -7  -7   2   43.05    3.86
  -7   7   3   30.50    3.52
  -7   7   3   35.96    3.73
   7   7  -3   35.17    3.56
  -7  -7   3   31.46    3.53
  -7  -7   3   40.78    3.72
  -7   7   4    3.43    0.73
  -7   7   4    7.75    1.12
   7  -7  -4    4.38    0.79
   7   7  -4    4.21    0.75
  -7  -7   4    3.41    0.70
  -7  -7   4    5.82    1.01
  -7   7   5   78.71    8.36
  -7   7   5   87.20    8.53
   7  -7  -5   80.51    8.38
  -7  -7   5   81.37    8.33
  -7  -7   5   85.34    8.47
  -7   7   6   15.85    1.87
   7  -7  -6   13.23    1.66
  -7  -7   6   13.28    1.57
  -7  -7   6   13.27    1.76
  -7   7   7   10.67    1.27
  -7   7   7    7.41    1.43
   7  -7  -7    9.77    1.30
  -7  -7   7    9.16    1.15
  -7  -7   7    7.84    1.36
  -7   7   8    9.89    1.33
  -7   7   8   11.02    1.55
   7  -7  -8   10.36    1.39
  -7  -7   8    9.10    1.21
  -7   7   9    0.23    0.63
   7  -7  -9    0.64    0.73
  -7  -7   9    0.46    0.50
  -7  -7   9    0.09    0.81
  -7   7  10   15.04    1.85
  -7   7  10   12.78    1.95
   7  -7 -10   14.47    1.88
  -7  -7  10   15.75    1.73
  -7  -7  10   16.30    1.96
  -7   7  11   65.74    7.09
  -7   7  11   61.06    7.14
   7  -7 -11   69.92    7.15
  -7  -7  11   75.06    7.02
  -7  -7  11   66.36    7.12
  -7   7  12    0.05    0.72
  -7   7  12    0.16    0.91
   7  -7 -12    0.12    0.80
   7   7 -12    0.09    0.54
  -7  -7  12    0.52    0.53
  -7  -7  12    0.76    0.83
  -7   7  13    4.55    0.99
  -7   7  13    3.45    1.12
   7  -7 -13    2.74    1.01
   7   7 -13    3.88    0.77
  -7  -7  13    4.31    0.76
  -7  -7  13    3.97    1.02
  -7   7  14    0.52    0.79
  -7   7  14    0.80    0.98
   7   7 -14    0.32    0.56
  -7  -7  14    0.14    0.54
  -7  -7  14   -0.65    0.87
  -7   7  15    5.42    1.09
  -7   7  15    4.09    1.24
   7  -7 -15    5.50    1.20
   7   7 -15    5.46    0.90
  -7  -7  15    4.75    0.86
  -7  -7  15    6.41    1.21
  -7   7  16    8.39    1.62
   7  -7 -16    8.61    1.56
   7   7 -16   10.87    1.32
  -7  -7  16   10.15    1.56
  -7   7  17   18.65    2.14
  -7   7  17   13.17    2.14
   7  -7 -17   15.26    2.17
  -7  -7  17   16.99    2.13
  -7   8   1  235.50   23.53
  -7   8   1  221.49   23.72
   7   8  -1  241.03   23.58
  -7  -8   1  237.73   23.58
  -7   8   2   53.69    5.65
   7  -8  -2   59.26    5.69
   7   8  -2   52.68    5.67
  -7  -8   2   53.46    5.67
  -7  -8   2   58.40    5.83
  -7   8   3   22.17    2.34
  -7   8   3   20.84    2.56
   7  -8  -3   22.38    2.36
   7   8  -3   21.27    2.34
  -7  -8   3   21.81    2.34
  -7  -8   3   18.70    2.48
  -7   8   4    1.72    0.95
   7  -8  -4    0.87    0.59
  -7  -8   4    0.75    0.49
  -7  -8   4    1.78    0.85
  -7   8   5    4.79    0.84
  -7   8   5    5.37    1.16
   7  -8  -5    4.46    0.88
  -7  -8   5    5.08    0.79
  -7  -8   5    5.61    1.08
  -7   8   6   33.33    3.45
  -7   8   6   30.14    3.59
   7  -8  -6   29.59    3.45
  -7  -8   6   33.36    3.39
  -7  -8   6   33.32    3.56
  -7   8   7   44.98    5.14
   7  -8  -7   47.14    5.06
  -7  -8   7   50.71    4.97
  -7  -8   7   46.70    5.10
  -7   8   8   85.85    9.02
  -7   8   8   89.92    9.15
   7  -8  -8   85.61    9.05
  -7  -8   8   89.72    8.94
  -7   8   9   29.09    3.24
   7  -8  -9   28.19    3.27
  -7  -8   9   30.72    3.14
  -7  -8   9   28.94    3.31
  -7   8  10   14.99    1.94
  -7   8  10   16.12    2.12
   7  -8 -10   17.10    2.02
  -7  -8  10   14.73    1.79
  -7  -8  10   17.80    2.06
  -7   8  11    0.11    0.73
  -7   8  11   -0.15    1.00
   7  -8 -11    0.23    0.80
  -7  -8  11    0.16    0.51
  -7  -8  11    0.40    0.84
  -7   8  12   14.70    1.84
  -7   8  12   12.41    1.91
  -7  -8  12   13.97    1.62
  -7  -8  12   13.91    1.85
  -7   8  13    6.95    1.22
  -7   8  13    4.45    1.30
   7  -8 -13    6.17    1.27
  -7  -8  13    7.37    0.97
  -7  -8  13    6.71    1.26
  -7   8  14    0.41    0.82
  -7   8  14    0.03    0.99
   7  -8 -14    0.05    0.90
  -7  -8  14    0.17    0.53
  -7  -8  14    1.13    0.90
  -7   8  15    4.63    1.26
   7  -8 -15    4.79    1.21
  -7  -8  15    5.16    0.85
  -7  -8  15    5.07    1.19
  -7   8  16    4.77    1.10
  -7   8  16    4.40    1.27
   7  -8 -16    3.85    1.22
  -7  -8  16    5.22    1.22
  -7   9   1   -0.10    0.44
  -7   9   1   -0.28    0.87
   7  -9  -1    0.23    0.47
   7   9  -1    0.04    0.52
  -7  -9   1    0.08    0.50
   7  -9  -2   82.78    8.84
   7   9  -2   89.47    8.86
  -7  -9   2   87.25    8.85
  -7  -9   2   89.81    9.00
  -7   9   3    7.95    1.04
  -7   9   3    5.03    1.31
   7  -9  -3    6.82    1.05
  -7  -9   3   10.16    1.08
  -7  -9   3    7.34    1.28
  -7   9   4    8.52    1.15
  -7   9   4    7.66    1.43
   7  -9  -4    8.31    1.18
  -7  -9   4    9.67    1.13
  -7  -9   4    8.82    1.39
  -7   9   5   10.93    1.38
  -7   9   5   12.25    1.67
   7  -9  -5   11.63    1.43
  -7  -9   5    9.29    1.30
  -7  -9   5   12.85    1.60
  -7   9   6    2.12    0.68
  -7   9   6    1.54    1.01
   7  -9  -6    2.23    0.75
   7   9  -6    2.01    0.61
  -7  -9   6    1.77    0.56
  -7  -9   6    1.27    0.91
  -7   9   7    7.36    1.10
  -7   9   7    4.75    1.31
   7  -9  -7    6.65    1.14
   7   9  -7    7.98    1.03
  -7  -9   7    7.78    0.99
  -7  -9   7    6.89    1.27
  -7   9   8    1.59    0.57
  -7   9   8    0.58    0.99
   7  -9  -8    1.40    0.78
   7   9  -8    0.44    0.55
  -7  -9   8    0.85    0.51
  -7   9   9    4.50    0.92
   7  -9  -9    3.79    0.97
   7   9  -9    3.81    0.75
  -7  -9   9    3.67    0.70
  -7  -9   9    3.23    1.05
  -7   9  10    1.20    0.78
  -7   9  10    1.10    1.01
   7   9 -10    0.94    0.58
  -7  -9  10    1.34    0.54
  -7  -9  10    1.14    0.95
  -7   9  11   23.43    2.74
  -7   9  11   22.98    2.86
   7   9 -11   23.69    2.59
  -7  -9  11   23.63    2.56
  -7  -9  11   23.88    2.78
  -7   9  12   43.59    4.62
  -7   9  12   35.03    4.61
   7  -9 -12   42.78    4.66
   7   9 -12   44.61    4.46
  -7  -9  12   46.94    4.45
  -7  -9  12   37.52    4.59
  -7   9  13    1.13    1.06
   7  -9 -13    2.25    1.03
   7   9 -13    2.38    0.66
  -7  -9  13    2.32    0.63
  -7  -9  13    1.94    0.99
  -7   9  14    1.75    0.92
  -7   9  14    1.81    1.09
   7  -9 -14    0.93    1.00
   7   9 -14    1.67    0.64
  -7  -9  14    2.51    0.61
  -7  -9  14    1.58    1.00
  -7   9  15    7.45    1.32
  -7   9  15    6.09    1.44
   7  -9 -15    6.91    1.43
  -7  -9  15    6.57    1.34
  -7  10   1    0.14    0.46
  -7  10   1   -0.19    0.96
   7 -10  -1   -0.22    0.49
   7  10  -1    0.23    0.52
  -7 -10   1    0.46    0.52
  -7  10   2    8.13    1.03
   7 -10  -2    6.62    1.04
   7  10  -2    7.92    1.07
  -7 -10   2    8.28    1.06
  -7 -10   2    7.90    1.33
  -7  10   3  111.24   11.24
  -7  10   3  109.46   11.46
   7 -10  -3  111.24   11.27
  -7 -10   3  111.24   11.24
  -7 -10   3  111.09   11.41
  -7  10   4   10.17    1.22
  -7  10   4    6.81    1.51
   7 -10  -4    7.88    1.23
  -7 -10   4   10.29    1.19
  -7 -10   4    9.10    1.46
  -7  10   5    7.11    1.13
  -7  10   5    9.97    1.52
   7 -10  -5    7.31    1.18
   7  10  -5    8.44    1.11
  -7 -10   5    8.34    1.08
  -7 -10   5    9.11    1.40
  -7  10   6    0.48    0.62
  -7  10   6    1.34    1.05
   7 -10  -6    0.50    0.71
   7  10  -6    0.14    0.53
  -7 -10   6    0.01    0.48
  -7 -10   6   -0.13    0.89
  -7  10   7    0.29    0.66
  -7  10   7    1.58    1.04
   7 -10  -7   -0.04    0.74
   7  10  -7   -0.04    0.54
  -7 -10   7    0.09    0.49
  -7 -10   7    0.88    0.94
  -7  10   8   42.61    4.52
  -7  10   8   31.03    4.58
   7  10  -8   44.53    4.43
  -7 -10   8   46.30    4.42
  -7  10   9   29.58    3.29
  -7  10   9   25.69    3.43
   7  10  -9   29.90    3.18
  -7 -10   9   30.98    3.16
  -7 -10   9   29.89    3.38
  -7  10  10    0.22    0.76
  -7  10  10   -0.06    1.05
   7 -10 -10    0.21    0.84
   7  10 -10    0.32    0.55
  -7 -10  10    0.11    0.49
  -7 -10  10    0.07    0.96
  -7  10  11    7.48    1.59
   7 -10 -11    9.85    1.50
   7  10 -11    8.96    1.19
  -7 -10  11    8.87    1.15
  -7 -10  11    8.76    1.48
  -7  10  12   30.06    3.35
  -7  10  12   23.23    3.36
   7 -10 -12   26.59    3.38
   7  10 -12   31.61    3.17
  -7 -10  12   31.62    3.14
  -7 -10  12   28.01    3.35
  -7  10  13    3.38    0.99
  -7  10  13    1.39    1.14
   7 -10 -13    3.11    1.11
   7  10 -13    2.66    0.69
  -7 -10  13    2.74    0.65
  -7 -10  13    2.92    1.07
  -7  10  14    4.35    1.10
  -7  10  14    2.49    1.23
   7 -10 -14    4.29    1.23
  -7 -10  14    3.59    1.15
  -7  11   1    0.19    0.34
  -7  11   1    0.19    0.46
  -7  11   1   -0.47    1.00
   7  11  -1    0.00    0.53
  -7 -11   1   -0.28    0.53
  -7  11   2   13.41    1.51
  -7  11   2   13.54    1.59
   7  11  -2   14.06    1.63
  -7 -11   2   15.11    1.63
  -7 -11   2   11.94    1.83
  -7  11   3   14.61    1.70
  -7  11   3   11.68    2.00
  -7 -11   3   16.07    1.70
  -7 -11   3   13.92    1.95
  -7  11   4    0.51    0.61
  -7  11   4    0.87    1.05
  -7 -11   4    0.80    0.52
  -7 -11   4    1.26    0.97
  -7  11   5    1.66    0.69
  -7  11   5    1.27    1.09
   7  11  -5    2.20    0.63
  -7 -11   5    2.04    0.59
  -7 -11   5    1.52    0.99
  -7  11   6   14.34    1.70
  -7  11   6   11.87    1.95
   7  11  -6   14.07    1.61
  -7 -11   6   13.44    1.58
  -7 -11   6   12.33    1.86
  -7  11   7    1.61    0.74
  -7  11   7   -0.13    1.08
   7  11  -7    1.23    0.60
  -7 -11   7    1.61    0.56
  -7 -11   7    0.79    0.98
  -7  11   8    4.53    0.94
  -7  11   8    5.60    1.31
   7 -11  -8    4.13    1.03
   7  11  -8    3.20    0.74
  -7 -11   8    3.20    0.70
  -7  11   9    1.04    1.14
   7  11  -9    1.45    0.62
  -7 -11   9    2.28    0.60
  -7 -11   9    1.92    1.04
  -7  11  10    3.79    1.01
  -7  11  10    6.55    1.38
   7  11 -10    4.01    0.79
  -7 -11  10    4.19    0.76
  -7 -11  10    4.50    1.22
  -7  11  11   80.17    8.41
  -7  11  11   67.69    8.43
   7  11 -11   90.35    8.27
  -7 -11  11   82.70    8.23
  -7 -11  11   74.24    8.40
  -7  11  12    3.04    0.98
  -7  11  12    1.01    1.13
  -7 -11  12    1.95    1.07
  -7  11  13   11.30    1.31
  -7  11  13    8.73    1.52
  -7  11  13    8.30    1.65
  -7 -11  13    7.34    1.52
  -7  12   1    3.79    0.55
  -7  12   1    2.65    0.64
  -7  12   1    0.57    1.12
   7  12  -1    3.40    0.74
  -7 -12   1    4.40    0.74
  -7  12   2   79.20    7.78
  -7  12   2   76.10    7.83
   7  12  -2   79.06    7.87
  -7 -12   2   77.70    7.84
  -7 -12   2   66.89    8.00
  -7  12   3   21.87    2.36
  -7  12   3   16.67    2.62
  -7 -12   3   23.71    2.36
  -7 -12   3   19.25    2.57
  -7  12   4    8.10    0.95
  -7  12   4    6.53    1.07
  -7  12   4    4.91    1.43
   7  12  -4    7.48    1.07
  -7 -12   4    8.35    1.04
  -7 -12   4    6.56    1.36
  -7  12   5    0.79    0.46
  -7  12   5    0.95    0.66
  -7  12   5    1.71    1.13
   7  12  -5    1.17    0.59
  -7 -12   5    1.46    0.56
  -7 -12   5    1.38    1.01
  -7  12   6   26.10    2.71
  -7  12   6   24.97    2.83
  -7  12   6   19.60    3.01
   7  12  -6   26.58    2.76
  -7 -12   6   26.18    2.74
  -7 -12   6   24.78    3.00
  -7  12   7    6.08    0.86
  -7  12   7    4.45    1.37
   7  12  -7    5.98    0.92
  -7 -12   7    5.75    0.88
  -7 -12   7    5.71    1.30
  -7  12   8    0.65    0.50
  -7  12   8    0.23    0.73
  -7  12   8    0.37    1.11
   7  12  -8    0.27    0.56
  -7 -12   8    0.14    0.51
  -7  12   9    8.44    1.11
  -7  12   9    7.96    1.34
  -7  12   9    8.22    1.62
   7  12  -9    8.35    1.14
  -7 -12   9    8.56    1.10
  -7 -12   9    8.82    1.51
  -7  12  10    1.03    0.55
  -7  12  10   -0.67    0.60
  -7  12  10    1.10    1.14
   7  12 -10    1.43    0.59
  -7 -12  10    1.91    1.09
  -7  12  11    2.16    0.66
  -7  12  11    2.18    0.95
  -7  12  11    2.02    1.22
  -7 -12  11    2.31    1.09
  -7  13   1    0.20    0.36
  -7  13   1    0.93    0.51
  -7  13   1    1.11    1.13
   7  13  -1    0.54    0.58
  -7 -13   1    0.26    0.54
  -7  13   2   -0.24    0.38
  -7  13   2   -0.21    0.54
  -7  13   2    0.56    1.13
  -7 -13   2   -0.02    0.53
  -7 -13   2    0.08    0.99
  -7  13   3    0.38    0.41
  -7  13   3    0.09    0.59
  -7  13   3   -0.57    1.12
  -7 -13   3    0.14    0.53
  -7 -13   3    0.23    0.98
  -7  13   4    2.95    0.56
  -7  13   4    2.13    0.73
  -7  13   4    1.62    1.21
   7  13  -4    2.49    0.70
  -7 -13   4    3.40    0.68
  -7 -13   4    1.86    1.07
  -7  13   5    2.83    0.59
  -7  13   5    2.65    1.25
   7  13  -5    3.37    0.72
  -7 -13   5    2.85    0.67
  -7 -13   5    3.64    1.16
  -7  13   6   18.44    1.94
  -7  13   6   15.49    2.07
  -7  13   6   13.14    2.33
   7  13  -6   18.42    1.99
  -7 -13   6   19.59    1.98
  -7 -13   6   14.73    2.26
  -7  13   7    0.00    0.47
  -7  13   7    0.07    0.71
  -7  13   7    0.03    1.16
   7  13  -7    0.05    0.56
  -7 -13   7    0.48    0.51
  -7 -13   7    1.20    1.06
  -7  13   8    1.03    0.81
  -7  13   8    1.17    1.20
  -7  13   9    6.26    1.19
  -7  13   9    5.29    1.47
  -7 -13   9    5.98    1.37
  -7  13  10    9.95    1.50
  -7  13  10    8.63    1.72
  -7 -13  10    8.93    1.57
  -7  14   1    9.09    1.18
  -7  14   1   12.75    1.30
  -7  14   1   11.72    1.87
   7  14  -1   11.44    1.36
  -7 -14   1   10.16    1.32
  -7  14   2    5.01    0.66
  -7  14   2    4.13    0.79
  -7  14   2    1.75    1.29
  -7 -14   2    4.66    0.79
  -7 -14   2    3.02    1.19
  -7  14   3    1.58    1.26
   7  14  -3    2.08    0.66
  -7 -14   3    2.00    0.62
  -7 -14   3    2.42    1.13
  -7  14   4    1.60    0.71
  -7  14   4    1.12    1.23
  -7 -14   4    1.45    1.08
  -7  14   5   -0.15    0.66
  -7  14   5    0.08    1.19
  -7 -14   5   -0.49    1.04
  -7  14   6    0.50    0.71
  -7  14   6   -0.69    1.21
  -7 -14   6    0.15    1.03
  -7  14   7    1.09    0.80
  -7  14   7    1.20    1.24
  -7 -14   7    0.91    1.09
  -7  15   1    0.46    1.21
  -7 -15   1    0.18    1.09
  -6   0   1   -0.15    0.39
   6   0  -1    0.31    0.38
  -6   0   2   70.73    7.68
  -6   0   2   94.58    7.79
   6   0  -2   70.94    7.68
  -6   0   3   -0.04    0.40
   6   0  -3   -0.03    0.38
  -6   0   4 1118.19   93.09
   6   0  -4  859.95   92.90
  -6   0   5   -0.22    0.67
   6   0  -5    0.02    0.42
  -6   0   6    3.12    0.77
   6   0  -6    1.97    0.56
  -6   0   7    0.10    0.46
  -6   0   7   -0.12    0.69
   6   0  -7    0.05    0.45
  -6   0   8    5.50    0.86
   6   0  -8    6.44    0.92
  -6   0   9    0.33    0.70
  -6   0  10  128.70   13.01
  -6   0  10  139.78   13.06
   6   0 -10  120.04   13.01
  -6   0  11    0.14    0.53
  -6   0  11   -0.19    0.64
   6   0 -11    0.03    0.59
  -6   0  12    0.37    0.59
  -6   0  12    0.62    0.68
   6   0 -12    0.87    0.64
  -6   0  13   -0.17    0.60
  -6   0  13    0.23    0.68
   6   0 -13   -0.08    0.63
  -6   0  14    7.66    1.11
  -6   0  14    6.75    1.16
   6   0 -14    6.87    1.12
  -6   0  15   -0.07    0.66
  -6   0  15    0.00    0.77
   6   0 -15   -0.04    0.66
  -6   0  16  178.18   17.06
  -6   0  16  161.98   17.05
   6   0 -16  165.08   17.06
  -6   0  17    0.19    0.71
  -6   0  17   -0.18    0.84
  -6   0  18   66.98    6.90
  -6   0  18   64.75    6.91
   6   0 -18   66.83    6.93
  -6   0  19   -0.23    0.76
  -6   0  19    0.49    0.87
   6   0 -19    0.21    0.74
  -6   0  20    4.43    1.07
   6   0 -20    4.75    1.04
   6  -1  -1  558.04   56.59
   6   1  -1  576.45   56.60
  -6  -1   1  572.02   56.60
   6  -1  -2  258.63   25.59
   6   1  -2  253.35   25.59
  -6  -1   2  256.53   25.59
   6  -1  -3   12.36    1.37
   6   1  -3   11.39    1.36
  -6  -1   3   12.16    1.37
  -6   1   4  133.27   11.79
   6  -1  -4  104.76   11.68
   6   1  -4  112.81   11.69
  -6  -1   4  111.93   11.69
  -6  -1   4  130.83   11.78
  -6   1   5  166.74   17.37
  -6   1   5  187.44   17.44
   6  -1  -5  163.58   17.37
   6   1  -5  175.04   17.37
  -6  -1   5  165.41   17.36
  -6  -1   5  193.14   17.44
  -6   1   6    7.29    0.99
  -6   1   6    8.98    1.18
   6  -1  -6    7.30    1.04
   6   1  -6    7.49    1.00
  -6  -1   6    7.78    1.01
  -6  -1   6    8.90    1.16
  -6   1   7   18.86    2.44
  -6   1   7   29.87    2.61
   6  -1  -7   22.44    2.49
   6   1  -7   20.87    2.46
  -6  -1   7   27.69    2.57
  -6   1   8   75.55    7.97
   6  -1  -8   81.15    8.00
  -6   1   9  148.87   14.56
  -6   1   9  153.97   14.60
   6  -1  -9  135.36   14.56
   6   1  -9  142.23   14.55
  -6  -1   9  139.91   14.54
  -6  -1   9  148.78   14.58
  -6   1  10    0.84    0.75
   6   1 -10    2.47    0.65
  -6  -1  10    2.29    0.59
  -6  -1  10    0.95    0.74
  -6   1  11    5.41    0.93
  -6   1  11    7.54    1.04
   6  -1 -11    6.01    0.97
   6   1 -11    4.71    0.92
  -6  -1  11    5.17    0.89
  -6  -1  11    7.08    0.99
  -6   1  12    0.25    0.60
  -6   1  12    0.41    0.70
   6  -1 -12    0.44    0.63
   6   1 -12    0.97    0.61
  -6  -1  12    0.34    0.54
  -6  -1  12    0.65    0.65
  -6   1  13   12.54    1.56
  -6   1  13   11.89    1.59
   6  -1 -13   12.79    1.60
   6   1 -13   12.64    1.57
  -6  -1  13   11.53    1.51
  -6  -1  13   13.12    1.58
  -6   1  14    2.76    0.83
  -6   1  14    4.34    0.94
   6  -1 -14    3.89    0.88
   6   1 -14    3.97    0.86
  -6  -1  14    3.75    0.83
  -6  -1  14    5.41    0.93
  -6   1  15   98.12   10.10
  -6   1  15   96.00   10.11
   6   1 -15   97.86   10.10
  -6  -1  15  102.08   10.09
  -6  -1  15   99.03   10.12
  -6   1  16   11.00    1.41
  -6   1  16    8.04    1.41
   6   1 -16   10.90    1.41
  -6  -1  16   11.98    1.40
  -6  -1  16    7.52    1.39
  -6   1  17    1.78    0.78
  -6   1  17    0.82    0.84
   6  -1 -17    0.84    0.77
   6   1 -17    2.03    0.78
  -6  -1  17    1.62    0.75
  -6  -1  17    0.85    0.87
  -6   1  18   -0.53    0.84
   6  -1 -18    0.07    0.76
   6   1 -18    0.22    0.72
  -6  -1  18    0.05    0.71
  -6  -1  18   -0.12    0.85
  -6   1  19   43.88    4.34
  -6   1  19   35.05    4.30
   6  -1 -19   40.31    4.35
  -6  -1  19   46.22    4.33
  -6  -1  19   35.27    4.29
  -6   1  20    1.76    0.87
  -6   1  20    0.88    0.94
   6  -1 -20    2.33    0.91
   6   1 -20    2.07    0.83
  -6  -1  20    2.92    0.85
  -6  -1  20    2.05    0.95
   6  -2  -1  163.09   16.86
   6   2  -1  171.35   16.87
  -6  -2   1  171.18   16.87
  -6   2   2   92.10    9.10
   6  -2  -2   93.01    9.10
   6   2  -2   88.93    9.10
  -6  -2   2   86.27    9.09
  -6   2   3   63.03    6.62
  -6   2   3   72.00    6.73
   6  -2  -3   64.14    6.63
   6   2  -3   63.27    6.63
  -6  -2   3   61.71    6.62
  -6  -2   3   72.01    6.72
  -6   2   4   33.06    3.56
  -6   2   4   40.23    3.68
   6  -2  -4   34.57    3.58
   6   2  -4   32.34    3.56
  -6  -2   4   31.39    3.55
  -6  -2   4   37.50    3.65
  -6   2   5   91.10    9.18
  -6   2   5   88.66    9.25
   6  -2  -5   86.42    9.18
   6   2  -5   94.80    9.18
  -6  -2   5   95.15    9.18
  -6  -2   5   85.92    9.22
  -6   2   6    7.04    1.03
  -6   2   6   13.05    1.28
   6  -2  -6    7.98    1.09
   6   2  -6    6.90    1.02
  -6  -2   6    6.69    1.01
  -6  -2   6   12.83    1.24
  -6   2   7  253.58   26.86
  -6   2   7  290.40   26.95
   6  -2  -7  250.97   26.87
  -6  -2   7  298.41   26.95
  -6   2   8   91.05    9.59
  -6   2   8  100.71    9.66
   6  -2  -8   91.67    9.61
   6   2  -8   96.68    9.59
  -6  -2   8   93.66    9.58
  -6   2   9   51.02    5.49
  -6   2   9   56.38    5.55
   6  -2  -9   52.53    5.51
   6   2  -9   49.14    5.47
  -6  -2   9   58.56    5.56
  -6   2  10  164.77   16.92
  -6   2  10  164.18   16.94
   6  -2 -10  165.69   16.93
   6   2 -10  166.71   16.89
  -6  -2  10  179.18   16.94
  -6   2  11  143.67   14.32
   6  -2 -11  144.86   14.31
   6   2 -11  139.28   14.26
  -6  -2  11  137.08   14.24
  -6  -2  11  142.54   14.28
  -6   2  12    5.28    0.94
  -6   2  12    5.45    0.99
   6  -2 -12    5.74    0.98
   6   2 -12    5.54    0.91
  -6  -2  12    5.10    0.86
  -6  -2  12    5.08    0.94
  -6   2  13   10.68    1.39
  -6   2  13   12.32    1.44
   6  -2 -13   10.41    1.41
   6   2 -13    9.61    1.34
  -6  -2  13    8.57    1.28
  -6  -2  13   10.77    1.39
  -6   2  14    1.17    0.72
  -6   2  14    2.15    0.81
   6   2 -14    1.50    0.70
  -6  -2  14    1.85    0.64
  -6  -2  14    2.04    0.78
  -6   2  15    8.05    1.26
   6  -2 -15    7.81    1.27
   6   2 -15    8.50    1.23
  -6  -2  15    9.06    1.19
  -6  -2  15    8.23    1.26
  -6   2  16   13.40    1.79
   6  -2 -16   14.01    1.81
   6   2 -16   15.05    1.77
  -6  -2  16   14.65    1.73
  -6  -2  16   12.67    1.76
  -6   2  17    0.16    0.83
   6  -2 -17    0.10    0.75
   6   2 -17    0.55    0.70
  -6  -2  17    0.87    0.69
  -6  -2  17    0.00    0.82
  -6   2  18    0.05    0.78
  -6   2  18    0.65    0.87
   6  -2 -18   -0.28    0.79
   6   2 -18   -0.21    0.72
  -6  -2  18   -0.20    0.69
  -6  -2  18   -0.11    0.85
  -6   2  19   31.54    3.25
  -6   2  19   23.76    3.18
   6  -2 -19   28.16    3.25
   6   2 -19   29.44    3.19
  -6  -2  19   31.38    3.18
  -6  -2  19   27.20    3.21
  -6   2  20    2.57    0.92
  -6   2  20    1.62    0.98
   6  -2 -20    1.37    0.90
  -6  -2  20    1.44    0.77
  -6  -2  20    1.39    0.94
  -6   3   1  319.76   32.99
  -6   3   1  376.80   33.12
   6  -3  -1  334.10   32.99
   6   3  -1  320.92   33.01
  -6  -3   1  324.11   33.01
  -6   3   2  609.82   53.07
   6  -3  -2  514.96   52.93
  -6  -3   2  487.62   52.92
  -6  -3   2  576.77   53.05
  -6   3   3   27.17    3.00
  -6   3   3   30.96    3.12
   6  -3  -3   28.72    3.02
  -6  -3   3   27.94    3.00
  -6  -3   3   29.66    3.09
  -6   3   4    1.14    0.47
  -6   3   4    2.60    0.78
   6  -3  -4    1.55    0.57
  -6  -3   4    1.35    0.49
  -6  -3   4    2.89    0.74
  -6   3   5   85.04    8.68
  -6   3   5   78.22    8.73
   6  -3  -5   83.05    8.69
  -6  -3   5   93.22    8.68
  -6  -3   5   86.28    8.73
  -6   3   6   12.01    1.46
  -6   3   6   13.12    1.58
   6  -3  -6   12.08    1.48
  -6  -3   6   12.35    1.43
  -6  -3   6   12.71    1.55
  -6   3   7   14.00    1.74
  -6   3   7   16.35    1.85
   6  -3  -7   14.60    1.77
   6   3  -7   15.41    1.73
  -6  -3   7   14.60    1.71
  -6  -3   7   17.81    1.85
  -6   3   8   71.45    7.71
  -6   3   8   88.54    7.82
   6  -3  -8   75.98    7.74
   6   3  -8   75.05    7.70
  -6  -3   8   71.34    7.68
  -6   3   9  119.97   11.91
  -6   3   9  109.16   11.92
   6  -3  -9  117.03   11.92
   6   3  -9  122.90   11.88
  -6  -3   9  120.21   11.87
  -6  -3   9  113.74   11.91
  -6   3  10  182.79   18.50
  -6   3  10  191.46   18.55
   6  -3 -10  176.96   18.52
   6   3 -10  182.67   18.47
  -6  -3  10  179.13   18.46
  -6  -3  10  193.07   18.53
  -6   3  11  159.23   15.04
  -6   3  11  144.55   15.04
   6  -3 -11  136.93   15.02
   6   3 -11  153.87   14.98
  -6  -3  11  147.03   15.02
  -6   3  12    8.00    1.20
  -6   3  12    7.58    1.23
   6   3 -12    8.48    1.14
  -6  -3  12    9.56    1.24
  -6   3  13   26.32    2.90
  -6   3  13   22.88    2.88
   6  -3 -13   24.66    2.91
   6   3 -13   26.13    2.84
  -6  -3  13   28.03    2.84
  -6  -3  13   27.49    2.90
  -6   3  14   38.15    4.27
  -6   3  14   38.88    4.29
   6  -3 -14   40.50    4.31
   6   3 -14   40.16    4.23
  -6  -3  14   39.80    4.21
  -6  -3  14   42.22    4.28
   6  -3 -15   51.93    5.76
   6   3 -15   56.95    5.72
  -6  -3  15   58.08    5.70
  -6  -3  15   51.09    5.72
  -6   3  16   16.42    2.12
  -6   3  16   17.60    2.16
   6  -3 -16   16.19    2.15
   6   3 -16   19.48    2.11
  -6  -3  16   18.22    2.05
  -6  -3  16   17.24    2.12
  -6   3  17   14.98    1.81
  -6   3  17   12.71    1.81
   6  -3 -17   13.79    1.82
   6   3 -17   14.27    1.73
  -6  -3  17   13.87    1.69
  -6  -3  17   11.87    1.75
  -6   3  18    0.32    0.81
  -6   3  18    1.20    0.92
   6  -3 -18    0.91    0.85
   6   3 -18    1.10    0.73
  -6  -3  18    0.85    0.70
  -6  -3  18    0.68    0.85
  -6   3  19   10.38    1.50
  -6   3  19    8.33    1.51
   6  -3 -19   10.30    1.53
   6   3 -19    9.88    1.40
  -6  -3  19    9.72    1.37
  -6  -3  19   10.04    1.50
  -6   4   1  186.80   19.40
  -6   4   1  215.75   19.55
   6  -4  -1  192.28   19.41
  -6  -4   1  193.62   19.44
  -6   4   2   27.20    2.96
  -6   4   2   24.63    3.06
   6  -4  -2   28.71    2.98
  -6  -4   2   30.67    2.99
  -6  -4   2   29.62    3.07
  -6   4   3  216.04   24.73
  -6   4   3  301.22   24.92
   6  -4  -3  243.49   24.76
  -6  -4   3  241.17   24.75
  -6  -4   3  291.16   24.88
  -6   4   4  695.70   72.68
  -6   4   4  794.45   72.83
   6  -4  -4  697.34   72.69
  -6  -4   4  790.42   72.81
  -6   4   5    0.97    0.54
  -6   4   5    2.93    0.83
   6  -4  -5    1.03    0.58
  -6  -4   5    0.94    0.49
  -6  -4   5    3.55    0.80
  -6   4   6  165.53   17.45
  -6   4   6  197.30   17.57
   6  -4  -6  166.63   17.47
  -6  -4   6  165.32   17.42
  -6  -4   6  190.26   17.54
  -6   4   7    3.71    0.74
  -6   4   7    3.67    0.92
   6  -4  -7    3.98    0.78
  -6  -4   7    3.67    0.66
  -6  -4   7    4.03    0.87
  -6   4   8   68.92    7.05
  -6   4   8   66.37    7.09
   6  -4  -8   65.83    7.05
  -6  -4   8   72.08    7.01
  -6   4   9   12.30    1.42
  -6   4   9   10.19    1.49
   6  -4  -9   11.26    1.44
  -6  -4   9   11.33    1.33
  -6  -4   9    9.93    1.44
  -6   4  10  110.72   11.83
  -6   4  10  112.39   11.87
   6   4 -10  119.18   11.80
  -6  -4  10  121.32   11.79
  -6  -4  10  117.43   11.85
  -6   4  11    4.37    0.89
  -6   4  11    6.05    1.00
   6  -4 -11    5.29    0.96
   6   4 -11    4.01    0.79
  -6  -4  11    4.48    0.78
  -6  -4  11    5.66    0.96
  -6   4  12   22.37    2.52
  -6   4  12   23.17    2.56
   6   4 -12   20.87    2.43
  -6  -4  12   21.40    2.43
  -6  -4  12   24.28    2.54
  -6   4  13    0.75    0.80
   6  -4 -13    1.27    0.75
   6   4 -13    1.38    0.60
  -6  -4  13    1.76    0.78
  -6   4  14   30.68    3.39
  -6   4  14   29.14    3.40
   6  -4 -14   30.06    3.41
   6   4 -14   31.68    3.32
  -6  -4  14   32.02    3.39
  -6   4  15    3.33    0.90
   6  -4 -15    3.73    0.94
   6   4 -15    3.45    0.79
  -6  -4  15    2.86    0.72
  -6  -4  15    3.09    0.93
  -6   4  16   26.00    2.84
  -6   4  16   21.41    2.81
   6  -4 -16   23.58    2.85
   6   4 -16   25.82    2.75
  -6  -4  16   26.42    2.72
  -6  -4  16   23.39    2.78
  -6   4  17   13.54    1.77
  -6   4  17   12.91    1.80
   6  -4 -17   13.64    1.81
   6   4 -17   13.07    1.66
  -6  -4  17   13.39    1.62
  -6  -4  17   12.17    1.72
  -6   4  18   18.13    2.18
  -6   4  18   16.31    2.18
   6  -4 -18   17.57    2.21
   6   4 -18   16.91    2.06
  -6  -4  18   17.93    2.03
  -6  -4  18   16.60    2.12
  -6   4  19    3.13    0.98
  -6   4  19    1.81    1.07
   6  -4 -19    1.66    0.98
   6   4 -19    3.13    0.83
  -6  -4  19    3.14    0.82
  -6  -4  19    3.36    1.00
  -6   5   1  207.63   23.23
  -6   5   1  290.37   23.43
   6  -5  -1  238.05   23.25
  -6   5   2    7.00    0.87
  -6   5   2    5.51    1.09
   6  -5  -2    6.41    0.88
  -6  -5   2    6.86    0.88
  -6  -5   2    5.82    1.05
  -6   5   3   35.37    3.54
  -6   5   3   33.60    3.66
   6  -5  -3   34.89    3.56
  -6  -5   3   34.36    3.53
  -6  -5   3   29.91    3.60
  -6   5   4   22.35    2.72
  -6   5   4   28.18    2.91
   6  -5  -4   24.74    2.77
   6   5  -4   27.03    2.78
  -6  -5   4   26.90    2.75
  -6  -5   4   29.80    2.89
  -6   5   5    3.15    0.64
  -6   5   5    2.00    0.87
   6  -5  -5    3.81    0.70
   6   5  -5    2.83    0.62
  -6  -5   5    2.84    0.58
  -6  -5   5    1.84    0.80
  -6   5   6    2.06    0.60
  -6   5   6    1.86    0.83
   6  -5  -6    1.87    0.64
   6   5  -6    1.96    0.56
  -6  -5   6    1.55    0.50
  -6  -5   6    2.43    0.78
  -6   5   7   51.64    5.35
  -6   5   7   52.74    5.43
   6  -5  -7   52.58    5.38
   6   5  -7   52.19    5.32
  -6  -5   7   50.60    5.30
  -6  -5   7   49.86    5.38
  -6   5   8   11.88    1.41
  -6   5   8   12.45    1.55
   6   5  -8   10.96    1.34
  -6  -5   8   10.28    1.31
  -6   5   9  157.27   16.67
  -6  -5   9  165.07   16.62
  -6  -5   9  176.25   16.72
  -6   5  10   65.08    6.75
  -6   5  10   67.19    6.81
   6  -5 -10   65.81    6.78
  -6  -5  10   64.62    6.68
  -6  -5  10   63.79    6.76
  -6   5  11   10.31    1.56
   6  -5 -11   12.02    1.57
  -6  -5  11   12.16    1.41
  -6  -5  11   12.30    1.55
  -6   5  12   12.71    1.60
  -6   5  12   10.27    1.63
   6  -5 -12   12.50    1.64
   6   5 -12   12.11    1.49
  -6  -5  12   13.27    1.49
  -6  -5  12   12.89    1.62
  -6   5  13   11.37    1.50
   6  -5 -13    8.29    1.40
   6   5 -13   10.77    1.29
  -6  -5  13    9.05    1.25
  -6  -5  13   10.88    1.43
  -6   5  14   68.87    7.40
  -6   5  14   71.45    7.45
   6  -5 -14   71.44    7.45
   6   5 -14   68.70    7.33
  -6  -5  14   75.59    7.33
  -6   5  15    1.65    0.80
   6  -5 -15    2.06    0.87
   6   5 -15    1.69    0.64
  -6  -5  15    1.77    0.88
  -6   5  16    2.77    0.91
  -6   5  16    2.70    1.01
   6  -5 -16    2.61    0.96
   6   5 -16    3.29    0.75
  -6  -5  16    3.20    0.96
  -6   5  17   22.96    2.55
  -6   5  17   20.92    2.56
   6  -5 -17   19.73    2.54
   6   5 -17   20.39    2.38
  -6  -5  17   21.58    2.37
  -6  -5  17   20.57    2.49
  -6   5  18    1.31    0.89
  -6   5  18    1.84    1.05
   6   5 -18    1.11    0.71
  -6  -5  18    1.59    0.65
  -6  -5  18    1.73    0.89
  -6   5  19    4.26    1.13
  -6   5  19    5.49    1.27
   6  -5 -19    5.04    1.21
  -6  -5  19    5.46    1.14
  -6   6   1    4.94    0.70
  -6   6   1    7.18    1.07
   6  -6  -1    5.70    0.74
  -6  -6   1    3.18    0.71
  -6   6   2  426.35   43.49
   6  -6  -2  442.42   43.51
  -6  -6   2  425.85   43.51
  -6  -6   2  464.76   43.64
  -6   6   3   91.96    9.66
  -6   6   3   90.98    9.78
   6  -6  -3   93.21    9.68
   6   6  -3  101.57    9.68
  -6  -6   3   95.98    9.66
  -6  -6   3   99.73    9.78
  -6   6   4    7.31    1.05
  -6   6   4    8.44    1.29
   6  -6  -4    8.63    1.09
   6   6  -4    8.84    1.06
  -6  -6   4    7.84    1.03
  -6  -6   4    8.94    1.23
  -6   6   5  182.75   17.52
   6  -6  -5  174.32   17.42
   6   6  -5  170.39   17.37
  -6  -6   5  168.07   17.35
  -6  -6   5  175.91   17.47
  -6   6   6    6.14    0.92
  -6   6   6    5.46    1.13
   6   6  -6    6.58    0.89
  -6  -6   6    6.02    0.85
  -6  -6   6    6.78    1.07
  -6   6   7   29.19    3.37
  -6   6   7   32.11    3.49
   6   6  -7   33.64    3.35
  -6  -6   7   30.35    3.32
  -6  -6   7   34.09    3.46
  -6   6   8   53.86    5.48
  -6   6   8   53.29    5.56
   6  -6  -8   54.04    5.51
   6   6  -8   51.78    5.42
  -6  -6   8   51.02    5.40
   6  -6  -9   44.58    5.12
   6   6  -9   50.96    5.08
  -6  -6   9   49.26    5.05
  -6  -6   9   50.30    5.16
  -6   6  10  181.51   16.91
   6  -6 -10  163.12   16.84
   6   6 -10  160.69   16.74
  -6  -6  10  158.04   16.71
  -6  -6  10  181.05   16.86
  -6   6  11  201.94   20.62
  -6   6  11  187.80   20.64
   6  -6 -11  202.89   20.65
   6   6 -11  216.74   20.56
  -6  -6  11  207.39   20.52
  -6  -6  11  204.75   20.63
  -6   6  12    8.66    1.30
  -6   6  12    8.48    1.38
   6  -6 -12    8.44    1.34
  -6  -6  12    9.16    1.15
  -6  -6  12    9.25    1.33
  -6   6  13   15.48    1.87
  -6   6  13   14.37    1.92
   6  -6 -13   14.70    1.90
  -6  -6  13   15.19    1.71
  -6  -6  13   13.30    1.83
  -6   6  14    0.60    0.75
  -6   6  14    0.48    0.91
   6  -6 -14    0.47    0.79
  -6  -6  14    0.32    0.52
  -6   6  15    1.50    0.83
   6  -6 -15    1.99    0.92
   6   6 -15    2.44    0.66
  -6  -6  15    2.16    0.63
  -6  -6  15    2.28    0.92
  -6   6  16    2.23    0.88
  -6   6  16    2.19    1.05
   6  -6 -16    1.71    0.94
   6   6 -16    1.93    0.66
  -6  -6  16    1.59    0.62
  -6  -6  16    1.83    0.93
  -6   6  17   -0.23    0.82
  -6   6  17    0.18    1.00
   6   6 -17    0.00    0.57
  -6  -6  17    0.33    0.57
  -6  -6  17    0.30    0.91
  -6   6  18   15.23    1.92
  -6   6  18   13.64    1.94
   6  -6 -18   13.44    1.93
   6   6 -18   12.64    1.66
  -6  -6  18   14.53    1.87
  -6   7   1   58.46    6.19
  -6   7   1   64.34    6.39
   6  -7  -1   63.51    6.22
  -6  -7   1   59.68    6.23
  -6   7   2  147.10   14.58
   6  -7  -2  146.12   14.60
  -6  -7   2  140.15   14.59
  -6  -7   2  149.34   14.72
  -6   7   3    6.02    0.81
  -6   7   3    4.99    1.08
   6  -7  -3    6.21    0.85
   6   7  -3    5.14    0.80
  -6  -7   3    5.58    0.80
  -6  -7   3    4.13    0.99
  -6   7   4    8.40    1.12
  -6   7   4    7.49    1.35
   6   7  -4    9.58    1.13
  -6  -7   4    9.49    1.11
  -6  -7   4    9.00    1.30
  -6   7   5    9.45    1.22
  -6   7   5   13.19    1.51
   6   7  -5    9.06    1.19
  -6  -7   5    9.08    1.17
  -6  -7   5   10.98    1.40
  -6   7   6   17.30    2.06
   6  -7  -6   14.23    1.88
   6   7  -6   17.59    1.84
  -6  -7   6   15.83    1.80
  -6  -7   6   17.26    1.99
  -6   7   7    4.03    0.99
   6  -7  -7    2.64    0.73
   6   7  -7    2.70    0.62
  -6  -7   7    2.34    0.57
  -6  -7   7    4.25    0.90
  -6   7   8   23.71    2.37
   6  -7  -8   21.20    2.22
   6   7  -8   17.60    2.08
  -6  -7   8   17.35    2.06
  -6   7   9    5.85    1.01
   6  -7  -9    5.76    1.05
   6   7  -9    5.76    0.89
  -6  -7   9    6.98    0.88
  -6  -7   9    6.14    1.12
  -6   7  10   22.88    2.63
  -6   7  10   25.42    2.76
   6  -7 -10   23.63    2.67
   6   7 -10   22.37    2.52
  -6  -7  10   21.93    2.50
  -6  -7  10   26.03    2.71
  -6   7  11    6.24    1.09
  -6   7  11    5.28    1.20
   6  -7 -11    6.65    1.16
   6   7 -11    6.45    0.95
  -6  -7  11    7.48    0.93
  -6  -7  11    5.85    1.14
  -6   7  12   16.40    2.00
  -6   7  12   16.30    2.08
   6  -7 -12   15.98    2.04
   6   7 -12   16.44    1.85
  -6  -7  12   15.62    1.83
  -6  -7  12   16.58    2.01
  -6   7  13    0.81    0.76
  -6   7  13   -0.56    0.91
   6  -7 -13    0.66    0.83
   6   7 -13    0.48    0.53
  -6  -7  13    0.31    0.51
  -6  -7  13    0.97    0.82
  -6   7  14    1.72    1.02
   6   7 -14    3.18    0.70
  -6  -7  14    2.89    0.65
  -6   7  15   26.70    3.13
  -6  -7  15   27.88    2.96
  -6  -7  15   27.35    3.12
  -6   7  16   11.36    1.60
  -6   7  16    8.47    1.63
   6  -7 -16    9.21    1.63
  -6  -7  16   11.45    1.36
  -6  -7  16   12.29    1.62
  -6   7  17   -0.87    1.02
   6  -7 -17    0.04    0.94
  -6  -7  17    0.10    0.53
  -6  -7  17    0.24    0.92
  -6   7  18    0.74    0.89
  -6   7  18    1.63    1.13
   6  -7 -18    0.73    1.01
  -6  -7  18   -0.01    0.95
  -6   8   1   12.73    1.36
  -6   8   1   21.30    1.79
   6  -8  -1   13.25    1.38
  -6  -8   1    7.80    1.35
  -6   8   2  160.18   16.91
   6   8  -2  177.64   16.95
  -6  -8   2  171.48   16.94
  -6  -8   2  167.79   17.05
  -6   8   3   35.92    3.96
  -6   8   3   40.15    4.16
   6   8  -3   38.02    3.97
  -6  -8   3   36.59    3.96
  -6  -8   3   43.60    4.13
  -6   8   4   14.52    1.88
  -6   8   4   15.60    2.09
   6  -8  -4   16.73    1.92
   6   8  -4   18.62    1.91
  -6  -8   4   19.10    1.89
  -6  -8   4   16.60    2.05
  -6   8   5   22.86    2.68
   6  -8  -5   21.60    2.51
   6   8  -5   23.33    2.47
  -6  -8   5   22.78    2.45
  -6  -8   5   23.84    2.63
  -6   8   6    1.73    0.97
   6  -8  -6    3.49    0.77
   6   8  -6    3.60    0.66
  -6  -8   6    3.36    0.62
  -6  -8   6    3.83    0.92
  -6   8   7    1.63    0.54
  -6   8   7    1.94    0.95
   6  -8  -7    1.82    0.72
   6   8  -7    1.99    0.56
  -6  -8   7    2.00    0.52
  -6  -8   7    1.69    0.85
  -6   8   8    4.14    0.81
  -6   8   8    4.33    1.08
   6  -8  -8    3.43    0.86
   6   8  -8    3.19    0.67
  -6  -8   8    2.88    0.63
  -6   8   9    0.38    0.64
   6  -8  -9    0.51    0.73
   6   8  -9    0.73    0.52
  -6  -8   9    0.21    0.46
  -6  -8   9    1.15    0.83
  -6   8  10    7.40    1.24
  -6   8  10    8.50    1.44
   6  -8 -10    7.33    1.30
   6   8 -10    9.05    1.13
  -6  -8  10    8.77    1.09
  -6  -8  10    9.30    1.35
  -6   8  11   41.98    4.48
  -6   8  11   42.18    4.56
   6  -8 -11   40.65    4.51
   6   8 -11   40.99    4.35
  -6  -8  11   41.63    4.34
  -6  -8  11   42.88    4.50
  -6   8  12   12.78    1.64
  -6   8  12   11.68    1.73
   6  -8 -12   11.72    1.69
   6   8 -12   11.93    1.45
  -6  -8  12   12.46    1.43
  -6  -8  12   10.74    1.63
  -6   8  13   -0.37    0.78
  -6   8  13    0.73    0.93
   6   8 -13    0.21    0.53
  -6  -8  13    0.30    0.50
  -6  -8  13    0.33    0.84
  -6   8  14    2.23    0.90
  -6   8  14    1.24    1.01
   6   8 -14    2.23    0.63
  -6  -8  14    2.15    0.60
  -6   8  15    3.88    1.03
   6  -8 -15    4.19    1.13
   6   8 -15    3.73    0.77
  -6  -8  15    3.77    0.74
  -6  -8  15    4.27    1.08
  -6   8  16    5.00    1.30
   6  -8 -16    4.94    1.25
   6   8 -16    4.80    0.86
  -6  -8  16    5.24    0.84
  -6  -8  16    5.11    1.17
  -6   8  17    8.83    1.39
  -6   8  17    7.31    1.51
   6  -8 -17    7.54    1.51
  -6  -8  17    7.47    1.40
  -6   9   1  271.72   27.75
  -6   9   1  309.90   28.03
   6  -9  -1  280.33   27.81
  -6  -9   1  269.96   27.79
  -6   9   2    2.27    0.55
   6  -9  -2    1.88    0.59
   6   9  -2    1.69    0.57
  -6  -9   2    2.13    0.55
  -6  -9   2    2.65    0.89
  -6   9   3    7.16    1.25
   6  -9  -3    5.97    0.92
   6   9  -3    6.16    0.89
  -6  -9   3    5.63    0.87
  -6  -9   3    7.49    1.17
  -6   9   4    1.57    0.98
   6  -9  -4    2.30    0.70
   6   9  -4    3.64    0.66
  -6  -9   4    3.95    0.63
  -6  -9   4    2.04    0.90
  -6   9   5   28.20    3.05
  -6   9   5   27.63    3.23
   6  -9  -5   26.76    3.07
   6   9  -5   29.08    3.01
  -6  -9   5   28.92    3.00
  -6  -9   5   28.74    3.18
  -6   9   6   10.10    1.28
  -6   9   6   10.01    1.52
   6  -9  -6    9.65    1.32
   6   9  -6    9.55    1.20
  -6  -9   6    9.16    1.17
  -6  -9   6    9.78    1.44
  -6   9   7    6.04    0.94
  -6   9   7    4.96    1.19
   6  -9  -7    5.32    1.00
   6   9  -7    5.54    0.84
  -6  -9   7    5.35    0.80
  -6  -9   7    4.80    1.10
  -6   9   8   27.62    3.03
  -6   9   8   30.72    3.20
   6  -9  -8   29.27    3.08
   6   9  -8   27.86    2.93
  -6  -9   8   24.87    2.90
  -6   9   9   59.73    6.07
   6  -9  -9   52.35    6.06
   6   9  -9   59.34    5.96
  -6  -9   9   59.96    5.94
  -6  -9   9   55.23    6.09
  -6   9  10    0.25    0.72
  -6   9  10   -0.32    0.99
   6  -9 -10    0.72    0.80
   6   9 -10    0.11    0.51
  -6  -9  10    0.25    0.47
  -6  -9  10    0.08    0.82
  -6   9  11    2.53    0.85
  -6   9  11    1.83    1.07
   6  -9 -11    2.16    0.92
   6   9 -11    1.55    0.59
  -6  -9  11    1.87    0.56
  -6  -9  11    0.97    0.90
  -6   9  12   12.58    1.74
  -6   9  12   13.19    1.88
   6   9 -12   12.62    1.54
  -6  -9  12   12.68    1.52
  -6  -9  12   14.72    1.80
  -6   9  13   40.32    4.14
  -6   9  13   33.98    4.14
   6  -9 -13   35.76    4.16
   6   9 -13   38.17    3.94
  -6  -9  13   38.67    3.92
  -6  -9  13   34.85    4.08
  -6   9  14   -0.02    1.02
   6  -9 -14    0.49    0.96
   6   9 -14    0.64    0.56
  -6  -9  14    1.47    0.54
  -6   9  15   41.54    4.49
   6   9 -15   40.20    4.27
  -6  -9  15   41.19    4.25
  -6  -9  15   39.33    4.44
  -6   9  16    3.52    1.00
  -6   9  16    2.44    1.18
  -6  -9  16    2.15    1.05
  -6  10   1   40.91    3.87
  -6  10   1   31.92    4.09
  -6 -10   1   36.99    3.92
  -6 -10   1   36.20    4.08
   6  10  -2   17.30    1.95
  -6 -10   2   16.82    1.94
  -6 -10   2   19.47    2.18
  -6  10   3   13.76    1.73
  -6  10   3    9.93    1.96
   6  10  -3   17.78    1.77
  -6 -10   3   19.46    1.77
  -6 -10   3   12.71    1.92
  -6  10   4   67.36    6.85
  -6  10   4   65.95    7.04
   6 -10  -4   62.91    6.89
   6  10  -4   67.68    6.83
  -6 -10   4   68.67    6.82
  -6 -10   4   65.32    6.98
  -6  10   5  187.38   18.36
  -6  10   5  163.67   18.49
   6 -10  -5  185.38   18.48
   6  10  -5  188.49   18.32
  -6 -10   5  184.34   18.30
  -6 -10   5  176.01   18.46
  -6  10   6    0.88    0.64
  -6  10   6    3.84    1.10
   6 -10  -6    1.27    0.73
   6  10  -6    1.14    0.54
  -6 -10   6    0.50    0.48
  -6 -10   6    1.49    0.92
  -6  10   7   -0.17    0.64
  -6  10   7   -0.08    0.99
   6 -10  -7    0.35    0.72
   6  10  -7    0.27    0.51
  -6 -10   7    0.39    0.46
  -6 -10   7    0.43    0.88
  -6  10   8   20.91    2.19
  -6  10   8   16.29    2.37
   6 -10  -8   17.78    2.26
   6  10  -8   18.96    2.08
  -6 -10   8   18.70    2.07
  -6  10   9   34.37    3.84
   6 -10  -9   31.51    3.87
   6  10  -9   35.73    3.71
  -6 -10   9   38.09    3.71
  -6 -10   9   33.57    3.89
  -6  10  10   27.31    2.96
  -6  10  10   23.36    3.05
   6  10 -10   27.91    2.80
  -6 -10  10   25.04    2.76
  -6 -10  10   24.37    2.96
  -6  10  11    0.47    0.79
  -6  10  11    1.63    1.10
   6  10 -11    0.75    0.55
  -6 -10  11    0.64    0.49
  -6 -10  11    0.71    0.91
  -6  10  12    3.92    1.19
   6  10 -12    3.11    0.68
  -6 -10  12    2.89    0.64
  -6 -10  12    2.68    1.04
  -6  10  13    3.24    0.78
  -6  10  13    3.13    1.00
  -6  10  13    1.78    1.13
   6  10 -13    3.03    0.69
  -6 -10  13    3.98    0.68
  -6 -10  13    3.09    1.08
  -6  10  14    1.12    0.91
  -6  10  14   -0.09    1.06
  -6  10  15    1.52    0.69
  -6  10  15    0.48    0.89
  -6  10  15    0.13    1.07
  -6 -10  15    0.22    0.96
  -6  11   1    0.43    0.34
  -6  11   1    0.77    0.49
  -6  11   1    3.31    1.07
  -6 -11   1    0.36    0.50
  -6 -11   1    1.93    0.93
  -6  11   2    8.85    0.98
  -6  11   2    7.07    1.05
   6  11  -2    7.95    1.09
  -6 -11   2    8.96    1.09
  -6 -11   2    8.06    1.38
  -6  11   3    2.17    0.48
  -6  11   3    2.13    0.62
  -6  11   3    1.73    1.07
   6  11  -3    2.01    0.60
  -6 -11   3    1.94    0.58
  -6 -11   3    2.94    0.99
  -6  11   4   15.99    1.65
  -6  11   4   14.48    1.74
  -6  11   4   14.95    2.04
   6  11  -4   14.54    1.71
  -6 -11   4   15.26    1.69
  -6 -11   4   11.73    1.91
  -6  11   5    0.55    0.43
  -6  11   5    0.20    0.60
  -6  11   5   -0.28    1.00
   6  11  -5   -0.03    0.53
  -6 -11   5   -0.47    0.49
  -6 -11   5   -0.31    0.88
  -6  11   6    0.39    0.45
  -6  11   6    0.40    0.65
  -6  11   6    0.34    1.01
   6  11  -6    0.44    0.53
  -6 -11   6    0.70    0.50
  -6 -11   6    0.20    0.92
  -6  11   7   39.84    4.26
  -6  11   7   42.36    4.38
  -6  11   7   43.51    4.57
   6  11  -7   41.38    4.28
  -6 -11   7   39.29    4.25
  -6 -11   7   41.66    4.48
  -6  11   8   36.02    3.84
  -6  11   8   39.45    3.99
  -6  11   8   32.94    4.09
   6  11  -8   37.49    3.85
  -6 -11   8   36.11    3.82
  -6  11   9   13.75    1.54
   6  11  -9   12.66    1.53
  -6 -11   9   12.74    1.50
  -6 -11   9   12.37    1.82
  -6  11  10    0.30    0.53
  -6  11  10    0.28    1.05
   6  11 -10    0.55    0.53
  -6 -11  10    0.24    0.48
  -6 -11  10   -0.26    0.88
  -6  11  11    1.60    0.61
  -6  11  11    1.64    0.86
  -6  11  11    1.00    1.11
   6  11 -11    1.10    0.57
  -6 -11  11    0.83    0.51
  -6 -11  11    1.01    0.96
  -6  11  12    1.08    0.61
  -6  11  12    1.24    0.88
  -6  11  12    0.53    1.06
   6  11 -12    0.94    0.56
  -6 -11  12    0.82    0.51
  -6 -11  12    1.22    0.99
  -6  11  13    0.79    0.63
  -6  11  13    0.62    0.88
  -6  11  13    1.52    1.12
  -6 -11  13    0.93    0.99
  -6  11  14   13.92    1.80
  -6  11  14    9.39    1.81
  -6  12   1   17.96    2.03
  -6  12   1   19.66    2.10
  -6  12   1   15.71    2.42
   6  12  -1   21.29    2.17
  -6 -12   1   20.47    2.14
  -6 -12   1   20.32    2.41
  -6  12   2    0.61    0.39
   6  12  -2    0.55    0.55
  -6 -12   2    0.57    0.52
  -6 -12   2    0.83    0.97
  -6  12   3   40.63    4.06
  -6  12   3   37.24    4.30
   6  12  -3   38.59    4.03
  -6 -12   3   36.99    4.01
  -6 -12   3   38.40    4.24
  -6  12   4   35.84    3.65
  -6  12   4   33.92    3.72
  -6  12   4   28.39    3.92
   6  12  -4   36.77    3.70
  -6 -12   4   38.12    3.70
  -6 -12   4   31.84    3.88
  -6  12   5    1.78    0.50
  -6  12   5    1.01    0.66
  -6  12   5    1.10    1.12
   6  12  -5    1.80    0.61
  -6 -12   5    1.67    0.56
  -6 -12   5    2.35    1.04
  -6  12   6    1.03    0.48
  -6  12   6    0.67    0.69
  -6  12   6    1.59    1.14
   6  12  -6    0.83    0.55
  -6 -12   6    0.72    0.50
  -6 -12   6    0.25    0.94
  -6  12   7   22.51    2.29
  -6  12   7   21.29    2.44
  -6  12   7   18.05    2.62
   6  12  -7   21.15    2.30
  -6 -12   7   20.73    2.28
  -6 -12   7   19.06    2.55
  -6  12   8    1.14    0.53
  -6  12   8    0.83    1.12
   6  12  -8    1.48    0.58
  -6 -12   8    1.57    0.54
  -6 -12   8    1.17    1.03
  -6  12   9   25.93    2.68
  -6  12   9   26.60    2.86
   6  12  -9   24.58    2.66
  -6 -12   9   23.11    2.62
  -6 -12   9   23.25    2.91
  -6  12  10    1.27    0.57
  -6  12  10    0.38    0.58
  -6  12  10    1.82    1.18
   6  12 -10    1.47    0.57
  -6 -12  10    0.75    0.51
  -6 -12  10    2.81    1.02
  -6  12  11   17.93    1.85
  -6  12  11   14.59    2.04
  -6  12  11   13.06    2.19
  -6 -12  11   14.77    2.09
  -6  12  12    4.08    0.74
  -6  12  12    2.22    1.00
  -6  12  12    1.00    1.15
  -6 -12  12    1.36    1.05
  -6  13   1   17.17    1.91
  -6  13   1   18.83    1.99
  -6  13   1   17.06    2.40
   6  13  -1   18.41    2.04
  -6 -13   1   18.42    2.02
  -6 -13   1   17.92    2.32
  -6  13   2    0.87    0.41
  -6  13   2    1.94    0.60
   6  13  -2    1.23    0.58
  -6 -13   2    0.77    0.54
  -6 -13   2    1.49    1.02
  -6  13   3   29.74    3.74
   6  13  -3   33.48    3.45
  -6 -13   3   33.10    3.43
  -6 -13   3   31.06    3.68
  -6  13   4    3.15    0.54
  -6  13   4    1.49    0.68
  -6  13   4    1.60    1.17
   6  13  -4    2.42    0.64
  -6 -13   4    2.20    0.61
  -6 -13   4    1.23    1.04
  -6  13   5    0.16    0.44
  -6  13   5    0.02    0.64
  -6  13   5    0.12    1.09
   6  13  -5    0.40    0.55
  -6 -13   5   -0.45    0.51
  -6 -13   5    0.28    0.99
  -6  13   6    3.36    0.63
  -6  13   6    3.04    1.27
   6  13  -6    2.80    0.68
  -6 -13   6    3.27    0.65
  -6 -13   6    2.28    1.09
  -6  13   7    7.24    0.96
  -6  13   7    7.58    1.19
  -6  13   7    4.55    1.46
   6  13  -7    7.28    0.99
  -6 -13   7    6.70    0.95
  -6 -13   7    5.98    1.35
  -6  13   8    1.41    0.55
  -6  13   8    0.67    0.79
  -6  13   8    1.43    1.18
   6  13  -8    1.07    0.56
  -6 -13   8    1.35    0.53
  -6 -13   8    1.30    1.05
  -6  13   9    1.44    0.86
  -6 -13   9    0.90    1.07
  -6  13  10    1.89    0.91
  -6  13  10    2.71    1.25
  -6 -13  10    1.85    1.08
  -6  13  11   11.13    1.54
  -6  13  11    6.77    1.69
  -6 -13  11   10.06    1.62
  -6  14   1    0.00    0.36
  -6  14   1   -0.10    0.51
  -6  14   1    0.95    1.19
   6  14  -1    0.15    0.56
  -6 -14   1   -0.28    0.52
  -6 -14   1    0.45    1.02
  -6  14   2    0.15    0.38
  -6  14   2    0.26    0.55
   6  14  -2    0.05    0.53
  -6 -14   2   -0.02    0.51
  -6 -14   2   -0.41    1.00
  -6  14   3   10.87    1.20
  -6  14   3   10.53    1.34
  -6  14   3    7.19    1.72
   6  14  -3   10.40    1.29
  -6 -14   3   10.78    1.27
  -6 -14   3    7.30    1.60
  -6  14   4   10.93    1.32
  -6  14   4    9.98    1.88
   6  14  -4   12.19    1.41
  -6 -14   4   12.00    1.38
  -6 -14   4   10.59    1.78
  -6  14   5    0.03    0.66
  -6  14   5    0.14    1.19
   6  14  -5    0.37    0.56
  -6 -14   5    0.31    0.49
  -6 -14   5    0.09    1.02
  -6  14   6   25.55    3.00
  -6  14   6   27.24    3.31
  -6 -14   6   28.74    3.21
  -6  14   7    0.52    0.76
  -6  14   7   -0.12    1.21
  -6 -14   7   -0.48    1.05
  -6  14   8    4.45    1.02
  -6  14   8    2.54    1.33
  -6 -14   8    4.08    1.21
  -6  15   1    6.97    0.99
  -6  15   1    6.31    1.59
  -6 -15   1    7.54    1.46
  -6 -15   2    6.54    1.43
  -6  15   3    0.37    0.63
  -6  15   3   -0.24    1.24
  -6 -15   3   -0.07    1.06
  -6  15   4    5.89    0.98
  -6  15   4    3.56    1.45
  -6 -15   4    4.84    1.33
  -5   0   1  398.12   39.66
  -5   0   2   -0.05    0.36
  -5   0   2    0.28    0.45
  -5   0   3  840.45   85.36
  -5   0   3  886.02   85.44
  -5   0   4    0.00    0.38
  -5   0   4    0.18    0.46
  -5   0   5  599.11   59.90
  -5   0   5  676.28   60.00
   5   0  -5  563.48   59.89
  -5   0   6   -0.04    0.40
  -5   0   6   -0.09    0.52
   5   0  -6   -0.02    0.40
  -5   0   7   98.55   10.59
  -5   0   7  114.07   10.65
   5   0  -7  105.06   10.60
   5   0  -8    0.22    0.46
  -5   0   9  549.97   54.88
  -5   0  10    0.07    0.49
  -5   0  10    0.51    0.58
   5   0 -10   -0.30    0.55
  -5   0  11  269.99   27.64
  -5   0  11  274.37   27.65
   5   0 -11  284.17   27.66
  -5   0  12   -0.12    0.52
  -5   0  12   -0.09    0.61
   5   0 -12   -0.11    0.58
  -5   0  13   78.98    7.66
  -5   0  13   67.37    7.63
   5   0 -13   78.15    7.69
  -5   0  14   -0.02    0.60
   5   0 -14    0.18    0.62
  -5   0  15    0.44    0.65
  -5   0  15    1.01    0.72
   5   0 -15    0.54    0.67
  -5   0  16   -0.05    0.65
  -5   0  16    0.43    0.75
   5   0 -16    0.17    0.67
  -5   0  17   14.65    1.75
  -5   0  17   13.18    1.74
   5   0 -17   13.61    1.76
  -5   0  18   -0.25    0.70
  -5   0  18    0.34    0.78
  -5   0  19    1.01    0.76
  -5   0  20   -0.23    0.73
  -5   0  20   -0.65    0.83
   5   0 -20   -0.07    0.75
  -5   1   1   25.90    2.67
  -5  -1   1   25.05    2.66
  -5   1   2    6.62    0.89
  -5   1   2   11.68    1.05
   5  -1  -2    6.84    0.90
   5   1  -2    6.71    0.90
  -5  -1   2    7.05    0.91
  -5  -1   2    9.30    1.01
  -5   1   3  387.50   39.52
  -5   1   3  408.18   39.59
   5  -1  -3  402.89   39.53
  -5  -1   3  387.18   39.53
  -5  -1   3  404.99   39.59
  -5   1   4   37.39    4.21
  -5   1   4   58.18    4.34
   5  -1  -4   37.56    4.22
  -5  -1   4   33.08    4.19
  -5  -1   4   55.26    4.34
  -5   1   5  331.51   34.85
  -5   1   5  400.25   34.94
   5  -1  -5  340.31   34.86
  -5  -1   5  325.43   34.84
  -5  -1   5  391.51   34.93
  -5   1   6   92.86    8.23
   5  -1  -6   73.71    8.16
  -5  -1   6   71.59    8.13
  -5  -1   6   93.07    8.23
   5  -1  -7   22.01    2.33
   5   1  -7   20.35    2.30
  -5  -1   7   22.10    2.32
  -5   1   8   15.56    1.77
   5  -1  -8   16.29    1.79
  -5  -1   8   15.13    1.75
  -5   1   9  183.31   19.19
  -5   1   9  195.84   19.23
   5  -1  -9  188.47   19.20
   5   1  -9  208.20   19.21
  -5  -1   9  180.06   19.17
  -5  -1   9  195.66   19.21
  -5   1  10  384.08   36.70
   5   1 -10  336.13   36.64
  -5  -1  10  394.60   36.70
  -5   1  11   15.32    1.84
  -5   1  11   16.36    1.87
   5  -1 -11   17.59    1.89
   5   1 -11   15.02    1.82
  -5  -1  11   16.04    1.85
  -5   1  12    3.98    0.80
  -5   1  12    4.20    0.84
   5  -1 -12    4.49    0.84
   5   1 -12    4.12    0.79
  -5  -1  12    3.96    0.75
  -5  -1  12    3.83    0.80
  -5   1  13    2.64    0.73
  -5   1  13    3.46    0.79
   5  -1 -13    2.81    0.75
   5   1 -13    2.41    0.72
  -5  -1  13    2.09    0.65
  -5  -1  13    3.39    0.75
  -5   1  14    0.32    0.62
   5  -1 -14    0.65    0.66
   5   1 -14    0.57    0.64
  -5  -1  14   -0.03    0.54
  -5   1  15   43.03    4.53
  -5   1  15   41.17    4.51
   5  -1 -15   43.47    4.56
   5   1 -15   44.64    4.54
  -5  -1  15   44.15    4.51
  -5  -1  15   40.11    4.50
  -5   1  16   28.06    2.97
  -5   1  16   24.53    2.93
   5  -1 -16   26.54    2.99
   5   1 -16   26.95    2.97
  -5  -1  16   27.49    2.94
  -5  -1  16   26.48    2.95
  -5   1  17   31.58    3.31
  -5   1  17   29.99    3.28
   5   1 -17   28.02    3.28
  -5  -1  17   29.67    3.26
  -5  -1  17   30.28    3.28
  -5   1  18    0.47    0.71
  -5   1  18    0.71    0.81
   5  -1 -18   -0.06    0.73
   5   1 -18    0.12    0.69
  -5  -1  18    0.06    0.68
  -5  -1  18    0.41    0.80
   5  -1 -19   25.67    3.01
   5   1 -19   26.58    2.99
  -5  -1  19   27.11    2.96
  -5   1  20   21.08    2.38
  -5   1  20   17.90    2.33
   5  -1 -20   21.02    2.40
  -5  -1  20   21.69    2.34
  -5  -1  20   17.68    2.31
   5  -2  -1  430.45   42.01
   5   2  -1  417.17   42.02
  -5  -2   1  417.45   42.02
  -5   2   2   13.00    1.50
  -5   2   2   23.91    1.70
   5  -2  -2   13.19    1.51
   5   2  -2   11.36    1.50
  -5  -2   2   10.88    1.50
  -5  -2   2   20.38    1.64
  -5   2   3  452.52   45.20
  -5   2   3  503.92   45.31
   5  -2  -3  444.77   45.21
   5   2  -3  442.10   45.20
  -5  -2   3  440.77   45.20
  -5  -2   3  468.54   45.27
  -5   2   4    2.63    0.64
   5  -2  -4    2.58    0.52
   5   2  -4    2.60    0.51
  -5  -2   4    2.82    0.53
  -5  -2   4    2.48    0.60
  -5   2   5  207.26   18.81
   5  -2  -5  177.03   18.73
   5   2  -5  176.81   18.72
  -5  -2   5  182.22   18.72
  -5  -2   5  207.43   18.79
  -5   2   6  746.93   74.07
   5  -2  -6  733.82   74.08
   5   2  -6  752.35   74.06
  -5  -2   6  741.64   74.05
  -5   2   7  275.99   28.50
  -5   2   7  315.06   28.58
   5  -2  -7  282.92   28.51
  -5  -2   7  277.87   28.49
  -5   2   8   98.58   10.05
   5  -2  -8   93.92   10.05
  -5  -2   8  104.50   10.04
  -5   2   9   60.74    6.63
  -5   2   9   73.48    6.70
   5  -2  -9   65.02    6.66
   5   2  -9   63.04    6.62
  -5  -2   9   58.91    6.60
  -5  -2   9   70.81    6.66
  -5   2  10   91.94    9.79
  -5   2  10  107.19    9.84
   5  -2 -10   88.03    9.79
   5   2 -10   93.44    9.77
  -5  -2  10   92.84    9.76
  -5  -2  10  108.79    9.82
  -5   2  11    6.75    0.89
   5  -2 -11    3.93    0.81
   5   2 -11    3.35    0.71
  -5  -2  11    2.49    0.68
  -5  -2  11    5.19    0.81
  -5   2  12    0.56    0.60
  -5   2  12    0.29    0.63
   5  -2 -12    0.54    0.62
   5   2 -12    0.70    0.53
  -5  -2  12    0.67    0.60
  -5   2  13   48.87    5.17
  -5   2  13   44.40    5.14
   5  -2 -13   51.29    5.20
   5   2 -13   54.73    5.17
  -5  -2  13   48.31    5.15
  -5   2  14   19.37    2.32
   5  -2 -14   18.95    2.34
   5   2 -14   22.22    2.33
  -5  -2  14   20.79    2.28
  -5   2  15    2.87    0.78
  -5   2  15    1.50    0.78
   5   2 -15    2.42    0.74
  -5  -2  15    2.91    0.70
  -5  -2  15    2.03    0.77
  -5   2  16   77.20    7.94
  -5   2  16   75.40    7.93
   5  -2 -16   74.72    7.96
   5   2 -16   72.90    7.91
  -5  -2  16   81.45    7.92
  -5  -2  16   78.87    7.93
  -5   2  17   18.60    2.27
  -5   2  17   16.95    2.25
   5  -2 -17   18.56    2.30
   5   2 -17   20.63    2.27
  -5  -2  17   21.43    2.24
  -5  -2  17   19.35    2.26
  -5   2  18    8.90    1.43
   5  -2 -18   10.36    1.46
   5   2 -18    8.73    1.35
  -5  -2  18   10.03    1.35
  -5  -2  18   10.92    1.44
  -5   2  19   10.71    1.45
  -5   2  19    7.96    1.42
   5  -2 -19    9.70    1.47
   5   2 -19    9.44    1.38
  -5  -2  19   10.44    1.37
  -5   2  20   32.70    3.45
  -5   2  20   25.92    3.37
   5  -2 -20   31.61    3.48
   5   2 -20   30.93    3.40
  -5  -2  20   33.84    3.39
  -5  -2  20   29.90    3.38
  -5   3   1  209.80   20.96
   5  -3  -1  216.13   20.96
   5   3  -1  208.46   20.98
  -5  -3   1  204.76   20.97
  -5   3   2   89.49    6.41
   5  -3  -2   58.38    6.23
   5   3  -2   54.03    6.23
  -5  -3   2   52.71    6.22
  -5  -3   2   77.23    6.35
   5  -3  -3  209.39   20.17
   5   3  -3  192.10   20.16
  -5  -3   3  184.55   20.15
  -5  -3   3  238.24   20.25
  -5   3   4   57.41    6.19
   5  -3  -4   63.27    6.21
   5   3  -4   62.75    6.19
  -5  -3   4   59.68    6.17
  -5   3   5    0.95    0.45
  -5   3   5    4.37    0.76
   5  -3  -5    1.22    0.54
   5   3  -5    1.25    0.44
  -5  -3   5    1.09    0.44
  -5   3   6   21.67    2.42
  -5   3   6   24.04    2.51
   5  -3  -6   22.27    2.45
  -5  -3   6   22.61    2.48
  -5   3   7    4.32    0.75
  -5   3   7    4.66    0.93
   5  -3  -7    4.17    0.82
   5   3  -7    5.49    0.78
  -5  -3   7    5.54    0.75
  -5  -3   7    5.57    0.90
  -5   3   8   31.01    3.59
   5  -3  -8   35.37    3.64
   5   3  -8   36.57    3.60
  -5  -3   8   34.18    3.58
  -5   3   9   12.42    1.64
  -5   3   9   14.91    1.72
   5  -3  -9   12.11    1.66
  -5  -3   9   14.60    1.61
  -5  -3   9   17.12    1.72
  -5   3  10    6.54    1.05
  -5   3  10    7.51    1.13
   5  -3 -10    6.87    1.06
  -5  -3  10    6.98    0.96
  -5  -3  10    8.05    1.07
  -5   3  11  375.44   38.38
  -5   3  11  404.46   38.43
   5  -3 -11  375.39   38.41
  -5  -3  11  371.17   38.34
  -5  -3  11  403.79   38.41
  -5   3  12  139.02   14.35
  -5   3  12  143.95   14.37
   5  -3 -12  138.37   14.37
   5   3 -12  139.73   14.31
  -5  -3  12  140.65   14.29
  -5  -3  12  150.10   14.35
  -5   3  13   34.00    3.58
  -5   3  13   32.72    3.57
   5   3 -13   35.34    3.53
  -5  -3  13   30.55    3.49
  -5  -3  13   33.01    3.54
  -5   3  14    9.39    1.24
  -5   3  14    7.27    1.21
   5   3 -14    7.82    1.11
  -5   3  15   34.31    3.51
  -5   3  15   28.77    3.46
   5  -3 -15   33.42    3.53
   5   3 -15   33.82    3.45
  -5  -3  15   29.96    3.44
  -5   3  16   37.85    4.38
   5  -3 -16   40.88    4.43
   5   3 -16   43.42    4.37
  -5  -3  16   43.21    4.34
  -5  -3  16   39.64    4.36
  -5   3  17   18.03    2.31
  -5   3  17   20.30    2.34
   5  -3 -17   19.44    2.36
   5   3 -17   20.63    2.27
  -5  -3  17   18.60    2.21
  -5  -3  17   20.50    2.29
  -5   3  18   -0.03    0.77
  -5   3  18    0.32    0.87
   5  -3 -18    0.14    0.81
   5   3 -18    0.51    0.67
  -5  -3  18    0.20    0.60
  -5  -3  18    0.76    0.79
  -5   3  19    2.26    0.90
  -5   3  19    2.20    0.97
   5  -3 -19    2.85    0.95
   5   3 -19    2.78    0.80
  -5  -3  19    2.55    0.77
  -5   3  20    0.30    0.82
  -5   3  20    0.38    0.92
   5  -3 -20    0.47    0.86
   5   3 -20    0.28    0.68
  -5  -3  20    0.55    0.69
  -5  -3  20    0.10    0.86
   5  -4  -1 1143.12  109.10
   5   4  -1 1051.83  109.12
  -5  -4   1 1088.59  109.13
  -5   4   2  197.30   20.08
  -5   4   2  234.47   20.23
   5  -4  -2  210.93   20.09
   5   4  -2  189.98   20.09
  -5  -4   2  184.70   20.08
  -5  -4   2  212.08   20.17
  -5   4   3  448.57   44.00
  -5   4   3  468.02   44.12
   5  -4  -3  448.87   44.02
   5   4  -3  431.33   44.01
  -5  -4   3  431.02   44.00
  -5  -4   3  430.85   44.07
  -5   4   4  102.92   10.31
  -5   4   4  103.84   10.39
   5  -4  -4   93.92   10.30
  -5  -4   4  103.51   10.29
  -5  -4   4  109.22   10.37
  -5   4   5  220.32   22.13
  -5   4   5  230.92   22.21
   5  -4  -5  207.08   22.13
   5   4  -5  223.46   22.11
  -5  -4   5  215.22   22.10
  -5  -4   5  239.07   22.19
  -5   4   6  171.53   18.41
  -5   4   6  210.49   18.52
   5  -4  -6  178.44   18.44
   5   4  -6  182.48   18.40
  -5  -4   6  174.97   18.39
  -5  -4   6  201.25   18.48
  -5   4   7  236.41   24.32
  -5   4   7  242.43   24.38
   5  -4  -7  247.57   24.35
   5   4  -7  244.31   24.29
  -5  -4   7  236.89   24.28
  -5  -4   7  253.44   24.36
  -5   4   8  116.96   11.74
   5  -4  -8  115.16   11.76
   5   4  -8  115.93   11.70
  -5  -4   8  111.79   11.68
  -5  -4   8  121.95   11.77
  -5   4   9   18.41    2.11
  -5   4   9   22.06    2.20
   5  -4  -9   19.63    2.15
   5   4  -9   17.55    2.05
  -5  -4   9   16.95    2.03
  -5  -4   9   20.04    2.14
  -5   4  10   56.76    5.93
  -5   4  10   55.29    5.95
   5  -4 -10   58.95    5.96
   5   4 -10   57.15    5.88
  -5  -4  10   57.52    5.87
  -5  -4  10   57.38    5.93
  -5   4  11    1.47    0.68
  -5   4  11    1.07    0.71
   5  -4 -11    1.17    0.69
  -5  -4  11    2.11    0.53
  -5  -4  11    1.19    0.69
  -5   4  12   61.67    6.45
  -5  -4  12   62.94    6.37
  -5  -4  12   61.03    6.41
  -5   4  13   71.19    7.58
  -5   4  13   66.16    7.56
   5  -4 -13   73.07    7.61
  -5  -4  13   82.14    7.53
  -5  -4  13   73.08    7.56
  -5   4  14    0.90    0.79
   5  -4 -14    0.48    0.72
   5   4 -14    0.09    0.52
  -5  -4  14    0.09    0.51
  -5   4  15   48.15    5.32
   5  -4 -15   51.32    5.36
   5   4 -15   50.98    5.26
  -5  -4  15   50.63    5.24
  -5  -4  15   50.24    5.30
  -5   4  16   -0.14    0.75
  -5   4  16   -0.20    0.82
   5  -4 -16    0.11    0.78
   5   4 -16    0.13    0.56
  -5  -4  16    0.11    0.73
  -5   4  17   49.95    4.92
  -5   4  17   42.02    4.87
   5  -4 -17   48.86    4.95
   5   4 -17   45.85    4.81
  -5  -4  17   43.15    4.83
  -5   4  18    1.55    0.87
  -5   4  18    1.09    0.95
   5  -4 -18    2.13    0.91
   5   4 -18    1.45    0.71
  -5  -4  18    1.72    0.65
  -5  -4  18    1.18    0.83
  -5   4  19    0.89    0.86
  -5   4  19    0.69    0.93
   5  -4 -19    0.22    0.87
   5   4 -19   -0.13    0.65
  -5  -4  19    0.05    0.60
  -5   5   1   26.81    2.77
   5  -5  -1   34.43    2.82
   5   5  -1   22.25    2.77
  -5  -5   1   21.25    2.77
  -5  -5   1   35.80    2.95
  -5   5   2  688.85   72.15
  -5   5   2  780.48   72.31
   5  -5  -2  715.95   72.16
  -5  -5   2  758.47   72.28
  -5   5   3   15.59    1.65
   5  -5  -3   16.74    1.69
   5   5  -3   13.71    1.65
  -5  -5   3   11.54    1.62
  -5  -5   3   22.16    1.84
  -5   5   4  589.21   79.07
  -5   5   4  995.19   79.32
   5  -5  -4  914.48   79.18
   5   5  -4  849.59   79.15
  -5  -5   4  820.92   79.12
  -5  -5   4  907.06   79.27
  -5   5   5   28.18    3.11
  -5   5   5   31.25    3.23
   5  -5  -5   28.54    3.13
   5   5  -5   30.51    3.11
  -5  -5   5   28.60    3.08
  -5  -5   5   31.00    3.19
  -5   5   6   12.67    1.47
  -5   5   6    9.89    1.57
   5  -5  -6   11.90    1.49
   5   5  -6   13.68    1.44
  -5  -5   6   13.23    1.42
  -5  -5   6   11.67    1.54
  -5   5   7  117.41   11.84
  -5   5   7  132.30   11.94
   5  -5  -7  122.46   11.88
   5   5  -7  112.20   11.79
  -5  -5   7  107.14   11.78
  -5  -5   7  122.82   11.88
  -5   5   8  348.08   35.80
   5  -5  -8  360.76   35.82
   5   5  -8  358.93   35.75
  -5  -5   8  346.53   35.74
  -5  -5   8  385.37   35.84
  -5   5   9   22.87    2.58
  -5   5   9   20.44    2.63
   5  -5  -9   22.74    2.60
   5   5  -9   25.65    2.54
  -5  -5   9   24.64    2.52
  -5  -5   9   22.81    2.61
  -5   5  10  265.65   26.80
  -5   5  10  287.55   26.86
   5   5 -10  265.74   26.74
  -5  -5  10  248.72   26.72
  -5  -5  10  284.40   26.83
  -5   5  11    0.42    0.62
  -5   5  11    0.28    0.73
   5  -5 -11    0.65    0.67
   5   5 -11    0.62    0.48
  -5  -5  11    0.76    0.48
  -5  -5  11    0.33    0.66
  -5   5  12   72.98    7.49
  -5   5  12   75.59    7.52
   5  -5 -12   71.36    7.51
   5   5 -12   70.47    7.41
  -5  -5  12   71.47    7.40
  -5  -5  12   73.82    7.47
  -5   5  13    0.65    0.78
   5  -5 -13    0.20    0.71
   5   5 -13    0.34    0.52
  -5  -5  13    0.57    0.50
  -5  -5  13    0.77    0.73
  -5   5  14    1.72    0.75
  -5   5  14    0.79    0.85
   5  -5 -14    1.65    0.81
  -5  -5  14    1.54    0.56
  -5   5  15   15.65    1.98
  -5   5  15   14.94    2.02
   5  -5 -15   14.33    2.01
  -5  -5  15   18.32    1.87
  -5  -5  15   15.98    1.97
  -5   5  16    4.41    1.00
  -5   5  16    3.56    1.07
   5  -5 -16    4.27    1.05
   5   5 -16    4.30    0.81
  -5  -5  16    4.69    0.80
  -5  -5  16    4.00    0.99
  -5   5  17    1.41    0.87
  -5   5  17    1.30    0.96
   5  -5 -17    1.60    0.89
   5   5 -17    1.04    0.62
  -5  -5  17    1.76    0.62
  -5  -5  17    1.18    0.85
  -5   5  18   39.07    3.91
  -5   5  18   31.00    3.83
   5  -5 -18   34.97    3.92
   5   5 -18   34.25    3.74
  -5  -5  18   36.07    3.81
  -5   5  19    0.33    0.86
  -5   5  19    0.27    0.94
   5  -5 -19   -0.01    0.90
   5   5 -19    0.01    0.59
  -5   6   1  417.60   42.04
   5  -6  -1  437.97   42.06
   5   6  -1  420.84   42.08
  -5  -6   1  402.33   42.07
  -5  -6   1  439.24   42.17
  -5   6   2   33.58    3.29
  -5   6   2   46.20    3.54
   5  -6  -2   33.71    3.31
   5   6  -2   29.53    3.29
  -5  -6   2   23.69    3.25
  -5  -6   2   36.04    3.42
  -5   6   3   32.99    3.59
  -5   6   3   33.98    3.73
   5  -6  -3   34.04    3.62
   5   6  -3   36.68    3.61
  -5  -6   3   34.70    3.60
  -5  -6   3   35.41    3.70
  -5   6   4   42.42    4.59
  -5   6   4   38.31    4.68
   5  -6  -4   39.87    4.59
   5   6  -4   49.47    4.60
  -5  -6   4   47.55    4.59
  -5  -6   4   48.67    4.70
  -5   6   5   69.10    5.27
   5  -6  -5   50.45    5.08
   5   6  -5   44.76    5.01
  -5  -6   5   40.32    4.99
  -5  -6   5   60.74    5.18
  -5   6   6  219.10   22.76
  -5   6   6  244.00   22.88
   5  -6  -6  232.82   22.80
   5   6  -6  229.02   22.73
  -5  -6   6  213.81   22.71
  -5  -6   6  238.69   22.83
  -5   6   7    0.96    0.57
  -5   6   7   -0.03    0.76
   5  -6  -7    1.00    0.60
   5   6  -7    1.12    0.48
  -5  -6   7    1.19    0.45
  -5  -6   7    0.55    0.68
  -5   6   8   32.39    3.31
   5   6  -8   30.52    3.23
  -5  -6   8   32.14    3.22
  -5  -6   8   27.04    3.30
  -5   6   9   25.72    2.72
  -5   6   9   28.23    2.82
   5  -6  -9   24.65    2.73
   5   6  -9   22.18    2.62
  -5  -6   9   22.84    2.61
  -5  -6   9   27.86    2.77
  -5   6  10    0.91    0.66
  -5   6  10    0.60    0.84
   5  -6 -10    1.52    0.72
   5   6 -10    1.23    0.52
  -5  -6  10    1.26    0.49
  -5  -6  10    1.24    0.70
  -5   6  11    0.12    0.78
   5  -6 -11    0.81    0.71
   5   6 -11    0.64    0.49
  -5  -6  11    0.76    0.48
  -5  -6  11    0.80    0.72
  -5   6  12   52.20    5.40
  -5   6  12   42.21    5.38
   5  -6 -12   50.71    5.42
   5   6 -12   53.75    5.32
  -5  -6  12   56.42    5.31
  -5  -6  12   49.79    5.38
  -5   6  13   24.06    2.65
  -5   6  13   25.20    2.70
   5  -6 -13   24.00    2.69
   5   6 -13   21.73    2.50
  -5  -6  13   21.26    2.48
  -5  -6  13   24.40    2.62
  -5   6  14   34.81    3.68
  -5   6  14   30.64    3.67
   5  -6 -14   34.45    3.72
   5   6 -14   32.71    3.54
  -5  -6  14   34.22    3.53
  -5   6  15    0.51    0.74
   5  -6 -15    0.17    0.80
   5   6 -15    0.18    0.54
  -5  -6  15   -0.04    0.50
  -5  -6  15   -0.09    0.78
  -5   6  16    2.82    0.91
  -5   6  16    3.52    1.05
   5  -6 -16    3.18    1.01
  -5  -6  16    3.00    0.68
  -5  -6  16    3.23    0.95
  -5   6  17    4.09    1.02
  -5   6  17    2.04    1.04
   5  -6 -17    3.04    1.06
  -5  -6  17    3.36    0.72
  -5  -6  17    3.60    1.00
  -5   6  18    7.64    1.32
  -5   6  18    5.17    1.34
   5   6 -18    6.77    1.04
  -5  -6  18    7.71    1.04
  -5  -6  18    7.55    1.26
  -5   6  19    9.07    1.49
  -5   6  19    8.96    1.55
   5  -6 -19    9.57    1.58
  -5   7   1   42.34    4.10
   5  -7  -1   44.38    4.13
   5   7  -1   35.97    4.11
  -5  -7   1   32.56    4.09
  -5  -7   1   51.86    4.30
  -5   7   2   50.69    5.15
  -5   7   2   39.17    5.24
   5  -7  -2   46.26    5.15
   5   7  -2   58.52    5.19
  -5  -7   2   60.37    5.19
  -5  -7   2   43.88    5.23
  -5   7   3  345.47   34.01
  -5   7   3  370.03   34.19
   5  -7  -3  336.54   34.03
  -5  -7   3  326.50   34.00
  -5  -7   3  341.84   34.12
  -5   7   4   29.58    3.27
  -5   7   4   35.28    3.45
   5  -7  -4   29.14    3.28
   5   7  -4   31.13    3.26
  -5  -7   4   30.03    3.24
  -5  -7   4   35.46    3.41
  -5   7   5    1.88    0.57
  -5   7   5    2.09    0.87
   5  -7  -5    0.91    0.58
   5   7  -5    2.20    0.52
  -5  -7   5    2.10    0.49
  -5  -7   5    1.41    0.75
  -5   7   6   -0.44    0.39
  -5   7   6   -0.09    0.81
   5   7  -6   -0.03    0.44
  -5  -7   6   -0.13    0.40
  -5  -7   6    0.44    0.70
  -5   7   7    0.76    0.58
  -5   7   7    0.52    0.83
   5  -7  -7    1.33    0.64
   5   7  -7    1.37    0.49
  -5  -7   7    1.93    0.48
  -5  -7   7    1.49    0.76
  -5   7   8   35.47    3.77
  -5   7   8   37.48    3.88
   5  -7  -8   34.75    3.79
   5   7  -8   33.97    3.69
  -5  -7   8   35.83    3.68
  -5  -7   8   35.42    3.80
  -5   7   9   54.99    6.25
   5  -7  -9   56.34    6.22
   5   7  -9   65.21    6.14
  -5  -7   9   59.64    6.11
  -5  -7   9   59.81    6.23
  -5   7  10   -0.07    0.62
  -5   7  10    0.07    0.83
   5  -7 -10   -0.36    0.70
   5   7 -10    0.37    0.47
  -5  -7  10    0.24    0.44
  -5  -7  10   -0.23    0.71
  -5   7  11  165.46   17.26
  -5   7  11  161.44   17.30
   5  -7 -11  169.13   17.32
   5   7 -11  174.90   17.16
  -5  -7  11  173.05   17.15
  -5  -7  11  176.04   17.28
  -5   7  12    0.22    0.69
  -5   7  12    0.95    0.86
   5  -7 -12    0.09    0.77
   5   7 -12    0.53    0.49
  -5  -7  12    0.86    0.49
  -5  -7  12    0.73    0.77
  -5   7  13    9.88    1.37
  -5   7  13    8.43    1.43
   5  -7 -13    8.96    1.42
   5   7 -13    8.45    1.16
  -5  -7  13    9.08    1.15
  -5  -7  13   10.54    1.39
  -5   7  14   26.53    3.59
   5   7 -14   32.89    3.47
  -5  -7  14   36.45    3.48
  -5   7  15    0.26    0.76
   5  -7 -15    0.31    0.87
   5   7 -15    0.86    0.56
  -5  -7  15    0.46    0.52
  -5  -7  15    0.87    0.83
  -5   7  16    0.81    0.80
  -5   7  16    0.08    0.98
   5   7 -16    0.89    0.58
  -5  -7  16    0.37    0.53
  -5  -7  16    1.39    0.87
  -5   7  17   20.23    2.40
  -5   7  17   18.88    2.43
   5  -7 -17   17.56    2.45
   5   7 -17   19.79    2.19
  -5  -7  17   19.48    2.16
  -5  -7  17   19.15    2.34
  -5   7  18    0.50    1.03
  -5  -7  18    0.53    0.91
  -5   8   1  104.75   10.08
  -5   8   1  106.45   10.32
   5  -8  -1  103.48   10.10
   5   8  -1   96.17   10.10
  -5  -8   1   94.74   10.10
  -5  -8   1   96.14   10.23
  -5   8   2  345.99   34.11
  -5   8   2  359.81   34.31
   5  -8  -2  344.41   34.15
   5   8  -2  335.63   34.12
  -5  -8   2  325.74   34.12
  -5  -8   2  355.60   34.27
  -5   8   3    5.96    0.89
  -5   8   3   12.85    1.32
   5  -8  -3    8.07    0.95
   5   8  -3    5.41    0.87
  -5  -8   3    4.97    0.86
  -5  -8   3    9.69    1.16
  -5   8   4    4.76    0.77
  -5   8   4    4.91    1.04
   5   8  -4    4.70    0.74
  -5  -8   4    5.06    0.72
  -5  -8   4    4.10    0.96
  -5   8   5    0.23    0.51
  -5   8   5   -0.03    0.79
   5  -8  -5   -0.23    0.55
   5   8  -5    0.19    0.43
  -5  -8   5    0.07    0.41
  -5  -8   5    0.48    0.72
  -5   8   6   14.13    1.68
  -5   8   6   15.07    1.87
   5  -8  -6   13.89    1.71
   5   8  -6   14.04    1.62
  -5  -8   6   14.45    1.60
  -5  -8   6   15.08    1.81
  -5   8   7    0.71    0.84
   5  -8  -7    0.20    0.63
   5   8  -7    0.80    0.47
  -5  -8   7    0.40    0.41
  -5  -8   7    0.99    0.77
  -5   8   8    0.21    0.59
  -5   8   8    0.08    0.84
   5  -8  -8    0.06    0.66
   5   8  -8    0.07    0.45
  -5  -8   8    0.57    0.43
  -5  -8   8    0.33    0.75
  -5   8   9   34.89    3.81
  -5   8   9   36.55    3.91
   5  -8  -9   33.67    3.83
   5   8  -9   35.24    3.71
  -5  -8   9   35.26    3.70
  -5  -8   9   37.82    3.86
  -5   8  10    3.17    0.84
  -5   8  10    3.65    1.05
   5  -8 -10    3.11    0.90
   5   8 -10    3.67    0.67
  -5  -8  10    3.60    0.64
  -5  -8  10    3.48    0.91
  -5   8  11   45.87    4.91
  -5   8  11   39.70    4.92
   5  -8 -11   44.32    4.94
   5   8 -11   48.80    4.80
  -5  -8  11   48.53    4.78
  -5  -8  11   46.28    4.92
  -5   8  12    3.36    0.93
  -5   8  12    3.26    1.08
   5  -8 -12    2.98    0.99
   5   8 -12    4.20    0.73
  -5  -8  12    5.24    0.72
  -5  -8  12    3.76    1.00
  -5   8  13    8.30    1.32
  -5   8  13    6.35    1.39
   5  -8 -13    7.80    1.38
   5   8 -13    8.44    1.10
  -5  -8  13    9.14    1.09
  -5  -8  13    8.60    1.33
  -5   8  14    1.40    0.83
  -5   8  14    1.42    1.01
   5   8 -14    1.61    0.58
  -5  -8  14    1.48    0.54
  -5   8  15    4.11    1.01
   5   8 -15    4.54    0.79
  -5  -8  15    4.27    0.75
  -5  -8  15    4.58    1.09
  -5   8  16   22.47    2.60
  -5   8  16   18.26    2.60
   5   8 -16   21.52    2.37
  -5  -8  16   22.29    2.35
  -5  -8  16   20.96    2.54
  -5   8  17    0.51    0.71
  -5   8  17    0.27    0.80
  -5   8  17    0.71    1.03
  -5  -8  17    0.05    0.89
  -5   9   1   56.20    6.10
  -5   9   1   66.16    6.14
  -5   9   1   63.87    6.36
   5   9  -1   58.78    6.16
  -5  -9   1   57.98    6.15
  -5  -9   1   62.47    6.31
  -5   9   2   14.06    1.63
  -5   9   2   15.46    1.92
   5   9  -2   14.68    1.65
  -5  -9   2   14.99    1.65
  -5  -9   2   14.63    1.84
  -5   9   3   45.89    4.66
  -5   9   3   36.78    4.78
   5   9  -3   47.89    4.65
  -5  -9   3   49.08    4.65
  -5  -9   3   40.13    4.75
  -5   9   4    2.68    0.64
  -5   9   4    3.62    1.00
   5  -9  -4    2.62    0.70
   5   9  -4    2.87    0.61
  -5  -9   4    2.87    0.58
  -5  -9   4    4.19    0.93
  -5   9   5   13.59    1.73
   5  -9  -5   11.49    1.50
   5   9  -5   12.20    1.40
  -5  -9   5   11.19    1.38
  -5  -9   5   13.77    1.64
  -5   9   6   17.70    1.96
  -5   9   6   18.58    2.17
   5  -9  -6   17.63    2.01
   5   9  -6   16.23    1.87
  -5  -9   6   16.08    1.86
  -5  -9   6   17.62    2.07
  -5   9   7   37.84    4.32
  -5   9   7   44.74    4.51
   5  -9  -7   41.19    4.41
   5   9  -7   42.20    4.28
  -5  -9   7   40.47    4.26
  -5  -9   7   42.91    4.44
  -5   9   8    0.56    0.64
  -5   9   8    0.30    0.93
   5  -9  -8    0.13    0.70
   5   9  -8    0.29    0.47
  -5  -9   8    0.13    0.42
  -5  -9   8    0.57    0.80
  -5   9   9    8.30    1.23
  -5   9   9    5.51    1.34
   5  -9  -9    7.18    1.27
   5   9  -9    8.51    1.06
  -5  -9   9    9.27    1.04
  -5  -9   9    7.78    1.31
  -5   9  10  133.37   13.37
  -5   9  10  124.59   13.41
   5  -9 -10  128.95   13.45
   5   9 -10  131.81   13.22
  -5  -9  10  132.98   13.21
  -5  -9  10  131.37   13.37
  -5   9  11    4.00    0.93
  -5   9  11    1.63    1.02
   5   9 -11    3.41    0.67
  -5  -9  11    4.26    0.67
  -5  -9  11    2.95    0.96
  -5   9  12    3.98    0.97
  -5   9  12    3.23    1.12
   5   9 -12    3.34    0.70
  -5  -9  12    4.43    0.70
  -5  -9  12    4.38    1.04
  -5   9  13    0.23    0.60
  -5   9  13    0.52    0.81
  -5   9  13    0.35    0.97
   5   9 -13    0.35    0.50
  -5  -9  13   -0.05    0.46
  -5  -9  13   -0.01    0.87
  -5   9  14    3.36    0.78
  -5   9  14    2.97    0.96
  -5   9  14    2.13    1.08
   5   9 -14    2.06    0.63
  -5  -9  14    3.29    0.63
  -5   9  15    0.22    0.65
   5   9 -15    0.37    0.52
  -5  -9  15   -0.05    0.48
  -5  -9  15    0.19    0.89
  -5   9  16   -0.12    0.67
  -5   9  16   -0.08    0.80
  -5   9  16    0.16    1.04
  -5  -9  16    0.19    0.91
  -5  10   1  133.43   14.71
  -5  10   1  157.52   14.77
  -5  10   1  164.35   15.05
   5  10  -1  147.74   14.80
  -5 -10   1  144.50   14.79
  -5 -10   1  158.34   14.99
  -5  10   2   34.18    4.24
   5  10  -2   40.10    4.06
  -5 -10   2   40.76    4.06
  -5 -10   2   37.87    4.21
  -5  10   3    0.26    0.36
  -5  10   3    0.30    0.90
   5  10  -3    0.06    0.46
  -5 -10   3    0.15    0.44
  -5 -10   3    0.23    0.81
  -5  10   4   11.00    1.49
  -5  10   4   13.47    1.60
  -5  10   4   15.43    1.89
   5  10  -4   15.26    1.57
  -5 -10   4   13.87    1.54
  -5 -10   4   16.90    1.84
  -5  10   5   32.79    3.89
  -5  10   5   38.51    3.98
  -5  10   5   44.20    4.21
   5  10  -5   38.01    3.93
  -5 -10   5   37.47    3.91
  -5 -10   5   42.63    4.13
  -5  10   6    4.74    0.71
  -5  10   6    3.47    0.83
  -5  10   6    3.01    1.11
   5  10  -6    5.02    0.75
  -5 -10   6    5.00    0.71
  -5 -10   6    3.73    1.04
  -5  10   7    4.23    0.72
  -5  10   7    5.14    0.90
  -5  10   7    4.60    1.17
   5  10  -7    4.59    0.75
  -5 -10   7    4.62    0.71
  -5  10   8    3.00    0.81
  -5  10   8    8.51    1.37
   5  10  -8    8.07    0.92
  -5 -10   8    8.38    0.89
  -5 -10   8    7.87    1.23
  -5  10   9   57.71    5.42
  -5  10   9   50.21    5.48
   5  10  -9   50.52    5.36
  -5 -10   9   51.95    5.35
  -5 -10   9   49.33    5.51
  -5  10  10    2.61    0.67
  -5  10  10    3.46    0.91
  -5  10  10    4.08    1.14
   5  10 -10    3.04    0.65
  -5 -10  10    2.76    0.59
  -5 -10  10    3.50    0.99
  -5  10  11    1.92    0.63
  -5  10  11    1.60    0.82
  -5  10  11    1.10    0.99
   5  10 -11    1.67    0.55
  -5 -10  11    0.89    0.50
  -5 -10  11    0.92    0.89
  -5  10  12    3.41    0.76
  -5  10  12    3.49    0.99
  -5  10  12    3.17    1.14
   5  10 -12    2.98    0.66
  -5 -10  12    3.65    0.65
  -5 -10  12    3.74    1.04
  -5  10  13    3.70    0.77
  -5  10  13    3.47    1.16
   5  10 -13    2.41    0.64
  -5 -10  13    2.64    0.61
  -5 -10  13    3.55    1.06
  -5  10  14    0.59    0.64
  -5  10  14    0.71    0.86
  -5  10  14    0.05    1.03
   5  10 -14    0.22    0.51
  -5 -10  14    0.56    0.49
  -5  10  15   26.80    2.63
  -5  10  15   21.55    2.75
  -5 -10  15   19.26    2.69
  -5  11   1    3.09    0.55
  -5  11   1    3.97    1.13
   5  11  -1    4.33    0.72
  -5 -11   1    4.57    0.70
  -5 -11   1    4.70    1.05
  -5  11   2   14.13    1.52
  -5  11   2   14.11    1.87
   5  11  -2   12.29    1.50
  -5 -11   2   12.22    1.49
  -5 -11   2   13.22    1.77
  -5  11   3   39.82    4.15
  -5  11   3   39.31    4.20
  -5  11   3   36.48    4.40
   5  11  -3   41.85    4.19
  -5 -11   3   41.65    4.18
  -5 -11   3   40.18    4.37
  -5  11   4   50.80    5.44
  -5  11   4   53.88    5.52
  -5  11   4   60.87    5.79
   5  11  -4   52.39    5.48
  -5 -11   4   51.33    5.46
  -5 -11   4   58.24    5.69
  -5  11   5   43.38    4.36
  -5  11   5   43.72    4.44
  -5  11   5   38.33    4.60
   5  11  -5   42.75    4.38
  -5 -11   5   41.57    4.35
  -5 -11   5   39.92    4.54
  -5  11   6   25.00    2.74
  -5  11   6   26.14    2.86
  -5  11   6   24.79    3.05
   5  11  -6   26.37    2.76
  -5 -11   6   26.63    2.75
  -5 -11   6   25.22    2.97
  -5  11   7    2.02    0.56
  -5  11   7    2.13    0.77
  -5  11   7    2.07    1.10
   5  11  -7    2.76    0.60
  -5 -11   7    2.28    0.55
  -5  11   8    4.91    1.04
  -5  11   8    5.19    1.32
   5  11  -8    6.41    0.86
  -5 -11   8    6.08    0.83
  -5 -11   8    4.83    1.17
  -5  11   9   41.11    4.25
  -5  11   9   41.83    4.36
   5  11  -9   40.74    4.23
  -5 -11   9   39.46    4.20
  -5 -11   9   39.94    4.42
  -5  11  10    3.52    0.69
  -5  11  10    3.21    0.92
  -5  11  10    1.80    1.15
   5  11 -10    3.17    0.64
  -5 -11  10    1.37    0.98
  -5  11  11   59.14    5.23
  -5  11  11   39.91    5.34
   5  11 -11   48.68    5.15
  -5 -11  11   49.08    5.33
  -5  11  12    7.30    0.98
  -5  11  12    5.45    1.18
  -5  11  12    2.93    1.28
   5  11 -12    6.23    0.88
  -5 -11  12    5.54    1.23
  -5  11  13    1.28    0.63
  -5  11  13    0.51    0.86
  -5  11  13    1.13    1.09
   5  11 -13    0.43    0.51
  -5 -11  13    1.69    0.97
  -5  11  14    1.11    0.91
  -5  11  14    0.54    1.08
  -5 -11  14    0.23    1.00
  -5  12   1   76.68    7.42
  -5  12   1   74.97    7.46
  -5  12   1   61.41    7.67
   5  12  -1   74.95    7.50
  -5 -12   1   74.47    7.48
  -5 -12   1   67.18    7.65
  -5  12   2   31.91    3.30
  -5  12   2   32.01    3.36
   5  12  -2   32.09    3.36
  -5 -12   2   30.80    3.34
  -5 -12   2   32.60    3.59
  -5  12   3    9.25    1.08
  -5  12   3    8.46    1.17
  -5  12   3    5.51    1.50
   5  12  -3   10.41    1.16
  -5 -12   3    9.83    1.14
  -5 -12   3    7.51    1.44
  -5  12   4    3.65    0.61
  -5  12   4    2.72    0.75
  -5  12   4    1.63    1.15
   5  12  -4    3.79    0.69
  -5 -12   4    4.07    0.66
  -5 -12   4    2.80    1.07
  -5  12   5    0.11    0.43
  -5  12   5    0.38    0.63
  -5  12   5    1.09    1.07
   5  12  -5    0.67    0.53
  -5 -12   5    0.39    0.47
  -5 -12   5   -0.21    0.92
  -5  12   6   24.64    2.66
  -5  12   6   26.19    2.80
  -5  12   6   24.25    3.01
   5  12  -6   24.91    2.68
  -5 -12   6   24.89    2.66
  -5 -12   6   24.58    2.92
  -5  12   7    1.55    0.53
  -5  12   7    1.25    0.75
  -5  12   7    1.29    1.12
   5  12  -7    1.25    0.55
  -5 -12   7    1.37    0.51
  -5  12   8   44.99    4.52
  -5  12   8   42.22    4.64
  -5  12   8   38.18    4.76
   5  12  -8   43.54    4.50
  -5 -12   8   45.51    4.73
  -5  12   9    4.79    0.74
   5  12  -9    3.15    0.68
  -5 -12   9    3.10    1.10
  -5  12  10    3.47    0.69
  -5  12  10    2.90    0.94
  -5  12  10    2.40    1.21
   5  12 -10    2.85    0.64
  -5 -12  10    2.08    1.04
  -5  12  11    0.95    0.58
  -5  12  11    0.79    0.85
  -5  12  11    0.35    1.05
   5  12 -11    0.43    0.51
  -5 -12  11    0.54    0.48
  -5 -12  11    0.97    0.99
  -5  12  12   11.43    1.39
  -5  12  12   10.06    1.62
  -5  12  12    9.51    1.76
  -5 -12  12   11.42    1.68
  -5  12  13   13.69    1.41
  -5  12  13    9.49    1.61
  -5  12  13    4.55    1.63
  -5 -12  13   10.60    1.63
  -5  13   1    8.05    1.01
  -5  13   1    9.90    1.13
  -5  13   1    8.43    1.60
   5  13  -1    8.31    1.13
  -5 -13   1    9.19    1.12
  -5 -13   1    8.02    1.46
  -5  13   2   16.50    1.80
  -5  13   2   17.05    1.89
   5  13  -2   15.63    1.87
  -5 -13   2   17.66    1.87
  -5 -13   2   16.24    2.17
  -5  13   3    3.74    0.75
  -5  13   3    5.76    1.33
   5  13  -3    2.38    0.66
  -5 -13   3    2.57    0.63
  -5 -13   3    5.53    1.17
  -5  13   4   31.89    3.10
  -5  13   4   27.14    3.17
  -5  13   4   23.46    3.40
   5  13  -4   29.38    3.12
  -5 -13   4   31.14    3.11
  -5 -13   4   28.30    3.37
  -5  13   5   -0.02    0.43
  -5  13   5    0.23    0.65
  -5  13   5    0.45    1.12
   5  13  -5   -0.07    0.52
  -5 -13   5    0.21    0.46
  -5 -13   5   -0.38    0.98
  -5  13   6    8.11    1.08
  -5  13   6    9.39    1.30
  -5  13   6   10.06    1.68
   5  13  -6    9.22    1.12
  -5 -13   6    7.84    1.08
  -5 -13   6    9.03    1.50
  -5  13   7    0.36    0.48
  -5  13   7    0.26    1.14
   5  13  -7    0.21    0.50
  -5  13   8    4.65    0.76
  -5  13   8    4.15    0.99
  -5  13   8    2.66    1.31
   5  13  -8    4.47    0.74
  -5 -13   8    3.34    1.16
  -5  13   9    5.42    0.87
  -5  13   9    5.95    1.16
   5  13  -9    6.05    0.85
  -5 -13   9    5.52    0.82
  -5 -13   9    5.50    1.29
  -5  13  10   27.93    2.36
  -5  13  10   12.87    2.34
  -5  13  10   20.31    2.70
  -5 -13  10   23.13    2.60
  -5  13  11    3.71    0.76
  -5  13  11    3.62    1.06
  -5  13  11    3.51    1.35
  -5 -13  11    2.84    1.16
  -5  14   1   18.88    2.11
  -5  14   1   21.45    2.20
  -5  14   1   18.50    2.60
   5  14  -1   19.85    2.21
  -5 -14   1   20.63    2.19
  -5 -14   1   19.81    2.51
  -5  14   2    0.77    0.41
  -5  14   2    0.33    0.59
   5  14  -2    0.39    0.53
  -5 -14   2    1.05    0.52
  -5 -14   2   -0.18    0.98
  -5  14   3    0.06    0.41
  -5  14   3    0.28    0.61
  -5  14   3    0.95    1.18
   5  14  -3   -0.14    0.52
  -5 -14   3   -0.34    0.48
  -5 -14   3    0.11    1.00
  -5  14   4    0.46    0.44
  -5  14   4    0.78    1.17
   5  14  -4    0.98    0.55
  -5 -14   4    1.03    0.50
  -5 -14   4    0.99    1.03
  -5  14   5    6.19    0.89
  -5  14   5    6.41    1.08
  -5  14   5    4.78    1.48
   5  14  -5    7.04    0.96
  -5 -14   5    6.77    0.91
  -5 -14   5    7.10    1.38
  -5  14   6    1.45    0.53
  -5  14   6    2.48    0.81
  -5  14   6    3.58    1.30
   5  14  -6    1.05    0.56
  -5 -14   6    1.93    1.10
  -5  14   7    7.96    1.24
  -5  14   7    5.66    1.55
  -5  14   8    0.38    0.80
  -5  14   8   -0.10    1.21
  -5 -14   8    0.22    1.00
  -5  14   9   16.34    2.10
  -5 -14   9   16.04    2.21
  -5  15   1    0.26    0.37
  -5  15   1   -0.25    0.55
  -5  15   1    0.11    1.18
  -5 -15   1   -0.14    1.01
  -5 -15   2    3.64    1.20
  -5  15   3    2.14    0.71
  -5  15   3    1.12    1.24
  -5 -15   3    1.59    1.12
  -5  15   4    2.49    0.78
  -5  15   4    2.19    1.30
  -5 -15   4    3.02    1.16
  -5  15   5    3.89    0.88
  -5  15   5    2.40    1.34
  -5 -15   5    2.57    1.18
  -5  15   6   -0.11    0.75
  -5  15   6    0.46    1.25
  -5 -15   6   -0.03    1.06
  -4   0   1    0.12    0.32
  -4   0   1    0.01    0.41
   4   0  -1   -0.03    0.31
  -4   0   2   62.68    7.29
  -4   0   2  110.00    7.40
   4   0  -2   64.99    7.29
  -4   0   3    0.08    0.34
  -4   0   3    0.10    0.42
   4   0  -3    0.07    0.34
  -4   0   4  574.07   58.32
  -4   0   4  657.43   58.40
   4   0  -4  557.45   58.31
  -4   0   5   -0.06    0.37
  -4   0   5    0.24    0.48
   4   0  -5    0.10    0.36
  -4   0   6    5.58    0.75
  -4   0   6    5.05    0.79
  -4   0   7   -0.28    0.41
  -4   0   7    0.02    0.48
  -4   0   8  242.05   25.57
  -4   0   8  274.57   25.61
   4   0  -8  256.48   25.59
  -4   0   9   -0.06    0.46
  -4   0   9    0.03    0.50
   4   0  -9   -0.02    0.45
  -4   0  10   39.85    4.42
  -4   0  10   47.77    4.46
   4   0 -10   40.91    4.44
  -4   0  11    0.32    0.48
   4   0 -11   -0.03    0.48
  -4   0  12   52.73    5.52
   4   0 -12   54.07    5.55
  -4   0  13    0.21    0.52
   4   0 -13    0.19    0.57
  -4   0  14    5.03    0.82
  -4   0  14    3.73    0.84
   4   0 -14    3.97    0.84
  -4   0  15    0.25    0.57
  -4   0  15   -0.08    0.65
   4   0 -15    0.34    0.63
  -4   0  16  121.10   11.51
  -4   0  16  104.74   11.44
   4   0 -16  115.12   11.52
  -4   0  17   -0.78    0.68
  -4   0  17    0.05    0.68
   4   0 -17    0.63    0.70
  -4   0  18  102.73   10.07
  -4   0  18   91.43   10.01
   4   0 -18  102.48   10.10
  -4   0  19   -0.08    0.69
  -4   0  19    0.04    0.73
   4   0 -19   -0.24    0.74
  -4   0  20   19.98    2.05
  -4   0  20   13.91    1.95
  -4   1   1   25.59    2.78
  -4   1   1   33.86    2.88
   4  -1  -1   24.71    2.77
   4   1  -1   25.06    2.77
  -4  -1   1   24.59    2.77
  -4  -1   1   32.28    2.85
  -4   1   2  251.28   26.54
  -4   1   2  316.06   26.63
   4  -1  -2  254.04   26.54
   4   1  -2  259.65   26.55
  -4  -1   2  256.92   26.55
  -4  -1   2  299.78   26.61
  -4   1   3    5.25    0.62
  -4   1   3    2.88    0.67
   4  -1  -3    4.32    0.61
   4   1  -3    4.51    0.61
  -4  -1   3    4.81    0.62
  -4  -1   3    3.06    0.66
  -4   1   4  125.41   12.83
  -4   1   4  152.41   12.90
   4   1  -4  119.22   12.82
  -4  -1   4  120.63   12.82
  -4  -1   4  135.41   12.88
  -4   1   5   16.35    1.99
  -4   1   5   21.41    2.06
   4   1  -5   17.21    1.99
  -4  -1   5   17.65    1.99
  -4  -1   5   23.06    2.06
  -4   1   6  344.56   35.26
  -4   1   6  386.53   35.31
   4  -1  -6  340.84   35.26
   4   1  -6  345.07   35.26
  -4  -1   6  347.72   35.25
  -4  -1   6  372.53   35.30
  -4   1   7  148.70   15.01
  -4   1   7  168.79   15.04
   4  -1  -7  148.20   15.01
   4   1  -7  149.37   15.00
  -4  -1   7  138.44   14.98
  -4   1   8    3.34    0.70
  -4   1   8    7.39    0.81
   4  -1  -8    3.97    0.73
  -4  -1   8    2.84    0.67
  -4  -1   8    7.41    0.77
  -4   1   9  175.89   17.21
   4  -1  -9  173.86   17.22
  -4  -1   9  160.63   17.18
  -4  -1   9  177.08   17.20
  -4   1  10   66.90    6.94
   4   1 -10   67.72    6.94
  -4  -1  10   65.65    6.93
  -4  -1  10   70.80    6.94
  -4   1  11  173.38   17.82
  -4   1  11  171.55   17.81
   4  -1 -11  171.51   17.84
   4   1 -11  180.91   17.83
  -4  -1  11  178.59   17.81
  -4  -1  11  188.23   17.83
  -4   1  12  113.68   11.62
   4  -1 -12  113.47   11.64
   4   1 -12  116.64   11.62
  -4   1  13   73.96    7.52
  -4   1  13   74.00    7.51
   4  -1 -13   71.85    7.53
   4   1 -13   72.74    7.51
  -4   1  14  185.87   19.27
   4  -1 -14  191.97   19.30
   4   1 -14  187.97   19.27
  -4  -1  14  196.95   19.26
  -4  -1  14  194.26   19.25
  -4   1  15    3.47    0.85
  -4   1  15    4.94    0.87
   4  -1 -15    4.66    0.90
   4   1 -15    4.92    0.87
  -4  -1  15    4.05    0.81
  -4  -1  15    4.74    0.88
  -4   1  16    0.66    0.66
  -4   1  16    0.81    0.68
   4  -1 -16    1.20    0.71
   4   1 -16    0.95    0.66
  -4  -1  16    0.32    0.60
  -4  -1  16    0.77    0.71
  -4   1  17    3.31    0.85
  -4   1  17    3.02    0.84
   4  -1 -17    2.72    0.85
   4   1 -17    3.17    0.81
  -4  -1  17    2.88    0.78
  -4  -1  17    3.59    0.84
  -4   1  18    1.14    0.73
  -4   1  18    0.73    0.75
   4   1 -18    0.85    0.71
  -4  -1  18    0.94    0.69
  -4  -1  18    0.32    0.72
  -4   1  19    8.05    1.18
  -4   1  19    5.73    1.12
   4  -1 -19    6.49    1.19
   4   1 -19    7.56    1.17
  -4  -1  19    7.26    1.13
  -4  -1  19    6.57    1.11
  -4   1  20   18.59    2.19
  -4   1  20   16.49    2.13
   4  -1 -20   18.88    2.23
   4   1 -20   19.41    2.20
  -4  -1  20   20.28    2.18
  -4  -1  20   16.26    2.10
  -4   2   1  139.86   13.24
   4  -2  -1  139.09   13.24
   4   2  -1  122.92   13.24
  -4  -2   1  120.60   13.24
  -4  -2   1  144.36   13.31
  -4   2   2  926.74   93.93
  -4   2   2 1150.24   94.12
   4   2  -2  886.44   93.94
  -4  -2   2  879.73   93.94
  -4  -2   2 1062.33   94.07
  -4   2   3  152.14   14.75
  -4   2   3  142.86   14.80
   4   2  -3  149.90   14.74
  -4  -2   3  148.64   14.74
  -4  -2   3  139.25   14.78
  -4   2   4   39.17    4.30
  -4   2   4   52.64    4.41
   4  -2  -4   40.13    4.31
   4   2  -4   38.73    4.29
  -4  -2   4   39.21    4.29
  -4  -2   4   49.51    4.38
  -4   2   5   19.10    2.04
  -4   2   5   18.85    2.07
   4  -2  -5   18.07    2.03
   4   2  -5   18.49    2.02
  -4  -2   5   20.31    2.03
  -4  -2   5   18.60    2.05
  -4   2   6   53.83    5.62
  -4   2   6   60.75    5.67
   4  -2  -6   54.70    5.62
   4   2  -6   51.79    5.60
  -4  -2   6   54.15    5.60
  -4  -2   6   55.59    5.63
  -4   2   7  240.47   22.25
   4  -2  -7  215.03   22.22
   4   2  -7  217.15   22.19
  -4  -2   7  220.08   22.19
  -4   2   8  139.06   14.98
  -4   2   8  166.02   15.02
   4  -2  -8  148.06   15.00
   4   2  -8  144.93   14.96
  -4  -2   8  138.56   14.96
  -4  -2   8  166.32   15.00
  -4   2   9 1222.66  123.58
  -4   2   9 1319.53  123.67
   4  -2  -9 1189.67  123.61
   4   2  -9 1275.36  123.59
  -4  -2   9 1176.42  123.55
  -4  -2   9 1352.07  123.71
  -4   2  10  256.62   25.87
   4  -2 -10  258.35   25.90
  -4  -2  10  242.94   25.83
  -4  -2  10  283.59   25.89
   4  -2 -11  164.06   16.53
  -4  -2  11  163.61   16.46
  -4   2  12    0.12    0.58
  -4   2  12    1.09    0.60
   4  -2 -12    0.50    0.59
   4   2 -12    0.46    0.49
  -4  -2  12    0.19    0.48
  -4   2  13    4.09    0.82
  -4   2  13    3.71    0.80
   4  -2 -13    3.70    0.82
   4   2 -13    4.21    0.74
  -4  -2  13    4.48    0.75
  -4  -2  13    3.77    0.78
  -4   2  14    6.65    1.05
   4  -2 -14    6.62    1.07
   4   2 -14    6.33    0.97
  -4  -2  14    6.84    1.00
  -4   2  15   34.03    3.62
  -4   2  15   34.73    3.60
   4  -2 -15   33.09    3.64
   4   2 -15   32.46    3.58
  -4  -2  15   33.09    3.56
  -4   2  16    9.90    1.41
  -4   2  16   11.17    1.41
   4   2 -16    9.93    1.36
  -4  -2  16   10.79    1.34
  -4  -2  16   10.04    1.37
  -4   2  17    1.04    0.74
  -4   2  17    1.27    0.77
   4   2 -17    1.37    0.68
  -4  -2  17    1.42    0.63
  -4  -2  17    1.46    0.74
  -4   2  18    0.64    0.75
  -4   2  18    1.26    0.80
   4  -2 -18    1.11    0.78
   4   2 -18    0.54    0.67
  -4  -2  18    0.35    0.60
  -4  -2  18    0.27    0.76
   4  -2 -19   20.82    2.38
   4   2 -19   18.93    2.27
  -4  -2  19   20.09    2.26
  -4  -2  19   18.59    2.25
  -4   2  20   11.38    1.49
  -4   2  20   10.12    1.45
   4  -2 -20   10.31    1.51
   4   2 -20   10.43    1.42
  -4  -2  20    9.93    1.38
  -4  -2  20    8.64    1.37
  -4   3   1   32.51    3.14
   4   3  -1   29.41    3.15
  -4  -3   1   29.63    3.15
  -4  -3   1   30.11    3.20
  -4   3   2   70.73    6.91
  -4   3   2   57.52    6.97
   4  -3  -2   64.26    6.90
   4   3  -2   75.05    6.92
  -4  -3   2   73.49    6.91
  -4  -3   2   66.10    6.97
  -4   3   3   21.47    2.16
  -4   3   3   19.45    2.20
   4  -3  -3   19.75    2.15
   4   3  -3   20.17    2.15
  -4  -3   3   20.80    2.15
  -4  -3   3   19.68    2.19
  -4   3   4   84.23    8.68
  -4   3   4  111.07    8.79
   4  -3  -4   89.46    8.70
   4   3  -4   77.43    8.65
  -4  -3   4   75.19    8.65
  -4  -3   4   98.80    8.74
  -4   3   5  229.76   20.57
   4  -3  -5  200.84   20.50
   4   3  -5  196.94   20.48
  -4  -3   5  192.34   20.47
  -4  -3   5  220.43   20.54
  -4   3   6  268.84   27.30
  -4   3   6  296.63   27.36
   4  -3  -6  268.81   27.30
  -4  -3   6  260.76   27.26
  -4  -3   6  282.82   27.32
  -4   3   7  109.65   11.78
  -4   3   7  115.36   11.82
   4  -3  -7  117.15   11.80
   4   3  -7  122.28   11.77
  -4  -3   7  118.69   11.75
  -4   3   8  454.69   45.56
   4  -3  -8  460.64   45.58
   4   3  -8  442.29   45.52
  -4  -3   8  443.76   45.52
  -4  -3   8  499.50   45.60
  -4   3   9  103.10   10.46
  -4   3   9  121.64   10.51
   4  -3  -9  100.63   10.47
   4   3  -9  100.37   10.41
  -4  -3   9   96.31   10.40
  -4   3  10  687.17   65.78
  -4   3  10  630.85   65.78
   4  -3 -10  667.40   65.79
   4   3 -10  664.13   65.73
  -4  -3  10  648.24   65.72
  -4   3  11   61.58    6.33
  -4   3  11   53.17    6.29
   4  -3 -11   59.15    6.33
   4   3 -11   63.26    6.28
  -4  -3  11   69.26    6.29
  -4  -3  11   59.93    6.29
  -4   3  12  111.75   11.83
  -4   3  12  120.94   11.83
   4  -3 -12  112.47   11.85
  -4  -3  12  113.47   11.77
  -4  -3  12  124.76   11.81
  -4   3  13    0.53    0.64
  -4   3  13    0.95    0.67
   4  -3 -13    0.83    0.65
  -4  -3  13    0.61    0.49
  -4  -3  13    0.81    0.62
  -4   3  14   15.16    1.97
   4  -3 -14   16.64    2.01
   4   3 -14   15.30    1.90
  -4  -3  14   17.00    1.90
  -4  -3  14   19.56    1.95
  -4   3  15    4.73    0.93
  -4   3  15    3.81    0.92
   4   3 -15    4.37    0.79
  -4  -3  15    4.89    0.80
  -4  -3  15    3.34    0.82
  -4   3  16   12.87    1.64
  -4   3  16   12.69    1.62
   4  -3 -16   11.71    1.65
   4   3 -16   12.05    1.53
  -4  -3  16   13.08    1.57
  -4   3  17    0.12    0.79
   4  -3 -17   -0.04    0.75
   4   3 -17    0.15    0.58
  -4  -3  17   -0.12    0.69
  -4   3  18   -0.17    0.75
  -4   3  18    0.24    0.82
   4  -3 -18    0.10    0.78
   4   3 -18    0.03    0.62
  -4  -3  18    0.04    0.59
  -4  -3  18   -0.16    0.71
  -4   3  19    0.41    0.78
   4  -3 -19    0.60    0.84
   4   3 -19    0.22    0.66
  -4  -3  19    0.41    0.62
  -4  -3  19    0.45    0.76
  -4   3  20    1.08    0.84
  -4   3  20    0.62    0.85
   4  -3 -20    0.36    0.86
   4   3 -20    0.45    0.68
  -4  -3  20    0.84    0.65
  -4  -3  20    0.57    0.81
  -4   4   1 1522.49  150.36
   4  -4  -1 1658.93  150.40
   4   4  -1 1400.26  150.37
  -4  -4   1 1366.95  150.36
  -4  -4   1 1786.37  150.55
  -4   4   2 1171.65  114.94
  -4   4   2 1300.07  115.08
   4  -4  -2 1161.50  114.92
   4   4  -2 1095.91  114.93
  -4  -4   2 1087.37  114.92
  -4  -4   2 1211.64  115.04
  -4   4   3  207.25   13.36
   4  -4  -3  139.99   13.18
   4   4  -3  110.86   13.14
  -4  -4   3  108.75   13.13
  -4  -4   3  162.65   13.26
  -4   4   4  511.99   52.11
   4  -4  -4  555.37   52.14
   4   4  -4  508.53   52.10
  -4  -4   4  506.06   52.10
  -4  -4   4  552.83   52.19
  -4   4   5  278.21   28.00
   4  -4  -5  282.73   28.02
  -4   4   6  169.18   16.76
  -4   4   6  203.91   16.85
   4  -4  -6  171.00   16.78
   4   4  -6  157.65   16.71
  -4  -4   6  153.96   16.71
  -4   4   7   19.18    2.10
  -4   4   7   18.22    2.17
   4  -4  -7   18.18    2.12
   4   4  -7   19.31    2.07
  -4  -4   7   20.04    2.07
  -4   4   8  274.88   28.43
   4  -4  -8  287.20   28.46
   4   4  -8  277.13   28.39
  -4  -4   8  280.75   28.38
  -4  -4   8  308.43   28.46
  -4   4   9    3.28    0.71
  -4   4   9    1.37    0.78
   4  -4  -9    2.63    0.73
   4   4  -9    4.37    0.64
  -4  -4   9    4.20    0.62
  -4  -4   9    2.77    0.76
  -4   4  10    2.58    0.71
  -4   4  10    3.77    0.78
   4  -4 -10    2.93    0.73
   4   4 -10    3.05    0.60
  -4  -4  10    2.97    0.59
  -4  -4  10    3.41    0.72
  -4   4  11   36.97    4.08
  -4   4  11   42.80    4.12
   4  -4 -11   37.14    4.09
   4   4 -11   36.53    4.01
  -4  -4  11   37.83    4.01
  -4  -4  11   41.20    4.07
  -4   4  12   68.78    7.06
   4   4 -12   68.22    6.99
  -4  -4  12   69.53    6.98
  -4  -4  12   66.36    7.01
  -4   4  13    0.36    0.64
  -4   4  13    0.55    0.70
   4   4 -13    0.75    0.51
  -4  -4  13    0.29    0.47
  -4  -4  13    0.33    0.63
  -4   4  14    2.18    0.76
   4  -4 -14    1.62    0.76
  -4  -4  14    1.81    0.57
  -4  -4  14    1.51    0.72
  -4   4  15   15.23    1.83
  -4   4  15   14.59    1.82
   4  -4 -15   15.09    1.84
  -4  -4  15   13.57    1.67
  -4  -4  15   14.36    1.75
  -4   4  16  110.20   12.17
   4  -4 -16  121.94   12.26
   4   4 -16  119.15   12.15
  -4  -4  16  122.33   12.12
  -4  -4  16  124.46   12.17
  -4   4  17    5.19    1.04
  -4   4  17    4.53    1.06
   4  -4 -17    4.56    1.05
   4   4 -17    4.48    0.84
  -4  -4  17    4.21    0.81
  -4  -4  17    4.86    0.94
  -4   4  18   68.67    6.71
  -4   4  18   57.02    6.62
   4  -4 -18   65.11    6.74
   4   4 -18   68.13    6.62
  -4  -4  18   61.11    6.60
  -4   4  19   -0.56    0.84
   4  -4 -19    0.13    0.86
   4   4 -19    0.36    0.60
  -4  -4  19    0.81    0.77
  -4   4  20    1.18    0.87
  -4   4  20    0.43    0.91
   4  -4 -20    1.01    0.94
  -4  -4  20    0.26    0.79
   4  -5  -1 1203.48  111.14
   4   5  -1 1101.18  111.12
  -4  -5   1 1063.44  111.12
  -4   5   2   23.84    2.60
  -4   5   2   20.49    2.70
   4  -5  -2   23.65    2.62
   4   5  -2   27.59    2.63
  -4  -5   2   28.58    2.63
  -4  -5   2   23.92    2.69
  -4   5   3    3.62    0.58
  -4   5   3    3.64    0.85
   4  -5  -3    4.14    0.65
  -4  -5   3    2.38    0.77
  -4   5   4   37.56    2.87
   4  -5  -4   26.05    2.69
   4   5  -4   22.48    2.63
  -4  -5   4   21.11    2.62
  -4  -5   4   29.82    2.76
  -4   5   5  123.33   13.04
  -4   5   5  131.87   13.13
   4  -5  -5  129.02   13.07
   4   5  -5  133.59   13.01
  -4  -5   5  127.99   13.01
  -4  -5   5  133.05   13.09
  -4   5   6   29.67    3.25
  -4   5   6   30.87    3.33
   4  -5  -6   30.27    3.27
   4   5  -6   31.79    3.22
  -4  -5   6   30.02    3.20
  -4  -5   6   32.22    3.30
  -4   5   7  454.38   44.44
  -4   5   7  481.34   44.52
   4  -5  -7  448.12   44.45
   4   5  -7  433.45   44.38
  -4  -5   7  430.21   44.37
  -4   5   8   28.96    3.19
   4  -5  -8   30.30    3.22
   4   5  -8   29.08    3.13
  -4  -5   8   30.02    3.13
  -4  -5   8   31.26    3.21
  -4   5   9  101.02   10.25
  -4   5   9  101.14   10.28
   4  -5  -9  103.83   10.28
   4   5  -9   99.09   10.18
  -4  -5   9   95.79   10.17
  -4  -5   9  107.23   10.25
  -4   5  10   62.98    6.65
  -4   5  10   65.11    6.69
   4  -5 -10   61.17    6.66
   4   5 -10   63.76    6.59
  -4  -5  10   66.43    6.59
  -4  -5  10   66.76    6.66
  -4   5  11   50.89    5.70
  -4   5  11   63.04    5.78
   4   5 -11   53.86    5.64
  -4  -5  11   54.40    5.63
  -4   5  12   14.97    1.74
  -4   5  12   12.08    1.73
   4  -5 -12   12.93    1.73
   4   5 -12   13.48    1.60
  -4  -5  12   15.51    1.61
  -4  -5  12   13.94    1.69
  -4   5  13  113.23   11.58
  -4   5  13  108.66   11.57
   4  -5 -13  113.29   11.61
   4   5 -13  114.29   11.49
  -4  -5  13  118.10   11.48
  -4  -5  13  110.97   11.54
   4  -5 -14  106.41   11.42
   4   5 -14  111.67   11.31
  -4  -5  14  120.07   11.30
  -4  -5  14  105.11   11.34
  -4   5  15   67.16    7.03
  -4   5  15   64.08    7.01
   4  -5 -15   65.49    7.06
   4   5 -15   68.14    6.96
  -4  -5  15   70.60    6.94
  -4  -5  15   67.85    6.98
  -4   5  16    0.95    0.77
  -4   5  16    0.00    0.82
   4  -5 -16    0.50    0.81
   4   5 -16    0.71    0.56
  -4  -5  16    0.31    0.52
  -4  -5  16    0.48    0.75
  -4   5  17    0.44    0.79
  -4   5  17    1.08    0.89
   4  -5 -17    0.07    0.83
  -4  -5  17    0.55    0.55
  -4  -5  17    0.49    0.77
  -4   5  18    1.27    0.87
  -4   5  18    0.45    0.95
   4  -5 -18    2.31    0.97
  -4  -5  18    1.78    0.62
  -4  -5  18    1.47    0.80
  -4   5  19   27.25    2.94
   4  -5 -19   26.12    3.00
   4   5 -19   24.22    2.75
  -4  -5  19   26.60    2.74
  -4  -5  19   21.76    2.77
  -4   6   1  263.22   25.78
   4  -6  -1  283.37   25.80
   4   6  -1  240.93   25.79
  -4  -6   1  234.23   25.79
  -4  -6   1  289.25   25.93
  -4   6   2  170.74   16.89
  -4   6   2  206.05   17.08
   4  -6  -2  178.56   16.90
   4   6  -2  160.85   16.89
  -4  -6   2  146.33   16.87
  -4  -6   2  183.76   17.01
  -4   6   3  921.20   92.63
  -4   6   3 1004.99   92.80
   4  -6  -3  934.84   92.66
   4   6  -3  925.12   92.62
  -4  -6   3  890.73   92.62
  -4  -6   3  954.34   92.74
  -4   6   4    1.93    0.56
  -4   6   4    0.31    0.79
   4  -6  -4    1.95    0.58
   4   6  -4    3.20    0.54
  -4  -6   4    3.74    0.52
  -4  -6   4    1.15    0.72
  -4   6   5    8.42    1.39
   4  -6  -5   10.36    1.27
   4   6  -5    9.86    1.19
  -4  -6   5   12.00    1.20
  -4  -6   5    8.92    1.33
  -4   6   6  294.96   28.64
  -4   6   6  335.95   28.75
   4  -6  -6  300.94   28.66
   4   6  -6  269.93   28.56
  -4  -6   6  258.11   28.55
  -4  -6   6  305.38   28.67
  -4   6   7   94.98    9.61
  -4   6   7   98.19    9.68
   4  -6  -7   94.87    9.63
   4   6  -7   94.47    9.55
  -4  -6   7   92.19    9.53
  -4   6   8   79.65    8.15
   4  -6  -8   80.32    8.18
   4   6  -8   79.16    8.08
  -4  -6   8   81.15    8.08
  -4  -6   8   77.56    8.16
  -4   6   9  251.24   24.51
  -4   6   9  249.42   24.54
   4   6  -9  236.71   24.41
  -4  -6   9  238.79   24.40
  -4  -6   9  252.15   24.50
  -4   6  10  449.94   43.57
  -4   6  10  446.27   43.60
   4  -6 -10  453.94   43.63
   4   6 -10  421.27   43.46
  -4  -6  10  422.73   43.46
  -4  -6  10  440.59   43.56
  -4   6  11  104.43   10.37
  -4   6  11   90.33   10.35
   4  -6 -11  101.43   10.40
   4   6 -11  103.46   10.27
  -4  -6  11  106.12   10.26
  -4  -6  11   99.80   10.33
  -4   6  12    0.81    0.78
   4  -6 -12    0.68    0.73
   4   6 -12    1.25    0.51
  -4  -6  12    0.88    0.48
  -4  -6  12    1.66    0.72
  -4   6  13    0.32    0.69
  -4   6  13    0.08    0.77
   4   6 -13   -0.02    0.48
  -4  -6  13    0.06    0.45
  -4  -6  13   -0.31    0.70
  -4   6  14   29.19    3.15
   4  -6 -14   26.72    3.16
   4   6 -14   26.62    2.99
  -4  -6  14   29.62    2.99
  -4  -6  14   27.52    3.08
  -4   6  15    3.26    0.87
  -4   6  15    2.03    0.96
   4  -6 -15    2.86    0.95
   4   6 -15    3.34    0.67
  -4  -6  15    2.76    0.64
  -4  -6  15    2.16    0.84
  -4   6  16    0.63    0.77
  -4   6  16    0.88    0.91
   4  -6 -16    0.54    0.87
   4   6 -16    0.84    0.56
  -4  -6  16    0.54    0.53
  -4  -6  16    1.54    0.83
  -4   6  17    2.30    0.91
  -4   6  17    1.91    1.01
   4  -6 -17    2.62    1.01
   4   6 -17    2.14    0.65
  -4  -6  17    2.66    0.64
  -4  -6  17    2.45    0.90
  -4   6  18    0.55    0.75
  -4   6  18    0.45    0.85
  -4   6  18    1.11    0.95
   4   6 -18    0.54    0.57
  -4  -6  18    0.12    0.53
  -4  -6  18    0.49    0.85
  -4   6  19   33.93    3.19
  -4   6  19   27.76    3.18
  -4   6  19   22.36    3.11
  -4  -6  19   27.20    3.08
  -4   7   1   10.80    1.21
   4  -7  -1   12.79    1.26
   4   7  -1    9.06    1.24
  -4  -7   1    8.75    1.23
  -4  -7   1   17.27    1.51
  -4   7   2  149.33   14.90
  -4   7   2  156.95   15.08
   4  -7  -2  154.67   14.93
   4   7  -2  144.90   14.91
  -4  -7   2  144.87   14.90
  -4  -7   2  146.13   15.02
  -4   7   3    6.84    0.84
  -4   7   3    7.90    1.12
   4  -7  -3    6.82    0.86
   4   7  -3    5.09    0.79
  -4  -7   3    4.53    0.76
  -4  -7   3    6.79    1.03
  -4   7   4   32.56    3.50
  -4   7   4   34.04    3.63
   4  -7  -4   31.48    3.50
   4   7  -4   32.78    3.46
  -4  -7   4   33.59    3.46
  -4  -7   4   36.73    3.60
  -4   7   5  209.35   20.34
  -4   7   5  201.55   20.43
   4  -7  -5  204.80   20.38
   4   7  -5  205.34   20.29
  -4  -7   5  194.08   20.27
  -4  -7   5  205.50   20.40
  -4   7   6   20.25    2.30
  -4   7   6   20.26    2.42
   4  -7  -6   20.47    2.33
   4   7  -6   21.92    2.25
  -4  -7   6   20.85    2.23
  -4  -7   6   21.57    2.37
  -4   7   7  103.89   10.83
  -4   7   7  115.17   10.93
   4   7  -7  108.82   10.76
  -4  -7   7  102.98   10.74
  -4   7   8  100.02   10.03
   4  -7  -8   96.98   10.06
   4   7  -8   97.93    9.93
  -4  -7   8   96.49    9.91
  -4  -7   8  101.48   10.03
  -4   7   9    0.37    0.60
  -4   7   9    0.08    0.77
   4  -7  -9    0.26    0.64
   4   7  -9    0.37    0.44
  -4  -7   9    0.67    0.42
  -4  -7   9    1.01    0.71
  -4   7  10   10.71    1.72
   4  -7 -10   12.39    1.68
   4   7 -10   13.63    1.53
  -4  -7  10   14.35    1.51
  -4  -7  10   13.85    1.67
  -4   7  11    1.70    0.72
  -4   7  11    1.50    0.85
   4  -7 -11    1.82    0.79
   4   7 -11    1.11    0.49
  -4  -7  11    0.71    0.46
  -4  -7  11    1.78    0.76
  -4   7  12   52.86    5.38
  -4   7  12   50.99    5.40
   4  -7 -12   51.81    5.43
   4   7 -12   47.84    5.24
  -4  -7  12   51.78    5.25
  -4  -7  12   51.68    5.35
  -4   7  13   18.21    2.09
  -4   7  13   12.67    2.05
   4  -7 -13   16.40    2.12
   4   7 -13   16.52    1.89
  -4  -7  13   19.52    1.90
  -4  -7  13   16.56    2.03
  -4   7  14   18.66    2.20
  -4   7  14   20.43    2.25
   4  -7 -14   18.62    2.27
   4   7 -14   17.47    2.00
  -4  -7  14   16.03    1.97
  -4  -7  14   19.44    2.16
  -4   7  15    2.79    0.91
  -4   7  15    1.85    0.98
   4   7 -15    2.28    0.63
  -4  -7  15    2.56    0.60
  -4  -7  15    2.17    0.88
  -4   7  16    6.93    1.07
  -4   7  16    7.77    1.21
  -4   7  16    3.82    1.19
   4   7 -16    5.54    0.90
  -4  -7  16    6.11    0.90
  -4  -7  16    5.98    1.13
  -4   7  17    4.38    0.88
  -4   7  17    1.91    0.91
  -4   7  17    1.66    1.03
   4   7 -17    1.80    0.64
  -4  -7  17    2.98    0.65
  -4  -7  17    2.36    0.93
  -4   7  18    3.14    0.87
  -4   7  18    1.80    0.95
  -4   7  18    1.22    1.04
  -4  -7  18    2.94    0.97
  -4   8   1  158.93   15.66
   4   8  -1  156.26   15.69
  -4  -8   1  151.25   15.68
  -4  -8   1  161.69   15.82
  -4   8   2   92.57    8.52
  -4   8   2   84.23    8.52
  -4   8   2   68.43    8.63
   4   8  -2   86.65    8.52
  -4  -8   2   90.99    8.53
  -4  -8   2   74.13    8.61
  -4   8   3  174.59   16.82
  -4   8   3  181.61   17.00
   4   8  -3  161.57   16.79
  -4  -8   3  161.32   16.79
  -4  -8   3  169.23   16.93
  -4   8   4    4.98    0.73
  -4   8   4    5.99    1.04
   4   8  -4    3.84    0.67
  -4  -8   4    3.50    0.63
  -4  -8   4    5.19    0.94
  -4   8   5   31.88    3.49
  -4   8   5   31.11    3.61
   4   8  -5   34.49    3.45
  -4  -8   5   33.37    3.43
  -4  -8   5   33.21    3.57
  -4   8   6   10.67    1.38
  -4   8   6   10.49    1.59
   4  -8  -6   10.71    1.46
   4   8  -6   13.06    1.36
  -4  -8   6   12.46    1.34
  -4  -8   6   11.62    1.53
  -4   8   7   65.69    6.57
  -4   8   7   64.00    6.65
   4  -8  -7   62.04    6.61
   4   8  -7   64.58    6.48
  -4  -8   7   61.75    6.46
   4  -8  -8   13.06    1.66
   4   8  -8   13.06    1.50
  -4  -8   8   13.38    1.48
  -4  -8   8   13.16    1.68
  -4   8   9    6.42    1.06
  -4   8   9    9.90    1.30
   4  -8  -9    6.30    1.12
   4   8  -9    6.50    0.90
  -4  -8   9    5.96    0.87
  -4  -8   9    8.71    1.17
  -4   8  10   66.58    6.90
  -4   8  10   58.19    6.92
   4   8 -10   68.03    6.79
  -4  -8  10   70.53    6.78
  -4  -8  10   65.06    6.89
  -4   8  11    2.90    0.83
  -4   8  11    3.80    1.00
   4   8 -11    2.93    0.59
  -4  -8  11    2.11    0.55
  -4  -8  11    2.87    0.85
  -4   8  12   16.39    1.57
  -4   8  12   12.02    1.63
  -4   8  12   11.45    1.69
   4   8 -12   11.07    1.42
  -4  -8  12   11.82    1.41
  -4  -8  12   11.44    1.61
  -4   8  13   18.26    1.72
  -4   8  13   13.33    1.77
  -4   8  13   10.36    1.79
   4   8 -13   13.19    1.56
  -4  -8  13   13.72    1.54
  -4  -8  13   11.48    1.73
  -4   8  14    8.03    1.05
  -4   8  14    6.00    1.16
  -4   8  14    4.55    1.22
   4   8 -14    6.25    0.91
  -4  -8  14    5.95    0.87
  -4  -8  14    5.60    1.13
  -4   8  15   25.28    2.62
  -4   8  15   24.85    2.74
  -4   8  15   20.33    2.71
   4   8 -15   21.04    2.48
  -4  -8  15   23.06    2.48
  -4  -8  15   24.06    2.67
  -4   8  16    4.59    0.90
  -4   8  16    3.55    1.03
  -4   8  16    2.00    1.10
   4   8 -16    3.60    0.72
  -4  -8  16    3.99    0.69
  -4  -8  16    3.24    1.02
  -4   8  17   24.34    2.39
  -4   8  17   15.47    2.43
  -4  -8  17   19.38    2.38
  -4   8  18   11.94    1.47
  -4   8  18   10.38    1.57
  -4   8  18    7.75    1.58
  -4  -8  18    8.74    1.48
  -4   9   1   39.31    4.31
  -4   9   1   45.53    4.36
   4   9  -1   44.18    4.38
  -4  -9   1   41.06    4.37
  -4  -9   1   44.24    4.52
  -4   9   2    5.93    0.84
  -4   9   2    8.05    0.94
  -4   9   2    9.13    1.28
   4   9  -2    7.01    0.92
  -4  -9   2    6.97    0.91
  -4  -9   2    9.60    1.21
  -4   9   3    1.93    0.40
  -4   9   3    0.89    0.49
  -4   9   3   -0.15    0.81
   4   9  -3    1.12    0.47
  -4  -9   3    1.57    0.44
  -4  -9   3    0.48    0.75
  -4   9   4    0.43    0.37
  -4   9   4    0.20    0.49
  -4   9   4   -0.22    0.83
   4   9  -4    0.02    0.42
  -4  -9   4    0.35    0.40
  -4  -9   4    0.11    0.74
  -4   9   5    4.37    0.71
  -4   9   5    5.09    0.85
  -4   9   5    5.87    1.13
   4   9  -5    5.30    0.75
  -4  -9   5    5.30    0.73
  -4  -9   5    5.89    1.04
  -4   9   6    6.27    0.88
  -4   9   6    8.00    1.26
   4   9  -6    6.60    0.89
  -4  -9   6    6.58    0.87
  -4  -9   6    8.57    1.19
  -4   9   7   30.87    3.26
  -4   9   7   28.71    3.45
   4   9  -7   31.02    3.25
  -4  -9   7   32.03    3.24
  -4   9   8   18.59    2.16
   4   9  -8   17.82    2.01
  -4  -9   8   19.78    2.21
  -4   9   9    6.57    0.89
  -4   9   9    5.85    1.05
  -4   9   9    6.40    1.22
   4   9  -9    5.57    0.83
  -4  -9   9    6.28    1.13
  -4   9  10   13.53    1.82
  -4   9  10   16.46    1.99
  -4   9  10   20.91    2.16
   4   9 -10   15.74    1.79
  -4  -9  10   18.69    2.03
  -4   9  11   70.36    7.02
  -4   9  11   67.03    7.10
  -4   9  11   60.14    7.11
   4   9 -11   68.36    6.96
  -4  -9  11   73.69    7.12
  -4   9  12    9.31    1.12
  -4   9  12    8.69    1.28
  -4   9  12    6.03    1.32
   4   9 -12    7.02    0.98
  -4  -9  12    6.34    1.22
  -4   9  13   20.09    2.46
  -4   9  13   23.51    2.63
  -4   9  13   23.43    2.68
   4   9 -13   21.75    2.39
  -4  -9  13   23.23    2.59
  -4   9  14   12.06    1.37
  -4   9  14    8.52    1.47
  -4   9  14    7.49    1.54
   4   9 -14    9.73    1.22
  -4  -9  14   10.31    1.21
  -4  -9  14    9.55    1.49
  -4   9  15    2.41    0.75
  -4   9  15    2.90    0.97
  -4   9  15    2.31    1.08
   4   9 -15    2.58    0.63
  -4  -9  15    2.80    0.60
  -4  -9  15    2.69    0.97
  -4   9  16   11.63    1.40
  -4   9  16    7.03    1.56
  -4  -9  16    9.46    1.50
  -4   9  17    2.69    0.81
  -4   9  17    1.68    0.95
  -4   9  17    2.17    1.14
  -4  -9  17    2.28    1.01
  -4  10   1    1.72    0.39
  -4  10   1    2.49    0.51
   4  10  -1    1.38    0.52
  -4 -10   1    1.48    0.50
  -4 -10   1    2.79    0.86
  -4  10   2    9.23    1.10
  -4  10   2   13.93    1.54
   4  10  -2    8.26    1.09
  -4 -10   2    6.98    1.06
  -4 -10   2   12.84    1.42
  -4  10   3  157.09   15.22
  -4  10   3  129.44   15.41
   4  10  -3  159.58   15.25
  -4 -10   3  155.51   15.23
  -4 -10   3  141.30   15.39
  -4  10   4    1.63    0.47
  -4  10   4    4.43    1.05
   4  10  -4    2.24    0.54
  -4 -10   4    2.06    0.51
  -4 -10   4    3.54    0.93
  -4  10   5    0.10    0.39
  -4  10   5   -0.06    0.57
  -4  10   5   -0.33    0.91
   4  10  -5    0.12    0.44
  -4 -10   5    0.48    0.42
  -4 -10   5    0.53    0.80
  -4  10   6    5.14    0.79
  -4  10   6    6.28    0.97
  -4  10   6    6.57    1.24
   4  10  -6    5.66    0.80
  -4 -10   6    5.59    1.11
  -4  10   7   96.96    9.90
  -4  10   7   99.65   10.00
  -4  10   7   95.62   10.10
   4  10  -7   98.02    9.88
  -4  10   8   53.93    5.25
   4  10  -8   47.07    5.11
  -4 -10   8   50.40    5.28
  -4  10   9    7.38    1.02
  -4  10   9    9.73    1.26
  -4  10   9   10.62    1.46
   4  10  -9    6.51    0.98
  -4 -10   9    7.35    0.96
  -4 -10   9    8.05    1.31
  -4  10  10   26.94    3.00
  -4  10  10   29.54    3.16
  -4  10  10   34.38    3.31
   4  10 -10   27.09    2.96
  -4 -10  10   25.53    2.93
  -4 -10  10   32.48    3.20
  -4  10  11   37.64    3.45
  -4  10  11   32.60    3.56
  -4  10  11   25.01    3.55
   4  10 -11   31.68    3.35
  -4 -10  11   33.01    3.34
  -4 -10  11   28.39    3.51
  -4  10  12    0.23    0.57
  -4  10  12    0.60    0.80
  -4  10  12   -0.24    0.96
   4  10 -12    0.39    0.46
  -4 -10  12    0.03    0.44
  -4 -10  12    0.81    0.84
  -4  10  13   12.68    1.37
  -4  10  13   11.77    1.57
  -4  10  13    7.74    1.58
   4  10 -13    9.30    1.21
  -4 -10  13   10.01    1.21
  -4 -10  13    8.43    1.48
  -4  10  14    1.32    0.66
  -4  10  14    0.67    1.02
   4  10 -14    0.82    0.50
  -4 -10  14    1.07    0.50
  -4 -10  14    1.20    0.92
  -4  10  15    1.09    0.66
  -4  10  15    0.88    0.88
  -4  10  15    0.63    1.08
  -4 -10  15    0.99    0.94
  -4  10  16    6.19    1.00
  -4  10  16    4.14    1.14
  -4  10  16    3.60    1.30
  -4 -10  16    5.28    1.18
  -4  11   1    0.80    0.35
   4  11  -1    0.44    0.48
  -4 -11   1    0.59    0.45
  -4 -11   1    0.94    0.84
  -4  11   2   36.94    3.60
  -4  11   2   34.08    3.84
   4  11  -2   33.40    3.57
  -4 -11   2   33.93    3.57
  -4 -11   2   31.86    3.75
  -4  11   3    2.18    0.51
  -4  11   3    3.22    0.68
  -4  11   3    5.25    1.14
   4  11  -3    2.69    0.59
  -4 -11   3    2.58    0.56
  -4 -11   3    3.77    0.97
  -4  11   4   10.18    1.22
  -4  11   4   10.08    1.33
  -4  11   4    7.27    1.57
   4  11  -4   11.07    1.25
  -4 -11   4   11.96    1.25
  -4 -11   4    9.72    1.51
  -4  11   5    0.45    0.44
  -4  11   5    1.25    0.65
  -4  11   5    1.49    1.02
   4  11  -5    1.53    0.51
  -4 -11   5    1.93    0.90
  -4  11   6   76.49    7.27
  -4  11   6   70.49    7.35
  -4  11   6   61.20    7.45
   4  11  -6   73.96    7.26
  -4 -11   6   67.40    7.42
  -4  11   7    9.27    1.25
  -4  11   7   12.90    1.48
  -4  11   7   14.32    1.74
   4  11  -7   10.17    1.25
  -4 -11   7    9.98    1.23
  -4  11   8    9.46    1.11
  -4  11   8    5.21    1.33
   4  11  -8    5.77    0.85
  -4 -11   8    5.97    0.83
  -4 -11   8    5.09    1.19
  -4  11   9    0.21    0.49
  -4  11   9    0.66    0.76
  -4  11   9   -0.27    1.00
   4  11  -9    0.37    0.47
  -4 -11   9   -0.24    0.43
  -4 -11   9    0.05    0.89
  -4  11  10    7.87    1.03
  -4  11  10    6.57    1.23
  -4  11  10    6.21    1.40
   4  11 -10    6.79    0.95
  -4 -11  10    7.74    0.94
  -4 -11  10    6.49    1.28
  -4  11  11    5.67    0.83
  -4  11  11    3.53    1.03
  -4  11  11    2.21    1.15
   4  11 -11    3.83    0.70
  -4 -11  11    4.87    0.69
  -4 -11  11    3.46    1.09
  -4  11  12    5.36    0.87
  -4  11  12    4.46    1.26
   4  11 -12    4.22    0.74
  -4 -11  12    5.21    0.73
  -4 -11  12    4.31    1.15
  -4  11  13    7.49    1.07
  -4  11  13    8.34    1.34
  -4  11  13    6.99    1.44
   4  11 -13    5.94    0.92
  -4 -11  13    7.18    0.92
  -4  11  14    3.20    0.76
  -4  11  14    2.48    0.99
  -4  11  14    1.24    1.15
  -4 -11  14    1.35    0.98
  -4  11  15   28.72    2.83
  -4  11  15   22.49    2.96
  -4 -11  15   22.57    2.91
  -4  12   1    1.05    0.38
   4  12  -1    0.90    0.52
  -4 -12   1    0.95    0.49
  -4 -12   1    1.55    0.92
  -4  12   2    0.32    0.52
  -4  12   2    0.42    1.02
   4  12  -2    0.19    0.48
  -4 -12   2    0.62    0.46
  -4 -12   2   -0.47    0.88
  -4  12   3    0.39    0.40
  -4  12   3    0.41    0.57
  -4  12   3    0.57    1.05
   4  12  -3    0.15    0.47
  -4 -12   3   -0.03    0.43
  -4 -12   3    0.26    0.87
  -4  12   4   34.73    3.49
  -4  12   4   34.15    3.57
  -4  12   4   29.18    3.76
   4  12  -4   33.99    3.49
  -4 -12   4   33.17    3.48
  -4 -12   4   31.12    3.70
  -4  12   5   11.12    1.35
  -4  12   5   12.73    1.52
  -4  12   5   11.84    1.81
   4  12  -5   11.06    1.36
  -4 -12   5   12.65    1.70
  -4  12   6    1.41    0.50
  -4  12   6    1.09    0.73
  -4  12   6    0.95    1.09
   4  12  -6    0.78    0.50
  -4 -12   6    1.34    0.49
  -4 -12   6    0.94    0.94
  -4  12   7   37.07    3.72
  -4  12   7   38.37    3.87
  -4  12   7   32.32    3.99
   4  12  -7   34.97    3.70
  -4 -12   7   34.09    3.68
  -4  12   8    0.08    0.76
  -4  12   8    0.81    1.11
   4  12  -8    0.28    0.46
  -4 -12   8    0.28    0.44
  -4 -12   8    0.11    0.91
  -4  12   9    6.88    0.86
  -4  12   9    2.16    0.74
  -4  12   9    6.55    1.37
  -4 -12   9    5.87    0.76
  -4 -12   9    7.56    1.26
  -4  12  10    1.32    0.57
  -4  12  10    0.74    1.14
  -4 -12  10    0.52    0.44
  -4 -12  10    0.39    0.96
  -4  12  11   20.08    2.07
  -4  12  11   20.11    2.30
  -4  12  11   16.05    2.36
  -4 -12  11   16.91    1.94
  -4 -12  11   16.78    2.25
  -4  12  12    1.70    0.67
  -4  12  12    1.54    0.94
  -4  12  12    1.02    1.13
   4  12 -12    1.79    0.53
  -4 -12  12    1.85    0.51
  -4 -12  12    1.72    1.02
  -4  12  13    4.18    0.85
  -4  12  13    4.50    1.14
  -4  12  13    3.06    1.28
  -4  13   1   16.09    1.74
  -4  13   1   16.98    1.81
   4  13  -1   15.95    1.81
  -4 -13   1   15.15    1.79
  -4 -13   1   16.67    2.11
  -4  13   2    9.89    1.17
  -4  13   2   10.33    1.72
   4  13  -2   10.09    1.24
  -4 -13   2   10.91    1.23
  -4 -13   2    8.88    1.57
  -4  13   3    0.43    0.43
  -4  13   3    0.40    0.62
  -4  13   3    0.30    1.11
   4  13  -3    0.99    0.51
  -4 -13   3    0.76    0.48
  -4 -13   3    0.46    0.94
  -4  13   4    8.53    1.16
  -4  13   4   11.18    1.35
  -4  13   4   10.79    1.73
   4  13  -4    9.90    1.20
  -4 -13   4   10.80    1.58
  -4  13   5   69.15    6.58
  -4  13   5   65.96    6.67
  -4  13   5   45.07    6.75
   4  13  -5   65.54    6.57
  -4 -13   5   68.11    6.56
  -4 -13   5   60.94    6.77
  -4  13   6    0.48    0.47
  -4  13   6    0.55    0.75
  -4  13   6    0.49    1.12
   4  13  -6    0.52    0.48
  -4 -13   6    0.16    0.44
  -4 -13   6    0.30    0.97
  -4  13   7    0.99    0.52
  -4  13   7   -0.43    1.15
  -4 -13   7    1.12    0.47
  -4  13   8    0.19    0.51
  -4  13   8    0.60    0.82
  -4  13   8    0.52    1.15
  -4 -13   8    0.42    0.46
  -4 -13   8    0.90    0.99
  -4  13   9    2.08    0.59
  -4  13   9    1.95    0.90
  -4  13   9    1.61    1.21
   4  13  -9    1.11    0.52
  -4 -13   9    1.60    0.49
  -4 -13   9    0.48    0.99
  -4  13  10    2.63    0.70
  -4  13  10    4.98    0.95
  -4  13  10    3.81    1.34
   4  13 -10    3.42    0.65
  -4 -13  10    3.89    0.63
  -4 -13  10    2.95    1.14
  -4  13  11    1.64    0.63
  -4  13  11    1.19    0.93
  -4  13  11   -0.23    1.15
  -4 -13  11    0.82    1.01
  -4  13  12    1.75    0.68
  -4  13  12    1.81    1.00
  -4  13  12    1.74    1.26
  -4 -13  12    1.59    1.06
  -4  14   1    1.92    0.45
  -4  14   1    1.66    0.60
  -4  14   1    0.43    1.19
   4  14  -1    1.90    0.60
  -4 -14   1    2.25    0.55
  -4 -14   1    1.39    1.03
  -4  14   2   37.56    3.64
  -4  14   2   34.05    3.71
  -4  14   2   25.68    3.95
   4  14  -2   34.79    3.68
  -4 -14   2   38.50    3.68
  -4 -14   2   31.62    3.92
  -4  14   3    5.81    1.51
   4  14  -3    7.18    0.98
  -4 -14   3    8.10    0.97
  -4 -14   3    6.11    1.36
  -4  14   4    9.87    1.17
  -4  14   4   10.34    1.35
  -4  14   4    9.52    1.73
   4  14  -4    8.97    1.19
  -4 -14   4    9.71    1.59
  -4  14   5    0.45    0.47
  -4  14   5    0.83    1.18
   4  14  -5    0.42    0.51
  -4 -14   5    0.77    0.46
  -4 -14   5    0.57    0.99
  -4  14   6    2.78    0.60
  -4  14   6    2.30    0.85
  -4  14   6    0.14    1.19
  -4 -14   6    2.80    0.56
  -4 -14   6    1.43    1.07
  -4  14   7    7.11    0.99
  -4  14   7    8.93    1.28
  -4  14   7    5.86    1.55
  -4 -14   7    7.07    0.93
  -4  14   8   11.54    1.36
  -4  14   8   11.94    1.62
  -4  14   8    8.97    1.85
  -4 -14   8   10.33    1.72
  -4  14   9    6.39    1.19
  -4  14   9    3.66    1.40
  -4 -14   9    4.61    1.26
  -4  14  10    1.82    0.98
  -4  14  10    2.43    1.31
  -4 -14  10    3.00    1.14
  -4  15   1    1.05    0.42
  -4  15   1    0.49    0.57
  -4  15   1    0.53    1.18
   4  15  -1    1.51    0.56
  -4 -15   1    0.96    0.49
  -4 -15   1    0.07    1.03
  -4  15   2    3.52    0.60
  -4  15   2    3.30    1.35
   4  15  -2    3.67    0.69
  -4 -15   2    3.62    0.66
  -4 -15   2    3.22    1.17
  -4  15   3    2.66    0.76
  -4  15   3    1.27    1.23
  -4 -15   3    2.52    1.11
  -4  15   4    4.36    1.43
  -4 -15   4    5.28    1.28
  -4  15   5    3.15    0.88
  -4  15   5    2.55    1.35
  -4 -15   5    2.93    1.16
  -4  15   6   21.15    2.27
  -4  15   6   13.12    2.44
  -4 -15   6   19.21    2.41
  -4  15   7   18.02    2.10
  -4  15   7   14.05    2.32
  -4 -15   7   15.74    2.20
  -4  16   1   17.10    1.93
  -4  16   1   15.14    2.38
  -4 -16   1   17.61    2.30
  -3   0   1  622.03   66.28
  -3   0   1  742.57   66.36
   3   0  -1  635.94   66.27
   3   0  -1  747.33   66.37
  -3   0   2   -0.13    0.30
  -3   0   2    0.18    0.38
   3   0  -2    0.09    0.30
  -3   0   3 6156.60  637.34
  -3   0   3 7436.90  637.93
   3   0  -3 6226.36  637.32
  -3   0   4   -0.17    0.34
  -3   0   4   -0.11    0.38
   3   0  -4    0.05    0.33
  -3   0   5  105.12   11.18
  -3   0   5  124.81   11.21
   3   0  -5  107.75   11.19
  -3   0   6    0.33    0.39
  -3   0   6    0.22    0.42
   3   0  -6    0.30    0.38
  -3   0   7   63.57    6.55
   3   0  -7   65.16    6.56
  -3   0   8    0.56    0.41
  -3   0   8    0.23    0.44
   3   0  -8    0.12    0.43
  -3   0   9  100.52   10.92
  -3   0   9  117.08   10.93
  -3   0  10    0.37    0.47
  -3   0  10   -0.11    0.43
   3   0 -10   -0.09    0.46
  -3   0  11    1.77    0.54
  -3   0  11    1.14    0.49
   3   0 -11    1.93    0.55
  -3   0  12   -0.04    0.44
   3   0 -12   -0.17    0.49
   3   0 -13    0.94    0.54
  -3   0  14    0.21    0.53
  -3   0  14   -0.03    0.47
   3   0 -14    0.39    0.57
  -3   0  15    2.74    0.71
  -3   0  15    3.40    0.65
   3   0 -15    2.72    0.75
  -3   0  16   -0.42    0.60
  -3   0  16    0.18    0.54
   3   0 -16    0.52    0.65
  -3   0  17    1.91    0.74
  -3   0  17    3.27    0.67
   3   0 -17    2.39    0.79
  -3   0  18    0.30    0.67
   3   0 -18   -0.30    0.69
  -3   0  19    6.45    1.02
  -3   0  19    4.16    0.84
   3   0 -19    5.67    1.04
  -3   0  20    0.18    0.69
  -3   0  20    0.26    0.59
   3   0 -20   -0.12    0.75
  -3   0  21   31.81    3.01
  -3   0  21   23.68    2.84
  -3   1   1   88.37    9.46
  -3   1   1  101.67    9.53
   3  -1  -1   96.23    9.47
   3  -1  -1   98.10    9.51
   3   1  -1   94.63    9.48
   3   1  -1   94.39    9.50
  -3  -1   1   92.82    9.48
  -3  -1   1   96.48    9.51
  -3   1   2 1982.94  203.05
  -3   1   2 2361.13  203.27
   3  -1  -2 1933.85  203.05
   3   1  -2 2024.23  203.05
  -3  -1   2 1982.12  203.07
  -3  -1   2 2242.01  203.22
  -3   1   3  456.24   47.24
  -3   1   3  544.51   47.31
   3  -1  -3  474.18   47.24
   3   1  -3  451.16   47.23
  -3  -1   3  459.58   47.23
  -3  -1   3  508.47   47.28
  -3   1   4 2255.27  227.18
  -3   1   4 2659.80  227.41
   3  -1  -4 2249.55  227.16
   3   1  -4 2122.86  227.13
  -3  -1   4 2206.74  227.16
  -3  -1   4 2601.65  227.36
  -3   1   5   96.81    9.95
  -3   1   5  106.44    9.97
   3  -1  -5   95.89    9.95
   3   1  -5   97.63    9.94
  -3  -1   5   94.76    9.94
  -3  -1   5  104.05    9.96
  -3   1   6   18.41    2.04
  -3   1   6   23.08    2.08
   3  -1  -6   16.30    2.03
   3   1  -6   17.70    2.03
  -3  -1   6   17.86    2.03
  -3  -1   6   23.15    2.07
  -3   1   7   49.20    5.00
   3   1  -7   49.86    4.99
  -3  -1   7   46.97    4.98
  -3   1   8  369.31   38.52
  -3   1   8  418.60   38.56
   3  -1  -8  393.60   38.54
   3   1  -8  378.87   38.52
  -3  -1   8  365.76   38.51
  -3  -1   8  407.70   38.53
  -3   1   9   76.29    8.05
  -3   1   9   75.48    8.03
   3  -1  -9   77.05    8.06
   3   1  -9   84.51    8.06
  -3  -1   9   84.39    8.05
  -3  -1   9   77.66    8.02
  -3   1  10    8.78    1.33
   3   1 -10   15.18    1.43
  -3  -1  10   15.57    1.41
  -3  -1  10   10.00    1.32
  -3   1  11  239.95   25.35
   3  -1 -11  259.30   25.41
  -3  -1  11  259.96   25.38
  -3  -1  11  257.10   25.36
  -3   1  12   33.46    3.27
  -3   1  12   27.30    3.19
   3  -1 -12   31.19    3.27
   3   1 -12   31.09    3.25
  -3  -1  12   32.34    3.24
  -3  -1  12   28.95    3.19
  -3   1  13   17.01    1.94
   3  -1 -13   16.41    1.96
   3   1 -13   16.22    1.92
  -3  -1  13   17.87    1.92
  -3   1  14   21.29    2.48
  -3   1  14   24.11    2.45
   3  -1 -14   20.79    2.50
   3   1 -14   22.53    2.48
  -3  -1  14   22.98    2.43
  -3   1  15   34.14    3.32
  -3   1  15   26.18    3.20
   3  -1 -15   33.88    3.34
   3   1 -15   32.59    3.29
  -3  -1  15   28.75    3.20
  -3   1  16   65.29    6.43
  -3   1  16   57.05    6.34
   3  -1 -16   65.96    6.46
   3   1 -16   64.48    6.43
  -3  -1  16   62.30    6.39
  -3  -1  16   58.92    6.34
  -3   1  17   50.86    5.36
  -3   1  17   50.72    5.30
   3  -1 -17   50.79    5.39
   3   1 -17   56.50    5.39
  -3  -1  17   50.03    5.33
  -3  -1  17   48.99    5.28
  -3   1  18    8.20    1.25
   3  -1 -18    8.43    1.29
   3   1 -18    8.75    1.25
  -3  -1  18    7.99    1.19
  -3   1  19    3.77    0.91
  -3   1  19    3.90    0.80
   3   1 -19    3.67    0.89
  -3  -1  19    4.18    0.87
  -3  -1  19    3.61    0.76
  -3   1  20    9.06    1.27
  -3   1  20    6.68    1.10
   3  -1 -20    8.82    1.32
   3   1 -20    8.86    1.26
  -3  -1  20    8.40    1.21
  -3  -1  20    6.95    1.07
  -3   1  21    8.51    1.22
  -3   1  21    4.82    1.00
   3  -1 -21    8.40    1.27
   3   1 -21    8.49    1.22
  -3  -1  21    9.10    1.17
  -3  -1  21    5.49    0.98
  -3   2   1    3.60    0.44
   3  -2  -1    3.88    0.45
   3   2  -1    2.01    0.45
  -3  -2   1    1.99    0.45
  -3   2   2    3.79    0.43
  -3   2   2    3.83    0.57
   3  -2  -2    2.58    0.44
   3   2  -2    1.72    0.44
  -3  -2   2    2.12    0.45
  -3  -2   2    2.76    0.54
  -3   2   3 1540.20  155.40
  -3   2   3 1917.97  155.59
   3  -2  -3 1553.32  155.41
   3   2  -3 1469.64  155.37
  -3  -2   3 1450.59  155.39
  -3  -2   3 1725.93  155.51
  -3   2   4  977.90  100.01
  -3   2   4 1206.01  100.14
   3  -2  -4 1003.95  100.02
   3   2  -4  959.72  100.00
  -3  -2   4  936.84   99.99
  -3  -2   4 1114.82  100.11
  -3   2   5  405.78   41.43
  -3   2   5  457.17   41.48
   3   2  -5  399.32   41.41
  -3  -2   5  400.56   41.41
  -3  -2   5  442.88   41.47
  -3   2   6  100.16   10.16
  -3   2   6  116.04   10.19
   3  -2  -6   93.87   10.15
   3   2  -6   97.33   10.13
  -3  -2   6   94.68   10.13
  -3  -2   6  107.90   10.16
  -3   2   7   36.38    3.68
   3  -2  -7   32.38    3.67
   3   2  -7   35.97    3.66
  -3  -2   7   36.31    3.66
  -3   2   8    0.42    0.48
   3  -2  -8    0.19    0.44
   3   2  -8    0.23    0.42
  -3  -2   8    0.06    0.43
  -3   2   9    2.94    0.59
   3  -2  -9    1.04    0.54
   3   2  -9    1.06    0.49
  -3  -2   9    0.69    0.47
  -3  -2   9    2.14    0.50
  -3   2  10   32.43    3.77
  -3   2  10   38.54    3.79
   3  -2 -10   35.19    3.81
   3   2 -10   36.84    3.78
  -3  -2  10   35.53    3.76
  -3  -2  10   37.85    3.77
  -3   2  11   18.43    2.41
  -3   2  11   27.33    2.45
   3  -2 -11   21.73    2.45
   3   2 -11   21.21    2.40
  -3  -2  11   20.31    2.38
  -3  -2  11   25.34    2.41
  -3   2  12    3.58    0.74
  -3   2  12    3.88    0.69
   3  -2 -12    4.17    0.79
   3   2 -12    3.28    0.68
  -3  -2  12    3.64    0.67
  -3  -2  12    4.33    0.66
  -3   2  13   40.32    4.11
  -3   2  13   33.48    4.03
   3  -2 -13   39.97    4.12
  -3  -2  13   42.64    4.07
  -3   2  14   47.81    5.38
  -3   2  14   53.77    5.38
   3  -2 -14   54.09    5.44
   3   2 -14   51.79    5.38
  -3  -2  14   50.81    5.35
  -3  -2  14   52.50    5.34
  -3   2  15    6.01    1.03
   3  -2 -15    6.39    1.06
   3   2 -15    6.83    0.97
  -3  -2  15    6.03    0.94
  -3  -2  15    6.42    0.89
  -3   2  16   37.41    3.78
   3  -2 -16   34.49    3.78
   3   2 -16   34.70    3.72
  -3  -2  16   33.56    3.66
  -3   2  17   39.76    3.90
   3  -2 -17   36.33    3.91
   3   2 -17   37.09    3.84
  -3  -2  17   32.42    3.75
  -3   2  18  229.19   23.14
   3   2 -18  227.49   23.11
  -3  -2  18  231.92   23.08
  -3   2  19    4.29    0.94
   3  -2 -19    2.99    0.95
   3   2 -19    3.68    0.86
  -3  -2  19    3.62    0.80
  -3  -2  19    3.39    0.73
   3  -2 -20    8.52    1.30
   3   2 -20    7.28    1.15
  -3  -2  20    8.55    1.12
  -3  -2  20    5.56    1.01
  -3   3   1 1209.11  114.84
  -3   3   1 1493.47  115.03
   3  -3  -1 1173.82  114.83
   3   3  -1 1035.55  114.81
  -3  -3   1 1015.18  114.82
  -3  -3   1 1288.12  114.93
  -3   3   2   28.02    3.07
  -3   3   2   33.03    3.16
   3   3  -2   30.30    3.07
  -3  -3   2   28.24    3.06
  -3  -3   2   30.81    3.11
  -3   3   3  465.63   46.76
  -3   3   3  553.64   46.87
   3   3  -3  458.38   46.76
  -3  -3   3  434.90   46.75
  -3  -3   3  490.57   46.82
  -3   3   4  345.56   34.02
  -3   3   4  393.78   34.09
   3  -3  -4  351.99   34.03
   3   3  -4  325.56   33.99
  -3  -3   4  313.13   33.99
  -3  -3   4  353.00   34.05
  -3   3   5    9.53    1.22
   3  -3  -5   10.72    1.24
   3   3  -5    9.68    1.20
  -3  -3   5    9.84    1.19
  -3  -3   5   16.71    1.32
  -3   3   6   49.24    5.34
   3  -3  -6   51.12    5.33
   3   3  -6   54.26    5.30
  -3  -3   6   53.31    5.29
  -3  -3   6   50.59    5.33
   3  -3  -7  151.93   14.90
   3   3  -7  147.63   14.84
  -3  -3   7  145.62   14.83
  -3   3   8  549.97   54.08
  -3   3   8  569.51   54.10
   3  -3  -8  540.62   54.09
   3   3  -8  533.50   54.03
  -3  -3   8  520.25   54.03
  -3  -3   8  556.88   54.08
  -3   3   9  343.34   34.29
  -3   3   9  394.44   34.32
   3  -3  -9  336.84   34.30
   3   3  -9  334.42   34.24
  -3  -3   9  312.67   34.22
  -3  -3   9  365.38   34.28
  -3   3  10  148.75   15.09
  -3   3  10  174.05   15.10
   3  -3 -10  146.86   15.10
   3   3 -10  142.11   15.04
  -3  -3  10  135.97   15.02
  -3  -3  10  160.49   15.06
  -3   3  11  122.96   12.23
  -3   3  11  118.85   12.19
   3  -3 -11  117.63   12.23
   3   3 -11  119.72   12.17
  -3  -3  11  123.15   12.16
  -3  -3  11  120.50   12.16
  -3   3  12  161.40   16.28
   3  -3 -12  163.89   16.30
   3   3 -12  169.92   16.24
  -3  -3  12  163.21   16.21
  -3  -3  12  150.15   16.20
  -3   3  13   52.16    5.46
   3  -3 -13   53.58    5.48
   3   3 -13   52.95    5.41
  -3  -3  13   50.67    5.38
  -3   3  14    7.65    1.14
  -3   3  14    6.71    1.09
   3  -3 -14    7.22    1.15
   3   3 -14    8.11    1.04
  -3  -3  14    8.10    1.03
  -3  -3  14    7.19    0.99
  -3   3  15    3.17    0.81
  -3   3  15    3.35    0.82
   3  -3 -15    3.12    0.85
  -3  -3  15    2.89    0.66
  -3  -3  15    2.79    0.65
  -3   3  16    2.48    0.80
  -3   3  16    1.79    0.80
   3   3 -16    2.93    0.68
  -3  -3  16    2.91    0.66
  -3   3  17   58.41    5.98
  -3   3  17   55.95    5.92
   3  -3 -17   58.08    6.02
   3   3 -17   57.92    5.92
  -3  -3  17   55.16    5.89
  -3   3  18    0.03    0.74
   3  -3 -18    0.35    0.80
   3   3 -18    0.31    0.58
  -3   3  19    7.28    1.15
  -3   3  19    5.53    1.08
   3  -3 -19    6.69    1.20
   3   3 -19    6.37    0.99
  -3  -3  19    4.80    0.91
  -3   3  20   -0.19    0.78
  -3   3  20    0.07    0.78
   3   3 -20    0.61    0.67
  -3  -3  20    0.49    0.60
  -3  -3  20    0.18    0.59
  -3   4   1  874.70   82.52
  -3   4   1  953.70   82.69
   3   4  -1  781.97   82.52
  -3  -4   1  769.21   82.52
  -3  -4   1  863.16   82.63
  -3   4   2  112.04   10.73
  -3   4   2  139.86   10.87
   3  -4  -2  112.70   10.74
   3   4  -2   96.25   10.71
  -3  -4   2   92.14   10.70
  -3  -4   2  116.04   10.79
  -3   4   3  518.09   54.32
  -3   4   3  623.53   54.45
   3  -4  -3  592.58   54.35
   3   4  -3  524.09   54.31
  -3  -4   3  508.62   54.30
  -3  -4   3  573.54   54.38
  -3   4   4  427.69   35.14
   3  -4  -4  363.18   35.05
   3   4  -4  334.02   35.00
  -3  -4   4  317.20   35.00
  -3  -4   4  373.69   35.07
  -3   4   5  981.04   83.64
   3  -4  -5  818.53   83.52
  -3  -4   5  779.29   83.47
  -3  -4   5  866.72   83.56
  -3   4   6  131.86   14.33
  -3   4   6  171.18   14.42
   3  -4  -6  143.51   14.35
   3   4  -6  137.74   14.29
  -3  -4   6  134.30   14.28
  -3  -4   6  155.80   14.36
  -3   4   7    5.30    0.76
   3  -4  -7    6.41    0.83
   3   4  -7    4.33    0.69
  -3  -4   7    4.23    0.67
  -3   4   8   50.43    5.44
   3  -4  -8   52.64    5.47
   3   4  -8   54.73    5.41
  -3  -4   8   55.36    5.40
  -3  -4   8   49.78    5.42
  -3   4   9  262.69   27.32
   3  -4  -9  278.54   27.36
   3   4  -9  270.35   27.27
  -3  -4   9  268.31   27.26
  -3  -4   9  289.24   27.32
  -3   4  10  185.73   19.57
  -3   4  10  196.82   19.58
   3  -4 -10  199.83   19.61
   3   4 -10  188.80   19.51
  -3  -4  10  198.28   19.51
  -3  -4  10  201.42   19.56
  -3   4  11  399.03   42.22
  -3   4  11  412.07   42.23
   3  -4 -11  424.25   42.28
   3   4 -11  441.37   42.18
  -3  -4  11  431.04   42.16
  -3   4  12  113.42   10.69
   3   4 -12  102.70   10.62
  -3  -4  12  101.48   10.60
  -3   4  13  193.02   19.27
  -3   4  13  189.80   19.24
   3  -4 -13  192.67   19.30
   3   4 -13  191.47   19.19
  -3  -4  13  189.47   19.17
  -3   4  14    9.19    1.33
  -3   4  14   12.22    1.34
   3   4 -14    7.83    1.16
  -3  -4  14    8.04    1.15
  -3  -4  14   10.90    1.26
  -3   4  15   13.77    1.66
  -3   4  15   13.45    1.61
   3  -4 -15   12.40    1.66
   3   4 -15   11.97    1.50
  -3  -4  15   11.37    1.47
  -3  -4  15   13.20    1.55
  -3   4  16    6.01    1.03
  -3   4  16    3.50    0.96
   3  -4 -16    4.95    1.04
   3   4 -16    5.46    0.86
  -3  -4  16    5.81    0.84
  -3  -4  16    3.71    0.88
  -3   4  17   14.81    1.97
   3  -4 -17   15.94    2.07
  -3  -4  17   18.37    1.90
  -3  -4  17   15.69    1.89
  -3   4  18    4.42    0.99
  -3   4  18    4.56    1.01
   3  -4 -18    3.63    1.04
  -3  -4  18    3.78    0.79
  -3   4  19   16.78    1.80
  -3   4  19   12.44    1.73
  -3   4  19    9.19    1.65
   3   4 -19   13.20    1.60
  -3  -4  19   15.82    1.61
  -3  -4  19   11.10    1.58
  -3   4  20    2.25    0.89
  -3   4  20    1.36    0.88
  -3   4  20    1.39    0.88
  -3   5   1  394.25   38.93
  -3   5   1  391.62   39.04
   3  -5  -1  397.91   38.95
   3   5  -1  378.52   38.94
  -3  -5   1  390.02   38.95
  -3  -5   1  396.49   39.03
  -3   5   2 1999.64  176.69
   3  -5  -2 1844.50  176.55
   3   5  -2 1703.11  176.48
  -3  -5   2 1642.14  176.46
  -3  -5   2 1878.85  176.66
   3  -5  -3   86.81    8.34
  -3  -5   3   81.21    8.29
  -3  -5   3   78.91    8.37
   3  -5  -4   85.07    7.66
   3   5  -4   69.23    7.58
  -3   5   5  550.03   53.70
  -3   5   5  576.21   53.79
   3  -5  -5  551.85   53.73
   3   5  -5  523.83   53.65
  -3  -5   5  518.50   53.65
  -3   5   6  297.31   29.04
  -3   5   6  310.44   29.10
   3  -5  -6  292.45   29.05
   3   5  -6  287.69   28.98
  -3  -5   6  278.09   28.97
  -3   5   7    1.43    0.58
  -3   5   7    2.23    0.75
   3  -5  -7    1.25    0.59
   3   5  -7    1.02    0.43
  -3  -5   7    0.80    0.40
  -3   5   8  389.56   37.61
  -3   5   8  381.48   37.64
   3  -5  -8  379.89   37.64
   3   5  -8  369.85   37.53
  -3  -5   8  368.68   37.53
  -3  -5   8  376.62   37.60
  -3   5   9   14.63    1.67
  -3   5   9    9.05    1.65
   3  -5  -9   13.28    1.66
   3   5  -9   15.40    1.57
  -3  -5   9   17.40    1.58
  -3  -5   9   11.95    1.62
  -3   5  10  439.98   43.13
  -3   5  10  478.43   43.17
   3  -5 -10  446.64   43.19
   3   5 -10  414.27   43.03
  -3  -5  10  395.96   43.02
  -3  -5  10  462.02   43.11
  -3   5  11    0.32    0.62
  -3   5  11    0.08    0.66
   3  -5 -11    0.20    0.62
   3   5 -11    0.22    0.43
  -3  -5  11    0.48    0.42
  -3  -5  11    0.36    0.58
  -3   5  12   93.31    9.62
  -3   5  12   93.75    9.60
   3   5 -12   90.99    9.52
  -3  -5  12   93.70    9.51
  -3  -5  12   98.72    9.58
  -3   5  13   11.49    1.51
  -3   5  13   10.70    1.48
   3  -5 -13   11.41    1.53
   3   5 -13   11.26    1.35
  -3  -5  13   11.44    1.34
  -3   5  14   15.26    2.02
   3  -5 -14   17.02    2.07
   3   5 -14   17.24    1.91
  -3  -5  14   17.80    1.89
  -3  -5  14   16.30    1.95
  -3   5  15    8.18    1.23
   3  -5 -15    7.95    1.26
   3   5 -15    7.25    1.02
  -3  -5  15    6.80    0.99
  -3  -5  15    7.31    1.12
  -3   5  16  109.21   11.33
  -3   5  16   98.90   11.27
   3  -5 -16  105.42   11.39
   3   5 -16  113.82   11.24
  -3  -5  16  115.69   11.21
  -3  -5  16  116.48   11.25
  -3   5  17    6.86    1.11
  -3   5  17    7.23    1.22
  -3   5  17    6.84    1.17
   3   5 -17    5.62    0.95
  -3  -5  17    6.12    0.93
  -3  -5  17    6.14    1.05
  -3   5  18   10.96    1.42
  -3   5  18   10.20    1.46
  -3   5  18    9.13    1.42
   3   5 -18    9.01    1.24
  -3  -5  18    8.58    1.21
  -3   5  19   76.73    6.48
  -3   5  19   61.91    6.41
  -3  -5  19   62.17    6.26
  -3  -5  19   50.63    6.24
  -3   5  20    8.18    1.21
  -3   5  20    6.37    1.20
  -3   5  20    4.05    1.14
  -3  -5  20    5.19    1.03
  -3   6   1  247.20   19.52
   3  -6  -1  215.93   19.40
   3   6  -1  180.80   19.32
  -3  -6   1  170.16   19.31
  -3  -6   1  212.11   19.44
  -3   6   2   68.99    6.73
  -3   6   2   72.75    6.88
   3  -6  -2   67.69    6.76
   3   6  -2   62.97    6.71
  -3  -6   2   62.98    6.72
  -3  -6   2   68.51    6.83
  -3   6   3   12.47    1.48
  -3   6   3    9.31    1.61
   3  -6  -3   11.61    1.50
   3   6  -3   15.55    1.49
  -3  -6   3   16.47    1.49
  -3  -6   3   12.52    1.60
  -3   6   4  291.64   28.73
  -3   6   4  318.23   28.84
   3  -6  -4  281.10   28.77
   3   6  -4  279.42   28.69
  -3  -6   4  272.51   28.68
  -3  -6   4  308.74   28.80
  -3   6   5  230.68   22.05
  -3   6   5  270.87   22.17
   3  -6  -5  222.11   22.09
   3   6  -5  211.53   21.99
  -3  -6   5  196.33   21.97
  -3  -6   5  236.43   22.10
  -3   6   6  150.58   15.28
  -3   6   6  156.37   15.35
   3  -6  -6  151.93   15.31
   3   6  -6  152.97   15.21
  -3  -6   6  149.32   15.21
  -3  -6   6  152.00   15.29
  -3   6   7   14.26    1.58
  -3   6   7   13.42    1.66
   3  -6  -7   12.15    1.57
   3   6  -7   12.64    1.46
  -3  -6   7   13.41    1.45
  -3   6   8   80.16    8.10
  -3   6   8   86.37    8.17
   3  -6  -8   82.69    8.14
   3   6  -8   76.81    8.01
  -3  -6   8   75.71    8.00
  -3  -6   8   79.19    8.09
  -3   6   9  172.17   16.67
  -3   6   9  168.10   16.69
   3  -6  -9  163.89   16.71
   3   6  -9  163.04   16.56
  -3  -6   9  161.05   16.55
  -3  -6   9  167.56   16.64
  -3   6  10   12.73    1.66
  -3   6  10   10.87    1.66
   3   6 -10   13.56    1.52
  -3  -6  10   15.54    1.53
  -3  -6  10   13.34    1.62
  -3   6  11    0.66    0.67
  -3   6  11    1.53    0.78
   3  -6 -11    0.56    0.69
   3   6 -11    1.07    0.46
  -3  -6  11    0.94    0.44
  -3  -6  11    1.93    0.67
  -3   6  12   17.92    2.13
  -3   6  12   18.28    2.14
   3  -6 -12   17.37    2.16
   3   6 -12   18.42    1.99
  -3  -6  12   17.81    1.97
  -3  -6  12   18.14    2.06
  -3   6  13   40.18    4.39
   3   6 -13   41.28    4.28
  -3  -6  13   41.29    4.26
  -3   6  14   79.04    8.48
   3   6 -14   82.42    8.39
  -3  -6  14   82.50    8.36
  -3  -6  14   84.21    8.44
  -3   6  15    5.00    0.89
  -3   6  15    4.08    0.97
  -3   6  15    3.55    1.00
   3   6 -15    3.77    0.73
  -3  -6  15    4.60    0.73
  -3  -6  15    3.87    0.89
  -3   6  16    4.30    0.91
  -3   6  16    4.08    1.00
  -3   6  16    4.08    1.04
   3   6 -16    4.14    0.76
  -3  -6  16    4.26    0.74
  -3  -6  16    4.32    0.94
  -3   6  17    0.36    0.69
  -3   6  17    0.34    0.86
  -3   6  17    0.26    0.89
   3   6 -17   -0.02    0.52
  -3  -6  17    0.19    0.51
  -3  -6  17    0.45    0.77
  -3   6  18   25.87    2.55
  -3   6  18   23.15    2.59
  -3   6  18   16.14    2.47
   3   6 -18   20.37    2.35
  -3  -6  18   21.89    2.34
  -3   6  19   19.74    2.26
  -3   6  19   18.69    2.33
  -3  -6  19   17.07    2.16
  -3   7   1    8.40    0.95
   3   7  -1    7.69    0.97
  -3  -7   1    6.27    0.95
  -3  -7   1   13.14    1.24
  -3   7   2    8.42    0.74
  -3   7   2    4.01    0.73
  -3   7   2    1.64    0.97
   3   7  -2    6.60    0.77
  -3  -7   2    6.65    0.76
  -3  -7   2    3.36    0.94
  -3   7   3  791.98   86.87
  -3   7   3  939.68   86.77
  -3   7   3  966.31   86.93
   3   7  -3  855.12   86.72
  -3  -7   3  825.27   86.70
  -3  -7   3  876.23   86.85
  -3   7   4  533.80   61.36
  -3   7   4  647.66   61.28
  -3   7   4  698.07   61.43
   3   7  -4  612.00   61.22
  -3  -7   4  575.66   61.21
  -3  -7   4  649.12   61.36
  -3   7   5   49.38    5.45
  -3   7   5   55.26    5.58
   3   7  -5   53.94    5.42
  -3  -7   5   55.12    5.52
  -3   7   6  171.02   17.00
  -3   7   6  186.72   17.10
   3   7  -6  157.98   16.90
  -3  -7   6  175.04   17.04
  -3   7   7    0.65    0.59
  -3   7   7    0.80    0.77
   3   7  -7    0.71    0.40
  -3   7   8   94.26    9.47
   3   7  -8   94.23    9.35
  -3  -7   8   88.56    9.44
  -3   7   9  180.54   18.98
  -3   7   9  199.88   19.04
   3   7  -9  183.21   18.88
  -3  -7   9  196.68   18.98
  -3   7  10    7.93    1.13
  -3   7  10    9.20    1.22
   3   7 -10    6.39    0.91
  -3  -7  10    6.98    1.09
  -3   7  11  156.45   16.06
  -3   7  11  167.56   16.13
   3   7 -11  153.14   15.96
  -3  -7  11  164.03   16.06
  -3   7  12   13.57    1.52
  -3   7  12   12.71    1.63
  -3   7  12   10.94    1.63
   3   7 -12   11.93    1.42
  -3  -7  12   12.62    1.41
  -3  -7  12   11.61    1.55
  -3   7  13    0.55    0.59
  -3   7  13    0.51    0.75
  -3   7  13   -0.40    0.82
   3   7 -13    0.03    0.45
  -3  -7  13    0.09    0.42
  -3   7  14    0.37    0.60
  -3   7  14    0.13    0.74
   3   7 -14    0.60    0.48
  -3  -7  14    0.59    0.46
  -3  -7  14    0.11    0.67
  -3   7  15   12.03    1.53
  -3   7  15   11.49    1.63
  -3   7  15   10.29    1.63
   3   7 -15   11.47    1.41
  -3  -7  15   12.46    1.39
  -3  -7  15   12.07    1.56
  -3   7  16    4.84    0.86
  -3   7  16    1.49    0.88
  -3   7  16    0.41    0.94
   3   7 -16    2.40    0.62
  -3  -7  16    2.72    0.60
  -3  -7  16    1.71    0.85
  -3   7  17   32.54    2.96
  -3   7  17   25.45    2.98
  -3   7  17   22.35    2.94
   3   7 -17   25.62    2.78
  -3  -7  17   25.62    2.76
  -3  -7  17   23.53    2.86
  -3   7  18    2.95    0.87
  -3   7  18    3.34    1.06
  -3   7  18    2.70    1.07
  -3   7  19    0.63    0.76
  -3   7  19    0.36    0.93
  -3  -7  19   -0.13    0.82
  -3   8   1  299.04   27.47
   3   8  -1  266.14   27.46
  -3  -8   1  263.37   27.45
  -3  -8   1  273.45   27.60
  -3   8   2  103.03   10.35
  -3   8   2   98.03   10.38
  -3   8   2   88.54   10.51
   3   8  -2  109.49   10.38
  -3  -8   2  112.79   10.38
  -3  -8   2   96.77   10.49
  -3   8   3    0.22    0.33
  -3   8   3    0.52    0.48
  -3   8   3    0.66    0.80
   3   8  -3    0.32    0.39
  -3  -8   3   -0.12    0.36
  -3  -8   3    0.30    0.68
  -3   8   4  111.73   12.88
  -3   8   4  134.75   12.96
  -3   8   4  153.51   13.13
   3   8  -4  129.90   12.89
  -3  -8   4  133.97   13.04
  -3   8   5    4.67    0.59
  -3   8   5    2.46    0.67
  -3   8   5    0.62    0.85
   3   8  -5    3.73    0.57
  -3  -8   5    2.62    0.80
  -3   8   6   30.34    3.57
  -3   8   6   41.15    3.80
   3   8  -6   34.96    3.57
  -3  -8   6   36.49    3.71
  -3   8   7   42.68    4.04
  -3   8   7   37.00    4.08
  -3   8   7   30.86    4.11
   3   8  -7   40.48    4.00
  -3  -8   7   39.22    3.98
  -3   8   8   51.27    5.47
  -3   8   8   54.04    5.55
   3   8  -8   54.32    5.44
  -3  -8   8   51.63    5.42
  -3  -8   8   55.87    5.57
  -3   8   9    1.18    0.53
  -3   8   9    3.30    0.92
   3   8  -9    2.29    0.50
  -3  -8   9    2.51    0.49
  -3  -8   9    3.01    0.80
  -3   8  10   23.33    2.85
  -3   8  10   29.81    3.00
  -3   8  10   29.80    3.04
   3   8 -10   26.56    2.82
  -3  -8  10   25.47    2.80
  -3  -8  10   30.09    2.98
  -3   8  11  109.17    9.34
  -3   8  11   82.73    9.34
  -3   8  11   74.94    9.34
   3   8 -11   93.69    9.23
  -3  -8  11   96.02    9.22
  -3  -8  11   86.51    9.32
  -3   8  12   52.06    5.20
  -3   8  12   48.42    5.27
  -3   8  12   47.81    5.28
   3   8 -12   50.86    5.13
  -3  -8  12   47.92    5.21
  -3   8  13   71.93    7.10
  -3   8  13   72.57    7.20
  -3   8  13   60.63    7.15
   3   8 -13   69.25    7.02
  -3   8  14    0.57    0.60
   3   8 -14    0.03    0.48
  -3  -8  14   -0.09    0.74
  -3   8  15    3.29    0.77
  -3   8  15    1.81    0.90
  -3   8  15    1.60    0.98
   3   8 -15    1.50    0.55
  -3  -8  15    1.98    0.82
  -3   8  16    4.28    0.84
  -3   8  16    2.32    0.94
  -3   8  16    0.51    0.99
   3   8 -16    1.85    0.59
  -3  -8  16    2.38    0.58
  -3  -8  16    2.08    0.87
  -3   8  17    1.90    0.76
  -3   8  17    0.55    0.88
  -3   8  17    1.50    1.05
   3   8 -17    1.24    0.55
  -3  -8  17    1.36    0.53
  -3  -8  17    1.93    0.88
  -3   8  18    1.29    0.77
  -3   8  18    2.91    1.12
  -3   9   1   21.87    2.20
   3   9  -1   19.34    2.18
  -3  -9   1   19.59    2.17
  -3  -9   1   22.20    2.38
  -3   9   2   72.40    7.73
  -3   9   2   81.17    7.80
  -3   9   2   86.33    8.01
   3   9  -2   77.04    7.76
  -3  -9   2   73.93    7.75
  -3  -9   2   78.42    7.92
  -3   9   3    2.75    0.59
  -3   9   3    5.93    0.75
  -3   9   3    9.70    1.16
   3   9  -3    3.82    0.64
  -3  -9   3    6.00    0.98
  -3   9   4   59.40    6.89
  -3   9   4   73.43    6.99
  -3   9   4   83.41    7.19
   3   9  -4   66.72    6.91
  -3  -9   4   73.72    7.09
  -3   9   5  218.63   22.37
  -3   9   5  229.30   22.44
  -3   9   5  231.05   22.57
   3   9  -5  226.77   22.35
  -3  -9   5  217.29   22.34
  -3  -9   5  226.47   22.50
  -3   9   6    2.85    0.57
  -3   9   6    2.09    0.93
   3   9  -6    3.32    0.56
  -3  -9   6    3.34    0.53
  -3  -9   6    3.28    0.86
  -3   9   7   24.44    2.35
  -3   9   7   17.63    2.51
   3   9  -7   20.59    2.30
  -3  -9   7   22.28    2.29
  -3   9   8   76.92    7.85
  -3   9   8   78.10    7.93
   3   9  -8   78.00    7.80
  -3  -9   8   73.44    7.78
  -3  -9   8   81.34    7.96
  -3   9   9    0.25    0.47
  -3   9   9    0.47    0.67
  -3   9   9    0.17    0.85
   3   9  -9    0.23    0.42
  -3  -9   9    0.46    0.39
  -3  -9   9    0.06    0.74
  -3   9  10   20.84    2.16
  -3   9  10   21.23    2.31
  -3   9  10   23.22    2.42
   3   9 -10   18.21    2.08
  -3  -9  10   17.51    2.06
  -3  -9  10   19.92    2.28
  -3   9  11    0.22    0.53
  -3   9  11    0.19    0.73
  -3   9  11    0.17    0.89
   3   9 -11    0.43    0.43
  -3  -9  11    0.00    0.41
  -3  -9  11    0.17    0.74
  -3   9  12   14.30    1.49
  -3   9  12   11.08    1.61
  -3   9  12    7.52    1.61
   3   9 -12   11.52    1.35
  -3  -9  12   12.01    1.34
  -3  -9  12   11.57    1.57
  -3   9  13    0.11    0.58
  -3   9  13   -0.11    0.81
  -3   9  13   -0.78    0.96
   3   9 -13    0.15    0.45
  -3  -9  13    0.19    0.43
  -3   9  14    4.74    0.84
  -3   9  14    5.60    1.09
   3   9 -14    2.61    0.65
  -3  -9  14    3.66    0.64
  -3  -9  14    3.28    0.95
  -3   9  15   -0.57    0.64
  -3   9  15    0.36    0.86
  -3   9  15   -0.29    1.00
   3   9 -15    0.09    0.47
  -3  -9  15    0.21    0.45
  -3  -9  15    0.09    0.81
  -3   9  16    1.16    0.70
  -3   9  16    0.19    1.03
   3   9 -16    0.69    0.50
  -3  -9  16    0.79    0.48
  -3  -9  16    0.60    0.83
  -3   9  17   15.53    1.70
  -3   9  17   12.78    1.81
  -3   9  17   11.62    1.88
  -3  -9  17   10.68    1.69
  -3  10   1    3.77    0.54
  -3  10   1    2.17    0.60
   3  10  -1    3.79    0.62
  -3 -10   1    5.41    0.64
  -3 -10   1    2.31    0.88
  -3  10   2   45.62    4.84
  -3  10   2   46.30    4.89
  -3  10   2   45.66    5.08
   3  10  -2   49.20    4.87
  -3 -10   2   49.01    4.87
  -3 -10   2   48.44    5.04
  -3  10   3   31.28    3.50
  -3  10   3   34.43    3.57
  -3  10   3   38.09    3.80
   3  10  -3   34.40    3.52
  -3 -10   3   35.19    3.71
  -3  10   4    1.77    0.50
  -3  10   4    7.19    1.13
   3  10  -4    2.70    0.54
  -3 -10   4    3.89    0.92
  -3  10   5    0.95    0.43
  -3  10   5    0.98    0.60
  -3  10   5    1.11    0.94
   3  10  -5    1.04    0.44
  -3 -10   5    0.92    0.40
  -3 -10   5    1.35    0.79
  -3  10   6    4.08    0.71
  -3  10   6    4.99    0.89
  -3  10   6    5.91    1.17
   3  10  -6    5.06    0.71
  -3 -10   6    4.57    0.68
  -3 -10   6    6.67    1.07
  -3  10   7    4.17    0.70
  -3  10   7    2.59    0.70
  -3  10   7    8.08    1.22
  -3 -10   7    4.74    0.64
  -3  10   8   36.61    4.05
  -3 -10   8   39.16    3.90
  -3 -10   8   36.08    4.08
  -3  10   9    1.53    0.56
  -3  10   9    2.05    0.79
  -3  10   9    2.32    1.02
  -3 -10   9    1.40    0.45
  -3 -10   9    2.04    0.85
  -3  10  10    7.69    1.06
  -3  10  10    7.55    1.24
  -3  10  10    6.69    1.38
  -3 -10  10    7.58    0.94
  -3 -10  10    8.14    1.27
  -3  10  11    0.42    0.55
  -3  10  11    0.03    0.78
  -3  10  11    0.93    0.97
  -3 -10  11    0.15    0.40
  -3 -10  11   -0.12    0.80
  -3  10  12   75.96    6.93
  -3  10  12   64.78    7.01
  -3  10  12   57.17    7.01
  -3 -10  12   68.83    6.81
  -3 -10  12   63.19    6.96
  -3  10  13    1.10    0.67
  -3  10  13    1.69    0.91
  -3  10  13    1.72    1.05
  -3 -10  13    1.55    0.49
  -3  10  14   15.87    1.68
  -3 -10  14   12.48    1.48
  -3 -10  14   11.47    1.73
  -3  10  15    2.14    0.75
  -3  10  15    0.98    1.09
  -3 -10  15    1.97    0.51
  -3 -10  15    1.28    0.89
  -3  10  16    6.15    1.02
  -3  10  16    4.79    1.19
  -3  10  16    4.28    1.31
  -3 -10  16    4.53    1.13
  -3  11   1  119.97   12.21
   3  11  -1  123.98   12.26
  -3 -11   1  126.77   12.26
  -3 -11   1  112.21   12.44
  -3  11   2   22.39    2.44
  -3  11   2   26.23    2.81
   3  11  -2   23.60    2.47
  -3 -11   2   22.45    2.46
  -3 -11   2   23.75    2.69
  -3  11   3   46.48    4.61
  -3  11   3   44.59    4.67
  -3  11   3   41.62    4.85
   3  11  -3   45.75    4.61
  -3 -11   3   42.01    4.78
  -3  11   4    6.58    0.85
  -3  11   4    6.10    0.98
  -3  11   4    6.02    1.30
   3  11  -4    6.79    0.86
  -3 -11   4    6.54    0.84
  -3 -11   4    6.38    1.18
  -3  11   5    6.83    0.93
  -3  11   5    7.18    1.08
  -3  11   5    7.02    1.38
   3  11  -5    7.65    0.94
  -3 -11   5    7.25    0.90
  -3 -11   5    7.21    1.25
  -3  11   6    0.65    0.45
  -3  11   6    0.14    0.63
  -3  11   6   -0.70    0.99
  -3 -11   6    0.27    0.39
  -3 -11   6   -0.07    0.82
  -3  11   7    0.20    0.45
  -3  11   7    0.14    0.68
  -3  11   7   -0.30    1.00
  -3 -11   7    0.57    0.40
  -3 -11   7    0.06    0.83
   3  11  -8   42.06    4.43
  -3 -11   8   43.97    4.42
  -3 -11   8   42.49    4.63
  -3  11   9   48.65    4.70
  -3  11   9   45.27    4.81
  -3  11   9   43.07    4.91
   3  11  -9   41.93    4.62
  -3 -11   9   45.28    4.61
  -3 -11   9   46.57    4.84
  -3  11  10    0.19    0.54
  -3  11  10   -0.05    0.77
  -3  11  10   -0.03    1.04
   3  11 -10    0.02    0.42
  -3 -11  10   -0.05    0.40
  -3 -11  10   -0.12    0.86
  -3  11  11   33.43    3.18
  -3  11  11   31.50    3.34
  -3  11  11   27.63    3.38
   3  11 -11   26.43    3.05
  -3 -11  11   29.45    3.05
  -3 -11  11   28.66    3.28
  -3  11  12    0.41    0.61
  -3  11  12    0.43    1.04
   3  11 -12    0.51    0.44
  -3 -11  12    0.46    0.42
  -3 -11  12    0.43    0.87
  -3  11  13    0.17    0.62
  -3  11  13    0.44    0.88
  -3  11  13    0.44    1.08
   3  11 -13    0.02    0.43
  -3 -11  13    0.26    0.42
  -3  11  14    2.51    0.77
  -3  11  14    2.28    1.02
  -3  11  14    2.83    1.25
  -3 -11  14    3.12    1.02
  -3  11  15    0.02    0.67
  -3  11  15   -0.05    0.93
  -3  11  15   -0.33    1.17
  -3 -11  15    0.47    0.90
  -3  12   1   16.38    1.74
  -3  12   1   15.34    1.81
   3  12  -1   16.95    1.81
  -3 -12   1   17.37    1.80
  -3 -12   1   13.08    2.02
  -3  12   2   13.76    1.63
  -3  12   2   17.56    2.04
   3  12  -2   12.91    1.57
  -3 -12   2   15.38    1.90
  -3  12   3    5.97    0.87
  -3  12   3    7.07    1.02
  -3  12   3    7.46    1.42
   3  12  -3    7.45    0.91
  -3 -12   3    7.29    1.26
  -3  12   4    2.40    0.54
  -3  12   4    3.04    0.74
  -3  12   4    4.10    1.18
   3  12  -4    2.96    0.57
  -3 -12   4    2.33    0.54
  -3 -12   4    3.50    1.00
  -3  12   5    1.80    0.58
  -3  12   5    4.15    0.83
  -3  12   5    6.39    1.26
  -3 -12   5    2.99    0.56
  -3 -12   5    4.44    1.05
  -3  12   6  131.51   13.42
  -3  12   6  143.54   13.57
  -3  12   6  124.88   13.68
  -3 -12   6  132.04   13.38
  -3 -12   6  134.84   13.62
  -3  12   7   28.85    2.84
  -3  12   7   25.04    2.95
  -3  12   7   22.19    3.10
   3  12  -7   25.09    2.77
  -3 -12   7   28.18    2.77
  -3 -12   7   24.92    3.02
  -3  12   8    2.44    0.84
   3  12  -8    1.66    0.50
  -3 -12   8    1.55    0.46
  -3 -12   8    1.54    0.97
  -3  12   9    7.95    1.03
  -3  12   9    6.69    1.24
  -3  12   9    4.69    1.41
   3  12  -9    7.77    0.93
  -3 -12   9    7.23    0.91
  -3 -12   9    6.69    1.30
  -3  12  10   23.79    2.31
  -3  12  10   16.34    2.55
   3  12 -10   19.61    2.19
  -3 -12  10   20.19    2.18
  -3 -12  10   21.19    2.50
  -3  12  11    6.47    0.93
  -3  12  11    4.66    1.14
  -3  12  11    3.82    1.32
   3  12 -11    5.01    0.76
  -3 -12  11    5.63    0.75
  -3 -12  11    4.32    1.17
  -3  12  12    9.66    1.30
  -3  12  12   10.95    1.58
  -3  12  12   10.45    1.73
   3  12 -12    9.47    1.16
  -3 -12  12    9.37    1.14
  -3 -12  12   10.67    1.55
  -3  12  13   12.09    1.42
  -3  12  13   10.13    1.63
  -3  12  13    7.78    1.73
  -3  12  14    1.94    0.74
  -3  12  14    2.79    1.08
  -3  12  14    3.25    1.29
  -3 -12  14    3.19    1.07
  -3  13   1    6.77    0.80
  -3  13   1    4.50    0.90
   3  13  -1    6.13    0.88
  -3 -13   1    7.84    0.87
  -3 -13   1    3.83    1.19
  -3  13   2   31.44    3.45
  -3  13   2   29.03    3.71
   3  13  -2   35.64    3.42
  -3 -13   2   30.20    3.64
  -3  13   3    1.05    0.45
  -3  13   3    0.12    0.61
  -3  13   3    0.54    1.08
   3  13  -3    0.67    0.47
  -3 -13   3    0.59    0.44
  -3 -13   3    0.20    0.91
  -3  13   4   13.85    1.39
  -3  13   4   11.16    1.51
  -3  13   4    7.07    1.76
   3  13  -4   11.25    1.37
  -3 -13   4   12.81    1.36
  -3 -13   4   10.40    1.68
  -3  13   5    7.12    0.98
  -3  13   5    8.55    1.18
  -3  13   5    7.77    1.53
  -3 -13   5    7.05    0.93
  -3 -13   5    7.95    1.38
  -3  13   6    4.07    0.72
  -3  13   6    4.76    0.96
  -3  13   6    5.29    1.35
   3  13  -6    4.82    0.70
  -3 -13   6    3.86    0.66
  -3 -13   6    4.37    1.14
  -3  13   7    4.42    0.76
  -3  13   7    4.92    1.02
  -3  13   7    5.17    1.34
   3  13  -7    4.00    0.70
  -3 -13   7    5.01    0.69
  -3 -13   7    4.58    1.15
   3  13  -8   14.04    1.56
  -3 -13   8   14.38    1.55
  -3 -13   8   12.21    1.90
  -3  13   9   34.49    3.59
  -3  13   9   29.94    3.70
  -3  13   9   36.17    3.95
   3  13  -9   34.31    3.53
  -3 -13   9   33.35    3.51
  -3 -13   9   36.82    3.84
  -3  13  10   30.33    2.75
  -3  13  10   22.89    2.89
  -3  13  10   20.06    3.00
   3  13 -10   24.15    2.61
  -3 -13  10   24.57    2.60
  -3 -13  10   23.41    2.92
  -3  13  11    7.52    1.13
  -3  13  11    8.96    1.45
  -3  13  11    7.18    1.60
  -3 -13  11    8.59    1.45
  -3  13  12    0.70    0.64
  -3  13  12    0.43    0.94
  -3  13  12    0.87    1.20
  -3 -13  12   -0.05    0.96
  -3  14   1   11.61    1.18
  -3  14   1   10.34    1.29
   3  14  -1    9.69    1.24
  -3 -14   1    9.42    1.21
  -3 -14   1    7.66    1.55
  -3  14   2    5.34    0.77
  -3  14   2    6.18    0.95
  -3  14   2    4.76    1.36
   3  14  -2    5.85    0.83
  -3 -14   2    6.31    1.27
  -3  14   3    2.93    0.60
  -3  14   3    3.46    0.80
  -3  14   3    2.81    1.24
   3  14  -3    3.79    0.65
  -3 -14   3    3.33    0.61
  -3 -14   3    4.14    1.13
  -3  14   4   13.53    1.52
  -3  14   4   14.94    1.70
  -3  14   4   14.62    2.05
  -3 -14   4   12.39    1.49
  -3 -14   4   12.58    1.88
  -3  14   5    2.81    0.62
  -3  14   5    1.95    1.23
   3  14  -5    3.44    0.63
  -3 -14   5    2.86    0.57
  -3 -14   5    2.86    1.10
  -3  14   6   20.09    2.09
  -3  14   6   18.34    2.26
  -3  14   6   14.47    2.45
   3  14  -6   18.77    2.05
  -3 -14   6   20.13    2.04
  -3 -14   6   16.19    2.36
  -3  14   7   21.24    2.07
  -3  14   7   19.00    2.26
  -3  14   7   15.58    2.46
   3  14  -7   17.60    1.99
  -3 -14   7   17.98    1.98
  -3 -14   7   17.56    2.34
  -3  14   8    0.72    0.83
   3  14  -8    0.69    0.46
  -3 -14   8    0.36    0.42
  -3 -14   8    2.01    1.05
  -3  14   9   16.37    1.78
  -3  14   9   15.06    2.02
  -3  14   9   12.86    2.18
  -3 -14   9   14.66    2.07
  -3  14  10   -0.48    0.51
  -3  14  10    0.39    1.18
  -3 -14  10    0.05    1.01
  -3  15   1    8.79    1.05
  -3  15   1    8.82    1.18
   3  15  -1    8.27    1.11
  -3 -15   1    9.37    1.56
  -3  15   2   10.23    1.21
  -3  15   2    9.67    1.80
   3  15  -2    9.97    1.25
  -3 -15   2   10.82    1.24
  -3 -15   2   10.57    1.66
  -3  15   3   -0.24    1.16
   3  15  -3    0.86    0.50
  -3 -15   3    1.31    0.47
  -3 -15   3    0.85    1.04
  -3  15   4    0.17    0.44
  -3  15   4    0.46    0.70
  -3  15   4    0.36    1.18
  -3 -15   4    0.46    0.43
  -3 -15   4    0.30    1.00
  -3  15   5    0.30    0.74
  -3  15   5    0.21    1.19
  -3 -15   5    0.26    1.02
  -3  15   6    8.13    1.25
  -3  15   6    5.11    1.52
  -3  15   7    0.67    0.83
  -3  15   7    0.25    1.19
  -3 -15   7    0.43    1.00
  -3  15   8   -0.79    0.88
  -3 -15   8    0.08    1.01
  -3  16   1    5.48    0.92
  -3 -16   1    4.92    1.29
  -3  16   2   12.05    1.53
  -3 -16   2   11.64    1.83
  -3  16   3   22.60    2.45
  -3 -16   3   19.00    2.65
  -2   0   1    0.04    0.18
  -2   0   1    0.21    0.23
   2   0  -1    0.03    0.18
   2   0  -1    0.05    0.24
  -2   0   2 8483.79  896.53
  -2   0   2 9999.00  897.28
   2   0  -2 9308.10  897.35
  -2   0   3    0.10    0.30
  -2   0   3    0.09    0.32
   2   0  -3    0.21    0.29
   2   0  -3   -0.18    0.32
  -2   0   4 1162.15  122.10
  -2   0   4 1368.60  122.22
   2   0  -4 1197.35  122.11
   2   0  -4 1288.17  122.21
  -2   0   5    0.58    0.35
  -2   0   5    0.72    0.38
   2   0  -5    0.27    0.36
   2   0  -5    0.72    0.34
  -2   0   6   45.08    5.96
  -2   0   6   83.65    6.01
   2   0  -6   46.27    5.96
   2   0  -6   72.35    5.97
  -2   0   7    0.07    0.38
  -2   0   7    0.07    0.37
   2   0  -7   -0.16    0.38
  -2   0   8  154.50   16.61
  -2   0   8  192.50   16.61
   2   0  -8  152.67   16.62
  -2   0   9   -0.09    0.42
  -2   0   9    0.00    0.37
   2   0  -9   -0.05    0.41
  -2   0  10   19.21    1.78
  -2   0  10   13.58    1.68
  -2   0  11    0.03    0.47
  -2   0  11    0.06    0.39
  -2   0  12   48.80    4.93
  -2   0  12   47.49    4.88
   2   0 -12   46.23    4.93
  -2   0  13   -0.04    0.50
  -2   0  13   -0.05    0.40
   2   0 -13    0.53    0.51
  -2   0  14    2.60    0.55
   2   0 -14    2.49    0.66
  -2   0  15   -0.24    0.56
  -2   0  15   -0.09    0.44
   2   0 -15    0.29    0.60
  -2   0  16  251.65   22.76
  -2   0  16  202.07   22.62
   2   0 -16  246.34   22.80
  -2   0  17   -0.10    0.59
  -2   0  17   -0.04    0.46
   2   0 -17    0.06    0.65
  -2   0  18  100.93    9.21
  -2   0  18   79.77    9.05
   2   0 -18   98.32    9.25
  -2   0  19    0.18    0.68
  -2   0  19    0.30    0.51
   2   0 -19   -0.20    0.74
  -2   0  20   50.98    3.90
  -2   0  20   27.19    3.60
   2   0 -20   46.91    3.94
  -2   0  21    0.25    0.76
  -2   0  21   -0.04    0.70
  -2   1   1   27.14    2.17
   2  -1  -1   25.34    2.17
   2   1  -1   16.93    2.11
   2   1  -1   23.60    2.15
  -2  -1   1   15.57    2.10
  -2  -1   1   24.78    2.16
  -2   1   2   28.04    2.91
  -2   1   2   27.67    2.93
   2  -1  -2   28.13    2.91
   2  -1  -2   26.06    2.91
   2   1  -2   29.26    2.91
   2   1  -2   28.25    2.91
  -2  -1   2   29.49    2.91
  -2  -1   2   29.83    2.93
  -2   1   3 1850.37  188.26
  -2   1   3 2317.62  188.58
   2  -1  -3 1793.83  188.27
   2  -1  -3 2267.48  188.49
   2   1  -3 1788.02  188.25
   2   1  -3 2011.15  188.36
  -2  -1   3 1729.73  188.26
  -2  -1   3 2056.02  188.44
  -2   1   4   79.93    8.24
  -2   1   4   92.68    8.25
   2  -1  -4   76.54    8.24
   2  -1  -4   91.50    8.24
   2   1  -4   77.63    8.22
   2   1  -4   81.93    8.22
  -2  -1   4   73.66    8.22
  -2  -1   4   86.41    8.24
  -2   1   5   12.24    1.29
  -2   1   5   10.92    1.28
   2  -1  -5   11.86    1.29
   2  -1  -5    9.74    1.25
   2   1  -5   12.41    1.28
   2   1  -5   10.79    1.25
  -2  -1   5   13.26    1.29
  -2  -1   5   11.94    1.27
  -2   1   6    7.46    0.94
  -2   1   6    8.64    0.94
   2  -1  -6    7.15    0.94
   2  -1  -6    6.94    0.90
   2   1  -6    7.10    0.92
   2   1  -6    7.63    0.89
  -2  -1   6    7.82    0.92
  -2  -1   6    9.37    0.93
  -2   1   7 1666.90  166.46
  -2   1   7 1897.24  166.59
   2  -1  -7 1654.91  166.47
   2   1  -7 1605.89  166.42
  -2  -1   7 1601.35  166.42
  -2  -1   7 1807.57  166.58
  -2   1   8    7.06    0.88
  -2   1   8    6.68    0.83
   2   1  -8    6.21    0.84
  -2  -1   8    6.16    0.83
  -2  -1   8    6.41    0.80
  -2   1   9   50.72    5.66
  -2   1   9   62.16    5.65
   2   1  -9   53.63    5.66
  -2  -1   9   50.66    5.65
  -2  -1   9   58.65    5.63
  -2   1  10   91.78    8.39
   2   1 -10   75.45    8.41
  -2  -1  10   72.89    8.39
  -2  -1  10   91.47    8.38
  -2   1  11    2.79    0.67
  -2   1  11    3.50    0.59
   2  -1 -11    3.67    0.67
   2   1 -11    3.19    0.64
  -2  -1  11    2.94    0.62
  -2  -1  11    3.38    0.54
  -2   1  12   48.52    4.93
   2  -1 -12   47.79    4.99
  -2  -1  12   48.03    4.96
  -2  -1  12   47.48    4.91
  -2   1  13    1.67    0.61
   2  -1 -13    2.40    0.66
  -2  -1  13    1.44    0.55
  -2  -1  13    2.49    0.50
  -2   1  14   80.39    8.06
  -2   1  14   73.60    7.97
   2  -1 -14   80.22    8.08
   2   1 -14   81.93    8.06
  -2  -1  14   83.97    8.04
  -2  -1  14   75.40    7.97
  -2   1  15    4.96    0.82
  -2   1  15    2.73    0.66
   2  -1 -15    3.69    0.83
   2   1 -15    5.13    0.80
  -2  -1  15    5.22    0.78
  -2  -1  15    3.37    0.64
  -2   1  16   24.50    2.56
  -2   1  16   20.74    2.43
   2  -1 -16   25.30    2.60
   2   1 -16   25.00    2.55
  -2  -1  16   21.39    2.42
  -2   1  17   13.24    1.59
  -2   1  17   11.03    1.43
   2  -1 -17   14.11    1.64
   2   1 -17   12.76    1.57
  -2  -1  17   14.15    1.55
  -2  -1  17   11.04    1.41
  -2   1  18    0.15    0.68
  -2   1  18    0.00    0.52
   2  -1 -18    0.14    0.72
   2   1 -18    0.48    0.66
  -2  -1  18    0.33    0.60
  -2  -1  18    0.21    0.48
  -2   1  19   39.25    3.76
  -2   1  19   30.25    3.57
   2  -1 -19   38.59    3.82
   2   1 -19   38.18    3.76
  -2  -1  19   39.73    3.73
  -2  -1  19   30.42    3.56
  -2   1  20   17.90    1.85
  -2   1  20   17.28    1.77
  -2   1  20   10.52    1.50
   2   1 -20   15.80    1.76
  -2  -1  20   16.82    1.72
  -2  -1  20   11.16    1.48
  -2   1  21   26.88    2.85
  -2   1  21   22.64    2.72
   2   1 -21   22.19    2.74
  -2  -1  21   24.94    2.71
  -2   2   1  428.19   42.82
  -2   2   1  528.53   42.92
   2  -2  -1  422.85   42.82
   2  -2  -1  506.81   42.90
   2   2  -1  396.40   42.83
  -2  -2   1  387.16   42.82
  -2  -2   1  457.84   42.87
  -2   2   2   12.08    1.28
   2  -2  -2   11.98    1.24
   2  -2  -2   11.23    1.25
   2   2  -2   10.64    1.21
   2   2  -2   11.04    1.23
  -2  -2   2   10.82    1.22
  -2  -2   2   11.92    1.25
  -2   2   3  733.98   72.75
  -2   2   3  862.74   72.86
   2  -2  -3  717.81   72.75
   2  -2  -3  842.07   72.82
   2   2  -3  704.75   72.74
   2   2  -3  722.17   72.76
  -2  -2   3  657.54   72.73
  -2  -2   3  749.17   72.80
  -2   2   4  261.12   25.35
  -2   2   4  285.45   25.38
   2  -2  -4  257.46   25.35
   2   2  -4  247.54   25.32
   2   2  -4  247.38   25.33
  -2  -2   4  238.07   25.32
  -2  -2   4  259.63   25.35
  -2   2   5 1842.85  189.42
  -2   2   5 2138.45  189.62
   2  -2  -5 1937.30  189.47
   2   2  -5 1859.32  189.41
  -2  -2   5 1830.29  189.40
  -2  -2   5 1995.42  189.50
  -2   2   6  240.07   24.59
  -2   2   6  287.48   24.62
   2   2  -6  228.84   24.55
  -2  -2   6  233.53   24.55
  -2  -2   6  264.24   24.58
  -2   2   7  446.08   42.97
   2   2  -7  417.99   42.94
  -2  -2   7  424.77   42.94
  -2  -2   7  440.02   42.96
  -2   2   8  457.14   44.95
  -2   2   8  464.02   44.94
   2  -2  -8  432.72   44.95
   2   2  -8  446.18   44.91
  -2  -2   8  455.63   44.92
  -2   2   9  691.26   69.94
  -2   2   9  729.23   69.95
   2  -2  -9  686.44   69.96
   2   2  -9  723.98   69.92
  -2  -2   9  683.50   69.91
  -2  -2   9  702.62   69.92
  -2   2  10    5.85    0.87
   2  -2 -10    7.01    0.94
   2   2 -10    6.86    0.90
  -2  -2  10    7.71    0.90
  -2  -2  10    6.39    0.85
  -2   2  11   21.27    2.39
  -2   2  11   18.77    2.32
   2  -2 -11   23.45    2.42
   2   2 -11   24.25    2.37
  -2  -2  11   22.75    2.35
  -2  -2  11   21.58    2.31
  -2   2  12  104.11   11.01
  -2   2  12  107.27   10.96
   2  -2 -12  108.85   11.04
   2   2 -12  112.75   10.99
  -2  -2  12  106.31   10.96
  -2  -2  12  111.40   10.93
  -2   2  13  106.15   10.75
   2  -2 -13  102.21   10.77
   2   2 -13  107.15   10.72
  -2  -2  13  106.15   10.70
  -2  -2  13  105.93   10.65
  -2   2  14   45.07    4.64
  -2   2  14   45.28    4.57
   2  -2 -14   44.00    4.66
  -2  -2  14   42.15    4.57
  -2  -2  14   43.85    4.54
  -2   2  15    3.79    0.85
  -2   2  15    4.32    0.72
   2  -2 -15    3.46    0.85
  -2  -2  15    3.30    0.70
  -2  -2  15    3.91    0.65
  -2   2  16    6.54    1.01
  -2   2  16    4.14    0.80
   2  -2 -16    5.72    1.01
   2   2 -16    5.55    0.87
  -2  -2  16    6.01    0.86
  -2  -2  16    4.22    0.75
  -2   2  17    0.00    0.67
  -2   2  17    0.19    0.54
   2  -2 -17    0.06    0.72
   2   2 -17    0.46    0.57
  -2  -2  17    0.82    0.56
  -2  -2  17    0.34    0.47
  -2   2  18   -0.49    0.70
   2  -2 -18    0.14    0.76
   2   2 -18   -0.15    0.59
  -2  -2  18   -0.05    0.47
  -2   2  19    4.75    0.93
  -2   2  19    3.80    0.90
  -2   2  19    2.79    0.70
   2   2 -19    3.01    0.81
  -2  -2  19    3.66    0.77
  -2  -2  19    2.93    0.64
  -2   2  20   12.87    1.47
  -2   2  20   11.31    1.41
  -2   2  20    7.08    1.16
   2   2 -20    9.91    1.34
  -2  -2  20   11.74    1.30
  -2  -2  20    7.63    1.09
  -2   2  21   33.64    3.75
  -2   3   1  941.86   89.31
  -2   3   1 1098.22   89.48
   2  -3  -1  943.49   89.33
   2   3  -1  816.54   89.29
  -2  -3   1  809.45   89.30
  -2  -3   1  967.25   89.41
  -2   3   2  119.28   11.48
  -2   3   2  138.97   11.56
   2  -3  -2  116.83   11.48
   2   3  -2  107.60   11.46
  -2  -3   2  101.58   11.46
  -2  -3   2  125.96   11.53
  -2   3   3 1453.06  135.22
  -2   3   3 1603.16  135.39
   2  -3  -3 1370.39  135.22
   2   3  -3 1268.73  135.18
  -2  -3   3 1235.84  135.17
  -2  -3   3 1449.02  135.29
  -2   3   4  234.65   22.57
  -2   3   4  294.86   22.64
   2   3  -4  211.46   22.52
  -2  -3   4  198.61   22.52
  -2  -3   4  241.50   22.57
  -2   3   5  486.81   47.70
  -2   3   5  537.50   47.75
   2   3  -5  455.62   47.65
  -2  -3   5  462.27   47.65
  -2  -3   5  487.08   47.70
  -2   3   6    2.81    0.55
  -2   3   6    3.86    0.60
   2  -3  -6    2.82    0.54
   2   3  -6    2.41    0.46
  -2  -3   6    2.88    0.47
  -2  -3   6    2.35    0.51
  -2   3   7  203.84   20.64
   2  -3  -7  205.21   20.64
  -2  -3   7  208.61   20.60
  -2   3   8   98.71   10.50
   2  -3  -8  103.41   10.54
   2   3  -8  105.42   10.47
  -2  -3   8  107.53   10.47
  -2  -3   8  103.99   10.48
  -2   3   9  120.65   12.33
  -2   3   9  128.68   12.31
   2  -3  -9  125.83   12.35
   2   3  -9  119.99   12.28
  -2  -3   9  113.20   12.26
  -2  -3   9  128.12   12.28
  -2   3  10   97.32   10.07
  -2   3  10  106.66   10.05
   2  -3 -10   97.30   10.09
   2   3 -10   99.89   10.02
  -2  -3  10   93.77   10.00
  -2  -3  10  101.05   10.01
  -2   3  11   31.02    3.56
   2   3 -11   35.83    3.58
  -2  -3  11   34.98    3.56
  -2  -3  11   34.37    3.54
  -2   3  12   11.78    1.65
  -2   3  12   17.53    1.64
   2  -3 -12   12.78    1.68
   2   3 -12   13.52    1.59
  -2  -3  12   12.18    1.57
  -2  -3  12   16.28    1.59
  -2   3  13   15.85    1.85
   2  -3 -13   15.09    1.85
   2   3 -13   16.01    1.76
  -2  -3  13   16.91    1.75
  -2  -3  13   13.82    1.69
  -2   3  14   -0.16    0.65
  -2   3  14    0.52    0.54
   2  -3 -14    0.41    0.66
   2   3 -14    0.36    0.48
  -2  -3  14    0.00    0.46
  -2  -3  14    0.13    0.43
  -2   3  15    0.01    0.65
  -2   3  15    0.16    0.54
   2  -3 -15    0.01    0.69
   2   3 -15   -0.12    0.50
  -2  -3  15    0.13    0.48
  -2  -3  15    0.09    0.45
  -2   3  16   22.83    2.41
  -2   3  16   18.72    2.26
   2  -3 -16   20.73    2.43
   2   3 -16   20.04    2.29
  -2  -3  16   22.73    2.29
  -2  -3  16   19.75    2.22
  -2   3  17   11.36    1.44
  -2   3  17    9.99    1.26
  -2  -3  17   10.59    1.27
  -2  -3  17    8.50    1.17
  -2   3  18   19.05    2.07
   2   3 -18   16.73    1.93
  -2  -3  18   17.20    1.91
  -2  -3  18   14.79    1.82
  -2   3  19   17.50    2.09
   2   3 -19   21.22    2.17
  -2  -3  19   23.35    2.16
  -2  -3  19   15.48    2.02
  -2   3  20   26.48    2.60
  -2   3  20   20.02    2.39
   2   3 -20   23.85    2.48
  -2  -3  20   19.95    2.32
  -2   4   1  975.57   86.74
  -2   4   1 1148.51   86.91
   2  -4  -1  966.74   86.81
   2   4  -1  771.23   86.70
  -2  -4   1  741.38   86.69
  -2  -4   1  969.04   86.86
  -2   4   2 1440.99  142.05
  -2   4   2 1490.13  142.15
   2   4  -2 1373.01  142.04
  -2  -4   2 1435.70  142.14
  -2   4   3  360.73   34.36
   2  -4  -3  343.90   34.31
   2   4  -3  335.56   34.27
  -2  -4   3  343.56   34.33
  -2   4   4   31.47    3.50
  -2   4   4   39.37    3.57
   2  -4  -4   30.14    3.50
   2   4  -4   33.06    3.47
  -2  -4   4   37.59    3.53
  -2   4   5    2.34    0.50
  -2   4   5    1.89    0.58
   2  -4  -5    2.44    0.51
   2   4  -5    2.44    0.42
  -2  -4   5    2.08    0.52
  -2   4   6   21.57    2.37
   2  -4  -6   21.35    2.35
   2   4  -6   24.14    2.32
  -2  -4   6   20.27    2.32
  -2   4   7    6.02    0.89
   2  -4  -7    7.05    0.95
   2   4  -7    6.98    0.83
  -2  -4   7    7.98    0.83
  -2  -4   7    4.89    0.83
  -2   4   8  614.37   59.58
  -2   4   8  611.08   59.59
   2  -4  -8  603.44   59.63
   2   4  -8  579.79   59.50
  -2  -4   8  594.49   59.50
  -2  -4   8  596.31   59.56
  -2   4   9   50.90    5.63
  -2   4   9   50.52    5.61
   2  -4  -9   55.37    5.66
   2   4  -9   53.69    5.56
  -2  -4   9   58.23    5.57
  -2  -4   9   57.44    5.60
  -2   4  10   22.43    2.48
  -2   4  10   24.46    2.45
   2  -4 -10   23.05    2.49
   2   4 -10   21.20    2.37
  -2  -4  10   20.25    2.36
  -2  -4  10   24.21    2.41
  -2   4  11   38.28    3.77
  -2   4  11   29.71    3.67
   2  -4 -11   37.19    3.77
   2   4 -11   36.68    3.67
  -2  -4  11   38.32    3.67
  -2  -4  11   32.50    3.65
  -2   4  12   13.93    1.67
   2  -4 -12   11.77    1.65
   2   4 -12   14.07    1.54
  -2  -4  12   15.27    1.54
  -2  -4  12   11.92    1.52
  -2   4  13   13.92    1.66
   2  -4 -13   13.65    1.66
   2   4 -13   12.56    1.50
  -2  -4  13   12.43    1.48
  -2  -4  13   13.05    1.49
  -2   4  14  203.73   21.15
   2  -4 -14  213.52   21.28
   2   4 -14  214.15   21.08
  -2  -4  14  210.15   21.05
  -2  -4  14  209.18   21.05
  -2   4  15   21.20    2.29
  -2   4  15   17.69    2.18
   2   4 -15   19.46    2.15
  -2  -4  15   21.60    2.15
  -2  -4  15   17.36    2.10
  -2   4  16   99.91    8.74
  -2   4  16   87.59    8.69
  -2   4  16   72.72    8.58
   2   4 -16   89.10    8.61
  -2  -4  16   90.11    8.59
  -2  -4  16   75.91    8.54
  -2   4  17   13.13    1.59
  -2   4  17   13.08    1.55
   2   4 -17   12.03    1.47
  -2  -4  17   11.30    1.43
  -2  -4  17   11.07    1.40
  -2   4  18   13.33    1.78
   2   4 -18   14.05    1.63
  -2  -4  18   13.53    1.60
  -2  -4  18   13.00    1.55
  -2   4  19    0.14    0.74
  -2   4  19   -0.34    0.82
  -2   4  19   -0.20    0.77
  -2  -4  19    0.22    0.55
  -2  -4  19    0.25    0.53
  -2   4  20   14.07    1.57
  -2   4  20   12.76    1.57
  -2   4  20    9.13    1.41
  -2  -4  20    8.10    1.22
  -2   5   1    7.78    1.00
  -2   5   1   10.97    1.06
  -2   5   1   13.89    1.23
   2   5  -1    9.11    1.04
  -2  -5   1    9.05    1.04
  -2  -5   1    9.29    1.13
  -2   5   2   17.31    1.88
  -2   5   2   24.51    2.04
   2   5  -2   15.10    1.85
  -2  -5   2   18.83    1.94
  -2   5   3  108.21   11.66
   2  -5  -3  113.39   11.64
   2   5  -3  122.31   11.56
  -2  -5   3  111.29   11.63
  -2   5   4  412.95   36.31
   2  -5  -4  340.56   36.31
  -2  -5   4  341.14   36.24
  -2   5   5   16.49    1.90
  -2   5   5   15.50    1.94
   2  -5  -5   17.97    1.94
   2   5  -5   20.04    1.87
  -2  -5   5   16.29    1.90
  -2   5   6    0.40    0.43
  -2   5   6    2.21    0.61
   2  -5  -6    0.73    0.54
   2   5  -6    0.23    0.35
  -2  -5   6    0.78    0.45
  -2   5   7  380.96   37.45
   2  -5  -7  401.52   37.57
   2   5  -7  356.23   37.36
  -2  -5   7  386.10   37.43
  -2   5   8   16.36    1.72
   2  -5  -8   14.76    1.71
   2   5  -8   14.47    1.58
  -2  -5   8   13.03    1.62
  -2   5   9   16.70    2.17
  -2   5   9   26.26    2.27
   2  -5  -9   17.93    2.20
   2   5  -9   17.40    2.07
  -2  -5   9   22.35    2.15
  -2   5  10   -0.03    0.59
  -2   5  10    0.16    0.63
   2  -5 -10   -0.08    0.60
   2   5 -10    0.17    0.39
  -2  -5  10    0.01    0.37
  -2  -5  10    0.27    0.46
  -2   5  11  363.28   35.40
  -2   5  11  356.50   35.37
   2  -5 -11  355.25   35.57
   2   5 -11  349.53   35.29
  -2  -5  11  349.69   35.28
  -2   5  12    6.10    1.06
  -2   5  12    5.64    1.01
   2   5 -12    6.42    0.85
  -2  -5  12    6.31    0.84
  -2   5  13  234.09   23.71
  -2   5  13  237.32   23.68
   2   5 -13  238.08   23.61
  -2  -5  13  233.73   23.58
  -2   5  14   74.30    7.37
  -2   5  14   72.56    7.40
  -2   5  14   67.30    7.34
   2   5 -14   70.81    7.29
  -2  -5  14   72.07    7.27
  -2   5  15    0.18    0.61
  -2   5  15    0.87    0.79
  -2   5  15    1.10    0.75
   2   5 -15    0.54    0.50
  -2  -5  15    0.60    0.48
  -2   5  16    1.62    0.71
  -2   5  16    0.72    0.79
   2   5 -16    1.15    0.55
  -2  -5  16    1.42    0.54
  -2   5  17    0.03    0.69
  -2   5  17    0.16    0.81
  -2   5  17    0.28    0.79
   2   5 -17    0.21    0.53
  -2  -5  17    0.62    0.52
  -2   5  18    0.58    0.83
  -2   5  18    0.16    0.84
   2   5 -18    0.28    0.56
  -2  -5  18    0.49    0.55
  -2   5  19  108.83    9.93
  -2   5  19  100.15    9.92
  -2   5  19   82.44    9.79
   2   5 -19   93.56    9.78
  -2  -5  19  107.05    9.78
  -2  -5  19   89.39    9.74
  -2   5  20    0.43    0.79
  -2   5  20    0.82    0.90
  -2   5  20   -0.16    0.89
  -2  -5  20    0.19    0.54
  -2   6   1  211.94   21.14
  -2   6   2   20.18    2.83
  -2   6   2   39.65    2.95
   2   6  -2   31.72    2.88
  -2   6   3  714.66   70.86
  -2   6   3  711.61   70.82
  -2   6   3  719.99   70.93
   2   6  -3  711.18   70.78
  -2  -6   3  698.23   70.92
  -2   6   4   69.57    7.82
  -2   6   4   75.28    7.85
  -2   6   4   91.70    7.99
   2   6  -4   80.29    7.81
  -2  -6   4   74.11    7.80
  -2  -6   4   85.76    7.93
  -2   6   5  142.10   15.21
  -2   6   5  161.20   15.25
  -2   6   5  175.07   15.33
   2   6  -5  148.63   15.16
  -2  -6   5  145.61   15.15
  -2  -6   5  153.19   15.26
  -2   6   6  115.67   12.31
  -2   6   6  127.00   12.36
  -2   6   6  136.10   12.43
   2   6  -6  119.64   12.26
  -2  -6   6  118.41   12.25
  -2  -6   6  127.26   12.37
  -2   6   7  683.69   64.63
   2   6  -7  619.41   64.51
  -2  -6   7  645.33   64.52
  -2  -6   7  670.99   64.63
  -2   6   8  299.34   35.63
  -2   6   8  362.16   35.65
  -2   6   8  430.95   35.74
   2   6  -8  350.87   35.55
  -2  -6   8  340.14   35.54
  -2  -6   8  389.80   35.65
  -2   6   9  191.01   20.57
  -2   6   9  203.28   20.60
  -2   6   9  218.42   20.62
   2   6  -9  205.28   20.48
  -2  -6   9  206.38   20.48
  -2  -6   9  204.34   20.55
  -2   6  10    4.29    0.93
  -2   6  10    7.39    1.09
  -2   6  10   14.41    1.24
   2   6 -10    6.31    0.89
  -2  -6  10    9.52    1.06
  -2   6  11   43.82    4.24
  -2   6  11   38.27    4.27
   2   6 -11   39.37    4.16
  -2  -6  11   39.90    4.21
  -2   6  12    0.57    0.55
  -2   6  12    0.02    0.67
  -2   6  12    0.20    0.70
   2   6 -12    0.66    0.43
  -2  -6  12    0.33    0.58
  -2   6  13    1.33    0.77
  -2   6  13    1.44    0.79
   2   6 -13    1.74    0.51
  -2  -6  13    1.74    0.50
  -2  -6  13    1.86    0.68
  -2   6  14    4.16    0.81
  -2   6  14    2.55    0.92
   2   6 -14    3.73    0.67
  -2  -6  14    4.61    0.68
  -2  -6  14    3.77    0.80
  -2   6  15    5.84    1.03
  -2   6  15    6.85    1.19
  -2   6  15    6.60    1.15
   2   6 -15    6.76    0.93
  -2  -6  15    6.53    0.90
  -2  -6  15    6.61    1.02
  -2   6  16    0.44    0.65
  -2   6  16    1.10    0.87
  -2   6  16    0.35    0.83
   2   6 -16    0.34    0.50
  -2  -6  16    0.60    0.48
  -2  -6  16   -0.06    0.66
  -2   6  17   57.34    5.21
  -2   6  17   47.54    5.22
  -2   6  17   41.24    5.13
   2   6 -17   47.63    5.06
  -2  -6  17   51.39    5.05
  -2  -6  17   47.91    5.09
  -2   6  18    4.11    0.95
  -2   6  18    4.60    1.12
  -2   6  18    4.99    1.10
   2   6 -18    3.79    0.77
  -2  -6  18    4.08    0.75
  -2  -6  18    4.02    0.91
  -2   6  19    2.18    0.85
  -2   6  19    2.75    1.00
  -2   6  19    2.39    1.01
  -2  -6  19    1.45    0.78
  -2   7   1  164.00   16.95
  -2   7   1  171.39   16.98
  -2   7   1  168.85   17.13
   2   7  -1  176.16   16.98
  -2  -7   1  169.67   16.98
  -2  -7   1  170.87   17.12
  -2   7   2  307.22   32.76
  -2   7   2  337.82   32.80
  -2   7   2  371.02   32.96
   2   7  -2  321.05   32.76
  -2  -7   2  350.54   32.95
  -2   7   3   78.90    7.90
  -2   7   3   82.56    7.96
  -2   7   3   79.63    8.06
   2   7  -3   79.70    7.90
  -2  -7   3   77.33    7.89
  -2  -7   3   70.11    8.01
  -2   7   4   77.69    8.00
  -2   7   4   79.54    8.05
  -2   7   4   77.50    8.14
   2   7  -4   80.33    7.98
  -2  -7   4   80.13    7.98
  -2  -7   4   78.17    8.10
  -2   7   5   63.93    6.92
  -2   7   5   81.43    7.12
   2   7  -5   68.42    6.90
  -2  -7   5   65.47    6.89
  -2  -7   5   72.97    7.04
  -2   7   6  259.19   27.81
  -2   7   6  299.18   27.88
  -2   7   6  346.38   27.99
   2   7  -6  277.62   27.76
  -2  -7   6  260.74   27.75
  -2   7   7    7.25    1.11
   2   7  -7    7.98    0.96
  -2  -7   7    8.51    0.95
  -2  -7   7    7.91    1.14
  -2   7   8   16.06    1.74
  -2   7   8   15.87    1.83
  -2   7   8   13.71    1.87
   2   7  -8   14.26    1.67
  -2  -7   8   16.60    1.67
  -2  -7   8   16.17    1.83
  -2   7   9   11.08    1.33
  -2   7   9   12.16    1.46
  -2   7   9   12.78    1.53
   2   7  -9   10.38    1.25
  -2  -7   9   10.71    1.25
  -2  -7   9   11.98    1.43
  -2   7  10   89.30    9.55
  -2   7  10   94.44    9.63
  -2   7  10  100.39    9.66
   2   7 -10   94.02    9.49
  -2  -7  10   93.82    9.48
  -2  -7  10   94.71    9.58
  -2   7  11   44.13    3.24
  -2   7  11   28.68    3.22
  -2   7  11   18.98    3.15
   2   7 -11   28.33    3.07
  -2  -7  11   34.46    3.09
  -2  -7  11   24.83    3.13
  -2   7  12  258.87   25.40
  -2   7  12  257.18   25.46
   2   7 -12  244.35   25.30
  -2  -7  12  249.71   25.29
  -2  -7  12  264.53   25.40
  -2   7  13    5.25    1.24
   2   7 -13    8.27    1.04
  -2  -7  13   10.35    1.04
  -2  -7  13    6.83    1.16
  -2   7  14  102.23    9.82
  -2   7  14   99.79    9.89
  -2   7  14   92.17    9.84
   2   7 -14   94.52    9.72
  -2  -7  14   92.16    9.77
  -2   7  15   10.18    1.17
  -2   7  15    5.86    1.22
  -2   7  15    5.71    1.25
   2   7 -15    7.37    0.98
  -2  -7  15    6.57    1.10
  -2   7  16   19.55    2.02
  -2   7  16   19.04    2.14
  -2   7  16   12.95    2.04
   2   7 -16   14.88    1.84
  -2  -7  16   17.64    1.85
  -2  -7  16   15.65    1.95
  -2   7  17   55.79    4.85
  -2   7  17   47.54    4.90
  -2   7  17   35.68    4.78
   2   7 -17   43.19    4.68
  -2  -7  17   49.62    4.68
  -2  -7  17   40.32    4.71
  -2   7  18   29.23    3.14
  -2   7  18   25.20    3.07
  -2  -7  18   26.12    2.95
  -2   7  19    2.30    0.84
  -2   7  19    1.56    0.99
  -2   7  19    0.28    1.02
  -2  -7  19    1.55    0.83
  -2   8   1  237.23   26.33
  -2   8   1  291.06   26.39
  -2   8   1  350.12   26.67
   2   8  -1  246.58   26.35
  -2  -8   1  291.78   26.58
  -2   8   2  350.94   35.78
  -2   8   2  367.52   35.82
  -2   8   2  383.63   36.00
   2   8  -2  347.15   35.78
  -2  -8   2  375.09   35.98
  -2   8   3   28.39    2.64
  -2   8   3   21.09    2.64
  -2   8   3   14.65    2.73
   2   8  -3   29.02    2.63
  -2  -8   3   29.46    2.63
  -2  -8   3   21.59    2.74
  -2   8   4   68.91    7.46
  -2   8   4   77.40    7.54
  -2   8   4   93.26    7.73
   2   8  -4   74.35    7.45
  -2  -8   4   69.95    7.44
  -2  -8   4   74.10    7.59
  -2   8   5   18.99    2.33
  -2   8   5   24.31    2.44
  -2   8   5   28.00    2.60
  -2  -8   5   21.30    2.32
  -2  -8   5   24.84    2.51
  -2   8   6    5.39    0.72
  -2   8   6    3.68    0.81
  -2   8   6    2.71    0.97
  -2  -8   6    5.49    0.65
  -2   8   7   16.41    1.84
  -2   8   7   21.12    2.00
  -2  -8   7   13.26    1.65
  -2  -8   7   18.03    1.88
  -2   8   8  108.83   10.22
  -2   8   8   99.65   10.28
  -2   8   8   90.45   10.31
  -2  -8   8  102.00   10.13
  -2  -8   8   98.92   10.27
  -2   8   9    1.37    0.52
  -2   8   9    2.10    0.87
  -2  -8   9    1.43    0.41
  -2  -8   9    2.18    0.74
  -2   8  10    3.75    0.73
  -2   8  10    5.00    1.01
  -2  -8  10    3.87    0.60
  -2  -8  10    4.10    0.88
  -2   8  11   73.97    7.25
  -2   8  11   68.46    7.31
  -2   8  11   67.92    7.34
  -2  -8  11   69.75    7.15
  -2  -8  11   71.97    7.27
  -2   8  12   35.37    3.21
  -2   8  12   28.28    3.26
  -2   8  12   23.90    3.24
  -2  -8  12   30.22    3.08
  -2  -8  12   27.67    3.19
  -2   8  13   62.14    6.34
  -2   8  13   55.98    6.32
   2   8 -13   60.59    6.17
  -2  -8  13   61.78    6.16
  -2  -8  13   59.05    6.26
  -2   8  14   19.65    2.05
  -2   8  14   17.60    2.17
   2   8 -14   16.23    1.90
  -2  -8  14   18.13    1.90
  -2  -8  14   15.27    2.03
  -2   8  15   53.76    5.21
  -2   8  15   52.21    5.31
  -2   8  15   45.38    5.26
   2   8 -15   48.22    5.10
  -2  -8  15   48.94    5.08
  -2  -8  15   48.45    5.19
  -2   8  16   22.40    2.36
  -2   8  16   20.62    2.47
  -2   8  16   19.30    2.46
   2   8 -16   18.80    2.19
  -2  -8  16   20.05    2.18
  -2  -8  16   20.14    2.33
  -2   8  17    1.02    0.75
  -2   8  17    1.66    0.97
  -2   8  17    0.80    1.03
   2   8 -17    0.45    0.50
  -2  -8  17    0.96    0.51
  -2  -8  17    1.19    0.80
  -2   8  18    0.64    0.95
  -2   8  18    0.10    1.02
  -2  -8  18   -0.27    0.76
  -2   9   1   29.26    2.91
  -2   9   1   27.87    3.12
   2   9  -1   26.99    2.88
  -2  -9   1   25.94    3.04
  -2   9   2   32.78    3.95
  -2   9   2   46.66    4.05
  -2   9   2   59.69    4.35
   2   9  -2   38.46    3.97
  -2  -9   2   33.63    3.95
  -2  -9   2   45.91    4.18
  -2   9   3  228.83   24.31
  -2   9   3  253.24   24.38
  -2   9   3  275.83   24.59
   2   9  -3  247.25   24.31
  -2  -9   3  236.58   24.30
  -2  -9   3  251.06   24.51
  -2   9   4   17.28    1.79
  -2   9   4   13.26    1.83
  -2   9   4   12.71    2.01
   2   9  -4   17.32    1.77
  -2  -9   4   18.95    1.77
  -2  -9   4   14.56    1.95
  -2   9   5  124.20   12.45
  -2   9   5  129.71   12.54
  -2   9   5  124.87   12.66
  -2  -9   5  119.58   12.41
  -2  -9   5  126.03   12.60
  -2   9   6  118.86   11.94
  -2   9   6  139.94   12.19
  -2  -9   6  112.99   11.87
  -2   9   7    4.15    0.68
  -2   9   7    4.78    1.07
   2   9  -7    3.54    0.59
  -2  -9   7    3.90    0.57
  -2  -9   7    4.01    0.90
  -2   9   8    0.36    0.46
  -2   9   8    0.72    0.66
  -2   9   8    1.06    0.87
   2   9  -8    0.73    0.39
  -2  -9   8    0.96    0.37
  -2  -9   8    1.04    0.74
  -2   9   9   43.75    4.28
  -2   9   9   40.01    4.35
  -2   9   9   35.85    4.39
   2   9  -9   40.97    4.20
  -2  -9   9   41.33    4.19
  -2  -9   9   40.54    4.35
  -2   9  10   56.32    5.53
  -2   9  10   53.51    5.62
  -2   9  10   53.06    5.66
   2   9 -10   51.21    5.44
  -2  -9  10   53.15    5.43
  -2  -9  10   54.22    5.59
  -2   9  11   59.73    6.40
  -2   9  11   60.60    6.50
  -2   9  11   66.13    6.58
   2   9 -11   61.94    6.33
  -2  -9  11   60.69    6.31
  -2  -9  11   67.52    6.49
  -2   9  12   64.92    5.76
  -2   9  12   54.77    5.83
  -2   9  12   42.61    5.79
   2   9 -12   54.53    5.64
  -2  -9  12   58.91    5.63
  -2  -9  12   51.37    5.75
  -2   9  13   23.01    2.68
  -2   9  13   27.23    2.76
   2   9 -13   23.29    2.42
  -2  -9  13   20.15    2.39
  -2  -9  13   24.12    2.61
  -2   9  14   25.66    2.40
   2   9 -14   17.81    2.21
  -2  -9  14   21.48    2.21
  -2  -9  14   19.91    2.39
  -2   9  15   16.91    1.72
  -2   9  15   11.97    1.81
  -2   9  15   12.35    1.89
  -2  -9  15   12.47    1.49
  -2  -9  15   12.67    1.71
  -2   9  16    5.33    1.03
  -2   9  16    5.27    1.20
  -2   9  16    5.78    1.32
  -2  -9  16    5.26    0.79
  -2  -9  16    6.05    1.11
  -2   9  17    3.72    0.89
  -2   9  17    2.46    1.20
  -2  -9  17    2.72    0.92
  -2  10   1   30.59    3.23
  -2  10   1   24.83    3.40
   2  10  -1   35.87    3.23
  -2 -10   1   27.36    3.36
  -2  10   2  101.36   10.65
  -2  10   2  114.66   10.72
  -2  10   2  123.31   10.97
   2  10  -2  104.09   10.66
  -2 -10   2  100.29   10.65
  -2 -10   2  112.37   10.88
  -2  10   3  255.16   26.72
  -2  10   3  282.43   26.80
  -2  10   3  298.18   27.05
   2  10  -3  265.51   26.72
  -2 -10   3  259.00   26.71
  -2 -10   3  286.78   26.97
  -2  10   4    0.04    0.37
  -2  10   4   -0.05    0.88
  -2 -10   4    0.39    0.36
  -2 -10   4   -0.25    0.74
  -2  10   5    3.91    0.65
  -2  10   5    3.99    1.09
  -2 -10   5    4.02    0.59
  -2 -10   5    4.96    0.97
  -2  10   6   30.15    2.91
  -2  10   6   26.91    2.99
  -2  10   6   24.09    3.11
   2  10  -6   27.01    2.86
  -2 -10   6   27.19    2.84
  -2  10   7    4.05    0.72
  -2  10   7    6.79    0.87
  -2  10   7    6.35    1.19
   2  10  -7    3.87    0.63
  -2 -10   7    3.74    0.61
  -2 -10   7    6.26    1.03
  -2  10   8  113.46   11.36
  -2  10   8  113.69   11.46
  -2  10   8  121.07   11.59
   2  10  -8  105.38   11.28
  -2 -10   8  112.57   11.27
  -2 -10   8  120.63   11.50
  -2  10   9   13.19    1.37
  -2  10   9   10.33    1.49
  -2  10   9    9.26    1.62
   2  10  -9    9.80    1.23
  -2 -10   9   11.80    1.24
  -2 -10   9   10.05    1.50
  -2  10  10   13.18    1.49
  -2  10  10   14.11    1.68
  -2  10  10   15.08    1.79
   2  10 -10   10.83    1.35
  -2 -10  10   11.49    1.34
  -2 -10  10   12.52    1.63
  -2  10  11   20.37    2.14
  -2  10  11   19.84    2.30
  -2  10  11   20.98    2.40
   2  10 -11   17.26    2.01
  -2 -10  11   18.02    2.00
  -2 -10  11   20.25    2.26
  -2  10  12   11.83    1.46
  -2  10  12   12.38    1.65
  -2  10  12   12.33    1.76
   2  10 -12   10.56    1.31
  -2 -10  12   11.28    1.30
  -2 -10  12   13.11    1.61
  -2  10  13   20.94    2.52
  -2  10  13   17.30    2.54
   2  10 -13   19.78    2.22
  -2 -10  13   21.98    2.22
  -2 -10  13   22.48    2.46
  -2  10  14    1.04    0.67
  -2  10  14    0.81    0.88
   2  10 -14    1.09    0.47
  -2 -10  14    1.22    0.45
  -2 -10  14    1.12    0.85
  -2  10  15    0.83    0.70
  -2  10  15    0.00    1.09
   2  10 -15    0.35    0.44
  -2 -10  15    0.36    0.42
  -2 -10  15    0.30    0.82
  -2  10  16   25.91    2.78
  -2  10  16   27.82    2.97
  -2  10  16   22.15    2.95
  -2 -10  16   22.20    2.80
  -2  11   1    0.36    0.48
  -2  11   1    0.05    0.93
   2  11  -1    0.44    0.42
  -2 -11   1   -0.17    0.76
  -2  11   2    0.50    0.39
  -2  11   2    3.69    1.04
   2  11  -2    0.37    0.42
  -2 -11   2    0.40    0.39
  -2 -11   2    1.38    0.82
  -2  11   3   14.99    1.71
  -2  11   3   17.60    1.82
  -2  11   3   21.15    2.16
   2  11  -3   15.29    1.70
  -2 -11   3   13.97    1.68
  -2 -11   3   17.13    1.99
  -2  11   4   44.77    4.57
  -2  11   4   45.40    4.65
  -2  11   4   45.70    4.84
  -2 -11   4   42.93    4.53
  -2 -11   4   44.71    4.76
  -2  11   5   22.52    2.16
  -2  11   5   18.08    2.23
  -2  11   5   10.34    2.33
   2  11  -5   19.96    2.10
  -2 -11   5   23.37    2.11
  -2 -11   5   16.30    2.31
  -2  11   6   88.24    8.91
  -2  11   6   92.99    9.03
  -2  11   6   87.56    9.16
   2  11  -6   85.36    8.85
  -2 -11   6   87.73    8.85
  -2  11   7   37.11    4.26
  -2  11   7   46.79    4.41
  -2  11   7   50.88    4.61
   2  11  -7   40.97    4.23
  -2 -11   7   38.36    4.20
  -2 -11   7   45.27    4.46
  -2  11   8    2.25    0.59
  -2  11   8    1.66    0.79
   2  11  -8    2.43    0.49
  -2 -11   8    2.17    0.46
  -2 -11   8    1.83    0.88
  -2  11   9    3.71    0.70
  -2  11   9    2.93    0.92
  -2  11   9    2.07    1.10
   2  11  -9    3.64    0.57
  -2 -11   9    3.30    0.54
  -2 -11   9    3.46    0.98
  -2  11  10   52.21    4.55
  -2  11  10   44.56    4.66
  -2  11  10   31.93    4.64
   2  11 -10   39.50    4.41
  -2 -11  10   46.10    4.41
  -2 -11  10   41.04    4.61
  -2  11  11    2.62    0.78
  -2  11  11    5.10    1.07
  -2  11  11    8.24    1.35
   2  11 -11    4.10    0.63
  -2 -11  11    3.22    0.60
  -2 -11  11    6.36    1.10
  -2  11  12   25.29    2.39
  -2  11  12   22.73    2.55
  -2  11  12   17.48    2.57
   2  11 -12   19.08    2.21
  -2 -11  12   20.85    2.20
  -2 -11  12   20.71    2.48
  -2  11  13    0.17    1.09
   2  11 -13    0.24    0.42
  -2 -11  13    0.24    0.39
  -2 -11  13    0.11    0.86
  -2  11  14    0.50    0.66
  -2  11  14    0.13    0.89
   2  11 -14    0.42    0.43
  -2 -11  14    0.66    0.41
  -2 -11  14    0.08    0.86
  -2  11  15   -0.38    0.68
  -2  11  15    0.36    1.17
  -2 -11  15   -0.15    0.88
  -2  12   1   97.08    9.40
   2  12  -1   89.47    9.35
  -2 -12   1   91.52    9.59
  -2  12   2   62.73    5.48
  -2  12   2   46.33    5.50
  -2  12   2   31.49    5.61
   2  12  -2   59.90    5.49
  -2 -12   2   61.63    5.48
  -2 -12   2   44.40    5.63
  -2  12   3   66.66    6.75
  -2  12   3   72.21    6.86
  -2  12   3   71.46    7.08
  -2 -12   3   60.37    6.72
  -2 -12   3   70.98    6.99
  -2  12   4   91.09    8.33
  -2  12   4   75.30    8.38
  -2  12   4   73.09    8.56
   2  12  -4   80.57    8.29
  -2 -12   4   86.09    8.28
  -2 -12   4   74.25    8.49
  -2  12   5    7.81    0.99
  -2  12   5    8.16    1.16
  -2  12   5   11.14    1.54
   2  12  -5    7.35    0.94
  -2 -12   5    6.63    0.90
  -2 -12   5    7.92    1.32
  -2  12   6    1.64    0.54
  -2  12   6    1.79    0.77
  -2  12   6    1.72    1.10
   2  12  -6    1.79    0.48
  -2 -12   6    2.61    0.47
  -2  12   7    1.37    0.53
  -2  12   7    0.57    0.74
  -2  12   7    0.45    1.07
   2  12  -7    1.05    0.44
  -2 -12   7    1.62    0.42
  -2 -12   7    1.24    0.89
  -2  12   8    2.87    0.59
  -2  12   8    0.08    0.41
   2  12  -8    1.62    0.45
  -2 -12   8    1.76    0.43
  -2 -12   8    0.69    0.88
  -2  12   9    5.76    0.91
  -2  12   9    6.94    1.18
  -2  12   9    8.54    1.46
   2  12  -9    5.85    0.80
  -2 -12   9    5.48    0.77
  -2 -12   9    8.06    1.26
  -2  12  10    7.95    1.02
  -2  12  10    6.25    1.23
  -2  12  10    4.62    1.39
   2  12 -10    6.00    0.83
  -2 -12  10    7.26    0.83
  -2 -12  10    5.46    1.22
  -2  12  11    6.08    0.93
  -2  12  11    4.97    1.37
   2  12 -11    5.00    0.73
  -2 -12  11    5.03    0.71
  -2 -12  11    7.23    1.22
  -2  12  12    0.45    0.63
  -2  12  12   -0.53    0.89
  -2  12  12   -0.20    1.15
   2  12 -12    0.12    0.40
  -2 -12  12    0.00    0.37
  -2 -12  12    0.15    0.90
  -2  12  13    4.08    1.14
  -2  12  13    4.92    1.38
   2  12 -13    4.41    0.68
  -2 -12  13    4.46    0.65
  -2 -12  13    5.18    1.16
  -2  12  14    0.47    0.67
  -2  12  14    0.42    0.93
  -2 -12  14    0.25    0.92
  -2  13   1    9.78    1.07
  -2  13   1    8.57    1.16
   2  13  -1    8.39    1.09
  -2 -13   1    8.40    1.44
  -2  13   2   -0.23    0.40
  -2  13   2    0.39    0.59
  -2  13   2    0.33    1.05
   2  13  -2   -0.01    0.44
  -2 -13   2    0.31    0.41
  -2 -13   2   -0.14    0.87
  -2  13   3   32.87    3.28
  -2  13   3   28.59    3.35
  -2  13   3   23.30    3.54
  -2 -13   3   35.26    3.28
  -2 -13   3   29.37    3.51
  -2  13   4   21.91    2.32
  -2  13   4   21.02    2.44
  -2  13   4   18.75    2.67
   2  13  -4   21.99    2.30
  -2 -13   4   21.37    2.29
  -2 -13   4   23.26    2.63
  -2  13   5    9.70    1.14
  -2  13   5    8.24    1.29
  -2  13   5    5.67    1.53
   2  13  -5    9.39    1.09
  -2 -13   5    9.77    1.07
  -2 -13   5    7.51    1.44
  -2  13   6    1.72    0.54
  -2  13   6    1.91    0.79
  -2  13   6    0.84    1.10
   2  13  -6    1.07    0.46
  -2 -13   6    1.45    0.44
  -2  13   7    0.17    0.50
  -2  13   7    0.12    0.76
  -2  13   7    0.37    1.07
   2  13  -7    0.16    0.41
  -2 -13   7    0.31    0.37
  -2 -13   7   -0.58    0.92
   2  13  -8    2.53    0.53
  -2 -13   8    3.08    0.51
  -2 -13   8    1.82    1.02
  -2  13   9   42.01    4.21
  -2  13   9   45.60    4.39
  -2  13   9   35.98    4.47
   2  13  -9   38.18    4.11
  -2 -13   9   39.06    4.09
  -2 -13   9   42.10    4.40
  -2  13  10    1.13    0.62
  -2  13  10    0.57    0.87
  -2  13  10    0.59    1.15
   2  13 -10    0.01    0.39
  -2 -13  10    0.57    0.38
  -2 -13  10    0.20    0.93
  -2  13  11   27.71    2.59
  -2  13  11   22.44    2.77
  -2  13  11   20.62    2.87
   2  13 -11   21.73    2.41
  -2 -13  11   22.17    2.40
  -2 -13  11   25.15    2.78
  -2  13  12   -0.10    0.63
  -2  13  12    0.88    0.95
  -2  13  12    1.19    1.22
  -2 -13  12    1.05    0.99
  -2  14   1    3.31    0.61
  -2  14   1    4.12    0.79
   2  14  -1    3.91    0.67
  -2 -14   1    2.96    0.61
  -2 -14   1    3.77    1.11
  -2  14   2    1.97    0.67
  -2 -14   2    1.28    0.46
  -2 -14   2    0.66    0.96
  -2  14   3    8.04    1.03
  -2  14   3    8.71    1.21
  -2  14   3    7.21    1.55
   2  14  -3    8.55    1.03
  -2 -14   3    8.73    1.01
  -2 -14   3    6.48    1.40
  -2  14   4    4.55    0.70
  -2  14   4    4.10    0.92
  -2  14   4    3.62    1.31
   2  14  -4    4.47    0.68
  -2 -14   4    4.08    0.65
  -2 -14   4    4.38    1.17
  -2  14   5    6.36    0.89
  -2  14   5    5.45    1.43
   2  14  -5    6.43    0.85
  -2 -14   5    6.33    0.81
  -2 -14   5    5.87    1.29
  -2  14   6    9.42    1.13
  -2  14   6    8.05    1.64
   2  14  -6    8.77    1.05
  -2 -14   6    8.21    1.02
  -2  14   7    2.37    0.65
  -2  14   7    4.14    0.97
  -2  14   7    4.66    1.33
   2  14  -7    3.10    0.57
  -2 -14   7    2.95    0.54
  -2 -14   7    3.83    1.12
  -2  14   8   12.27    1.76
   2  14  -8   12.36    1.42
  -2 -14   8   12.94    1.40
  -2 -14   8   13.22    1.86
  -2  14   9   38.50    3.73
  -2  14   9   35.90    3.91
  -2  14   9   29.61    4.00
   2  14  -9   33.46    3.61
  -2 -14   9   35.21    3.60
  -2 -14   9   36.11    3.95
  -2  14  10   13.26    1.49
  -2  14  10   10.97    1.73
  -2  14  10    9.75    1.89
  -2 -14  10   10.85    1.75
  -2  14  11    0.09    0.61
  -2  14  11    0.16    0.91
  -2  14  11    0.55    1.23
  -2 -14  11    0.37    0.98
  -2  15   1    2.20    0.52
  -2  15   1    1.39    0.69
   2  15  -1    2.13    0.58
  -2 -15   1    2.33    0.53
  -2 -15   1    2.09    1.05
  -2 -15   2   10.95    1.25
  -2 -15   2    9.50    1.65
  -2  15   3    0.18    0.44
   2  15  -3   -0.14    0.45
  -2 -15   3    0.04    0.40
  -2 -15   3   -0.21    0.99
  -2  15   4   36.93    3.68
  -2  15   4   30.36    3.77
   2  15  -4   35.27    3.65
  -2 -15   4   37.77    3.64
  -2 -15   4   29.66    3.91
  -2  15   5   11.38    1.34
  -2  15   5   12.56    1.59
   2  15  -5   11.31    1.30
  -2 -15   5   10.37    1.27
  -2 -15   5   12.03    1.76
  -2  15   6    6.44    1.20
  -2  15   7   13.29    1.79
  -2 -15   7   12.38    1.88
  -2  15   8    0.54    0.89
  -2 -15   8    0.62    1.05
  -2  16   1    2.39    0.76
  -2 -16   1    2.60    1.13
  -2  16   2    7.33    1.13
  -2 -16   2    6.10    1.39
  -2  16   3   18.16    2.07
  -2 -16   3   15.00    2.26
  -2  16   4    1.32    0.80
  -2 -16   4    0.49    1.04
  -1   0   1 2032.33  208.08
  -1   0   1 2337.09  208.28
   1   0  -1 2055.37  208.08
  -1   0   2    0.19    0.16
  -1   0   2    0.09    0.16
   1   0  -2   -0.02    0.16
   1   0  -2    0.11    0.16
  -1   0   3  284.43   29.62
  -1   0   3  326.92   29.64
   1   0  -3  285.41   29.62
   1   0  -3  307.91   29.64
  -1   0   4    0.28    0.31
  -1   0   4    0.29    0.29
   1   0  -4    0.10    0.31
   1   0  -4    0.21    0.27
  -1   0   5 1191.93  118.84
  -1   0   5 1306.40  118.95
   1   0  -5 1159.31  118.85
   1   0  -5 1169.03  118.88
  -1   0   6    0.15    0.36
   1   0  -6    0.05    0.34
   1   0  -6   -0.03    0.27
  -1   0   7    0.57    0.39
  -1   0   7    0.78    0.33
   1   0  -7    0.85    0.40
  -1   0   8    0.26    0.40
  -1   0   8    0.08    0.33
   1   0  -8    0.13    0.39
   1   0  -8    0.08    0.28
  -1   0   9 1201.67  123.12
  -1   0   9 1320.45  123.20
   1   0  -9 1223.77  123.13
  -1   0  10   -0.06    0.46
  -1   0  10    0.11    0.34
   1   0 -10    0.03    0.45
   1   0 -10    0.00    0.29
  -1   0  11  416.46   42.56
  -1   0  11  436.83   42.50
   1   0 -11  428.73   42.60
   1   0 -11  424.05   42.48
  -1   0  12    0.08    0.48
  -1   0  13   27.16    3.00
  -1   0  13   30.52    2.93
   1   0 -13   26.75    3.00
   1   0 -13   27.28    2.88
  -1   0  14    0.20    0.52
  -1   0  14    0.05    0.36
   1   0 -14    0.22    0.51
   1   0 -14   -0.03    0.30
  -1   0  15    1.78    0.44
   1   0 -15    2.20    0.65
   1   0 -15    1.62    0.37
  -1   0  16    0.25    0.57
  -1   0  16   -0.07    0.39
   1   0 -16    0.05    0.61
  -1   0  17    2.37    0.68
   1   0 -17    2.88    0.76
   1   0 -17    1.56    0.35
  -1   0  18    0.33    0.61
  -1   0  18   -0.11    0.36
   1   0 -18    0.00    0.25
  -1   0  19    3.22    0.80
  -1   0  19    4.53    0.79
  -1   0  19    0.18    0.26
  -1   0  20    0.07    0.70
  -1   0  20   -0.05    0.68
  -1   0  21   19.91    2.33
  -1   0  21   18.35    2.23
  -1   1   1   97.93    8.71
  -1  -1   1   79.91    8.69
  -1   1   2  463.60   46.96
  -1   1   2  594.25   47.04
   1  -1  -2  463.47   46.97
   1  -1  -2  579.53   47.02
   1   1  -2  398.51   46.94
   1   1  -2  478.92   46.98
  -1  -1   2  497.76   47.00
  -1   1   3   10.88    1.21
  -1   1   3   12.19    1.21
   1  -1  -3   10.06    1.20
   1  -1  -3   12.17    1.21
   1   1  -3   10.47    1.19
   1   1  -3   10.93    1.19
  -1  -1   3   12.22    1.20
  -1   1   4    0.41    0.34
  -1   1   4    1.99    0.35
   1  -1  -4    0.34    0.34
   1  -1  -4    1.25    0.33
   1   1  -4    0.63    0.31
   1   1  -4    1.12    0.29
  -1  -1   4    0.35    0.30
  -1  -1   4    1.88    0.31
  -1   1   5 2391.87  247.60
  -1   1   5 2691.79  247.76
   1  -1  -5 2413.46  247.61
   1  -1  -5 2725.11  247.76
   1   1  -5 2430.97  247.57
   1   1  -5 2445.40  247.69
  -1  -1   5 2482.76  247.57
  -1  -1   5 2573.24  247.72
  -1   1   6 1446.13  150.37
   1  -1  -6 1475.69  150.39
   1  -1  -6 1719.19  150.49
   1   1  -6 1487.91  150.36
   1   1  -6 1521.99  150.42
  -1  -1   6 1523.96  150.37
  -1   1   7  202.40   21.11
  -1   1   7  233.42   21.08
   1  -1  -7  197.91   21.11
   1   1  -7  203.97   21.09
  -1  -1   7  204.83   21.09
  -1  -1   7  224.05   21.07
  -1   1   8  490.90   51.19
  -1   1   8  573.81   51.20
   1  -1  -8  497.66   51.21
   1  -1  -8  568.78   51.19
   1   1  -8  499.66   51.19
   1   1  -8  505.47   51.15
  -1  -1   8  464.49   51.16
  -1  -1   8  551.46   51.17
  -1   1   9  440.14   42.75
  -1   1   9  453.39   42.71
   1  -1  -9  429.72   42.69
   1   1  -9  429.30   42.74
   1   1  -9  416.22   42.67
  -1  -1   9  394.63   42.71
  -1  -1   9  448.49   42.70
  -1   1  10  617.07   58.93
   1  -1 -10  613.21   58.93
   1   1 -10  576.37   58.96
   1   1 -10  580.01   58.89
  -1  -1  10  553.93   58.94
  -1  -1  10  628.08   58.95
  -1   1  11   25.61    2.42
  -1   1  11   18.72    2.29
   1  -1 -11   22.67    2.40
   1  -1 -11   20.13    2.28
   1   1 -11   25.10    2.39
   1   1 -11   20.62    2.27
  -1  -1  11   25.80    2.39
  -1  -1  11   22.84    2.30
  -1   1  12   50.49    5.34
   1  -1 -12   51.48    5.36
   1   1 -12   54.40    5.34
  -1  -1  12   50.27    5.32
  -1   1  13  108.46   11.15
   1  -1 -13  116.78   11.30
   1   1 -13  117.36   11.26
   1   1 -13  107.53   11.11
  -1  -1  13  110.33   11.23
  -1  -1  13  112.41   11.14
  -1   1  14   58.18    5.61
  -1   1  14   49.82    5.48
   1  -1 -14   60.84    5.65
   1   1 -14   53.26    5.44
  -1  -1  14   60.35    5.59
  -1  -1  14   50.07    5.47
  -1   1  15   24.94    2.49
  -1   1  15   19.37    2.32
   1  -1 -15   28.94    2.57
   1   1 -15   26.27    2.49
   1   1 -15   20.73    2.29
  -1  -1  15   27.66    2.48
  -1  -1  15   19.29    2.31
  -1   1  16   30.84    2.82
  -1   1  16   22.62    2.63
   1  -1 -16   29.26    2.86
   1   1 -16   26.54    2.78
  -1  -1  16   28.94    2.77
  -1  -1  16   21.97    2.61
  -1   1  17    2.70    0.84
  -1   1  17    5.70    0.94
   1  -1 -17    4.84    0.60
   1   1 -17    6.56    0.91
   1   1 -17    3.50    0.56
  -1  -1  17    5.47    0.64
  -1   1  18  112.81    8.54
  -1   1  18   74.89    8.27
   1  -1 -18   80.27    8.23
   1   1 -18  115.60    8.62
  -1  -1  18  114.19    8.51
  -1  -1  18   68.38    8.23
  -1   1  19    1.57    0.73
  -1   1  19    0.97    0.71
  -1   1  19    0.28    0.40
   1  -1 -19    0.22    0.25
  -1  -1  19    0.76    0.62
  -1  -1  19    0.00    0.18
  -1   1  20    8.01    1.20
  -1   1  20    5.79    1.10
  -1  -1  20    7.76    1.17
  -1  -1  20    6.01    1.04
  -1   1  21    4.55    1.04
  -1   1  21    4.97    0.99
  -1  -1  21    4.87    1.04
  -1  -1  21    4.95    0.94
  -1   2   1    2.24    0.29
   1  -2  -1    2.24    0.28
   1   2  -1    0.82    0.27
  -1  -2   1    2.90    0.34
  -1   2   2  595.98   51.01
   1  -2  -2  516.83   50.95
   1  -2  -2  589.31   50.98
   1   2  -2  478.96   50.91
   1   2  -2  504.00   50.98
  -1  -2   2  472.24   50.91
  -1  -2   2  523.18   50.96
  -1   2   3  719.08   71.56
  -1   2   3  821.63   71.63
   1  -2  -3  714.37   71.57
   1  -2  -3  801.74   71.60
   1   2  -3  657.31   71.51
   1   2  -3  702.07   71.57
  -1  -2   3  721.01   71.57
  -1   2   4   23.44    2.32
  -1   2   4   18.55    2.28
   1  -2  -4   23.80    2.32
   1  -2  -4   17.23    2.27
   1   2  -4   27.58    2.30
   1   2  -4   22.33    2.28
  -1  -2   4   22.87    2.28
  -1   2   5  134.94   13.92
  -1   2   5  149.97   13.91
   1  -2  -5  135.82   13.92
   1  -2  -5  150.78   13.90
   1   2  -5  134.28   13.88
   1   2  -5  130.29   13.87
  -1  -2   5  140.96   13.88
  -1   2   6  288.87   29.75
   1  -2  -6  301.68   29.77
   1  -2  -6  345.90   29.74
   1   2  -6  290.11   29.71
   1   2  -6  294.91   29.71
  -1  -2   6  281.90   29.71
  -1   2   7    3.29    0.57
  -1   2   7    2.03    0.51
   1   2  -7    3.76    0.52
   1   2  -7    2.43    0.43
  -1  -2   7    3.66    0.50
  -1  -2   7    3.07    0.48
  -1   2   8  152.77   14.48
  -1   2   8  133.12   14.41
   1   2  -8  151.61   14.43
   1   2  -8  144.64   14.38
  -1  -2   8  141.13   14.39
  -1   2   9  106.04   10.65
  -1   2   9  106.99   10.59
   1  -2  -9  104.20   10.66
   1   2  -9  106.37   10.61
   1   2  -9  100.87   10.54
  -1  -2   9  109.05   10.60
  -1  -2   9  105.30   10.56
  -1   2  10  166.08   16.83
  -1   2  10  185.42   16.77
   1  -2 -10  164.33   16.85
   1   2 -10  167.45   16.79
   1   2 -10  160.12   16.71
  -1  -2  10  151.84   16.76
  -1  -2  10  180.50   16.74
  -1   2  11    5.59    0.75
   1  -2 -11    4.70    0.83
   1   2 -11    5.57    0.78
   1   2 -11    4.69    0.65
  -1  -2  11    5.53    0.77
  -1  -2  11    6.11    0.70
  -1   2  12    1.48    0.60
  -1   2  12    2.31    0.50
   1  -2 -12    1.40    0.61
   1   2 -12    1.37    0.50
   1   2 -12    1.45    0.36
  -1  -2  12    1.41    0.49
  -1   2  13    9.73    1.26
  -1   2  13    8.90    1.12
   1  -2 -13   11.14    1.31
   1   2 -13   10.94    1.21
   1   2 -13    8.14    1.05
  -1  -2  13   10.50    1.19
  -1  -2  13    9.98    1.09
  -1   2  14  249.57   22.65
  -1   2  14  210.02   22.50
   1  -2 -14  233.99   22.75
   1   2 -14  236.09   22.60
   1   2 -14  208.91   22.48
  -1  -2  14  234.23   22.57
  -1  -2  14  226.72   22.49
  -1   2  15    2.80    0.78
  -1   2  15    2.55    0.56
   1   2 -15    2.43    0.64
   1   2 -15    2.23    0.42
  -1  -2  15    2.67    0.61
  -1  -2  15    2.30    0.48
  -1   2  16   53.10    5.13
  -1   2  16   53.35    5.13
  -1   2  16   43.79    4.97
  -1  -2  16   52.70    5.06
  -1  -2  16   46.32    4.95
  -1   2  17    9.79    1.45
  -1   2  17   11.61    1.51
   1   2 -17   12.13    1.44
  -1  -2  17   11.93    1.41
  -1  -2  17   11.02    1.26
  -1   2  18   89.40    7.42
  -1   2  18   66.77    7.20
   1   2 -18   87.35    7.40
  -1  -2  18   90.17    7.35
  -1  -2  18   57.55    7.14
  -1   2  19    0.97    0.73
  -1   2  19    0.99    0.77
  -1   2  19    0.77    0.53
   1  -2 -19    0.52    0.36
   1   2 -19    0.66    0.64
  -1   2  20    1.25    0.78
  -1   2  20    1.55    0.79
  -1  -2  20    1.54    0.76
  -1   2  21    1.35    0.82
  -1   2  21    2.03    0.82
  -1  -2  21    0.68    0.78
  -1   3   1   60.45    8.18
  -1   3   1  108.74    8.22
   1   3  -1   82.88    8.18
  -1  -3   1   75.86    8.18
  -1  -3   1  111.69    8.30
  -1   3   2  102.18   10.55
   1  -3  -2  104.04   10.55
   1  -3  -2   98.41   10.53
   1   3  -2  110.41   10.48
   1   3  -2  101.88   10.57
  -1  -3   2  106.67   10.48
  -1  -3   2  103.17   10.54
  -1   3   3  380.25   36.58
  -1   3   3  485.30   36.65
   1  -3  -3  394.21   36.66
   1   3  -3  334.88   36.52
   1   3  -3  375.23   36.68
  -1  -3   3  334.79   36.52
  -1  -3   3  392.48   36.60
  -1   3   4  446.59   45.26
  -1   3   4  503.45   45.30
   1  -3  -4  450.79   45.33
   1   3  -4  450.61   45.22
  -1  -3   4  438.99   45.21
  -1  -3   4  457.78   45.27
  -1   3   5    5.20    0.72
  -1   3   5    3.94    0.72
   1   3  -5    5.32    0.64
  -1  -3   5    6.17    0.65
  -1  -3   5    5.08    0.67
  -1   3   6   56.16    5.77
  -1   3   6   57.48    5.75
   1   3  -6   55.63    5.71
  -1   3   7    1.00    0.46
  -1   3   7    0.69    0.45
   1  -3  -7    1.04    0.44
  -1  -3   7    1.08    0.35
  -1   3   8  142.33   14.43
  -1   3   8  159.02   14.40
   1  -3  -8  142.97   14.46
   1   3  -8  142.21   14.36
  -1  -3   8  129.71   14.35
  -1  -3   8  149.87   14.36
  -1   3   9  483.57   47.95
   1  -3  -9  476.74   48.11
   1   3  -9  478.94   47.94
  -1  -3   9  469.41   47.92
  -1  -3   9  496.64   47.93
  -1   3  10  310.53   31.10
  -1   3  10  295.33   31.03
   1  -3 -10  319.10   31.21
   1   3 -10  306.43   31.04
  -1  -3  10  320.07   31.03
  -1  -3  10  318.61   31.03
  -1   3  11  162.60   17.29
   1  -3 -11  175.92   17.46
   1   3 -11  176.10   17.31
  -1  -3  11  179.10   17.30
  -1  -3  11  171.35   17.27
  -1   3  12    5.36    0.92
  -1   3  12    6.01    0.82
   1  -3 -12    5.58    0.96
   1   3 -12    5.26    0.80
  -1  -3  12    6.09    0.80
  -1   3  13   15.12    1.75
  -1   3  13   12.05    1.59
   1   3 -13   15.18    1.64
  -1  -3  13   16.81    1.64
  -1  -3  13   13.58    1.56
  -1   3  14   66.01    6.02
  -1   3  14   58.49    6.00
  -1   3  14   47.97    5.88
   1   3 -14   60.58    5.95
  -1  -3  14   62.44    5.93
  -1  -3  14   56.81    5.87
  -1   3  15  139.18   13.41
  -1   3  15  137.53   13.40
  -1   3  15  118.48   13.26
   1   3 -15  135.77   13.33
  -1  -3  15  136.76   13.30
  -1  -3  15  131.03   13.23
  -1   3  16   76.72    6.39
  -1   3  16   68.42    6.36
  -1   3  16   48.86    6.18
   1   3 -16   63.70    6.27
  -1  -3  16   69.06    6.26
  -1  -3  16   55.05    6.16
  -1   3  17   28.56    2.99
  -1   3  17   27.68    3.01
  -1   3  17   25.00    2.85
   1   3 -17   27.24    2.91
  -1  -3  17   26.46    2.88
  -1   3  18    0.49    0.76
  -1   3  18   -0.25    0.57
  -1  -3  18    0.04    0.53
  -1  -3  18   -0.05    0.40
  -1  -3  18    0.02    0.47
  -1   3  19    1.74    0.79
  -1   3  19    2.81    0.89
  -1   3  19    3.88    0.72
  -1  -3  19    2.50    0.68
  -1  -3  19    2.31    0.50
  -1   3  20    6.92    1.11
  -1  -3  20    4.43    0.88
  -1   3  21   46.80    5.14
  -1  -3  21   49.77    5.17
  -1   4   1  126.71   12.66
  -1   4   1  132.74   12.69
  -1   4   1  143.73   12.77
   1   4  -1  123.89   12.66
  -1  -4   1  120.20   12.65
  -1  -4   1  126.38   12.78
  -1   4   2  687.49   75.60
  -1   4   2  802.59   75.65
  -1   4   2  914.18   75.73
   1   4  -2  752.93   75.56
  -1  -4   2  724.63   75.55
  -1  -4   2  812.44   75.81
  -1   4   3  860.05  100.45
  -1   4   3  947.37  100.41
  -1   4   3 1282.17  100.59
   1   4  -3 1046.48  100.37
  -1  -4   3  977.57  100.34
  -1  -4   3 1088.30  100.59
  -1   4   4  427.86   52.36
  -1   4   4  536.98   52.34
  -1   4   4  610.04   52.41
   1   4  -4  535.65   52.28
  -1  -4   4  508.63   52.27
  -1  -4   4  547.40   52.38
  -1   4   5   18.09    1.87
  -1   4   5   16.49    1.89
  -1   4   5   15.94    1.91
   1   4  -5   17.66    1.84
  -1  -4   5   19.19    1.85
  -1  -4   5   16.66    1.87
  -1   4   6   14.49    1.63
  -1   4   7  304.27   29.33
   1   4  -7  292.94   29.25
  -1  -4   7  290.04   29.25
  -1  -4   7  290.41   29.28
  -1   4   8  121.27   12.40
  -1   4   8  126.49   12.39
   1   4  -8  123.56   12.32
  -1  -4   8  120.40   12.34
  -1   4   9  136.80   17.27
  -1   4   9  171.82   17.31
  -1   4   9  191.07   17.30
   1   4  -9  177.20   17.23
  -1  -4   9  178.84   17.24
  -1   4  10   99.33   11.61
  -1   4  10  109.17   11.65
  -1   4  10  123.26   11.63
   1   4 -10  120.68   11.58
  -1  -4  10  115.06   11.56
  -1  -4  10  118.42   11.57
  -1   4  11  258.66   25.57
  -1   4  11  254.80   25.54
  -1   4  11  239.72   25.48
   1   4 -11  255.61   25.45
  -1  -4  11  258.84   25.44
  -1  -4  11  259.83   25.45
  -1   4  12   69.86    8.18
  -1   4  12   81.56    8.25
  -1   4  12   88.18    8.20
   1   4 -12   83.23    8.17
  -1  -4  12   79.18    8.14
  -1   4  13    1.86    0.73
   1   4 -13    1.50    0.49
  -1  -4  13    1.21    0.48
  -1  -4  13    1.42    0.45
  -1   4  14   15.27    2.09
  -1   4  14   19.21    2.20
  -1   4  14   20.57    2.10
   1   4 -14   17.66    2.05
  -1  -4  14   19.15    2.05
  -1  -4  14   19.88    2.03
  -1   4  15    1.20    0.76
  -1   4  15    0.87    0.60
   1   4 -15    0.87    0.51
  -1  -4  15    0.33    0.47
  -1  -4  15    0.67    0.46
  -1   4  16    9.28    1.31
  -1   4  16    7.58    1.13
   1   4 -16    8.56    1.11
  -1  -4  16    8.40    1.08
  -1  -4  16    7.92    1.02
  -1   4  17    0.80    0.70
  -1   4  17    1.54    0.82
  -1   4  17    0.83    0.65
   1   4 -17    1.18    0.57
  -1  -4  17    1.05    0.55
  -1   4  18    0.32    0.67
   1   4 -18    0.70    0.59
  -1  -4  18    0.91    0.55
  -1  -4  18    0.71    0.45
  -1   4  19   26.24    2.29
  -1   4  19   22.59    2.27
  -1   4  19   15.23    2.04
   1   4 -19   19.68    2.09
  -1  -4  19   22.68    2.08
  -1  -4  19   13.36    1.91
  -1   4  20   14.11    1.81
  -1   4  20   12.90    1.80
  -1   5   1  162.64   17.65
  -1   5   1  215.34   17.76
  -1   5   1  263.65   17.88
   1   5  -1  172.75   17.65
  -1  -5   1  161.62   17.65
  -1  -5   1  207.21   17.92
  -1   5   2    2.06    0.34
  -1   5   2    0.83    0.38
  -1   5   2    3.65    0.63
   1   5  -2    2.09    0.35
  -1  -5   2    1.92    0.34
  -1  -5   2    1.15    0.47
  -1   5   3  137.83   14.88
  -1   5   3  122.46   14.89
  -1   5   3  212.83   15.06
   1   5  -3  155.31   14.85
  -1  -5   3  144.43   14.85
  -1  -5   3  176.07   15.01
  -1   5   4  143.67   16.02
  -1   5   4  198.49   16.15
  -1  -5   4  156.29   15.98
  -1  -5   4  170.39   16.11
  -1   5   5   20.25    2.53
  -1   5   5   25.64    2.60
  -1   5   5   30.94    2.67
  -1  -5   5   25.41    2.59
  -1   5   6  162.46   17.86
  -1   5   6  180.48   17.91
  -1   5   6  206.26   17.96
  -1  -5   6  176.75   17.81
  -1   5   7   19.31    2.32
   1   5  -7   21.94    2.26
  -1  -5   7   23.19    2.26
  -1  -5   7   20.74    2.30
  -1   5   8  284.53   31.00
  -1   5   8  311.15   31.03
  -1   5   8  352.02   31.06
   1   5  -8  302.02   30.93
  -1  -5   8  307.02   30.92
  -1  -5   8  321.16   30.99
  -1   5   9  127.06   13.17
  -1   5   9  155.84   13.22
   1   5  -9  123.52   13.07
  -1  -5   9  125.43   13.06
  -1  -5   9  134.01   13.12
  -1   5  10   39.24    4.06
   1   5 -10   38.59    3.96
  -1  -5  10   36.00    3.94
  -1  -5  10   40.44    3.99
  -1   5  11    2.69    0.68
  -1   5  11    4.07    0.86
   1   5 -11    3.79    0.61
  -1  -5  11    4.52    0.65
  -1   5  12  127.54   13.09
   1   5 -12  130.87   13.03
  -1   5  13   74.46    7.78
   1   5 -13   76.53    7.67
  -1  -5  13   80.37    7.66
  -1  -5  13   69.66    7.65
  -1   5  14   95.30    9.81
  -1   5  14   93.19    9.85
  -1   5  14   92.72    9.80
   1   5 -14   95.42    9.75
  -1  -5  14  101.87    9.73
  -1  -5  14   95.75    9.73
  -1   5  15  126.39   12.98
  -1   5  15  129.47   13.03
  -1   5  15  127.87   12.97
   1   5 -15  127.74   12.91
  -1  -5  15  127.78   12.88
  -1  -5  15  127.86   12.89
  -1   5  16   95.69    9.21
  -1   5  16   84.45    9.16
   1   5 -16   91.12    9.13
  -1  -5  16   87.68    9.09
  -1  -5  16   89.85    9.09
  -1   5  17   97.38    8.87
  -1   5  17   84.24    8.86
  -1   5  17   72.27    8.75
   1   5 -17   84.96    8.75
  -1  -5  17   91.97    8.74
  -1   5  18   52.72    5.09
   1   5 -18   47.95    4.93
  -1  -5  18   52.34    4.92
  -1  -5  18   40.42    4.85
  -1   5  19    1.34    0.78
  -1   5  19    0.71    0.87
  -1   5  19    0.87    0.87
   1   5 -19    1.02    0.59
  -1  -5  19    0.86    0.55
  -1  -5  19    0.55    0.51
  -1   5  20    9.93    1.29
  -1   5  20   10.25    1.36
  -1  -5  20    5.15    0.88
  -1   6   3   93.34    8.89
  -1   6   3   82.73    8.91
  -1  -6   3   87.87    8.85
  -1   6   4  325.24   26.15
  -1   6   4  154.26   26.08
  -1   6   4  347.00   26.31
  -1  -6   4  330.51   26.09
  -1   6   5  554.20   60.16
  -1   6   5  658.24   60.25
  -1   6   5  745.78   60.36
  -1  -6   5  574.42   60.10
  -1   6   6    9.08    1.22
  -1   6   6    9.06    1.26
  -1   6   6   13.07    1.43
  -1  -6   6   12.00    1.18
  -1   6   7    0.32    0.56
  -1  -6   7    0.90    0.33
  -1   6   8   26.59    2.98
  -1   6   8   27.90    3.05
  -1   6   8   29.25    3.09
  -1  -6   8   29.42    2.94
  -1   6   9   32.39    3.48
  -1   6   9   32.43    3.54
  -1   6   9   32.29    3.55
  -1  -6   9   34.55    3.43
  -1   6  10   20.31    2.52
  -1   6  10   23.91    2.62
  -1   6  10   25.50    2.63
   1   6 -10   25.39    2.49
  -1  -6  10   23.10    2.46
  -1   6  11   14.01    1.81
  -1   6  11   16.78    1.93
  -1   6  11   19.86    1.95
   1   6 -11   14.84    1.74
  -1  -6  11   14.83    1.73
  -1  -6  11   19.46    1.84
  -1   6  12   31.41    3.50
  -1   6  12   34.79    3.61
  -1   6  12   37.99    3.60
   1   6 -12   31.76    3.44
  -1  -6  12   32.15    3.43
  -1   6  13   86.37    8.95
   1   6 -13   86.85    8.82
  -1  -6  13   83.90    8.80
  -1  -6  13   91.71    8.86
  -1   6  14    6.60    0.85
  -1   6  14    2.09    0.89
   1   6 -14    3.08    0.63
  -1  -6  14    3.23    0.75
  -1   6  15   14.31    1.71
  -1   6  15   13.81    1.81
  -1   6  15   14.67    1.78
   1   6 -15   13.09    1.58
  -1  -6  15   13.74    1.64
  -1   6  16   29.23    3.12
  -1   6  16   28.30    3.20
  -1   6  16   26.18    3.12
   1   6 -16   28.29    3.01
  -1  -6  16   28.59    2.99
  -1   6  17   39.49    4.24
  -1   6  17   43.09    4.34
  -1   6  17   41.33    4.27
   1   6 -17   37.49    4.13
  -1  -6  17   38.65    4.11
  -1   6  18  137.64   14.40
   1   6 -18  135.98   14.26
  -1  -6  18  147.47   14.23
  -1   6  19    4.87    1.01
  -1   6  19    3.20    1.08
  -1   6  19    3.71    1.06
  -1  -6  19    3.03    0.71
  -1   7   1  294.68   29.77
  -1   7   1  356.07   30.05
   1   7  -1  291.47   29.78
  -1  -7   1  296.92   29.77
  -1   7   2 1603.92  168.63
  -1   7   2 1805.89  169.10
  -1   7   2 2060.18  169.26
   1   7  -2 1710.38  168.63
  -1  -7   2 1654.69  168.61
  -1  -7   2 1797.56  169.82
  -1   7   3   16.62    1.49
  -1   7   3   11.39    1.49
  -1   7   3   11.83    1.68
  -1  -7   3   13.69    1.44
  -1  -7   3   11.84    1.60
  -1   7   4   37.44    3.99
  -1   7   4   41.18    4.06
  -1   7   4   38.01    4.14
   1   7  -4   39.27    3.97
  -1  -7   4   39.23    3.96
  -1  -7   4   37.42    4.09
  -1   7   5   43.30    4.30
  -1   7   5   42.19    4.35
  -1   7   5   41.05    4.42
   1   7  -5   42.72    4.25
  -1  -7   5   41.00    4.23
  -1  -7   5   38.43    4.36
  -1   7   6  103.72   10.61
  -1   7   6  106.84   10.69
  -1   7   6  112.00   10.76
   1   7  -6  106.95   10.55
  -1  -7   6  102.06   10.54
  -1   7   7  117.08   11.21
   1   7  -7  109.91   11.06
  -1  -7   7  104.05   11.05
  -1  -7   7  121.81   11.21
  -1   7   8  126.49   11.87
  -1   7   8  118.57   11.93
  -1   7   8  109.33   11.95
   1   7  -8  114.54   11.78
  -1  -7   8  117.91   11.78
  -1  -7   8  118.94   11.91
  -1   7   9  509.10   51.27
  -1   7   9  511.08   51.33
  -1   7   9  553.55   51.42
   1   7  -9  503.83   51.18
  -1  -7   9  506.76   51.18
  -1  -7   9  530.45   51.31
  -1   7  10    1.59    0.56
  -1   7  10    0.96    0.69
  -1   7  10    2.47    0.83
   1   7 -10    1.95    0.45
  -1  -7  10    1.93    0.43
  -1  -7  10    2.47    0.68
  -1   7  11    5.91    0.75
  -1   7  11    2.60    0.81
  -1   7  11    1.85    0.86
  -1  -7  11    3.12    0.53
  -1  -7  11    2.25    0.72
  -1   7  12    8.01    1.03
  -1   7  12    4.82    1.14
  -1  -7  12    7.08    0.87
  -1  -7  13  153.78   15.52
  -1  -7  13  156.46   15.61
  -1   7  14    6.31    0.89
  -1   7  14    3.24    0.94
  -1   7  14    1.99    0.98
   1   7 -14    3.34    0.65
  -1  -7  14    4.54    0.65
  -1  -7  14    3.14    0.79
  -1   7  15   35.27    3.54
  -1   7  15   34.02    3.63
  -1   7  15   31.63    3.59
   1   7 -15   30.28    3.41
  -1  -7  15   33.10    3.41
  -1  -7  15   32.27    3.48
  -1   7  16   25.84    2.52
  -1   7  16   22.18    2.58
  -1   7  16   18.35    2.52
   1   7 -16   19.92    2.33
  -1  -7  16   22.35    2.33
  -1  -7  16   21.13    2.40
  -1   7  17    3.17    0.86
  -1   7  17    4.02    1.08
  -1   7  17    2.29    1.05
   1   7 -17    2.50    0.63
  -1   7  18   33.53    3.48
   1   7 -18   29.12    3.20
  -1  -7  18   29.46    3.24
  -1   7  19    9.82    1.43
  -1   7  19    9.17    1.55
  -1  -7  19    8.99    1.31
  -1   8   1    9.90    1.05
  -1   8   1    9.08    1.37
   1   8  -1    9.40    1.06
  -1  -8   1    8.51    1.04
  -1   8   2    2.12    0.52
  -1   8   2    5.46    0.69
  -1   8   2   10.43    1.10
   1   8  -2    3.01    0.51
  -1  -8   2    2.41    0.49
  -1  -8   2    6.65    0.89
  -1   8   3   57.12    5.93
  -1   8   3   60.08    6.00
  -1   8   3   54.46    6.10
  -1  -8   3   60.57    5.90
  -1  -8   3   56.49    6.06
  -1   8   4   12.91    1.74
  -1   8   4   23.58    1.91
   1   8  -4   17.14    1.73
  -1  -8   4   14.36    1.70
  -1  -8   4   22.40    1.98
  -1   8   5   75.24    7.22
  -1   8   5   61.69    7.33
   1   8  -5   70.77    7.15
  -1  -8   5   73.59    7.15
  -1  -8   5   66.53    7.30
  -1   8   6  265.68   28.41
  -1   8   6  299.88   28.52
  -1   8   6  329.21   28.66
   1   8  -6  295.72   28.37
  -1  -8   6  272.08   28.35
  -1   8   7   32.21    3.47
   1   8  -7   33.24    3.34
  -1  -8   7   31.19    3.32
  -1  -8   7   33.83    3.48
  -1   8   8   15.72    1.51
  -1   8   8   12.37    1.57
  -1   8   8   11.19    1.65
   1   8  -8   11.42    1.37
  -1  -8   8   13.32    1.38
  -1  -8   8   12.16    1.57
  -1   8   9  257.59   23.55
  -1   8   9  229.05   23.60
  -1   8   9  214.19   23.63
   1   8  -9  228.92   23.44
  -1  -8   9  242.46   23.44
  -1  -8   9  228.82   23.57
  -1   8  10  383.43   37.51
  -1   8  10  391.49   37.67
   1   8 -10  367.47   37.41
  -1  -8  10  364.57   37.40
  -1  -8  10  395.74   37.56
  -1   8  11  130.47   12.08
  -1   8  11  118.56   12.15
  -1   8  11  111.24   12.16
   1   8 -11  118.57   11.96
  -1  -8  11  117.78   11.94
  -1  -8  11  117.31   12.07
  -1   8  12   22.47    2.45
  -1   8  12   26.37    2.60
  -1   8  12   26.51    2.63
   1   8 -12   19.40    2.32
  -1  -8  12   21.51    2.32
  -1   8  13   10.24    1.45
  -1   8  13    9.80    1.49
   1   8 -13    8.44    1.13
  -1  -8  13   10.04    1.12
  -1  -8  13   10.48    1.32
  -1   8  14   33.63    2.85
  -1   8  14   24.11    2.88
  -1   8  14   18.69    2.84
   1   8 -14   23.68    2.65
  -1  -8  14   27.35    2.66
  -1  -8  14   22.71    2.75
  -1   8  15    2.09    0.75
  -1   8  15    1.91    0.92
  -1   8  15    2.63    1.04
  -1  -8  15    1.81    0.50
  -1  -8  15    1.84    0.77
  -1   8  16    6.51    1.06
  -1   8  16    6.04    1.19
  -1   8  16    5.01    1.26
  -1  -8  16    5.09    0.79
  -1  -8  16    5.66    1.02
  -1   8  17   35.39    3.34
  -1   8  17   29.34    3.40
  -1   8  17   23.29    3.32
  -1  -8  17   29.86    3.12
  -1   8  18   12.26    1.76
  -1   8  18   11.27    1.73
  -1  -8  18   11.04    1.51
  -1   9   1   11.26    1.37
  -1   9   1   20.76    1.54
   1   9  -1   13.03    1.40
  -1  -9   1   10.68    1.37
  -1   9   2  311.08   31.58
  -1   9   2  339.02   31.72
  -1   9   2  353.66   31.93
  -1  -9   2  307.16   31.56
  -1  -9   2  317.29   31.90
  -1   9   3   56.66    5.63
  -1   9   3   53.55    5.68
  -1   9   3   51.10    5.80
   1   9  -3   57.50    5.60
  -1  -9   3   56.60    5.59
  -1  -9   3   48.99    5.74
  -1   9   4   55.06    5.73
  -1   9   4   52.68    5.78
  -1   9   4   46.03    5.87
   1   9  -4   60.06    5.69
  -1  -9   4   60.57    5.68
  -1  -9   4   51.17    5.84
  -1   9   5  120.41   12.46
  -1   9   5  124.73   12.55
  -1   9   5  128.01   12.68
   1   9  -5  125.83   12.41
  -1  -9   5  121.98   12.39
  -1  -9   5  127.51   12.61
  -1   9   6   47.30    4.89
  -1   9   6   46.28    4.96
  -1   9   6   40.43    5.02
   1   9  -6   48.57    4.83
  -1  -9   6   49.39    4.82
   1   9  -7    8.32    0.95
  -1  -9   7    7.79    0.93
  -1  -9   7    9.85    1.24
  -1   9   8  106.28   10.15
  -1   9   8  102.89   10.32
   1   9  -8   97.41   10.05
  -1  -9   8   99.15   10.04
  -1  -9   8   98.89   10.23
  -1   9   9    1.79    0.54
  -1   9   9    1.38    0.72
  -1   9   9    0.42    0.89
   1   9  -9    0.87    0.37
  -1  -9   9    1.49    0.36
  -1  -9   9    1.05    0.74
  -1   9  10   32.43    3.28
  -1   9  10   31.02    3.38
  -1   9  10   31.83    3.44
   1   9 -10   29.83    3.17
  -1  -9  10   29.53    3.15
  -1  -9  10   31.29    3.34
  -1   9  11    0.33    0.56
  -1   9  11    0.16    0.72
  -1   9  11   -0.23    0.91
   1   9 -11    0.13    0.37
  -1  -9  11    0.16    0.35
  -1  -9  11    0.06    0.69
  -1   9  12   19.55    2.06
  -1   9  12   19.00    2.19
  -1   9  12   18.77    2.25
   1   9 -12   16.95    1.90
  -1  -9  12   16.93    1.89
  -1   9  13   69.48    7.21
  -1   9  13   60.45    7.19
   1   9 -13   66.04    6.99
  -1  -9  13   73.76    6.98
  -1  -9  13   69.72    7.12
  -1   9  14    6.66    0.95
  -1   9  14    3.51    1.06
  -1   9  14    3.32    1.18
   1   9 -14    3.98    0.68
  -1  -9  14    5.05    0.67
  -1  -9  14    3.38    0.94
  -1   9  15   48.33    4.68
  -1   9  15   45.22    4.78
  -1   9  15   41.11    4.77
   1   9 -15   41.01    4.52
  -1  -9  15   44.54    4.51
  -1  -9  15   44.06    4.65
  -1   9  16    9.92    1.17
  -1   9  16    7.58    1.30
  -1   9  16    3.53    1.30
   1   9 -16    5.75    0.84
  -1  -9  16    5.72    0.82
  -1  -9  16    5.23    1.08
  -1   9  17    2.93    0.88
  -1   9  17    2.21    1.17
  -1  10   1    0.85    0.36
  -1  10   1    0.74    0.51
  -1  10   1    0.46    0.85
   1  10  -1    0.67    0.39
  -1 -10   1    0.99    0.37
  -1 -10   1    0.35    0.71
  -1  10   2   88.07    8.50
  -1  10   2   78.45    8.55
  -1  10   2   69.79    8.68
  -1 -10   2   90.57    8.48
  -1 -10   2   80.17    8.69
  -1  10   3   13.46    1.63
  -1  10   3   18.41    1.76
  -1  10   3   24.87    2.09
   1  10  -3   14.61    1.61
  -1 -10   3   12.59    1.59
  -1 -10   3   19.31    1.91
  -1  10   4   20.57    2.24
  -1  10   4   17.79    2.30
  -1  10   4   16.81    2.46
   1  10  -4   22.48    2.21
  -1 -10   4   22.60    2.20
  -1 -10   4   21.36    2.43
  -1  10   5    4.43    0.74
  -1  10   5   10.93    1.30
   1  10  -5    5.44    0.68
  -1 -10   5    4.27    0.65
  -1 -10   5    7.69    1.07
  -1  10   6   90.23    8.98
  -1  10   6   99.63    9.24
   1  10  -6   90.29    8.90
  -1 -10   6   84.09    8.88
  -1  10   7   11.41    1.42
   1  10  -7   10.87    1.18
  -1 -10   7    9.96    1.16
  -1 -10   7   10.77    1.47
  -1  10   8   44.82    4.62
  -1  10   8   44.32    4.71
  -1  10   8   40.88    4.79
   1  10  -8   44.61    4.53
  -1 -10   8   44.92    4.52
  -1 -10   8   44.52    4.73
  -1  10   9   24.87    2.02
  -1  10   9   17.86    2.09
  -1  10   9   14.38    2.16
   1  10  -9   14.58    1.82
  -1 -10   9   18.22    1.83
  -1 -10   9   16.13    2.08
  -1  10  10   45.88    4.00
  -1  10  10   33.13    4.03
  -1  10  10   27.26    4.05
   1  10 -10   37.19    3.85
  -1 -10  10   40.19    3.84
  -1 -10  10   35.29    4.02
  -1  10  11    4.77    0.87
  -1  10  11    5.37    1.07
  -1  10  11    6.81    1.28
   1  10 -11    4.90    0.67
  -1 -10  11    4.07    0.63
  -1 -10  11    5.45    1.03
  -1  10  12   38.78    3.84
  -1  10  12   38.10    3.98
  -1  10  12   34.46    4.00
   1  10 -12   33.43    3.70
  -1 -10  12   36.36    3.69
  -1  10  13   -0.46    0.85
  -1  10  13   -0.19    1.03
   1  10 -13    0.30    0.39
  -1 -10  13    0.31    0.37
  -1 -10  13    0.75    0.81
  -1  10  14    4.36    0.94
  -1  10  14    7.25    1.36
   1  10 -14    4.86    0.71
  -1 -10  14    4.84    0.69
  -1 -10  14    5.41    1.07
  -1  10  15   15.01    1.49
  -1  10  15    7.67    1.65
   1  10 -15    8.26    1.17
  -1 -10  15   10.91    1.17
  -1 -10  15    9.52    1.46
  -1  10  16    5.86    1.10
  -1  10  16    6.22    1.29
  -1  10  16    6.27    1.43
  -1 -10  16    6.40    1.15
  -1  11   1  260.68   25.88
  -1  11   1  278.38   26.45
   1  11  -1  259.84   25.89
  -1 -11   1  253.74   25.88
  -1 -11   1  264.15   26.24
  -1  11   2    0.07    0.36
  -1  11   2    1.67    0.96
  -1 -11   2    0.11    0.35
  -1 -11   2    0.02    0.75
  -1  11   3    5.36    0.74
  -1  11   3    3.70    0.84
  -1  11   3    2.76    1.11
   1  11  -3    5.41    0.70
  -1 -11   3    6.15    0.69
  -1 -11   3    4.33    1.03
  -1  11   4   26.14    2.73
  -1  11   4   24.99    2.81
  -1  11   4   22.19    2.97
   1  11  -4   25.37    2.68
  -1 -11   4   27.82    2.68
  -1 -11   4   23.71    2.90
  -1  11   5   25.75    2.56
  -1  11   5   19.62    2.61
  -1  11   5   14.37    2.71
   1  11  -5   24.91    2.49
  -1 -11   5   28.39    2.50
  -1 -11   5   20.49    2.70
  -1  11   6   12.75    1.54
  -1  11   6   15.68    1.71
  -1  11   6   17.29    1.94
   1  11  -6   13.66    1.47
  -1 -11   6   12.43    1.45
  -1  11   7   10.66    1.47
   1  11  -7   11.70    1.31
  -1 -11   7   12.45    1.30
  -1 -11   7   12.00    1.63
  -1  11   8    0.48    0.49
  -1  11   8    0.24    0.71
  -1  11   8    0.23    0.94
   1  11  -8    0.27    0.35
  -1 -11   8    0.19    0.33
  -1 -11   8    0.03    0.78
  -1  11   9   80.82    7.47
  -1  11   9   75.30    7.58
  -1  11   9   70.17    7.66
   1  11  -9   70.08    7.33
  -1 -11   9   70.32    7.32
  -1 -11   9   76.61    7.58
  -1  11  10    2.93    0.68
  -1  11  10    1.17    0.83
  -1  11  10    0.41    1.05
   1  11 -10    1.37    0.42
  -1 -11  10    2.12    0.41
  -1 -11  10    1.40    0.87
  -1  11  11   13.24    1.48
  -1  11  11   12.86    1.67
  -1  11  11   14.52    1.84
   1  11 -11   10.67    1.27
  -1 -11  11   10.44    1.26
  -1 -11  11   13.54    1.64
  -1  11  12   50.15    4.85
  -1  11  12   46.17    4.98
  -1  11  12   43.15    5.03
   1  11 -12   43.82    4.70
  -1 -11  12   46.43    4.68
  -1  11  13    0.72    1.11
   1  11 -13    0.93    0.41
  -1 -11  13    1.26    0.40
  -1 -11  13    1.23    0.88
  -1  11  14    2.58    0.79
  -1  11  14    2.86    1.05
   1  11 -14    2.52    0.52
  -1 -11  14    2.52    0.49
  -1 -11  14    3.45    0.99
  -1  11  15    9.29    1.19
  -1  11  15    6.14    1.34
  -1 -11  15    5.43    1.23
  -1  12   1    3.73    0.58
  -1  12   1    3.23    0.71
   1  12  -1    3.31    0.58
  -1 -12   1    3.08    0.56
  -1 -12   1    2.56    0.95
  -1  12   2   59.35    6.18
  -1  12   2   62.21    6.27
  -1 -12   2   61.36    6.17
  -1 -12   2   60.00    6.41
  -1  12   3   49.79    4.91
  -1  12   3   37.59    4.94
   1  12  -3   49.12    4.88
  -1 -12   3   53.47    4.88
  -1 -12   3   43.05    5.08
  -1  12   4  149.08   14.53
  -1  12   4  156.32   14.65
  -1  12   4  147.57   14.94
   1  12  -4  141.05   14.47
  -1 -12   4  137.47   14.46
  -1 -12   4  155.07   14.79
  -1  12   5    6.93    0.85
  -1  12   5    3.96    0.96
  -1  12   5    1.89    1.20
   1  12  -5    5.49    0.74
  -1 -12   5    7.03    0.74
  -1 -12   5    3.36    1.09
  -1  12   6   43.45    4.25
  -1  12   6   37.89    4.33
  -1  12   6   33.58    4.46
   1  12  -6   39.89    4.17
  -1 -12   6   42.78    4.16
  -1  12   7    3.59    0.83
  -1  12   7    3.21    1.16
   1  12  -7    2.97    0.51
  -1 -12   7    2.43    0.47
  -1 -12   7    3.81    0.99
  -1  12   8    2.52    0.64
  -1  12   8    2.45    0.87
  -1  12   8    2.92    1.13
   1  12  -8    2.37    0.47
  -1 -12   8    2.31    0.44
  -1 -12   8    3.26    0.97
  -1  12   9    3.02    0.66
  -1  12   9    3.42    0.93
  -1  12   9    3.02    1.15
   1  12  -9    2.34    0.48
  -1 -12   9    2.42    0.46
  -1 -12   9    2.28    0.96
  -1  12  10   53.98    4.92
  -1  12  10   45.58    5.04
  -1  12  10   41.14    5.11
   1  12 -10   45.51    4.77
  -1 -12  10   46.11    5.02
  -1  12  11   19.18    1.74
  -1  12  11   10.75    1.98
   1  12 -11   12.07    1.48
  -1 -12  11   16.12    1.89
  -1  12  12   35.11    3.68
  -1  12  12   39.83    3.90
  -1  12  12   35.88    3.97
   1  12 -12   31.99    3.52
  -1  12  13   29.92    3.25
   1  12 -13   25.77    2.85
  -1 -12  13   27.52    2.84
  -1 -12  13   30.47    3.17
  -1  12  14    5.77    0.99
  -1  12  14    4.07    1.21
  -1 -12  14    5.39    1.19
  -1  13   1   11.64    1.55
  -1 -13   1   14.06    1.46
  -1 -13   1   12.47    1.79
  -1  13   2    4.91    0.68
  -1  13   2    2.88    0.80
   1  13  -2    4.04    0.66
  -1 -13   2    4.56    0.64
  -1 -13   2    2.87    1.05
  -1  13   3   33.84    3.39
  -1  13   3   33.34    3.50
   1  13  -3   31.41    3.36
  -1 -13   3   31.91    3.35
  -1 -13   3   31.53    3.63
  -1  13   4    0.49    0.46
  -1  13   4    0.59    0.69
   1  13  -4    0.88    0.41
  -1 -13   4    0.49    0.37
  -1 -13   4    0.06    0.88
  -1  13   5    4.40    0.73
  -1  13   5    3.36    0.91
   1  13  -5    4.94    0.67
  -1 -13   5    4.48    0.63
  -1 -13   5    4.85    1.14
  -1  13   6    2.58    0.62
  -1  13   6    2.86    0.87
   1  13  -6    3.04    0.51
  -1 -13   6    2.51    0.48
  -1  13   7   26.04    2.96
   1  13  -7   27.03    2.71
  -1 -13   7   24.57    2.68
  -1 -13   7   27.66    3.04
  -1  13   8  107.14    9.02
   1  13  -8   80.53    8.86
  -1 -13   8   87.97    9.16
  -1  13   9    9.41    1.13
   1  13  -9    8.65    0.94
  -1 -13   9    6.67    0.91
  -1 -13   9   10.04    1.45
  -1  13  10    8.51    1.05
  -1  13  10    8.21    1.30
   1  13 -10    5.93    0.78
  -1 -13  10    5.65    0.76
  -1 -13  10    8.17    1.32
  -1  13  11    2.51    0.71
  -1  13  11    2.00    0.97
   1  13 -11    1.29    0.40
  -1 -13  11    1.24    0.38
  -1 -13  11    1.73    0.99
  -1  13  12   35.74    3.40
  -1  13  12   30.01    3.58
  -1 -13  12   29.82    3.20
  -1  13  13    2.46    1.08
  -1 -13  13    2.13    1.03
  -1  14   1    1.59    0.67
  -1 -14   1    1.79    0.47
  -1 -14   1    1.68    0.98
  -1  14   2    2.29    0.58
  -1  14   2    2.89    0.77
   1  14  -2    3.39    0.58
  -1 -14   2    2.55    0.52
  -1 -14   2    2.30    1.05
  -1  14   3    0.13    0.44
  -1  14   3    0.08    0.67
   1  14  -3    0.16    0.41
  -1 -14   3    0.04    0.38
  -1 -14   3    0.28    0.93
  -1  14   4    0.09    0.45
  -1  14   4   -0.01    0.69
   1  14  -4   -0.29    0.40
  -1 -14   4   -0.02    0.37
  -1 -14   4    0.15    0.93
  -1  14   5    0.89    0.50
   1  14  -5    1.41    0.45
  -1 -14   5    1.14    0.39
  -1 -14   5    1.31    0.97
  -1  14   6    1.83    0.56
   1  14  -6    1.16    0.43
  -1 -14   6    1.36    0.39
  -1  14   7    0.56    0.81
   1  14  -7    0.34    0.38
  -1 -14   7    0.43    0.94
  -1  14   8   30.84    2.99
  -1  14   8   25.13    3.15
   1  14  -8   25.65    2.86
  -1 -14   8   28.85    2.86
  -1 -14   8   27.13    3.22
  -1  14   9    6.92    0.98
  -1  14   9    8.71    1.19
   1  14  -9    6.33    0.80
  -1 -14   9    5.68    0.77
  -1 -14   9    8.51    1.38
  -1  14  10    3.88    0.76
  -1  14  10    2.37    1.01
  -1 -14  10    2.50    0.45
  -1 -14  10    1.98    1.06
  -1  14  11   12.60    1.54
  -1  14  11   11.56    1.80
  -1 -14  11   11.53    1.78
  -1  15   1    3.88    0.64
  -1  15   1    2.38    0.76
  -1 -15   1    3.70    0.60
  -1 -15   1    3.22    1.12
  -1  15   2    0.24    0.47
   1  15  -2    0.40    0.44
  -1 -15   2    0.20    0.39
  -1 -15   2    0.72    0.99
  -1  15   3   -0.12    0.48
   1  15  -3    0.10    0.42
  -1 -15   3    0.02    0.38
  -1 -15   3    0.23    0.97
  -1  15   4    0.38    0.49
  -1  15   4    0.96    0.75
   1  15  -4    0.41    0.43
  -1 -15   4    0.45    0.39
  -1 -15   4    1.26    1.01
  -1  15   5   31.10    3.22
  -1  15   5   27.02    3.36
   1  15  -5   29.27    3.15
  -1 -15   5   33.14    3.15
  -1 -15   5   27.53    3.47
  -1  15   6   16.50    1.99
  -1  15   6   19.27    2.24
   1  15  -6   18.08    1.92
  -1 -15   6   19.38    2.36
  -1  15   7   26.61    3.06
   1  15  -7   25.65    2.74
  -1 -15   7   27.05    2.73
  -1 -15   7   25.43    3.11
  -1  15   8   24.50    2.85
  -1 -15   8   22.86    2.88
  -1  16   1    1.73    0.70
  -1 -16   1    0.42    1.02
  -1  16   2   28.29    3.13
  -1 -16   2   28.40    3.35
  -1  16   3    1.54    0.79
  -1 -16   3    1.12    1.06
  -1  16   4    1.30    0.81
  -1 -16   4    1.76    1.07
  -1  16   5    0.11    0.80
  -1 -16   5    0.16    0.99
   0   0   2   17.86    1.68
   0   0  -2   14.13    1.70
   0   0   3    0.11    0.22
   0   0   3    0.20    0.14
   0   0  -3    0.21    0.21
   0   0  -3    0.74    0.14
   0   0   4 1606.23  164.44
   0   0   4 1825.24  164.56
   0   0  -4 1596.65  164.49
   0   0  -4 1659.61  164.51
   0   0   5   -0.02    0.32
   0   0   5   -0.01    0.20
   0   0  -5   -0.19    0.32
   0   0  -5    0.01    0.19
   0   0   6  351.22   35.71
   0   0   6  385.68   35.67
   0   0  -6  340.96   35.72
   0   0  -6  353.14   35.65
   0   0   7    0.00    0.36
   0   0   7    0.03    0.23
   0   0  -7    0.00    0.35
   0   0   8 1434.73  149.94
   0   0   8 1660.80  149.99
   0   0  -8 1417.13  150.03
   0   0  -8 1550.70  149.95
   0   0   9    0.25    0.26
   0   0  -9    0.04    0.23
   0   0  10  554.67   55.95
   0   0  10  591.15   55.87
   0   0 -10  544.74   56.02
   0   0 -10  547.25   55.85
   0   0  11    0.06    0.48
   0   0  11   -0.08    0.27
   0   0 -11    0.17    0.48
   0   0 -11    0.02    0.23
   0   0  12   78.54    8.46
   0   0  12   87.50    8.34
   0   0 -12   76.55    8.49
   0   0  13    0.38    0.51
   0   0  13   -0.09    0.26
   0   0 -13   -0.04    0.22
   0   0  14  655.70   49.79
   0   0  14  457.01   49.57
   0   0 -14  475.10   49.57
   0   0  15    0.06    0.52
   0   0  15    0.18    0.55
   0   0  15    0.00    0.20
   0   0 -15    0.00    0.14
   0   0  16  527.26   52.75
   0   0  17   -0.27    0.59
   0   0  17    0.21    0.59
   0   0  18    1.46    0.67
   0   0  19   -0.40    0.67
   0   0  19   -0.05    0.63
   0   0  20   85.78    8.00
   0   0  20   70.43    7.87
   0   0  21    0.20    0.73
   0   0  21   -0.22    0.68
   0   1   1  435.65   51.18
   0   1   1  679.80   51.27
   0   1  -1  521.78   51.17
   0  -1   1  517.35   51.16
   0   1   2  233.25   31.04
   0   1   2  309.41   31.06
   0   1   2  360.81   31.03
   0  -1  -2  331.71   31.01
   0   1  -2  313.56   30.99
   0  -1   2  304.50   30.99
   0  -1   2  310.95   31.04
   0   1   3  432.00   44.50
   0   1   3  479.90   44.48
   0  -1  -3  433.99   44.60
   0  -1  -3  473.40   44.49
   0   1  -3  443.48   44.46
   0   1  -3  428.33   44.52
   0  -1   3  438.91   44.46
   0  -1   3  436.94   44.47
   0   1   4   90.70    9.41
   0   1   4  101.53    9.37
   0  -1  -4   93.82    9.43
   0  -1  -4  103.04    9.37
   0   1  -4   89.28    9.38
   0   1  -4   86.95    9.35
   0  -1   4   91.91    9.35
   0   1   5 4931.57  506.29
   0   1   5 5672.72  506.57
   0  -1  -5 4789.64  506.98
   0  -1  -5 5679.61  506.54
   0   1  -5 4795.32  506.20
   0   1  -5 4869.67  506.41
   0  -1   5 5090.17  506.18
   0  -1   5 5226.97  506.38
   0   1   6   61.67    6.28
   0  -1  -6   61.58    6.30
   0  -1  -6   59.48    6.20
   0   1  -6   66.41    6.27
   0   1  -6   58.89    6.19
   0  -1   6   70.33    6.27
   0  -1   6   61.16    6.19
   0   1   7    1.82    0.44
   0   1   7    0.31    0.31
   0  -1  -7    1.19    0.42
   0   1  -7    1.79    0.40
   0   1  -7    1.07    0.24
   0  -1   7    1.97    0.41
   0  -1   7    1.01    0.28
   0   1   8  806.55   83.17
   0   1   8  850.46   83.13
   0  -1  -8  790.25   83.34
   0  -1  -8  886.75   83.17
   0   1  -8  814.73   83.18
   0   1  -8  793.73   83.10
   0  -1   8  861.51   83.15
   0  -1   8  869.71   83.13
   0   1   9  839.01   81.91
   0   1   9  809.02   81.84
   0  -1  -9  804.82   82.13
   0  -1  -9  864.14   81.87
   0   1  -9  810.76   81.92
   0   1  -9  778.23   81.83
   0  -1   9  823.41   81.87
   0  -1   9  864.73   81.88
   0   1  10  639.30   66.84
   0   1  10  689.46   66.77
   0  -1 -10  699.97   66.78
   0   1 -10  653.43   66.86
   0   1 -10  629.15   66.75
   0  -1  10  649.45   66.80
   0  -1  10  740.85   66.78
   0   1  11  897.01   88.13
   0   1  11  875.21   88.04
   0  -1 -11  900.10   88.06
   0   1 -11  871.73   88.17
   0   1 -11  796.42   88.05
   0  -1  11  919.55   88.09
   0  -1  11  932.09   88.07
   0   1  12    6.22    0.81
   0   1  12    3.44    0.57
   0   1 -12    5.82    0.77
   0  -1  12    6.72    0.77
   0  -1  12    3.84    0.54
   0   1  13   30.04    3.96
   0   1  13   38.51    4.01
   0   1  13   42.47    3.90
   0  -1 -13   38.67    3.86
   0   1 -13   38.43    4.00
   0  -1  13   34.22    3.96
   0  -1  13   39.53    3.86
   0   1  14    8.00    0.97
   0   1  14    6.30    0.75
   0  -1 -14    6.48    0.72
   0   1 -14    8.35    0.98
   0  -1  14    8.15    0.95
   0  -1  14    5.09    0.70
   0   1  15    6.88    0.88
   0   1  15    5.42    0.88
   0   1  15    4.15    0.61
   0  -1 -15    4.32    0.57
   0  -1  15    6.05    0.84
   0   1  16   56.20    4.28
   0   1  16   50.07    4.23
   0  -1 -16   31.32    3.95
   0  -1  16   56.02    4.28
   0  -1  16   51.64    4.20
   0   1  17    5.60    0.92
   0   1  17    4.47    0.90
   0  -1  17    4.78    0.88
   0  -1  17    4.32    0.83
   0   1  18   13.11    1.85
   0  -1  18   18.27    1.91
   0   1  19   97.61    9.92
   0   1  19   95.89    9.88
   0  -1  19  100.95    9.92
   0  -1  19   92.74    9.84
   0   1  20   16.33    2.10
   0   1  20   18.57    2.10
   0  -1  20   17.01    2.09
   0  -1  20   17.20    2.02
   0   1  21    2.27    0.86
   0   1  21    2.27    0.83
   0  -1  21    1.91    0.83
   0  -1  21    1.71    0.72
   0   2   0  658.76   67.84
   0   2   0  736.46   68.11
   0  -2   0  688.39   67.85
   0  -2   0  716.02   67.99
   0   2   1  146.90   16.27
   0   2   1  278.11   16.43
   0  -2   1  153.36   16.25
   0  -2   1  286.97   16.50
   0   2   2  521.40   62.23
   0   2   2  894.62   62.41
   0  -2  -2  509.09   62.29
   0  -2  -2  856.55   62.37
   0  -2   2  621.53   62.22
   0  -2   2  846.06   63.36
   0   2   3  264.04   31.04
   0   2   3  319.62   31.14
   0   2   3  362.94   31.08
   0  -2  -3  348.45   31.06
   0   2  -3  308.58   31.01
   0  -2   3  301.68   31.01
   0  -2   3  315.30   31.12
   0   2   4 4068.23  513.90
   0   2   4 5089.06  513.94
   0   2   4 6017.09  514.02
   0  -2  -4 5760.93  513.86
   0   2  -4 5243.79  513.43
   0  -2   4 5019.32  513.40
   0  -2   4 5131.58  513.96
   0   2   5   20.84    2.07
   0   2   5   18.86    2.08
   0   2   5   21.40    2.08
   0  -2  -5   19.13    2.05
   0   2  -5   19.48    2.06
   0  -2   5   19.47    2.06
   0  -2   5   18.89    2.04
   0   2   6  543.92   54.25
   0  -2  -6  582.93   54.21
   0   2  -6  545.07   54.20
   0  -2   6  516.29   54.18
   0   2   7  303.70   39.54
   0   2   7  386.90   39.53
   0   2   7  438.58   39.51
   0  -2  -7  442.32   39.50
   0   2  -7  383.19   39.48
   0  -2   7  403.55   39.47
   0   2   8   76.00   10.56
   0   2   8  100.22   10.60
   0   2   8  121.70   10.56
   0  -2  -8  124.38   10.54
   0   2  -8  101.24   10.56
   0  -2   8   99.11   10.55
   0  -2   8  107.05   10.51
   0   2   9   16.02    3.02
   0   2   9   27.04    3.10
   0   2   9   43.92    3.11
   0  -2  -9   40.08    3.07
   0   2  -9   27.23    3.07
   0  -2   9   25.92    3.05
   0  -2   9   35.19    3.04
   0   2  10    3.27    0.52
   0   2  10    0.11    0.38
   0  -2 -10    0.35    0.37
   0   2 -10    1.00    0.44
   0  -2  10    1.77    0.46
   0  -2  10    0.75    0.31
   0   2  11   20.09    2.08
   0   2  11   21.06    2.13
   0   2  11   17.60    1.99
   0  -2 -11   17.67    1.97
   0   2 -11   18.58    2.04
   0  -2  11   20.68    2.05
   0  -2  11   18.53    1.97
   0   2  12    6.43    0.80
   0  -2 -12    5.10    0.64
   0   2 -12    4.64    0.74
   0  -2  12    4.75    0.73
   0  -2  12    4.31    0.59
   0   2  13   75.59    8.26
   0   2  13   85.03    8.17
   0  -2 -13   81.60    8.13
   0   2 -13   76.70    8.23
   0  -2  13   76.20    8.22
   0  -2  13   84.03    8.12
   0   2  14   14.30    1.80
   0   2  14   16.01    1.85
   0   2  14   18.19    1.72
   0  -2 -14   15.88    1.67
   0   2 -14   15.22    1.79
   0  -2  14   14.11    1.76
   0  -2  14   15.32    1.66
   0   2  15    0.95    0.64
   0   2  15    3.22    0.77
   0   2  15    4.70    0.59
   0  -2 -15    3.51    0.49
   0   2 -15    2.56    0.67
   0  -2  15    2.57    0.64
   0   2  16   23.98    2.26
   0   2  16   21.98    2.26
   0   2  16   15.37    2.03
   0   2 -16   19.84    2.19
   0  -2  16   20.97    2.16
   0   2  17    0.10    0.61
   0   2  17    0.11    0.71
   0  -2 -17    0.01    0.29
   0  -2  17    0.01    0.56
   0  -2  17    0.41    0.54
   0   2  18   22.99    2.69
   0  -2  18   24.33    2.66
   0  -2  18   23.55    2.60
   0   2  19    6.29    1.08
   0   2  19    6.37    1.11
   0  -2  19    6.42    1.05
   0  -2  19    5.61    0.95
   0   2  20   19.93    2.35
   0   2  20   18.95    2.31
   0  -2  20   19.94    2.32
   0   2  21   99.94    9.82
   0   2  21   85.44    9.71
   0  -2  21  102.08    9.80
   0   3   0    0.07    0.18
   0   3   0   -0.05    0.40
   0  -3   0    0.04    0.18
   0  -3   0   -0.16    0.37
   0   3   1 1362.04  143.43
   0   3   1 2024.57  144.19
   0  -3   1 1372.90  143.41
   0  -3   1 1975.42  144.11
   0   3   2  428.87   45.52
   0   3   2  545.24   45.68
   0  -3  -2  427.28   45.54
   0  -3  -2  514.49   45.59
   0  -3   2  440.40   45.49
   0  -3   2  553.55   45.78
   0   3   3  154.64   16.44
   0   3   3  184.26   16.51
   0  -3  -3  152.32   16.48
   0  -3  -3  171.75   16.48
   0  -3   3  163.22   16.41
   0  -3   3  181.74   16.58
   0   3   4  698.90   91.41
   0   3   4  989.76   91.72
   0   3   4 1268.55   91.66
   0  -3  -4 1168.93   91.53
   0  -3   4  896.38   91.39
   0  -3   4  992.47   91.74
   0   3   5  139.84   14.95
   0   3   5  150.07   14.99
   0   3   5  159.78   14.98
   0  -3   5  149.49   14.90
   0  -3   5  150.28   14.95
   0   3   6  247.70   29.68
   0   3   6  315.84   29.74
   0   3  -6  315.23   29.65
   0  -3   6  303.16   29.64
   0  -3   6  304.05   29.67
   0   3   7    5.30    0.98
   0   3   7    9.16    1.08
   0   3   7   12.17    1.08
   0  -3   7   10.80    1.00
   0   3   8   25.78    3.28
   0   3   8   31.41    3.34
   0   3   8   37.80    3.33
   0   3  -8   31.33    3.28
   0  -3   8   34.08    3.28
   0   3   9   18.03    1.50
   0   3   9    8.97    1.39
   0   3  -9   13.96    1.42
   0  -3   9   12.36    1.37
   0   3  10  165.28   19.96
   0   3  10  221.05   19.96
   0   3 -10  201.47   19.95
   0  -3  10  194.11   19.93
   0  -3  10  212.10   19.91
   0   3  11   72.67    6.01
   0   3  11   59.07    6.00
   0   3  11   47.17    5.89
   0   3 -11   57.41    5.93
   0  -3  11   62.56    5.93
   0  -3  11   57.47    5.87
   0   3  12   32.81    3.68
   0   3  12   33.94    3.72
   0   3 -12   34.92    3.66
   0  -3  12   35.32    3.65
   0  -3  12   36.73    3.60
   0   3  13   75.42    7.88
   0   3  13   76.18    7.80
   0   3 -13   78.91    7.83
   0  -3  13   78.44    7.81
   0  -3  13   80.17    7.74
   0  -3  13   70.35    7.76
   0   3  14   -0.01    0.51
   0   3  14    0.15    0.66
   0   3  14    0.37    0.50
   0   3 -14    0.48    0.47
   0  -3  14    0.37    0.45
   0  -3  14    0.19    0.33
   0  -3  14    0.10    0.39
   0   3  15   20.24    2.18
   0   3  15   21.30    2.25
   0   3  15   19.63    2.08
   0   3 -15   20.04    2.13
   0  -3  15   20.20    2.11
   0  -3  15   19.08    2.01
   0  -3  15   16.35    2.00
   0   3  16  132.57   11.13
   0   3  16  129.28   11.14
   0   3  16  112.19   10.99
   0   3 -16  128.48   11.10
   0  -3  16  126.93   11.01
   0  -3  16   86.71   10.84
   0   3  17    0.21    0.62
   0   3  17    0.90    0.76
   0  -3  17    1.03    0.53
   0  -3  17    0.13    0.23
   0   3  18  157.31   14.12
   0  -3 -18  121.01   13.84
   0  -3  18  163.60   14.13
   0  -3  18  154.01   14.01
   0   3  19   24.25    2.67
   0   3  19   22.57    2.67
   0  -3  19   26.35    2.65
   0  -3  19   20.71    2.52
   0   3  20    2.16    0.82
   0   3  20    0.48    0.80
   0  -3 -20    0.03    0.19
   0  -3  20    1.59    0.73
   0  -3  20    0.46    0.57
   0   3  21   15.48    1.98
   0  -3  21   15.13    1.92
   0   4   0  450.99   45.29
   0   4   0  632.17   45.84
   0  -4   0  442.53   45.29
   0   4   1  442.47   45.88
   0   4   1  770.91   46.42
   0  -4   1  450.79   45.86
   0   4   2  529.66   55.37
   0   4   2  815.65   55.76
   0  -4  -2  528.26   55.39
   0  -4   2  561.69   55.34
   0   4   3  648.81   71.49
   0   4   3  953.48   71.83
   0  -4  -3  639.56   71.58
   0   4  -3  785.09   71.47
   0  -4   3  712.51   71.46
   0   4   4   44.36    5.39
   0   4   4   68.90    5.53
   0   4  -4   54.57    5.36
   0  -4   4   53.25    5.35
   0  -4   4   55.93    5.48
   0   4   5  177.90   21.61
   0   4   5  227.93   21.72
   0   4   5  270.11   21.74
   0   4  -5  225.92   21.58
   0  -4   5  213.46   21.57
   0  -4   5  227.04   21.69
   0   4   6   45.36    4.28
   0   4   6   37.87    4.29
   0  -4   6   43.55    4.21
   0  -4   6   37.99    4.26
   0   4   7  245.06   26.07
   0   4   7  266.28   26.11
   0  -4   7  269.76   26.02
   0  -4   7  259.18   26.06
   0   4   8   98.76   10.17
   0   4   8   97.38   10.20
   0   4   8   97.53   10.18
   0   4  -8  104.44   10.12
   0  -4   8  102.92   10.11
   0  -4   8  100.17   10.13
   0   4   9    1.09    0.44
   0   4   9    0.17    0.48
   0   4   9    0.29    0.51
   0   4  -9    0.52    0.36
   0  -4   9    0.40    0.36
   0  -4   9    0.59    0.42
   0   4  10   55.27    7.22
   0   4  10   68.84    7.30
   0   4  10   91.50    7.32
   0   4 -10   72.28    7.22
   0  -4  10   69.98    7.20
   0  -4  10   77.10    7.21
   0   4  11    3.04    0.57
   0   4  11    1.68    0.58
   0   4 -11    2.13    0.49
   0  -4  11    1.88    0.44
   0   4  12   32.26    4.49
   0   4  12   45.06    4.61
   0   4 -12   47.08    4.52
   0  -4  12   51.16    4.49
   0   4  13  187.85   18.88
   0   4  13  192.53   18.82
   0   4 -13  186.70   18.78
   0  -4  13  183.10   18.75
   0  -4  13  188.12   18.73
   0   4  14   86.67    8.17
   0   4  14   79.12    8.19
   0   4  14   72.29    8.09
   0   4 -14   81.49    8.11
   0  -4  14   83.32    8.09
   0  -4  14   76.60    8.03
   0   4  15  156.86   15.46
   0   4  15  155.69   15.48
   0   4  15  148.02   15.40
   0   4 -15  150.38   15.39
   0  -4  15  159.93   15.36
   0  -4  15  147.74   15.30
   0   4  16   53.60    4.55
   0   4  16   44.22    4.54
   0   4  16   35.16    4.39
   0   4 -16   43.47    4.44
   0  -4  16   47.00    4.42
   0  -4  16   38.15    4.33
   0   4  17    0.93    0.69
   0   4  17    2.07    0.85
   0   4 -17    1.76    0.61
   0  -4  17    1.31    0.54
   0  -4  17    1.05    0.41
   0  -4  17    1.37    0.43
   0   4  18    0.95    0.84
   0  -4  18    1.70    0.65
   0  -4  18    0.76    0.53
   0  -4  18   -0.05    0.36
   0  -4  18   -0.12    0.36
   0   4  19  163.58   16.76
   0  -4  19  168.28   16.73
   0  -4  19  164.08   16.62
   0   4  20  103.68    8.68
   0   4  20   90.15    8.62
   0  -4 -20   65.74    8.34
   0  -4  20  106.26    8.63
   0   5   0    0.14    0.23
   0   5   0    0.22    0.51
   0  -5   0    0.15    0.21
   0   5   1  168.03   16.80
   0  -5   1  168.73   16.79
   0   5   2  270.33   28.58
   0   5   2  381.92   28.87
   0  -5  -2  275.06   28.59
   0   5  -2  301.25   28.56
   0  -5   2  280.41   28.55
   0   5   3   38.38    4.46
   0   5   3   64.48    4.69
   0  -5  -3   38.39    4.46
   0   5  -3   47.61    4.42
   0  -5   3   43.38    4.42
   0   5   4  103.30   11.81
   0  -5  -4   96.89   11.83
   0   5  -4  139.34   11.78
   0  -5   4  117.76   11.76
   0   5   5   81.07    8.27
   0   5   5   84.12    8.36
   0  -5   5   81.18    8.32
   0   5   6   22.00    2.82
   0   5   6   24.69    2.88
   0   5  -6   29.62    2.81
   0  -5   6   29.98    2.80
   0  -5   6   28.55    2.88
   0   5   7    0.45    0.34
   0   5   7    0.47    0.46
   0   5   7    1.01    0.52
   0   5  -7    0.36    0.30
   0  -5   7    0.41    0.29
   0  -5   7    0.67    0.38
   0   5   8    8.70    1.35
   0   5   8   11.92    1.45
   0   5   8   15.00    1.48
   0  -5   8   13.59    1.34
   0  -5   8   13.50    1.41
   0   5   9  134.47   14.74
   0   5   9  146.21   14.80
   0   5   9  160.03   14.82
   0  -5   9  146.48   14.67
   0  -5   9  151.09   14.73
   0   5  10  152.68   15.82
   0   5  10  154.05   15.87
   0   5  10  152.92   15.85
   0  -5  10  165.49   15.74
   0  -5  10  155.39   15.78
   0   5  11   61.38    6.52
   0   5  11   68.08    6.52
   0   5 -11   62.02    6.42
   0  -5  11   63.78    6.41
   0  -5  11   61.41    6.42
   0   5  12   23.01    2.44
   0   5  12   19.75    2.34
   0   5 -12   21.13    2.26
   0  -5  12   21.35    2.26
   0   5  13    0.94    0.74
   0   5  13    0.57    0.64
   0   5 -13    1.32    0.45
   0  -5  13    0.69    0.42
   0   5  14  148.18   14.15
   0   5  14  139.48   14.18
   0   5  14  132.77   14.13
   0   5 -14  141.50   14.06
   0  -5  14  136.98   14.02
   0   5  15   21.93    2.32
   0   5  15   20.34    2.38
   0   5  15   17.65    2.25
   0   5 -15   20.27    2.20
   0  -5  15   21.21    2.19
   0  -5  15   19.50    2.16
   0   5  16   21.23    1.78
   0   5  16   14.70    1.76
   0   5  16    9.70    1.58
   0   5 -16   11.79    1.52
   0  -5  16   15.55    1.53
   0  -5  16   11.13    1.45
   0   5  17    7.57    1.20
   0   5 -17    7.53    1.06
   0  -5  17    7.56    1.02
   0  -5  17    7.92    0.98
   0   5  18   15.07    1.73
   0  -5  18   13.09    1.42
   0  -5  18   10.09    1.32
   0   5  19   66.13    5.92
   0   5  19   61.22    5.92
   0  -5  19   61.04    5.82
   0  -5  19   60.47    5.74
   0  -5  19   45.46    5.63
   0   5  20   27.37    2.92
   0   5  20   20.98    2.87
   0  -5  20   26.18    2.80
   0   6   0   19.34    1.35
   0  -6   0    7.60    0.97
   0   6   1  361.07   30.95
   0  -6   1  299.75   30.54
   0  -6  -2   18.07    1.91
   0   6  -4  121.44   11.26
   0  -6   4  105.75   11.25
   0   6   5  441.36   45.83
   0   6   5  493.88   46.09
   0   6  -5  472.33   45.77
   0  -6   5  450.81   45.77
   0  -6   5  483.60   46.16
   0   6   6  334.53   36.42
   0   6   6  378.76   36.55
   0   6  -6  375.37   36.36
   0  -6   6  365.98   36.36
   0  -6   6  390.23   36.58
   0   6   7    2.67    0.60
   0   6   7    3.52    0.74
   0   6   7    4.34    0.85
   0   6  -7    3.67    0.49
   0  -6   7    3.49    0.48
   0  -6   7    3.77    0.62
   0   6   8  287.96   30.54
   0   6   8  309.00   30.62
   0   6   8  365.64   30.74
   0   6  -8  307.05   30.47
   0  -6   8  299.20   30.47
   0  -6   8  308.45   30.59
   0   6   9   14.89    1.64
   0   6   9   16.64    1.74
   0   6   9   19.73    1.80
   0   6  -9   13.29    1.54
   0  -6   9   13.31    1.53
   0  -6   9   13.64    1.62
   0   6  10    0.88    0.54
   0   6  10    0.87    0.64
   0   6  10    1.14    0.72
   0   6 -10    1.59    0.38
   0  -6  10    1.38    0.37
   0  -6  10    1.21    0.50
   0   6  11   54.10    5.70
   0   6  11   53.41    5.76
   0   6  11   57.85    5.77
   0  -6  11   56.55    5.62
   0  -6  11   53.75    5.67
   0   6  12   90.22    9.40
   0   6  12   96.90    9.47
   0  -6  12   91.56    9.30
   0   6  13  114.23   11.99
   0  -6  13  121.49   11.83
   0  -6  13  114.97   11.86
   0   6  14   51.23    6.08
   0   6  14   59.81    6.18
   0   6  14   68.07    6.20
   0   6 -14   60.87    6.04
   0  -6  14   56.02    6.00
   0  -6  14   61.69    6.05
   0   6  15   25.55    2.45
   0   6  15   19.28    2.42
   0   6 -15   21.08    2.28
   0  -6  15   22.16    2.27
   0  -6  15   18.65    2.27
   0   6  16    8.13    1.15
   0   6  16    7.25    1.25
   0   6 -16    6.42    0.94
   0  -6  16    7.09    0.93
   0  -6  16    6.22    0.93
   0   6  17   59.85    5.63
   0   6  17   55.07    5.66
   0   6 -17   51.13    5.49
   0  -6  17   49.94    5.45
   0   6  18    1.22    0.93
   0   6 -18    1.34    0.59
   0  -6  18    1.33    0.55
   0   6  19   38.24    3.57
   0   6  19   36.24    3.62
   0  -6  19   36.44    3.44
   0  -6  19   25.55    3.28
   0   7   0    0.20    0.31
   0  -7   0    0.37    0.31
   0   7   1  436.36   44.61
   0   7   1  579.07   45.43
   0  -7   1  448.82   44.60
   0   7   2  167.24   17.09
   0   7   2  212.97   17.44
   0  -7  -2  158.12   17.09
   0   7  -2  181.58   17.07
   0  -7   2  168.06   17.05
   0   7   3   60.13    6.40
   0   7   3   74.65    6.63
   0  -7  -3   57.80    6.39
   0   7  -3   67.87    6.35
   0  -7   3   61.65    6.34
   0   7   4   37.14    4.30
   0  -7  -4   34.71    4.29
   0   7  -4   51.02    4.26
   0  -7   4   41.91    4.24
   0   7   5  196.40   19.79
   0   7   5  202.02   19.93
   0   7   5  200.53   19.96
   0   7  -5  206.47   19.71
   0  -7   5  190.38   19.70
   0  -7   5  193.41   19.96
   0   7   6   70.52    7.44
   0   7   6   78.75    7.54
   0   7   6   90.80    7.65
   0   7  -6   74.36    7.35
   0  -7   6   68.85    7.34
   0  -7   6   74.79    7.52
   0   7   7   68.27    8.00
   0   7   7   82.48    8.11
   0   7   7  103.81    8.25
   0   7  -7   81.45    7.93
   0  -7   7   74.70    7.92
   0  -7   7   87.81    8.11
   0   7   8  293.13   32.11
   0   7   8  336.34   32.22
   0   7   8  386.63   32.38
   0   7  -8  326.76   32.04
   0  -7   8  311.06   32.03
   0  -7   8  341.65   32.21
   0   7   9  190.93   17.61
   0   7   9  174.41   17.66
   0   7   9  156.84   17.67
   0   7  -9  175.15   17.49
   0  -7   9  177.29   17.48
   0  -7   9  167.27   17.60
   0   7  10  368.09   37.89
   0   7  10  390.63   37.98
   0   7  10  406.58   38.10
   0   7 -10  373.63   37.80
   0  -7  10  376.93   37.79
   0  -7  10  386.32   37.91
   0   7  11    0.79    0.56
   0   7  11    1.25    0.70
   0   7 -11    1.21    0.39
   0  -7  11    0.54    0.36
   0  -7  11    2.95    0.66
   0   7  12  123.70   13.42
   0   7  12  135.73   13.53
   0   7  12  152.20   13.60
   0   7 -12  132.04   13.34
   0  -7  12  132.48   13.32
   0   7 -13    6.37    0.86
   0  -7  13    7.43    0.86
   0  -7  13    5.99    0.99
   0   7  14   18.77    1.99
   0   7  14   15.28    2.05
   0   7  14   12.87    2.02
   0   7 -14   15.82    1.83
   0  -7  14   19.01    1.83
   0  -7  14   16.40    1.91
   0   7  15    6.74    1.09
   0   7  15    7.64    1.25
   0  -7  15    6.56    0.89
   0  -7  15    7.00    1.02
   0   7  16    0.07    0.68
   0   7  16    0.84    0.90
   0  -7  16    0.22    0.43
   0  -7  16    0.11    0.63
   0   7  17    2.28    0.83
   0   7  17    3.57    1.05
   0   7 -17    2.41    0.60
   0  -7  17    1.90    0.56
   0  -7  17    2.55    0.73
   0   7  18    9.93    1.49
   0   7 -18    7.65    1.10
   0  -7  18    8.50    1.07
   0   7  19    2.01    0.85
   0   7  19    0.65    0.98
   0  -7  19    0.36    0.55
   0   8   0  799.27   80.14
   0  -8   0  813.03   80.15
   0   8   1   18.03    1.95
   0  -8   1   18.76    1.94
   0   8   2  151.47   15.64
   0   8   2  183.29   16.05
   0  -8  -2  150.90   15.65
   0   8  -2  162.04   15.61
   0  -8   2  155.12   15.61
   0   8   3   39.74    4.28
   0   8   3   42.81    4.48
   0  -8  -3   38.78    4.28
   0   8  -3   42.65    4.24
   0  -8   3   43.88    4.24
   0   8   4  140.10   13.81
   0   8   4  165.77   14.12
   0  -8  -4  130.31   13.83
   0   8  -4  142.71   13.74
   0  -8   4  130.99   13.73
   0   8   5   20.72    2.49
   0   8   5   32.82    2.68
   0   8   5   36.89    2.83
   0   8  -5   24.27    2.44
   0  -8   5   20.53    2.42
   0  -8   5   25.81    2.64
   0   8   6   19.04    1.88
   0   8   6   15.14    1.94
   0   8   6   11.13    1.97
   0   8  -6   16.78    1.77
   0  -8   6   18.76    1.78
   0  -8   6   16.19    1.95
   0   8   7   42.61    4.89
   0   8   7   48.33    4.99
   0   8  -7   49.17    4.82
   0  -8   7   47.03    4.80
   0  -8   7   52.47    5.00
   0   8   8   68.07    6.62
   0   8   8   63.53    6.69
   0   8   8   69.93    6.77
   0   8  -8   65.65    6.51
   0  -8   8   61.78    6.49
   0  -8   8   64.14    6.67
   0   8   9   20.50    2.50
   0   8   9   25.84    2.63
   0   8   9   36.19    2.80
   0   8  -9   21.98    2.41
   0  -8   9   21.02    2.39
   0  -8   9   27.98    2.60
   0   8  10   81.12    8.06
   0   8  10   73.36    8.16
   0   8 -10   75.36    7.94
   0  -8  10   82.11    7.93
   0  -8  10   79.80    8.08
   0   8  11    1.56    0.61
   0   8  11    2.13    0.91
   0   8 -11    0.63    0.36
   0  -8  11    1.10    0.36
   0  -8  11    1.65    0.68
   0   8  12    3.90    0.83
   0   8  12    4.89    0.99
   0   8  12    5.45    1.10
   0   8 -12    4.52    0.65
   0  -8  12    4.55    0.63
   0   8 -13    3.41    0.58
   0  -8  13    3.11    0.55
   0  -8  13    5.53    0.87
   0   8  14   30.09    2.93
   0   8  14   25.02    2.99
   0   8 -14   24.92    2.76
   0  -8  14   26.49    2.75
   0  -8  14   25.49    2.87
   0   8  15   42.02    4.13
   0   8  15   37.92    4.21
   0   8 -15   36.46    3.98
   0  -8  15   39.07    3.97
   0  -8  15   37.37    4.06
   0   8  16   23.13    2.04
   0   8  16   14.84    2.06
   0   8 -16   13.43    1.74
   0  -8  16   16.80    1.74
   0  -8  16   14.25    1.86
   0   8  17   53.88    5.04
   0   8  17   46.41    5.09
   0   8 -17   42.22    4.84
   0  -8  17   48.26    4.84
   0   8  18    4.33    1.19
   0  -8  18    4.38    0.91
   0   9   0    0.21    0.35
   0  -9   0    0.23    0.33
   0   9   1  179.09   18.06
   0  -9   1  182.00   18.04
   0   9   2    3.50    0.56
   0  -9  -2    3.69    0.56
   0   9  -2    3.13    0.51
   0  -9   2    3.82    0.51
   0   9   3  110.07   11.02
   0  -9  -3  109.71   11.04
   0   9  -3  110.98   10.97
   0  -9   3  107.89   10.96
   0   9   4   11.16    1.27
   0   9   4   15.08    1.62
   0   9  -4   11.30    1.20
   0  -9   4   10.21    1.18
   0   9   5   19.80    2.21
   0   9   5   25.66    2.50
   0   9  -5   21.33    2.15
   0  -9   5   19.56    2.13
   0  -9   5   20.83    2.36
   0   9   6   29.40    3.31
   0   9   6   33.62    3.43
   0   9   6   37.98    3.58
   0   9  -6   31.57    3.24
   0  -9   6   30.63    3.22
   0  -9   6   34.36    3.46
   0   9   7    0.27    0.44
   0   9   7    0.90    0.65
   0   9  -7    0.37    0.28
   0  -9   7    0.58    0.27
   0  -9   7    1.25    0.67
   0   9   8   19.22    2.16
   0   9   8   23.11    2.40
   0   9  -8   20.08    2.06
   0  -9   8   18.46    2.03
   0  -9   8   21.14    2.28
   0   9   9    0.62    0.53
   0   9   9    0.27    0.67
   0   9   9    1.76    0.91
   0   9  -9    0.79    0.32
   0  -9   9    0.51    0.29
   0  -9   9    1.03    0.71
   0   9  10   43.70    4.48
   0   9  10   44.36    4.58
   0   9  10   38.07    4.61
   0   9 -10   42.66    4.37
   0  -9  10   43.59    4.35
   0  -9  10   41.78    4.53
   0   9  11  164.77   16.18
   0   9  11  168.61   16.29
   0   9  11  178.14   16.48
   0   9 -11  157.62   16.04
   0  -9  11  154.04   16.02
   0  -9  11  165.73   16.21
   0   9  12   55.62    5.85
   0   9  12   56.12    5.95
   0   9  12   61.96    6.06
   0   9 -12   57.69    5.74
   0  -9  12   54.51    5.71
   0   9  13  138.38   14.50
   0   9 -13  137.10   14.26
   0  -9  13  144.74   14.24
   0  -9  13  150.20   14.42
   0   9  14    5.36    0.95
   0   9  14    4.71    1.10
   0   9 -14    4.40    0.67
   0  -9  14    4.56    0.65
   0  -9  14    3.87    0.94
   0   9  15    0.17    0.70
   0   9  15   -0.45    0.88
   0   9 -15    0.09    0.41
   0  -9  15   -0.10    0.38
   0  -9  15   -0.40    0.74
   0   9  16    0.98    0.77
   0   9  16    0.65    0.92
   0   9 -16    0.56    0.44
   0  -9  16    0.71    0.42
   0  -9  16    1.11    0.76
   0   9  17   17.09    1.99
   0   9  17   13.95    2.10
   0  10   0  363.83   35.89
   0 -10   0  355.89   35.89
   0  10   1    3.36    0.55
   0 -10   1    3.31    0.52
   0  10   2    3.77    0.56
   0 -10  -2    3.28    0.54
   0  10  -2    3.19    0.51
   0 -10   2    2.71    0.48
   0  10   3  178.28   17.65
   0 -10  -3  176.59   17.68
   0  10  -3  174.57   17.59
   0 -10   3  176.22   17.59
   0  10   4    8.86    1.05
   0  10  -4    8.52    0.96
   0 -10   4    8.33    0.95
   0  10   5    3.40    0.62
   0  10  -5    3.26    0.49
   0 -10   5    3.82    0.48
   0 -10   5    2.17    0.84
   0  10   6   54.15    5.31
   0  10   6   51.55    5.40
   0  10  -6   52.69    5.21
   0 -10   6   49.09    5.19
   0 -10   6   53.22    5.44
   0  10   7   13.17    1.64
   0  10   7   19.67    1.85
   0  10  -7   15.29    1.54
   0 -10   7   12.52    1.51
   0 -10   7   20.57    1.90
   0  10   8   67.28    6.51
   0  10   8   63.01    6.60
   0  10  -8   60.89    6.37
   0 -10   8   62.83    6.36
   0 -10   8   68.53    6.63
   0  10   9   32.00    3.04
   0  10   9   29.71    3.14
   0  10  -9   26.69    2.89
   0 -10   9   26.55    2.87
   0 -10   9   31.07    3.14
   0  10  10   20.59    2.29
   0  10  10   24.98    2.47
   0  10 -10   20.55    2.15
   0 -10  10   18.46    2.13
   0 -10  10   24.97    2.43
   0  10  11    0.18    0.60
   0  10  11    0.14    0.77
   0  10 -11    0.02    0.32
   0 -10  11    0.08    0.31
   0 -10  11   -0.15    0.74
   0  10  12   16.07    1.51
   0  10  12   10.54    1.59
   0  10 -12    8.92    1.22
   0 -10  12   12.11    1.22
   0  10  13    0.95    0.68
   0  10  13    0.64    0.85
   0  10 -13    0.48    0.38
   0 -10  13    0.56    0.36
   0 -10  13    0.15    0.76
   0  10  14   43.48    4.47
   0  10  14   43.98    4.61
   0  10 -14   39.98    4.30
   0 -10  14   41.11    4.28
   0 -10  14   45.08    4.50
   0  10  15   12.91    1.37
   0  10  15    8.29    1.48
   0  10 -15    7.57    1.03
   0 -10  15    8.99    1.02
   0 -10  15    8.14    1.33
   0  10  16    5.61    1.00
   0 -10  16    2.87    0.96
   0  11   0    0.15    0.38
   0 -11   0    0.11    0.35
   0  11   1   99.69    9.84
   0 -11   1   95.89    9.81
   0  11   2    9.20    1.16
   0 -11  -2   10.03    1.16
   0  11  -2    9.90    1.13
   0 -11   2   10.52    1.12
   0  11   3    0.52    0.42
   0  11  -3    0.35    0.34
   0 -11   3    0.41    0.32
   0  11   4  313.72   30.76
   0  11   4  331.73   31.02
   0  11  -4  298.55   30.69
   0 -11   4  309.90   30.68
   0 -11   4  302.52   31.11
   0  11   5    3.28    0.62
   0  11   5    1.69    0.76
   0  11  -5    2.59    0.47
   0 -11   5    3.91    0.46
   0 -11   5    0.58    0.84
   0  11   6  117.90   10.90
   0  11  -6  105.24   10.78
   0 -11   6  105.44   10.77
   0 -11   6  110.29   11.07
   0  11   7    2.22    0.60
   0  11   7    3.30    0.83
   0  11  -7    2.39    0.42
   0 -11   7    3.31    0.91
   0  11   8    2.10    0.59
   0  11   8    1.10    0.78
   0  11  -8    1.43    0.35
   0 -11   8    1.60    0.84
   0  11   9   79.16    7.12
   0  11   9   76.63    7.24
   0  11  -9   69.28    6.95
   0 -11   9   63.46    6.93
   0 -11   9   75.39    7.23
   0  11  10   46.70    4.01
   0  11  10   35.93    4.08
   0  11 -10   31.93    3.81
   0 -11  10   40.30    3.80
   0 -11  10   36.85    4.06
   0  11  11    0.41    0.62
   0  11  11    1.15    0.86
   0  11 -11    0.56    0.33
   0 -11  11    0.12    0.31
   0 -11  11    1.97    0.87
   0  11  12   19.01    2.02
   0  11  12   19.82    2.22
   0  11 -12   15.61    1.80
   0 -11  12   17.07    1.79
   0  11  13    7.02    1.02
   0  11 -13    4.30    0.69
   0 -11  13    5.93    0.68
   0 -11  13    5.26    1.10
   0  11  14    5.34    0.92
   0  11 -14    2.23    0.52
   0 -11  14    3.64    0.51
   0 -11  14    3.68    0.99
   0  11  15    6.74    1.06
   0  11  15    4.91    1.21
   0  11 -15    4.70    0.69
   0 -11  15    4.81    0.66
   0 -11  15    5.61    1.12
   0 -12   0   25.71    2.69
   0  12   1   88.68    8.58
   0 -12  -1   83.54    8.57
   0  12  -1   84.31    8.55
   0 -12   1   82.96    8.54
   0  12   2    9.16    1.08
   0 -12  -2    9.49    1.06
   0  12  -2    8.53    1.02
   0 -12   2    8.27    1.01
   0  12   3   17.56    1.91
   0  12  -3   17.37    1.86
   0 -12   3   17.43    1.85
   0  12   4    1.64    0.50
   0  12   4    0.88    0.70
   0  12  -4    1.13    0.40
   0 -12   4    2.13    0.39
   0 -12   4    0.37    0.83
   0  12   5   56.61    5.94
   0  12   5   50.72    6.03
   0  12  -5   57.63    5.86
   0 -12   5   63.69    5.86
   0 -12   5   50.82    6.10
   0  12   6   12.31    1.52
   0  12   6   14.61    1.73
   0  12  -6   12.81    1.42
   0 -12   6   15.12    1.80
   0  12   7    7.39    0.99
   0  12   7    7.74    1.11
   0  12  -7    6.91    0.81
   0 -12   7    6.50    0.80
   0 -12   7    8.63    1.29
   0  12   8    2.93    0.63
   0  12   8    0.79    0.80
   0  12  -8    1.55    0.38
   0 -12   8    2.18    0.37
   0 -12   8    1.46    0.90
   0  12   9    8.86    1.09
   0  12   9    9.88    1.33
   0  12  -9    7.30    0.84
   0 -12   9    6.32    0.81
   0 -12   9    9.76    1.34
   0  12  10   -0.13    0.60
   0  12  10    0.73    0.85
   0 -12  10    0.00    0.28
   0 -12  10   -0.17    0.85
   0  12  11   14.32    1.55
   0 -12  11   11.12    1.28
   0 -12  11   13.88    1.72
   0  12  12   12.62    1.23
   0  12  12    7.10    1.34
   0  12 -12    5.63    0.83
   0 -12  12    7.81    0.84
   0  12  13    0.96    0.71
   0  12  13    1.22    0.94
   0  12 -13    0.40    0.34
   0 -12  13    0.65    0.33
   0 -12  13    0.87    0.91
   0  12  14    4.53    0.89
   0  12  14    4.22    1.14
   0  12 -14    2.94    0.51
   0 -12  14    2.92    0.49
   0 -12  14    3.94    1.04
   0 -13   0    0.11    0.37
   0  13   1   16.48    1.89
   0  13  -1   17.28    1.87
   0 -13   1   18.10    1.86
   0  13   2   86.13    8.89
   0  13  -2   88.42    8.85
   0 -13   2   88.54    8.85
   0  13   3    6.15    0.88
   0  13   3    6.05    1.07
   0  13  -3    6.74    0.82
   0 -13   3    6.46    0.79
   0 -13   3    6.64    1.24
   0  13   4    0.62    0.48
   0  13   4   -0.06    0.70
   0  13  -4    0.53    0.37
   0 -13   4    0.87    0.34
   0 -13   4    0.12    0.86
   0  13   5    0.62    0.49
   0  13   5    1.25    0.77
   0  13  -5    0.66    0.37
   0 -13   5    0.81    0.34
   0 -13   5    0.78    0.91
   0  13   6   -0.03    0.48
   0  13   6    0.14    0.73
   0  13  -6   -0.05    0.34
   0 -13   6    0.82    0.88
   0  13   7    0.52    0.53
   0  13   7    2.18    0.76
   0  13  -7    0.55    0.34
   0 -13   7    0.39    0.30
   0 -13   7    1.24    0.90
   0  13   8    0.19    0.54
   0 -13   8    0.11    0.27
   0 -13   8   -0.10    0.88
   0  13   9    1.22    0.65
   0  13  -9    1.01    0.33
   0 -13   9    1.03    0.30
   0 -13   9    2.12    0.98
   0  13  10   23.33    1.94
   0  13  10   17.20    2.10
   0  13 -10   13.20    1.65
   0 -13  10   16.03    1.65
   0 -13  10   17.98    2.10
   0  13  11   31.17    2.53
   0  13  11   28.20    2.76
   0  13 -11   19.53    2.26
   0 -13  11   20.09    2.23
   0 -13  11   28.58    2.71
   0  13  12    0.46    0.67
   0  13  12    1.22    0.96
   0  13 -12    0.60    0.31
   0 -13  12    0.05    0.26
   0  13  13   48.62    3.82
   0  13  13   41.75    4.03
   0  13 -13   31.39    3.52
   0 -13  13   32.10    3.50
   0 -13  13   42.54    3.93
   0  14   1   15.71    1.70
   0  14   1   13.02    1.81
   0  14  -1   15.43    1.68
   0 -14   1   15.71    1.67
   0  14   2   11.85    1.37
   0  14   2   10.61    1.52
   0  14  -2   11.78    1.33
   0 -14   2   11.87    1.30
   0 -14   2   11.85    1.72
   0  14   3    0.42    0.49
   0  14   3   -0.01    0.71
   0  14  -3   -0.02    0.38
   0 -14   3   -0.11    0.34
   0 -14   3    0.09    0.93
   0  14   4    0.85    0.50
   0  14   4    1.09    0.78
   0  14  -4    1.29    0.40
   0 -14   4    0.16    0.34
   0 -14   4    0.93    0.95
   0  14   5   27.22    2.75
   0  14  -5   24.66    2.66
   0  14   6    4.70    0.77
   0  14  -6    4.82    0.63
   0 -14   6    4.12    0.59
   0 -14   6    5.83    1.20
   0  14   7    2.31    0.90
   0 -14   7    1.03    0.33
   0 -14   7    2.37    1.01
   0  14   8    1.52    0.59
   0  14   8    0.22    0.48
   0  14  -8    0.85    0.33
   0 -14   8    1.11    0.29
   0 -14   8    1.37    0.97
   0  14   9    0.07    0.59
   0  14   9    0.07    0.85
   0  14  -9    0.03    0.29
   0 -14   9    0.18    0.24
   0 -14   9    0.32    0.96
   0  14  10    1.57    0.67
   0  14  10    0.80    0.93
   0  14 -10    0.69    0.34
   0 -14  10    0.72    0.25
   0 -14  10    0.96    0.97
   0  14  11    2.96    0.76
   0  14  11    2.33    1.04
   0  14 -11    1.84    0.39
   0 -14  11    1.40    0.29
   0 -14  11    3.38    1.07
   0  15   0   -0.08    0.46
   0  15   0   -0.24    0.62
   0  15   1    8.32    1.03
   0  15   1    6.69    1.21
   0  15  -1    8.61    1.01
   0 -15   1    7.41    1.44
   0  15   2   17.93    1.99
   0  15  -2   18.83    1.96
   0 -15   2   15.88    2.30
   0  15   3    0.42    0.51
   0  15   3    0.68    0.74
   0  15  -3    0.02    0.40
   0 -15   3    0.41    0.97
   0  15   4    3.65    0.67
   0  15   4    3.09    0.90
   0  15  -4    2.31    0.51
   0 -15   4    3.14    1.12
   0  15   5    0.98    0.54
   0  15   5    0.36    0.80
   0  15  -5    0.87    0.39
   0 -15   5    1.23    0.35
   0  15   6    0.76    0.54
   0  15   6    0.57    0.84
   0 -15   6    0.46    0.32
   0 -15   6    0.32    0.97
   0  15   7    8.46    1.38
   0  15  -7    7.63    0.90
   0 -15   7    7.76    0.88
   0 -15   7    8.44    1.48
   0  15   8   13.23    1.63
   0  15  -8    9.76    1.05
   0 -15   8    8.57    1.02
   0 -15   8   13.14    1.67
   0  16   0    2.70    0.76
   0 -16   0    1.86    1.10
   0  16   1    4.76    0.94
   0 -16  -1    4.29    1.23
   0  16  -1    4.70    0.88
   0 -16   1    4.73    1.24
   0 -16   2    7.14    1.44
   0  16   3    9.26    1.39
   0 -16   3    9.07    1.60
   0  16   4    2.79    0.92
   0 -16   4    2.08    1.11
   0  16   5    0.10    0.83
   1   0   1  644.96   65.72
  -1   0  -1  680.58   65.74
   1   0   2    0.00    0.07
   1   0   2    0.08    0.10
  -1   0  -2    0.03    0.07
  -1   0  -2    0.05    0.10
   1   0   3  542.08   52.98
  -1   0  -3  519.81   53.00
   1   0   4    0.12    0.19
   1   0   4    0.04    0.29
   1   0   5 1009.97  106.22
   1   0   5 1162.19  106.33
   1   0   6    0.16    0.34
   1   0   7  323.88   33.64
   1   0   7  348.56   33.64
   1   0   8    0.16    0.30
   1   0   8    0.31    0.38
   1   0   9 1206.33  131.31
   1   0   9 1387.70  131.22
   1   0  10   -0.10    0.40
   1   0  10   -0.01    0.47
   1   0  11 1358.74  144.89
   1   0  11 1519.31  144.81
   1   0  12   -0.18    0.44
   1   0  12    0.10    0.48
   1   0  13    1.64    0.51
   1   0  13    0.18    0.51
   1   0  14    0.23    0.49
   1   0  14    0.65    0.54
   1   0  15  314.15   30.07
   1   0  15  288.95   30.03
   1   0  16   -0.16    0.56
   1   0  16   -0.34    0.59
   1   0  17   14.62    1.77
   1   0  18    0.03    0.62
   1   0  18    0.29    0.62
   1   0  19    2.37    0.80
   1   0  19    3.26    0.78
   1   0  20    0.08    0.71
   1   0  20   -0.42    0.66
   1   0  21    2.68    0.87
   1   0  21    0.94    0.74
   1   1   0 1385.03  157.60
   1   1   0 1661.96  157.73
  -1  -1   0 1651.06  157.71
  -1   1   0 1502.28  157.60
  -1   1   0 1888.13  157.78
   1  -1   0 1604.20  157.62
   1  -1   0 1816.02  157.79
   1   1   1  840.08   93.67
   1   1   1 1060.99   93.78
  -1  -1  -1  848.63   93.67
  -1  -1  -1 1064.43   93.76
  -1   1  -1  876.53   93.66
  -1   1  -1 1221.18   93.80
   1  -1   1  917.05   93.67
   1  -1   1 1215.16   93.80
   1   1   2  198.61   20.51
   1   1   2  219.23   20.57
  -1  -1  -2  189.54   20.51
  -1  -1  -2  213.63   20.52
  -1   1  -2  194.78   20.49
  -1   1  -2  230.15   20.51
   1  -1   2  196.02   20.49
   1  -1   2  241.44   20.52
   1   1   3  818.82   85.93
  -1  -1  -3  783.29   85.93
  -1  -1  -3  966.18   86.12
  -1   1  -3 1014.83   86.00
   1  -1   3  776.76   85.93
   1  -1   3  936.22   86.14
   1  -1   3 1030.47   86.01
   1   1   4 2971.63  336.51
  -1  -1  -4 2935.37  336.73
  -1  -1  -4 3620.50  338.32
  -1  -1  -4 4321.64  337.34
  -1   1  -4 4403.69  339.87
   1  -1   4 2977.05  336.77
   1  -1   4 3821.68  336.81
   1  -1   4 4365.12  336.94
   1   1   5  990.45  106.06
   1   1   5 1155.51  106.67
  -1  -1  -5 1211.61  106.09
   1  -1   5  963.45  106.21
   1   1   6 2819.17  298.33
  -1  -1  -6 3172.82  298.13
   1  -1   6 2858.87  297.98
   1  -1   6 2973.33  298.05
   1  -1   6 3182.45  298.05
   1   1   7  433.01   42.48
   1   1   7  432.57   42.51
  -1  -1  -7  439.07   42.42
   1  -1   7  428.57   42.58
   1  -1   7  449.80   42.46
   1  -1   7  399.38   42.38
   1   1   8 1902.48  218.36
   1   1   8 2281.29  218.44
  -1  -1  -8 2544.73  218.51
   1  -1   8 1876.71  218.76
   1  -1   8 2374.36  218.40
   1   1   9   83.91   10.14
  -1  -1  -9  116.46   10.06
   1  -1   9   83.28   10.14
   1  -1   9  105.95   10.17
   1   1  10   42.88    5.21
   1   1  10   50.04    5.26
  -1  -1 -10   56.09    5.12
   1  -1  10   44.67    5.22
   1  -1  10   53.62    5.25
   1   1  11  138.63   11.91
   1   1  11  123.44   11.91
  -1  -1 -11  106.73   11.73
   1  -1  11  136.63   11.91
   1  -1  11  123.47   11.87
   1   1  12   32.51    3.66
   1   1  12   35.78    3.70
   1  -1  12   37.09    3.68
   1   1  13    6.12    0.94
   1   1  13    7.63    1.01
   1  -1  13    6.61    0.93
   1  -1  13    7.51    0.96
   1   1  14  222.30   22.63
   1   1  14  223.86   22.65
   1  -1  14  225.58   22.63
   1  -1  14  229.66   22.61
   1   1  15   15.64    1.94
   1  -1  15   16.00    1.93
   1  -1  15   19.62    1.96
   1   1  16   23.22    2.31
   1   1  16   17.12    2.25
   1  -1  16   21.79    2.27
   1  -1  16   18.93    2.23
   1   1  17    7.58    1.10
   1   1  17    6.13    1.07
   1  -1  17    7.93    1.07
   1  -1  17    6.78    1.03
   1   1  18   85.91    8.92
   1  -1  18   94.74    8.96
   1  -1  18   82.05    8.87
   1   1  19    3.28    0.84
   1   1  19    1.79    0.81
   1  -1  19    2.71    0.78
   1   1  20   28.83    3.06
   1   1  20   26.26    2.99
   1  -1  20   30.94    3.06
   1  -1  20   23.32    2.92
   1   1  21    1.07    0.81
   1   1  21    0.97    0.76
   1  -1  21    0.91    0.78
   1   2   0  225.59   24.85
   1   2   0  248.30   24.95
  -1  -2   0  244.13   24.91
  -1   2   0  257.24   24.85
   1  -2   0  260.72   24.85
   1  -2   0  275.11   24.90
   1   2   1   58.39    6.59
  -1  -2  -1   58.25    6.59
  -1  -2  -1   66.01    6.63
  -1   2  -1   70.20    6.55
  -1   2  -1   68.20    6.62
   1  -2   1   67.16    6.61
   1   2   2 3994.23  427.19
  -1  -2  -2 3843.71  427.22
  -1  -2  -2 4588.98  430.55
  -1   2  -2 5540.14  427.86
   1  -2   2 3786.24  427.16
   1  -2   2 4952.70  427.29
   1  -2   2 5550.63  427.71
   1   2   3  548.63   62.95
  -1  -2  -3  555.51   62.95
  -1  -2  -3  755.62   63.31
  -1   2  -3  756.12   63.09
   1  -2   3  692.08   62.94
   1  -2   3  745.09   63.02
   1   2   4  418.66   46.55
  -1  -2  -4  404.20   46.56
  -1  -2  -4  528.02   46.64
  -1   2  -4  536.62   46.83
   1  -2   4  500.69   46.54
   1  -2   4  531.92   46.59
   1   2   5 1418.83  161.19
  -1  -2  -5 1375.43  161.38
  -1  -2  -5 1999.34  161.38
  -1   2  -5 1764.75  161.52
   1  -2   5 1765.24  161.22
   1   2   6  419.17   40.93
  -1  -2  -6  395.43   40.71
  -1   2  -6  413.46   40.79
   1  -2   6  422.09   40.72
   1  -2   6  407.59   40.76
   1  -2   6  404.75   40.71
   1   2   7  750.41   81.44
   1   2   7  820.86   81.57
  -1  -2  -7  854.77   81.44
  -1   2  -7  836.80   81.59
   1  -2   7  810.98   81.41
   1  -2   7  859.28   81.43
   1   2   8  349.35   40.49
   1   2   8  410.30   40.56
  -1  -2  -8  438.01   40.46
  -1   2  -8  394.66   40.57
   1  -2   8  409.19   40.43
   1  -2   8  427.79   40.45
   1   2   9  112.09   13.63
   1   2   9  133.61   13.69
  -1  -2  -9  146.54   13.59
  -1   2  -9  131.96   13.68
   1  -2   9  133.66   13.63
   1  -2   9  140.08   13.55
   1  -2   9  140.53   13.56
   1   2  10   15.63    2.89
   1   2  10   29.15    3.00
  -1  -2 -10   39.48    2.91
  -1   2 -10   31.12    2.98
   1  -2  10   30.00    2.95
   1   2  11  141.73   16.04
   1   2  11  161.39   16.08
  -1  -2 -11  171.88   15.96
   1  -2  11  165.93   16.03
   1  -2  11  156.42   15.92
   1   2  12   66.56    6.20
  -1  -2 -12   68.79    6.06
   1  -2  12   67.97    6.17
   1  -2  12   53.66    6.01
   1   2  13   45.07    4.97
  -1  -2 -13   49.13    4.84
   1  -2  13   47.03    4.95
   1  -2  13   48.78    4.95
   1   2  14   38.23    4.17
   1   2  14   41.61    4.21
  -1  -2 -14   37.77    4.03
  -1  -2 -14   39.81    4.02
   1  -2  14   41.37    4.16
   1  -2  14   41.97    4.15
   1   2  15    9.49    1.03
   1   2  15    7.84    1.04
  -1  -2 -15    4.71    0.69
   1  -2  15    9.67    0.99
   1  -2  15    8.42    0.95
   1   2  16  117.25   11.49
   1   2  16  107.40   11.47
   1  -2  16  114.04   11.45
   1  -2  16  112.70   11.42
   1   2  17   42.19    4.10
   1   2  17   34.34    4.06
   1  -2  17   41.91    4.06
   1  -2  17   35.34    3.99
   1   2  18  125.83   12.76
   1  -2  18  131.40   12.75
   1  -2  18  120.36   12.68
   1   2  19    4.78    0.93
   1   2  19    3.35    0.93
   1  -2  19    4.32    0.86
   1  -2  19    2.36    0.73
   1   2  20    8.94    1.22
   1   2  20    4.61    1.11
   1  -2  20    7.95    1.13
   1  -2  20    5.14    0.97
   1   2  21   20.70    2.35
   1   2  21   16.23    2.25
   1  -2  21   20.75    2.30
   1   3   0 1947.90  220.63
  -1  -3   0 2335.91  221.69
  -1   3   0 2359.41  220.82
   1  -3   0 2695.31  220.87
   1   3   1  220.65   23.39
  -1  -3  -1  228.18   23.39
  -1   3  -1  226.79   23.36
  -1   3  -1  251.93   23.42
  -1   3  -1  262.78   23.47
   1  -3   1  262.76   23.45
   1   3   2  312.81   34.67
  -1  -3  -2  299.61   34.67
  -1  -3  -2  547.01   35.24
  -1   3  -2  397.78   34.64
  -1   3  -2  547.15   34.87
   1  -3   2  303.68   34.62
   1  -3   2  529.55   34.81
  -1  -3  -3   39.65    2.73
  -1   3  -3   25.84    2.56
  -1   3  -3   38.37    2.74
   1  -3   3   20.37    2.55
   1  -3   3   35.92    2.69
   1   3   4   21.63    1.79
  -1  -3  -4   22.34    1.79
  -1  -3  -4   13.03    1.74
  -1   3  -4   17.43    1.72
  -1   3  -4   12.50    1.75
   1  -3   4   19.09    1.72
   1  -3   4   12.45    1.74
   1   3   5 1008.53  123.79
  -1  -3  -5  976.56  123.86
  -1  -3  -5 1552.10  123.99
  -1   3  -5 1401.22  123.87
   1  -3   5 1379.47  123.81
   1  -3   5 1605.58  124.00
  -1  -3  -6   71.54    7.26
   1  -3   6   72.46    7.19
   1  -3   6   70.46    7.21
   1   3   7  106.43   13.26
   1   3   7  140.06   13.37
  -1  -3  -7  155.33   13.26
   1  -3   7  136.15   13.26
   1   3   8  348.70   38.51
   1   3   8  385.75   38.60
  -1   3  -8  380.26   38.52
   1  -3   8  404.06   38.49
   1  -3   8  386.38   38.48
   1  -3   8  409.57   38.50
   1   3   9    6.98    1.15
   1   3   9    8.06    1.20
  -1   3  -9    9.40    1.13
   1  -3   9    9.67    1.13
   1  -3   9   10.84    1.09
   1  -3   9   12.83    1.13
   1   3  10    2.84    0.56
  -1   3 -10    2.47    0.50
   1  -3  10    1.92    0.40
   1   3  11   33.30    3.09
   1   3  11   29.20    3.10
  -1   3 -11   28.02    3.04
   1  -3  11   31.85    3.04
   1  -3  11   25.46    2.96
   1   3  12   12.62    1.39
   1   3  12   11.56    1.43
  -1   3 -12   13.00    1.37
   1  -3  12   13.14    1.34
   1  -3  12   11.53    1.23
   1  -3  12    9.80    1.23
   1   3  13   37.88    4.26
   1   3  13   40.49    4.31
   1  -3  13   37.02    4.22
   1  -3  13   42.91    4.23
   1  -3  13   43.08    4.14
   1  -3  13   40.66    4.14
   1   3  14   25.97    2.76
   1   3  14   28.38    2.82
  -1  -3 -14   26.91    2.64
   1  -3  14   26.69    2.72
   1  -3  14   27.82    2.71
   1  -3  14   25.03    2.60
   1  -3  14   21.93    2.59
   1   3  15   12.20    1.31
   1   3  15    7.73    1.31
   1  -3  15   12.41    1.23
   1  -3  15    6.85    1.14
   1   3  16   14.65    1.50
   1   3  16   12.84    1.55
  -1  -3 -16   10.01    1.22
  -1  -3 -16    9.55    1.21
   1  -3  16   14.78    1.43
   1  -3  16   12.63    1.37
   1   3  17   18.76    1.63
   1   3  17   14.16    1.62
  -1  -3 -17    9.40    1.24
  -1  -3 -17    9.96    1.25
   1  -3  17   18.37    1.54
   1  -3  17   14.32    1.44
   1   3  18   21.06    2.75
   1  -3  18   28.83    2.74
   1  -3  18   23.35    2.64
   1   3  19   43.39    4.90
   1   3  19   48.76    4.93
   1  -3  19   45.06    4.85
   1  -3  19   46.79    4.81
   1   3  20    0.87    0.77
   1   3  20    0.71    0.82
   1  -3  20   -0.01    0.66
   1  -3  20    0.49    0.56
   1   4   0  344.96   35.30
  -1   4   0  393.79   35.45
   1   4   1  606.83   60.19
  -1  -4  -1  623.88   60.20
  -1   4  -1  604.01   60.16
   1  -4   1  570.09   60.23
   1   4   2  179.45   18.47
  -1  -4  -2  170.24   18.46
  -1   4  -2  208.05   18.42
   1  -4   2  177.76   18.41
   1   4   3  750.75   79.59
  -1  -4  -3  745.72   79.59
  -1   4  -3  878.95   79.55
  -1   4  -3 1024.70   80.02
   1  -4   3  782.57   79.54
   1   4   4   63.48    7.70
  -1  -4  -4   60.27    7.69
  -1   4  -4   86.93    7.64
  -1   4  -4   99.42    7.88
   1  -4   4   77.12    7.63
   1   4   5   78.05    9.25
  -1  -4  -5   76.10    9.24
  -1   4  -5  105.08    9.20
   1  -4   5   96.12    9.19
  -1  -4  -6   37.94    4.48
   1  -4   6   47.48    4.44
   1   4   7  182.09   21.36
  -1   4  -7  227.47   21.33
   1  -4   7  225.14   21.32
   1  -4   7  216.52   21.44
   1   4   8   44.74    5.36
   1  -4   8   56.70    5.33
   1  -4   8   55.58    5.37
   1   4   9  695.26   75.54
   1   4   9  779.20   75.66
   1  -4   9  788.44   75.48
   1  -4   9  776.32   75.54
   1   4  10   78.07    8.77
   1   4  10   87.44    8.84
  -1   4 -10   88.40    8.74
   1  -4  10   88.26    8.72
   1  -4  10   88.85    8.72
   1   4  11   12.55    1.46
   1   4  11   11.50    1.50
  -1   4 -11   12.34    1.40
   1  -4  11   12.70    1.38
   1   4  12   12.58    1.65
   1   4  12   15.21    1.76
  -1   4 -12   15.23    1.62
   1  -4  12   14.60    1.55
   1   4  13    6.59    0.84
   1   4  13    5.49    0.95
  -1   4 -13    4.90    0.72
   1  -4  13    4.50    0.61
   1  -4  13    3.28    0.61
   1   4  14   20.27    2.14
   1   4  14   18.89    2.20
   1  -4  14   20.10    2.06
   1  -4  14   18.89    2.04
   1  -4  14   17.18    1.96
   1   4  15    4.30    0.75
   1   4  15    3.31    0.87
   1  -4  15    3.76    0.63
   1  -4  15    3.38    0.58
   1  -4  15    1.85    0.42
   1  -4  15    1.45    0.44
   1   4  16    0.16    0.61
   1   4  16    1.25    0.81
  -1  -4 -16    0.60    0.40
   1  -4  16    0.19    0.51
   1  -4  16    0.71    0.48
   1  -4  16    0.56    0.31
   1  -4  16    0.89    0.34
   1   4  17   86.76    9.02
   1   4  17   87.72    9.05
  -1  -4 -17   86.18    8.87
   1  -4  17   90.28    8.93
   1   4  18   27.01    2.82
  -1  -4 -18   19.16    2.51
   1  -4  18   31.36    2.73
   1  -4  18   28.59    2.65
   1   4  19    6.46    1.00
  -1  -4 -19    2.01    0.50
   1  -4  19    6.03    0.86
   1  -4  19    4.26    0.72
   1   4  20    0.36    0.84
  -1  -4 -20    0.00    0.25
   1  -4  20    0.88    0.67
   1   5   0    2.00    0.37
   1   5   1    1.82    0.35
  -1  -5  -1    1.58    0.33
  -1   5  -1    1.61    0.26
  -1   5  -1    3.40    0.59
   1  -5   1    1.45    0.25
   1   5   2  319.82   33.55
  -1  -5  -2  328.35   33.55
  -1   5  -2  346.58   33.50
  -1   5  -2  393.21   33.75
   1  -5   2  333.17   33.50
   1   5   3  365.57   37.81
  -1  -5  -3  352.91   37.81
  -1   5  -3  417.79   37.76
  -1   5  -3  515.89   38.18
   1  -5   3  364.23   37.74
   1   5   4  149.80   16.09
  -1  -5  -4  151.46   16.09
  -1   5  -4  178.04   16.02
  -1   5  -4  212.06   16.43
   1  -5   4  152.19   16.01
   1   5   5   59.48    6.36
  -1  -5  -5   57.87    6.35
  -1   5  -5   66.81    6.27
   1  -5   5   61.73    6.26
  -1  -5  -6   47.56    6.19
  -1   5  -6   65.12    6.14
   1  -5   6   64.36    6.13
   1   5   7    0.44    0.35
  -1   5  -7    0.28    0.27
   1  -5   7    0.50    0.27
   1  -5   7    0.34    0.37
   1   5   8    9.39    1.40
   1   5   8   12.95    1.51
  -1   5  -8   13.51    1.37
   1  -5   8   13.21    1.37
   1  -5   8   14.56    1.45
   1   5   9   -0.16    0.42
   1   5   9   -0.03    0.48
  -1   5  -9    0.22    0.32
   1  -5   9    0.28    0.30
   1  -5   9    0.38    0.43
   1   5  10    3.09    0.71
   1   5  10    5.18    0.89
  -1   5 -10    5.62    0.66
   1  -5  10    4.86    0.63
   1  -5  10    4.74    0.70
   1   5  11  197.37   20.45
   1  -5  11  207.98   20.37
   1   5  12    2.70    0.69
   1   5  12    4.14    0.89
   1  -5  12    4.25    0.60
   1  -5  12    4.36    0.64
   1   5  13    2.22    0.81
  -1   5 -13    2.69    0.53
   1  -5  13    1.87    0.48
   1  -5  13    1.87    0.47
   1   5  14   25.87    2.88
   1  -5  14   24.64    2.69
   1  -5  14   26.08    2.68
   1   5  15    4.73    1.00
   1   5  15    7.45    1.15
   1  -5  15    5.01    0.85
   1  -5  15    7.38    0.82
   1   5  16    0.71    0.70
   1   5  16    0.32    0.81
   1  -5  16    0.66    0.52
   1   5  17    6.68    0.98
  -1  -5 -17    3.13    0.62
   1  -5  17    4.45    0.67
   1  -5  17    3.09    0.54
   1  -5  17    1.80    0.54
   1   5  18  152.66   13.20
   1  -5  18  160.45   13.08
   1  -5  18  160.89   13.00
   1  -5  18  103.39   12.84
   1   5  19    1.32    0.82
   1   5  19    0.51    0.89
  -1  -5 -19    0.24    0.43
   1  -5  19    0.59    0.62
   1  -5  19    0.55    0.52
   1   5  20   40.16    3.40
   1   5  20   32.07    3.33
  -1  -5 -20   22.77    2.99
   1  -5  20   37.65    3.24
   1  -6   0  859.24   85.67
  -1  -6  -1  441.98   43.76
  -1   6  -1  448.15   43.95
   1  -6   1  433.19   43.74
  -1  -6  -2  184.36   18.24
  -1   6  -2  209.27   18.44
   1  -6   2  177.09   18.18
  -1  -6  -3  193.80   19.47
  -1   6  -3  261.86   19.81
   1  -6   3  189.69   19.40
  -1   6  -5   86.64    8.42
   1  -6   5   82.32    8.41
  -1   6  -6   46.51    4.30
   1  -6   6   39.61    4.28
   1   6   7   84.43   10.08
  -1   6  -7  108.28   10.01
   1  -6   7  100.43   10.00
   1   6   8   14.24    1.56
   1   6   8   13.89    1.65
  -1   6  -8   13.06    1.44
   1  -6   8   13.97    1.44
   1  -6   8   12.99    1.55
   1   6   9   33.22    3.38
   1   6   9   29.12    3.42
  -1   6  -9   32.48    3.29
   1  -6   9   33.24    3.27
   1  -6   9   29.65    3.35
   1   6  10  119.78   12.34
   1   6  10  120.34   12.41
  -1   6 -10  124.86   12.25
   1  -6  10  123.79   12.23
   1  -6  10  118.48   12.32
   1   6  11    0.17    0.53
   1   6  11    1.28    0.71
  -1   6 -11    0.69    0.36
   1  -6  11    0.32    0.34
   1  -6  11    1.45    0.50
   1   6  12   40.15    4.10
   1   6  12   43.25    4.19
  -1   6 -12   37.35    4.00
   1  -6  12   40.91    4.00
   1  -6  12   34.93    4.02
   1   6  13    2.09    0.66
   1   6  13    1.34    0.78
  -1   6 -13    0.68    0.43
   1  -6  13    1.07    0.41
   1  -6  13    1.26    0.51
   1   6  14   18.46    2.03
   1   6  14   16.68    2.11
   1  -6  14   18.31    1.88
   1  -6  14   15.78    1.88
   1   6  15    0.18    0.66
   1  -6  15    0.47    0.45
   1  -6  15    0.05    0.42
   1  -6  15    0.44    0.45
   1   6  16  132.78   12.84
   1   6  16  116.62   12.85
   1  -6  16  134.54   12.75
   1  -6  16  121.59   12.69
   1   6  17   43.02    4.38
   1   6  17   41.59    4.43
  -1  -6 -17   39.45    4.26
   1  -6  17   41.47    4.25
   1  -6  17   42.43    4.22
   1  -6  17   37.40    4.19
   1   6  18   20.40    2.28
   1   6  18   21.57    2.36
   1  -6  18   19.47    2.11
   1  -6  18   19.25    2.05
   1  -6  18   16.29    1.99
   1   6  19    4.47    0.97
   1   6  19    1.46    0.98
   1  -6  19    3.01    0.69
   1  -6  19    0.59    0.46
   1   7   0    1.56    0.42
   1  -7   0    2.35    0.38
   1   7   1   94.50    8.99
  -1  -7  -1   90.06    8.99
  -1   7  -1   90.18    8.95
   1  -7   1   84.50    8.95
   1   7   2   83.92    8.20
  -1  -7  -2   85.77    8.20
  -1   7  -2   82.08    8.13
  -1   7  -2   50.24    8.25
   1  -7   2   87.99    8.13
   1   7   3   48.06    5.01
  -1  -7  -3   45.92    5.00
  -1   7  -3   53.34    4.93
  -1   7  -3   73.18    5.34
   1  -7   3   45.09    4.92
   1   7   4  106.44   10.82
  -1  -7  -4   99.81   10.81
  -1   7  -4  110.00   10.72
   1  -7   4  108.35   10.72
   1   7   5   64.13    6.47
  -1  -7  -5   61.73    6.46
  -1   7  -5   65.35    6.35
   1  -7   5   62.29    6.34
  -1  -7  -6    1.01    0.48
  -1   7  -6    2.58    0.32
   1  -7   6    1.88    0.30
   1   7   7   17.34    1.84
  -1  -7  -7   16.12    1.82
  -1   7  -7   16.43    1.72
   1  -7   7   16.42    1.71
   1   7   8    0.71    0.46
   1   7   8    0.99    0.64
  -1   7  -8    0.30    0.26
   1  -7   8    0.49    0.25
   1  -7   8    0.57    0.58
   1   7   9    4.32    0.77
   1   7   9    4.90    0.90
  -1   7  -9    4.49    0.58
   1  -7   9    4.64    0.57
   1  -7   9    4.56    0.82
   1   7  10   89.28   10.53
   1   7  10  105.35   10.64
  -1   7 -10  108.91   10.45
   1  -7  10  104.73   10.43
   1  -7  10  111.15   10.58
   1   7  11  217.40   21.95
   1   7  11  215.01   22.03
  -1   7 -11  216.38   21.85
   1  -7  11  220.30   21.82
   1  -7  11  223.33   21.95
   1   7  12   20.73    2.36
  -1   7 -12   20.65    2.22
   1  -7  12   22.00    2.22
   1  -7  12   20.10    2.32
   1   7  13   32.88    3.44
  -1   7 -13   31.56    3.32
   1  -7  13   30.91    3.29
   1  -7  13   33.04    3.39
   1   7  14    9.84    1.27
   1   7  14    9.76    1.40
  -1   7 -14    7.19    1.06
   1  -7  14    8.99    1.05
   1  -7  14   10.45    1.20
   1   7  15   61.55    6.00
   1   7  15   55.13    6.04
   1  -7  15   61.39    5.88
   1  -7  15   55.07    5.83
   1  -7  15   54.53    5.88
   1   7  16    4.46    0.91
   1   7  16    2.64    1.02
   1  -7  16    4.22    0.69
   1  -7  16    2.57    0.58
   1   7  17   16.98    1.92
   1   7  17   14.82    1.99
   1  -7  17   15.97    1.72
   1  -7  17   14.24    1.65
   1  -7  17   13.63    1.69
   1   7  18   20.57    2.31
   1   7  18   20.07    2.39
  -1  -7 -18   18.22    2.17
   1  -7  18   20.36    2.12
   1  -7  18   16.64    2.06
   1   7  19   15.85    1.80
   1   7  19   13.70    1.85
  -1  -7 -19   12.77    1.60
   1  -7  19   14.52    1.57
   1  -7  19   10.32    1.45
   1   8   0   36.04    3.95
   1  -8   0   41.36    3.95
   1   8   1   95.23   10.01
  -1  -8  -1   94.34   10.01
  -1   8  -1  102.80    9.98
  -1   8  -1  131.13   10.36
   1  -8   1   98.44    9.98
   1   8   2    5.30    0.73
  -1  -8  -2    5.21    0.73
  -1   8  -2    5.79    0.66
   1  -8   2    5.44    0.65
   1   8   3  152.86   15.74
  -1  -8  -3  150.86   15.73
  -1   8  -3  160.19   15.67
   1  -8   3  159.42   15.66
   1   8   4  489.45   48.94
  -1  -8  -4  469.65   48.95
  -1   8  -4  518.86   48.87
   1  -8   4  479.08   48.85
   1   8   5  161.26   15.14
  -1  -8  -5  154.88   15.14
  -1   8  -5  147.14   15.03
   1  -8   5  149.68   15.02
  -1  -8  -6  111.72   10.50
  -1   8  -6  105.22   10.35
   1  -8   6  100.80   10.34
   1   8   7   19.15    2.22
  -1   8  -7   22.89    2.12
   1  -8   7   19.16    2.09
   1   8   8   25.84    2.96
   1   8   8   31.58    3.11
  -1   8  -8   28.77    2.86
   1  -8   8   26.75    2.84
   1  -8   8   30.51    3.05
   1   8   9    1.64    0.59
   1   8   9    2.08    0.75
  -1   8  -9    1.38    0.32
   1  -8   9    1.59    0.31
   1  -8   9    1.59    0.69
   1   8  10  187.66   18.21
  -1   8 -10  179.17   18.07
   1  -8  10  178.49   18.05
   1  -8  10  186.20   18.24
   1   8  11   99.26    9.84
  -1   8 -11   95.84    9.70
   1  -8  11   96.10    9.68
   1  -8  11   96.09    9.84
   1   8  12   13.38    1.43
   1   8  12   11.61    1.52
  -1   8 -12    9.33    1.18
   1  -8  12   11.15    1.18
   1  -8  12    9.80    1.38
   1   8  13   22.35    2.26
   1   8  13   20.09    2.35
  -1   8 -13   17.95    2.07
   1  -8  13   20.19    2.06
   1  -8  13   18.21    2.20
   1   8  14    6.02    1.00
   1   8  14    5.95    1.16
  -1   8 -14    5.95    0.78
   1  -8  14    4.95    0.73
   1  -8  14    6.67    1.00
   1   8  15   -0.09    0.68
   1   8  15    0.16    0.85
   1  -8  15    0.01    0.46
   1  -8  15    0.19    0.38
   1  -8  15    0.68    0.67
   1   8  16    2.02    0.84
   1   8  16    3.22    1.06
   1  -8  16    3.60    0.59
   1  -8  16    3.80    0.83
   1   8  17   64.65    6.55
   1   8  17   58.30    6.60
   1  -8  17   70.87    6.42
   1  -8  17   63.59    6.37
   1  -8  17   54.11    6.41
   1   8  18   10.69    1.48
   1   8  18    9.48    1.61
  -1  -8 -18    8.86    1.39
   1  -8  18   11.14    1.26
   1  -8  18    8.84    1.30
   1   9   0  217.52   21.73
   1   9   1    1.67    0.46
  -1  -9  -1    1.54    0.44
  -1   9  -1    2.15    0.40
  -1   9  -1    7.09    1.01
   1  -9   1    1.67    0.37
   1   9   2    5.04    0.75
  -1  -9  -2    4.95    0.74
  -1   9  -2    6.09    0.68
   1  -9   2    5.80    0.66
   1   9   3   -0.03    0.38
  -1  -9  -3    0.40    0.38
  -1   9  -3    0.13    0.27
   1  -9   3    0.18    0.24
   1   9   4    3.74    0.59
  -1  -9  -4    2.96    0.57
  -1   9  -4    3.85    0.45
   1  -9   4    2.76    0.42
   1   9   5    2.13    0.51
  -1  -9  -5    1.72    0.49
  -1   9  -5    2.35    0.33
   1  -9   5    1.51    0.29
  -1  -9  -6   86.66    8.76
  -1   9  -6   86.16    8.62
   1   9   7  115.78    9.38
  -1   9  -7   86.44    9.20
   1   9   8  382.79   34.48
  -1   9  -8  326.76   34.31
   1  -9   8  386.61   34.72
   1   9   9    5.51    0.76
   1   9   9    3.21    0.86
  -1   9  -9    2.73    0.43
   1  -9   9    3.15    0.81
   1   9  10   68.39    6.43
   1   9  10   61.12    6.50
  -1   9 -10   60.35    6.26
   1  -9  10   61.63    6.45
   1   9  11   34.44    2.82
   1   9  11   24.66    2.85
  -1   9 -11   22.36    2.58
   1  -9  11   24.70    2.78
   1   9  12  151.06   13.07
   1   9  12  119.90   13.09
  -1   9 -12  119.69   12.86
   1  -9  12  135.11   13.05
   1   9  13    2.56    0.83
   1   9  13    5.35    1.09
  -1   9 -13    4.51    0.61
   1  -9  13    3.33    0.56
   1  -9  13    6.49    0.96
   1   9  14  148.99   14.28
   1   9  14  135.99   14.35
   1  -9  14  137.32   14.07
   1  -9  14  144.48   14.25
   1   9  15   22.17    2.47
   1   9  15   23.98    2.62
   1  -9  15   18.84    2.25
   1  -9  15   20.85    2.23
   1  -9  15   25.43    2.47
   1   9  16    5.24    1.07
   1   9  16    5.89    1.25
   1  -9  16    5.38    0.74
   1  -9  16    5.95    1.03
   1   9  17    0.05    0.77
   1   9  17    0.41    0.98
  -1  -9 -17   -0.05    0.80
   1  -9  17    0.31    0.48
   1  -9  17    0.43    0.70
   1  10   0    1.01    0.42
   1  10   1   10.24    1.18
  -1 -10  -1    9.52    1.16
  -1  10  -1   10.48    1.13
   1  10   2  261.36   25.96
  -1 -10  -2  253.81   25.95
  -1  10  -2  265.21   25.90
   1 -10   2  255.95   25.93
   1  10   3  149.08   15.17
  -1 -10  -3  148.23   15.17
  -1  10  -3  158.31   15.10
   1 -10   3  146.76   15.10
   1  10   4   77.34    7.52
  -1 -10  -4   74.84    7.52
  -1  10  -4   71.08    7.42
   1 -10   4   75.18    7.41
   1  10   5    4.37    0.69
  -1 -10  -5    5.48    0.69
  -1  10  -5    3.50    0.50
  -1 -10  -6   99.52    9.72
  -1  10  -6   94.78    9.56
   1  10   7    7.89    0.93
  -1  10  -7    6.75    0.70
   1 -10   7    5.34    0.68
   1 -10   7    9.77    1.15
   1  10   8    0.54    0.51
   1  10   8    0.64    0.73
  -1  10  -8    0.34    0.23
   1 -10   8    0.25    0.21
   1 -10   8    0.38    0.72
   1  10   9   12.41    1.34
   1  10   9   14.05    1.54
  -1  10  -9   10.43    1.11
   1 -10   9    9.07    1.08
   1 -10   9   13.64    1.50
   1  10  10  202.97   15.88
   1  10  10  176.41   15.99
  -1  10 -10  149.47   15.64
   1 -10  10  145.58   15.62
   1 -10  10  195.70   15.99
   1  10  11   58.80    5.47
   1  10  11   56.46    5.58
  -1  10 -11   54.11    5.28
   1 -10  11   47.17    5.25
   1 -10  11   59.47    5.54
   1  10  12   39.61    3.96
  -1  10 -12   33.63    3.63
   1 -10  12   35.02    3.61
   1 -10  12   39.41    3.87
   1  10  13    3.15    0.78
  -1  10 -13    1.37    0.43
   1 -10  13    2.40    0.40
   1 -10  13    2.32    0.86
   1  10  14   45.05    4.44
   1  10  14   42.43    4.56
   1 -10  14   40.14    4.24
   1 -10  14   39.60    4.21
   1 -10  14   45.89    4.46
   1  10  15   28.76    2.93
   1  10  15   26.29    3.05
   1 -10  15   25.37    2.69
   1 -10  15   24.52    2.67
   1 -10  15   27.47    2.91
   1  10  16    0.75    0.77
   1 -10  16    0.27    0.36
   1 -10  16    1.00    0.80
   1  11   0    0.37    0.41
  -1  11   0    0.89    0.52
   1  11   1  177.07   18.12
  -1 -11  -1  186.22   18.12
  -1  11  -1  180.04   18.08
   1  11   2   60.44    6.34
  -1 -11  -2   61.72    6.34
  -1  11  -2   63.74    6.28
   1  11   3    2.66    0.57
  -1 -11  -3    2.11    0.55
  -1  11  -3    3.90    0.48
   1 -11   3    2.78    0.44
   1  11   4    7.33    0.90
  -1 -11  -4    6.09    0.87
  -1  11  -4    7.48    0.77
   1 -11   4    5.70    0.74
   1  11   5  238.90   22.43
  -1 -11  -5  235.83   22.46
  -1  11  -5  214.38   22.30
  -1  11  -6    9.74    0.93
   1 -11   6    7.52    0.90
   1  11   7   75.21    6.53
   1  11   7   75.40    6.71
   1 -11   7   58.77    6.32
   1 -11   7   75.73    6.72
   1  11   8    8.79    1.02
   1  11   8    6.35    1.19
   1 -11   8    6.61    0.74
   1 -11   8    6.66    1.19
   1  11   9  193.26   13.40
   1  11   9  191.35   13.63
  -1  11  -9  133.96   13.12
   1 -11   9  114.89   13.10
   1 -11   9  196.19   13.61
   1  11  10  144.88    9.17
   1  11  10  122.58    9.31
  -1  11 -10   82.55    8.83
   1 -11  10   80.41    8.81
   1 -11  10  124.01    9.26
   1  11  11   62.88    4.94
   1  11  11   61.27    5.11
  -1  11 -11   45.37    4.67
   1 -11  11   41.10    4.64
   1 -11  11   59.62    5.03
   1  11  12   10.95    1.49
  -1  11 -12    7.97    0.96
   1 -11  12    8.52    0.94
   1 -11  12   11.74    1.42
   1  11  13   21.06    1.97
   1  11  13   16.69    2.10
   1 -11  13   14.31    1.64
   1 -11  13   17.40    2.01
   1  11  14   10.83    1.36
   1 -11  14    8.60    1.01
   1 -11  14    8.69    1.00
   1 -11  14   11.90    1.46
   1  11  15    0.07    0.73
   1  11  15    0.24    0.91
   1 -11  15   -0.02    0.33
   1 -11  15    0.08    0.33
   1 -11  15    0.42    0.83
   1  12   0    3.99    0.68
  -1 -12   0    3.84    0.66
  -1 -12   0    4.20    1.04
  -1  12   0    5.04    0.66
  -1  12   0    5.93    0.81
   1  12   1   32.45    3.41
  -1 -12  -1   34.44    3.41
  -1  12  -1   31.47    3.37
   1  12   2  168.61   16.76
  -1 -12  -2  166.69   16.75
  -1  12  -2  166.31   16.70
   1  12   3   14.59    1.59
  -1 -12  -3   16.16    1.58
  -1  12  -3   12.40    1.49
   1  12   4   83.29    8.03
  -1 -12  -4   82.74    8.03
  -1  12  -4   75.39    7.92
   1  12   5   14.54    1.50
  -1 -12  -5   13.11    1.48
  -1  12  -5   13.22    1.36
   1 -12   5   11.56    1.34
   1 -12   6    1.31    0.27
   1  12   7    0.56    0.50
   1  12   7    0.04    0.77
  -1  12  -7    0.00    0.23
   1 -12   7    0.28    0.19
   1 -12   7    0.25    0.81
   1  12   8    9.70    0.97
   1  12   8    8.07    1.21
  -1  12  -8    5.38    0.63
   1 -12   8    5.06    0.61
   1 -12   8    7.21    1.19
   1  12   9    8.63    1.02
   1  12   9   10.81    1.31
  -1  12  -9    4.76    0.65
   1 -12   9   10.57    1.29
   1  12  10  185.23   17.48
   1  12  10  161.70   17.62
   1 -12  10  166.57   17.60
   1  12  11  161.07   14.94
   1 -12  11  130.84   14.99
   1  12  12   29.58    2.40
   1 -12  12   15.30    1.71
   1 -12  12   16.34    1.71
   1 -12  12   33.44    2.35
   1  12  13    0.25    0.69
   1  12  13    0.32    0.92
   1 -12  13    0.27    0.22
   1 -12  13    0.29    0.22
   1 -12  13    0.29    0.87
   1  12  14    0.08    0.70
   1 -12  14    0.16    0.24
   1 -12  14    0.22    0.88
   1  13   0    5.87    0.79
  -1 -13   0    6.54    0.77
  -1 -13   0    4.00    1.13
  -1  13   0    5.63    0.75
  -1  13   0    3.66    0.84
   1  13   1    0.53    0.47
  -1 -13  -1    0.75    0.88
  -1  13  -1    0.28    0.39
  -1  13  -1    0.68    0.50
   1  13   2    1.80    0.52
  -1 -13  -2    1.36    0.47
  -1  13  -2    0.82    0.40
  -1  13  -2    1.21    0.51
   1  13   3    0.21    0.49
  -1 -13  -3   -0.01    0.43
  -1  13  -3   -0.13    0.34
  -1  13  -3    0.18    0.43
   1  13   4    4.60    0.75
  -1 -13  -4    4.74    0.73
  -1  13  -4    4.43    0.60
   1  13   5   56.99    5.87
  -1  13  -5   57.00    5.75
   1  13   6   46.22    4.83
   1 -13   6   42.99    4.84
   1  13   7   18.40    1.90
   1  13   7   22.40    2.17
  -1  13  -7   14.96    1.72
   1 -13   7   19.33    2.17
   1  13   8   28.60    2.06
  -1  13  -8   14.45    1.74
   1 -13   8   22.09    2.25
   1  13   9  145.43   14.53
   1 -13   9  140.68   14.70
   1  13  10   17.83    1.98
   1  13  10   15.69    2.17
   1 -13  10   16.21    2.15
   1  13  11    5.60    0.96
   1  13  11    4.38    1.18
   1 -13  11    4.51    1.16
   1  13  12    3.61    1.11
   1 -13  12    2.77    1.03
   1  13  13    0.58    0.72
   1  13  13   -0.23    0.94
   1 -13  13   -0.26    0.93
   1  14   0   10.17    1.20
  -1 -14   0   10.29    1.18
  -1 -14   0    9.93    1.57
  -1  14   0    9.93    1.17
  -1  14   0    9.28    1.27
   1  14   1    1.48    0.54
  -1 -14  -1    2.17    1.00
  -1  14  -1    1.64    0.46
  -1  14  -1    1.95    0.61
   1  14   2    1.37    0.54
  -1 -14  -2    1.79    0.50
  -1 -14  -2    0.82    0.95
  -1  14  -2    1.35    0.43
  -1  14  -2    1.20    0.53
   1  14   3    6.49    0.93
  -1 -14  -3    6.01    0.89
  -1 -14  -3    7.39    1.31
  -1  14  -3    6.84    0.81
  -1  14  -3    6.43    0.88
   1  14   4    3.64    0.72
  -1  14  -4    3.59    0.55
  -1  14  -4    3.94    0.64
   1  14   5    0.26    0.51
  -1  14  -5   -0.16    0.41
  -1  14  -6   17.41    1.70
  -1  14  -6   14.25    1.72
   1 -14   6   18.35    2.15
   1  14   7    6.10    0.88
   1  14   7    7.45    1.10
  -1  14  -7    5.13    0.63
  -1  14  -7    4.78    0.65
   1 -14   7    7.56    1.28
   1  14   8    2.04    0.64
   1  14   8    1.52    0.92
  -1  14  -8    0.00    0.16
   1 -14   8    1.59    0.98
   1  14   9    4.98    0.90
   1  14   9    4.69    1.16
   1 -14   9    5.08    1.21
   1  14  10    0.07    0.63
   1  14  10   -0.52    0.94
   1 -14  10    0.18    0.92
   1  14  11    8.99    1.26
   1  14  11    8.30    1.53
   1  15   0    7.37    0.94
  -1 -15   0    6.49    0.90
  -1 -15   0    7.89    1.40
  -1  15   0    6.25    0.89
  -1  15   0    8.19    1.06
   1  15   1   13.53    1.53
  -1 -15  -1   12.92    1.90
  -1  15  -1   13.70    1.48
  -1  15  -1   12.30    1.56
   1  15   2    4.95    0.80
  -1 -15  -2    5.69    0.77
  -1 -15  -2    4.96    1.25
  -1  15  -2    5.38    0.72
  -1  15  -2    4.14    0.80
   1  15   3    7.18    0.98
  -1 -15  -3    7.11    1.39
  -1  15  -3    7.16    0.86
  -1  15  -3    6.61    0.94
   1  15   4    7.59    0.96
   1  15   4    6.16    1.20
  -1 -15  -4    6.12    1.34
  -1  15  -4    6.18    0.79
  -1  15  -4    6.20    0.87
   1 -15   4    5.93    1.30
   1  15   5    2.53    0.64
   1  15   5    1.64    0.91
  -1 -15  -5    1.92    1.05
  -1  15  -5    2.32    0.42
  -1  15  -5    1.70    0.51
   1  15   6    1.51    0.91
  -1 -15  -6    1.81    1.03
  -1  15  -6    1.04    0.32
  -1  15  -6    0.74    0.40
   1 -15   6    1.36    1.00
   1  15   7    1.69    0.60
   1  15   7    2.63    0.96
  -1 -15  -7    3.13    1.10
  -1  15  -7    1.39    0.33
  -1  15  -7    1.50    0.36
   1 -15   7    3.12    1.10
   1  15   8   -0.38    0.48
  -1 -15  -8    0.11    0.99
   1 -15   8    0.06    0.98
  -1 -16   0   -0.15    1.03
  -1  16   0    0.26    0.61
  -1 -16  -1    5.36    1.33
  -1 -16  -2   16.65    2.35
  -1  16  -2   18.48    2.02
   1  16   3    0.13    0.82
  -1 -16  -3    0.07    1.01
  -1  16  -3    0.13    0.53
   1 -16   3   -0.29    0.98
   1  16   4    2.56    0.96
  -1 -16  -4    0.94    1.06
  -1  16  -4    2.25    0.58
   1 -16   4    1.94    1.08
   1  16   5    1.29    0.92
  -1 -16  -5    1.09    1.05
  -1  16  -5    0.64    0.46
   2   0   0 2282.23  242.46
   2   0   0 2956.89  242.83
   2   0   1   -0.06    0.12
   2   0   1    0.02    0.21
  -2   0  -1    0.11    0.10
  -2   0  -1    0.03    0.20
   2   0   2  275.39   27.42
  -2   0  -2  275.70   27.42
   2   0   3    0.13    0.16
   2   0   3    0.10    0.22
  -2   0  -3    0.08    0.22
   2   0   4  260.13   31.54
   2   0   4  362.03   31.55
  -2   0  -4  366.01   31.56
   2   0   5    0.13    0.25
   2   0   5    0.19    0.16
  -2   0  -5    0.00    0.14
  -2   0  -5    0.14    0.19
   2   0   6  268.83   29.57
   2   0   6  352.40   29.59
   2   0   7   -0.02    0.28
   2   0   7    0.04    0.35
   2   0   8  400.29   39.90
   2   0   9    0.23    0.39
   2   0   9    0.61    0.42
   2   0  10   85.89    8.62
   2   0  10   84.12    8.64
   2   0  11    0.19    0.42
   2   0  11    0.11    0.46
   2   0  12  939.47   93.55
   2   0  13   -0.35    0.47
   2   0  13    0.18    0.50
   2   0  14  697.26   68.63
   2   0  14  680.39   68.62
   2   0  15    0.24    0.53
   2   0  15    0.06    0.54
   2   0  16  105.56   10.54
   2   0  16  101.35   10.52
   2   0  17    0.21    0.60
   2   0  17   -0.06    0.59
   2   0  18    6.88    1.10
   2   0  19    0.07    0.66
   2   0  19    0.26    0.65
   2   0  20    2.65    0.86
   2   0  20    4.25    0.85
   2   0  21   -0.09    0.75
   2   0  21    0.14    0.66
   2   1   0  126.59   13.67
   2   1   0  160.42   13.71
  -2  -1   0  124.26   13.67
  -2   1   0  136.40   13.67
   2  -1   0  130.44   13.66
   2  -1   0  185.83   13.73
   2   1   1  199.12   23.72
   2   1   1  300.20   23.77
  -2  -1  -1  197.33   23.73
  -2  -1  -1  300.85   23.78
  -2   1  -1  211.14   23.71
  -2   1  -1  365.74   23.82
   2  -1   1  231.49   23.72
   2  -1   1  362.97   23.82
   2   1   2 2015.46  219.01
   2   1   2 2426.65  219.14
  -2  -1  -2 2030.95  219.03
  -2  -1  -2 2519.02  219.25
  -2   1  -2 2042.80  218.99
  -2   1  -2 2774.76  219.28
   2  -1   2 2105.80  219.02
   2  -1   2 2913.49  219.43
   2   1   3  271.78   30.61
   2   1   3  369.71   30.64
  -2  -1  -3  273.38   30.61
  -2  -1  -3  376.75   30.65
  -2   1  -3  267.96   30.59
  -2   1  -3  430.97   30.67
   2  -1   3  269.23   30.59
   2  -1   3  446.28   30.68
   2   1   4   62.53    7.74
   2   1   4   83.26    7.72
  -2  -1  -4   63.06    7.74
  -2  -1  -4   86.25    7.72
  -2   1  -4   63.20    7.71
  -2   1  -4  103.53    7.73
   2  -1   4   64.70    7.71
   2  -1   4  106.81    7.73
   2   1   5 1440.24  154.95
   2   1   5 1726.61  155.69
  -2  -1  -5 1410.18  154.96
  -2  -1  -5 1811.38  155.05
  -2   1  -5 1378.97  155.05
  -2   1  -5 1990.81  155.13
   2  -1   5 1385.55  154.92
   2  -1   5 2122.59  155.15
   2   1   6   68.58    7.79
  -2  -1  -6   69.76    7.80
  -2  -1  -6   81.41    7.74
   2  -1   6   70.43    7.78
   2  -1   6   87.96    7.74
   2   1   7   11.85    1.59
  -2  -1  -7   15.26    1.56
  -2  -1  -7   19.02    1.58
   2  -1   7   12.54    1.58
   2  -1   7   16.40    1.62
   2   1   8  228.30   27.88
   2   1   8  297.61   28.03
  -2  -1  -8  305.47   27.83
  -2  -1  -8  329.34   27.84
   2  -1   8  237.76   27.87
   2  -1   8  302.90   27.92
   2   1   9  406.63   43.86
   2   1   9  456.04   43.94
  -2  -1  -9  451.16   43.78
  -2  -1  -9  484.62   43.79
   2  -1   9  400.16   43.84
   2  -1   9  441.45   43.87
   2   1  10   41.76    5.02
   2   1  10   61.42    5.12
   2  -1  10   41.76    5.01
   2  -1  10   60.76    5.09
   2   1  11  396.20   42.39
   2   1  11  469.80   42.46
   2  -1  11  389.61   42.37
   2  -1  11  464.64   42.41
   2   1  12    0.79    0.51
   2  -1  12    0.97    0.50
   2   1  13    2.16    0.57
   2   1  13    1.17    0.57
   2  -1  13    1.83    0.52
   2  -1  13    1.50    0.55
   2   1  14   24.37    2.43
   2   1  14   19.65    2.40
   2  -1  14   23.04    2.39
   2  -1  14   20.56    2.38
   2   1  15    1.05    0.58
   2  -1  15    0.92    0.55
   2  -1  15    0.67    0.54
   2   1  16  100.68    9.69
   2  -1  16  102.86    9.68
   2  -1  16   84.10    9.61
   2   1  17   23.88    2.74
   2   1  17   24.88    2.74
   2  -1  17   23.95    2.71
   2  -1  17   25.53    2.70
   2   1  18   21.72    2.29
   2   1  18   17.34    2.23
   2  -1  18   20.70    2.26
   2  -1  18   18.56    2.20
   2   1  19  133.82   13.62
   2   1  19  134.11   13.59
   2  -1  19  135.36   13.61
   2  -1  19  132.15   13.55
   2   1  20    6.19    1.12
   2   1  20    4.69    1.06
   2  -1  20    7.38    1.12
   2   1  21    6.30    1.14
   2   1  21    5.46    1.08
   2  -1  21    5.03    1.07
   2   2   0  420.73   43.83
   2   2   0  444.36   43.86
  -2  -2   0  404.74   43.82
  -2   2   0  452.02   43.81
   2  -2   0  454.77   43.81
   2  -2   0  493.98   43.89
   2   2   1   35.68    4.15
   2   2   1   40.41    4.17
  -2  -2  -1   35.06    4.15
  -2  -2  -1   42.43    4.18
  -2   2  -1   40.28    4.11
  -2   2  -1   48.23    4.21
   2  -2   1   42.89    4.11
   2  -2   1   49.10    4.20
   2   2   2 1002.70  107.05
   2   2   2 1159.07  107.21
  -2  -2  -2 1004.87  107.06
  -2  -2  -2 1144.39  107.15
  -2   2  -2 1012.11  107.03
  -2   2  -2 1239.77  107.18
   2  -2   2 1072.33  107.03
   2  -2   2 1306.96  107.20
   2   2   3  201.05   21.61
   2   2   3  247.98   21.68
  -2  -2  -3  205.73   21.62
  -2  -2  -3  248.89   21.64
  -2   2  -3  192.33   21.57
  -2   2  -3  281.46   21.66
   2  -2   3  198.73   21.57
   2  -2   3  293.80   21.66
   2   2   4  961.03  102.10
  -2  -2  -4  973.77  102.11
  -2  -2  -4 1224.22  102.21
  -2   2  -4  932.44  102.14
  -2   2  -4 1426.25  102.25
   2  -2   4  966.93  102.06
   2   2   5  310.60   34.75
  -2  -2  -5  312.22   34.75
  -2  -2  -5  383.24   34.76
  -2   2  -5  407.26   34.77
   2  -2   5  309.07   34.71
   2  -2   5  379.31   34.80
   2  -2   5  433.47   34.77
   2   2   6  157.09   17.79
  -2  -2  -6  158.56   17.79
  -2  -2  -6  185.25   17.77
  -2   2  -6  205.57   17.80
   2  -2   6  158.58   17.75
   2  -2   6  188.98   17.79
   2  -2   6  211.86   17.77
   2   2   7    1.63    0.41
   2  -2   7    2.18    0.35
   2   2   8  766.78   81.51
  -2  -2  -8  845.01   81.52
  -2  -2  -8  869.45   81.52
   2  -2   8  747.60   81.49
   2  -2   8  828.30   81.66
   2  -2   8  916.82   81.52
   2   2   9    0.46    0.44
  -2  -2  -9    1.14    0.30
  -2  -2  -9    1.25    0.35
   2  -2   9    0.95    0.38
   2  -2   9    1.19    0.25
   2  -2   9    1.31    0.26
   2   2  10  162.59   16.98
   2   2  10  168.06   17.03
  -2  -2 -10  165.00   16.88
  -2  -2 -10  170.68   16.88
   2  -2  10  171.82   16.95
   2  -2  10  185.90   16.97
   2  -2  10  167.03   16.85
   2   2  11  523.91   54.03
   2   2  11  547.48   54.09
  -2  -2 -11  540.77   53.94
   2  -2  11  528.43   54.01
   2  -2  11  571.57   54.02
   2   2  12  141.02   14.67
  -2  -2 -12  147.01   14.51
   2  -2  12  145.31   14.61
   2   2  13  226.88   22.39
  -2  -2 -13  211.58   22.21
  -2  -2 -13  221.65   22.23
   2  -2  13  229.93   22.36
   2  -2  13  252.11   22.37
   2   2  14   88.25    8.70
   2   2  14   81.23    8.69
   2  -2  14   84.06    8.65
   2  -2  14   86.38    8.65
   2   2  15   41.89    4.11
   2   2  15   34.37    4.08
   2  -2  15   42.97    4.08
   2  -2  15   36.10    4.03
   2   2  16   86.58    8.80
   2   2  16   86.72    8.81
   2  -2  16   84.76    8.77
   2  -2  16   85.44    8.75
   2   2  17   11.45    1.44
   2   2  17   10.18    1.46
   2  -2  17   11.42    1.40
   2  -2  17   10.14    1.34
   2   2  18    0.74    0.67
   2   2  18    0.22    0.75
   2  -2  18    0.43    0.62
   2  -2  18    0.40    0.57
   2   2  19   30.05    3.20
   2   2  19   28.25    3.18
   2  -2  19   29.24    3.15
   2  -2  19   27.23    3.08
   2   2  20    7.01    1.16
   2   2  20    6.63    1.15
   2  -2  20    7.04    1.10
   2  -2  20    5.11    0.97
   2   3   0 1626.13  174.96
  -2  -3   0 1644.49  174.98
  -2   3   0 1872.92  174.97
   2  -3   0 1956.22  175.02
   2   3   1 1036.25  120.88
  -2  -3  -1 1043.95  120.87
  -2  -3  -1 1367.37  121.06
  -2   3  -1 1281.55  120.87
  -2   3  -1 1493.88  121.06
   2  -3   1 1388.27  120.89
   2   3   2 1462.63  165.25
  -2  -3  -2 1495.74  165.25
  -2  -3  -2 1777.64  165.49
  -2   3  -2 1603.64  165.23
  -2   3  -2 1997.98  165.45
   2  -3   2 1808.04  165.23
   2  -3   2 2032.01  165.50
   2   3   3  216.69   24.17
  -2  -3  -3  219.45   24.17
  -2  -3  -3  252.29   24.23
  -2   3  -3  294.26   24.23
   2  -3   3  235.47   24.11
   2  -3   3  301.97   24.23
   2   3   4  448.29   46.39
  -2  -3  -4  451.94   46.39
  -2  -3  -4  473.51   46.46
  -2   3  -4  522.25   46.44
   2  -3   4  436.42   46.32
   2  -3   4  512.07   46.35
   2   3   5   11.10    1.47
  -2  -3  -5   11.03    1.47
  -2  -3  -5   15.40    1.50
  -2   3  -5   16.39    1.51
   2  -3   5   11.80    1.43
   2  -3   5   17.00    1.47
   2  -3   5   16.89    1.50
   2   3   6    1.38    0.39
  -2  -3  -6    1.18    0.37
  -2  -3  -6    1.69    0.39
  -2   3  -6    2.72    0.44
   2  -3   6    1.62    0.29
   2  -3   6    2.19    0.34
   2  -3   6    2.43    0.42
   2   3   7   72.22    8.37
  -2  -3  -7   91.39    8.36
   2  -3   7   75.49    8.31
   2  -3   7   88.93    8.34
   2  -3   7   90.13    8.34
   2   3   8 1259.54  137.53
  -2  -3  -8 1212.81  137.77
  -2  -3  -8 1452.35  137.81
  -2  -3  -8 1511.56  137.62
   2  -3   8 1270.29  137.52
   2  -3   8 1487.46  137.54
   2  -3   8 1570.23  137.63
   2   3   9  176.57   16.21
   2   3   9  163.53   16.29
  -2  -3  -9  162.47   16.15
  -2  -3  -9  149.14   16.12
   2  -3   9  175.05   16.14
   2  -3   9  175.21   16.15
   2  -3   9  157.48   16.12
   2  -3   9  147.10   16.10
   2   3  10  232.61   25.94
  -2  -3 -10  267.90   25.93
  -2  -3 -10  283.61   25.90
   2  -3  10  225.78   25.89
   2  -3  10  262.19   25.91
   2  -3  10  257.79   25.86
   2  -3  10  289.56   25.88
   2   3  11    2.26    0.56
  -2  -3 -11    1.87    0.40
   2  -3  11    3.01    0.47
   2  -3  11    1.97    0.36
   2  -3  11    1.62    0.36
   2   3  12   20.91    2.23
  -2  -3 -12   19.82    2.08
  -2  -3 -12   18.13    2.08
   2  -3  12   21.60    2.05
   2  -3  12   18.92    2.05
   2   3  13  102.39   10.58
   2   3  13  118.31   10.65
  -2  -3 -13  110.33   10.46
  -2  -3 -13  116.96   10.46
   2  -3  13  108.19   10.53
   2  -3  13  115.16   10.54
   2  -3  13   91.17   10.38
   2   3  14  225.52   21.76
   2   3  14  226.22   21.79
  -2  -3 -14  201.73   21.58
  -2  -3 -14  204.49   21.59
   2  -3  14  242.36   21.71
   2  -3  14  226.74   21.68
   2   3  15    6.37    0.93
   2   3  15    6.68    1.02
  -2  -3 -15    4.47    0.63
  -2  -3 -15    4.59    0.66
   2  -3  15    7.55    0.86
   2  -3  15    5.48    0.81
   2   3  16   55.70    5.16
   2   3  16   53.48    5.16
  -2  -3 -16   42.06    4.90
   2  -3  16   57.06    5.10
   2  -3  16   54.83    5.07
   2   3  17    0.92    0.66
   2   3  17    0.62    0.78
   2  -3  17    0.72    0.54
   2   3  18   16.62    1.97
   2   3  18   15.69    1.99
   2  -3  18   19.08    1.92
   2  -3  18   13.76    1.81
   2   3  19    2.93    0.85
   2   3  19    1.79    0.88
   2  -3  19    2.65    0.74
   2  -3  19    1.97    0.64
   2   3  20   39.57    4.20
   2   3  20   35.15    4.14
   2  -3  20   40.39    4.13
   2   4   0 4747.61  515.07
  -2  -4   0 4806.17  515.08
  -2  -4   0 5671.72  515.89
  -2   4   0 5904.90  515.19
   2  -4   0 5724.63  515.89
   2   4   1 1393.50  152.31
  -2  -4  -1 1416.90  152.32
  -2  -4  -1 1601.77  152.61
  -2   4  -1 1664.44  152.31
  -2   4  -1 1825.24  152.55
   2   4   2  130.46   13.96
  -2  -4  -2  133.85   13.97
  -2  -4  -2  167.13   14.07
  -2   4  -2  125.60   13.89
  -2   4  -2  154.25   13.89
  -2   4  -2  180.17   14.07
   2   4   3    2.53    0.42
  -2  -4  -3    2.35    0.42
  -2  -4  -3    2.30    0.49
  -2   4  -3    2.47    0.55
   2   4   4   40.22    4.36
  -2  -4  -4   41.00    4.36
  -2  -4  -4   55.55    4.45
  -2   4  -4   64.76    4.49
   2  -4   4   40.95    4.25
  -2  -4  -5  860.33   94.71
  -2  -4  -5 1067.65   95.12
  -2   4  -5 1238.99   95.04
   2  -4   5  858.52   94.63
   2  -4   5 1065.18   94.65
   2   4   6   59.78    6.29
  -2  -4  -6   55.24    6.27
  -2  -4  -6   76.13    6.35
  -2   4  -6   91.15    6.39
   2  -4   6   57.33    6.19
   2   4   7   16.84    1.81
   2  -4   7   17.01    1.74
   2  -4   7   16.14    1.75
   2   4   8   47.19    5.46
  -2  -4  -8   46.38    5.46
  -2  -4  -8   62.57    5.51
   2  -4   8   48.43    5.39
   2  -4   8   66.36    5.43
   2   4   9  230.40   24.84
  -2  -4  -9  257.88   24.91
   2  -4   9  237.28   24.78
   2  -4   9  268.25   24.79
   2  -4   9  251.12   24.90
   2   4  10    0.39    0.46
  -2  -4 -10    1.03    0.40
   2  -4  10    0.20    0.32
   2  -4  10    0.76    0.38
   2  -4  10    1.89    0.41
   2   4  11    4.57    0.72
   2   4  11    3.87    0.77
  -2  -4 -11    3.97    0.61
   2  -4  11    4.65    0.60
   2  -4  11    5.02    0.63
   2  -4  11    2.72    0.57
   2   4  12  111.98   12.28
  -2  -4 -12  118.63   12.19
   2  -4  12  128.89   12.19
   2  -4  12  121.45   12.13
   2  -4  12  120.94   12.14
   2   4  13   60.00    7.60
   2   4  13   79.20    7.71
   2  -4  13   58.93    7.54
   2  -4  13   79.34    7.58
   2  -4  13   79.60    7.51
   2  -4  13   87.85    7.52
   2   4  14   64.45    5.88
   2   4  14   57.37    5.88
  -2  -4 -14   51.91    5.71
   2  -4  14   69.03    5.80
   2  -4  14   51.34    5.66
   2   4  15    2.35    0.67
   2   4  15    1.54    0.79
  -2  -4 -15    1.04    0.40
   2  -4  15    1.98    0.52
   2  -4  15    0.67    0.26
   2  -4  15    0.26    0.26
   2   4  16   16.88    1.86
   2   4  16   18.21    1.95
  -2  -4 -16   13.06    1.63
   2  -4  16   15.87    1.75
   2  -4  16   16.00    1.73
   2   4  17    7.93    1.08
   2   4  17    6.24    1.14
  -2  -4 -17    4.66    0.75
   2  -4  17    6.81    0.89
   2   4  18  124.65   10.60
   2   4  18  121.49   10.60
  -2  -4 -18   89.70   10.27
  -2  -4 -18   91.80   10.27
   2  -4  18  128.01   10.51
   2  -4  18  126.05   10.45
   2   4  19   22.71    2.61
   2   4  19   23.45    2.64
   2  -4  19   21.39    2.50
   2  -4  19   22.27    2.44
   2   4  20   45.10    4.95
   2  -4  20   46.84    4.87
   2   5   0  361.72   38.49
  -2  -5   0  355.33   38.48
  -2  -5   0  435.43   38.66
  -2   5   0  437.44   38.49
   2   5   1   31.48    3.66
  -2  -5  -1   30.56    3.64
  -2  -5  -1   46.52    3.80
  -2   5  -1   30.58    3.59
  -2   5  -1   50.62    3.63
   2   5   2  300.24   33.31
  -2  -5  -2  317.15   33.32
  -2  -5  -2  364.22   33.49
  -2   5  -2  313.08   33.25
  -2   5  -2  374.90   33.26
  -2   5  -2  393.76   33.44
   2   5   3   21.17    2.37
  -2  -5  -3   19.72    2.36
  -2  -5  -3   34.45    2.52
   2   5   4  175.62   18.46
  -2  -5  -4  183.09   18.46
  -2  -5  -4  189.44   18.58
  -2   5  -4  202.74   18.56
  -2  -5  -5    0.33    0.31
  -2  -5  -5    0.20    0.39
  -2   5  -5    0.54    0.48
   2  -5   5    0.05    0.07
   2  -5   5    0.00    0.09
   2   5   6   17.08    2.07
  -2  -5  -6   15.07    2.05
  -2  -5  -6   30.33    2.20
   2  -5   6   15.77    1.97
   2  -5   6   26.93    2.00
   2   5   7   84.11    9.06
   2  -5   7   83.08    8.95
   2  -5   7   99.77    8.96
   2   5   8  502.91   51.54
  -2  -5  -8  486.85   51.58
  -2  -5  -8  519.66   51.86
   2  -5   8  503.09   51.46
   2  -5   8  548.75   51.45
   2   5   9    1.10    0.48
  -2  -5  -9    0.63    0.40
  -2  -5  -9    1.50    0.45
   2  -5   9    1.31    0.33
   2   5  10   90.73   10.65
   2   5  10  117.33   10.80
  -2  -5 -10  112.25   10.71
   2  -5  10   93.50   10.56
   2  -5  10  118.06   10.58
   2  -5  10  113.73   10.65
   2   5  11    2.79    0.67
   2   5  11    5.97    0.91
  -2  -5 -11    4.44    0.66
   2  -5  11    2.88    0.53
   2  -5  11    4.27    0.57
   2   5  12    0.16    0.69
  -2  -5 -12    0.48    0.43
   2  -5  12    0.17    0.35
   2  -5  12    0.24    0.36
   2  -5  12    0.80    0.42
   2   5  13    1.34    0.59
   2   5  13    2.30    0.80
   2  -5  13    1.06    0.44
   2  -5  13    2.30    0.47
   2  -5  13    2.58    0.49
   2   5  14    0.08    0.56
   2   5  14    1.07    0.78
  -2  -5 -14    0.43    0.44
   2  -5  14    0.33    0.41
   2  -5  14    0.34    0.41
   2  -5  14    1.04    0.38
   2   5  15    4.11    0.98
  -2  -5 -15    3.41    0.65
   2  -5  15    4.58    0.69
   2  -5  15    4.03    0.66
   2  -5  15    3.70    0.58
   2   5  16  175.22   16.84
  -2  -5 -16  162.66   16.65
   2  -5  16  191.88   16.71
   2  -5  16  191.55   16.68
   2  -5  16  155.88   16.58
   2  -5  16  148.98   16.57
   2   5  17    2.79    0.86
   2   5  17    4.19    0.99
  -2  -5 -17    2.89    0.56
   2  -5  17    2.41    0.42
   2  -5  17    2.15    0.43
   2   5  18   28.17    2.43
  -2  -5 -18   15.12    2.05
   2  -5  18   24.69    2.23
   2   5  19   10.93    1.43
   2   5  19   10.16    1.47
  -2  -5 -19    7.61    1.03
   2  -5  19    9.80    1.23
   2   5  20   10.61    1.36
   2   5  20    9.50    1.35
  -2  -5 -20    5.08    0.80
   2  -5  20    9.17    1.11
  -2   6   0    5.39    0.66
  -2  -6  -1  929.84   94.83
  -2   6  -1  976.58   94.81
  -2  -6  -2   82.93   10.27
  -2   6  -2  113.71   10.22
  -2  -6  -3    6.78    1.05
  -2   6  -3    8.73    0.97
  -2   6  -3   10.90    0.98
  -2   6  -3   13.08    1.25
  -2  -6  -4    8.40    1.14
  -2   6  -4   15.27    1.35
  -2  -6  -5    3.29    0.65
  -2   6  -5   11.85    0.95
  -2   6  -6   43.70    4.35
   2  -6   6   41.07    4.12
   2  -6   7   68.38    7.35
   2  -6   7   79.90    7.36
   2  -6   8   47.78    5.05
   2  -6   8   52.92    5.06
   2   6   9  266.81   27.84
  -2  -6  -9  270.58   27.92
   2  -6   9  268.80   27.74
   2  -6   9  293.64   27.73
   2   6  10   29.46    3.00
   2   6  10   29.24    3.09
  -2  -6 -10   27.24    2.99
   2  -6  10   28.82    2.87
   2  -6  10   28.36    2.87
   2  -6  10   23.96    2.93
   2   6  11  230.93   23.42
  -2  -6 -11  233.46   23.53
   2  -6  11  230.69   23.31
   2  -6  11  237.30   23.30
   2   6  12   23.79    2.57
  -2  -6 -12   24.65    2.47
   2  -6  12   19.88    2.32
   2  -6  12   22.75    2.34
   2  -6  12   22.89    2.40
   2   6  13    6.30    0.94
   2   6  13    4.52    1.02
   2  -6  13    5.74    0.71
   2  -6  13    4.68    0.69
   2  -6  13    4.61    0.75
   2   6  14    0.55    0.66
   2   6  14    1.03    0.82
  -2  -6 -14    0.89    0.63
   2  -6  14    0.92    0.42
   2  -6  14    1.30    0.42
   2  -6  14    0.47    0.48
   2   6  15    6.13    1.01
   2  -6  15    5.43    0.77
   2  -6  15    5.66    0.76
   2  -6  15    4.66    0.75
   2   6  16    0.43    0.70
   2  -6  16   -0.18    0.48
   2  -6  16    0.10    0.43
   2  -6  16    0.09    0.42
   2   6  17   38.33    3.87
   2   6  17   35.56    3.89
   2  -6  17   38.26    3.69
   2  -6  17   31.83    3.63
   2   6  18    0.95    0.81
   2   6  18    0.31    0.91
   2  -6  18    1.25    0.51
   2  -6  18    1.24    0.41
   2   6  19   44.89    3.83
   2   6  19   38.69    3.81
  -2  -6 -19   28.12    3.49
   2   7   0  477.94   49.20
  -2  -7   0  466.54   49.20
  -2  -7   0  557.47   49.48
  -2   7   0  475.48   49.17
  -2   7   0  558.82   49.22
   2   7   1    1.37    0.43
  -2  -7  -1    1.32    0.42
  -2   7  -1    0.82    0.29
  -2   7  -1    4.60    0.86
   2   7   2  185.92   18.77
  -2  -7  -2  180.38   18.77
  -2  -7  -2  192.85   18.94
  -2   7  -2  188.28   18.69
  -2   7  -2  203.13   18.94
   2   7   3  321.00   32.87
  -2  -7  -3  317.68   32.87
  -2  -7  -3  339.05   33.13
  -2   7  -3  327.01   32.78
  -2   7  -3  336.26   32.79
  -2   7  -3  361.64   33.08
   2   7   4  438.90   43.94
  -2  -7  -4  412.71   43.92
  -2  -7  -4  484.91   44.36
  -2   7  -4  531.89   44.24
  -2  -7  -5   17.72    1.63
  -2  -7  -5   13.66    1.70
  -2   7  -5   10.50    1.71
   2   7   6   44.53    4.60
  -2  -7  -6   44.32    4.60
  -2   7  -6   45.25    4.73
   2   7   7  200.45   15.59
   2  -7   7  147.73   15.38
   2   7   8   12.77    1.44
  -2  -7  -8   12.91    1.42
   2  -7   8   11.50    1.25
   2  -7   8   12.18    1.26
   2   7   9   86.37    8.04
  -2  -7  -9   83.48    8.04
   2  -7   9   79.03    7.86
   2  -7   9   74.96    7.86
   2   7  10   58.71    6.30
   2   7  10   66.71    6.44
   2  -7  10   55.89    6.16
   2  -7  10   64.67    6.17
   2  -7  10   69.61    6.35
   2   7  11  101.74   10.87
   2   7  11  101.93   10.96
  -2  -7 -11  106.64   10.95
   2  -7  11  111.09   10.73
   2   7  12   22.50    2.65
  -2  -7 -12   24.06    2.58
   2  -7  12   21.69    2.40
   2  -7  12   24.27    2.41
   2  -7  12   23.38    2.53
   2   7  13   29.63    2.86
  -2  -7 -13   21.45    2.77
   2  -7  13   28.67    2.68
   2  -7  13   24.45    2.65
   2  -7  13   23.56    2.75
   2   7  14    2.08    0.74
   2   7  14    1.36    0.88
  -2  -7 -14    1.71    0.72
   2  -7  14    1.86    0.48
   2  -7  14    1.52    0.44
   2   7  15    3.90    0.90
   2   7  15    3.18    1.04
  -2  -7 -15    3.38    0.84
   2  -7  15    3.92    0.65
   2  -7  15    3.91    0.61
   2   7  16   13.20    1.75
   2   7  16   15.08    1.88
  -2  -7 -16   14.61    1.69
   2  -7  16   13.69    1.55
   2  -7  16   12.67    1.51
   2   7  17   30.24    2.79
   2   7  17   23.08    2.79
  -2  -7 -17   21.91    2.60
   2  -7  17   28.07    2.56
   2  -7  17   22.61    2.49
   2  -7  17   19.76    2.49
   2   7  18   62.23    5.87
   2   7  18   56.38    5.89
   2  -7  18   63.62    5.70
   2  -7  18   46.23    5.62
   2   7  19   23.93    2.54
   2   7  19   22.37    2.57
  -2  -7 -19   18.67    2.31
   2  -7  19   19.85    2.29
   2   8   0  140.89   14.40
  -2  -8   0  146.77   14.40
  -2  -8   0  144.07   14.57
  -2   8   0  143.62   14.36
  -2   8   0  143.38   14.39
   2   8   1  331.00   34.13
  -2  -8  -1  346.90   34.14
  -2   8  -1  328.86   34.07
  -2   8  -1  356.14   34.11
  -2   8  -1  383.50   34.38
   2   8   2    3.19    0.57
  -2  -8  -2    3.56    0.56
  -2  -8  -2    3.02    0.79
  -2   8  -2    3.05    0.41
  -2   8  -2    2.58    0.42
  -2   8  -2    3.59    0.91
   2   8   3    4.46    0.72
  -2  -8  -3    4.00    0.71
  -2  -8  -3    4.96    0.93
  -2   8  -3    5.50    0.58
  -2   8  -3    6.81    1.07
   2   8   4   89.98    8.62
  -2  -8  -4   92.06    8.62
  -2  -8  -4   87.28    8.77
  -2   8  -4   82.69    8.47
  -2   8  -4   85.30    8.77
  -2  -8  -5  151.56   16.37
  -2  -8  -5  172.42   16.60
  -2   8  -5  203.81   16.73
   2   8   6   36.26    3.72
  -2  -8  -6   34.97    3.71
   2   8   7   42.41    4.40
   2   8   8   30.76    2.36
  -2  -8  -8   30.40    2.35
   2  -8   8   19.06    2.09
   2  -8   8   20.83    2.09
   2   8   9    0.20    0.54
  -2  -8  -9    0.30    0.50
   2  -8   9    0.33    0.19
   2  -8   9    0.26    0.19
   2   8  10   57.23    5.58
   2  -8  10   51.63    5.39
   2  -8  10   58.84    5.61
   2   8  11   41.42    3.92
  -2  -8 -11   31.83    3.91
   2   8  12   28.74    3.62
  -2  -8 -12   31.02    3.58
   2  -8  12   35.51    3.40
   2  -8  12   33.35    3.39
   2  -8  12   32.09    3.54
   2   8  13   55.34    6.34
   2   8  13   68.14    6.49
  -2  -8 -13   66.94    6.43
   2  -8  13   56.78    6.20
   2  -8  13   62.89    6.20
   2  -8  13   67.21    6.37
   2   8  14  113.82   11.70
   2   8  14  110.97   11.77
  -2  -8 -14  113.15   11.73
   2  -8  14  116.20   11.53
   2  -8  14  116.42   11.52
   2  -8  14  113.91   11.65
   2   8  15    3.14    0.84
   2   8  15    2.09    0.98
  -2  -8 -15    3.19    0.85
   2  -8  15    2.87    0.54
   2  -8  15    1.75    0.47
   2  -8  15    2.30    0.75
   2   8  16   14.20    1.77
   2   8  16   14.31    1.91
  -2  -8 -16   14.81    1.75
   2  -8  16   13.34    1.53
   2  -8  16   13.01    1.50
   2   8  17    0.62    1.01
  -2  -8 -17    2.22    0.84
   2  -8  17    3.02    0.60
   2  -8  17    2.23    0.50
   2  -8  17    2.02    0.72
   2   8  18   30.32    3.11
   2   8  18   25.67    3.15
   2  -8  18   32.90    2.91
   2  -8  18   20.80    2.87
   2   9   0   17.50    1.97
  -2  -9   0   15.66    1.95
  -2  -9   0   20.99    2.19
  -2   9   0   17.41    1.93
  -2   9   0   21.43    1.99
  -2   9   0   24.18    2.30
   2   9   1  256.31   25.97
  -2  -9  -1  242.21   25.96
  -2   9  -1  245.38   25.91
  -2   9  -1  291.58   25.96
  -2   9  -1  334.19   26.33
   2   9   2   15.81    1.53
  -2  -9  -2   18.09    1.54
  -2  -9  -2   10.17    1.64
  -2   9  -2   16.81    1.44
  -2   9  -2   10.57    1.43
  -2   9  -2    5.45    1.65
   2   9   3  180.53   19.16
  -2  -9  -3  178.41   19.16
  -2  -9  -3  200.97   19.41
  -2   9  -3  187.43   19.07
  -2   9  -3  207.37   19.10
  -2   9  -3  218.44   19.47
   2   9   4    2.34    0.57
  -2  -9  -4    2.38    0.56
  -2  -9  -4    4.98    0.87
  -2   9  -4    2.62    0.38
  -2   9  -4    3.33    0.39
  -2   9  -4    7.57    1.04
  -2  -9  -5    9.69    1.20
  -2  -9  -5   10.86    1.39
   2   9   6   41.44    4.29
  -2  -9  -6   41.21    4.29
   2   9   7   20.61    2.26
   2   9   8   71.22    7.13
  -2  -9  -8   67.93    7.13
   2   9   9  111.67   11.32
   2   9  10    2.54    0.69
   2   9  10    4.19    0.92
  -2  -9 -10    3.61    0.86
   2  -9  10    1.63    0.27
   2  -9  10    1.83    0.28
   2  -9  10    3.52    0.80
   2   9  11  189.57   15.52
   2   9  11  177.49   15.66
  -2  -9 -11  179.80   15.70
   2  -9  11  140.66   15.27
  -2  -9 -12    4.34    1.00
   2  -9  12    5.16    0.56
   2  -9  12    3.74    0.54
   2  -9  12    4.47    0.94
   2   9  13   45.03    4.27
   2   9  13   34.75    4.31
  -2  -9 -13   35.30    4.26
   2  -9  13   43.11    4.06
   2  -9  13   39.40    4.05
   2  -9  13   35.72    4.22
   2   9  14  122.74   11.43
   2   9  14  111.53   11.50
   2  -9  14  108.81   11.20
   2  -9  14  109.28   11.19
   2  -9  14  116.98   11.39
   2   9  15   46.50    4.07
   2   9  15   31.06    4.06
  -2  -9 -15   32.55    3.99
   2  -9  15   40.33    3.81
   2  -9  15   32.25    3.93
   2   9  16   11.50    1.47
   2   9  16    7.01    1.55
  -2  -9 -16    7.28    1.42
   2  -9  16   11.33    1.18
   2   9  17   22.70    2.59
  -2  -9 -17   22.50    2.43
   2  -9  17   19.20    2.17
   2  -9  17   19.66    2.31
   2  10   0   96.10   10.04
  -2 -10   0   92.78   10.03
  -2 -10   0  106.66   10.27
  -2  10   0   94.92   10.00
  -2  10   0  110.91   10.06
  -2  10   0  120.21   10.38
   2  10   1   16.82    1.67
  -2 -10  -1   17.97    1.66
  -2  10  -1   15.10    1.59
  -2  10  -1   12.62    1.61
  -2  10  -1   10.44    1.88
   2  10   2    0.45    0.44
  -2 -10  -2    0.47    0.41
  -2 -10  -2    0.72    0.74
  -2  10  -2    0.44    0.29
  -2  10  -2    1.24    0.87
   2  10   3    0.21    0.45
  -2 -10  -3    0.55    0.43
  -2 -10  -3    0.66    0.73
  -2  10  -3    0.61    0.27
  -2  10  -3    0.59    0.33
  -2  10  -3    0.07    0.84
   2  10   4   60.39    6.61
  -2 -10  -4   59.48    6.60
  -2 -10  -4   68.91    6.80
  -2  10  -4   62.63    6.49
  -2  10  -4   70.82    6.51
  -2  10  -4   73.50    6.91
  -2 -10  -5   49.45    3.57
  -2 -10  -5   36.21    3.67
  -2  10  -5   30.49    3.34
   2  10   6  295.29   30.21
  -2 -10  -6  308.05   30.23
  -2 -10  -6  311.09   30.55
   2  10   7    9.20    1.12
  -2 -10  -7    7.50    1.28
   2  10   8  203.24   20.05
  -2 -10  -8  194.95   20.08
   2  10   9    4.32    0.84
  -2 -10  -9    5.31    1.04
   2  10  10    7.35    1.02
   2  10  10    5.75    1.17
  -2 -10 -10    6.01    1.15
   2 -10  10    5.50    1.08
   2  10  11   65.60    6.44
   2  10  11   58.96    6.53
  -2 -10 -11   60.03    6.52
   2  10  12  186.29   13.27
  -2 -10 -12  190.69   13.31
   2 -10  12  117.54   12.71
   2 -10  12  122.80   12.71
   2 -10  12  184.38   13.13
   2  10  13  108.84    8.96
   2  10  13   92.73    9.03
  -2 -10 -13   92.05    9.00
   2 -10  13   85.50    8.66
   2 -10  13   80.55    8.65
   2 -10  13   95.19    8.94
   2  10  14    1.44    0.75
   2  10  14    0.29    0.91
   2 -10  14    1.14    0.32
   2 -10  14    0.58    0.33
   2 -10  14   -0.06    0.79
   2  10  15   51.81    5.02
   2  10  15   50.01    5.15
  -2 -10 -15   49.26    5.06
   2 -10  15   47.32    4.78
   2 -10  15   44.46    4.76
   2 -10  15   46.81    4.98
   2  10  16    2.01    0.85
  -2 -10 -16    1.67    0.98
   2 -10  16    1.82    0.44
   2 -10  16    1.38    0.39
   2  11   0   16.10    1.80
  -2 -11   0   15.40    1.78
  -2 -11   0   15.22    2.02
  -2  11   0   17.74    1.76
  -2  11   0   16.51    1.80
  -2  11   0   16.47    2.12
   2  11   1    0.23    0.45
  -2 -11  -1    0.64    0.42
  -2  11  -1    0.23    0.33
  -2  11  -1    1.80    0.95
   2  11   2  208.80   21.02
  -2 -11  -2  204.36   21.01
  -2 -11  -2  216.10   21.28
  -2  11  -2  199.52   20.93
  -2  11  -2  230.01   20.99
  -2  11  -2  221.86   21.42
   2  11   3    4.19    0.67
  -2 -11  -3    4.80    0.66
  -2 -11  -3    1.75    0.89
  -2  11  -3    3.81    0.48
  -2  11  -3    2.10    0.52
   2  11   4   46.45    4.59
  -2 -11  -4   44.76    4.57
  -2 -11  -4   46.59    4.77
  -2  11  -4   43.01    4.45
  -2  11  -4   44.01    4.47
  -2 -11  -5    5.12    0.84
  -2 -11  -5    7.38    1.17
  -2  11  -5    6.07    0.68
   2  11   6   39.77    4.28
  -2 -11  -6   42.29    4.29
  -2 -11  -6   41.69    4.46
   2  11   7   23.69    2.69
  -2 -11  -7   27.85    2.91
   2  11   8  166.15   16.80
  -2 -11  -8  168.11   16.85
   2  11   9   30.45    2.50
   2  11   9   18.24    2.56
  -2 -11  -9   17.79    2.53
   2 -11   9   19.10    2.51
   2  11  10  338.63   33.43
   2  11  10  331.76   33.65
  -2 -11 -10  331.68   33.71
   2 -11  10  328.18   33.60
   2  11  11   50.83    5.57
   2  11  11   54.21    5.74
  -2 -11 -11   57.49    5.74
   2  11  12    3.66    0.86
   2  11  12    2.53    1.01
  -2 -11 -12    2.91    1.05
   2 -11  12    3.42    0.94
   2  11  13    0.73    0.70
  -2 -11 -13   -0.14    0.92
   2 -11  13    0.00    0.13
   2 -11  13    0.00    0.11
   2 -11  13    0.22    0.81
   2  11  14    0.15    0.71
   2 -11  14    0.05    0.21
   2 -11  14    0.11    0.22
   2 -11  14    0.01    0.83
   2  11  15    0.70    0.76
   2  11  15    1.19    0.96
  -2 -11 -15    0.86    0.99
   2 -11  15    0.47    0.26
   2 -11  15    0.68    0.29
   2 -11  15    1.02    0.84
   2  12   0    0.67    0.47
  -2 -12   0    0.70    0.43
  -2 -12   0    0.67    0.85
  -2  12   0    0.48    0.37
  -2  12   0    0.00    0.95
   2  12   1   31.81    3.21
  -2 -12  -1   29.47    3.18
  -2  12  -1   31.34    3.14
  -2  12  -1   26.23    3.46
   2  12   2    0.28    0.47
  -2 -12  -2    0.20    0.43
  -2 -12  -2    0.17    0.82
  -2  12  -2    0.34    0.33
  -2  12  -2    0.07    0.43
   2  12   3    2.12    0.60
  -2 -12  -3    1.76    0.56
  -2 -12  -3    2.48    0.94
  -2  12  -3    2.77    0.43
  -2  12  -3    3.03    0.51
   2  12   4    7.76    1.04
  -2 -12  -4    7.69    1.00
  -2 -12  -4    7.81    1.31
  -2  12  -4    7.14    0.86
  -2  12  -4    8.72    0.91
  -2 -12  -5    9.02    1.00
  -2 -12  -5    7.70    1.29
  -2  12  -5    6.95    0.80
  -2  12  -5    7.15    0.82
   2  12   6    0.65    0.52
  -2 -12  -6    0.92    0.51
  -2 -12  -6    0.32    0.85
   2  12   7   48.05    5.02
  -2 -12  -7   48.81    5.20
   2  12   8    0.24    0.58
   2  12   9   78.45    8.12
   2  12   9   80.15    8.32
  -2 -12  -9   74.88    8.28
   2 -12   9   85.09    8.30
   2  12  10   75.91    7.08
   2  12  10   64.89    7.21
  -2 -12 -10   64.72    7.20
   2 -12  10   64.93    7.16
   2  12  11    9.54    1.32
  -2 -12 -11    9.38    1.54
   2  12  12    3.79    0.83
   2  12  12    1.74    0.99
  -2 -12 -12    1.01    1.01
   2 -12  12    1.70    0.91
   2  12  13   47.27    4.63
   2  12  13   40.81    4.77
  -2 -12 -13   43.13    4.74
   2 -12  13   41.12    4.67
   2  12  14   16.08    1.88
   2  12  14   14.26    2.05
   2 -12  14   13.65    1.93
   2  13   0   22.19    2.38
  -2 -13   0   19.85    2.35
  -2 -13   0   25.07    2.69
  -2  13   0   22.15    2.33
  -2  13   0   23.90    2.41
   2  13   1   41.89    4.44
  -2 -13  -1   44.87    4.44
  -2  13  -1   44.56    4.39
  -2  13  -1   39.92    4.42
   2  13   2    3.68    0.71
  -2 -13  -2    3.50    0.66
  -2 -13  -2    5.22    1.11
  -2  13  -2    3.56    0.56
  -2  13  -2    4.62    0.66
   2  13   3   29.24    2.97
  -2 -13  -3   31.91    2.97
  -2 -13  -3   25.82    3.18
  -2  13  -3   28.37    2.87
  -2  13  -3   24.48    2.89
   2  13   4    0.13    0.52
  -2 -13  -4    0.30    0.47
  -2 -13  -4    0.82    0.91
  -2 -13  -5   20.70    1.89
  -2 -13  -5   16.04    2.12
  -2  13  -5   16.49    1.71
  -2  13  -5   14.96    1.72
   2  13   6    0.44    0.54
  -2 -13  -6    0.39    0.51
  -2 -13  -6   -0.33    0.91
   2  13   7  157.98   15.39
  -2 -13  -7  141.23   15.59
   2  13   8   46.99    5.12
   2 -13   8   54.21    5.36
   2  13   9    0.33    0.64
   2  13   9    0.52    0.93
  -2 -13  -9    0.03    0.96
   2 -13   9   -0.04    0.87
   2  13  10   10.42    1.36
   2  13  10    8.30    1.58
  -2 -13 -10   10.64    1.63
   2 -13  10   10.78    1.57
   2  13  11    0.67    0.68
   2  13  11   -0.27    0.90
  -2 -13 -11    0.38    1.00
   2  13  12    9.12    1.24
   2  13  12    7.11    1.44
  -2 -13 -12    8.38    1.50
   2 -13  12    7.36    1.38
   2  14   0   33.85    3.35
  -2 -14   0   29.79    3.60
  -2  14   0   31.97    3.29
  -2  14   0   30.01    3.35
   2  14   1    6.52    0.89
  -2 -14  -1    6.73    0.86
  -2  14  -1    6.04    0.78
  -2  14  -1    5.00    0.88
   2  14   2    1.58    0.55
  -2 -14  -2    0.98    0.49
  -2 -14  -2    2.47    1.03
  -2  14  -2    0.87    0.39
  -2  14  -2    1.28    0.52
   2  14   3    0.46    0.54
  -2 -14  -3    0.47    0.48
  -2 -14  -3    0.11    0.94
  -2  14  -3    0.30    0.34
  -2  14  -3    0.57    0.48
   2  14   4   56.34    5.69
  -2 -14  -4   58.15    5.68
  -2 -14  -4   49.13    5.88
  -2  14  -4   54.43    5.59
  -2 -14  -5    0.19    0.49
  -2 -14  -5    0.75    0.97
  -2  14  -5    0.07    0.26
  -2  14  -5    0.21    0.33
   2  14   6    0.35    0.57
  -2 -14  -6    0.10    0.50
  -2 -14  -6    0.89    0.97
   2  14   7    0.66    0.57
  -2 -14  -7    0.29    0.96
   2  14   8   11.46    1.40
   2  14   8   10.27    1.66
   2 -14   8    9.98    1.63
   2  14   9   10.11    1.30
   2  14   9    9.35    1.58
  -2 -14  -9    9.05    1.58
   2 -14   9    8.50    1.52
   2  14  10   43.55    4.00
   2  14  10   33.81    4.16
  -2 -14 -10   31.91    4.14
   2 -14  10   36.32    4.14
   2  15   0    1.98    0.57
  -2 -15   0    2.03    1.06
  -2  15   0    2.78    0.52
  -2  15   0    1.54    0.65
   2  15   1    1.61    0.56
  -2 -15  -1    1.40    0.50
  -2  15  -1    1.45    0.45
  -2  15  -1    2.01    0.62
   2  15   2    1.41    0.57
  -2 -15  -2    1.85    0.53
  -2 -15  -2    1.08    1.02
  -2  15  -2    1.75    0.43
  -2  15  -2    1.15    0.56
   2  15   3    0.51    0.54
  -2 -15  -3    0.20    0.47
  -2 -15  -3    0.42    0.99
  -2  15  -3   -0.16    0.49
   2  15   4   23.21    2.29
  -2 -15  -4   20.82    2.24
  -2 -15  -4   20.27    2.57
  -2  15  -4   20.02    2.13
  -2  15  -4   19.45    2.16
  -2 -15  -5    2.85    0.61
  -2 -15  -5    1.59    1.08
  -2  15  -5    1.96    0.36
  -2  15  -5    2.16    0.42
   2  15   6    3.92    0.76
  -2 -15  -6    2.88    1.15
   2  15   7    0.19    0.57
   2  15   7   -0.68    0.66
  -2 -15  -7    0.03    1.00
   2 -15   7   -0.31    0.96
   2  15   8    0.33    0.97
   2 -15   8    0.71    1.00
  -2 -16   0    9.81    1.66
  -2  16  -1   16.92    1.92
  -2 -16  -2    0.68    1.02
  -2  16  -2    0.45    0.55
  -2 -16  -3    2.92    1.14
  -2  16  -3    2.76    0.62
  -2 -16  -4   -0.05    1.01
  -2  16  -4    0.11    0.33
  -2  16  -4   -0.04    0.42
   3   0   0    0.33    0.28
   3   0   0    0.20    0.35
  -3   0   0    0.38    0.28
   3   0   1 1562.03  143.25
   3   0   1 1931.48  143.49
  -3   0  -1 1123.18  143.19
  -3   0  -1 1920.61  143.48
   3   0   2    0.23    0.25
   3   0   2   -0.05    0.31
  -3   0  -2    0.14    0.32
   3   0   3  402.51   45.64
   3   0   3  505.16   45.67
  -3   0  -3  515.20   45.69
   3   0   4    0.04    0.26
  -3   0  -4    0.10    0.27
   3   0   5  730.14   74.36
  -3   0  -5  769.58   74.39
   3   0   6   -0.01    0.27
   3   0   6    0.09    0.23
   3   0   7   84.21   10.77
   3   0   7  106.41   10.72
  -3   0  -7  127.06   10.73
   3   0   8   -0.02    0.35
   3   0   8    0.00    0.17
  -3   0  -8    0.01    0.16
  -3   0  -8    0.01    0.21
   3   0   9 2045.58  207.72
   3   0   9 2372.35  208.90
   3   0  10    0.23    0.40
   3   0  10   -0.34    0.44
   3   0  11  165.70   17.03
   3   0  11  174.78   17.06
   3   0  12   -0.10    0.47
   3   0  13  139.14   13.63
   3   0  13  130.95   13.62
   3   0  14   -0.20    0.50
   3   0  14   -0.14    0.50
   3   0  15    1.63    0.68
   3   0  15    5.88    0.79
   3   0  16    0.55    0.59
   3   0  16   -0.25    0.58
   3   0  17  111.22   11.32
   3   0  18    0.04    0.64
   3   0  19  263.12   26.47
   3   0  20    0.22    0.72
   3   0  20    0.03    0.65
   3   1   0   11.92    1.15
   3   1   0   12.74    1.17
  -3  -1   0   11.12    1.14
  -3   1   0   11.31    1.12
   3  -1   0    7.04    1.08
   3  -1   0   13.49    1.19
   3   1   1  759.88   82.57
   3   1   1  967.03   82.65
  -3  -1  -1  731.22   82.56
  -3  -1  -1  975.65   82.69
  -3   1  -1  788.64   82.55
  -3   1  -1 1042.52   82.71
   3  -1   1  785.12   82.56
   3  -1   1 1019.76   82.72
   3   1   2   19.48    2.54
   3   1   2   33.64    2.59
  -3  -1  -2   18.17    2.53
  -3  -1  -2   34.44    2.62
  -3   1  -2   21.40    2.53
   3  -1   2   23.23    2.53
   3  -1   2   40.26    2.61
   3   1   3   11.83    1.39
   3   1   3   16.39    1.42
  -3  -1  -3   10.76    1.38
  -3  -1  -3   17.21    1.44
  -3   1  -3   10.14    1.36
  -3   1  -3   17.34    1.45
   3  -1   3   11.32    1.37
   3  -1   3   17.17    1.43
   3   1   4  320.41   34.19
  -3  -1  -4  324.22   34.19
  -3  -1  -4  421.65   34.24
  -3   1  -4  323.48   34.17
  -3   1  -4  454.26   34.25
   3  -1   4  320.07   34.17
   3   1   5  311.79   28.70
  -3  -1  -5  233.16   28.70
  -3  -1  -5  330.25   28.72
  -3   1  -5  242.94   28.68
  -3   1  -5  344.82   28.72
   3  -1   5  332.21   28.71
   3   1   6  323.08   34.28
   3   1   6  404.22   34.28
  -3  -1  -6  314.95   34.28
  -3   1  -6  312.80   34.27
   3  -1   6  319.31   34.26
   3  -1   6  456.04   34.30
   3   1   7  141.18   17.31
   3   1   7  176.23   17.30
  -3  -1  -7  187.05   17.28
  -3   1  -7  196.78   17.27
   3  -1   7  145.68   17.29
   3  -1   7  192.22   17.27
   3   1   8  236.10   27.14
  -3  -1  -8  237.59   27.15
  -3  -1  -8  296.28   27.10
  -3   1  -8  303.98   27.09
   3  -1   8  249.76   27.13
   3  -1   8  291.77   27.08
   3   1   9    9.11    0.90
  -3  -1  -9    8.52    0.88
  -3  -1  -9    4.59    0.73
   3  -1   9    8.97    0.87
   3  -1   9    7.23    0.87
   3   1  10   26.00    3.34
   3   1  10   33.64    3.42
  -3  -1 -10   32.75    3.24
  -3  -1 -10   35.41    3.25
   3  -1  10   27.29    3.34
   3  -1  10   33.04    3.38
   3   1  11    6.11    0.98
   3   1  11   11.07    1.09
   3  -1  11    5.46    0.95
   3  -1  11   11.47    1.05
   3   1  12   43.54    4.57
   3  -1  12   44.06    4.54
   3   1  13  328.94   33.28
   3   1  13  339.36   33.31
   3  -1  13  326.45   33.26
   3  -1  13  338.30   33.27
   3   1  14  156.19   15.43
   3   1  14  146.87   15.42
   3  -1  14  157.76   15.41
   3  -1  14  150.75   15.39
   3   1  15    0.20    0.55
   3   1  15    1.03    0.58
   3  -1  15    0.55    0.54
   3  -1  15    0.20    0.54
   3   1  16    6.91    1.05
   3  -1  16    7.05    1.03
   3  -1  16    6.73    1.01
   3   1  17   74.35    7.70
   3  -1  17   74.99    7.66
   3   1  18  316.64   31.32
   3   1  18  303.24   31.27
   3  -1  18  325.46   31.31
   3  -1  18  305.44   31.24
   3   1  19    4.45    0.93
   3   1  19    3.35    0.88
   3  -1  19    4.57    0.92
   3  -1  19    3.78    0.83
   3   1  20  139.38   14.53
   3   1  20  137.70   14.47
   3  -1  20  146.20   14.53
   3  -1  20  147.43   14.46
   3   2   0 2937.52  310.94
  -3  -2   0 3007.77  310.98
  -3   2   0 3342.08  310.96
   3  -2   0 3244.56  310.95
   3   2   1  630.70   71.26
  -3  -2  -1  638.19   71.27
  -3  -2  -1  823.74   71.37
  -3   2  -1  680.56   71.24
  -3   2  -1  933.98   71.42
   3  -2   1  724.27   71.25
   3  -2   1  942.47   71.42
   3   2   2 2633.14  280.77
   3   2   2 3073.92  280.97
  -3  -2  -2 2574.97  280.72
  -3  -2  -2 3091.41  280.99
  -3   2  -2 2673.71  280.74
  -3   2  -2 3364.63  281.13
   3  -2   2 2775.50  280.77
   3  -2   2 3460.45  281.15
   3   2   3  177.02   18.02
   3   2   3  176.19   18.02
  -3  -2  -3  182.47   18.03
  -3  -2  -3  172.70   18.03
  -3   2  -3  180.10   17.98
  -3   2  -3  176.21   18.03
   3  -2   3  188.29   17.99
   3  -2   3  187.79   18.03
   3   2   4  167.00   17.70
  -3  -2  -4  170.61   17.70
  -3  -2  -4  196.93   17.71
  -3   2  -4  170.04   17.65
  -3   2  -4  212.41   17.72
   3  -2   4  168.35   17.65
   3   2   5   70.15    7.25
  -3  -2  -5   69.14    7.27
  -3  -2  -5   72.45    7.25
  -3   2  -5   71.77    7.22
  -3   2  -5   69.00    7.25
   3  -2   5   79.76    7.25
   3   2   6    1.18    0.38
   3   2   6    3.74    0.39
  -3  -2  -6    0.86    0.34
  -3   2  -6    0.96    0.27
   3  -2   6    1.06    0.30
   3   2   7  592.32   66.92
  -3  -2  -7  734.32   66.94
  -3   2  -7  765.85   66.95
   3  -2   7  596.57   66.89
   3  -2   7  814.40   66.98
   3   2   8  623.14   68.94
  -3  -2  -8  607.58   68.95
  -3  -2  -8  736.26   68.93
  -3  -2  -8  789.14   69.30
  -3   2  -8  784.45   68.97
   3  -2   8  630.65   68.90
   3  -2   8  727.70   69.02
   3  -2   8  816.39   68.94
   3   2   9   83.43    6.82
  -3  -2  -9   87.62    6.83
  -3  -2  -9   66.16    6.68
  -3  -2  -9   50.90    6.67
   3  -2   9   86.48    6.76
   3  -2   9   60.99    6.66
   3   2  10  248.05   28.13
  -3  -2 -10  295.37   28.06
  -3  -2 -10  303.12   28.07
   3  -2  10  253.03   28.09
   3  -2  10  295.14   28.13
   3  -2  10  289.56   28.03
   3   2  11   22.70    2.80
   3   2  11   26.96    2.86
  -3  -2 -11   29.49    2.71
   3  -2  11   23.89    2.76
   3  -2  11   27.00    2.79
   3   2  12    3.55    0.71
  -3  -2 -12    3.11    0.48
   3  -2  12    4.20    0.63
   3  -2  12    4.13    0.65
   3   2  13   20.37    2.19
   3  -2  13   22.31    2.16
   3  -2  13   16.76    2.12
   3   2  14  102.86   10.44
   3   2  14   97.39   10.43
   3  -2  14  111.10   10.41
   3  -2  14   98.85   10.38
   3   2  15  168.78   17.24
   3   2  15  163.46   17.23
   3  -2  15  180.18   17.21
   3  -2  15  170.17   17.18
   3   2  16  397.76   40.01
   3   2  16  380.23   39.99
   3  -2  16  421.77   39.98
   3  -2  16  399.16   39.94
   3   2  17   37.02    4.11
   3  -2  17   39.79    4.07
   3   2  18    6.39    1.13
   3   2  18    9.14    1.24
   3  -2  18    5.97    1.08
   3  -2  18    8.21    1.08
   3   2  19    4.47    0.96
   3   2  19    4.84    1.02
   3  -2  19    5.18    0.93
   3  -2  19    3.98    0.83
   3   2  20   67.23    6.88
   3   2  20   57.72    6.80
   3  -2  20   73.77    6.87
   3   3   0  159.95   16.95
  -3  -3   0  150.63   16.94
  -3   3   0  171.93   16.92
  -3   3   0  196.88   17.03
   3  -3   0  180.54   16.93
   3   3   1 1301.35  147.93
  -3  -3  -1 1320.67  147.94
  -3  -3  -1 1739.11  148.11
  -3   3  -1 1516.85  147.94
  -3   3  -1 2008.07  148.21
   3  -3   1 1565.04  147.95
   3   3   2    3.38    0.50
  -3  -3  -2    3.04    0.48
  -3  -3  -2    2.17    0.54
  -3   3  -2    3.33    0.38
  -3   3  -2    2.45    0.57
   3  -3   2    3.12    0.39
   3   3   3 1281.12  137.13
  -3  -3  -3 1290.48  137.14
  -3  -3  -3 1646.58  137.31
  -3   3  -3 1282.79  137.07
  -3   3  -3 1863.16  137.42
   3  -3   3 1457.63  137.13
   3   3   4  137.87   15.03
  -3  -3  -4  139.17   15.03
  -3  -3  -4  198.53   15.09
  -3   3  -4  135.06   14.96
  -3   3  -4  233.16   15.12
   3  -3   4  146.04   14.96
  -3  -3  -5  354.35   37.51
  -3  -3  -5  401.11   37.53
  -3   3  -5  356.91   37.46
  -3   3  -5  410.86   37.53
   3   3   6   27.27    2.82
  -3  -3  -6   26.96    2.82
  -3  -3  -6   28.28    2.82
   3  -3   6   24.78    2.76
   3  -3   6   29.53    2.81
   3   3   7  133.95   15.53
  -3  -3  -7  124.42   15.52
  -3  -3  -7  176.72   15.53
  -3   3  -7  201.76   15.54
   3  -3   7  126.96   15.46
   3  -3   7  170.08   15.51
   3  -3   7  207.52   15.54
   3   3   8   55.18    7.31
  -3  -3  -8   48.61    7.29
  -3  -3  -8   84.32    7.31
  -3   3  -8  110.06    7.37
   3  -3   8   55.15    7.26
   3  -3   8   85.44    7.31
   3  -3   8  105.55    7.32
   3   3   9  317.39   33.19
  -3  -3  -9  320.66   33.21
  -3  -3  -9  345.63   33.15
   3  -3   9  318.34   33.12
   3  -3   9  358.39   33.15
   3   3  10  162.45   18.84
  -3  -3 -10  155.23   18.86
  -3  -3 -10  197.64   18.79
   3  -3  10  171.28   18.79
   3  -3  10  207.23   18.82
   3  -3  10  220.82   18.78
   3   3  11   85.38    9.25
  -3  -3 -11   93.62    9.17
  -3  -3 -11   94.11    9.16
   3  -3  11   82.11    9.19
   3  -3  11   96.60    9.23
   3  -3  11   87.12    9.13
   3  -3  11   97.64    9.14
   3   3  12   43.28    4.57
  -3  -3 -12   41.59    4.42
   3  -3  12   52.00    4.51
   3  -3  12   41.78    4.37
   3   3  13    3.94    0.87
   3   3  13    7.49    0.98
  -3  -3 -13    7.19    0.74
  -3  -3 -13    7.87    0.77
   3  -3  13    3.15    0.78
   3   3  14    9.92    1.20
   3   3  14    9.90    1.22
  -3  -3 -14    8.75    0.97
  -3  -3 -14    6.81    0.97
   3  -3  14   10.87    1.12
   3  -3  14    9.62    1.11
   3   3  15   10.47    1.31
   3   3  15   12.95    1.43
  -3  -3 -15    9.52    1.06
  -3  -3 -15    8.28    1.06
   3  -3  15   12.22    1.26
   3  -3  15   11.35    1.24
   3   3  16   55.47    5.89
   3   3  16   56.50    5.91
   3  -3  16   59.86    5.85
   3  -3  16   54.23    5.81
   3   3  17   20.02    2.28
   3  -3  17   18.64    2.13
   3   3  18    8.98    1.31
   3   3  18    8.58    1.35
   3  -3  18    9.83    1.25
   3  -3  18    8.42    1.16
   3   3  19   51.00    5.71
   3   3  19   57.50    5.73
   3  -3  19   50.89    5.64
   3  -3  19   56.98    5.62
   3   3  20   37.06    4.12
   3   3  20   39.10    4.10
   3  -3  20   36.81    4.04
   3   4   0  741.01   77.25
  -3  -4   0  730.83   77.25
  -3   4   0  807.10   77.23
  -3   4   0  880.11   77.39
   3   4   1   46.72    5.77
  -3  -4  -1   45.47    5.76
  -3  -4  -1   63.23    5.85
  -3   4  -1   57.04    5.71
  -3   4  -1   80.52    5.92
   3  -4   1   63.18    5.72
   3   4   2  127.75   13.31
  -3  -4  -2  132.15   13.31
  -3  -4  -2  127.20   13.35
  -3   4  -2  137.07   13.23
  -3   4  -2  122.34   13.36
   3  -4   2  135.59   13.24
   3   4   3  631.40   67.44
  -3  -4  -3  641.03   67.44
  -3  -4  -3  789.05   67.55
  -3   4  -3  602.45   67.36
  -3   4  -3  873.82   67.58
   3  -4   3  753.68   67.39
   3   4   4  825.69   90.06
  -3  -4  -4  874.11   90.08
  -3  -4  -4  978.82   90.16
  -3   4  -4  839.12   90.03
  -3   4  -4 1114.62   90.21
   3  -4   4  938.63   90.01
   3   4   5   95.69   11.25
  -3  -4  -5   96.39   11.26
  -3  -4  -5  122.12   11.30
  -3   4  -5  136.00   11.32
   3  -4   5  118.26   11.19
   3   4   6   91.32    9.32
  -3  -4  -6   88.29    9.32
  -3  -4  -6   96.54    9.34
   3  -4   6   87.80    9.22
   3  -4   6   99.40    9.24
   3   4   7  545.10   58.73
  -3  -4  -7  528.39   58.73
  -3   4  -7  793.04   58.91
   3  -4   7  545.68   58.65
   3  -4   7  701.76   58.70
   3   4   8    1.10    0.47
  -3  -4  -8    1.12    0.40
  -3  -4  -8    2.27    0.45
  -3   4  -8    2.87    0.49
   3  -4   8    0.80    0.31
   3  -4   8    1.69    0.37
   3   4   9  171.24   18.36
  -3  -4  -9  164.76   18.36
  -3  -4  -9  220.22   18.37
   3  -4   9  162.08   18.27
   3  -4   9  212.92   18.31
   3   4  10    5.57    0.82
  -3  -4 -10    6.04    0.82
  -3  -4 -10    5.03    0.74
   3  -4  10    5.80    0.71
   3  -4  10    5.83    0.74
   3   4  11    3.24    0.75
   3   4  11    5.55    0.89
  -3  -4 -11    5.66    0.70
   3  -4  11    3.34    0.65
   3  -4  11    5.33    0.70
   3  -4  11    6.01    0.67
   3  -4  11    5.76    0.67
   3   4  12   90.88    9.52
  -3  -4 -12   88.94    9.37
   3  -4  12  108.32    9.40
   3  -4  12  101.57    9.40
   3  -4  12   88.54    9.34
   3  -4  12   85.93    9.33
   3   4  13    1.30    0.57
   3   4  13    0.86    0.72
  -3  -4 -13    0.13    0.36
   3  -4  13    1.24    0.43
   3  -4  13    0.53    0.43
   3  -4  13    0.31    0.35
   3  -4  13    0.30    0.31
   3   4  14    6.68    1.00
   3   4  14    7.64    1.13
  -3  -4 -14    6.74    0.82
   3  -4  14    5.81    0.87
   3  -4  14    7.54    0.89
   3  -4  14    6.04    0.74
   3   4  15    8.15    1.17
   3   4  15    9.11    1.29
  -3  -4 -15    7.94    0.97
   3  -4  15    8.01    1.05
   3   4  16    6.27    1.04
   3   4  16    9.08    1.21
  -3  -4 -16    5.87    0.79
  -3  -4 -16    5.52    0.81
   3  -4  16    8.39    0.97
   3   4  17   35.82    3.15
  -3  -4 -17   24.65    2.80
  -3  -4 -17   24.61    2.80
   3  -4  17   35.44    2.96
   3   4  18    2.31    0.76
   3   4  18    1.93    0.87
  -3  -4 -18    0.37    0.21
  -3  -4 -18    0.00    0.17
   3  -4  18    1.80    0.63
   3  -4  18    1.93    0.56
   3   4  19   59.77    6.32
   3   4  19   58.53    6.31
   3  -4  19   63.98    6.25
   3  -4  19   58.10    6.17
   3   4  20    2.34    0.87
   3  -4  20    2.22    0.75
   3   5   0  820.04   83.28
  -3  -5   0  808.03   83.27
  -3   5   0  853.54   83.24
  -3   5   0  841.83   83.37
   3  -5   0  865.46   83.28
   3   5   1   45.81    4.76
  -3  -5  -1   45.96    4.76
  -3  -5  -1   43.70    4.81
  -3   5  -1   48.89    4.69
  -3   5  -1   45.17    4.83
   3   5   2  732.92   79.70
  -3  -5  -2  744.97   79.69
  -3  -5  -2  862.56   79.83
  -3   5  -2  822.15   79.63
  -3   5  -2  913.70   79.84
   3  -5   2  825.31   79.75
   3   5   3   38.02    4.04
  -3  -5  -3   38.53    4.04
  -3  -5  -3   38.27    4.09
  -3   5  -3   44.19    4.13
  -3  -5  -4  170.11   18.01
  -3  -5  -4  182.94   18.07
  -3   5  -4  192.67   18.08
   3   5   5  182.16   18.78
  -3  -5  -5  180.33   18.78
  -3  -5  -5  194.63   18.83
  -3   5  -5  199.20   18.83
   3   5   6  146.35   14.67
  -3  -5  -6  138.78   14.66
  -3  -5  -6  144.77   14.70
   3  -5   6  140.08   14.54
   3  -5   6  155.33   14.55
   3   5   7   33.47    3.96
  -3  -5  -7   28.74    3.93
   3  -5   7   35.62    3.86
   3  -5   7   51.77    3.89
   3   5   8  213.98   22.85
  -3  -5  -8  211.36   22.85
  -3  -5  -8  235.39   22.88
  -3   5  -8  262.71   22.97
   3  -5   8  215.55   22.74
   3  -5   8  251.28   22.76
   3   5   9  286.95   29.10
  -3  -5  -9  274.72   29.10
  -3  -5  -9  284.32   29.10
   3  -5   9  281.70   28.99
   3  -5   9  316.51   29.01
   3   5  10   37.05    4.14
  -3  -5 -10   37.05    4.14
  -3  -5 -10   39.21    4.12
   3  -5  10   37.60    4.05
   3  -5  10   46.39    4.08
   3   5  11  204.58   20.79
  -3  -5 -11  201.96   20.74
   3  -5  11  205.59   20.67
   3  -5  11  217.37   20.68
   3  -5  11  196.46   20.79
   3   5  12    0.54    0.52
   3   5  12    1.01    0.74
  -3  -5 -12    1.49    0.47
   3  -5  12    0.78    0.38
   3  -5  12    0.92    0.39
   3  -5  12    1.17    0.43
   3   5  13    4.00    0.78
   3   5  13    4.66    0.97
  -3  -5 -13    3.47    0.66
   3  -5  13    4.50    0.64
   3  -5  13    4.56    0.64
   3  -5  13    4.24    0.64
   3   5  14  227.81   21.97
   3   5  14  217.03   22.01
  -3  -5 -14  208.64   21.85
   3  -5  14  237.92   21.86
   3  -5  14  215.21   21.83
   3  -5  14  209.80   21.80
   3   5  15   34.77    3.81
   3   5  15   39.69    3.90
  -3  -5 -15   34.71    3.70
   3  -5  15   34.10    3.71
   3  -5  15   39.13    3.72
   3  -5  15   33.85    3.65
   3   5  16   43.74    3.98
  -3  -5 -16   35.15    3.73
   3  -5  16   44.43    3.81
   3  -5  16   44.04    3.79
   3  -5  16   33.66    3.66
   3  -5  16   29.90    3.66
   3   5  17    2.79    0.96
   3  -5  17    2.03    0.57
   3   5  18  151.99   13.66
  -3  -5 -18  109.27   13.36
   3  -5  18  161.98   13.53
   3  -5  18  146.92   13.46
   3   5  19    5.61    1.10
   3   5  19    5.82    1.14
  -3  -5 -19    3.41    0.61
   3  -5  19    5.44    0.86
  -3   6   0    4.15    0.88
  -3  -6  -1   70.16    6.47
  -3   6  -1   51.93    6.26
  -3   6  -1   69.96    6.29
  -3   6  -1   85.03    6.53
  -3  -6  -2   39.58    3.59
  -3   6  -2   31.51    3.37
  -3   6  -2   35.01    3.38
  -3  -6  -3    0.44    0.34
  -3  -6  -3    1.19    0.62
  -3  -6  -4    1.21    0.40
  -3  -6  -4    3.28    0.70
  -3  -6  -5   -0.21    0.34
  -3  -6  -5    0.13    0.58
  -3  -6  -6   35.80    3.78
  -3   6  -7   93.96    6.63
   3  -6   7   60.92    6.29
  -3  -6  -8  608.25   58.69
  -3   6  -8  645.26   58.96
   3  -6   8  552.88   58.45
   3  -6   8  616.44   58.46
  -3  -6  -9    7.93    1.23
   3  -6   9   11.21    1.07
   3  -6   9    9.09    1.05
   3   6  10  248.61   26.40
  -3  -6 -10  265.16   26.43
   3  -6  10  270.55   26.28
   3   6  11    0.52    0.59
  -3  -6 -11    0.56    0.64
   3  -6  11    0.55    0.31
   3   6  12   15.65    1.80
   3   6  12   14.22    1.88
  -3  -6 -12   14.46    1.75
   3  -6  12   16.02    1.62
   3  -6  12   13.92    1.68
   3   6  13    3.43    0.80
   3   6  13    2.72    0.92
   3  -6  13    3.46    0.57
   3  -6  13    3.21    0.54
   3  -6  13    3.57    0.65
   3   6  14   -0.06    0.65
   3   6  14    0.03    0.79
   3  -6  14    0.28    0.43
   3  -6  14    0.09    0.38
   3  -6  14    0.33    0.46
   3   6  15   13.82    1.68
   3  -6  15   13.47    1.49
   3  -6  15   12.54    1.45
   3  -6  15   12.77    1.47
   3   6  16    0.98    0.75
   3  -6  16    0.74    0.52
   3  -6  16    0.65    0.44
   3  -6  16    0.73    0.42
   3   6  17    6.59    1.23
  -3  -6 -17    5.16    0.85
   3  -6  17    7.62    0.93
   3  -6  17    6.21    0.83
   3  -6  17    5.38    0.76
   3   6  18   14.72    1.83
   3   6  18   14.95    1.89
  -3  -6 -18   10.83    1.52
   3  -6  18   15.30    1.62
   3  -6  18   14.47    1.55
   3   6  19    0.23    0.83
   3   6  19    0.06    0.91
  -3  -6 -19    0.01    0.48
   3  -6  19   -0.05    0.59
   3   7   0  257.10   26.03
  -3  -7   0  257.73   26.03
  -3   7   0  262.52   25.99
  -3   7   0  267.01   26.00
  -3   7   0  253.56   26.16
   3   7   1   28.91    2.99
  -3  -7  -1   25.66    2.97
  -3  -7  -1   44.50    3.22
  -3   7  -1   22.56    2.90
  -3   7  -1   38.78    2.96
   3   7   2  493.98   50.51
  -3  -7  -2  493.27   50.50
  -3  -7  -2  534.99   50.67
  -3   7  -2  499.18   50.41
  -3   7  -2  572.74   50.67
   3   7   3  242.13   22.45
  -3  -7  -3  233.42   22.44
  -3  -7  -3  277.75   22.62
  -3   7  -3  204.03   22.31
  -3   7  -3  329.94   22.68
  -3  -7  -4   31.24    4.39
  -3  -7  -4   54.09    4.57
  -3   7  -4   73.46    4.72
   3   7   5   61.74    6.67
  -3  -7  -5   64.08    6.68
  -3  -7  -5   71.23    6.79
  -3   7  -5   69.60    6.81
   3   7   6  188.89   20.44
  -3  -7  -6  237.94   20.59
   3   7   7    3.72    0.73
  -3  -7  -7    3.14    0.70
  -3   7  -7    7.72    0.97
   3   7   8  103.09   11.06
  -3  -7  -8  100.57   11.05
  -3  -7  -8  122.01   11.15
  -3   7  -8  131.36   11.28
   3   7   9    3.54    0.72
  -3  -7  -9    4.78    0.74
  -3  -7  -9    3.70    0.81
   3  -7   9    3.13    0.41
   3   7  10    0.08    0.56
  -3  -7 -10    0.15    0.55
  -3  -7 -10    0.79    0.68
   3  -7  10    0.43    0.25
   3   7  11    7.71    1.07
  -3  -7 -11    7.82    1.04
  -3  -7 -11    7.51    1.09
   3  -7  11    6.33    0.79
   3  -7  11    7.06    0.80
   3   7  12   11.84    1.45
   3   7  12   11.96    1.58
  -3  -7 -12   10.59    1.44
   3  -7  12   11.27    1.22
   3  -7  12   10.65    1.21
   3  -7  12   11.74    1.42
   3   7  13   78.57    7.69
   3  -7  13   73.69    7.51
   3  -7  13   73.71    7.51
   3   7  14    5.62    0.92
   3   7  14    2.12    0.98
  -3  -7 -14    2.58    0.82
   3  -7  14    5.57    0.63
   3  -7  14    2.90    0.56
   3   7  15    8.64    1.31
   3   7  15    9.85    1.45
  -3  -7 -15   10.25    1.27
   3  -7  15    8.48    1.07
   3  -7  15    8.30    1.04
   3  -7  15    9.13    1.12
   3   7  16    6.04    1.12
   3   7  16    5.74    1.24
  -3  -7 -16    6.37    1.03
   3  -7  16    6.36    0.86
   3  -7  16    5.79    0.80
   3  -7  16    6.29    0.89
   3   7  17   -0.01    0.93
  -3  -7 -17    0.41    0.68
   3  -7  17    0.61    0.51
   3  -7  17    0.43    0.43
   3  -7  17    0.93    0.48
   3   7  18  120.72    9.98
   3   7  18   93.44    9.92
  -3  -7 -18   88.23    9.75
   3  -7  18  116.40    9.76
   3  -7  18   81.69    9.66
   3   8   0  117.31   11.99
  -3  -8   0  105.94   11.97
  -3   8   0  114.83   11.92
  -3   8   0  132.34   11.96
  -3   8   0  143.74   12.22
   3   8   1   15.31    1.73
  -3  -8  -1   15.39    1.73
  -3  -8  -1   25.14    2.00
  -3   8  -1   12.11    1.63
  -3   8  -1   18.02    1.68
  -3   8  -1   27.18    2.08
   3   8   2  185.51   19.11
  -3  -8  -2  185.02   19.10
  -3  -8  -2  198.95   19.26
  -3   8  -2  182.26   19.01
  -3   8  -2  200.41   19.03
  -3   8  -2  217.04   19.30
   3   8   3   44.49    4.81
  -3  -8  -3   41.32    4.80
  -3  -8  -3   56.50    4.98
  -3   8  -3   46.05    4.68
  -3   8  -3   69.12    5.09
  -3  -8  -4    0.99    0.47
  -3  -8  -4    2.47    0.74
  -3   8  -4    3.38    0.86
   3   8   5   11.72    1.50
  -3  -8  -5   11.22    1.49
  -3  -8  -5   15.89    1.68
  -3   8  -5   20.23    1.79
   3   8   6  197.10   20.38
  -3  -8  -6  215.70   20.51
   3   8   7    8.71    1.10
  -3  -8  -7    9.32    1.09
  -3   8  -7    6.28    1.23
   3   8   8   99.94   10.35
  -3  -8  -8   98.88   10.34
  -3  -8  -8  111.03   10.45
   3   8   9   53.64    5.48
  -3  -8  -9   55.93    5.49
  -3  -8  -9   48.53    5.52
   3   8  10   41.67    3.73
  -3  -8 -10   40.68    3.72
  -3  -8 -10   49.70    3.85
   3  -8  10   32.27    3.48
   3  -8  10   34.30    3.48
   3   8  11   77.44    7.15
  -3  -8 -11   71.05    7.16
   3  -8  11   66.52    6.91
   3  -8  11   69.73    6.92
   3   8  12   10.04    1.33
   3   8  12   12.43    1.52
  -3  -8 -12   12.70    1.43
   3  -8  12    9.04    1.06
   3  -8  12    9.06    1.06
   3  -8  12   12.43    1.37
   3   8  13  120.15   11.31
   3   8  13  102.97   11.36
   3  -8  13  109.01   11.10
   3  -8  13  113.30   11.27
   3   8  14   12.70    1.71
   3   8  14   14.82    1.86
  -3  -8 -14   14.48    1.74
   3  -8  14   12.54    1.47
   3  -8  14   16.05    1.69
   3   8  15   10.37    1.36
   3   8  15    7.80    1.46
  -3  -8 -15    7.67    1.30
   3  -8  15   10.66    1.08
   3  -8  15    8.44    1.04
   3  -8  15    8.35    1.24
   3   8  16   28.80    3.01
   3   8  16   27.40    3.10
  -3  -8 -16   27.61    2.95
   3  -8  16   26.75    2.77
   3  -8  16   24.80    2.74
   3  -8  16   25.75    2.86
   3   8  17    4.16    1.16
  -3  -8 -17    3.55    0.91
   3  -8  17    3.41    0.64
   3  -8  17    3.51    0.58
   3  -8  17    4.06    0.82
   3   8  18   19.78    2.24
   3   8  18   19.48    2.35
   3  -8  18   19.59    1.98
   3  -8  18   14.82    1.96
   3   9   0  120.84   12.70
  -3  -9   0  118.42   12.69
  -3  -9   0  133.34   12.89
  -3   9   0  118.83   12.64
  -3   9   0  138.64   12.68
  -3   9   0  157.78   12.99
   3   9   1   26.61    3.01
  -3  -9  -1   27.83    3.01
  -3  -9  -1   28.56    3.16
  -3   9  -1   29.32    2.94
  -3   9  -1   30.45    2.98
  -3   9  -1   28.57    3.21
   3   9   2   11.22    1.18
  -3  -9  -2   10.44    1.16
  -3  -9  -2   10.45    1.36
  -3   9  -2   10.03    1.04
  -3   9  -2    8.20    1.04
  -3   9  -2    9.40    1.43
   3   9   3    9.38    1.08
  -3  -9  -3    8.14    1.05
  -3  -9  -3    9.92    1.28
  -3   9  -3    8.37    0.91
  -3   9  -3    8.38    0.92
  -3   9  -3    9.26    1.36
  -3  -9  -4  205.51   21.44
  -3  -9  -4  221.03   21.61
  -3   9  -4  229.33   21.66
   3   9   5   77.04    8.22
  -3  -9  -5   73.07    8.21
  -3  -9  -5   89.92    8.39
  -3   9  -5  103.89    8.49
   3   9   6  169.15   16.75
  -3  -9  -6  162.41   16.87
   3   9   7   29.23    3.32
  -3  -9  -7   28.57    3.31
  -3  -9  -7   36.74    3.48
  -3   9  -7   37.12    3.54
   3   9   8   48.22    5.02
  -3  -9  -8   45.64    5.00
  -3  -9  -8   53.01    5.14
   3   9   9   22.04    2.33
  -3  -9  -9   20.74    2.31
  -3  -9  -9   19.25    2.39
   3   9  10   87.11    8.40
  -3  -9 -10   84.59    8.40
  -3  -9 -10   73.21    8.42
  -3  -9 -11    2.43    0.90
   3   9  12  136.79   11.22
   3   9  12  137.27   11.41
  -3  -9 -12  147.60   11.33
   3  -9  12   96.38   10.92
   3  -9  12  143.59   11.30
   3   9  13    6.77    1.08
   3   9  13    7.94    1.29
  -3  -9 -13   10.47    1.26
   3  -9  13    5.31    0.72
   3  -9  13    6.33    0.73
   3  -9  13   10.49    1.18
   3   9  14   20.15    2.04
   3   9  14   15.43    2.11
  -3  -9 -14   14.08    2.00
   3  -9  14   17.31    1.72
   3  -9  14   15.54    1.71
   3  -9  14   14.94    1.95
   3   9  15    0.23    0.73
   3   9  15    0.41    0.93
  -3  -9 -15    0.62    0.84
   3  -9  15    0.05    0.35
   3  -9  15    0.21    0.31
   3  -9  15    0.01    0.74
   3   9  16    9.68    1.26
   3   9  16    6.50    1.38
  -3  -9 -16    6.68    1.22
   3  -9  16    6.97    0.86
   3  -9  16    6.27    0.82
   3  -9  16    7.01    1.11
   3   9  17    0.55    0.81
   3   9  17    0.67    1.02
  -3  -9 -17    0.79    0.86
   3  -9  17    0.64    0.44
   3  -9  17    1.41    0.76
   3  10   0  355.43   36.69
  -3 -10   0  370.80   36.69
  -3 -10   0  382.61   36.92
  -3  10   0  361.02   36.63
  -3  10   0  372.91   36.68
  -3  10   0  393.04   36.98
   3  10   1   96.21    9.82
  -3 -10  -1   91.87    9.80
  -3 -10  -1  107.00   10.01
  -3  10  -1   93.93    9.73
  -3  10  -1  124.24   10.14
   3  10   2  281.54   27.18
  -3 -10  -2  274.87   27.17
  -3 -10  -2  268.54   27.35
  -3  10  -2  262.65   27.06
  -3  10  -2  280.31   27.09
  -3  10  -2  257.89   27.38
   3  10   3    0.13    0.46
  -3 -10  -3   -0.22    0.43
  -3 -10  -3    0.61    0.75
  -3  10  -3    0.22    0.22
  -3  10  -3    0.34    0.27
  -3  10  -3    1.63    0.91
  -3 -10  -4    0.12    0.43
  -3 -10  -4    0.10    0.74
  -3  10  -4   -0.10    0.86
   3  10   5   26.30    2.85
  -3 -10  -5   26.76    2.85
  -3 -10  -5   27.35    3.01
  -3  10  -5   26.91    3.06
   3  10   6    1.22    0.53
  -3 -10  -6    0.58    0.77
   3  10   7  137.70   14.23
  -3 -10  -7  139.14   14.24
  -3 -10  -7  152.30   14.40
   3  10   8   61.14    6.05
  -3 -10  -8   60.48    6.03
  -3 -10  -8   52.25    6.11
   3  10   9   36.81    4.12
  -3 -10  -9   36.85    4.12
  -3 -10  -9   48.39    4.31
   3  10  10   10.24    1.36
  -3 -10 -10   11.20    1.36
  -3 -10 -10    8.93    1.49
  -3 -10 -11    2.45    0.96
   3  10  12   67.33    6.59
  -3 -10 -12   58.17    6.63
   3 -10  12   63.80    6.62
   3  10  13   12.24    1.60
   3  10  13   11.70    1.75
  -3 -10 -13   11.98    1.70
   3 -10  13   12.68    1.64
   3  10  14    3.02    0.86
   3  10  14    2.28    1.01
   3 -10  14    1.94    0.30
   3 -10  14    1.69    0.32
   3 -10  14    1.85    0.85
   3  10  15   23.99    2.18
   3  10  15   17.57    2.25
  -3 -10 -15   21.16    2.22
   3 -10  15   15.53    1.76
   3 -10  15   16.20    1.77
   3 -10  15   21.27    2.13
   3  10  16   31.25    2.90
  -3 -10 -16   23.12    2.85
   3 -10  16   24.69    2.53
   3 -10  16   23.41    2.53
   3 -10  16   24.06    2.77
   3  11   0    3.24    0.60
  -3 -11   0    2.14    0.55
  -3 -11   0    3.19    0.92
  -3  11   0    2.76    0.46
  -3  11   0    4.25    1.09
   3  11   1    6.03    0.94
  -3 -11  -1    5.89    0.92
  -3 -11  -1    6.99    1.23
  -3  11  -1    7.40    0.84
  -3  11  -1    9.32    0.93
  -3  11  -1    8.55    1.37
   3  11   2    9.30    1.14
  -3 -11  -2    8.87    1.11
  -3 -11  -2    8.87    1.38
  -3  11  -2    8.99    1.00
  -3  11  -2    9.22    1.04
  -3  11  -2    8.38    1.47
   3  11   3  207.99   20.59
  -3 -11  -3  211.44   20.58
  -3 -11  -3  220.36   20.81
  -3  11  -3  197.98   20.46
  -3  11  -3  204.61   20.47
  -3  11  -3  224.90   20.91
  -3 -11  -4    6.06    0.76
  -3 -11  -4    5.40    1.05
  -3  11  -4    3.98    0.49
  -3  11  -4    4.61    0.51
  -3  11  -4    5.48    1.15
   3  11   5   28.31    2.78
  -3 -11  -5   26.63    2.75
  -3 -11  -5   23.19    2.91
  -3  11  -5   21.39    2.95
   3  11   6    6.15    0.97
  -3 -11  -6    8.92    1.27
   3  11   7    8.64    1.13
  -3 -11  -7    7.88    1.08
  -3 -11  -7    7.80    1.32
   3  11   8    6.49    0.99
  -3 -11  -8    5.33    0.93
  -3 -11  -8    8.56    1.26
   3  11   9    0.26    0.62
  -3 -11  -9    0.68    0.61
  -3 -11  -9   -0.17    0.86
   3  11  10    4.12    0.84
  -3 -11 -10    4.38    0.83
  -3 -11 -10    1.96    1.02
   3  11  11   50.31    5.44
  -3 -11 -11   50.01    5.37
   3  11  12   27.15    2.87
   3  11  12   24.05    3.02
  -3 -11 -12   26.82    3.00
   3 -11  12   24.18    2.91
   3  11  13   34.39    3.30
   3  11  13   27.15    3.40
  -3 -11 -13   28.18    3.35
   3 -11  13   27.88    3.30
   3  11  14    8.26    1.20
  -3 -11 -14    5.81    1.30
   3 -11  14    6.27    1.22
   3  11  15    0.14    0.78
   3  11  15   -0.10    0.94
  -3 -11 -15   -0.18    0.99
   3 -11  15    0.26    0.84
   3  12   0    8.19    1.05
  -3 -12   0    6.20    1.00
  -3 -12   0    8.39    1.37
  -3  12   0    8.05    0.95
  -3  12   0   10.17    1.06
  -3  12   0   11.88    1.56
   3  12   1   24.57    2.55
  -3 -12  -1   23.17    2.53
  -3  12  -1   23.77    2.46
  -3  12  -1   22.36    2.84
   3  12   2   60.24    6.47
  -3 -12  -2   60.18    6.45
  -3 -12  -2   59.50    6.65
  -3  12  -2   62.54    6.36
  -3  12  -2   69.79    6.42
  -3  12  -2   64.83    6.74
   3  12   3   36.22    3.51
  -3 -12  -3   35.11    3.48
  -3 -12  -3   31.83    3.68
  -3  12  -3   34.03    3.36
  -3  12  -3   32.04    3.39
  -3  12  -3   23.99    3.66
  -3 -12  -4   40.58    3.69
  -3 -12  -4   42.02    3.93
  -3  12  -4   33.23    3.51
  -3  12  -4   34.25    3.52
  -3  12  -4   38.28    3.98
   3  12   5   14.97    1.73
  -3 -12  -5   15.05    1.71
  -3 -12  -5   14.73    1.96
   3  12   6    7.54    1.06
  -3 -12  -6    7.75    1.33
   3  12   7   11.31    1.39
  -3 -12  -7   10.30    1.34
  -3 -12  -7   11.52    1.63
   3  12   8    0.72    0.64
  -3 -12  -8    0.15    0.56
   3  12   9  106.37   10.68
  -3 -12  -9  104.55   10.68
  -3 -12  -9  103.01   10.82
   3  12  10   98.47    9.78
  -3 -12 -10   91.54    9.90
  -3 -12 -11   11.38    1.72
   3  12  12    1.43    0.74
   3  12  12    0.92    0.98
  -3 -12 -12    1.75    1.04
   3 -12  12    1.24    0.89
   3  12  13    2.60    0.83
   3  12  13    1.90    1.01
  -3 -12 -13    1.86    1.06
   3 -12  13    1.82    0.93
   3  12  14   10.92    1.46
   3  12  14   10.02    1.66
  -3 -12 -14    9.01    1.60
   3 -12  14   10.14    1.53
   3  13   0    3.64    0.64
  -3 -13   0    2.72    0.58
  -3 -13   0    2.73    1.02
  -3  13   0    2.27    0.48
  -3  13   0    2.40    0.62
  -3  13   0    1.80    1.13
   3  13   1    5.97    0.87
  -3 -13  -1    5.81    0.83
  -3  13  -1    5.20    0.72
  -3  13  -1    6.48    0.83
  -3  13  -1    6.23    1.35
   3  13   2    0.70    0.53
  -3 -13  -2    1.27    0.50
  -3 -13  -2    0.38    0.89
  -3  13  -2    1.12    0.35
  -3  13  -2    1.06    0.46
  -3  13  -2   -0.03    1.04
   3  13   3   14.14    1.62
  -3 -13  -3   12.20    1.58
  -3 -13  -3   14.92    1.92
  -3  13  -3   18.15    2.08
  -3 -13  -4   29.84    2.90
  -3 -13  -4   30.07    3.16
  -3  13  -4   26.17    2.73
  -3  13  -4   26.40    2.75
   3  13   5    0.16    0.55
  -3 -13  -5    0.28    0.50
  -3 -13  -5   -0.22    0.92
   3  13   6    1.57    0.63
  -3 -13  -6    0.65    0.95
   3  13   7   23.25    2.44
  -3 -13  -7   20.00    2.38
  -3 -13  -7   22.77    2.66
   3  13   8   21.14    2.39
  -3 -13  -8   21.31    2.37
   3  13   9    0.81    0.69
  -3 -13  -9    1.22    0.65
  -3 -13  -9    0.77    1.00
   3  13  10   53.43    4.84
   3  13  10   38.66    4.96
  -3 -13 -10   42.58    4.95
   3 -13  10   43.95    4.93
   3  13  11   14.55    2.09
  -3 -13 -11   15.68    2.09
   3 -13  11   14.70    1.99
   3  13  12    8.67    1.13
   3  13  12    4.94    1.33
  -3 -13 -12    4.54    1.33
   3 -13  12    6.21    1.26
   3  14   0    0.37    0.51
  -3 -14   0    0.54    0.47
  -3 -14   0    0.68    0.96
  -3  14   0    0.29    0.39
  -3  14   0    0.69    0.54
  -3  14   0    0.67    1.13
   3  14   1   90.08    9.13
  -3 -14  -1   95.42    9.12
  -3  14  -1   95.02    9.04
  -3  14  -1   87.57    9.08
  -3  14  -1   64.19    9.32
   3  14   2    8.94    1.18
  -3 -14  -2    8.35    1.15
  -3 -14  -2   10.80    1.57
  -3  14  -2    8.86    1.04
  -3  14  -2   10.44    1.12
   3  14   3   14.12    1.44
  -3 -14  -3   12.98    1.39
  -3 -14  -3   11.83    1.73
  -3  14  -3    9.72    1.27
  -3 -14  -4   -0.18    0.49
  -3 -14  -4    0.00    0.94
  -3  14  -4    0.13    0.25
   3  14   5    8.76    1.13
  -3 -14  -5    7.94    1.08
  -3 -14  -5    7.53    1.44
   3  14   6   -0.14    0.58
  -3 -14  -6    0.30    0.97
   3  14   7   11.20    1.39
  -3 -14  -7   11.66    1.35
  -3 -14  -7    7.12    1.60
   3  14   8    7.02    1.08
  -3 -14  -8    6.89    1.03
   3  14   9   13.84    1.69
  -3 -14  -9   13.30    1.95
   3  14  10    5.63    0.95
   3  14  10    4.52    1.24
  -3 -14 -10    3.08    1.22
   3 -14  10    3.62    1.12
   3  15   0    0.08    0.50
  -3 -15   0    0.05    0.45
  -3 -15   0    0.09    0.97
  -3  15   0    0.19    0.39
  -3  15   0    0.37    0.56
   3  15   1    0.05    0.51
  -3 -15  -1    0.13    0.48
  -3  15  -1    0.17    0.37
  -3  15  -1    0.30    0.52
   3  15   2   12.34    1.46
  -3 -15  -2   12.73    1.43
  -3 -15  -2    9.44    1.75
  -3  15  -2   12.40    1.32
  -3  15  -2   11.41    1.38
   3  15   3    0.12    0.55
  -3 -15  -3    0.41    0.50
  -3 -15  -3   -0.27    0.97
  -3  15  -3    0.37    0.31
  -3  15  -3    0.52    0.41
  -3 -15  -4    8.48    0.98
  -3 -15  -4    6.67    1.37
  -3  15  -4    6.24    0.74
  -3  15  -4    6.58    0.77
   3  15   5    1.86    0.64
  -3 -15  -5    2.05    0.59
  -3 -15  -5    0.72    1.03
   3  15   6   -0.03    0.57
  -3 -15  -6   -0.19    0.99
   3  15   7    1.18    0.69
  -3 -15  -7    1.26    0.59
  -3 -15  -7    1.29    1.05
  -3 -16   0    7.23    1.46
  -3  16  -1    0.20    0.55
  -3 -16  -2   13.60    1.97
  -3  16  -2   13.19    1.50
  -3 -16  -3   11.69    1.93
  -3  16  -3   13.40    1.42
  -3  16  -3   13.13    1.45
   4   0   0 1736.77  175.55
  -4   0   0 1684.08  175.57
  -4   0   0 1989.33  175.74
   4   0   1    0.25    0.32
  -4   0  -1    0.20    0.31
  -4   0  -1   -0.04    0.38
   4   0   2 1194.58  119.46
  -4   0  -2 1148.68  119.44
  -4   0  -2 1318.47  119.56
   4   0   3    0.02    0.34
  -4   0  -3    0.13    0.35
   4   0   4  268.35   31.48
   4   0   4  356.27   31.52
  -4   0  -4  359.09   31.53
   4   0   5    0.28    0.31
   4   0   5    0.26    0.30
  -4   0  -5    0.11    0.34
   4   0   6    5.81    0.60
   4   0   6    2.94    0.53
   4   0   7   -0.05    0.35
   4   0   7    0.17    0.29
  -4   0  -7   -0.29    0.22
  -4   0  -7    0.14    0.31
   4   0   8  107.27   12.05
   4   0   8  118.15   11.98
  -4   0  -8  132.20   12.00
   4   0   9   -0.23    0.39
  -4   0  -9    0.04    0.29
   4   0  10  105.28   12.40
  -4   0 -10  132.35   12.31
   4   0  11   -0.13    0.45
   4   0  12  276.75   30.23
   4   0  12  351.74   30.34
   4   0  13    0.13    0.46
   4   0  13   -0.13    0.46
   4   0  14   47.20    5.29
   4   0  14   55.74    5.32
   4   0  15    0.02    0.52
   4   0  15   -0.04    0.52
   4   0  16    2.90    0.73
   4   0  16    3.43    0.73
   4   0  17    0.19    0.60
   4   0  18   69.20    7.07
   4   0  18   67.09    7.03
   4   0  19    0.48    0.69
   4   0  20   86.42    9.16
   4   0  20   90.66    9.11
   4   1   0 2313.00  240.69
  -4  -1   0 2195.82  240.64
  -4  -1   0 2707.28  240.87
  -4   1   0 2888.28  240.97
   4  -1   0 2450.37  240.69
   4   1   1  344.97   38.22
  -4  -1  -1  342.38   38.22
  -4  -1  -1  513.48   38.33
  -4   1  -1  364.34   38.22
  -4   1  -1  552.03   38.36
   4  -1   1  376.60   38.22
   4   1   2   73.52    7.86
  -4  -1  -2   73.88    7.86
  -4  -1  -2   84.96    7.89
  -4   1  -2   76.69    7.84
  -4   1  -2   90.85    7.91
   4  -1   2   75.78    7.84
  -4  -1  -3    1.27    0.34
  -4  -1  -3    0.53    0.40
  -4   1  -3    1.32    0.31
  -4   1  -3    1.48    0.42
   4  -1   3    0.75    0.35
   4   1   4  426.31   44.13
   4   1   4  457.99   44.15
  -4  -1  -4  416.51   44.13
  -4  -1  -4  470.11   44.16
  -4   1  -4  416.89   44.11
  -4   1  -4  491.76   44.18
   4  -1   4  430.87   44.11
   4  -1   4  483.85   44.15
   4   1   5   19.26    2.40
   4   1   5   27.01    2.42
  -4  -1  -5   18.12    2.40
  -4  -1  -5   29.58    2.45
  -4   1  -5   18.97    2.39
  -4   1  -5   32.18    2.47
   4  -1   5   19.52    2.39
   4  -1   5   30.75    2.43
   4   1   6  292.61   31.12
   4   1   6  320.01   31.09
   4  -1   6  297.54   31.10
   4  -1   6  349.76   31.12
   4   1   7  362.78   39.63
   4   1   7  419.36   39.62
  -4  -1  -7  370.03   39.64
  -4  -1  -7  455.20   39.64
  -4   1  -7  356.80   39.61
  -4   1  -7  477.71   39.64
   4  -1   7  357.09   39.61
   4  -1   7  441.99   39.62
   4   1   8  280.00   31.32
   4   1   8  331.14   31.30
  -4  -1  -8  274.95   31.32
  -4  -1  -8  372.25   31.32
  -4   1  -8  274.53   31.30
  -4   1  -8  381.69   31.31
   4  -1   8  280.11   31.30
   4  -1   8  357.31   31.29
   4   1   9  238.77   25.98
  -4  -1  -9  233.84   25.98
  -4  -1  -9  307.44   25.95
  -4   1  -9  234.13   25.98
  -4   1  -9  300.11   25.93
   4  -1   9  241.49   25.96
   4   1  10  259.39   27.61
  -4  -1 -10  257.10   27.63
  -4  -1 -10  306.36   27.54
  -4   1 -10  283.67   27.52
   4  -1  10  263.31   27.59
   4  -1  10  299.56   27.78
   4  -1  10  270.66   27.50
  -4  -1 -11   16.93    3.01
  -4  -1 -11   33.39    2.97
  -4  -1 -11   32.94    2.96
   4  -1  11   27.82    3.07
   4   1  12   39.03    4.17
   4   1  12   40.19    4.20
   4  -1  12   38.27    4.14
   4  -1  12   42.50    4.17
   4   1  13   14.55    1.78
   4   1  13   16.60    1.81
   4  -1  13   13.97    1.75
   4  -1  13   17.80    1.79
   4   1  14  284.02   27.94
   4   1  14  274.08   27.94
   4  -1  14  280.06   27.91
   4  -1  14  276.70   27.90
   4   1  15    0.55    0.56
   4   1  15    1.46    0.62
   4  -1  15    0.44    0.54
   4  -1  15    2.23    0.60
   4   1  16   57.32    5.97
   4  -1  16   57.08    5.95
   4  -1  16   57.56    5.93
   4   1  17    0.27    0.64
   4  -1  17    0.67    0.59
   4   1  18    4.75    0.90
   4   1  18    3.91    0.87
   4  -1  18    4.21    0.85
   4  -1  18    2.95    0.78
   4   1  19    0.75    0.72
   4   1  19    1.08    0.71
   4  -1  19    0.69    0.68
   4  -1  19    0.57    0.63
   4   1  20   40.25    4.14
   4   1  20   34.29    4.04
   4  -1  20   40.09    4.11
   4   2   0  635.81   69.80
  -4  -2   0  625.35   69.80
  -4  -2   0  845.99   69.92
  -4   2   0  675.64   69.80
  -4   2   0  946.03   69.99
   4  -2   0  720.62   69.80
   4   2   1  642.19   67.19
  -4  -2  -1  609.92   67.17
  -4  -2  -1  793.45   67.27
  -4   2  -1  652.52   67.16
  -4   2  -1  847.16   67.31
   4  -2   1  665.73   67.17
   4   2   2   66.13    6.44
  -4  -2  -2   68.30    6.45
  -4  -2  -2   56.35    6.45
  -4   2  -2   67.39    6.40
  -4   2  -2   53.54    6.45
   4  -2   2   66.23    6.40
  -4  -2  -3  204.00   22.88
  -4  -2  -3  263.09   22.93
  -4   2  -3  209.53   22.85
  -4   2  -3  287.56   22.95
   4   2   4    3.05    0.53
  -4  -2  -4    3.06    0.52
  -4  -2  -4    4.76    0.59
  -4   2  -4    2.98    0.45
  -4   2  -4    5.15    0.59
   4  -2   4    3.41    0.47
   4   2   5  840.34   90.93
  -4  -2  -5  868.47   90.94
  -4  -2  -5 1061.01   91.02
  -4   2  -5  845.58   90.90
  -4   2  -5 1123.39   91.07
   4  -2   5  848.09   90.91
   4  -2   5 1155.95   91.06
   4   2   6   15.18    1.76
   4  -2   6   14.40    1.71
   4  -2   6   20.85    1.77
   4   2   7    2.61    0.54
   4   2   7    2.45    0.48
  -4  -2  -7    2.23    0.48
  -4  -2  -7    2.50    0.49
  -4   2  -7    2.37    0.41
  -4   2  -7    3.39    0.49
   4  -2   7    3.04    0.47
   4  -2   7    3.49    0.45
   4   2   8    0.52    0.43
   4   2   8    0.54    0.34
  -4  -2  -8    0.59    0.35
  -4  -2  -8    0.61    0.35
  -4   2  -8    0.42    0.27
  -4   2  -8    0.71    0.38
   4  -2   8    0.45    0.35
   4  -2   8    0.40    0.30
   4   2   9  264.34   27.64
  -4  -2  -9  262.36   27.64
  -4  -2  -9  289.83   27.59
  -4   2  -9  297.78   27.58
   4  -2   9  265.00   27.59
   4   2  10    8.78    1.05
  -4  -2 -10    9.47    1.05
  -4  -2 -10    8.34    0.92
  -4  -2 -10    7.21    0.92
  -4   2 -10    8.39    0.91
   4  -2  10    9.11    0.99
   4  -2  10    7.38    0.88
  -4  -2 -11  642.51   68.19
  -4  -2 -11  713.11   68.02
  -4  -2 -11  707.18   68.02
   4  -2  11  698.52   68.09
   4  -2  11  649.22   67.97
   4   2  12  150.27   13.37
   4   2  12  140.33   13.44
  -4  -2 -12  125.57   13.19
  -4  -2 -12  121.30   13.18
   4  -2  12  146.08   13.30
   4  -2  12  143.46   13.31
   4   2  13    4.49    0.72
  -4  -2 -13    3.35    0.42
  -4  -2 -13    2.26    0.43
   4  -2  13    5.23    0.66
   4  -2  13    3.54    0.63
   4   2  14   19.65    2.19
   4  -2  14   19.00    2.13
   4  -2  14   19.37    2.13
   4   2  15   23.26    2.45
   4   2  15   18.87    2.41
   4  -2  15   24.20    2.40
   4  -2  15   20.77    2.37
   4   2  16    7.13    1.18
   4   2  16    8.95    1.22
   4  -2  16    7.60    1.13
   4  -2  16   10.18    1.15
   4   2  17  168.69   17.11
   4  -2  17  169.73   17.05
   4   2  18    3.09    0.84
   4   2  18    3.10    0.90
   4  -2  18    3.64    0.80
   4  -2  18    3.85    0.77
   4   2  19   62.37    6.52
   4   2  19   65.20    6.50
   4  -2  19   60.93    6.46
   4  -2  19   60.70    6.41
   4   2  20    7.67    1.28
   4   2  20    9.26    1.32
   4  -2  20    7.20    1.20
   4   3   0  416.59   44.46
  -4  -3   0  428.04   44.46
  -4   3   0  456.33   44.44
  -4   3   0  532.87   44.59
   4   3   1  926.16   97.87
  -4  -3  -1  918.71   97.87
  -4  -3  -1 1080.83   97.98
  -4   3  -1  967.78   97.83
  -4   3  -1 1194.04   98.04
   4   3   2    3.22    0.50
  -4  -3  -2    3.02    0.49
  -4  -3  -2    1.59    0.51
  -4   3  -2    2.95    0.39
  -4   3  -2    2.46    0.58
  -4  -3  -3   98.03   10.79
  -4  -3  -3  113.26   10.83
  -4   3  -3  104.96   10.73
  -4   3  -3  124.21   10.86
   4   3   4  190.77   19.30
  -4  -3  -4  192.90   19.30
  -4  -3  -4  196.85   19.31
  -4   3  -4  188.25   19.23
  -4   3  -4  205.49   19.32
   4  -3   4  192.02   19.23
   4   3   5  348.84   35.89
  -4  -3  -5  353.77   35.90
  -4  -3  -5  404.62   35.92
  -4   3  -5  339.80   35.83
  -4   3  -5  410.77   35.94
   4  -3   5  349.87   35.83
   4   3   6  108.41   11.27
   4  -3   6  114.07   11.20
   4   3   7  554.25   57.39
  -4  -3  -7  578.63   57.40
  -4  -3  -7  617.31   57.40
  -4   3  -7  557.33   57.36
  -4   3  -7  611.91   57.39
   4  -3   7  557.08   57.32
   4   3   8  201.64   21.24
  -4  -3  -8  194.61   21.24
  -4  -3  -8  235.34   21.23
  -4   3  -8  252.21   21.23
   4  -3   8  194.58   21.17
   4   3   9    0.14    0.44
  -4  -3  -9    0.43    0.43
  -4  -3  -9    0.56    0.38
  -4   3  -9    0.95    0.42
   4  -3   9    0.45    0.34
   4  -3   9    0.54    0.36
   4  -3   9    0.53    0.34
   4   3  10  430.78   45.79
  -4  -3 -10  430.12   45.81
  -4  -3 -10  481.79   45.76
  -4   3 -10  477.73   45.81
   4  -3  10  424.19   45.72
   4  -3  10  482.96   45.78
   4  -3  10  509.65   45.74
  -4  -3 -11  102.70   10.46
  -4  -3 -11  100.79   10.35
   4  -3  11  104.38   10.40
   4  -3  11  104.19   10.32
   4   3  12  261.09   26.40
  -4  -3 -12  272.83   26.30
   4  -3  12  265.66   26.33
   4  -3  12  255.71   26.30
   4  -3  12  261.09   26.25
   4   3  13   15.15    1.39
   4   3  13   13.24    1.40
  -4  -3 -13   13.76    1.17
  -4  -3 -13    9.99    1.15
   4  -3  13   15.11    1.28
   4  -3  13    7.27    1.08
   4   3  14   26.70    2.83
   4   3  14   26.05    2.85
  -4  -3 -14   25.66    2.67
  -4  -3 -14   23.80    2.66
   4  -3  14   25.04    2.74
   4  -3  14   30.15    2.78
   4   3  15   16.03    2.04
   4   3  15   21.14    2.11
  -4  -3 -15   17.36    1.84
   4  -3  15   15.10    1.95
   4  -3  15   20.53    1.99
   4   3  16   12.14    1.43
   4   3  16   10.02    1.45
   4  -3  16   10.47    1.30
   4  -3  16    9.62    1.28
   4   3  17   20.65    2.12
   4  -3  17   14.61    1.92
   4  -3  17   17.30    1.92
   4   3  18   -0.01    0.68
   4   3  18    0.82    0.83
   4  -3  18    0.33    0.58
   4  -3  18    0.12    0.55
   4   3  19    4.31    0.98
   4   3  19    3.77    1.00
   4  -3  19    4.31    0.86
   4  -3  19    3.66    0.77
   4   3  20  135.15   12.84
   4   3  20  114.41   12.73
   4  -3  20  128.40   12.74
   4   4   0 2281.99  243.88
  -4  -4   0 2228.62  243.86
  -4   4   0 2502.84  243.87
  -4   4   0 2885.44  244.14
   4  -4   0 2636.57  243.88
   4   4   1  363.98   37.99
  -4  -4  -1  362.21   37.99
  -4  -4  -1  397.79   38.05
  -4   4  -1  377.52   37.94
  -4   4  -1  437.71   38.09
   4   4   2  407.61   43.96
  -4  -4  -2  421.63   43.96
  -4  -4  -2  468.47   44.02
  -4   4  -2  446.55   43.91
  -4   4  -2  500.16   44.07
  -4  -4  -3    0.28    0.34
  -4  -4  -3    1.39    0.48
  -4   4  -3    0.49    0.21
  -4   4  -3    2.52    0.55
   4   4   4  203.18   21.36
  -4  -4  -4  206.07   21.36
  -4  -4  -4  228.30   21.40
  -4   4  -4  200.28   21.27
  -4   4  -4  244.45   21.42
   4  -4   4  223.55   21.28
   4   4   5   11.22    1.45
  -4  -4  -5   11.39    1.45
  -4  -4  -5   21.38    1.56
  -4   4  -5   11.44    1.37
   4  -4   5   14.86    1.38
   4   4   6   40.14    4.10
  -4  -4  -6   41.54    4.12
   4  -4   6   38.76    4.01
   4   4   7   36.52    4.13
  -4  -4  -7   36.78    4.12
  -4  -4  -7   44.93    4.16
  -4   4  -7   44.04    4.15
   4  -4   7   37.96    4.05
   4  -4   7   42.52    4.09
   4   4   8    7.23    0.94
  -4  -4  -8    6.58    0.89
  -4  -4  -8    9.13    0.93
  -4   4  -8    7.63    0.94
   4  -4   8    6.23    0.80
   4  -4   8    6.72    0.82
   4   4   9    0.39    0.46
  -4  -4  -9    0.57    0.46
  -4  -4  -9    1.00    0.45
  -4   4  -9    1.98    0.49
   4  -4   9    0.81    0.32
   4  -4   9    0.92    0.36
   4   4  10  453.85   45.34
  -4  -4 -10  435.89   45.35
  -4  -4 -10  455.46   45.29
  -4   4 -10  453.33   45.38
   4  -4  10  446.58   45.24
   4  -4  10  475.80   45.27
  -4  -4 -11   74.82    9.47
  -4  -4 -11   99.48    9.45
   4  -4  11  103.46    9.44
   4   4  12   56.20    5.60
  -4  -4 -12   59.95    5.62
   4  -4  12   59.76    5.52
   4  -4  12   50.95    5.50
   4  -4  12   48.79    5.46
   4   4  13    7.25    0.91
   4   4  13    4.47    0.99
  -4  -4 -13    4.08    0.69
   4  -4  13    7.07    0.76
   4  -4  13    5.23    0.74
   4  -4  13    4.00    0.64
   4   4  14   57.94    5.90
   4   4  14   59.08    5.95
  -4  -4 -14   59.97    5.77
   4  -4  14   58.33    5.81
   4  -4  14   64.15    5.83
   4  -4  14   53.04    5.70
   4  -4  14   53.49    5.70
   4   4  15   24.12    2.44
   4   4  15   22.09    2.48
  -4  -4 -15   18.10    2.23
   4  -4  15   22.60    2.32
   4  -4  15   23.17    2.31
   4   4  16    5.02    0.86
   4   4  16    3.06    0.93
  -4  -4 -16    2.69    0.52
  -4  -4 -16    2.36    0.52
   4  -4  16    4.43    0.69
   4   4  17    2.24    0.75
   4   4  17    2.16    0.88
  -4  -4 -17    0.83    0.33
  -4  -4 -17    0.82    0.39
   4  -4  17    2.40    0.61
   4   4  18   78.89    7.35
   4   4  18   67.03    7.29
   4  -4  18   73.32    7.22
   4  -4  18   64.92    7.16
   4   4  19   43.95    4.47
   4   4  19   40.18    4.43
   4  -4  19   39.70    4.33
   4   5   0  292.50   29.47
  -4  -5   0  292.76   29.47
  -4   5   0  307.51   29.43
   4  -5   0  287.33   29.43
   4   5   1  310.13   34.51
  -4  -5  -1  289.63   34.50
  -4   5  -1  350.49   34.47
  -4   5  -1  496.56   34.72
   4  -5   1  382.03   34.48
   4   5   2  383.89   42.14
  -4  -5  -2  385.67   42.14
  -4   5  -2  426.26   42.08
  -4   5  -2  477.02   42.26
   4  -5   2  454.40   42.09
  -4  -5  -3   50.57    5.30
  -4   5  -3   49.43    5.19
  -4   5  -3   72.95    5.45
   4   5   4   21.90    2.50
  -4  -5  -4   21.88    2.50
  -4  -5  -4   25.95    2.57
  -4   5  -4   23.39    2.39
  -4   5  -4   30.65    2.62
   4   5   5  220.19   23.69
  -4  -5  -5  217.56   23.70
  -4  -5  -5  272.08   23.76
  -4   5  -5  214.82   23.60
  -4   5  -5  297.68   23.79
   4  -5   5  246.07   23.59
   4   5   6  181.61   19.79
  -4  -5  -6  173.83   19.78
  -4  -5  -6  222.71   19.84
   4  -5   6  192.66   19.68
   4  -5   6  219.16   19.70
   4   5   7    3.15    0.59
  -4  -5  -7    3.19    0.55
  -4  -5  -7    2.69    0.57
  -4   5  -7    2.07    0.61
   4  -5   7    2.96    0.40
   4  -5   7    2.77    0.40
   4   5   8  128.22   13.90
  -4  -5  -8  128.89   13.90
  -4  -5  -8  137.11   13.90
  -4   5  -8  145.26   13.92
   4  -5   8  132.78   13.78
   4  -5   8  153.36   13.81
   4   5   9   85.12   10.32
  -4  -5  -9   82.20   10.32
  -4  -5  -9  128.83   10.38
  -4   5  -9  159.60   10.47
   4  -5   9   85.92   10.22
   4  -5   9  124.88   10.26
   4   5  10   46.60    5.38
  -4  -5 -10   44.86    5.37
  -4  -5 -10   60.42    5.40
  -4   5 -10   63.45    5.43
   4  -5  10   45.59    5.27
   4  -5  10   60.88    5.32
  -4  -5 -11    2.25    0.62
  -4  -5 -11    3.89    0.62
   4  -5  11    2.79    0.50
   4   5  12  149.29   15.77
  -4  -5 -12  146.49   15.80
  -4  -5 -12  161.33   15.72
   4  -5  12  149.47   15.66
   4  -5  12  170.47   15.68
   4   5  13  162.64   16.37
   4   5  13  161.63   16.49
  -4  -5 -13  158.91   16.27
   4  -5  13  163.18   16.24
   4  -5  13  167.64   16.25
   4  -5  13  156.77   16.26
   4   5  14    3.96    0.86
   4   5  14    6.17    1.07
  -4  -5 -14    5.75    0.76
   4  -5  14    3.14    0.68
   4  -5  14    5.05    0.71
   4  -5  14    5.52    0.69
   4   5  15   56.06    5.29
   4   5  15   49.28    5.30
  -4  -5 -15   47.28    5.12
   4  -5  15   58.14    5.17
   4  -5  15   54.53    5.15
   4  -5  15   43.22    5.07
   4   5  16    3.40    0.78
   4   5  16    1.53    0.86
  -4  -5 -16    1.28    0.48
   4  -5  16    2.80    0.56
   4  -5  16    2.14    0.53
   4  -5  16    0.98    0.30
   4  -5  16    0.66    0.30
   4   5  17   13.70    1.48
   4   5  17   11.04    1.52
  -4  -5 -17    6.98    1.13
   4  -5  17   13.49    1.29
   4  -5  17    9.69    1.21
  -4  -5 -18    3.53    0.62
   4  -5  18    4.92    0.79
   4  -5  18    4.21    0.71
   4   5  19   10.70    1.60
   4   6   0    9.91    1.05
  -4  -6   0    9.40    1.04
  -4   6   0    7.54    0.95
  -4   6   0    9.39    1.24
   4  -6   0    8.03    0.97
   4   6   1  139.65   15.47
  -4  -6  -1  154.45   15.56
  -4   6  -1  169.91   15.60
   4  -6   1  159.00   15.41
  -4  -6  -2  247.52   22.90
  -4   6  -2  214.71   22.71
  -4   6  -2  273.86   22.94
   4  -6   2  227.31   22.73
  -4  -6  -3   42.09    3.39
  -4   6  -3   29.23    3.11
  -4   6  -3   41.01    3.40
   4  -6   3   30.55    3.12
  -4  -6  -4  625.88   64.53
  -4   6  -4  673.08   64.57
  -4  -6  -5   75.26    7.53
  -4   6  -5   71.68    7.54
  -4  -6  -6  657.95   65.60
  -4  -6  -8   16.32    1.88
   4  -6   8   15.73    1.68
   4  -6   8   16.87    1.69
  -4  -6  -9  332.85   32.79
  -4   6  -9  345.79   32.88
   4  -6   9  311.12   32.64
   4  -6   9  343.00   32.65
  -4  -6 -10   19.83    2.10
  -4   6 -10   18.62    2.09
   4  -6  10   17.72    1.93
   4  -6  10   18.98    1.94
  -4  -6 -11    5.81    0.95
   4  -6  11    5.89    0.72
   4   6  12   44.58    4.91
  -4  -6 -12   39.63    4.88
  -4  -6 -12   56.28    4.92
   4  -6  12   43.19    4.77
   4  -6  12   52.05    4.79
   4   6  13    0.30    0.64
   4   6  13    1.44    0.85
  -4  -6 -13    0.57    0.62
   4  -6  13    0.19    0.39
   4  -6  13    0.49    0.37
   4  -6  13    1.13    0.51
   4   6  14   23.41    2.36
   4   6  14   18.43    2.38
  -4  -6 -14   18.03    2.22
   4  -6  14   23.02    2.16
   4  -6  14   20.39    2.14
   4  -6  14   17.28    2.15
   4   6  15   32.25    3.42
   4  -6  15   30.08    3.24
   4  -6  15   31.36    3.24
   4   6  16    5.41    1.02
   4  -6  16    5.16    0.75
   4  -6  16    4.36    0.69
   4  -6  16    3.65    0.68
   4   6  17    1.32    0.84
   4   6  17    2.07    0.97
   4  -6  17    2.16    0.60
   4  -6  17    1.80    0.51
   4  -6  17    1.82    0.43
   4   6  18   -0.29    0.82
   4   6  18   -0.14    0.91
  -4  -6 -18    0.08    0.47
   4  -6  18    0.44    0.56
   4   6  19   20.78    2.14
   4   6  19   17.33    2.11
  -4  -6 -19   11.41    1.73
   4  -6  19   22.80    1.91
   4   7   0  514.67   52.77
  -4  -7   0  494.51   52.75
  -4   7   0  541.36   52.72
  -4   7   0  588.21   52.93
   4  -7   0  556.31   52.88
   4   7   1    0.21    0.44
  -4  -7  -1   -0.05    0.42
  -4  -7  -1    0.51    0.68
  -4   7  -1    0.22    0.26
  -4   7  -1   -0.06    0.75
   4   7   2   40.96    4.05
  -4  -7  -2   40.10    4.04
  -4  -7  -2   44.22    4.15
  -4   7  -2   36.44    3.93
  -4   7  -2   42.46    4.17
  -4  -7  -3    7.14    0.82
  -4  -7  -3    8.57    1.02
  -4   7  -3    4.82    0.58
  -4   7  -3    5.34    0.59
  -4   7  -3   10.28    1.10
   4   7   4   27.66    3.30
  -4  -7  -4   28.38    3.30
  -4  -7  -4   37.46    3.43
  -4   7  -4   40.45    3.48
   4   7   5  155.94   15.92
  -4  -7  -5  160.65   16.00
  -4   7  -5  160.42   16.01
   4   7   6    7.32    0.98
  -4  -7  -6    8.38    0.97
  -4  -7  -6    4.86    1.04
   4   7   7    6.69    0.93
  -4  -7  -7    5.87    0.89
   4   7   8  286.48   30.01
  -4  -7  -8  290.34   30.01
  -4  -7  -8  317.04   30.08
  -4   7  -8  322.88   30.14
   4   7   9    2.56    0.69
  -4  -7  -9    2.44    0.69
  -4  -7  -9    6.80    0.88
  -4   7  -9    7.41    0.97
   4  -7   9    2.51    0.36
   4  -7   9    3.21    0.36
   4   7  10   40.09    4.13
  -4  -7 -10   40.03    4.13
  -4  -7 -10   47.75    4.19
  -4   7 -10   48.80    4.26
   4  -7  10   35.87    3.95
   4  -7  10   39.27    3.95
  -4  -7 -11   24.95    2.43
  -4  -7 -11   19.98    2.40
   4  -7  11   20.98    2.22
   4   7  12   52.35    5.30
  -4  -7 -12   44.46    5.25
   4  -7  12   51.43    5.12
   4  -7  12   51.83    5.13
   4   7  13   -0.01    0.68
   4  -7  13    0.39    0.35
   4  -7  13    0.20    0.32
   4   7  14   16.73    2.00
   4   7  14   17.22    2.11
  -4  -7 -14   16.14    1.92
   4  -7  14   17.91    1.77
   4  -7  14   14.89    1.74
   4   7  15    0.06    0.72
   4   7  15   -0.23    0.88
  -4  -7 -15    0.53    0.69
   4  -7  15    0.18    0.42
   4  -7  15    0.11    0.37
   4   7  16   55.92    5.29
   4   7  16   47.06    5.30
  -4  -7 -16   48.02    5.15
   4  -7  16   54.99    5.09
   4  -7  16   48.93    5.05
   4  -7  16   43.86    5.08
   4   7  17   17.22    1.92
   4   7  17   13.96    1.95
  -4  -7 -17   13.53    1.72
   4  -7  17   16.52    1.64
   4  -7  17   13.73    1.58
   4  -7  17   12.63    1.61
   4   7  18    6.68    1.16
   4   7  18    5.90    1.25
  -4  -7 -18    5.27    0.94
   4  -7  18    5.96    0.83
   4  -7  18    3.86    0.71
   4   8   0  410.94   39.93
  -4  -8   0  393.07   39.92
  -4   8   0  387.24   39.87
  -4   8   0  402.07   39.87
  -4   8   0  420.59   40.09
   4   8   1    2.16    0.54
  -4  -8  -1    2.20    0.51
  -4  -8  -1    0.67    0.72
  -4   8  -1    2.97    0.35
  -4   8  -1    1.11    0.34
  -4   8  -1    0.51    0.80
   4   8   2   10.11    1.14
  -4  -8  -2    9.87    1.12
  -4  -8  -2   12.35    1.35
  -4   8  -2    8.08    0.97
  -4   8  -2   11.74    1.39
  -4  -8  -3  197.57   17.43
  -4  -8  -3  205.95   17.57
  -4   8  -3  162.87   17.27
  -4   8  -3  201.30   17.58
   4   8   4    0.99    0.50
  -4  -8  -4    1.71    0.50
  -4  -8  -4    0.77    0.69
  -4   8  -4    0.77    0.78
   4   8   5    3.12    0.68
  -4  -8  -5    4.07    0.86
  -4   8  -5    5.60    0.97
   4   8   6    0.75    0.53
  -4  -8  -6    0.61    0.49
  -4  -8  -6    0.39    0.68
   4   8   7   62.55    6.34
  -4  -8  -7   65.67    6.34
  -4   8  -7   55.28    6.40
   4   8   8   39.98    4.25
  -4  -8  -8   41.60    4.25
  -4  -8  -8   39.12    4.30
  -4   8  -8   41.67    4.36
   4   8   9    5.38    0.86
  -4  -8  -9    6.30    0.88
  -4  -8  -9    3.61    0.93
  -4   8  -9    2.62    0.99
   4   8  10   54.49    5.58
  -4  -8 -10   54.35    5.58
  -4  -8 -10   52.06    5.61
  -4  -8 -11   45.99    4.07
  -4  -8 -11   49.01    4.13
   4  -8  11   35.54    3.80
   4  -8  11   37.83    3.81
   4   8  12    5.06    0.89
  -4  -8 -12    4.39    0.94
   4  -8  12    3.68    0.47
   4  -8  12    3.32    0.46
   4   8  13   72.68    6.75
   4   8  13   64.89    6.84
   4  -8  13   62.40    6.50
   4  -8  13   65.02    6.51
   4  -8  13   64.44    6.71
   4   8  14   11.33    1.40
   4   8  14   10.92    1.55
  -4  -8 -14   10.40    1.35
   4  -8  14    8.90    1.04
   4  -8  14    8.51    1.03
   4  -8  14   10.01    1.31
   4   8  15   11.81    1.38
   4   8  15    7.50    1.43
  -4  -8 -15    5.86    1.23
   4  -8  15   10.17    1.01
   4  -8  15    7.69    0.97
   4  -8  15    7.23    1.20
   4   8  16    0.57    0.95
  -4  -8 -16   -0.16    0.75
   4  -8  16    0.09    0.42
   4  -8  16    0.54    0.68
   4   8  17    2.80    0.94
   4   8  17    0.86    1.02
  -4  -8 -17    1.86    0.83
   4  -8  17    2.54    0.55
   4   9   0    7.74    0.94
  -4  -9   0    8.23    0.94
  -4   9   0    8.09    0.83
  -4   9   0    5.84    0.86
  -4   9   0    4.02    1.16
   4   9   1   28.85    3.16
  -4  -9  -1   27.21    3.14
  -4  -9  -1   34.67    3.34
  -4   9  -1   26.17    3.07
  -4   9  -1   35.46    3.12
  -4   9  -1   42.38    3.45
   4   9   2    4.74    0.71
  -4  -9  -2    3.37    0.66
  -4  -9  -2    6.16    0.97
  -4   9  -2    3.06    0.49
  -4   9  -2    5.18    0.54
  -4   9  -2    9.15    1.13
  -4  -9  -3   15.24    1.49
  -4  -9  -3   11.98    1.62
  -4   9  -3   12.34    1.31
  -4   9  -3   12.64    1.32
  -4   9  -3   11.67    1.69
   4   9   4   39.88    3.82
  -4  -9  -4   39.75    3.81
  -4  -9  -4   35.01    3.90
  -4   9  -4   27.92    3.89
   4   9   5    9.85    1.20
  -4  -9  -5    8.95    1.34
  -4   9  -5    9.00    1.41
   4   9   6    6.24    0.91
  -4  -9  -6    6.43    0.88
  -4  -9  -6    4.57    1.03
   4   9   7   25.40    2.75
  -4  -9  -7   24.87    2.74
  -4   9  -7   26.21    2.91
   4   9   8    0.87    0.62
  -4  -9  -8    1.17    0.62
  -4  -9  -8    2.49    0.82
  -4   9  -8    4.37    0.99
   4   9   9    5.55    0.95
  -4  -9  -9    4.34    0.91
  -4  -9  -9    7.81    1.13
  -4   9  -9    7.59    1.21
   4   9  10   -0.32    0.62
  -4  -9 -10    0.38    0.62
  -4  -9 -10    0.61    0.82
   4   9  11   22.10    2.51
  -4  -9 -11   23.33    2.52
  -4  -9 -11   21.52    2.58
   4   9  12   18.73    2.23
  -4  -9 -12   19.90    2.31
   4   9  13   10.81    1.25
   4   9  13   10.02    1.42
   4  -9  13    6.40    0.79
   4  -9  13    7.42    0.80
   4  -9  13   12.14    1.27
   4   9  14    1.54    0.79
   4   9  14   -0.16    0.91
  -4  -9 -14    0.58    0.85
   4  -9  14    0.57    0.27
   4  -9  14    0.40    0.29
   4  -9  14   -0.04    0.75
   4   9  15   28.73    2.91
   4   9  15   25.33    3.01
  -4  -9 -15   26.83    2.88
   4  -9  15   23.00    2.59
   4  -9  15   25.96    2.60
   4  -9  15   27.07    2.83
   4   9  16    0.60    1.00
  -4  -9 -16    0.55    0.84
   4  -9  16    0.91    0.37
   4  -9  16    0.19    0.34
   4  -9  16    0.76    0.75
   4   9  17    0.33    0.84
   4   9  17   -0.05    1.00
  -4  -9 -17    0.71    0.85
   4  -9  17    0.21    0.39
   4  -9  17    0.39    0.73
   4  10   0   13.43    1.40
  -4 -10   0   10.87    1.36
  -4  10   0   10.54    1.27
  -4  10   0   13.13    1.34
  -4  10   0   13.67    1.71
   4  10   1  137.73   13.85
  -4 -10  -1  138.04   13.85
  -4 -10  -1  124.28   13.98
  -4  10  -1  139.34   13.75
  -4  10  -1  144.26   13.78
  -4  10  -1  124.64   14.02
   4  10   2   17.05    1.92
  -4 -10  -2   14.88    1.89
  -4 -10  -2   22.43    2.16
  -4  10  -2   15.04    1.78
  -4  10  -2   19.26    1.82
  -4  10  -2   30.19    2.34
  -4 -10  -3   99.83    9.32
  -4 -10  -3   98.58    9.47
  -4  10  -3   86.97    9.15
  -4  10  -3   93.52    9.16
  -4  10  -3  103.10    9.54
   4  10   4    3.38    0.65
  -4 -10  -4    4.07    0.65
  -4 -10  -4    1.86    0.87
  -4  10  -4    1.23    0.96
   4  10   5    0.17    0.52
  -4 -10  -5    0.10    0.76
  -4  10  -5    0.08    0.87
   4  10   6   93.69    9.32
  -4 -10  -6   91.60    9.31
  -4 -10  -6   88.43    9.42
   4  10   7   13.80    1.64
  -4 -10  -7   12.60    1.61
  -4  10  -7   16.29    1.89
   4  10   8   11.40    1.42
  -4 -10  -8   11.02    1.40
  -4 -10  -8   10.19    1.55
  -4  10  -8   12.16    1.68
   4  10   9    0.22    0.62
  -4 -10  -9    0.03    0.60
  -4 -10  -9    0.04    0.82
   4  10  10    6.27    1.07
  -4 -10 -10    7.97    1.09
  -4 -10 -10    6.28    1.25
   4  10  11   24.47    2.67
  -4 -10 -11   25.76    2.67
  -4 -10 -11   20.46    2.74
   4  10  12   99.10   10.06
  -4 -10 -12   97.38   10.12
   4  10  13   13.82    1.52
   4  10  13    8.92    1.62
   4 -10  13    9.11    1.47
   4  10  14    0.52    0.77
   4  10  14    0.91    0.97
  -4 -10 -14    1.63    0.96
   4 -10  14    0.54    0.80
   4  10  15   22.54    1.72
   4  10  15   15.59    1.81
  -4 -10 -15   18.29    1.72
   4 -10  15    9.28    1.11
   4 -10  15    9.93    1.11
   4 -10  15   17.71    1.62
  -4 -10 -16    0.08    0.91
   4 -10  16    0.19    0.26
   4 -10  16    0.04    0.27
   4 -10  16    0.18    0.79
   4  11   0   20.11    2.28
  -4 -11   0   21.48    2.28
  -4  11   0   20.57    2.20
  -4  11   0   22.37    2.26
  -4  11   0   20.89    2.57
   4  11   1    8.80    1.04
  -4 -11  -1    6.97    1.00
  -4 -11  -1   11.89    1.38
  -4  11  -1    5.82    0.87
  -4  11  -1   10.15    0.97
  -4  11  -1   14.31    1.55
   4  11   2    0.89    0.52
  -4 -11  -2    0.74    0.47
  -4 -11  -2    0.28    0.80
  -4  11  -2    0.60    0.28
  -4  11  -2    0.37    0.35
  -4  11  -2    0.56    0.96
  -4 -11  -3   18.70    2.28
  -4 -11  -3   21.53    2.50
  -4  11  -3   21.69    2.17
  -4  11  -3   22.75    2.59
   4  11   4    0.84    0.53
  -4 -11  -4    0.51    0.50
  -4 -11  -4    0.33    0.82
  -4  11  -4    0.27    0.95
   4  11   5    1.18    0.58
  -4 -11  -5    0.98    0.83
  -4  11  -5    1.34    0.98
   4  11   6   19.40    2.04
  -4 -11  -6   17.19    1.99
  -4 -11  -6   16.06    2.16
   4  11   7   28.36    2.85
  -4 -11  -7   31.60    2.86
  -4  11  -7   15.57    2.93
   4  11   8  157.71   15.39
  -4 -11  -8  152.81   15.37
  -4 -11  -8  144.15   15.49
   4  11   9    9.63    1.30
  -4 -11  -9    9.12    1.27
  -4 -11  -9    9.21    1.47
  -4 -11 -10    0.25    0.63
  -4 -11 -10    0.16    0.91
   4  11  11   39.29    4.18
  -4 -11 -11   36.58    4.16
  -4 -11 -11   43.32    4.33
   4  11  12    6.32    1.04
  -4 -11 -12    4.50    1.23
   4  11  13    4.94    1.02
   4 -11  13    5.63    1.12
   4  11  14   25.15    2.77
   4  11  14   25.23    2.95
  -4 -11 -14   22.55    2.85
   4 -11  14   23.72    2.79
   4  12   0    1.53    0.54
  -4 -12   0    1.41    0.51
  -4  12   0    1.15    0.38
  -4  12   0    1.78    0.50
  -4  12   0    0.35    1.03
   4  12   1   12.05    1.33
  -4 -12  -1   11.63    1.30
  -4 -12  -1    9.91    1.57
  -4  12  -1   10.05    1.17
  -4  12  -1    9.98    1.69
   4  12   2   11.03    1.39
  -4 -12  -2   10.48    1.36
  -4 -12  -2   11.21    1.65
  -4  12  -2   11.55    1.24
  -4  12  -2   12.53    1.28
  -4  12  -2   11.71    1.77
  -4 -12  -3    1.54    0.58
  -4 -12  -3    2.00    0.96
  -4  12  -3    3.02    0.41
  -4  12  -3    3.46    1.15
   4  12   4    6.22    0.90
  -4 -12  -4    5.71    0.86
  -4 -12  -4    4.78    1.16
  -4  12  -4    4.66    1.29
   4  12   5   19.15    2.10
  -4 -12  -5   18.86    2.31
  -4  12  -5   17.18    2.36
   4  12   6    2.27    0.71
  -4 -12  -6    2.71    0.66
  -4 -12  -6    1.35    0.93
   4  12   7    2.50    0.73
  -4 -12  -7    1.49    0.62
   4  12   8   15.54    1.87
  -4 -12  -8   16.02    1.86
  -4 -12  -8   15.84    2.07
   4  12   9   80.31    8.14
  -4 -12  -9   82.56    8.13
  -4 -12  -9   72.91    8.25
  -4 -12 -10   33.05    3.18
  -4 -12 -10   23.50    3.27
   4  12  11    5.87    1.04
  -4 -12 -11    5.41    1.01
  -4 -12 -11    6.35    1.31
   4  12  12    9.27    1.21
  -4 -12 -12    5.64    1.37
   4 -12  12    6.44    1.26
   4  12  13    4.65    0.98
   4  12  13    3.79    1.20
  -4 -12 -13    5.49    1.26
   4 -12  13    4.81    1.12
   4  13   0    2.25    0.61
  -4 -13   0    1.58    0.54
  -4  13   0    1.84    0.43
  -4  13   0    3.16    0.59
  -4  13   0    4.28    1.22
   4  13   1   59.67    5.74
  -4 -13  -1   57.85    5.72
  -4 -13  -1   49.31    5.90
  -4  13  -1   57.83    5.62
  -4  13  -1   54.38    5.65
  -4  13  -1   44.04    5.92
   4  13   2    0.54    0.55
  -4 -13  -2   -0.07    0.48
  -4 -13  -2   -0.05    0.89
  -4  13  -2    0.18    0.30
  -4  13  -2   -0.08    0.39
  -4  13  -2    0.42    1.09
  -4 -13  -3   22.87    2.13
  -4 -13  -3   19.73    2.38
  -4  13  -3   18.58    1.95
  -4  13  -3   18.31    1.97
  -4  13  -3   15.43    2.40
   4  13   4    8.41    1.10
  -4 -13  -4    7.33    1.05
  -4 -13  -4    8.36    1.41
  -4  13  -4    6.90    1.48
   4  13   5   42.46    4.32
  -4 -13  -5   40.44    4.50
  -4  13  -5   38.53    4.57
   4  13   6   23.84    2.51
  -4 -13  -6   21.30    2.45
  -4 -13  -6   21.88    2.69
   4  13   7   14.13    1.70
  -4 -13  -7   15.20    1.66
  -4 -13  -7   10.68    1.87
   4  13   8    1.12    0.72
  -4 -13  -8    0.44    0.63
  -4 -13  -8    0.92    0.99
   4  13   9   21.46    2.42
  -4 -13  -9   22.73    2.41
  -4 -13  -9   18.34    2.57
  -4 -13 -10   -0.10    0.64
  -4 -13 -10    0.00    1.02
   4  13  11   19.41    2.14
  -4 -13 -11   15.62    2.31
   4  13  12    0.35    0.74
   4  13  12   -0.07    1.02
  -4 -13 -12    0.14    1.05
   4 -13  12    0.36    0.89
   4  14   0    0.23    0.54
  -4 -14   0    0.97    0.50
  -4 -14   0    0.40    0.97
  -4  14   0    0.60    0.38
  -4  14   0    0.83    0.52
  -4  14   0    0.10    1.15
   4  14   1   11.72    1.33
  -4 -14  -1   10.50    1.29
  -4 -14  -1   11.90    1.68
  -4  14  -1    9.49    1.17
  -4  14  -1   10.99    1.24
  -4  14  -1   11.47    1.80
   4  14   2   21.49    2.24
  -4 -14  -2   21.34    2.21
  -4 -14  -2   18.47    2.48
  -4  14  -2   20.13    2.13
  -4  14  -2   14.65    2.52
  -4 -14  -3    6.04    0.92
  -4 -14  -3    9.06    1.39
  -4  14  -3    5.49    0.71
  -4  14  -3    6.95    0.75
  -4  14  -3    8.55    1.52
   4  14   4    0.56    0.57
  -4 -14  -4    0.54    0.54
  -4 -14  -4    0.08    0.97
  -4  14  -4   -0.07    1.10
   4  14   5    7.08    0.99
  -4 -14  -5    4.63    1.27
   4  14   6   41.42    4.22
  -4 -14  -6   39.12    4.18
  -4 -14  -6   38.53    4.41
   4  14   7    0.61    0.68
  -4 -14  -7    0.50    0.57
  -4 -14  -7   -0.15    1.00
   4  14   8    0.14    0.69
  -4 -14  -8    0.37    0.63
  -4 -14  -8    0.40    1.00
   4  14   9   10.32    1.40
  -4 -14  -9   11.39    1.37
  -4 -14  -9    7.48    1.60
  -4 -14 -10    0.93    0.68
  -4 -14 -10    0.69    1.08
   4  15   0    3.42    0.72
  -4 -15   0    3.53    0.68
  -4 -15   0    1.61    1.12
  -4  15   0    3.87    0.58
  -4  15   0    3.92    0.71
  -4  15   0    3.52    1.32
   4  15   1    0.91    0.58
  -4 -15  -1    1.96    0.56
  -4 -15  -1    1.07    1.05
  -4  15  -1    1.83    0.41
  -4  15  -1    1.16    0.53
  -4  15  -1    0.05    1.16
   4  15   2   43.79    4.15
  -4 -15  -2   41.33    4.12
  -4 -15  -2   35.04    4.35
  -4  15  -2   40.33    4.00
  -4  15  -2   37.93    4.03
  -4  15  -2   29.51    4.39
  -4 -15  -3   -0.21    0.52
  -4 -15  -3    0.96    1.03
  -4  15  -3    0.17    0.27
  -4  15  -3    0.05    0.32
   4  15   4   12.16    1.46
  -4 -15  -4   11.57    1.42
  -4 -15  -4   11.16    1.79
   4  15   5   -0.12    0.58
  -4 -15  -5    0.66    1.02
   4  15   6    0.09    0.65
  -4 -15  -6    0.17    0.54
  -4 -15  -6    0.10    0.99
   4  15   7    4.36    0.91
  -4 -15  -7    4.82    0.84
  -4 -15  -7    4.03    1.24
  -4 -16   0    0.40    1.08
  -4  16   0    0.44    1.21
  -4 -16  -1    0.12    1.03
  -4  16  -1    0.43    0.51
  -5   0   0    0.17    0.35
  -5   0   0    0.19    0.44
  -5   0  -1  138.40   15.21
  -5   0  -1  177.73   15.29
   5   0   2    0.46    0.35
  -5   0  -2    0.44    0.34
  -5   0  -2    0.56    0.42
   5   0   3  110.11   11.39
  -5   0  -3  109.49   11.38
  -5   0  -3  124.58   11.43
   5   0   4    0.24    0.34
  -5   0  -4    0.13    0.37
   5   0   5   37.04    4.30
  -5   0  -5   49.01    4.34
   5   0   6   -0.01    0.39
  -5   0  -6    0.35    0.39
   5   0   7  816.87   90.87
   5   0   7  967.67   90.90
  -5   0  -7 1071.03   91.01
   5   0   8    0.18    0.41
   5   0   8    0.05    0.32
  -5   0  -8    0.27    0.33
  -5   0  -8    0.12    0.38
   5   0   9   13.21    2.00
   5   0   9   22.47    1.99
  -5   0  -9   13.61    1.99
  -5   0  -9   30.10    2.05
   5   0  10    0.00    0.41
   5   0  10    0.22    0.28
  -5   0 -10    0.55    0.33
  -5   0 -10    0.04    0.34
   5   0  11  702.84   64.72
   5   0  11  588.55   64.64
  -5   0 -11  663.02   64.78
   5   0  12    0.16    0.46
  -5   0 -12    0.00    0.13
   5   0  13  138.33   14.28
   5   0  13  146.36   14.34
   5   0  14   -0.05    0.51
   5   0  14   -0.36    0.50
   5   0  15   70.51    7.40
   5   0  15   73.63    7.41
   5   0  16    0.06    0.58
   5   0  16    0.06    0.55
   5   0  17    2.93    0.79
   5   0  17    3.82    0.77
   5   0  18    0.00    0.65
   5   0  18   -0.42    0.64
   5   0  19  237.79   23.97
   5   0  20    0.20    0.72
  -5  -1   0  310.66   34.45
  -5  -1   0  386.09   34.53
  -5   1   0  327.00   34.44
  -5   1   0  425.84   34.57
  -5  -1  -1  445.76   46.14
  -5  -1  -1  509.12   46.21
  -5   1  -1  484.75   46.20
   5  -1   1  443.80   46.12
   5   1   2  285.29   30.27
  -5  -1  -2  275.80   30.26
  -5  -1  -2  359.19   30.34
  -5   1  -2  291.08   30.25
  -5   1  -2  384.10   30.36
   5  -1   2  295.94   30.26
   5   1   3   27.41    3.23
  -5  -1  -3   26.31    3.23
  -5  -1  -3   46.30    3.35
  -5   1  -3   28.22    3.22
  -5   1  -3   51.32    3.38
   5  -1   3   28.59    3.22
   5   1   4   93.81   10.22
  -5  -1  -4  106.85   10.25
  -5   1  -4  114.51   10.26
   5  -1   4   96.62   10.20
   5   1   5   21.65    2.12
  -5  -1  -5   20.75    2.10
  -5  -1  -5   19.75    2.11
  -5   1  -5   19.27    2.08
  -5   1  -5   18.27    2.10
   5  -1   5   19.48    2.09
   5   1   6  113.17   11.95
  -5  -1  -6  113.90   11.95
  -5   1  -6  113.36   11.92
  -5   1  -6  151.49   11.98
   5  -1   6  113.75   11.93
   5   1   7   33.94    3.66
  -5  -1  -7   34.73    3.66
  -5  -1  -7   38.63    3.65
  -5   1  -7   32.38    3.63
  -5   1  -7   40.13    3.66
   5  -1   7   33.14    3.64
   5   1   8   94.66   10.45
   5   1   8  104.09   10.40
  -5  -1  -8   95.79   10.46
  -5  -1  -8  113.20   10.43
  -5   1  -8   93.43   10.43
  -5   1  -8  119.54   10.43
   5  -1   8   96.25   10.44
   5  -1   8  111.28   10.41
   5   1   9   50.76    5.52
   5   1   9   50.92    5.44
  -5  -1  -9   53.96    5.52
  -5  -1  -9   56.50    5.47
  -5   1  -9   53.87    5.50
  -5   1  -9   57.25    5.47
   5  -1   9   52.41    5.50
   5  -1   9   54.54    5.44
   5   1  10  233.82   26.08
   5   1  10  258.91   26.04
  -5  -1 -10  235.13   26.09
  -5  -1 -10  301.96   26.05
  -5   1 -10  235.86   26.07
  -5   1 -10  291.29   26.03
   5  -1  10  232.88   26.06
   5  -1  10  283.10   26.01
   5   1  11  493.03   48.16
  -5  -1 -11  500.76   48.20
  -5   1 -11  501.43   48.26
   5  -1  11  491.05   48.13
   5  -1  11  460.55   48.03
   5   1  12    5.39    0.75
  -5  -1 -12    4.62    0.53
  -5  -1 -12    2.94    0.51
   5  -1  12    5.15    0.71
   5  -1  12    3.65    0.69
   5   1  13   11.72    1.54
   5   1  13   14.38    1.59
   5  -1  13   11.02    1.50
   5  -1  13   15.96    1.56
   5   1  14    8.34    1.15
   5   1  14    9.62    1.17
   5  -1  14    7.94    1.11
   5  -1  14    8.32    1.10
   5   1  15  205.95   19.67
   5   1  15  185.66   19.64
   5  -1  15  201.38   19.63
   5  -1  15  188.51   19.61
   5   1  16   21.38    2.46
   5  -1  16   21.81    2.44
   5  -1  16   22.19    2.42
   5   1  17   36.41    4.01
   5  -1  17   36.03    3.98
   5  -1  17   39.57    3.97
   5   1  18  194.92   19.80
   5   1  18  192.94   19.76
   5  -1  18  201.77   19.79
   5  -1  18  194.96   19.73
   5   1  19    5.13    1.14
   5   1  19    8.57    1.16
   5  -1  19    6.68    1.14
   5  -1  19    8.36    1.11
   5   1  20    5.18    1.07
   5   1  20    5.03    1.00
   5  -1  20    6.18    1.06
  -5  -2   0  512.60   57.58
  -5  -2   0  658.83   57.70
  -5   2   0  560.56   57.57
  -5   2   0  752.47   57.77
   5  -2   0  565.97   57.57
  -5  -2  -1   62.32    7.45
  -5  -2  -1   91.68    7.54
  -5   2  -1   65.76    7.42
  -5   2  -1  104.85    7.58
   5  -2   1   72.61    7.43
   5   2   2   20.15    2.16
  -5  -2  -2   20.29    2.16
  -5  -2  -2   21.43    2.20
  -5   2  -2   19.99    2.13
  -5   2  -2   21.45    2.20
   5  -2   2   19.58    2.13
   5   2   3    6.24    0.77
  -5  -2  -3    6.37    0.77
  -5  -2  -3    5.90    0.80
  -5   2  -3    5.76    0.70
  -5   2  -3    5.59    0.81
   5  -2   3    5.55    0.71
   5   2   4   10.71    0.93
  -5  -2  -4    4.79    0.87
  -5   2  -4    3.80    0.87
   5  -2   4   10.24    0.87
   5   2   5   24.32    2.72
  -5  -2  -5   24.21    2.71
  -5  -2  -5   28.01    2.74
  -5   2  -5   24.74    2.68
  -5   2  -5   29.10    2.75
   5  -2   5   26.54    2.70
   5   2   6    7.92    0.93
  -5  -2  -6    6.53    0.88
  -5   2  -6    6.29    0.82
   5  -2   6    8.47    0.88
   5   2   7  462.04   47.36
  -5  -2  -7  466.80   47.37
  -5  -2  -7  508.12   47.38
  -5   2  -7  449.81   47.32
  -5   2  -7  528.74   47.39
   5  -2   7  468.04   47.32
   5   2   8  136.58   14.97
  -5  -2  -8  136.78   14.97
  -5  -2  -8  184.17   14.97
  -5   2  -8  131.46   14.91
  -5   2  -8  198.03   14.97
   5  -2   8  133.88   14.92
   5   2   9   24.03    2.63
  -5  -2  -9   23.74    2.63
  -5  -2  -9   26.84    2.59
  -5   2  -9   22.99    2.58
  -5   2  -9   25.94    2.58
   5  -2   9   23.90    2.59
   5  -2   9   25.01    2.55
   5   2  10   16.90    1.94
  -5  -2 -10   16.00    1.93
  -5  -2 -10   19.75    1.88
  -5   2 -10   15.37    1.87
  -5   2 -10   19.72    1.87
   5  -2  10   15.97    1.88
   5  -2  10   17.93    1.83
   5   2  11    0.63    0.50
  -5  -2 -11    0.52    0.47
  -5  -2 -11    2.11    0.41
   5  -2  11    0.25    0.42
   5  -2  11    1.22    0.46
   5  -2  11    1.88    0.30
   5   2  12    3.32    0.61
  -5  -2 -12    1.33    0.37
  -5  -2 -12    0.34    0.36
  -5   2 -12    0.34    0.27
   5  -2  12    2.56    0.51
   5  -2  12    1.26    0.47
   5  -2  12    0.86    0.26
   5   2  13   84.26    8.36
  -5  -2 -13   82.40    8.20
  -5  -2 -13   77.33    8.19
   5  -2  13   81.02    8.31
   5  -2  13   89.90    8.34
   5   2  14  191.01   12.19
  -5  -2 -14  106.17   11.83
  -5  -2 -14   98.50   11.83
   5  -2  14  192.98   12.11
   5  -2  14  181.63   12.09
   5   2  15    1.58    0.65
   5   2  15    0.79    0.61
   5  -2  15    1.27    0.56
   5  -2  15    0.98    0.53
   5   2  16   39.82    4.10
   5   2  16   37.00    4.06
   5  -2  16   38.10    4.03
   5  -2  16   37.83    4.01
   5   2  17   13.63    1.70
   5   2  17   12.35    1.64
   5  -2  17   15.27    1.65
   5  -2  17   12.31    1.58
   5   2  18   51.18    4.81
   5   2  18   40.95    4.72
   5  -2  18   50.18    4.74
   5  -2  18   39.72    4.65
   5   2  19    0.67    0.74
   5   2  19    0.21    0.78
   5  -2  19   -0.39    0.67
   5  -2  19   -0.09    0.58
   5   2  20   22.43    2.55
   5   2  20   19.38    2.47
   5  -2  20   22.55    2.48
   5   3   0    1.87    0.48
  -5  -3   0    1.57    0.47
  -5  -3   0    3.96    0.62
  -5   3   0    1.84    0.42
  -5   3   0    6.47    0.70
   5  -3   0    2.18    0.43
  -5  -3  -1  597.33   64.37
  -5  -3  -1  690.41   64.45
  -5   3  -1  627.47   64.34
  -5   3  -1  731.86   64.49
   5  -3   1  649.86   64.35
  -5  -3  -2    7.50    0.97
  -5  -3  -2    7.89    1.02
  -5   3  -2    8.00    0.91
  -5   3  -2    9.55    1.06
   5  -3   2    7.95    0.91
   5   3   3    1.27    0.42
  -5  -3  -3    0.64    0.39
  -5  -3  -3    2.97    0.54
  -5   3  -3    0.94    0.31
  -5   3  -3    3.93    0.58
   5  -3   3    1.14    0.33
   5   3   4  411.92   43.07
  -5  -3  -4  445.31   43.11
  -5   3  -4  466.71   43.13
   5  -3   4  423.13   43.02
   5   3   5  340.70   35.39
  -5  -3  -5  325.30   35.37
  -5  -3  -5  434.56   35.45
  -5   3  -5  314.30   35.31
  -5   3  -5  475.39   35.47
   5  -3   5  355.56   35.33
   5   3   6   39.27    3.98
  -5  -3  -6   35.92    3.96
  -5   3  -6   35.59    3.89
  -5   3  -6   44.37    4.00
   5  -3   6   39.21    3.91
   5   3   7  125.34   13.33
  -5  -3  -7  130.05   13.33
  -5  -3  -7  141.95   13.33
  -5   3  -7  127.23   13.25
  -5   3  -7  143.13   13.33
   5  -3   7  132.55   13.26
   5   3   8    1.74    0.54
  -5  -3  -8    2.47    0.56
  -5  -3  -8    1.15    0.50
  -5   3  -8    2.68    0.42
  -5   3  -8    2.10    0.55
   5  -3   8    2.38    0.45
   5   3   9  149.09   15.63
  -5  -3  -9  149.98   15.62
  -5  -3  -9  173.86   15.60
  -5   3  -9  149.64   15.57
  -5   3  -9  168.35   15.59
   5  -3   9  145.77   15.55
   5   3  10   10.70    1.75
  -5  -3 -10   10.44    1.73
  -5  -3 -10   21.59    1.76
  -5   3 -10   25.97    1.79
   5  -3  10   12.16    1.68
   5  -3  10   19.95    1.77
   5   3  11   56.17    4.89
  -5  -3 -11   59.70    4.90
  -5  -3 -11   40.62    4.76
   5  -3  11   57.15    4.82
   5  -3  11   45.27    4.80
   5  -3  11   39.01    4.72
   5   3  12    0.45    0.51
  -5  -3 -12    0.10    0.36
  -5   3 -12    0.50    0.34
   5  -3  12    0.37    0.40
   5  -3  12    0.31    0.41
   5  -3  12    0.42    0.26
   5   3  13    0.34    0.55
  -5  -3 -13    0.16    0.49
  -5  -3 -13    0.64    0.39
   5  -3  13    0.03    0.43
   5   3  14    4.24    0.82
   5   3  14    4.18    0.85
  -5  -3 -14    4.15    0.59
   5  -3  14    3.49    0.69
   5   3  15   25.77    2.11
   5   3  15   20.92    2.06
  -5  -3 -15   16.07    1.78
  -5  -3 -15   11.83    1.76
   5  -3  15   25.89    1.99
   5  -3  15   21.67    1.94
   5   3  16   43.45    4.77
   5  -3  16   45.61    4.68
   5  -3  16   45.04    4.67
   5   3  17   11.17    1.34
   5   3  17    9.07    1.35
   5  -3  17    8.49    1.18
   5  -3  17    7.64    1.14
   5   3  18  118.88   11.98
   5   3  18  113.90   11.94
   5  -3  18  120.12   11.90
   5  -3  18  115.50   11.86
   5   3  19   18.51    2.21
   5   3  19   19.13    2.21
   5  -3  19   16.80    2.09
   5   4   0   66.94    6.98
  -5  -4   0   67.97    6.99
   5  -4   0   71.07    6.95
  -5  -4  -1  176.48   18.99
  -5   4  -1  234.02   19.10
   5  -4   1  183.66   18.94
  -5  -4  -2    0.87    0.41
  -5  -4  -2    0.80    0.48
  -5   4  -2    0.98    0.55
   5  -4   2    1.21    0.31
   5   4   3   77.44    7.95
  -5  -4  -3   80.11    7.95
  -5  -4  -3   72.76    7.97
  -5   4  -3   72.97    7.98
   5  -4   3   82.83    7.87
   5   4   4   61.10    5.78
  -5  -4  -4   52.41    5.77
  -5   4  -4   46.87    5.76
   5  -4   4   60.66    5.67
   5   4   5    1.06    0.48
  -5  -4  -5    0.80    0.39
  -5  -4  -5    0.59    0.45
  -5   4  -5    0.85    0.24
  -5   4  -5    1.35    0.53
   5  -4   5    0.57    0.29
   5   4   6    7.65    0.93
  -5  -4  -6    5.90    0.85
  -5   4  -6    5.28    0.74
  -5   4  -6    9.98    0.97
   5  -4   6    7.98    0.79
   5   4   7  248.34   25.99
  -5  -4  -7  246.37   26.00
  -5  -4  -7  303.72   26.03
  -5   4  -7  241.66   25.90
  -5   4  -7  324.12   26.04
   5  -4   7  249.52   25.91
   5   4   8   78.10    8.20
  -5  -4  -8   80.40    8.20
  -5  -4  -8   86.63    8.20
  -5   4  -8   78.06    8.10
  -5   4  -8   91.43    8.20
   5  -4   8   76.17    8.10
   5   4   9  446.75   46.71
  -5  -4  -9  438.87   46.70
  -5  -4  -9  516.52   46.72
  -5   4  -9  526.97   46.72
   5  -4   9  440.30   46.61
   5  -4   9  502.18   46.79
  -5  -4 -10   10.01    1.09
  -5  -4 -10    7.38    1.01
  -5   4 -10    7.11    1.02
   5  -4  10    9.06    0.96
   5  -4  10    7.51    0.95
   5   4  11    3.41    0.69
  -5  -4 -11    3.10    0.66
  -5  -4 -11    4.44    0.63
   5  -4  11    2.62    0.54
   5  -4  11    3.73    0.57
   5   4  12   41.34    4.50
  -5   4 -12   43.19    4.44
   5  -4  12   41.21    4.41
   5  -4  12   46.09    4.44
   5   4  13   46.39    4.64
  -5  -4 -13   47.12    4.64
  -5  -4 -13   43.02    4.53
   5  -4  13   44.75    4.53
   5  -4  13   46.08    4.55
   5  -4  13   40.68    4.48
   5   4  14    1.42    0.63
   5   4  14    0.38    0.76
  -5  -4 -14    0.14    0.43
   5  -4  14    1.63    0.49
   5  -4  14    0.59    0.47
   5  -4  14    0.49    0.33
   5  -4  14    0.13    0.28
   5   4  15    7.60    1.00
   5   4  15    6.55    1.09
  -5  -4 -15    6.70    0.73
   5  -4  15    7.13    0.82
   5  -4  15    7.16    0.81
   5  -4  15    3.81    0.55
   5   4  16   11.88    1.51
  -5  -4 -16    8.52    1.16
   5  -4  16   11.72    1.30
   5  -4  16   11.52    1.28
   5   4  17    5.52    0.93
   5   4  17    3.90    0.97
  -5  -4 -17    3.13    0.49
  -5  -4 -17    1.56    0.48
   5  -4  17    5.90    0.77
   5   4  18    0.05    0.72
   5   4  18    1.13    0.86
   5  -4  18    0.32    0.58
   5   4  19   11.26    1.64
   5   4  19   12.41    1.67
   5  -4  19   11.95    1.50
   5   5   0   21.02    2.37
  -5  -5   0   20.84    2.37
  -5  -5   0   29.18    2.52
  -5   5   0   22.43    2.34
  -5   5   0   22.81    2.50
   5  -5   0   21.67    2.35
  -5  -5  -1  122.91   13.61
  -5  -5  -1  159.96   13.71
  -5   5  -1  162.87   13.76
   5  -5   1  127.37   13.55
  -5  -5  -2  421.43   43.59
  -5  -5  -2  439.32   43.66
  -5   5  -2  449.53   43.69
   5  -5   2  442.73   43.53
   5   5   3   86.22    8.89
  -5  -5  -3   87.51    8.89
  -5  -5  -3   91.57    8.94
   5  -5   3   87.46    8.79
   5   5   4   77.69    8.05
  -5  -5  -4   81.19    8.09
   5  -5   4   79.45    7.94
   5   5   5    3.16    0.60
  -5  -5  -5    3.55    0.55
  -5  -5  -5    1.93    0.69
  -5   5  -5    1.71    0.63
   5  -5   5    2.39    0.36
   5   5   6  463.91   47.84
  -5  -5  -6  462.77   47.85
  -5   5  -6  445.79   47.73
  -5   5  -6  578.93   47.93
   5  -5   6  506.62   47.75
   5   5   7    1.20    0.50
  -5  -5  -7    0.56    0.41
  -5   5  -7    0.38    0.21
  -5   5  -7    2.21    0.57
   5  -5   7    1.06    0.32
   5   5   8   18.61    2.17
  -5  -5  -8   20.48    2.19
  -5   5  -8   19.97    2.19
   5  -5   8   20.18    2.06
   5  -5   8   19.65    2.07
   5   5   9  297.79   30.53
  -5  -5  -9  304.08   30.53
  -5   5  -9  306.01   30.52
   5  -5   9  296.21   30.41
   5  -5   9  322.92   30.44
  -5  -5 -10  196.68   20.71
  -5   5 -10  211.83   20.70
   5  -5  10  200.34   20.59
   5  -5  10  216.62   20.61
   5   5  11   25.76    2.66
  -5  -5 -11   25.57    2.64
  -5  -5 -11   21.82    2.58
   5  -5  11   24.34    2.54
   5   5  12   85.84    9.01
  -5   5 -12   94.61    9.02
   5  -5  12   81.49    8.88
   5  -5  12   95.00    8.90
   5   5  13   17.93    2.16
  -5  -5 -13   20.25    2.17
  -5  -5 -13   19.24    2.07
   5  -5  13   18.10    2.02
   5  -5  13   19.28    2.04
   5   5  14   19.14    1.92
  -5  -5 -14   13.25    1.73
   5  -5  14   17.53    1.74
   5  -5  14   14.80    1.71
   5   5  15   10.20    1.16
   5   5  15    7.27    1.23
  -5  -5 -15    7.05    0.92
   5  -5  15    7.50    0.91
   5  -5  15    6.29    0.83
   5  -5  15    5.41    0.79
   5   5  16   33.95    3.10
  -5  -5 -16   29.42    2.83
   5  -5  16   32.47    2.86
   5  -5  16   26.44    2.74
   5  -5  16   22.15    2.71
   5   5  17    8.41    1.25
   5   5  17    8.65    1.35
  -5  -5 -17    6.95    0.97
   5  -5  17    8.55    1.09
   5  -5  17    7.70    1.02
   5   5  18   22.13    2.20
  -5  -5 -18   14.11    1.84
   5  -5  18   21.87    2.02
   5   5  19   16.51    2.18
   5  -5  19   17.72    2.01
   5   6   0  921.17   91.39
  -5  -6   0  890.88   91.39
  -5  -6   0  921.23   91.48
  -5   6   0  901.54   91.33
  -5   6   0  943.77   91.53
   5  -6   0  945.00   91.35
  -5  -6  -1    1.45    0.54
  -5  -6  -1    5.27    0.82
  -5   6  -1    1.85    0.39
  -5   6  -1    6.85    0.94
   5  -6   1    2.21    0.46
  -5  -6  -2 1413.67  132.76
  -5   6  -2 1239.35  132.53
  -5   6  -2 1487.05  132.81
   5  -6   2 1337.97  132.54
  -5  -6  -3   30.74    3.56
  -5   6  -3   29.10    3.57
   5  -6   3   35.99    3.41
  -5  -6  -4  336.16   34.11
  -5   6  -4  346.33   34.13
  -5  -6  -5  251.71   24.49
  -5   6  -5  260.21   24.51
   5  -6   5  239.13   24.30
  -5  -6  -6    1.37    0.69
  -5   6  -6    1.58    0.72
   5  -6   6    1.77    0.26
  -5  -6  -7  208.96   18.44
  -5   6  -7  223.41   18.48
   5  -6   7  171.65   18.23
  -5  -6  -8  432.17   42.28
  -5   6  -8  426.23   42.28
   5  -6   8  400.95   42.10
   5  -6   8  446.26   42.12
  -5  -6  -9   15.35    1.39
   5  -6   9    7.87    1.08
   5  -6   9   12.09    1.11
  -5  -6 -10   79.32    7.47
   5  -6  10   67.83    7.30
   5  -6  10   76.11    7.32
   5   6  11    0.26    0.60
  -5  -6 -11   -0.02    0.65
  -5   6 -11    0.47    0.59
   5  -6  11    0.48    0.33
   5   6  12   19.36    2.20
   5  -6  12   19.53    2.02
   5  -6  12   18.48    2.02
   5   6  13   29.40    3.11
  -5  -6 -13   28.30    3.09
  -5  -6 -13   28.25    3.03
   5  -6  13   26.95    2.92
   5  -6  13   28.81    2.93
   5   6  14    8.90    1.27
  -5  -6 -14    7.29    1.15
   5  -6  14    9.47    1.02
   5  -6  14    8.36    1.00
   5  -6  14    7.42    1.05
   5   6  15   29.06    3.05
  -5  -6 -15   28.36    2.93
   5  -6  15   26.32    2.85
   5  -6  15   27.94    2.85
   5  -6  15   25.07    2.86
   5  -6  16   50.32    4.57
   5  -6  16   47.04    4.55
   5  -6  16   37.34    4.51
   5   6  17    2.12    0.90
   5   6  17    1.58    0.95
  -5  -6 -17    0.75    0.55
   5  -6  17    1.94    0.58
   5  -6  17    1.39    0.49
   5   6  18   18.01    1.96
   5   6  18   15.84    1.94
  -5  -6 -18   12.05    1.59
   5  -6  18   14.03    1.64
   5   7   0   81.43    8.25
  -5  -7   0   81.87    8.25
  -5  -7   0   86.54    8.38
  -5   7   0   81.55    8.19
  -5   7   0   76.19    8.36
   5  -7   0   80.90    8.21
  -5  -7  -1  111.03   11.78
  -5  -7  -1  114.43   11.88
  -5   7  -1  117.80   11.71
  -5   7  -1  116.08   11.90
   5  -7   1  121.43   11.72
  -5  -7  -2    0.63    0.48
  -5  -7  -2    4.44    0.80
  -5   7  -2    0.79    0.30
  -5   7  -2    7.30    0.94
   5  -7   2    1.97    0.35
   5   7   3  330.73   33.35
  -5  -7  -3  318.99   33.34
  -5  -7  -3  386.40   33.47
  -5   7  -3  313.99   33.22
  -5   7  -3  421.83   33.52
   5   7   4   29.53    3.91
  -5  -7  -4   45.57    4.06
  -5   7  -4   48.83    4.11
   5   7   5  240.29   24.78
  -5  -7  -5  245.01   24.78
  -5  -7  -5  252.56   24.85
  -5   7  -5  257.59   24.88
   5   7   6    5.29    0.83
  -5  -7  -6    5.10    0.79
  -5  -7  -6    4.77    0.93
  -5   7  -6    3.95    0.95
   5   7   7    0.20    0.55
  -5  -7  -7    0.11    0.54
  -5  -7  -7    0.31    0.67
  -5   7  -7   -0.14    0.72
   5   7   8   31.96    3.68
  -5  -7  -8   31.70    3.67
  -5  -7  -8   36.79    3.73
  -5   7  -8   42.42    3.80
   5   7   9  104.16    9.25
  -5  -7  -9  103.66    9.24
  -5  -7  -9  100.31    9.26
  -5   7  -9  104.71    9.30
   5  -7   9   86.79    9.01
   5  -7   9   86.88    9.01
  -5  -7 -10    0.80    0.62
  -5  -7 -10    0.82    0.71
  -5   7 -10    0.17    0.79
   5  -7  10    0.86    0.25
   5  -7  10    0.78    0.24
   5   7  11   44.00    4.35
  -5  -7 -11   43.76    4.35
  -5  -7 -11   41.04    4.33
  -5   7 -11   39.28    4.35
   5  -7  11   39.74    4.15
   5   7  12    0.17    0.65
  -5  -7 -12    0.17    0.62
  -5  -7 -12   -0.23    0.70
   5  -7  12    0.11    0.32
   5   7  13   16.02    1.89
  -5  -7 -13   15.57    1.86
  -5  -7 -13   18.61    1.87
   5  -7  13   14.08    1.64
   5   7  14    2.20    0.80
  -5  -7 -14    0.83    0.73
   5  -7  14    1.21    0.42
   5  -7  14    0.66    0.38
   5   7  15    3.56    0.91
   5   7  15    1.92    1.02
  -5  -7 -15    1.30    0.78
   5  -7  15    3.23    0.54
   5  -7  15    2.14    0.48
   5   7  16   11.56    1.60
  -5  -7 -16   10.57    1.35
   5  -7  16   10.02    1.17
   5  -7  16    9.57    1.13
   5  -7  16    8.71    1.22
   5   7  17   18.68    2.14
   5   7  17   17.62    2.19
   5  -7  17   17.56    1.85
   5  -7  17   16.58    1.81
   5  -7  17   14.98    1.84
   5   7  18    3.42    1.04
   5   7  18    4.54    1.16
  -5  -7 -18    4.19    0.87
   5  -7  18    3.37    0.69
   5   8   0   52.15    5.32
  -5  -8   0   53.01    5.32
  -5   8   0   53.42    5.26
  -5   8   0   50.19    5.45
   5  -8   0   48.88    5.28
  -5  -8  -1   13.56    1.67
  -5  -8  -1   18.26    1.87
  -5   8  -1   14.51    1.59
  -5   8  -1   16.93    1.91
  -5  -8  -2   58.32    5.89
  -5  -8  -2   55.18    5.97
  -5   8  -2   57.35    5.77
  -5   8  -2   58.40    5.78
  -5   8  -2   54.94    6.00
   5   8   3   22.42    2.34
  -5  -8  -3   22.07    2.33
  -5  -8  -3   18.40    2.42
  -5   8  -3   22.26    2.18
  -5   8  -3   21.33    2.19
  -5   8  -3   18.51    2.45
   5   8   4    2.05    0.57
  -5  -8  -4    1.35    0.75
  -5   8  -4    0.71    0.78
   5   8   5   37.20    3.95
  -5  -8  -5   35.02    3.93
  -5  -8  -5   39.84    4.04
  -5   8  -5   40.45    4.07
   5   8   6  119.28   12.66
  -5  -8  -6  113.41   12.65
  -5  -8  -6  140.37   12.77
  -5   8  -6  142.03   12.80
   5   8   7   13.12    1.64
  -5  -8  -7   14.70    1.65
  -5  -8  -7   12.90    1.71
  -5   8  -7   14.70    1.78
   5   8   8   23.51    2.90
  -5  -8  -8   24.02    2.89
  -5  -8  -8   29.71    3.00
  -5   8  -8   35.75    3.10
   5   8   9   44.75    4.96
  -5  -8  -9   46.69    4.97
  -5  -8  -9   49.76    5.03
  -5   8  -9   50.93    5.08
  -5  -8 -10    1.26    0.68
  -5  -8 -10    1.94    0.82
  -5   8 -10    2.02    0.92
   5   8  11    2.13    0.71
  -5  -8 -11    1.95    0.71
  -5  -8 -11    2.72    0.85
  -5   8 -11    3.17    0.92
   5  -8  11    0.61    0.16
   5  -8  11    1.25    0.19
   5   8  12   19.01    2.15
  -5  -8 -12   20.79    2.16
  -5  -8 -12   18.73    2.17
   5  -8  12   17.50    1.89
   5   8  13   54.92    5.37
  -5  -8 -13   58.72    5.39
  -5  -8 -13   45.81    5.31
   5  -8  13   52.10    5.13
   5  -8  13   48.41    5.12
   5   8  14   65.30    6.58
  -5  -8 -14   67.76    6.56
   5  -8  14   59.51    6.34
   5  -8  14   63.72    6.35
   5  -8  14   65.27    6.55
   5   8  15    1.01    0.80
   5   8  15    0.07    0.97
  -5  -8 -15    0.11    0.77
   5  -8  15    0.76    0.40
   5  -8  15    0.54    0.34
   5   8  16    8.31    1.18
   5   8  16    5.55    1.28
  -5  -8 -16    5.08    1.05
   5  -8  16    6.10    0.75
   5  -8  16    4.54    0.69
   5  -8  16    5.52    1.00
   5   8  17    0.57    0.86
   5   8  17    0.16    0.97
   5  -8  17    0.14    0.43
   5   9   0   21.87    2.19
  -5  -9   0   21.33    2.18
  -5   9   0   17.91    2.08
  -5   9   0   20.78    2.12
  -5   9   0   20.33    2.39
  -5  -9  -1   38.25    3.76
  -5  -9  -1   42.76    3.94
  -5   9  -1   32.67    3.65
  -5   9  -1   40.10    3.95
  -5  -9  -2   55.18    5.91
  -5  -9  -2   64.67    6.07
  -5   9  -2   52.98    5.79
  -5   9  -2   61.97    5.81
  -5   9  -2   67.31    6.12
   5   9   3    9.38    1.14
  -5  -9  -3    9.05    1.13
  -5  -9  -3   10.86    1.35
  -5   9  -3    8.22    0.93
  -5   9  -3    9.09    0.94
  -5   9  -3   10.50    1.40
   5   9   4  121.82   11.82
  -5  -9  -4  114.79   11.90
  -5   9  -4  111.56   11.93
   5   9   5    1.50    0.65
  -5  -9  -5    0.86    0.57
  -5  -9  -5    4.20    0.89
  -5   9  -5    7.83    1.06
   5   9   6    0.65    0.61
  -5  -9  -6    0.49    0.52
  -5  -9  -6    0.57    0.76
  -5   9  -6    1.55    0.89
   5   9   7    5.26    0.89
  -5  -9  -7    6.38    0.90
  -5   9  -7    2.57    1.06
   5   9   8    0.83    0.64
  -5  -9  -8    1.30    0.63
  -5  -9  -8    0.22    0.79
  -5   9  -8    0.36    0.92
   5   9   9   89.15    8.65
  -5  -9  -9   92.37    8.65
  -5  -9  -9   79.80    8.68
  -5   9  -9   73.37    8.71
  -5  -9 -10  111.36   11.47
  -5  -9 -10  113.15   11.53
  -5   9 -10  115.37   11.62
   5   9  11   16.34    2.25
  -5  -9 -11   25.64    2.41
   5   9  12    2.70    0.81
  -5  -9 -12    1.82    0.76
  -5  -9 -12    3.05    0.94
   5   9  13   -0.06    0.72
  -5  -9 -13   -0.11    0.71
   5   9  14   -0.32    0.75
  -5  -9 -14    0.26    0.84
   5  -9  14   -0.04    0.23
   5  -9  14    0.16    0.24
   5  -9  14    0.34    0.80
   5   9  15    1.42    0.83
   5   9  15    1.50    1.06
  -5  -9 -15    1.86    0.89
   5  -9  15    1.34    0.33
   5  -9  15    1.05    0.32
   5   9  16    2.94    0.91
   5   9  16    1.72    1.09
  -5  -9 -16    1.79    0.92
   5  -9  16    2.16    0.42
   5  -9  16    2.04    0.42
   5  -9  16    2.25    0.88
   5  10   0   67.79    6.43
  -5 -10   0   64.09    6.40
  -5  10   0   61.29    6.31
  -5  10   0   55.54    6.55
  -5 -10  -1    3.01    0.63
  -5 -10  -1    3.14    0.93
  -5  10  -1    2.75    0.45
  -5  10  -1    3.86    0.54
  -5  10  -1    4.23    1.06
   5  10   2    2.96    0.66
  -5 -10  -2    3.15    0.64
  -5 -10  -2    2.61    0.90
  -5  10  -2    3.40    0.43
  -5  10  -2    3.11    0.47
  -5  10  -2    2.28    1.01
   5  10   3   52.99    4.70
  -5 -10  -3   50.98    4.68
  -5 -10  -3   47.47    4.81
  -5  10  -3   42.11    4.50
  -5  10  -3   43.13    4.83
   5  10   4   15.11    1.84
  -5 -10  -4   17.18    2.03
  -5  10  -4   17.50    2.10
   5  10   5   56.02    5.39
  -5 -10  -5   50.44    5.35
  -5 -10  -5   49.40    5.46
  -5  10  -5   50.33    5.52
   5  10   6    0.94    0.64
  -5 -10  -6    0.50    0.55
  -5 -10  -6    0.64    0.81
  -5  10  -6    0.36    0.92
   5  10   7   19.00    2.12
  -5 -10  -7   17.52    2.09
  -5  10  -7   19.53    2.32
   5  10   8  100.04    9.93
  -5 -10  -8  101.59    9.92
  -5 -10  -8   93.04   10.00
  -5  10  -8   91.35   10.04
   5  10   9   15.87    1.91
  -5 -10  -9   14.95    1.88
  -5 -10  -9   16.81    2.04
  -5  10  -9   17.62    2.13
   5  10  10   22.03    2.65
  -5 -10 -10   22.89    2.64
  -5 -10 -10   24.22    2.76
  -5  10 -10   28.14    2.88
   5  10  11   61.76    6.50
  -5 -10 -11   63.57    6.58
   5  10  12    0.28    0.71
  -5 -10 -12    0.92    0.72
  -5 -10 -12    0.21    0.89
   5  10  13    0.09    0.73
  -5 -10 -13    0.32    0.73
   5  10  14   14.83    1.83
  -5 -10 -14   14.09    1.89
   5 -10  14   13.57    1.81
   5  10  15   29.40    3.55
  -5 -10 -15   31.20    3.43
   5  11   0    4.80    0.80
  -5 -11   0    5.57    0.78
  -5  11   0    4.57    0.62
  -5  11   0    4.43    1.18
  -5 -11  -1    9.07    1.18
  -5 -11  -1    9.42    1.45
  -5  11  -1    9.08    1.04
  -5  11  -1    9.97    1.10
  -5  11  -1   11.42    1.57
   5  11   2    2.51    0.64
  -5 -11  -2    2.31    0.61
  -5 -11  -2    3.42    0.97
  -5  11  -2    2.35    0.38
  -5  11  -2    2.95    0.44
  -5  11  -2    3.53    1.09
   5  11   3   33.62    3.15
  -5 -11  -3   35.04    3.15
  -5 -11  -3   31.71    3.31
  -5  11  -3   28.36    2.94
  -5  11  -3   27.78    2.95
  -5  11  -3   29.57    3.36
   5  11   4    0.16    0.55
  -5 -11  -4    1.46    0.87
  -5  11  -4    2.33    1.03
   5  11   5    9.36    1.24
  -5 -11  -5    8.14    1.17
  -5 -11  -5   11.01    1.45
  -5  11  -5    8.79    1.53
   5  11   6    0.32    0.63
  -5 -11  -6   -0.28    0.54
  -5 -11  -6    0.37    0.85
  -5  11  -6    0.06    0.98
   5  11   7    3.97    0.86
  -5 -11  -7    4.48    0.82
  -5  11  -7    2.64    1.14
   5  11   8    5.61    0.95
  -5 -11  -8    6.52    0.93
  -5 -11  -8    3.00    1.07
  -5  11  -8    1.82    1.18
   5  11   9    9.50    1.30
  -5 -11  -9    9.69    1.27
  -5 -11  -9    7.04    1.42
  -5  11  -9    9.26    1.59
   5  11  10   44.23    4.62
  -5 -11 -10   44.35    4.61
  -5 -11 -10   41.70    4.71
   5  11  11   33.06    3.42
  -5 -11 -11   28.85    3.49
   5  11  12    0.13    0.73
  -5 -11 -12   -0.04    0.70
  -5 -11 -12    0.62    0.96
   5  11  13   -0.20    0.74
  -5 -11 -13   -0.01    0.73
   5  11  14    6.90    1.24
   5  11  14    8.45    1.50
  -5 -11 -14    7.76    1.40
   5 -11  14    7.64    1.30
   5  12   0   73.81    7.54
  -5 -12   0   71.33    7.52
  -5  12   0   72.79    7.44
  -5  12   0   77.71    7.48
  -5  12   0   72.15    7.78
  -5 -12  -1   38.36    3.40
  -5 -12  -1   24.94    3.52
  -5  12  -1   35.97    3.27
  -5  12  -1   16.41    3.50
   5  12   2  155.62   14.65
  -5 -12  -2  152.24   14.63
  -5 -12  -2  157.61   14.85
  -5  12  -2  135.71   14.47
  -5  12  -2  147.65   14.50
  -5  12  -2  148.84   14.90
   5  12   3    0.45    0.56
  -5 -12  -3    0.07    0.51
  -5 -12  -3    2.03    0.94
  -5  12  -3    0.31    0.21
  -5  12  -3    0.69    0.23
  -5  12  -3    1.95    1.08
   5  12   4    3.41    0.71
  -5 -12  -4    3.07    1.04
  -5  12  -4    1.60    1.11
   5  12   5    1.14    0.66
  -5 -12  -5    0.54    0.56
  -5 -12  -5    0.45    0.90
  -5  12  -5    0.94    1.08
   5  12   6    7.08    1.10
  -5 -12  -6    7.16    1.03
  -5 -12  -6    7.99    1.34
  -5  12  -6    6.49    1.44
   5  12   7   77.74    7.32
  -5 -12  -7   78.26    7.31
  -5  12  -7   51.70    7.40
   5  12   8   21.14    2.42
  -5 -12  -8   20.33    2.39
  -5 -12  -8   22.90    2.61
  -5  12  -8   21.61    2.70
  -5 -12  -9    1.58    0.71
  -5 -12  -9    1.11    1.01
   5  12  10   20.68    2.31
  -5 -12 -10   19.32    2.28
  -5 -12 -10   19.35    2.46
   5  12  11   -0.42    0.73
  -5 -12 -11    1.02    1.00
   5  12  12    0.72    0.77
  -5 -12 -12    0.59    0.72
  -5 -12 -12    0.50    1.01
   5  12  13    1.16    0.80
   5  13   0    3.58    0.70
  -5 -13   0    3.03    0.64
  -5  13   0    2.43    0.48
  -5  13   0    3.24    0.60
  -5  13   0    2.96    1.22
   5  13   1    2.52    0.66
  -5 -13  -1    2.52    0.62
  -5 -13  -1    2.18    1.04
  -5  13  -1    2.37    0.43
  -5  13  -1    2.81    0.53
  -5  13  -1    2.32    1.18
  -5 -13  -2   37.57    4.05
  -5 -13  -2   37.67    4.27
  -5  13  -2   39.83    3.96
  -5  13  -2   37.64    4.36
   5  13   3    0.50    0.57
  -5 -13  -3    0.52    0.52
  -5 -13  -3    0.73    0.95
  -5  13  -3    0.37    0.21
  -5  13  -3    0.14    0.23
  -5  13  -3    0.73    1.11
   5  13   4    1.68    0.65
  -5 -13  -4    1.78    1.01
  -5  13  -4    1.52    1.14
   5  13   5   14.58    1.63
  -5 -13  -5   11.40    1.53
  -5 -13  -5   13.39    1.84
   5  13   6   41.98    4.10
  -5 -13  -6   41.72    4.07
  -5 -13  -6   36.73    4.24
  -5  13  -6   28.79    4.24
   5  13   7   10.27    1.36
  -5 -13  -7   10.43    1.32
  -5  13  -7    7.50    1.66
   5  13   8    6.85    1.10
  -5 -13  -8    5.64    1.03
  -5 -13  -8    7.11    1.37
  -5 -13  -9   16.20    1.87
  -5 -13  -9   14.23    2.09
   5  13  10   58.34    5.69
  -5 -13 -10   57.41    5.66
  -5 -13 -10   44.55    5.75
   5  13  11    0.31    0.76
  -5 -13 -11    0.26    0.70
  -5 -13 -11   -0.46    1.03
   5  14   0    7.19    0.98
  -5 -14   0    7.21    0.94
  -5  14   0    7.00    0.80
  -5  14   0    5.78    0.88
  -5  14   0    2.06    1.39
   5  14   1    9.16    1.17
  -5 -14  -1    8.31    1.12
  -5 -14  -1    9.47    1.53
  -5  14  -1    7.47    0.97
  -5  14  -1    9.77    1.05
  -5  14  -1   11.50    1.72
  -5 -14  -2   38.58    3.94
  -5 -14  -2   34.83    4.16
  -5  14  -2   38.77    3.81
  -5  14  -2   36.92    3.83
  -5  14  -2   32.19    4.23
   5  14   3    9.17    1.07
  -5 -14  -3    8.83    1.04
  -5 -14  -3    9.54    1.46
  -5  14  -3    6.28    0.76
  -5  14  -3    9.82    1.63
   5  14   4   12.16    1.57
  -5 -14  -4   14.02    1.90
  -5  14  -4   14.10    2.02
   5  14   5    0.36    0.68
  -5 -14  -5    0.49    0.57
  -5 -14  -5    0.77    1.01
   5  14   6    3.84    0.85
  -5 -14  -6    4.29    0.77
  -5 -14  -6    1.52    1.11
  -5  14  -6    1.52    1.24
   5  14   7   16.56    2.02
  -5 -14  -7   17.62    2.00
   5  14   8    0.41    0.72
  -5 -14  -8    0.39    0.66
  -5 -14  -8   -0.27    1.03
  -5 -14  -9    9.39    1.29
  -5 -14  -9    8.46    1.58
   5  15   0    2.03    0.65
  -5 -15   0    2.13    0.60
  -5  15   0    2.11    0.44
  -5  15   0    1.38    0.57
  -5  15   0    1.70    1.26
   5  15   1    7.97    1.09
  -5 -15  -1    7.33    1.04
  -5 -15  -1    6.57    1.45
  -5  15  -1    8.21    0.97
  -5  15  -1    6.22    1.60
  -5 -15  -2   15.32    1.51
  -5 -15  -2   12.04    1.85
  -5  15  -2   11.34    1.31
  -5  15  -2   12.62    1.34
  -5  15  -2   10.03    1.93
   5  15   3   14.45    1.22
  -5 -15  -3   14.33    1.18
  -5 -15  -3    9.50    1.54
  -5  15  -3    6.84    0.83
  -5  15  -3    7.40    0.84
  -5  15  -3    6.08    1.56
   5  15   4   -0.04    0.59
  -5 -15  -4   -0.35    1.03
  -5  15  -4   -0.14    1.16
   5  15   5    9.45    1.29
  -5 -15  -5    9.94    1.23
  -5 -15  -5    6.61    1.53
   5  15   6    3.93    0.90
  -5 -15  -6    4.00    1.23
   6   0   0  808.76   80.89
  -6   0   0  796.71   80.89
  -6   0   0  846.10   80.98
   6   0   1    0.14    0.39
  -6   0  -1    0.22    0.46
   6   0   2  275.45   27.63
  -6   0  -2  278.91   27.68
   6   0   3    0.10    0.38
  -6   0  -3    0.21    0.35
  -6   0  -3   -0.15    0.43
   6   0   4   51.75    5.59
  -6   0  -4   53.26    5.58
  -6   0  -4   62.14    5.65
   6   0   5    0.01    0.45
  -6   0  -5   -0.21    0.22
  -6   0  -5   -0.19    0.46
   6   0   6    8.71    0.94
  -6   0  -6    5.58    0.89
   6   0   7    0.17    0.44
  -6   0  -7   -0.75    0.35
  -6   0  -7    0.00    0.42
   6   0   8  129.99   13.19
  -6   0  -8  130.52   13.17
  -6   0  -8  132.73   13.16
   6   0   9    0.18    0.43
  -6   0  -9    0.85    0.38
  -6   0  -9    0.20    0.42
  -6   0 -10  119.84   14.43
  -6   0 -10  171.45   14.43
   6   0  11    0.07    0.45
   6   0  11   -0.17    0.31
  -6   0 -11    0.19    0.41
   6   0  12   20.29    2.01
   6   0  12   15.56    1.85
  -6   0 -12   22.05    2.01
  -6   0 -12   17.50    1.87
   6   0  13    0.50    0.52
  -6   0 -13    0.33    0.44
  -6   0 -13    0.00    0.25
   6   0  14   66.41    6.11
   6   0  14   51.94    6.06
   6   0  15    0.03    0.56
   6   0  15   -0.24    0.54
   6   0  16   78.30    8.04
   6   0  17    0.03    0.63
   6   0  17   -0.02    0.58
   6   0  18  207.54   20.84
   6   0  18  205.55   20.79
   6   0  19   -0.41    0.73
   6   1   0   18.21    2.11
  -6  -1   0   17.21    2.10
  -6  -1   0   24.33    2.21
  -6   1   0   25.23    2.22
   6  -1   0   18.80    2.11
   6   1   1  187.51   20.27
  -6  -1  -1  182.43   20.27
  -6  -1  -1  249.86   20.37
  -6   1  -1  263.58   20.39
   6  -1   1  188.14   20.26
   6   1   2   98.32    9.90
  -6  -1  -2   93.52    9.94
  -6   1  -2   98.17    9.95
   6  -1   2  101.92    9.90
   6   1   3   23.69    2.69
  -6  -1  -3   29.58    2.76
  -6   1  -3   22.12    2.67
  -6   1  -3   30.89    2.77
   6  -1   3   26.00    2.69
   6   1   4    9.01    1.14
  -6  -1  -4    7.82    1.10
  -6  -1  -4   13.03    1.20
  -6   1  -4    8.04    1.08
  -6   1  -4   13.38    1.21
   6  -1   4    9.47    1.13
   6   1   5  128.89   13.74
  -6  -1  -5  127.01   13.73
  -6  -1  -5  149.62   13.78
  -6   1  -5  131.75   13.72
  -6   1  -5  156.15   13.78
   6  -1   5  138.10   13.73
   6   1   6   28.52    3.09
  -6  -1  -6   23.86    3.05
  -6  -1  -6   41.57    3.16
  -6   1  -6   23.75    3.03
  -6   1  -6   43.60    3.16
   6  -1   6   28.68    3.07
   6   1   7    1.76    0.54
  -6  -1  -7    1.96    0.54
  -6  -1  -7    2.58    0.50
  -6   1  -7    1.55    0.49
  -6   1  -7    2.12    0.51
   6  -1   7    2.46    0.52
   6   1   8  181.39   19.86
  -6  -1  -8  173.72   19.85
  -6  -1  -8  271.89   19.90
  -6   1  -8  167.83   19.82
  -6   1  -8  285.15   19.92
   6  -1   8  180.48   19.83
   6   1   9    3.90    0.64
  -6  -1  -9    4.04    0.64
  -6  -1  -9    1.91    0.54
  -6   1  -9    3.74    0.58
  -6   1  -9    1.83    0.56
   6  -1   9    4.11    0.62
  -6  -1 -10    0.73    0.46
  -6  -1 -10    0.62    0.43
  -6   1 -10    0.73    0.42
  -6   1 -10    0.77    0.42
   6   1  11    0.70    0.52
  -6  -1 -11    1.14    0.50
  -6   1 -11    0.78    0.44
   6  -1  11    1.19    0.50
   6  -1  11    1.95    0.37
   6   1  12  141.79   13.84
   6   1  12  131.20   13.75
  -6  -1 -12  142.55   13.84
  -6  -1 -12  149.84   13.72
  -6   1 -12  142.94   13.83
  -6   1 -12  135.62   13.70
   6  -1  12  134.45   13.80
   6  -1  12  127.91   13.68
   6   1  13   44.85    4.29
  -6  -1 -13   43.78    4.27
  -6  -1 -13   44.14    4.13
  -6   1 -13   34.81    4.08
   6  -1  13   42.91    4.25
   6  -1  13   46.22    4.29
   6   1  14    7.29    1.07
   6  -1  14    7.40    1.03
   6  -1  14    7.31    1.01
   6   1  15   20.81    2.07
   6   1  15   15.01    1.99
   6  -1  15   20.33    2.03
   6  -1  15   15.15    1.95
   6  -1  16   10.86    1.36
   6   1  17    0.69    0.67
   6  -1  17    0.21    0.63
   6  -1  17    0.71    0.58
   6   1  18   21.35    2.42
   6   1  18   20.34    2.36
   6  -1  18   22.25    2.40
   6  -1  18   19.14    2.31
   6   1  19   27.68    2.95
   6   1  19   23.51    2.84
   6  -1  19   26.86    2.91
   6   2   0  300.15   31.24
  -6  -2   0  295.43   31.23
  -6  -2   0  344.54   31.31
  -6   2   0  374.08   31.35
   6  -2   0  297.00   31.21
   6   2   1  749.88   77.74
  -6  -2  -1  756.69   77.74
  -6  -2  -1  822.01   77.83
  -6   2  -1  873.52   77.88
   6  -2   1  768.75   77.73
   6   2   2    1.16    0.45
  -6   2  -2    1.14    0.37
   6  -2   2    1.05    0.39
   6   2   3  136.55   14.43
  -6  -2  -3  180.12   14.51
  -6   2  -3  125.49   14.38
  -6   2  -3  192.26   14.54
   6  -2   3  134.78   14.39
   6   2   4    7.82    0.92
  -6  -2  -4    6.79    0.85
  -6   2  -4    5.41    0.79
   6  -2   4    7.72    0.86
   6   2   5   62.82    6.38
  -6  -2  -5   61.76    6.38
  -6  -2  -5   69.33    6.41
  -6   2  -5   58.42    6.32
   6  -2   5   63.16    6.34
   6   2   6    2.45    0.56
  -6  -2  -6    2.83    0.49
  -6  -2  -6    0.68    0.49
  -6   2  -6    2.24    0.40
  -6   2  -6    0.36    0.49
   6  -2   6    2.80    0.50
   6   2   7   25.03    2.72
  -6  -2  -7   27.88    2.73
  -6  -2  -7   24.71    2.69
  -6   2  -7   26.85    2.67
  -6   2  -7   23.05    2.68
   6  -2   7   25.82    2.68
   6   2   8  408.51   42.24
  -6  -2  -8  407.69   42.25
  -6  -2  -8  480.37   42.26
  -6   2  -8  390.56   42.19
  -6   2  -8  486.12   42.27
   6  -2   8  409.00   42.20
   6   2   9  340.99   35.56
  -6  -2  -9  354.46   35.57
  -6  -2  -9  389.38   35.55
  -6   2  -9  338.05   35.51
  -6   2  -9  393.49   35.55
   6  -2   9  336.85   35.51
   6   2  10    0.38    0.50
  -6  -2 -10    0.60    0.48
  -6  -2 -10    1.38    0.46
  -6   2 -10    0.49    0.39
  -6   2 -10    2.34    0.48
   6   2  11  120.93   12.72
  -6   2 -11  122.12   12.68
   6  -2  11  121.78   12.67
   6  -2  11  134.51   12.62
   6   2  12   28.86    2.77
  -6  -2 -12   29.38    2.76
  -6  -2 -12   25.17    2.63
  -6   2 -12   22.86    2.61
   6  -2  12   28.73    2.71
   6  -2  12   22.99    2.59
   6   2  13    3.30    0.82
  -6  -2 -13    2.61    0.76
  -6  -2 -13    7.08    0.69
  -6  -2 -13    5.43    0.66
  -6   2 -13    5.50    0.62
   6  -2  13    2.71    0.73
   6  -2  13    5.39    0.78
   6   2  14   24.49    2.07
  -6  -2 -14   24.23    2.05
  -6  -2 -14   12.72    1.78
   6  -2  14   21.86    1.96
   6  -2  14   15.72    1.89
   6   2  15   37.58    3.80
   6   2  15   34.65    3.79
   6  -2  15   36.19    3.73
   6  -2  15   33.11    3.70
   6   2  16   71.53    7.91
   6  -2  16   81.45    7.88
   6   2  17   43.34    4.44
   6   2  17   42.49    4.41
   6  -2  17   40.97    4.37
   6  -2  17   39.60    4.33
   6   2  18   13.33    1.69
   6   2  18   12.10    1.67
   6  -2  18   14.06    1.62
   6  -2  18   11.69    1.54
   6   2  19   57.17    6.01
   6   2  19   60.11    5.98
   6  -2  19   53.72    5.93
   6   3   0 1425.04  145.36
  -6  -3   0 1446.45  145.36
  -6  -3   0 1647.49  145.54
  -6   3   0 1429.97  145.32
   6  -3   0 1450.71  145.33
   6   3   1   44.95    4.57
  -6  -3  -1   44.39    4.57
  -6   3  -1   43.02    4.52
   6  -3   1   45.25    4.55
   6   3   2    1.70    0.50
  -6   3  -2    1.85    0.40
  -6   3  -2    1.78    0.59
   6  -3   2    2.03    0.47
   6   3   3    3.43    0.72
  -6  -3  -3    8.02    0.86
  -6   3  -3    3.82    0.64
  -6   3  -3    9.42    0.89
   6  -3   3    5.41    0.70
   6   3   4  716.68   75.02
  -6  -3  -4  722.03   75.02
  -6  -3  -4  816.78   75.10
  -6   3  -4  730.46   74.98
  -6   3  -4  852.34   75.13
   6  -3   4  757.03   74.99
   6   3   5    8.66    1.02
  -6  -3  -5    7.40    0.94
  -6  -3  -5    8.12    1.01
  -6   3  -5    6.47    0.86
   6  -3   5    8.47    0.92
   6   3   6   53.52    5.92
  -6  -3  -6   54.37    5.92
  -6   3  -6   53.04    5.85
  -6   3  -6   80.82    6.01
   6  -3   6   59.09    5.87
   6   3   7  272.61   27.81
  -6  -3  -7  270.36   27.81
  -6  -3  -7  296.13   27.82
  -6   3  -7  269.14   27.74
  -6   3  -7  290.43   27.81
   6  -3   7  278.60   27.74
   6   3   8  124.04   13.42
  -6  -3  -8  123.04   13.42
  -6  -3  -8  154.32   13.44
  -6   3  -8  123.61   13.34
  -6   3  -8  162.73   13.44
   6  -3   8  128.37   13.35
   6   3   9  119.01   12.69
  -6  -3  -9  125.98   12.69
  -6  -3  -9  128.86   12.66
  -6   3  -9  125.31   12.61
  -6   3  -9  127.10   12.65
   6  -3   9  126.94   12.62
   6   3  10   12.24    1.55
  -6  -3 -10   13.48    1.55
  -6  -3 -10   15.42    1.51
  -6   3 -10   11.10    1.45
  -6   3 -10   15.12    1.51
   6   3  11    2.19    0.60
  -6  -3 -11    0.82    0.48
  -6   3 -11    1.78    0.44
   6  -3  11    1.74    0.48
   6   3  12   32.42    3.71
  -6  -3 -12   31.52    3.69
  -6  -3 -12   36.73    3.65
  -6   3 -12   38.46    3.64
   6  -3  12   33.42    3.64
   6  -3  12   36.37    3.68
   6   3  13   49.03    5.27
  -6  -3 -13   47.88    5.25
  -6  -3 -13   51.21    5.16
  -6   3 -13   51.92    5.15
   6  -3  13   51.48    5.20
   6  -3  13   50.10    5.11
   6   3  14   26.06    2.50
  -6  -3 -14   28.66    2.51
  -6  -3 -14   22.07    2.31
   6  -3  14   26.81    2.41
   6  -3  14   17.98    2.23
   6   3  15   53.59    5.16
   6   3  15   54.88    5.22
  -6  -3 -15   47.55    4.96
  -6  -3 -15   42.28    4.94
   6  -3  15   54.26    5.08
   6  -3  15   52.73    5.06
   6   3  16   32.46    3.10
   6   3  16   28.16    3.09
   6  -3  16   24.55    2.92
   6   3  17   16.13    2.00
   6   3  17   17.04    2.04
   6  -3  17   17.92    1.92
   6  -3  17   14.94    1.86
   6   3  18   21.09    2.33
   6   3  18   18.90    2.30
   6  -3  18   18.25    2.14
   6   3  19   16.00    1.91
   6   3  19   11.88    1.83
   6  -3  19   15.46    1.78
   6   4   0   68.59    7.04
  -6  -4   0   68.42    7.04
  -6  -4   0   77.04    7.14
  -6   4   0   66.26    6.99
  -6   4   0   73.98    7.15
   6  -4   0   67.42    7.01
   6   4   1    8.13    1.02
  -6  -4  -1    8.66    1.03
  -6  -4  -1   11.00    1.20
  -6   4  -1    7.55    0.95
  -6   4  -1    8.68    1.19
   6  -4   1    7.67    0.98
   6   4   2  223.21   24.19
  -6  -4  -2  274.60   24.28
  -6   4  -2  222.05   24.13
  -6   4  -2  304.42   24.32
   6  -4   2  242.02   24.14
   6   4   3   73.46    7.92
  -6  -4  -3   81.67    7.97
  -6   4  -3   76.33    7.83
   6  -4   3   81.02    7.85
   6   4   4   25.04    2.53
  -6  -4  -4   22.32    2.49
  -6  -4  -4   21.91    2.54
  -6   4  -4   22.45    2.42
   6  -4   4   25.27    2.45
   6   4   5   31.55    3.18
  -6  -4  -5   28.06    3.15
  -6   4  -5   27.79    3.07
   6  -4   5   33.53    3.10
   6   4   6   10.05    1.10
  -6  -4  -6   10.56    1.10
  -6   4  -6    7.52    0.91
  -6   4  -6    5.27    1.04
   6  -4   6    9.21    0.96
   6   4   7   71.55    7.49
  -6  -4  -7   74.91    7.50
  -6   4  -7   73.43    7.40
  -6   4  -7   69.43    7.49
   6  -4   7   76.02    7.40
   6   4   8  180.71   19.61
  -6  -4  -8  183.43   19.62
  -6  -4  -8  211.51   19.63
  -6   4  -8  186.72   19.52
  -6   4  -8  235.01   19.66
   6  -4   8  195.52   19.53
  -6  -4  -9   25.41    2.35
  -6  -4  -9   16.18    2.26
  -6   4  -9   25.59    2.24
  -6   4  -9   14.86    2.25
   6  -4   9   24.39    2.25
   6   4  10  386.71   39.46
  -6  -4 -10  384.59   39.45
  -6  -4 -10  409.65   39.43
  -6   4 -10  388.36   39.45
  -6   4 -10  402.73   39.42
   6   4  11    0.89    0.60
  -6  -4 -11    3.72    0.61
   6  -4  11    1.66    0.49
   6  -4  11    2.74    0.50
   6   4  12   91.36   10.31
  -6  -4 -12   93.17   10.30
  -6  -4 -12  109.97   10.27
  -6   4 -12  110.79   10.26
   6  -4  12   94.01   10.22
   6  -4  12  109.31   10.25
   6   4  13    0.48    0.60
  -6  -4 -13    0.27    0.54
  -6  -4 -13    0.25    0.46
  -6   4 -13    0.68    0.48
   6  -4  13    0.36    0.45
   6  -4  13    0.02    0.42
   6   4  14   26.55    3.05
  -6  -4 -14   24.66    3.02
  -6  -4 -14   29.66    2.94
   6  -4  14   26.78    2.94
   6  -4  14   29.99    2.96
   6  -4  14   27.90    2.87
   6   4  15    0.93    0.67
  -6  -4 -15    0.44    0.47
   6  -4  15    0.01    0.48
   6  -4  15    0.58    0.50
   6  -4  15    0.53    0.32
   6  -4  15    0.42    0.27
   6   4  16   14.54    1.77
   6   4  16   12.98    1.82
   6  -4  16   14.24    1.62
   6   4  17    6.47    1.05
   6   4  17    7.11    1.14
  -6  -4 -17    4.82    0.68
  -6  -4 -17    3.55    0.68
   6  -4  17    6.49    0.88
   6  -4  17    6.30    0.84
   6   4  18    9.41    1.39
   6   4  18   10.79    1.45
   6  -4  18    8.10    1.21
   6   4  19   -0.12    0.78
   6   4  19   -0.22    0.85
   6  -4  19   -0.28    0.62
   6   5   0  709.16   71.12
  -6  -5   0  701.47   71.12
  -6  -5   0  703.03   71.21
  -6   5   0  709.01   71.07
  -6   5   0  729.34   71.23
   6  -5   0  731.96   71.08
   6   5   1  615.09   64.44
  -6  -5  -1  588.30   64.44
  -6  -5  -1  763.73   64.59
  -6   5  -1  600.65   64.38
  -6   5  -1  805.63   64.62
   6  -5   1  665.80   64.40
   6   5   2    1.00    0.48
  -6  -5  -2    1.17    0.69
  -6   5  -2    0.68    0.33
  -6   5  -2    2.75    0.77
   6  -5   2    0.91    0.39
   6   5   3   27.96    3.17
  -6  -5  -3   34.04    3.27
  -6   5  -3   28.13    3.09
  -6   5  -3   33.35    3.28
   6  -5   3   31.56    3.11
   6   5   4   67.08    7.37
  -6  -5  -4   61.03    7.35
  -6  -5  -4   96.22    7.49
  -6   5  -4   64.89    7.26
  -6   5  -4  101.15    7.53
   6  -5   4   76.55    7.28
   6   5   5  161.19   16.07
  -6  -5  -5  154.17   16.06
  -6  -5  -5  170.51   16.11
  -6   5  -5  152.54   15.94
   6  -5   5  167.02   15.96
   6   5   6   72.45    7.62
  -6  -5  -6   76.16    7.63
  -6   5  -6   76.25    7.50
  -6   5  -6   66.43    7.63
   6  -5   6   76.74    7.50
   6   5   7  121.60   12.78
  -6  -5  -7  119.29   12.78
  -6  -5  -7  157.64   12.86
  -6   5  -7  121.19   12.66
   6  -5   7  128.81   12.67
   6   5   8    1.39    0.57
  -6  -5  -8    1.56    0.59
  -6  -5  -8    1.11    0.66
  -6   5  -8    1.39    0.33
   6  -5   8    1.36    0.38
  -6  -5  -9   73.28    7.76
  -6  -5  -9   84.19    7.79
  -6   5  -9   78.28    7.77
   6  -5   9   72.84    7.64
   6   5  10   59.32    6.07
  -6  -5 -10   61.22    6.07
  -6  -5 -10   58.45    6.05
  -6   5 -10   54.97    6.03
   6  -5  10   59.33    5.96
   6   5  11  100.00   10.22
  -6  -5 -11   92.98   10.16
   6  -5  11  105.77   10.10
   6   5  12   13.32    1.55
  -6  -5 -12   14.49    1.55
  -6   5 -12   10.55    1.44
   6  -5  12   12.17    1.38
   6   5  13  109.04   11.97
  -6  -5 -13  115.54   11.98
  -6   5 -13  116.27   11.93
   6  -5  13  125.87   11.87
   6   5  14    0.06    0.62
  -6  -5 -14    0.55    0.59
  -6  -5 -14    0.60    0.53
   6  -5  14    0.09    0.46
   6  -5  14    0.54    0.45
   6   5  15    0.55    0.68
  -6  -5 -15    1.15    0.63
  -6  -5 -15    0.28    0.52
   6  -5  15    0.85    0.51
   6  -5  15    0.50    0.47
   6  -5  15    0.59    0.44
   6   5  16   57.77    4.95
   6   5  16   48.01    4.95
   6  -5  16   52.14    4.76
   6  -5  16   38.86    4.65
   6   5  17    0.97    0.74
   6   5  17    0.54    0.89
  -6  -5 -17    0.62    0.50
   6  -5  17    0.80    0.57
   6  -5  17    0.62    0.50
   6   5  18    1.57    0.81
  -6  -5 -18    0.58    0.46
   6  -5  18    2.24    0.65
   6   6   0   29.34    3.13
  -6  -6   0   28.06    3.12
  -6  -6   0   34.74    3.25
  -6   6   0   27.14    3.06
  -6   6   0   32.38    3.27
   6  -6   0   30.77    3.10
   6   6   1   88.44    9.45
  -6  -6  -1   85.96    9.44
  -6  -6  -1   95.78    9.54
  -6   6  -1   93.90    9.37
  -6   6  -1  101.34    9.57
   6  -6   1   96.66    9.38
   6   6   2  184.51   18.38
  -6  -6  -2  200.63   18.46
  -6   6  -2  173.67   18.27
  -6   6  -2  209.94   18.51
   6  -6   2  179.12   18.28
   6   6   3   26.65    3.14
  -6  -6  -3   33.78    3.25
  -6   6  -3   27.81    3.05
  -6   6  -3   38.80    3.33
   6  -6   3   30.40    3.06
   6   6   4  457.20   45.77
  -6  -6  -4  524.92   45.85
  -6   6  -4  424.89   45.64
  -6   6  -4  540.39   45.89
   6  -6   4  451.21   45.65
  -6  -6  -5  464.94   46.42
  -6   6  -6    7.86    0.85
  -6   6  -6    5.77    1.13
   6  -6   6    8.04    0.86
  -6  -6  -7  133.43   12.80
  -6   6  -7  121.28   12.60
  -6   6  -7  140.03   12.82
   6  -6   7  125.80   12.60
  -6  -6  -8   30.22    3.22
  -6   6  -8   33.46    3.26
   6  -6   8   28.06    3.04
   6  -6   8   30.70    3.06
  -6  -6  -9   81.59    8.59
  -6   6  -9   82.39    8.60
   6  -6   9   82.36    8.43
   6  -6   9   88.00    8.45
  -6  -6 -10   65.92    6.78
  -6   6 -10   68.96    6.80
   6  -6  10   64.50    6.64
  -6  -6 -11   73.49    7.77
   6  -6  11   73.86    7.64
   6  -6  11   79.34    7.65
   6   6  12   46.58    4.88
   6  -6  12   45.96    4.72
   6  -6  12   46.44    4.73
   6   6  13   23.85    2.27
  -6  -6 -13   23.98    2.26
  -6  -6 -13   18.99    2.16
  -6   6 -13   14.16    2.09
   6  -6  13   20.57    2.03
   6  -6  13   17.20    2.01
   6   6  14    0.39    0.73
  -6  -6 -14    0.77    0.70
  -6  -6 -14    0.88    0.69
   6  -6  14    0.69    0.46
   6  -6  14    0.40    0.42
   6   6  15   53.32    5.48
  -6  -6 -15   55.55    5.50
  -6  -6 -15   47.27    5.36
   6  -6  15   52.22    5.31
   6  -6  15   52.36    5.31
   6   6  16   10.38    1.42
   6   6  16    9.68    1.50
  -6  -6 -16    9.82    1.26
   6  -6  16    8.93    1.10
   6  -6  16    8.13    1.10
   6   6  17   24.60    2.22
   6   6  17   16.52    2.16
   6  -6  17   21.81    1.91
   6  -6  17   12.87    1.78
   6   6  18    4.34    1.04
   6   6  18    3.11    1.07
  -6  -6 -18    2.34    0.64
   6  -6  18    3.35    0.70
   6   7   0  310.69   31.67
  -6  -7   0  311.95   31.67
  -6  -7   0  334.99   31.77
  -6   7   0  308.40   31.61
  -6   7   0  353.87   31.84
   6  -7   0  312.47   31.62
   6   7   1   37.50    4.22
  -6  -7  -1   37.48    4.22
  -6  -7  -1   46.99    4.36
  -6   7  -1   39.31    4.16
  -6   7  -1   48.61    4.41
   6  -7   1   42.00    4.18
   6   7   2   15.11    1.86
  -6  -7  -2   17.27    1.99
  -6   7  -2   16.73    1.77
  -6   7  -2   17.92    2.04
   6  -7   2   17.25    1.79
   6   7   3   36.97    4.04
  -6  -7  -3   40.75    4.13
  -6   7  -3   39.31    4.15
   6   7   4  103.56    9.91
  -6  -7  -4  104.88    9.91
  -6  -7  -4  101.85    9.97
  -6   7  -4   94.68    9.74
  -6   7  -4  103.32   10.00
   6  -7   4   95.27    9.75
   6   7   5    7.69    0.99
  -6  -7  -5    6.41    0.93
  -6  -7  -5   10.85    1.13
  -6   7  -5    5.04    0.68
   6  -7   5    7.49    0.71
   6   7   6  207.33   18.55
  -6  -7  -6  210.23   18.55
  -6   7  -6  167.26   18.35
  -6   7  -6  202.45   18.62
   6   7   7    0.43    0.61
  -6  -7  -7   -0.01    0.59
  -6  -7  -7    1.31    0.73
  -6   7  -7    1.50    0.78
   6  -7   7    0.35    0.14
   6  -7   7    0.01    0.11
   6   7   8   72.35    6.64
  -6  -7  -8   66.84    6.61
  -6  -7  -8   80.19    6.70
  -6   7  -8   75.22    6.70
   6  -7   8   61.22    6.40
   6  -7   8   62.30    6.40
  -6  -7  -9    0.80    0.63
  -6  -7  -9    1.32    0.75
  -6   7  -9    1.73    0.84
   6  -7   9    0.92    0.25
   6  -7   9    0.76    0.24
   6   7  10    1.00    0.67
  -6  -7 -10    1.17    0.66
  -6  -7 -10    0.27    0.73
  -6   7 -10    0.33    0.81
   6  -7  10    0.82    0.27
   6  -7  10    0.32    0.26
   6   7  11   65.30    6.67
  -6  -7 -11   61.38    6.65
   6  -7  11   67.57    6.47
   6  -7  11   62.01    6.47
   6   7  12   68.61    7.23
  -6  -7 -12   66.34    7.21
  -6   7 -12   71.58    7.25
   6  -7  12   68.03    7.03
   6  -7  12   73.28    7.04
   6   7  13    0.99    0.76
  -6  -7 -13    0.88    0.71
  -6  -7 -13    3.19    0.82
   6  -7  13    1.56    0.44
   6   7  14   98.27    9.92
  -6  -7 -14   99.37    9.93
  -6  -7 -14   96.17    9.86
   6  -7  14   95.20    9.71
  -6  -7 -15   61.68    5.71
  -6  -7 -15   45.74    5.55
   6  -7  15   55.53    5.46
   6   7  16    8.61    1.26
   6   7  16    7.95    1.38
  -6  -7 -16    7.70    1.13
   6  -7  16    6.11    0.85
   6  -7  16    6.23    0.96
   6   7  17    5.75    1.13
   6   7  17    4.89    1.22
  -6  -7 -17    5.28    0.98
   6  -7  17    5.18    0.77
   6  -7  17    4.08    0.80
   6   8   0   60.59    6.83
  -6  -8   0   61.03    6.82
  -6  -8   0   77.87    7.00
  -6   8   0   67.38    6.77
  -6   8   0   76.11    7.02
   6  -8   0   68.34    6.79
   6   8   1  116.18   11.83
  -6  -8  -1  112.98   11.82
  -6  -8  -1  125.38   11.96
  -6   8  -1  112.84   11.73
  -6   8  -1  125.72   12.00
   6  -8   1  119.73   11.75
   6   8   2   85.88    7.78
  -6  -8  -2   69.37    7.82
  -6   8  -2   79.93    7.64
  -6   8  -2   66.56    7.84
   6  -8   2   73.28    7.65
   6   8   3    1.52    0.57
  -6  -8  -3    1.22    0.55
  -6  -8  -3    2.51    0.81
  -6   8  -3    1.49    0.32
  -6   8  -3    1.82    0.87
   6  -8   3    1.85    0.36
   6   8   4    0.75    0.59
  -6  -8  -4    1.06    0.54
  -6  -8  -4    1.31    0.76
  -6   8  -4    0.52    0.19
  -6   8  -4    1.53    0.83
   6   8   5   13.90    1.61
  -6  -8  -5   13.40    1.57
  -6  -8  -5   12.49    1.68
   6   8   6    3.27    0.75
  -6  -8  -6    3.33    0.73
  -6   8  -6    1.72    0.88
   6   8   7   14.83    1.68
  -6  -8  -7   15.79    1.68
  -6  -8  -7   11.89    1.71
  -6   8  -7   11.74    1.75
   6   8   8   68.03    6.81
  -6  -8  -8   71.77    6.82
  -6  -8  -8   62.54    6.83
  -6   8  -8   60.67    6.85
  -6  -8  -9   64.68    6.99
  -6  -8  -9   72.82    7.07
  -6   8  -9   67.32    7.06
   6   8  10   19.15    2.06
  -6  -8 -10   18.85    2.04
  -6  -8 -10   15.65    2.07
  -6   8 -10   15.01    2.11
   6   8  11   40.47    2.91
  -6  -8 -11   38.43    2.88
  -6  -8 -11   41.73    2.95
   6  -8  11   23.42    2.50
   6  -8  11   22.90    2.50
   6   8  12    1.04    0.75
  -6  -8 -12    0.98    0.72
  -6   8 -12    1.34    0.87
   6  -8  12    1.02    0.27
   6  -8  12    1.16    0.29
   6   8  13   35.12    3.41
  -6  -8 -13   35.83    3.41
  -6  -8 -13   26.22    3.33
   6  -8  13   31.06    3.13
   6  -8  13   29.39    3.13
   6   8  14    4.19    0.95
  -6  -8 -14    3.36    0.88
  -6  -8 -14    2.69    0.91
   6  -8  14    3.00    0.49
   6  -8  14    3.27    0.49
  -6  -8 -15    4.23    0.93
  -6  -8 -15    3.17    0.92
   6  -8  15    3.56    0.54
   6  -8  15    2.53    0.48
   6   8  16   17.42    1.84
   6   8  16   14.80    1.93
  -6  -8 -16   11.79    1.68
   6  -8  16   14.42    1.45
   6  -8  16   11.16    1.41
   6  -8  16   13.83    1.66
  -6  -9   0  104.45    9.81
  -6  -9   0   94.56    9.94
  -6   9   0   96.54    9.73
  -6   9   0   86.55    9.93
   6   9   1    6.86    0.98
  -6  -9  -1    5.76    0.96
  -6  -9  -1   10.62    1.27
  -6   9  -1    6.57    0.86
  -6   9  -1   12.22    1.38
   6   9   2    2.68    0.68
  -6  -9  -2    5.31    0.97
  -6   9  -2    3.02    0.48
  -6   9  -2    4.98    1.05
   6   9   3    0.31    0.53
  -6  -9  -3    0.36    0.52
  -6  -9  -3    0.49    0.79
  -6   9  -3    0.35    0.20
  -6   9  -3    0.45    0.24
  -6   9  -3    0.11    0.85
   6   9   4    2.59    0.70
  -6  -9  -4    1.59    0.61
  -6  -9  -4    3.77    0.91
  -6   9  -4    3.15    0.97
   6   9   5   89.39    8.76
  -6  -9  -5   86.81    8.75
  -6  -9  -5   79.88    8.82
   6   9   6   16.96    1.67
  -6  -9  -6   17.81    1.67
  -6  -9  -6   10.71    1.70
  -6   9  -6    7.24    1.69
   6   9   7  111.04   11.40
  -6  -9  -7  107.03   11.39
  -6  -9  -7  119.05   11.50
  -6   9  -7  115.31   11.52
   6   9   8    0.49    0.67
  -6  -9  -8    0.08    0.62
  -6  -9  -8   -0.17    0.83
  -6   9  -8    0.63    0.95
  -6  -9  -9   24.94    2.51
  -6  -9  -9   21.47    2.57
  -6   9  -9   19.22    2.61
   6   9  10   16.60    2.10
  -6  -9 -10   14.74    2.07
  -6  -9 -10   20.83    2.22
  -6   9 -10   23.47    2.33
   6   9  11    2.73    0.82
  -6  -9 -11    2.15    0.80
  -6  -9 -11    3.02    0.98
   6   9  12    1.55    0.78
  -6  -9 -12    1.22    0.75
  -6  -9 -12    0.61    0.89
  -6   9 -12    1.09    0.95
   6   9  13   23.25    2.62
  -6  -9 -13   23.15    2.60
  -6  -9 -13   21.47    2.63
   6   9  14   11.13    1.54
  -6  -9 -14    9.64    1.50
  -6  -9 -14   11.85    1.58
  -6  -9 -15   12.25    1.34
  -6  -9 -15    7.65    1.28
   6  -9  15    6.96    0.80
   6  -9  15    6.80    0.80
   6   9  16    2.63    0.93
   6   9  16    2.92    1.16
  -6  -9 -16    2.97    0.96
   6  -9  16    1.55    0.38
   6  -9  16    1.76    0.38
   6  -9  16    2.22    0.88
  -6 -10   0   14.52    1.78
  -6 -10   0   18.28    2.04
  -6  10   0   14.27    1.68
  -6  10   0   18.36    1.75
  -6  10   0   17.22    2.09
   6  10   1   84.55    8.33
  -6 -10  -1   80.70    8.31
  -6 -10  -1   83.33    8.46
  -6  10  -1   79.13    8.19
  -6  10  -1   83.26    8.22
  -6  10  -1   81.12    8.50
   6  10   2    2.20    0.61
  -6 -10  -2    1.20    0.87
  -6  10  -2    1.89    0.33
  -6  10  -2    2.12    0.39
  -6  10  -2    0.93    0.94
   6  10   3   34.72    3.21
  -6 -10  -3   33.55    3.18
  -6 -10  -3   35.48    3.35
  -6  10  -3   26.25    2.99
  -6  10  -3   34.38    3.39
   6  10   4   60.55    6.20
  -6 -10  -4   57.38    6.18
  -6 -10  -4   65.53    6.34
  -6  10  -4   58.68    6.35
   6  10   5   40.12    3.98
  -6 -10  -5   36.58    3.94
  -6 -10  -5   35.06    4.05
   6  10   6    1.37    0.70
  -6 -10  -6    1.59    0.67
  -6 -10  -6    1.03    0.88
  -6  10  -6    0.69    0.96
   6  10   7    1.04    0.69
  -6 -10  -7    0.83    0.67
  -6 -10  -7    1.32    0.90
  -6  10  -7    1.97    1.02
   6  10   8    3.89    0.87
  -6 -10  -8    3.35    0.80
  -6 -10  -8    4.22    1.05
  -6  10  -8    1.94    1.13
   6  10   9   85.96    8.16
  -6 -10  -9   86.03    8.15
  -6 -10  -9   75.87    8.20
  -6  10  -9   65.99    8.20
   6  10  10    1.95    0.86
  -6 -10 -10    5.52    1.11
  -6  10 -10    5.67    1.26
   6  10  11   47.14    5.00
  -6 -10 -11   51.77    5.01
  -6 -10 -11   42.59    5.03
   6  10  12   10.54    1.47
  -6 -10 -12   10.36    1.45
  -6 -10 -12   10.00    1.57
   6  10  13   43.41    4.38
  -6 -10 -13   43.68    4.37
  -6 -10 -13   34.51    4.36
   6  10  14    4.62    1.08
  -6 -10 -14    4.97    1.05
  -6 -10 -14    5.83    1.21
   6  10  15    5.67    1.09
  -6 -10 -15    3.54    1.12
   6 -10  15    3.49    1.04
  -6 -11   0   37.27    3.73
  -6 -11   0   36.38    3.92
  -6  11   0   34.29    3.63
  -6  11   0   34.90    3.96
   6  11   1   11.29    1.35
  -6 -11  -1   12.72    1.36
  -6 -11  -1    8.85    1.57
  -6  11  -1   11.34    1.19
  -6  11  -1   10.30    1.22
  -6  11  -1    8.02    1.61
   6  11   2   11.76    1.28
  -6 -11  -2   11.66    1.54
  -6  11  -2    8.60    1.04
  -6  11  -2   10.14    1.08
  -6  11  -2   10.29    1.59
   6  11   3   25.81    2.33
  -6 -11  -3   24.77    2.29
  -6 -11  -3   24.89    2.51
  -6  11  -3   18.85    2.07
  -6  11  -3   19.29    2.07
  -6  11  -3   23.81    2.56
   6  11   4    5.44    0.93
  -6 -11  -4    4.40    0.84
  -6 -11  -4    5.70    1.15
  -6  11  -4    6.32    1.27
   6  11   5    2.08    0.75
  -6 -11  -5    2.56    0.67
  -6 -11  -5    1.42    0.95
   6  11   6   29.85    3.06
  -6 -11  -6   26.84    3.01
  -6 -11  -6   28.04    3.18
  -6  11  -6   26.03    3.22
   6  11   7   10.40    1.32
  -6 -11  -7   11.04    1.30
  -6 -11  -7    7.00    1.43
  -6  11  -7    6.45    1.51
  -6 -11  -8   91.83    8.69
  -6 -11  -8   83.07    8.78
  -6  11  -8   75.87    8.80
   6  11   9   20.34    2.45
  -6 -11  -9   20.40    2.42
  -6 -11  -9   22.07    2.59
  -6  11  -9   24.89    2.72
   6  11  10   16.31    1.89
  -6 -11 -10   13.18    1.98
  -6  11 -10   15.34    2.10
   6  11  11    0.00    0.75
  -6 -11 -11    0.19    0.71
  -6 -11 -11   -0.06    0.96
   6  11  12   10.54    1.45
  -6 -11 -12   10.14    1.42
  -6 -11 -12    8.80    1.56
   6  11  13    0.50    0.80
  -6 -11 -13   -0.14    0.74
  -6 -11 -13   -0.40    1.00
  -6 -12   0    8.22    1.11
  -6 -12   0    7.82    1.45
  -6  12   0    8.49    0.97
  -6  12   0    9.00    1.04
  -6  12   0    7.56    1.51
   6  12   1   26.69    2.92
  -6 -12  -1   26.24    2.91
  -6 -12  -1   30.94    3.18
  -6  12  -1   26.34    2.80
  -6  12  -1   27.17    2.82
  -6  12  -1   30.46    3.25
   6  12   2   18.88    2.10
  -6 -12  -2   18.67    2.32
  -6  12  -2   17.72    2.39
   6  12   3   31.15    2.42
  -6 -12  -3   29.24    2.37
  -6 -12  -3   23.71    2.56
  -6  12  -3   18.12    2.09
  -6  12  -3   20.94    2.61
   6  12   4   15.14    1.83
  -6 -12  -4   14.77    1.79
  -6 -12  -4   15.59    2.04
  -6  12  -4   17.22    2.16
   6  12   5    6.55    1.05
  -6 -12  -5    5.75    0.96
  -6 -12  -5    7.54    1.31
   6  12   6   -0.62    0.73
  -6 -12  -6    0.38    0.64
  -6 -12  -6    0.99    0.98
  -6  12  -6   -0.08    1.07
   6  12   7   52.91    5.06
  -6 -12  -7   50.10    5.02
  -6 -12  -7   45.25    5.16
  -6  12  -7   39.85    5.18
  -6 -12  -8   37.52    3.59
  -6 -12  -8   30.11    3.70
  -6  12  -8   28.99    3.78
   6  12   9   12.49    1.68
  -6 -12  -9   11.90    1.64
  -6 -12  -9   13.69    1.88
  -6  12  -9   16.93    2.05
   6  12  10   14.65    1.69
  -6 -12 -10   12.06    1.83
  -6  12 -10   10.51    1.91
   6  12  11   15.26    1.90
  -6 -12 -11   15.11    1.87
  -6 -12 -11   14.70    2.04
   6  12  12    2.39    0.89
  -6 -12 -12    2.20    0.82
  -6 -12 -12    1.00    1.06
  -6 -13   0   11.69    1.37
  -6  13   0   10.07    1.22
  -6  13   0   11.39    1.29
  -6  13   0   15.25    1.90
   6  13   1   11.29    1.26
  -6 -13  -1   11.47    1.23
  -6 -13  -1    8.64    1.53
  -6  13  -1    8.80    1.02
  -6  13  -1    8.49    1.06
  -6  13  -1    5.86    1.59
   6  13   2    0.13    0.56
  -6 -13  -2   -0.03    0.97
  -6  13  -2   -0.06    0.26
  -6  13  -2    0.22    0.33
  -6  13  -2   -0.11    1.11
   6  13   3    0.68    0.66
  -6 -13  -3    0.75    0.56
  -6 -13  -3   -0.11    0.96
  -6  13  -3    0.00    0.10
  -6  13  -3    0.00    0.11
  -6  13  -3    0.28    1.11
   6  13   4    1.38    0.72
  -6 -13  -4    1.10    0.60
  -6 -13  -4    1.42    1.02
  -6  13  -4    0.95    1.13
   6  13   5    0.46    0.70
  -6 -13  -5    1.00    0.65
  -6 -13  -5    0.01    0.97
   6  13   6    1.23    0.76
  -6 -13  -6    1.40    0.68
  -6 -13  -6    0.50    1.02
  -6  13  -6    0.46    1.15
   6  13   7   85.12    7.99
  -6 -13  -7   82.62    7.97
  -6  13  -7   58.88    8.10
  -6 -13  -8   25.47    2.80
  -6 -13  -8   25.63    3.02
  -6  13  -8   24.18    3.10
   6  13   9    4.66    0.96
  -6 -13  -9    3.66    0.88
  -6 -13  -9    3.50    1.19
  -6  13  -9    3.14    1.34
   6  13  10    0.70    0.78
  -6 -13 -10    0.41    0.71
  -6 -13 -10    0.77    1.07
  -6 -14   0    8.53    1.12
  -6  14   0    8.45    0.98
  -6  14   0    8.91    1.06
  -6  14   0    6.14    1.60
   6  14   1    0.15    0.59
  -6 -14  -1    0.15    0.54
  -6 -14  -1   -0.42    1.02
  -6  14  -1   -0.09    0.41
  -6  14  -1    0.94    1.18
   6  14   2    7.06    0.98
  -6 -14  -2    6.65    1.37
  -6  14  -2    5.34    0.70
  -6  14  -2    6.92    0.75
  -6  14  -2    5.81    1.47
   6  14   3    1.69    0.72
  -6 -14  -3    2.12    0.63
  -6 -14  -3    0.62    1.04
  -6  14  -3    1.15    1.21
   6  14   4   11.90    1.40
  -6 -14  -4   10.38    1.31
  -6 -14  -4    9.13    1.64
  -6  14  -4    7.14    1.72
   6  14   5    1.02    0.73
  -6 -14  -5    1.59    0.68
  -6 -14  -5    1.17    1.05
   6  14   6   19.32    2.15
  -6 -14  -6   19.16    2.11
  -6 -14  -6   17.53    2.35
  -6  14  -6   14.35    2.40
   6  14   7    7.68    1.20
  -6 -14  -7    8.04    1.15
  -6  14  -7    5.72    1.57
  -6 -14  -8   11.48    1.41
  -6 -14  -8    9.15    1.66
  -6  14  -8    9.05    1.83
  -6  15   0    9.12    1.08
  -6  15   0    5.90    1.65
  -6 -15  -1    1.07    1.08
  -6  15  -1    0.09    0.33
  -6  15  -1    0.24    0.42
  -6  15  -1    0.63    1.23
  -6 -15  -2    6.31    1.34
  -6  15  -2    4.31    0.59
  -6  15  -2    5.20    0.62
  -6  15  -2    5.77    1.47
  -6 -15  -3    1.35    1.09
  -6  15  -3   -0.20    1.21
  -6 -15  -4    0.68    1.07
  -6  15  -4    0.05    1.17
   7   0   0    0.09    0.50
  -7   0   0   -0.06    0.40
  -7   0   0   -0.35    0.68
   7   0   1   65.58    6.65
  -7   0  -1   64.91    6.64
   7   0   2   -0.09    0.49
  -7   0  -2    0.32    0.39
   7   0   3   20.87    2.13
  -7   0  -3   20.19    2.11
  -7   0  -3   17.34    2.14
   7   0   4    0.38    0.50
  -7   0  -4    0.04    0.37
  -7   0  -4   -0.17    0.52
   7   0   5   73.77    6.50
  -7   0  -5   56.70    6.43
   7   0   6   -0.27    0.49
  -7   0  -6   -0.14    0.27
  -7   0  -6    0.00    0.49
   7   0   7  422.08   44.85
  -7   0  -7  496.76   44.92
   7   0   8    0.09    0.49
  -7   0  -8    0.21    0.38
  -7   0  -8   -0.02    0.53
   7   0   9    2.37    0.64
  -7   0  -9    3.11    0.59
  -7   0  -9    3.96    0.65
   7   0  10   -0.08    0.49
  -7   0 -10    0.00    0.43
  -7   0 -10    0.51    0.46
   7   0  11   13.55    1.61
  -7   0 -11   13.94    1.59
   7   0  12    0.08    0.53
  -7   0 -12    0.18    0.45
  -7   0 -12   -0.11    0.44
   7   0  13   61.63    5.69
   7   0  13   50.07    5.52
  -7   0 -13   67.01    5.71
  -7   0 -13   51.53    5.54
   7   0  14    0.18    0.59
  -7   0 -14   -0.08    0.51
  -7   0 -14    0.00    0.32
   7   0  15    3.18    0.73
   7   0  16   -0.35    0.64
   7   0  16    0.01    0.56
   7   0  17  100.37    9.22
   7   0  17   81.03    9.12
   7   0  18    0.28    0.71
   7   0  18    0.03    0.59
   7   0  19   77.60    8.06
   7   1   0  130.42   13.70
  -7  -1   0  118.82   13.68
  -7  -1   0  165.24   13.81
  -7   1   0  127.99   13.68
  -7   1   0  174.49   13.83
   7  -1   0  135.98   13.70
   7   1   1   23.35    2.56
  -7  -1  -1   20.29    2.53
  -7  -1  -1   28.88    2.66
  -7   1  -1   22.55    2.52
  -7   1  -1   31.64    2.69
   7  -1   1   23.84    2.55
   7   1   2  262.00   25.45
  -7  -1  -2  252.69   25.44
   7  -1   2  249.94   25.42
   7   1   3   46.18    4.78
  -7  -1  -3   48.25    4.79
  -7   1  -3   47.70    4.77
  -7   1  -3   40.85    4.80
   7  -1   3   48.39    4.78
   7   1   4  117.45   12.22
  -7  -1  -4  112.75   12.21
  -7  -1  -4  144.73   12.29
  -7   1  -4  112.30   12.19
  -7   1  -4  139.88   12.28
   7  -1   4  117.62   12.20
   7   1   5   21.26    2.40
  -7  -1  -5   23.22    2.41
  -7   1  -5   22.82    2.38
   7  -1   5   22.01    2.39
   7   1   6   10.21    1.23
  -7  -1  -6   10.72    1.23
  -7  -1  -6    9.51    1.21
  -7   1  -6   10.42    1.19
  -7   1  -6    9.31    1.22
   7  -1   6    9.97    1.20
   7   1   7  165.16   16.83
  -7  -1  -7  163.59   16.82
  -7  -1  -7  171.50   16.83
  -7   1  -7  167.29   16.80
  -7   1  -7  175.98   16.84
   7  -1   7  163.94   16.80
   7   1   8   45.62    5.35
  -7  -1  -8   46.62    5.34
  -7  -1  -8   66.29    5.40
  -7   1  -8   44.46    5.32
  -7   1  -8   72.81    5.42
   7  -1   8   48.89    5.34
   7   1   9  415.25   42.99
  -7  -1  -9  420.84   42.99
  -7  -1  -9  450.73   42.98
  -7   1  -9  412.27   42.96
  -7   1  -9  465.62   43.00
   7   1  10  160.89   16.81
  -7  -1 -10  163.27   16.81
  -7  -1 -10  182.28   16.78
  -7   1 -10  153.17   16.77
  -7   1 -10  180.84   16.77
   7  -1  10  163.50   16.79
   7   1  11   61.58    6.21
  -7  -1 -11   62.80    6.20
  -7   1 -11   64.57    6.18
  -7   1 -11   52.04    6.11
   7  -1  11   64.13    6.19
   7   1  12    0.52    0.57
  -7  -1 -12    0.58    0.51
  -7  -1 -12    0.67    0.46
  -7   1 -12    0.81    0.47
  -7   1 -12    0.55    0.46
   7  -1  12    0.71    0.56
   7   1  13    3.76    0.79
  -7  -1 -13    3.49    0.73
  -7  -1 -13    5.25    0.65
  -7   1 -13    2.95    0.69
  -7   1 -13    4.54    0.61
   7  -1  13    2.83    0.73
   7  -1  13    3.97    0.57
   7   1  14    4.60    0.81
  -7  -1 -14    4.48    0.75
  -7  -1 -14    3.45    0.55
  -7   1 -14    2.70    0.48
   7  -1  14    4.07    0.76
   7  -1  14    2.85    0.45
  -7  -1 -15   12.66    1.35
  -7  -1 -15   12.86    1.35
   7   1  16   49.39    4.67
   7  -1  16   46.31    4.62
   7  -1  16   37.92    4.55
   7   1  17  104.50   10.38
   7  -1  17  102.00   10.35
   7  -1  17   97.88   10.30
   7   1  18  106.48   10.73
   7   1  18   99.08   10.67
   7  -1  18  104.91   10.70
   7  -1  18  107.94   10.66
   7   1  19    6.34    1.15
   7  -1  19    5.68    1.08
   7   2   0  109.04   10.56
  -7  -2   0  106.26   10.56
  -7  -2   0  114.04   10.64
  -7   2   0   91.95   10.51
  -7   2   0  110.46   10.64
   7  -2   0  105.88   10.54
   7   2   1   70.29    6.93
  -7  -2  -1   65.87    6.92
  -7  -2  -1   78.61    7.01
  -7   2  -1   60.88    6.88
  -7   2  -1   74.07    7.01
   7  -2   1   66.47    6.90
   7   2   2   11.82    1.32
  -7  -2  -2    9.89    1.26
  -7  -2  -2   13.71    1.42
  -7   2  -2    9.57    1.23
  -7   2  -2   11.73    1.42
   7  -2   2   11.02    1.28
   7   2   3   14.52    1.58
  -7  -2  -3   12.54    1.53
  -7  -2  -3   13.49    1.63
  -7   2  -3   12.46    1.49
   7  -2   3   15.63    1.54
   7   2   4    4.17    0.69
  -7  -2  -4    2.71    0.58
  -7   2  -4    3.52    0.59
   7  -2   4    3.21    0.62
   7   2   5    2.83    0.65
  -7  -2  -5    3.19    0.65
  -7   2  -5    3.24    0.57
   7  -2   5    2.73    0.59
   7   2   6   20.85    2.36
  -7  -2  -6   20.85    2.35
  -7  -2  -6   23.30    2.37
  -7   2  -6   20.87    2.30
  -7   2  -6   23.98    2.38
   7  -2   6   21.46    2.32
   7   2   7   44.77    4.65
  -7  -2  -7   44.15    4.64
  -7  -2  -7   47.93    4.67
  -7   2  -7   41.91    4.59
  -7   2  -7   49.79    4.67
   7  -2   7   43.02    4.60
  -7  -2  -8  125.31   12.19
  -7  -2  -8  120.12   12.17
  -7   2  -8  120.20   12.13
  -7   2  -8  121.22   12.16
   7  -2   8  117.53   12.13
   7   2   9   10.93    1.28
  -7  -2  -9   11.31    1.27
  -7  -2  -9   11.05    1.24
  -7   2  -9    8.67    1.17
  -7   2  -9    9.42    1.21
   7   2  10    5.72    0.92
  -7  -2 -10    5.97    0.85
  -7   2 -10    7.32    0.84
  -7   2 -10    5.11    0.86
   7  -2  10    6.04    0.86
   7   2  11   23.65    2.54
  -7  -2 -11   23.95    2.52
  -7   2 -11   24.20    2.47
  -7   2 -11   20.67    2.44
   7  -2  11   23.43    2.48
   7   2  12  153.05   15.53
  -7  -2 -12  153.76   15.51
  -7  -2 -12  154.41   15.43
  -7   2 -12  155.74   15.47
  -7   2 -12  153.09   15.41
   7  -2  12  152.52   15.46
   7   2  13   10.27    1.44
  -7  -2 -13    9.44    1.40
  -7  -2 -13   15.14    1.35
  -7   2 -13    8.34    1.33
  -7   2 -13   13.75    1.31
   7  -2  13   10.31    1.37
   7  -2  13   11.64    1.26
   7   2  14    0.70    0.65
  -7  -2 -14    1.04    0.58
  -7  -2 -14    0.81    0.47
  -7   2 -14    0.54    0.38
   7  -2  14    0.67    0.57
   7  -2  14    0.73    0.51
   7  -2  14    0.79    0.33
  -7  -2 -15    0.47    0.58
  -7  -2 -15    0.63    0.36
   7  -2  15    0.59    0.51
   7   2  16    3.04    0.83
   7   2  16    3.04    0.80
   7  -2  16    3.30    0.76
   7  -2  16    2.81    0.67
   7   2  17    2.87    0.83
   7   2  17    1.49    0.74
   7  -2  17    3.81    0.78
   7  -2  17    1.56    0.64
   7   2  18   96.22    9.49
   7   2  18   87.21    9.44
   7  -2  18   92.84    9.43
   7   2  19    5.61    1.09
   7   2  19    4.54    1.05
   7  -2  19    5.52    1.00
   7   3   0   72.74    7.67
  -7  -3   0   83.17    7.76
  -7   3   0   69.93    7.64
  -7   3   0   89.28    7.80
   7  -3   0   72.51    7.65
   7   3   1   23.69    2.59
  -7  -3  -1   21.26    2.56
  -7  -3  -1   29.12    2.68
  -7   3  -1   21.48    2.53
  -7   3  -1   30.72    2.72
   7  -3   1   24.82    2.56
   7   3   2  291.33   29.52
  -7  -3  -2  298.10   29.52
  -7  -3  -2  311.17   29.59
  -7   3  -2  284.73   29.46
  -7   3  -2  322.26   29.60
   7  -3   2  286.88   29.47
   7   3   3  830.37   85.27
  -7  -3  -3  810.55   85.25
  -7  -3  -3  993.52   85.41
  -7   3  -3  797.55   85.20
  -7   3  -3 1026.80   85.40
   7  -3   3  843.98   85.22
   7   3   4   25.52    2.97
  -7  -3  -4   22.17    2.93
  -7  -3  -4   38.94    3.09
  -7   3  -4   25.78    2.91
  -7   3  -4   40.24    3.12
   7  -3   4   28.51    2.93
   7   3   5    5.65    0.90
  -7  -3  -5    5.32    0.88
  -7  -3  -5    8.02    1.00
  -7   3  -5    5.71    0.79
   7  -3   5    6.60    0.82
   7   3   6    0.65    0.54
  -7  -3  -6    0.64    0.51
  -7  -3  -6    1.40    0.63
  -7   3  -6    0.67    0.39
  -7   3  -6    1.56    0.56
   7  -3   6    0.43    0.44
   7   3   7   88.65    9.14
  -7  -3  -7   87.65    9.13
  -7   3  -7   89.12    9.06
  -7   3  -7   97.57    9.16
   7  -3   7   88.66    9.07
  -7  -3  -8    3.75    0.72
  -7   3  -8    2.40    0.56
  -7   3  -8    7.32    0.82
   7  -3   8    3.69    0.63
   7   3   9   14.61    1.96
  -7  -3  -9   14.54    1.95
  -7  -3  -9   25.49    2.02
  -7   3  -9   13.22    1.86
  -7   3  -9   29.05    2.05
   7   3  10   17.70    2.20
  -7  -3 -10   21.13    2.17
  -7   3 -10   18.31    2.10
  -7   3 -10   21.76    2.17
   7  -3  10   20.02    2.13
   7   3  11   14.66    1.82
  -7  -3 -11   15.40    1.81
  -7   3 -11   17.62    1.77
   7  -3  11   14.80    1.74
   7   3  12    0.27    0.59
  -7  -3 -12    0.06    0.52
  -7  -3 -12    0.29    0.50
  -7   3 -12    0.28    0.41
  -7   3 -12   -0.13    0.49
   7  -3  12    0.30    0.49
   7   3  13    0.75    0.66
  -7  -3 -13    0.89    0.58
  -7  -3 -13    2.44    0.56
  -7   3 -13    1.60    0.51
   7  -3  13    1.11    0.56
   7   3  14   -0.08    0.64
  -7  -3 -14    0.28    0.58
  -7  -3 -14    0.31    0.47
  -7   3 -14    0.24    0.42
   7  -3  14    0.41    0.53
   7  -3  14   -0.03    0.33
  -7  -3 -15   15.39    1.37
  -7  -3 -15   10.35    1.07
   7  -3  15   10.21    1.14
   7  -3  15    6.89    0.95
   7   3  16   49.83    4.01
  -7  -3 -16   34.67    3.70
  -7  -3 -16   26.88    3.67
   7  -3  16   50.09    3.90
   7  -3  16   45.09    3.85
   7   3  17    2.20    0.81
   7   3  17    3.67    0.94
  -7  -3 -17    0.71    0.26
   7  -3  17    1.91    0.68
   7  -3  17    3.33    0.62
   7   3  18   63.49    6.61
   7   3  18   60.66    6.58
   7  -3  18   64.24    6.52
   7   4   0   37.34    3.76
  -7  -4   0   33.97    3.81
  -7   4   0   37.59    3.72
  -7   4   0   30.02    3.80
   7  -4   0   38.34    3.74
   7   4   1   10.94    1.19
  -7  -4  -1    8.70    1.12
  -7  -4  -1    6.23    1.23
  -7   4  -1   10.14    1.08
  -7   4  -1    5.94    1.23
   7  -4   1   10.32    1.10
   7   4   2  179.06   18.23
  -7  -4  -2  168.48   18.22
  -7  -4  -2  206.41   18.32
  -7   4  -2  170.64   18.16
  -7   4  -2  214.85   18.34
   7  -4   2  181.24   18.17
   7   4   3    7.71    1.00
  -7  -4  -3    7.22    0.93
  -7  -4  -3    8.82    1.11
  -7   4  -3    6.37    0.85
  -7   4  -3    5.53    1.07
   7  -4   3    6.74    0.88
   7   4   4  265.50   27.36
  -7  -4  -4  261.13   27.35
  -7  -4  -4  288.59   27.40
  -7   4  -4  265.83   27.27
  -7   4  -4  306.07   27.44
   7  -4   4  274.40   27.29
   7   4   5   25.42    2.89
  -7  -4  -5   25.84    2.88
  -7  -4  -5   32.84    2.98
  -7   4  -5   25.44    2.80
   7  -4   5   28.29    2.82
   7   4   6   75.37    7.79
  -7  -4  -6   71.65    7.76
  -7  -4  -6   89.11    7.84
  -7   4  -6   69.27    7.67
  -7   4  -6   90.56    7.85
   7  -4   6   76.25    7.69
   7   4   7  194.44   19.65
  -7  -4  -7  194.63   19.64
  -7  -4  -7  201.36   19.66
  -7   4  -7  190.91   19.54
  -7   4  -7  201.60   19.66
   7  -4   7  196.27   19.55
  -7  -4  -8    0.83    0.54
  -7  -4  -8    2.13    0.69
  -7   4  -8    0.32    0.35
   7  -4   8    0.40    0.42
   7   4   9    1.11    0.60
  -7  -4  -9    2.10    0.60
  -7  -4  -9    1.01    0.69
  -7   4  -9    1.46    0.40
  -7   4  -9    0.90    0.64
   7   4  10   82.16    8.46
  -7  -4 -10   88.62    8.45
  -7   4 -10   80.72    8.34
  -7   4 -10   81.69    8.42
   7  -4  10   82.00    8.35
   7   4  11  182.01   18.38
  -7  -4 -11  182.58   18.37
   7  -4  11  182.68   18.27
   7   4  12    3.48    0.76
  -7  -4 -12    3.06    0.69
  -7  -4 -12    2.37    0.63
  -7   4 -12    1.82    0.62
   7  -4  12    2.76    0.58
   7  -4  12    2.23    0.53
   7   4  13   98.12   10.30
  -7  -4 -13   95.94   10.28
  -7  -4 -13  106.34   10.23
  -7   4 -13   95.19   10.19
   7  -4  13  103.36   10.20
   7  -4  13  105.37   10.22
   7   4  14    2.92    0.81
  -7  -4 -14    3.00    0.75
  -7  -4 -14    3.30    0.65
  -7   4 -14    2.86    0.61
   7  -4  14    2.67    0.65
   7  -4  14    2.48    0.57
  -7  -4 -15    2.51    0.70
  -7  -4 -15    0.63    0.53
   7  -4  15    1.01    0.50
   7  -4  15    0.76    0.34
   7   4  16   16.18    1.73
  -7  -4 -16   14.20    1.46
   7  -4  16   15.35    1.56
   7  -4  16   16.39    1.53
   7  -4  16    9.75    1.34
   7   4  17    9.79    1.38
   7   4  17   11.15    1.46
  -7  -4 -17    7.13    1.04
   7  -4  17    9.17    1.20
   7  -4  17   10.19    1.16
   7   4  18    9.58    1.45
   7   4  18    9.12    1.45
   7  -4  18    9.28    1.27
  -7  -5   0   80.89    8.43
  -7   5   0   78.20    8.31
  -7   5   0   92.29    8.49
   7  -5   0   82.78    8.32
   7   5   1   95.93    9.88
  -7  -5  -1   96.69    9.89
  -7  -5  -1  107.22    9.98
  -7   5  -1   95.87    9.81
  -7   5  -1  108.35   10.00
   7  -5   1   92.37    9.82
   7   5   2   34.73    3.46
  -7  -5  -2   31.60    3.43
  -7  -5  -2   31.52    3.50
  -7   5  -2   33.31    3.37
  -7   5  -2   30.55    3.51
   7  -5   2   33.11    3.38
   7   5   3  112.60   10.94
  -7  -5  -3  111.18   10.93
  -7  -5  -3  108.20   10.98
  -7   5  -3  108.38   10.83
  -7   5  -3  101.97   10.98
   7  -5   3  106.07   10.84
   7   5   4  317.00   31.96
  -7  -5  -4  303.09   31.95
  -7  -5  -4  374.64   32.06
  -7   5  -4  287.12   31.85
  -7   5  -4  395.88   32.08
   7  -5   4  324.93   31.87
   7   5   5  130.49   13.42
  -7  -5  -5  126.01   13.41
  -7  -5  -5  154.08   13.49
  -7   5  -5  128.22   13.30
   7  -5   5  136.17   13.32
   7   5   6    1.90    0.62
  -7  -5  -6    1.63    0.61
  -7   5  -6    1.19    0.39
  -7   5  -6    0.78    0.73
   7  -5   6    2.17    0.44
   7   5   7   47.17    5.31
  -7  -5  -7   47.43    5.31
  -7  -5  -7   54.92    5.36
  -7   5  -7   50.01    5.20
  -7   5  -7   59.52    5.40
   7  -5   7   52.61    5.21
  -7  -5  -8   73.14    8.50
  -7  -5  -8   89.25    8.56
  -7   5  -8   79.74    8.40
  -7   5  -8  103.10    8.61
   7  -5   8   84.33    8.41
   7   5   9   33.23    3.62
  -7  -5  -9   32.98    3.61
  -7  -5  -9   34.62    3.63
  -7   5  -9   35.40    3.65
   7   5  10   94.34   10.89
  -7  -5 -10  116.51   10.92
  -7   5 -10  113.34   10.92
   7   5  11   15.86    1.82
  -7  -5 -11   17.34    1.82
  -7  -5 -11   14.60    1.79
   7  -5  11   13.98    1.65
   7   5  12    0.30    0.63
  -7  -5 -12    0.53    0.58
  -7  -5 -12    0.09    0.64
  -7   5 -12    0.35    0.60
   7  -5  12    0.56    0.48
   7  -5  12    0.42    0.39
   7   5  13    0.51    0.66
  -7  -5 -13    0.04    0.57
  -7  -5 -13    0.03    0.66
  -7   5 -13   -0.05    0.56
   7  -5  13   -0.01    0.48
   7  -5  13   -0.01    0.41
   7   5  14    5.07    1.00
  -7  -5 -14    5.35    0.96
  -7  -5 -14    5.72    0.96
  -7   5 -14    5.40    0.87
   7  -5  14    5.93    0.84
   7  -5  14    5.36    0.78
  -7  -5 -15    5.02    0.91
   7  -5  15    3.85    0.70
   7   5  16   10.26    1.40
   7  -5  16   10.57    1.21
   7  -5  16    7.82    1.13
   7   5  17    5.18    1.04
  -7  -5 -17    3.94    0.76
   7  -5  17    5.70    0.87
   7   5  18   70.93    6.24
  -7  -5 -18   47.50    5.92
   7  -5  18   72.45    6.07
   7   6   0  387.75   39.11
  -7  -6   0  403.43   39.22
  -7   6   0  373.33   39.05
  -7   6   0  427.41   39.25
   7  -6   0  393.33   39.07
   7   6   1    0.32    0.51
  -7  -6  -1    0.55    0.49
  -7  -6  -1   -0.26    0.71
  -7   6  -1    0.13    0.38
  -7   6  -1    0.06    0.76
   7  -6   1    0.39    0.41
   7   6   2    5.09    0.87
  -7  -6  -2    3.83    0.81
  -7  -6  -2    7.26    1.03
  -7   6  -2    5.23    0.70
  -7   6  -2    8.46    1.11
   7  -6   2    5.44    0.72
   7   6   3   66.81    6.59
  -7  -6  -3   63.71    6.57
  -7  -6  -3   62.18    6.63
  -7   6  -3   64.26    6.47
  -7   6  -3   61.93    6.65
   7  -6   3   64.44    6.48
   7   6   4  145.07   14.07
  -7  -6  -4  144.15   14.07
  -7  -6  -4  130.10   14.10
  -7   6  -4  138.77   13.93
  -7   6  -4  133.34   14.13
   7  -6   4  141.33   13.94
   7   6   5    7.05    1.07
  -7  -6  -5    7.22    1.06
  -7  -6  -5    8.13    1.15
   7   6   6  101.32    9.75
  -7   6  -6   93.18    9.57
  -7   6  -6   93.94    9.77
   7  -6   6   96.95    9.58
  -7  -6  -7   85.64    7.44
  -7   6  -7   64.46    7.21
  -7   6  -7   93.19    7.49
   7  -6   7   71.13    7.22
  -7  -6  -8   28.27    2.62
  -7   6  -8   21.21    2.37
  -7   6  -8   27.15    2.64
   7  -6   8   22.36    2.39
  -7  -6  -9   15.63    1.80
  -7   6  -9   14.00    1.56
  -7   6  -9   16.06    1.85
  -7  -6 -10   59.56    6.11
  -7   6 -10   61.99    6.13
   7  -6  10   56.67    5.95
   7  -6  10   59.69    5.97
   7   6  11   30.51    3.40
  -7  -6 -11   31.45    3.39
   7  -6  11   30.91    3.23
   7  -6  11   31.92    3.24
   7   6  12   13.86    1.60
  -7  -6 -12   10.95    1.53
  -7   6 -12    9.54    1.51
   7  -6  12   13.98    1.35
   7  -6  12   10.89    1.31
   7   6  13   58.97    6.40
  -7  -6 -13   61.52    6.40
  -7  -6 -13   62.78    6.36
  -7   6 -13   58.86    6.36
   7  -6  13   60.08    6.25
   7  -6  13   64.96    6.26
   7   6  14   25.91    2.59
  -7  -6 -14   29.03    2.59
  -7  -6 -14   20.19    2.44
  -7   6 -14   15.52    2.37
   7  -6  14   25.84    2.36
   7  -6  14   20.28    2.31
   7   6  15   13.13    1.68
  -7  -6 -15   11.86    1.61
  -7  -6 -15   14.51    1.56
   7  -6  15   11.56    1.40
   7  -6  15   11.11    1.37
   7   6  16   23.76    2.53
   7  -6  16   21.49    2.28
   7  -6  16   19.53    2.24
   7   6  17    4.82    1.08
   7   6  17    2.80    1.09
  -7  -6 -17    4.26    0.87
   7  -6  17    4.06    0.74
   7  -6  17    2.93    0.64
   7   7   0   31.22    3.47
  -7  -7   0   31.65    3.57
  -7   7   0   33.77    3.42
  -7   7   0   34.57    3.63
   7  -7   0   33.37    3.43
   7   7   1   21.01    2.44
  -7  -7  -1   22.71    2.45
  -7  -7  -1   24.13    2.58
  -7   7  -1   22.95    2.37
  -7   7  -1   24.00    2.62
   7  -7   1   21.78    2.38
   7   7   2   63.84    6.11
  -7  -7  -2   66.21    6.11
  -7  -7  -2   50.08    6.13
  -7   7  -2   61.57    5.98
  -7   7  -2   47.13    6.14
   7  -7   2   60.40    6.00
   7   7   3   74.93    7.76
  -7  -7  -3   69.95    7.74
  -7  -7  -3   81.23    7.85
  -7   7  -3   82.02    7.88
   7   7   4    6.01    0.93
  -7  -7  -4    5.46    0.87
  -7  -7  -4    6.21    1.04
  -7   7  -4    5.18    0.67
  -7   7  -4    7.46    1.11
   7  -7   4    5.34    0.68
   7   7   5   18.68    1.88
  -7  -7  -5   19.35    1.88
  -7  -7  -5   16.13    1.92
  -7   7  -5   15.10    1.65
   7  -7   5   14.84    1.66
   7   7   6    0.03    0.64
  -7  -7  -6    0.56    0.62
  -7   7  -6    0.75    0.27
  -7   7  -6    0.37    0.78
   7  -7   6    0.26    0.27
   7   7   7   79.97    7.81
  -7  -7  -7   78.00    7.79
  -7  -7  -7   73.11    7.83
  -7   7  -7   76.59    7.60
  -7   7  -7   79.19    7.86
   7  -7   7   73.90    7.60
  -7  -7  -8    4.45    0.86
  -7  -7  -8    3.57    0.93
  -7   7  -8    3.57    1.01
   7  -7   8    4.15    0.51
   7   7   9  159.86   14.84
  -7  -7  -9  157.36   14.83
  -7  -7  -9  146.12   14.83
  -7   7  -9  144.37   14.85
   7  -7   9  143.36   14.61
   7  -7   9  143.45   14.62
   7   7  10    9.47    1.28
  -7  -7 -10   10.31    1.33
  -7   7 -10   10.79    1.38
   7  -7  10    7.62    0.94
   7   7  11    1.48    0.78
  -7  -7 -11    1.31    0.70
  -7  -7 -11    2.06    0.85
   7  -7  11    1.29    0.37
   7  -7  11    1.60    0.37
   7   7  12    0.97    0.76
  -7  -7 -12    1.17    0.70
  -7   7 -12    0.13    0.82
   7  -7  12    0.59    0.39
   7  -7  12    0.24    0.34
   7   7  13   18.82    2.05
  -7  -7 -13   20.18    2.04
  -7  -7 -13   13.43    1.96
  -7   7 -13   11.36    1.96
   7  -7  13   17.83    1.78
   7   7  14    2.28    0.91
  -7  -7 -14    2.12    0.82
  -7  -7 -14    2.88    0.88
  -7   7 -14    2.64    0.88
   7  -7  14    2.49    0.52
   7   7  15   26.14    3.00
  -7  -7 -15   28.31    2.99
  -7  -7 -15   24.38    2.90
   7  -7  15   26.32    2.75
   7   7  16    1.94    0.93
  -7  -7 -16    1.38    0.79
  -7  -7 -16    1.45    0.83
   7  -7  16    1.14    0.53
   7   7  17   35.09    3.56
   7   7  17   32.81    3.61
  -7  -7 -17   29.57    3.38
   7  -7  17   34.33    3.29
   7  -7  17   27.20    3.29
   7   8   0    4.62    0.74
  -7  -8   0    1.84    0.91
  -7   8   0    4.05    0.61
  -7   8   0    2.15    0.98
   7   8   1   11.76    1.37
  -7  -8  -1   11.12    1.35
  -7  -8  -1   13.97    1.57
  -7   8  -1   10.59    1.24
  -7   8  -1   12.28    1.60
   7  -8   1    9.95    1.25
   7   8   2    9.12    1.11
  -7  -8  -2    8.87    1.07
  -7  -8  -2    7.85    1.24
  -7   8  -2    7.71    0.90
  -7   8  -2    6.39    1.26
   7  -8   2    6.83    0.91
   7   8   3   87.75    8.45
  -7  -8  -3   78.72    8.41
  -7  -8  -3   90.76    8.55
  -7   8  -3   79.65    8.28
  -7   8  -3   88.22    8.56
   7  -8   3   82.06    8.30
   7   8   4   19.85    2.18
  -7  -8  -4   18.46    2.15
  -7  -8  -4   23.77    2.31
  -7   8  -4   16.52    1.97
  -7   8  -4   26.23    2.38
   7  -8   4   20.47    2.00
   7   8   5    4.01    0.78
  -7  -8  -5    3.73    0.75
  -7  -8  -5    3.68    0.90
  -7   8  -5    2.63    0.35
   7  -8   5    1.95    0.34
   7   8   6   84.74    8.75
  -7  -8  -6   82.40    8.73
  -7   8  -6   91.67    8.86
   7   8   7   78.77    7.47
  -7  -8  -7   81.19    7.47
  -7  -8  -7   66.26    7.47
  -7   8  -7   62.70    7.48
  -7  -8  -8   13.66    1.64
  -7  -8  -8   13.55    1.73
  -7   8  -8   11.99    1.77
   7   8   9   26.90    2.76
  -7  -8  -9   24.34    2.72
  -7  -8  -9   25.62    2.79
  -7   8  -9   20.44    2.78
   7   8  10   10.58    1.38
  -7  -8 -10    9.71    1.35
  -7  -8 -10    8.62    1.42
  -7   8 -10    9.53    1.50
   7   8  11    9.78    1.15
  -7  -8 -11   10.41    1.11
  -7  -8 -11    5.52    1.11
   7  -8  11    4.54    0.60
   7   8  12   18.55    1.97
  -7  -8 -12   18.10    1.93
  -7   8 -12   17.98    2.01
   7  -8  12   15.07    1.61
   7  -8  12   14.35    1.61
   7   8  13   35.48    3.37
  -7  -8 -13   35.01    3.34
  -7  -8 -13   29.94    3.31
  -7   8 -13   25.46    3.30
   7  -8  13   30.22    3.06
   7  -8  13   28.29    3.06
  -7  -8 -14    1.35    0.81
  -7  -8 -14    3.28    0.92
   7  -8  14    1.46    0.40
   7  -8  14    1.62    0.39
   7   8  15    9.87    1.34
  -7  -8 -15   10.33    1.30
  -7  -8 -15    6.10    1.23
   7  -8  15    7.47    0.89
   7  -8  15    6.61    0.87
   7   8  16    0.36    0.88
  -7  -8 -16    0.38    0.78
  -7  -8 -16   -0.64    0.84
   7   9   0   57.37    6.00
  -7  -9   0   52.82    6.09
  -7   9   0   62.75    5.94
  -7   9   0   50.39    6.12
   7  -9   0   61.08    5.96
   7   9   1    5.03    0.85
  -7  -9  -1    5.14    0.83
  -7  -9  -1    5.84    1.09
  -7   9  -1    4.72    0.69
  -7   9  -1    5.60    1.16
   7   9   2  229.99   21.53
  -7  -9  -2  230.36   21.52
  -7  -9  -2  214.10   21.63
  -7   9  -2  203.72   21.38
  -7   9  -2  207.16   21.65
   7   9   3    0.40    0.63
  -7  -9  -3    0.27    0.53
  -7  -9  -3   -0.79    0.82
  -7   9  -3   -0.04    0.29
  -7   9  -3    0.03    0.89
   7  -9   3    0.35    0.33
   7   9   4    7.07    1.01
  -7  -9  -4    8.92    1.03
  -7  -9  -4    6.28    1.13
  -7   9  -4    5.51    0.67
  -7   9  -4    5.43    1.21
   7   9   5   21.98    2.36
  -7  -9  -5   20.17    2.32
  -7  -9  -5   19.80    2.42
   7   9   6   15.49    1.90
  -7  -9  -6   17.40    1.89
  -7   9  -6   14.11    2.01
   7   9   7    1.84    0.75
  -7  -9  -7    2.25    0.73
  -7  -9  -7    1.03    0.86
  -7   9  -7    1.17    0.99
   7   9   8    9.10    1.28
  -7  -9  -8    7.61    1.23
  -7  -9  -8    9.17    1.39
  -7   9  -8   10.22    1.51
   7   9   9    3.67    0.85
  -7  -9  -9    1.44    0.93
  -7   9  -9    1.58    1.05
   7   9  10   84.03    8.32
  -7  -9 -10   79.21    8.29
  -7  -9 -10   80.38    8.35
  -7   9 -10   78.57    8.38
   7   9  11    0.73    0.78
  -7  -9 -11    0.94    0.75
  -7  -9 -11    0.75    0.92
   7   9  12    2.83    0.90
  -7  -9 -12    2.33    0.85
  -7   9 -12    2.16    1.05
   7   9  13    7.90    1.24
  -7  -9 -13    7.48    1.21
  -7  -9 -13    7.47    1.31
  -7   9 -13    5.29    1.28
  -7  -9 -14   13.45    1.71
  -7  -9 -14   11.61    1.73
   7   9  15    9.89    1.31
  -7  -9 -15    7.95    1.29
   7  -9  15    6.94    0.74
   7  -9  15    5.87    0.73
   7  10   0   17.73    1.94
  -7 -10   0   18.04    2.14
  -7  10   0   16.90    2.19
   7 -10   0   16.08    1.87
   7  10   1    5.30    0.87
  -7 -10  -1    3.96    0.82
  -7 -10  -1    5.91    1.13
  -7  10  -1    5.22    0.70
  -7  10  -1    5.09    1.21
   7  10   2   78.24    7.30
  -7 -10  -2   72.24    7.27
  -7 -10  -2   72.65    7.42
  -7  10  -2   66.83    7.13
  -7  10  -2   71.88    7.14
  -7  10  -2   67.40    7.43
   7  10   3    7.06    1.00
  -7 -10  -3    6.71    0.93
  -7 -10  -3    4.97    1.15
  -7  10  -3    5.50    0.64
  -7  10  -3    5.72    0.67
  -7  10  -3    5.01    1.21
   7  10   4   11.68    1.57
  -7 -10  -4   11.73    1.54
  -7 -10  -4   13.05    1.73
  -7  10  -4   15.50    1.83
   7  10   5   27.81    2.99
  -7 -10  -5   28.85    2.99
  -7 -10  -5   24.45    3.07
   7  10   6   37.24    3.61
  -7 -10  -6   36.13    3.59
  -7  10  -6   25.08    3.66
  -7 -10  -7   28.65    3.46
  -7 -10  -7   34.34    3.62
  -7  10  -7   37.12    3.70
   7  10   8    1.63    0.78
  -7 -10  -8    2.30    0.76
  -7 -10  -8    1.10    0.95
  -7  10  -8    1.37    1.10
   7  10   9   48.17    4.32
  -7 -10  -9   37.13    4.33
  -7  10  -9   33.74    4.36
   7  10  10    3.21    0.90
  -7 -10 -10    4.53    0.89
  -7 -10 -10    1.67    1.02
  -7  10 -10    1.61    1.15
   7  10  11   17.43    2.11
  -7 -10 -11   17.04    2.08
  -7 -10 -11   17.42    2.19
   7  10  12    0.51    0.82
  -7 -10 -12    0.19    0.75
  -7  10 -12    0.42    1.05
   7  10  13    4.80    1.08
  -7 -10 -13    4.80    1.03
  -7 -10 -13    4.38    1.16
  -7 -10 -14    0.10    0.78
  -7 -10 -14    0.66    0.98
   7  11   0    6.44    1.00
  -7 -11   0    4.78    1.24
  -7  11   0    7.68    0.82
  -7  11   0    6.82    0.88
  -7  11   0    4.56    1.31
   7  11   1   54.20    5.51
  -7 -11  -1   56.06    5.50
  -7 -11  -1   47.67    5.62
  -7  11  -1   54.55    5.36
  -7  11  -1   45.98    5.66
   7  11   2   11.43    1.29
  -7 -11  -2   11.44    1.24
  -7 -11  -2    7.16    1.43
  -7  11  -2    9.36    1.00
  -7  11  -2    8.44    1.03
  -7  11  -2    5.07    1.46
   7  11   3   11.73    1.33
  -7 -11  -3   11.93    1.28
  -7 -11  -3    9.78    1.51
  -7  11  -3    8.58    1.00
  -7  11  -3    9.59    1.02
  -7  11  -3    8.98    1.56
   7  11   4   18.52    2.11
  -7 -11  -4   18.29    2.08
  -7 -11  -4   17.89    2.26
  -7  11  -4   17.04    2.31
   7  11   5   31.59    3.37
  -7 -11  -5   31.19    3.35
  -7 -11  -5   29.92    3.49
   7  11   6   10.96    1.45
  -7 -11  -6   11.81    1.44
  -7  11  -6    8.33    1.65
  -7 -11  -7   32.25    3.28
  -7 -11  -7   28.82    3.40
  -7  11  -7   27.55    3.46
   7  11   8   11.90    1.59
  -7 -11  -8   12.18    1.57
  -7 -11  -8   11.08    1.75
  -7  11  -8   13.70    1.90
   7  11   9    5.96    1.09
  -7 -11  -9    5.86    1.26
  -7  11  -9    5.35    1.39
   7  11  10    0.40    0.78
  -7 -11 -10    0.48    0.73
  -7 -11 -10    0.40    0.98
  -7  11 -10    0.36    1.13
   7  11  11    0.33    0.80
  -7 -11 -11   -0.18    0.73
  -7 -11 -11    0.60    0.99
   7  11  12    0.25    0.82
  -7 -11 -12    0.09    0.75
  -7  11 -12   -0.09    1.11
   7  11  13    0.73    0.85
  -7 -11 -13    0.70    0.80
  -7 -11 -13   -0.10    1.00
   7  12   0    7.84    1.01
  -7 -12   0    7.88    1.35
  -7  12   0    5.29    0.78
  -7  12   0    7.20    0.86
  -7  12   0    7.85    1.45
   7  12   1    4.29    0.80
  -7 -12  -1    4.13    0.76
  -7 -12  -1    3.95    1.12
  -7  12  -1    3.31    0.51
  -7  12  -1    3.66    0.59
  -7  12  -1    4.31    1.24
   7  12   2    1.94    0.71
  -7 -12  -2    1.53    0.62
  -7 -12  -2    0.68    0.97
  -7  12  -2    0.98    1.08
   7  12   3    5.68    0.88
  -7 -12  -3    4.89    0.78
  -7 -12  -3    4.47    1.15
  -7  12  -3    2.38    0.40
  -7  12  -3    3.50    0.41
  -7  12  -3    4.12    1.21
   7  12   4    1.50    0.73
  -7 -12  -4    1.38    0.68
  -7 -12  -4    0.36    0.95
  -7  12  -4    0.33    1.07
   7  12   5   20.17    2.31
  -7 -12  -5   22.89    2.31
  -7 -12  -5   15.92    2.43
   7  12   6    3.38    0.89
  -7 -12  -6    4.68    0.87
  -7  12  -6    0.89    1.18
  -7 -12  -7    2.84    0.83
  -7 -12  -7    3.15    1.13
  -7  12  -7    4.50    1.34
   7  12   8   15.10    1.76
  -7 -12  -8   13.07    1.69
  -7 -12  -8   12.95    1.91
  -7  12  -8   12.46    2.03
   7  12   9    2.19    0.85
  -7 -12  -9    1.19    1.06
  -7  12  -9    1.05    1.22
   7  12  10    5.22    1.04
  -7 -12 -10    5.82    1.01
  -7 -12 -10    4.17    1.24
  -7  12 -10    2.95    1.35
   7  12  11    0.71    0.82
  -7 -12 -11    1.18    0.78
  -7 -12 -11    0.16    1.05
  -7  12 -11    1.15    1.18
   7  13   0   34.74    3.46
  -7 -13   0   29.01    3.65
  -7  13   0   33.94    3.33
  -7  13   0   31.70    3.36
  -7  13   0   26.38    3.69
   7  13   1    0.09    0.60
  -7 -13  -1    0.59    1.00
  -7  13  -1    0.10    0.30
  -7  13  -1    0.25    0.41
  -7  13  -1    0.27    1.12
   7  13   2    6.37    0.98
  -7 -13  -2    6.66    0.91
  -7 -13  -2    5.00    1.25
  -7  13  -2    4.49    0.61
  -7  13  -2    5.57    0.66
  -7  13  -2    4.67    1.37
   7  13   3    2.95    0.81
  -7 -13  -3    2.10    0.69
  -7 -13  -3    2.04    1.10
  -7  13  -3    2.40    1.22
   7  13   4   10.20    1.37
  -7 -13  -4   10.39    1.34
  -7 -13  -4    9.70    1.62
  -7  13  -4    8.10    1.68
   7  13   5    3.48    0.87
  -7 -13  -5    3.22    0.82
  -7 -13  -5    3.32    1.16
  -7  13  -5    2.92    1.28
   7  13   6    3.15    0.88
  -7 -13  -6    2.46    0.80
  -7  13  -6    3.44    1.29
  -7 -13  -7    1.43    0.73
  -7 -13  -7    1.67    1.08
  -7  13  -7    1.28    1.27
   7  13   8    3.68    0.94
  -7 -13  -8    4.00    0.88
  -7 -13  -8    2.88    1.17
  -7  13  -8    2.62    1.35
   7  13   9    0.81    0.81
  -7 -13  -9    1.10    0.74
  -7 -13  -9    0.48    1.05
  -7  13  -9   -0.44    1.22
   7  14   0   16.80    1.82
  -7 -14   0   16.81    2.15
  -7  14   0   14.89    1.65
  -7  14   0   15.49    1.70
  -7  14   0   12.73    2.21
   7  14   1    5.70    0.92
  -7 -14  -1    6.23    1.33
  -7  14  -1    4.66    0.71
  -7  14  -1    5.03    1.45
   7  14   2   12.94    1.41
  -7 -14  -2   12.87    1.35
  -7 -14  -2   11.56    1.71
  -7  14  -2    8.43    1.08
  -7  14  -2   10.70    1.11
  -7  14  -2   11.17    1.82
   7  14   3    3.03    0.82
  -7 -14  -3    2.39    0.69
  -7 -14  -3    2.90    1.16
  -7  14  -3    1.74    1.26
   7  14   4    0.86    0.73
  -7 -14  -4    0.85    0.67
  -7 -14  -4    0.47    1.04
  -7  14  -4    0.33    1.21
   7  14   5   17.42    1.91
  -7 -14  -5   16.83    1.86
  -7 -14  -5   13.70    2.10
  -7  14  -5   10.33    2.15
   7  14   6    0.01    0.75
  -7 -14  -6    0.45    0.69
  -7  14  -6    0.10    1.21
  -7 -15   0    1.05    1.09
  -7  15   0    0.51    0.47
  -7  15   0    0.68    1.25
  -7 -15  -1   39.16    4.58
  -7  15  -1   44.60    4.22
  -7  15  -1   29.94    4.58
   8   0   0  866.98   89.63
  -8   0   0  869.94   89.62
  -8   0   0 1031.71   89.80
   8   0   1    0.39    0.55
  -8   0  -1    0.53    0.53
  -8   0  -1    0.48    0.72
   8   0   2    0.99    0.55
  -8   0  -2    1.39    0.53
  -8   0  -2    0.46    0.70
   8   0   3    0.16    0.53
  -8   0  -3    0.09    0.48
  -8   0  -3    0.11    0.66
   8   0   4   16.19    1.75
  -8   0  -4   15.31    1.73
  -8   0  -4   14.38    1.80
   8   0   5   -0.15    0.53
  -8   0  -5    0.31    0.47
   8   0   6   35.81    2.79
  -8   0  -6   17.42    2.64
  -8   0  -6   34.55    2.83
  -8   0  -7   -0.10    0.26
   8   0   8   97.59   11.33
  -8   0  -8  132.51   11.38
   8   0   9   -0.20    0.54
  -8   0  -9    0.31    0.57
   8   0  10  139.72   14.09
  -8   0 -10  136.41   14.07
  -8   0 -10  142.47   14.05
   8   0  11    0.15    0.57
  -8   0 -11   -0.20    0.50
  -8   0 -11    0.26    0.52
   8   0  12    7.19    0.99
  -8   0 -12    8.18    0.96
  -8   0 -12    3.96    0.86
   8   0  13    0.27    0.61
  -8   0 -13   -0.14    0.51
  -8   0 -13   -0.05    0.49
  -8   0 -14   17.62    1.91
  -8   0 -14   15.53    1.77
   8   0  15   -0.21    0.66
  -8   0 -15    0.33    0.56
  -8   0 -15   -0.03    0.37
   8   0  16    0.50    0.71
   8   0  16    0.64    0.60
   8   0  17    0.01    0.71
   8   0  17    0.01    0.58
   8   0  18    3.29    0.93
   8   1   0  448.88   43.71
  -8  -1   0  441.55   43.71
  -8  -1   0  450.54   43.79
  -8   1   0  431.93   43.70
  -8   1   0  431.82   43.79
   8  -1   0  427.56   43.70
   8   1   1    1.64    0.60
  -8  -1  -1    1.51    0.51
  -8  -1  -1    1.54    0.78
  -8   1  -1    1.80    0.56
  -8   1  -1    2.12    0.79
   8  -1   1    1.59    0.58
   8   1   2   85.48    8.98
  -8  -1  -2   83.17    8.97
  -8  -1  -2   95.83    9.06
  -8   1  -2   98.18    9.07
   8  -1   2   86.06    8.98
   8   1   3   66.49    6.56
  -8  -1  -3   66.51    6.55
  -8  -1  -3   70.96    6.62
  -8   1  -3   54.66    6.49
  -8   1  -3   68.07    6.61
   8  -1   3   64.57    6.54
   8   1   4  119.04   12.65
  -8  -1  -4  125.41   12.66
  -8  -1  -4  138.02   12.72
  -8   1  -4  124.21   12.64
  -8   1  -4  127.61   12.70
   8  -1   4  123.74   12.64
   8   1   5   36.77    3.93
  -8  -1  -5   36.08    3.92
  -8   1  -5   38.02    3.91
   8  -1   5   39.50    3.93
   8   1   6    0.86    0.55
  -8  -1  -6    0.74    0.52
  -8  -1  -6    1.13    0.67
  -8   1  -6    1.14    0.50
  -8   1  -6    1.44    0.69
   8  -1   6    1.21    0.55
  -8  -1  -7    0.42    0.49
  -8   1  -7    0.49    0.47
   8   1   8   37.14    3.98
  -8  -1  -8   36.27    3.96
  -8   1  -8   36.85    3.94
  -8   1  -8   41.90    4.00
   8  -1   8   38.17    3.96
   8   1   9    0.82    0.58
  -8  -1  -9    1.56    0.61
  -8   1  -9    1.61    0.64
   8  -1   9    1.21    0.56
   8   1  10    3.35    0.75
  -8  -1 -10    3.56    0.70
  -8  -1 -10    4.33    0.71
  -8   1 -10    2.53    0.63
  -8   1 -10    4.01    0.72
   8  -1  10    3.26    0.72
   8   1  11   55.69    6.30
  -8  -1 -11   56.08    6.29
  -8  -1 -11   70.25    6.29
  -8   1 -11   54.63    6.26
  -8   1 -11   72.27    6.29
   8  -1  11   59.45    6.29
   8   1  12   23.73    2.75
  -8  -1 -12   22.04    2.71
  -8  -1 -12   30.01    2.71
  -8   1 -12   22.13    2.69
  -8   1 -12   28.34    2.69
   8  -1  12   23.89    2.72
   8   1  13    3.05    0.77
  -8  -1 -13    2.48    0.68
  -8  -1 -13    3.19    0.62
  -8   1 -13    2.74    0.64
  -8   1 -13    2.54    0.61
   8  -1  13    2.34    0.71
  -8  -1 -14    0.20    0.55
  -8  -1 -14    1.29    0.52
  -8   1 -14    0.52    0.52
  -8   1 -14    0.82    0.46
   8  -1  14    0.44    0.63
   8   1  15   12.93    1.28
  -8  -1 -15   11.79    1.21
  -8   1 -15    6.53    0.89
   8  -1  15   11.15    1.22
   8  -1  15    6.03    0.87
   8   1  16   13.96    1.81
  -8  -1 -16   15.80    1.81
   8  -1  16   13.96    1.78
   8   1  17  138.58   13.50
   8   1  17  129.92   13.46
   8  -1  17  142.79   13.47
   8  -1  17  121.17   13.38
   8   1  18   66.92    6.60
   8   1  18   55.19    6.49
   8  -1  18   68.27    6.57
   8   2   0   62.57    6.75
  -8  -2   0   62.80    6.74
  -8  -2   0   74.15    6.86
  -8   2   0   70.55    6.85
   8  -2   0   64.96    6.75
   8   2   1  195.27   20.62
  -8  -2  -1  188.41   20.61
  -8  -2  -1  273.23   20.77
  -8   2  -1  183.46   20.58
  -8   2  -1  275.33   20.78
   8  -2   1  196.22   20.60
   8   2   2   28.81    3.10
  -8  -2  -2   28.11    3.10
  -8  -2  -2   33.75    3.20
  -8   2  -2   27.73    3.07
  -8   2  -2   33.11    3.20
   8  -2   2   27.43    3.08
   8   2   3    1.08    0.59
  -8  -2  -3    1.06    0.56
  -8  -2  -3    1.79    0.73
  -8   2  -3    1.07    0.51
  -8   2  -3    2.01    0.77
   8  -2   3    1.57    0.56
   8   2   4    3.24    0.69
  -8  -2  -4    4.16    0.67
  -8  -2  -4    2.01    0.75
  -8   2  -4    2.65    0.58
  -8   2  -4    0.94    0.75
   8  -2   4    3.05    0.62
   8   2   5   81.10    8.10
  -8  -2  -5   79.13    8.09
  -8   2  -5   78.46    8.04
   8  -2   5   79.44    8.06
   8   2   6    1.12    0.59
  -8  -2  -6    1.14    0.55
  -8  -2  -6    2.27    0.71
  -8   2  -6    0.97    0.48
  -8   2  -6    2.39    0.73
   8  -2   6    1.56    0.55
  -8  -2  -7  206.24   21.31
  -8  -2  -7  214.56   21.33
  -8   2  -7  204.53   21.26
  -8   2  -7  231.68   21.35
   8   2   8    0.32    0.57
  -8  -2  -8    0.52    0.52
  -8  -2  -8   -0.03    0.66
  -8   2  -8    0.27    0.44
   8  -2   8    0.81    0.52
   8   2   9  397.67   40.01
  -8   2  -9  425.58   40.00
   8  -2   9  384.41   39.94
   8   2  10   -0.06    0.58
  -8  -2 -10   -0.27    0.54
  -8  -2 -10   -0.03    0.53
  -8   2 -10   -0.05    0.44
  -8   2 -10    0.37    0.54
   8  -2  10    0.19    0.52
   8   2  11    0.95    0.64
  -8  -2 -11    0.80    0.57
  -8   2 -11    0.25    0.46
  -8   2 -11    2.18    0.62
   8  -2  11    0.63    0.57
   8   2  12    6.57    0.98
  -8  -2 -12    5.56    0.90
  -8  -2 -12    4.57    0.82
  -8   2 -12    5.59    0.82
  -8   2 -12    4.81    0.84
   8  -2  12    5.95    0.89
   8   2  13   35.22    3.56
  -8  -2 -13   36.38    3.55
  -8  -2 -13   31.60    3.44
  -8   2 -13   35.66    3.49
  -8   2 -13   27.50    3.41
   8  -2  13   34.91    3.50
  -8  -2 -14    5.38    0.88
  -8  -2 -14    6.03    0.78
  -8   2 -14    4.39    0.78
  -8   2 -14    2.97    0.68
   8  -2  14    4.72    0.86
   8   2  15   12.15    1.39
  -8  -2 -15   13.15    1.35
  -8   2 -15    6.38    1.04
   8  -2  15   14.52    1.35
   8  -2  15   10.87    1.23
   8  -2  15    8.29    1.03
   8   2  16    8.51    1.17
  -8  -2 -16    8.89    1.11
  -8  -2 -16    6.44    0.81
  -8  -2 -16    3.98    0.75
   8  -2  16    8.58    1.09
   8  -2  16    6.92    0.95
   8   2  17    4.93    1.09
   8   2  17    5.88    1.02
   8  -2  17    4.88    1.00
   8  -2  17    6.04    0.90
   8   2  18    2.27    0.90
   8   2  18    2.18    0.87
   8  -2  18    1.57    0.77
   8   3   0   91.38    9.42
  -8  -3   0   88.96    9.41
  -8  -3   0  107.89    9.54
  -8   3   0   86.84    9.38
  -8   3   0  101.50    9.53
   8  -3   0   91.09    9.40
   8   3   1   35.52    3.88
  -8  -3  -1   33.29    3.85
  -8  -3  -1   38.91    3.95
  -8   3  -1   39.02    3.85
  -8   3  -1   37.66    3.97
   8  -3   1   38.46    3.86
   8   3   2  601.66   60.87
  -8  -3  -2  613.39   60.88
  -8  -3  -2  664.74   60.98
  -8   3  -2  577.38   60.82
  -8   3  -2  651.67   60.98
   8  -3   2  602.92   60.84
   8   3   3    1.06    0.60
  -8  -3  -3    0.74    0.54
  -8  -3  -3    1.88    0.73
  -8   3  -3    0.67    0.46
  -8   3  -3    2.64    0.76
   8  -3   3    1.24    0.51
   8   3   4   77.05    8.33
  -8  -3  -4   79.88    8.33
  -8  -3  -4   88.74    8.40
  -8   3  -4   80.03    8.28
  -8   3  -4   87.87    8.40
   8  -3   4   82.03    8.29
   8   3   5   72.14    7.29
  -8  -3  -5   70.89    7.27
  -8   3  -5   71.51    7.21
   8  -3   5   70.29    7.22
   8   3   6   27.62    3.11
  -8  -3  -6   23.42    3.08
  -8  -3  -6   45.87    3.27
  -8   3  -6   24.20    3.02
  -8   3  -6   47.68    3.28
   8  -3   6   27.55    3.05
  -8  -3  -7   38.12    4.24
  -8  -3  -7   43.25    4.28
  -8   3  -7   37.26    4.17
  -8   3  -7   48.13    4.32
   8   3   8    0.89    0.60
  -8  -3  -8    0.29    0.54
  -8  -3  -8    0.99    0.70
  -8   3  -8    0.37    0.42
  -8   3  -8    0.83    0.75
   8  -3   8    0.09    0.48
   8   3   9    0.73    0.61
  -8  -3  -9    1.11    0.69
   8  -3   9    1.21    0.53
   8   3  10    0.86    0.62
  -8  -3 -10    0.73    0.56
  -8  -3 -10    0.52    0.67
  -8   3 -10    0.43    0.43
  -8   3 -10    0.24    0.60
   8  -3  10    0.56    0.52
   8   3  11   14.45    1.85
  -8  -3 -11   14.34    1.82
  -8   3 -11   14.77    1.73
  -8   3 -11   17.98    1.80
   8  -3  11   16.16    1.77
   8   3  12  265.87   26.25
  -8  -3 -12  267.98   26.24
  -8  -3 -12  262.48   26.18
  -8   3 -12  262.76   26.16
  -8   3 -12  248.75   26.15
   8  -3  12  263.55   26.16
   8   3  13   51.82    4.98
  -8  -3 -13   50.02    4.95
  -8  -3 -13   47.08    4.86
  -8   3 -13   51.14    4.89
  -8   3 -13   38.09    4.81
   8  -3  13   50.03    4.89
  -8  -3 -14   34.90    3.48
  -8  -3 -14   32.21    3.35
  -8   3 -14   29.51    3.31
   8  -3  14   32.29    3.39
   8   3  15    1.02    0.75
  -8  -3 -15    1.12    0.67
  -8  -3 -15    1.58    0.57
  -8   3 -15    1.01    0.47
   8  -3  15    1.22    0.64
   8  -3  15    1.16    0.53
   8   3  16   26.39    2.46
  -8  -3 -16   27.57    2.44
  -8  -3 -16   15.76    2.14
   8  -3  16   25.22    2.33
   8  -3  16   17.37    2.20
   8   3  17   18.02    1.73
  -8  -3 -17    8.71    1.26
   8  -3  17   17.32    1.58
   8   3  18   60.44    6.18
   8   3  18   50.95    6.10
   8  -3  18   63.36    6.09
   8   4   0   75.68    8.04
  -8  -4   0   69.66    8.02
  -8  -4   0   87.38    8.15
  -8   4   0   76.72    7.99
  -8   4   0   96.60    8.20
   8  -4   0   79.86    8.01
   8   4   1   37.97    4.08
  -8  -4  -1   34.19    4.06
  -8  -4  -1   38.44    4.15
  -8   4  -1   41.65    4.05
  -8   4  -1   41.03    4.18
   8  -4   1   41.50    4.07
   8   4   2  222.96   22.68
  -8  -4  -2  223.94   22.68
  -8  -4  -2  254.91   22.78
  -8   4  -2  211.40   22.61
  -8   4  -2  252.56   22.78
   8  -4   2  221.62   22.62
   8   4   3   11.51    1.40
  -8  -4  -3   10.54    1.38
  -8  -4  -3   16.15    1.54
  -8   4  -3    9.19    1.27
  -8   4  -3   15.28    1.53
   8  -4   3   10.43    1.29
   8   4   4   46.49    4.78
  -8  -4  -4   47.35    4.78
  -8  -4  -4   47.33    4.83
  -8   4  -4   44.54    4.69
  -8   4  -4   44.15    4.82
   8  -4   4   46.39    4.72
   8   4   5   27.84    3.01
  -8  -4  -5   27.77    3.00
  -8   4  -5   28.51    2.92
   8  -4   5   27.50    2.92
   8   4   6   58.25    6.31
  -8  -4  -6   59.64    6.30
  -8  -4  -6   62.02    6.35
  -8   4  -6   61.97    6.22
  -8   4  -6   62.01    6.35
   8  -4   6   62.96    6.24
  -8  -4  -7    8.54    1.17
  -8  -4  -7   10.70    1.28
  -8   4  -7    7.66    1.03
  -8   4  -7   11.07    1.33
   8   4   8  422.84   41.41
  -8  -4  -8  414.38   41.39
  -8  -4  -8  422.23   41.42
  -8   4  -8  403.71   41.29
  -8   4  -8  412.66   41.40
   8  -4   8  417.18   41.30
   8   4   9   42.39    4.91
  -8  -4  -9   53.70    4.96
  -8   4  -9   56.21    4.98
   8  -4   9   42.34    4.82
   8   4  10   62.58    6.54
  -8  -4 -10   59.66    6.52
  -8  -4 -10   62.26    6.52
  -8   4 -10   65.30    6.44
  -8   4 -10   62.19    6.52
   8  -4  10   65.18    6.45
   8   4  11   72.63    7.64
  -8  -4 -11   71.90    7.62
  -8   4 -11   74.88    7.52
   8  -4  11   75.82    7.54
   8   4  12    0.32    0.67
  -8  -4 -12    0.20    0.57
  -8  -4 -12    0.56    0.68
  -8   4 -12    0.34    0.41
  -8   4 -12   -0.12    0.59
   8  -4  12    0.63    0.54
   8   4  13    9.12    1.24
  -8  -4 -13    8.05    1.15
  -8  -4 -13    7.23    1.13
  -8   4 -13    7.14    1.07
   8  -4  13    7.74    1.06
  -8  -4 -14    5.72    1.03
  -8   4 -14    6.22    0.94
   8  -4  14    7.54    0.97
   8  -4  14    5.93    0.88
   8   4  15   33.53    3.36
  -8  -4 -15   35.79    3.36
  -8  -4 -15   28.02    3.17
  -8   4 -15   23.12    3.12
   8  -4  15   35.75    3.24
   8  -4  15   32.15    3.19
   8   4  16    8.94    1.33
  -8  -4 -16    9.98    1.30
  -8  -4 -16    7.55    1.08
   8  -4  16    9.26    1.18
   8  -4  16    7.69    1.08
   8   4  17    0.16    0.79
  -8  -4 -17    0.40    0.52
   8   5   0    1.22    0.59
  -8  -5   0    0.55    0.52
  -8  -5   0    0.85    0.76
  -8   5   0    0.66    0.45
  -8   5   0    0.75    0.77
   8  -5   0    0.45    0.49
  -8  -5  -1  127.20   11.60
  -8   5  -1  102.95   11.40
  -8   5  -1  130.86   11.62
   8  -5   1  111.93   11.43
   8   5   2   98.56    9.77
  -8  -5  -2   97.96    9.77
  -8  -5  -2   93.67    9.82
  -8   5  -2   96.63    9.68
  -8   5  -2   91.18    9.83
   8  -5   2   96.57    9.69
   8   5   3   48.27    5.67
  -8  -5  -3   48.47    5.67
  -8  -5  -3   63.05    5.78
  -8   5  -3   52.33    5.59
  -8   5  -3   69.97    5.83
   8  -5   3   58.97    5.63
   8   5   4    3.99    0.78
  -8  -5  -4    5.11    0.81
  -8  -5  -4    3.74    0.88
  -8   5  -4    3.82    0.60
  -8   5  -4    3.82    0.91
   8  -5   4    3.53    0.62
   8   5   5  171.36   16.57
  -8  -5  -5  167.01   16.55
  -8   5  -5  160.05   16.44
   8  -5   5  163.93   16.45
   8   5   6   26.32    2.85
  -8  -5  -6   28.64    2.86
  -8  -5  -6   22.45    2.86
  -8   5  -6   27.32    2.72
  -8   5  -6   22.15    2.87
   8  -5   6   27.34    2.74
  -8  -5  -7   77.94    8.12
  -8  -5  -7   81.44    8.16
  -8   5  -7   77.18    8.00
  -8   5  -7   85.06    8.19
   8   5   8    2.48    0.74
  -8  -5  -8    2.79    0.71
  -8  -5  -8    3.21    0.85
  -8   5  -8    2.82    0.51
  -8   5  -8    3.03    0.92
   8  -5   8    3.57    0.59
   8   5   9   45.60    4.43
  -8  -5  -9   38.81    4.40
  -8   5  -9   40.94    4.42
   8   5  10   -0.10    0.64
  -8  -5 -10    0.59    0.59
  -8  -5 -10    0.54    0.76
  -8   5 -10    0.62    0.77
   8   5  11   37.10    4.13
  -8  -5 -11   39.15    4.13
  -8   5 -11   40.42    4.00
  -8   5 -11   36.55    4.10
   8  -5  11   39.21    4.02
   8   5  12    0.81    0.70
  -8  -5 -12   -0.15    0.59
  -8  -5 -12    1.57    0.73
  -8   5 -12    1.33    0.75
   8  -5  12    0.00    0.48
   8   5  13   34.07    3.85
  -8  -5 -13   32.81    3.81
  -8  -5 -13   41.60    3.83
   8  -5  13   34.22    3.70
   8  -5  13   35.90    3.71
  -8  -5 -14    5.33    0.88
  -8  -5 -14    3.68    0.87
  -8   5 -14    1.71    0.72
   8  -5  14    5.84    0.75
   8  -5  14    2.45    0.60
   8   5  15    7.89    1.27
  -8  -5 -15    8.89    1.19
   8  -5  15    8.18    1.09
   8  -5  15    7.22    1.01
   8   5  16   -0.01    0.77
  -8  -5 -16    1.04    0.69
   8  -5  16    0.13    0.59
   8  -5  16    0.41    0.49
   8   5  17   11.45    1.61
  -8  -5 -17   12.80    1.57
  -8  -5 -17    9.11    1.33
   8  -5  17   12.05    1.41
   8   6   0    3.34    0.75
  -8  -6   0    3.17    0.69
  -8  -6   0    4.50    0.94
  -8   6   0    3.32    0.61
  -8   6   0    4.28    0.98
   8  -6   0    3.65    0.65
   8   6   1   39.92    4.20
  -8  -6  -1   38.20    4.18
  -8  -6  -1   46.29    4.32
  -8   6  -1   37.71    4.12
  -8   6  -1   43.50    4.33
   8  -6   1   39.82    4.14
   8   6   2    3.31    0.76
  -8  -6  -2    2.84    0.75
  -8  -6  -2    5.60    0.94
  -8   6  -2    2.68    0.56
  -8   6  -2    6.21    1.00
   8  -6   2    3.01    0.59
   8   6   3   46.16    4.73
  -8  -6  -3   45.29    4.73
  -8  -6  -3   44.83    4.78
  -8   6  -3   45.00    4.62
  -8   6  -3   46.40    4.82
   8  -6   3   44.81    4.63
   8   6   4   10.41    1.44
  -8  -6  -4    9.09    1.41
  -8  -6  -4   18.82    1.63
  -8   6  -4    8.99    1.26
  -8   6  -4   19.94    1.68
   8  -6   4   12.61    1.30
   8   6   5   40.01    3.89
  -8  -6  -5   39.74    3.88
  -8  -6  -5   35.85    3.92
  -8   6  -5   30.18    3.89
   8  -6   5   36.32    3.75
   8   6   6    0.65    0.68
  -8  -6  -6    0.82    0.65
  -8  -6  -6    0.45    0.74
  -8   6  -6    0.40    0.37
  -8   6  -6    0.29    0.79
   8  -6   6    0.74    0.38
  -8  -6  -7  129.29   13.30
  -8  -6  -7  128.03   13.34
  -8   6  -7  132.70   13.16
  -8   6  -7  134.29   13.36
   8   6   8    6.63    1.12
  -8  -6  -8   10.92    1.25
  -8   6  -8    5.36    0.85
  -8   6  -8   13.82    1.36
   8  -6   8    7.79    0.89
   8   6   9   61.89    6.37
  -8  -6  -9   58.28    6.36
  -8   6  -9   66.57    6.20
  -8   6  -9   49.33    6.33
   8  -6   9   62.85    6.20
   8   6  10   17.94    2.12
  -8  -6 -10   18.65    2.13
  -8   6 -10   18.44    2.15
   8  -6  10   17.25    1.90
   8   6  11   69.16    6.83
  -8  -6 -11   65.62    6.79
  -8   6 -11   62.30    6.77
   8  -6  11   65.87    6.64
   8  -6  11   64.81    6.66
   8   6  12    4.33    1.00
  -8  -6 -12    3.03    0.89
  -8  -6 -12    5.51    0.97
  -8   6 -12    4.34    0.99
   8  -6  12    4.80    0.68
   8  -6  12    3.56    0.61
   8   6  13  117.10   11.35
  -8  -6 -13  114.41   11.32
  -8  -6 -13   97.87   11.24
  -8   6 -13   95.78   11.23
   8  -6  13  118.83   11.15
   8  -6  13  115.90   11.14
   8   6  14   20.68    2.27
  -8  -6 -14   18.96    2.20
  -8  -6 -14   19.70    2.17
  -8   6 -14   17.74    2.14
   8  -6  14   19.18    2.00
   8  -6  14   16.17    1.96
   8   6  15   41.66    4.06
  -8  -6 -15   33.22    3.90
   8  -6  15   36.69    3.80
   8   6  16    6.26    1.24
  -8  -6 -16    5.91    1.14
   8  -6  16    6.59    0.94
   8   7   0  270.36   27.02
  -8  -7   0  272.38   27.01
  -8  -7   0  292.67   27.14
  -8   7   0  250.66   26.94
  -8   7   0  288.69   27.17
   8   7   1   22.49    2.30
  -8  -7  -1   22.01    2.28
  -8  -7  -1   21.22    2.40
  -8   7  -1   18.86    2.16
  -8   7  -1   18.16    2.40
   8   7   2   41.28    4.31
  -8  -7  -2   40.60    4.31
  -8  -7  -2   41.35    4.40
  -8   7  -2   41.08    4.21
  -8   7  -2   40.78    4.42
   8   7   3    1.06    0.65
  -8  -7  -3    1.31    0.64
  -8  -7  -3    0.95    0.79
  -8   7  -3    1.30    0.85
   8  -7   3    0.74    0.41
   8   7   4   42.74    4.34
  -8  -7  -4   41.81    4.33
  -8  -7  -4   41.44    4.40
  -8   7  -4   41.96    4.20
  -8   7  -4   38.10    4.41
   8  -7   4   40.18    4.20
   8   7   5   39.70    3.87
  -8  -7  -5   42.08    3.87
  -8  -7  -5   31.54    3.87
  -8   7  -5   39.68    3.70
  -8   7  -5   28.22    3.87
   8  -7   5   33.65    3.69
  -8  -7  -6   33.06    3.47
  -8  -7  -6   39.33    3.58
  -8   7  -6   28.86    3.29
  -8   7  -6   38.78    3.60
   8  -7   6   32.32    3.30
   8   7   7    0.73    0.70
  -8  -7  -7    0.64    0.66
  -8  -7  -7    1.26    0.81
  -8   7  -7    0.12    0.31
  -8   7  -7    3.76    0.97
   8   7   8    9.27    1.22
  -8  -7  -8    8.04    1.18
  -8  -7  -8   11.27    1.33
  -8   7  -8    6.61    0.88
  -8   7  -8    9.71    1.36
   8   7   9   23.28    2.51
  -8  -7  -9   21.72    2.48
  -8  -7  -9   22.78    2.54
  -8   7  -9   21.13    2.26
  -8   7  -9   23.62    2.58
   8  -7   9   21.45    2.27
   8   7  10    0.86    0.77
  -8  -7 -10    0.78    0.67
  -8  -7 -10    1.03    0.86
  -8   7 -10    1.73    0.94
   8  -7  10    1.06    0.38
   8  -7  10    0.19    0.31
   8   7  11    4.95    0.99
  -8  -7 -11    4.11    0.88
  -8  -7 -11    3.39    1.01
  -8   7 -11    3.52    1.02
   8  -7  11    4.36    0.58
   8  -7  11    3.02    0.53
   8   7  12  147.61   14.86
  -8  -7 -12  151.21   14.85
  -8  -7 -12  145.45   14.83
  -8   7 -12  143.57   14.84
   8  -7  12  142.74   14.63
   8  -7  12  149.07   14.64
   8   7  13   45.20    4.70
  -8  -7 -13   45.32    4.67
  -8  -7 -13   43.33    4.65
  -8   7 -13   44.40    4.66
   8  -7  13   43.16    4.47
   8  -7  13   42.71    4.47
   8   7  14    0.56    0.88
  -8  -7 -14    0.56    0.75
  -8  -7 -14    0.14    0.81
  -8   7 -14    0.11    0.85
   8  -7  14    0.33    0.45
   8   7  15   44.79    4.43
  -8  -7 -15   37.14    4.29
   8   7  16    4.38    1.13
  -8  -7 -16    4.81    1.01
   8  -7  16    3.94    0.71
   8   8   0    0.76    0.63
  -8  -8   0    0.25    0.55
  -8  -8   0    1.28    0.83
  -8   8   0    0.54    0.44
  -8   8   0    0.88    0.92
   8  -8   0    0.63    0.50
   8   8   1    5.71    0.98
  -8  -8  -1    5.64    0.92
  -8  -8  -1    6.05    1.15
  -8   8  -1    6.54    0.82
  -8   8  -1    5.82    1.23
   8  -8   1    6.12    0.84
   8   8   2    6.95    1.08
  -8  -8  -2    7.39    1.06
  -8  -8  -2    7.28    1.22
  -8   8  -2    7.00    0.87
  -8   8  -2    7.33    1.30
   8   8   3   78.32    7.71
  -8  -8  -3   78.47    7.70
  -8  -8  -3   75.35    7.79
  -8   8  -3   73.44    7.55
  -8   8  -3   70.44    7.80
   8   8   4    0.31    0.66
  -8  -8  -4    0.89    0.65
  -8  -8  -4    0.88    0.84
  -8   8  -4    0.46    0.34
  -8   8  -4    0.87    0.88
   8   8   5   15.12    1.69
  -8  -8  -5   15.39    1.67
  -8  -8  -5   13.46    1.76
  -8   8  -5   13.90    1.43
  -8   8  -5   12.03    1.77
   8  -8   5   12.22    1.42
  -8  -8  -6   34.03    3.22
  -8  -8  -6   26.59    3.25
  -8   8  -6   29.87    2.99
  -8   8  -6   27.87    3.29
   8  -8   6   28.45    2.99
   8   8   7   32.79    3.06
  -8  -8  -7   32.14    3.03
  -8  -8  -7   27.93    3.08
  -8   8  -7   28.14    2.78
  -8   8  -7   25.91    3.11
   8  -8   7   24.67    2.77
   8   8   8  128.49   10.81
  -8  -8  -8  112.51   10.82
  -8   8  -8  114.72   10.85
   8  -8   8   99.49   10.51
   8   8   9   21.86    2.39
  -8  -8  -9   21.30    2.37
  -8  -8  -9   26.18    2.49
  -8   8  -9   28.18    2.55
   8  -8   9   18.38    2.09
   8   8  10   26.01    2.53
  -8  -8 -10   27.18    2.53
  -8  -8 -10   24.08    2.56
  -8   8 -10   23.47    2.59
   8  -8  10   21.21    2.20
   8  -8  10   19.18    2.20
   8   8  11    7.51    1.09
  -8  -8 -11    8.01    1.03
  -8  -8 -11    4.15    1.08
  -8   8 -11    3.42    1.13
   8  -8  11    4.73    0.55
   8  -8  11    3.25    0.54
   8   8  12   17.85    1.88
  -8  -8 -12   17.10    1.82
  -8  -8 -12   12.78    1.83
  -8   8 -12   11.50    1.82
   8  -8  12   14.55    1.47
   8  -8  12   12.49    1.46
  -8  -8 -13    1.30    0.78
  -8  -8 -13    0.39    0.92
  -8   8 -13   -0.23    0.92
   8  -8  13    0.42    0.33
   8  -8  13    0.15    0.33
   8   8  14    0.44    0.87
  -8  -8 -14    1.66    0.81
  -8  -8 -14    0.26    0.89
  -8   8 -14    0.00    0.92
   8  -8  14    0.41    0.35
   8  -8  14    0.30    0.35
   8   8  15    2.80    1.01
  -8  -8 -15    2.15    0.88
  -8  -8 -15    3.27    1.00
   8  -8  15    2.22    0.49
   8  -8  15    1.97    0.45
   8   9   0    6.60    0.90
  -8  -9   0    6.47    0.85
  -8  -9   0    3.14    1.02
  -8   9   0    1.43    1.06
   8  -9   0    3.48    0.71
   8   9   1    0.56    0.65
  -8  -9  -1    0.68    0.58
  -8  -9  -1    0.11    0.84
  -8   9  -1    0.44    0.93
   8  -9   1    0.15    0.46
   8   9   2    0.27    0.65
  -8  -9  -2    0.54    0.63
  -8  -9  -2    0.20    0.83
  -8   9  -2    0.44    0.37
  -8   9  -2    0.49    0.89
   8  -9   2    0.12    0.42
   8   9   3   16.44    1.69
  -8  -9  -3   15.98    1.66
  -8  -9  -3   12.56    1.77
  -8   9  -3   13.61    1.44
  -8   9  -3   11.10    1.79
   8  -9   3   11.89    1.45
   8   9   4    0.40    0.68
  -8  -9  -4    1.33    0.68
  -8  -9  -4    0.13    0.84
  -8   9  -4    0.52    0.30
  -8   9  -4    0.64    0.94
   8   9   5   19.45    1.88
  -8  -9  -5   18.62    1.85
  -8  -9  -5   18.16    1.98
  -8   9  -5   14.29    1.55
  -8   9  -5   19.16    2.05
   8  -9   5   13.41    1.56
  -8  -9  -6   -0.45    0.67
  -8   9  -6    0.00    0.13
  -8   9  -6   -0.27    0.93
   8   9   7   27.75    2.90
  -8  -9  -7   24.51    2.86
  -8  -9  -7   26.00    2.97
  -8   9  -7   25.27    3.01
   8   9   8   -0.48    0.76
  -8  -9  -8   -0.03    0.89
  -8   9  -8   -0.41    1.02
   8   9   9    2.44    0.85
  -8  -9  -9    2.00    0.78
  -8  -9  -9    0.52    0.93
  -8   9  -9    1.14    1.06
   8   9  10    7.20    1.26
  -8  -9 -10    7.11    1.22
  -8  -9 -10    9.05    1.39
  -8   9 -10    8.70    1.47
   8   9  11   11.17    1.49
  -8  -9 -11   13.92    1.50
  -8  -9 -11    7.53    1.50
  -8   9 -11    7.02    1.56
   8   9  12    1.39    0.87
  -8  -9 -12    1.15    0.81
  -8   9 -12    0.33    1.03
  -8  -9 -13   12.94    1.67
  -8  -9 -13   11.77    1.73
  -8   9 -13   11.44    1.77
   8   9  14    1.29    0.91
  -8  -9 -14    2.27    0.89
  -8  -9 -14    1.71    1.00
  -8   9 -14    1.37    0.99
   8  -9  14    0.00    0.12
   8  10   0   14.41    1.66
  -8 -10   0   13.34    1.61
  -8 -10   0   13.07    1.83
  -8  10   0   14.28    1.52
  -8  10   0   12.01    1.88
   8 -10   0   12.47    1.55
   8  10   1    3.41    0.83
  -8 -10  -1    4.36    0.77
  -8 -10  -1    2.95    1.04
  -8  10  -1    3.96    0.59
  -8  10  -1    2.46    1.12
   8 -10   1    2.86    0.65
   8  10   2   12.49    1.38
  -8 -10  -2   11.87    1.35
  -8 -10  -2    9.87    1.53
  -8  10  -2    9.46    1.59
   8 -10   2    8.25    1.14
   8  10   3    0.11    0.67
  -8 -10  -3    0.14    0.63
  -8 -10  -3   -0.57    0.91
  -8  10  -3    0.41    0.32
  -8  10  -3    0.26    0.97
   8 -10   3    0.15    0.32
   8  10   4    8.74    1.08
  -8 -10  -4    7.66    1.03
  -8 -10  -4    9.08    1.28
  -8  10  -4    4.54    0.64
  -8  10  -4    8.85    1.33
   8  10   5   14.29    1.61
  -8 -10  -5   13.35    1.58
  -8 -10  -5   11.94    1.73
  -8  10  -5    8.27    1.71
  -8 -10  -6    4.35    0.89
  -8  10  -6    3.02    1.14
   8  10   7  142.06   13.08
  -8 -10  -7  139.41   13.06
  -8 -10  -7  119.14   13.13
  -8  10  -7  108.89   13.13
   8  10   8    1.35    0.83
  -8 -10  -8    1.65    1.00
  -8  10  -8    2.36    1.13
   8  10   9   15.50    1.87
  -8 -10  -9   14.26    1.82
  -8 -10  -9   13.80    1.95
  -8  10  -9   14.58    2.04
   8  10  10    0.13    0.80
  -8 -10 -10   -0.18    0.73
  -8 -10 -10    0.15    0.96
  -8  10 -10    0.54    1.10
   8  10  11    0.47    0.82
  -8 -10 -11   -0.13    0.77
  -8 -10 -11   -0.04    0.96
  -8  10 -11   -0.27    1.11
   8  10  12    0.88    0.88
  -8 -10 -12    2.00    0.85
  -8  10 -12    1.30    1.16
  -8 -10 -13    0.52    0.81
  -8 -10 -13    0.20    1.00
  -8  10 -13    0.23    1.09
   8  11   0   13.41    1.58
  -8 -11   0   10.50    1.50
  -8 -11   0   13.35    1.80
  -8  11   0   12.60    1.42
  -8  11   0   13.71    1.89
   8  11   1   15.61    1.79
  -8 -11  -1   16.34    1.75
  -8 -11  -1   12.80    1.95
  -8  11  -1   14.76    1.61
  -8  11  -1   11.43    1.99
   8  11   2   11.33    1.37
  -8 -11  -2   10.56    1.33
  -8 -11  -2   10.99    1.58
  -8  11  -2    8.76    1.06
  -8  11  -2   10.12    1.11
  -8  11  -2   11.53    1.66
   8  11   3    1.12    0.72
  -8 -11  -3    1.10    0.68
  -8 -11  -3    0.14    0.94
  -8  11  -3    0.42    0.24
  -8  11  -3    1.16    1.04
   8  11   4    0.86    0.74
  -8 -11  -4    0.65    0.67
  -8 -11  -4    0.18    0.94
  -8  11  -4    0.00    0.11
  -8  11  -4    0.00    0.12
  -8  11  -4    0.43    1.04
   8  11   5    2.34    0.82
  -8 -11  -5    2.34    0.77
  -8 -11  -5    1.69    1.01
  -8  11  -5    1.61    1.09
  -8 -11  -6   34.75    3.48
  -8  11  -6   27.79    3.62
   8  11   7   13.95    1.78
  -8 -11  -7   13.39    1.74
  -8 -11  -7   13.73    1.93
  -8  11  -7   15.11    2.05
   8  11   8    0.23    0.79
  -8 -11  -8   -0.03    0.96
  -8  11  -8    0.01    1.12
   8  11   9    1.42    0.84
  -8 -11  -9    2.60    0.82
  -8 -11  -9    0.12    1.00
  -8  11  -9    0.46    1.16
   8  11  10   -0.21    0.81
  -8 -11 -10   -0.60    0.76
  -8 -11 -10    0.41    1.01
  -8  11 -10    0.40    1.18
   8  11  11    2.08    0.88
  -8 -11 -11    2.05    0.84
  -8 -11 -11    0.18    1.03
  -8  11 -11    0.90    1.20
   8  11  12   24.32    2.65
  -8 -11 -12   24.43    2.61
  -8  11 -12   16.42    2.72
   8  12   0   20.78    2.12
  -8 -12   0   20.87    2.08
  -8 -12   0   15.93    2.29
  -8  12   0   18.52    1.92
  -8  12   0   16.76    1.95
  -8  12   0   12.43    2.30
   8  12   1   33.12    3.03
  -8 -12  -1   29.20    2.97
  -8 -12  -1   27.64    3.18
  -8  12  -1   24.62    2.80
  -8  12  -1   27.95    2.84
  -8  12  -1   23.83    3.20
   8  12   2   13.34    1.55
  -8 -12  -2   12.10    1.51
  -8 -12  -2   11.50    1.74
  -8  12  -2   10.83    1.28
  -8  12  -2   13.73    1.88
   8  12   3    0.44    0.71
  -8 -12  -3    0.63    0.69
  -8 -12  -3    0.09    0.96
  -8  12  -3    0.12    0.22
  -8  12  -3    0.13    1.08
   8  12   4   11.81    1.54
  -8 -12  -4   11.69    1.51
  -8 -12  -4   10.88    1.72
   8  12   5    0.41    0.76
  -8 -12  -5    0.56    0.70
  -8 -12  -5    0.61    0.98
  -8  12  -5    0.80    1.11
  -8 -12  -6   29.14    2.90
  -8  12  -6   20.61    3.06
   8  12   7   14.58    1.77
  -8 -12  -7   14.24    1.73
  -8 -12  -7   12.95    1.91
  -8  12  -7   11.63    2.03
   8  12   8   20.62    2.26
  -8 -12  -8   22.97    2.25
  -8 -12  -8   16.76    2.35
  -8  12  -8   11.64    2.40
   8  12   9   43.89    4.19
  -8 -12  -9   38.51    4.12
  -8 -12  -9   35.58    4.23
  -8  12  -9   33.46    4.31
   8  12  10    8.67    1.27
  -8 -12 -10    8.56    1.21
  -8 -12 -10    5.10    1.35
  -8  12 -10    3.79    1.51
   8  13   0    1.95    0.75
  -8 -13   0    2.55    0.67
  -8 -13   0    1.69    1.08
  -8  13   0    1.85    0.41
  -8  13   0    1.06    0.51
  -8  13   0    0.45    1.16
   8  13   1   16.25    1.76
  -8 -13  -1   14.89    1.70
  -8 -13  -1   12.59    1.96
  -8  13  -1   13.65    1.50
  -8  13  -1   14.03    1.55
  -8  13  -1   12.49    2.06
   8  13   2   10.23    1.28
  -8 -13  -2   10.74    1.26
  -8 -13  -2    7.66    1.49
  -8  13  -2    7.23    0.92
  -8  13  -2    9.06    0.96
  -8  13  -2    8.41    1.61
   8  13   3    2.06    0.80
  -8 -13  -3    2.18    0.76
  -8 -13  -3    2.26    1.11
  -8  13  -3    1.95    1.20
   8  13   4    0.04    0.73
  -8 -13  -4    0.26    0.68
  -8 -13  -4    0.74    1.03
  -8 -13  -5   34.74    3.03
  -8 -13  -5   24.95    3.15
  -8  13  -5   18.03    3.14
   8  13   6   12.20    1.53
  -8 -13  -6   10.36    1.46
  -8  13  -6    9.46    1.82
   8  13   7    6.47    1.09
  -8 -13  -7    5.46    1.31
  -8  13  -7    2.64    1.43
   8  13   8    0.11    0.80
  -8 -13  -8    0.08    0.72
  -8 -13  -8    0.36    1.04
  -8  13  -8    0.65    1.26
   8  14   0   74.30    6.99
  -8 -14   0   72.12    6.96
  -8 -14   0   66.76    7.18
  -8  14   0   65.38    6.81
  -8  14   0   67.61    6.86
  -8  14   0   56.06    7.18
   8  14   1    0.62    0.72
  -8 -14  -1    1.25    0.64
  -8 -14  -1   -0.58    1.06
  -8  14  -1    0.74    0.32
  -8  14  -1    0.39    0.42
  -8  14  -1   -0.18    1.20
   8  14   2    1.90    0.79
  -8 -14  -2    2.11    0.72
  -8 -14  -2    2.15    1.11
  -8  14  -2    1.38    0.33
  -8  14  -2    1.39    0.37
  -8  14  -2    1.30    1.23
   8  14   3    0.74    0.74
  -8 -14  -3    0.54    0.69
  -8 -14  -3   -0.11    1.05
  -8  14  -3   -0.46    1.21
   8  14   4    5.40    1.04
  -8 -14  -4    5.35    0.99
  -8 -14  -4    5.31    1.33
   9   0   0    0.07    0.56
  -9   0   0    0.04    0.52
  -9   0   0   -0.12    0.73
   9   0   1    6.29    0.89
  -9   0  -1    5.76    0.85
  -9   0  -1    3.39    0.98
   9   0   2    0.03    0.55
  -9   0  -2    0.00    0.51
  -9   0  -2   -0.02    0.71
   9   0   3   49.69    5.43
  -9   0  -3   44.47    5.40
  -9   0  -3   79.55    5.63
   9   0   4   -0.39    0.56
  -9   0  -4   -0.05    0.50
  -9   0  -4   -0.03    0.69
  -9   0  -5    2.24    0.61
  -9   0  -5    2.22    0.77
   9   0   6    0.02    0.56
  -9   0  -6    0.87    0.47
  -9   0  -6   -0.26    0.70
   9   0   7   20.86    2.33
  -9   0  -7   21.50    2.40
   9   0   8   -0.24    0.58
  -9   0  -8    0.44    0.75
   9   0   9   12.66    1.57
  -9   0  -9   14.82    1.54
  -9   0  -9   10.95    1.61
   9   0  10   -0.05    0.60
  -9   0 -10    0.08    0.51
  -9   0 -10    0.05    0.72
   9   0  11  343.17   33.79
  -9   0 -11  332.43   33.77
   9   0  12   -0.16    0.64
  -9   0 -12    0.29    0.55
  -9   0 -12    0.14    0.61
  -9   0 -13   42.88    4.07
  -9   0 -13   34.91    3.97
   9   0  14    0.56    0.69
  -9   0 -14    0.20    0.57
  -9   0 -14    0.25    0.53
   9   0  15   14.42    1.60
  -9   0 -15   10.52    1.35
   9   0  16   -0.57    0.77
  -9   0 -16    0.05    0.60
  -9   0 -16   -0.01    0.41
   9   0  17   70.04    7.34
   9   0  17   70.84    7.31
   9   1   0    9.80    1.32
  -9  -1   0    9.69    1.30
  -9  -1   0   10.73    1.44
  -9   1   0   11.27    1.30
  -9   1   0   12.04    1.47
   9  -1   0   10.35    1.31
   9   1   1  131.38   13.39
  -9  -1  -1  127.37   13.39
  -9  -1  -1  153.83   13.50
  -9   1  -1  121.50   13.36
  -9   1  -1  153.62   13.50
   9  -1   1  126.73   13.39
   9   1   2   64.49    6.44
  -9  -1  -2   62.88    6.43
  -9  -1  -2   63.37    6.50
  -9   1  -2   61.47    6.41
  -9   1  -2   65.18    6.51
   9  -1   2   59.80    6.42
   9   1   3    1.81    0.63
  -9  -1  -3    1.82    0.59
  -9  -1  -3    2.56    0.77
  -9   1  -3    0.71    0.33
  -9   1  -3    1.62    0.77
   9  -1   3    1.16    0.58
   9   1   4    0.25    0.57
  -9  -1  -4    0.20    0.52
  -9  -1  -4    0.00    0.68
  -9   1  -4    1.19    0.49
  -9   1  -4    0.47    0.72
  -9  -1  -5    0.70    0.55
  -9   1  -5    0.37    0.50
  -9   1  -5    0.56    0.72
   9   1   6    3.81    0.75
  -9  -1  -6    3.65    0.70
  -9  -1  -6    1.68    0.79
  -9   1  -6    3.76    0.67
  -9   1  -6    1.98    0.82
   9  -1   6    3.93    0.72
   9   1   7   51.82    5.66
  -9  -1  -7   50.76    5.64
  -9  -1  -7   62.85    5.72
  -9   1  -7   50.33    5.62
  -9   1  -7   65.39    5.74
   9  -1   7   53.63    5.64
   9   1   8    7.93    1.31
  -9  -1  -8   14.32    1.46
  -9   1  -8   13.66    1.46
   9  -1   8    8.72    1.29
   9   1   9    6.88    1.11
  -9  -1  -9    6.70    1.06
  -9  -1  -9   11.37    1.24
  -9   1  -9    6.11    1.02
  -9   1  -9   11.29    1.26
   9  -1   9    7.83    1.09
   9   1  10   14.31    1.89
  -9  -1 -10   14.73    1.86
  -9  -1 -10   19.82    1.95
  -9   1 -10   13.86    1.82
  -9   1 -10   20.71    1.97
   9  -1  10   16.40    1.88
   9   1  11    0.04    0.66
  -9  -1 -11    0.41    0.55
  -9   1 -11    0.14    0.52
   9  -1  11    0.40    0.62
   9   1  12    8.12    1.21
  -9  -1 -12    8.01    1.15
  -9  -1 -12    8.85    1.13
  -9   1 -12    7.34    1.09
  -9   1 -12    8.05    1.11
   9  -1  12    8.72    1.18
  -9  -1 -13    8.48    0.99
  -9  -1 -13    2.54    0.82
  -9   1 -13    8.21    0.94
  -9   1 -13    3.21    0.84
   9  -1  13    6.69    0.99
   9   1  14    0.43    0.71
  -9  -1 -14    0.42    0.60
  -9  -1 -14    0.22    0.58
  -9   1 -14    0.68    0.56
  -9   1 -14    0.42    0.56
   9  -1  14    0.60    0.67
   9   1  15    0.32    0.74
  -9  -1 -15    0.42    0.52
  -9   1 -15    0.02    0.49
   9  -1  15    0.77    0.72
   9   1  16   23.39    2.15
  -9  -1 -16   22.46    2.08
  -9  -1 -16   16.77    1.81
  -9   1 -16   12.66    1.75
   9  -1  16   22.42    2.09
   9   1  17    0.67    0.83
  -9  -1 -17    0.00    0.21
   9  -1  17    0.71    0.78
   9   2   0   42.44    4.49
  -9  -2   0   41.27    4.47
  -9  -2   0   46.38    4.59
  -9   2   0   42.13    4.45
  -9   2   0   47.97    4.60
   9  -2   0   41.18    4.47
   9   2   1   95.37    9.73
  -9  -2  -1   97.45    9.73
  -9  -2  -1  102.01    9.82
  -9   2  -1   94.31    9.69
  -9   2  -1   94.04    9.80
   9  -2   1   93.55    9.71
   9   2   2    1.81    0.65
  -9  -2  -2    1.29    0.59
  -9  -2  -2    2.30    0.80
  -9   2  -2    1.54    0.55
  -9   2  -2    2.50    0.83
   9  -2   2    1.72    0.60
   9   2   3    6.15    0.97
  -9  -2  -3    6.15    0.95
  -9  -2  -3    7.30    1.10
  -9   2  -3    5.81    0.89
  -9   2  -3    7.73    1.12
   9  -2   3    6.54    0.94
   9   2   4  245.01   25.77
  -9  -2  -4  254.74   25.78
  -9  -2  -4  279.96   25.86
  -9   2  -4  247.52   25.74
  -9   2  -4  276.14   25.86
  -9  -2  -5   46.35    4.89
  -9   2  -5   45.95    4.85
  -9   2  -5   49.70    4.95
   9   2   6   12.91    1.53
  -9  -2  -6   12.84    1.50
  -9  -2  -6   12.74    1.58
  -9   2  -6   11.79    1.44
  -9   2  -6   12.55    1.58
   9  -2   6   11.92    1.46
   9   2   7    1.36    0.63
  -9  -2  -7    1.25    0.57
  -9  -2  -7    1.12    0.73
  -9   2  -7    0.88    0.50
  -9   2  -7    1.01    0.81
   9  -2   7    1.05    0.57
   9   2   8   20.94    2.37
  -9  -2  -8   19.35    2.38
  -9   2  -8   21.81    2.42
   9  -2   8   22.32    2.33
   9   2   9    0.49    0.64
  -9  -2  -9    0.88    0.59
  -9  -2  -9    0.79    0.74
  -9   2  -9    0.71    0.50
  -9   2  -9    0.81    0.79
   9  -2   9    1.09    0.59
   9   2  10  191.61   19.10
  -9  -2 -10  181.94   19.07
  -9  -2 -10  191.41   19.05
  -9   2 -10  191.67   19.02
   9  -2  10  190.38   19.03
   9   2  11    1.00    0.71
  -9  -2 -11    1.13    0.61
  -9  -2 -11    4.95    0.82
  -9   2 -11    0.46    0.52
   9  -2  11    0.71    0.63
   9   2  12   10.85    1.43
  -9  -2 -12   10.49    1.38
  -9   2 -12   10.92    1.30
  -9   2 -12   10.19    1.33
   9  -2  12    9.72    1.34
  -9  -2 -13    9.08    1.26
  -9  -2 -13    9.45    1.21
  -9   2 -13    8.71    1.17
  -9   2 -13    7.59    1.17
   9  -2  13   10.55    1.27
   9   2  14    4.73    1.01
  -9  -2 -14    4.90    0.94
  -9  -2 -14    6.85    0.90
  -9   2 -14    4.87    0.85
  -9   2 -14    4.51    0.84
   9  -2  14    5.45    0.96
   9   2  15   12.85    1.49
  -9  -2 -15   12.60    1.41
  -9   2 -15    6.71    1.15
   9  -2  15   12.27    1.38
   9   2  16    0.17    0.81
  -9  -2 -16   -0.26    0.64
  -9  -2 -16    0.18    0.53
  -9   2 -16    0.33    0.43
   9  -2  16   -0.13    0.70
   9  -2  16    0.11    0.54
   9   2  17   12.77    1.73
  -9  -2 -17   13.42    1.67
   9  -2  17   11.40    1.63
   9   3   0   56.71    5.98
  -9  -3   0   58.07    5.98
  -9  -3   0   58.79    6.04
  -9   3   0   56.69    5.95
  -9   3   0   58.56    6.06
   9  -3   0   59.38    5.97
   9   3   1   46.94    4.90
  -9  -3  -1   43.48    4.88
  -9  -3  -1   59.71    5.03
  -9   3  -1   44.07    4.85
  -9   3  -1   54.26    5.01
   9  -3   1   43.42    4.86
   9   3   2  101.68   10.36
  -9  -3  -2  105.72   10.37
  -9  -3  -2   99.87   10.42
  -9   3  -2  102.74   10.31
  -9   3  -2   97.66   10.42
   9  -3   2  103.19   10.34
   9   3   3   12.30    1.66
  -9  -3  -3   11.52    1.63
  -9  -3  -3   19.71    1.82
  -9   3  -3   12.33    1.58
  -9   3  -3   22.00    1.86
   9   3   4    2.50    0.71
  -9  -3  -4    3.10    0.69
  -9  -3  -4    2.10    0.80
  -9   3  -4    2.95    0.59
  -9   3  -4    2.32    0.81
  -9  -3  -5   12.78    1.37
  -9   3  -5    9.21    1.25
  -9   3  -5   11.15    1.44
   9   3   6   44.90    4.28
  -9  -3  -6   43.98    4.26
  -9  -3  -6   33.57    4.25
  -9   3  -6   43.30    4.19
  -9   3  -6   31.47    4.24
   9  -3   6   44.65    4.21
   9   3   7   36.31    3.82
  -9  -3  -7   36.92    3.81
  -9  -3  -7   35.81    3.84
  -9   3  -7   35.45    3.74
  -9   3  -7   34.36    3.84
   9  -3   7   36.25    3.75
   9   3   8   14.37    1.97
  -9  -3  -8   16.38    2.03
  -9   3  -8   20.58    2.10
   9  -3   8   18.42    1.94
   9   3   9  308.91   31.17
  -9  -3  -9  312.61   31.16
  -9  -3  -9  302.98   31.16
  -9   3  -9  312.26   31.09
  -9   3  -9  312.51   31.16
   9  -3   9  315.81   31.10
   9   3  10    0.36    0.69
  -9  -3 -10    0.29    0.59
  -9  -3 -10    0.01    0.74
  -9   3 -10    0.10    0.47
   9  -3  10    0.03    0.57
   9   3  11   25.26    2.70
  -9  -3 -11   26.13    2.67
  -9  -3 -11   19.72    2.61
  -9   3 -11   27.28    2.58
  -9   3 -11   18.43    2.61
   9  -3  11   26.32    2.61
   9   3  12    1.24    0.74
  -9  -3 -12    1.19    0.65
  -9  -3 -12    0.18    0.72
  -9   3 -12    1.38    0.52
   9  -3  12    1.21    0.64
  -9  -3 -13   23.56    2.32
  -9  -3 -13   17.50    2.22
  -9   3 -13   24.22    2.22
  -9   3 -13   13.93    2.16
   9  -3  13   22.34    2.24
   9   3  14    1.69    0.79
  -9  -3 -14    1.06    0.68
  -9   3 -14    1.18    0.54
  -9   3 -14    1.13    0.61
   9  -3  14    0.93    0.68
   9   3  15   18.55    1.98
  -9  -3 -15   20.45    1.95
  -9   3 -15   10.72    1.68
   9  -3  15   19.20    1.86
   9  -3  15   14.58    1.75
   9   3  16   -0.09    0.81
  -9  -3 -16    0.12    0.64
  -9  -3 -16    0.22    0.58
  -9   3 -16    0.15    0.46
   9  -3  16    0.25    0.69
   9  -3  16   -0.07    0.51
   9   3  17   33.00    3.43
  -9  -3 -17   29.56    3.36
  -9  -3 -17   28.03    3.14
   9  -3  17   32.17    3.30
   9   4   0  117.12   11.98
  -9  -4   0  115.21   11.99
  -9  -4   0  132.37   12.11
  -9   4   0  107.46   11.93
  -9   4   0  136.15   12.13
   9   4   1   20.07    2.34
  -9  -4  -1   18.65    2.33
  -9  -4  -1   25.14    2.47
  -9   4  -1   19.85    2.27
  -9   4  -1   25.84    2.49
   9   4   2   25.43    2.86
  -9  -4  -2   26.87    2.88
  -9  -4  -2   28.21    2.95
  -9   4  -2   24.84    2.79
  -9   4  -2   29.14    2.98
   9   4   3   38.39    4.23
  -9  -4  -3   37.29    4.22
  -9  -4  -3   45.35    4.32
  -9   4  -3   37.96    4.16
  -9   4  -3   48.02    4.35
   9   4   4    7.93    1.15
  -9  -4  -4    7.79    1.12
  -9  -4  -4   12.34    1.30
  -9   4  -4    6.12    0.99
  -9   4  -4   11.28    1.31
  -9  -4  -5  324.72   31.47
  -9   4  -5  308.63   31.38
  -9   4  -5  307.93   31.51
   9  -4   5  317.05   31.39
   9   4   6   27.51    3.18
  -9  -4  -6   26.51    3.16
  -9  -4  -6   36.13    3.28
  -9   4  -6   26.83    3.08
  -9   4  -6   36.46    3.29
   9  -4   6   30.01    3.11
   9   4   7    0.28    0.64
  -9  -4  -7    1.35    0.78
  -9   4  -7    1.43    0.87
   9  -4   7    0.65    0.52
   9   4   8    6.90    1.06
  -9  -4  -8    6.67    1.02
  -9  -4  -8    6.10    1.12
  -9   4  -8    6.13    1.16
   9  -4   8    6.83    0.92
   9   4   9   25.97    2.90
  -9  -4  -9   29.62    2.90
  -9  -4  -9   20.19    2.86
  -9   4  -9   30.65    2.79
  -9   4  -9   19.76    2.87
   9  -4   9   28.54    2.80
   9   4  10    4.71    0.97
  -9  -4 -10    4.50    0.91
  -9  -4 -10    6.33    1.05
  -9   4 -10    5.77    0.78
   9  -4  10    5.36    0.85
   9   4  11   33.42    3.55
  -9  -4 -11   29.55    3.50
  -9   4 -11   30.10    3.39
  -9   4 -11   39.02    3.55
   9  -4  11   33.29    3.43
   9   4  12    0.70    0.72
  -9  -4 -12    0.48    0.63
  -9  -4 -12   -0.04    0.75
  -9   4 -12    0.41    0.45
  -9   4 -12    0.27    0.76
   9  -4  12    0.22    0.56
  -9  -4 -13   11.83    1.54
  -9  -4 -13   13.68    1.57
  -9   4 -13   10.91    1.39
   9  -4  13   12.07    1.46
   9   4  14    8.08    1.37
  -9  -4 -14    8.00    1.30
  -9  -4 -14   10.91    1.33
  -9   4 -14    9.46    1.24
   9  -4  14    9.59    1.24
   9   4  15    0.31    0.80
  -9  -4 -15    0.39    0.66
  -9  -4 -15    0.40    0.72
  -9   4 -15   -0.19    0.58
   9  -4  15   -0.27    0.48
   9   4  16    7.35    1.16
  -9  -4 -16    8.03    1.07
  -9  -4 -16    4.41    0.80
  -9   4 -16    2.24    0.72
   9   4  17   92.66    8.22
  -9  -4 -17  100.15    8.25
  -9  -4 -17   58.23    7.90
   9  -4  17   95.95    8.08
   9   5   0  427.77   42.35
  -9  -5   0  408.27   42.33
  -9  -5   0  449.55   42.46
  -9   5   0  406.00   42.28
  -9   5   0  458.59   42.48
   9   5   1    4.90    0.86
  -9  -5  -1    5.25    0.88
  -9  -5  -1    4.82    1.00
  -9   5  -1    4.11    0.72
  -9   5  -1    3.11    0.98
  -9  -5  -2   51.23    4.92
  -9   5  -2   42.41    4.73
  -9   5  -2   49.50    4.92
  -9  -5  -3  102.10   10.58
  -9  -5  -3  112.98   10.67
  -9   5  -3   99.45   10.49
  -9   5  -3  109.09   10.67
   9   5   4    1.76    0.69
  -9  -5  -4    1.87    0.70
  -9  -5  -4    1.02    0.80
  -9   5  -4    2.26    0.51
   9  -5   4    2.44    0.56
  -9  -5  -5    1.29    0.66
  -9   5  -5    1.06    0.45
  -9   5  -5    2.27    0.86
   9  -5   5    1.34    0.51
   9   5   6   40.29    4.30
  -9  -5  -6   40.08    4.28
  -9  -5  -6   39.90    4.34
  -9   5  -6   39.69    4.18
  -9   5  -6   43.32    4.36
   9  -5   6   41.37    4.20
   9   5   7    3.55    0.84
  -9  -5  -7    3.51    0.95
  -9   5  -7    4.19    1.03
   9  -5   7    4.17    0.68
   9   5   8   30.56    3.61
  -9  -5  -8   27.79    3.58
  -9  -5  -8   40.84    3.71
  -9   5  -8   48.00    3.78
   9  -5   8   31.69    3.50
   9   5   9   90.44    8.20
  -9  -5  -9   87.44    8.18
  -9  -5  -9   72.40    8.14
  -9   5  -9   69.61    8.14
   9   5  10   45.59    5.07
  -9  -5 -10   46.16    5.05
  -9  -5 -10   53.50    5.11
   9   5  11    0.72    0.73
  -9  -5 -11    0.54    0.63
  -9   5 -11    0.50    0.45
  -9   5 -11    0.56    0.83
   9  -5  11    0.61    0.52
   9   5  12    5.99    1.11
  -9  -5 -12    6.30    1.05
  -9  -5 -12    5.68    1.09
  -9   5 -12    6.33    0.87
  -9   5 -12    6.76    1.14
   9  -5  12    6.35    0.90
  -9  -5 -13    4.21    0.86
  -9  -5 -13    3.35    0.90
  -9   5 -13    1.80    0.90
   9  -5  13    3.97    0.72
   9   5  14   36.07    3.44
  -9  -5 -14   32.09    3.32
  -9   5 -14   29.63    3.29
   9  -5  14   27.44    3.19
   9   5  15    6.81    1.11
  -9  -5 -15    7.25    1.01
  -9  -5 -15    2.81    0.94
  -9   5 -15    1.94    0.77
   9  -5  15    5.80    0.83
   9  -5  15    3.45    0.68
   9   5  16   70.72    6.68
  -9  -5 -16   71.82    6.66
  -9  -5 -16   60.78    6.49
  -9   5 -16   49.07    6.42
   9  -5  16   74.14    6.51
   9   6   0    7.10    1.06
  -9  -6   0    6.59    1.04
  -9  -6   0    8.64    1.23
  -9   6   0    6.17    0.93
  -9   6   0    7.79    1.25
   9  -6   0    6.44    0.95
   9   6   1   19.46    2.23
  -9  -6  -1   20.53    2.24
  -9  -6  -1   19.23    2.33
  -9   6  -1   19.30    2.13
  -9   6  -1   18.45    2.35
   9  -6   1   20.78    2.16
   9   6   2    0.82    0.66
  -9  -6  -2    1.40    0.69
  -9  -6  -2    0.68    0.80
  -9   6  -2    0.88    0.47
  -9   6  -2    0.88    0.85
   9  -6   2    1.13    0.51
   9   6   3   27.22    2.96
  -9  -6  -3   27.24    2.96
  -9  -6  -3   24.83    3.01
  -9   6  -3   27.37    2.84
  -9   6  -3   27.31    3.06
   9  -6   3   27.77    2.86
   9   6   4  332.08   32.32
  -9  -6  -4  317.45   32.29
  -9  -6  -4  343.97   32.38
  -9   6  -4  307.49   32.17
   9  -6   4  328.98   32.20
  -9  -6  -5   33.82    3.73
  -9   6  -5   31.21    3.60
  -9   6  -5   43.10    3.89
   9  -6   5   37.38    3.64
   9   6   6   19.24    2.19
  -9  -6  -6   18.44    2.17
  -9  -6  -6   19.33    2.25
  -9   6  -6   18.33    2.26
   9   6   7    5.54    1.03
  -9  -6  -7    7.08    1.15
  -9   6  -7    6.33    1.20
   9  -6   7    5.45    0.79
   9   6   8    9.57    1.35
  -9  -6  -8    8.86    1.30
  -9  -6  -8    9.12    1.40
  -9   6  -8   11.42    1.49
   9  -6   8    9.12    1.11
   9   6   9   16.23    1.89
  -9  -6  -9   16.19    1.85
  -9  -6  -9   14.61    1.90
  -9   6  -9   15.34    1.63
  -9   6  -9   13.17    1.92
   9  -6   9   14.40    1.64
   9   6  10  112.52   11.70
  -9  -6 -10  112.60   11.69
  -9  -6 -10  106.60   11.69
  -9   6 -10  120.49   11.53
   9  -6  10  114.76   11.53
   9   6  11   43.14    4.45
  -9  -6 -11   42.17    4.42
  -9   6 -11   39.72    4.24
  -9   6 -11   43.36    4.43
   9  -6  11   40.70    4.25
   9   6  12    2.75    0.95
  -9  -6 -12    2.73    0.84
  -9  -6 -12    3.09    0.93
  -9   6 -12    2.89    0.97
   9  -6  12    2.84    0.60
   9   6  13    0.25    0.84
  -9  -6 -13    0.00    0.72
  -9  -6 -13    0.12    0.80
  -9   6 -13    0.18    0.83
   9  -6  13    0.18    0.51
   9  -6  13    0.01    0.39
   9   6  14   13.29    1.84
  -9  -6 -14   17.23    1.79
  -9   6 -14   16.20    1.77
   9  -6  14   11.53    1.50
   9   6  15    0.40    0.92
  -9  -6 -15    0.27    0.75
  -9  -6 -15    0.83    0.83
  -9   6 -15    0.43    0.81
   9  -6  15   -0.22    0.56
   9   6  16   12.45    1.65
  -9  -6 -16   11.85    1.54
  -9  -6 -16    8.09    1.40
   9  -6  16    9.88    1.28
   9   7   0   94.47    9.79
  -9  -7   0  106.18    9.82
  -9  -7   0   92.84    9.88
  -9   7   0   84.22    9.87
   9  -7   0   99.56    9.75
   9   7   1    1.19    0.68
  -9  -7  -1    1.14    0.66
  -9  -7  -1    1.28    0.86
  -9   7  -1    1.16    0.50
  -9   7  -1    1.25    0.92
   9  -7   1    1.20    0.53
   9   7   2    0.47    0.67
  -9  -7  -2    1.28    0.68
  -9  -7  -2   -0.29    0.81
  -9   7  -2    0.48    0.44
  -9   7  -2    0.35    0.86
   9  -7   2    0.53    0.47
   9   7   3  104.83   10.68
  -9  -7  -3  103.31   10.67
  -9  -7  -3  106.15   10.77
  -9   7  -3  101.20   10.78
   9  -7   3  107.11   10.57
   9   7   4   23.41    2.53
  -9  -7  -4   24.60    2.52
  -9  -7  -4   20.07    2.57
  -9   7  -4   23.17    2.35
   9  -7   4   20.63    2.35
  -9  -7  -5   22.70    2.36
  -9   7  -5   19.64    2.17
  -9   7  -5   18.35    2.44
   9  -7   5   21.41    2.19
   9   7   6   12.91    1.52
  -9  -7  -6   13.16    1.50
  -9  -7  -6   11.44    1.57
  -9   7  -6   10.87    1.24
  -9   7  -6    8.74    1.58
   9  -7   6   10.84    1.25
   9   7   7  147.57   15.11
  -9  -7  -7  144.72   15.15
  -9   7  -7  150.68   15.19
   9  -7   7  151.20   14.94
   9   7   8    1.90    0.83
  -9  -7  -8    1.80    0.75
  -9  -7  -8    2.40    0.95
  -9   7  -8    3.09    1.05
   9  -7   8    2.27    0.48
   9   7   9   88.79    8.95
  -9  -7  -9   81.73    8.90
  -9  -7  -9   96.46    9.00
  -9   7  -9   83.04    8.73
  -9   7  -9   90.33    9.00
   9  -7   9   88.60    8.74
   9   7  10    0.65    0.81
  -9  -7 -10    0.38    0.72
  -9  -7 -10    1.26    0.90
  -9   7 -10    1.11    0.40
   9  -7  10    1.16    0.44
   9   7  11   10.90    1.47
  -9  -7 -11   10.32    1.40
  -9   7 -11    7.00    1.45
   9  -7  11    9.78    1.12
   9   7  12    4.32    1.06
  -9  -7 -12    4.60    0.96
  -9  -7 -12    3.57    1.06
  -9   7 -12    2.76    1.05
   9  -7  12    4.69    0.67
   9   7  13    1.16    0.89
  -9  -7 -13    0.57    0.75
  -9  -7 -13    0.56    0.87
  -9   7 -13   -0.59    0.90
   9  -7  13    0.67    0.46
   9  -7  13    0.16    0.37
   9   7  14   51.34    4.63
  -9  -7 -14   42.42    4.50
  -9   7 -14   35.32    4.46
   9  -7  14   41.86    4.31
   9   7  15   32.97    3.53
  -9  -7 -15   34.40    3.49
  -9  -7 -15   30.17    3.42
  -9   7 -15   26.60    3.39
   9  -7  15   31.29    3.23
   9   8   0   21.23    2.28
  -9  -8   0   21.84    2.27
  -9  -8   0   23.04    2.43
  -9   8   0   18.53    2.15
  -9   8   0   20.22    2.45
   9  -8   0   17.88    2.17
   9   8   1    0.82    0.67
  -9  -8  -1    0.19    0.65
  -9  -8  -1    0.42    0.84
  -9   8  -1    0.91    0.96
   9  -8   1    0.66    0.51
   9   8   2   30.70    3.30
  -9  -8  -2   32.15    3.30
  -9  -8  -2   29.49    3.40
  -9   8  -2   29.06    3.43
   9  -8   2   30.12    3.19
   9   8   3    5.29    0.98
  -9  -8  -3    5.88    0.96
  -9  -8  -3    5.14    1.11
  -9   8  -3    4.87    1.18
   9  -8   3    4.87    0.73
   9   8   4    1.24    0.74
  -9  -8  -4    1.35    0.71
  -9  -8  -4    2.33    0.91
  -9   8  -4    0.85    0.41
   9  -8   4    1.22    0.44
  -9  -8  -5   66.04    6.36
  -9   8  -5   62.47    6.18
  -9   8  -5   50.23    6.39
   9  -8   5   61.67    6.19
   9   8   6   16.04    1.85
  -9  -8  -6   16.04    1.83
  -9  -8  -6   16.93    1.95
  -9   8  -6   13.57    1.57
  -9   8  -6   17.27    2.00
   9  -8   6   14.39    1.58
   9   8   7    5.59    1.01
  -9  -8  -7    5.52    1.13
  -9   8  -7    4.62    0.62
  -9   8  -7    3.94    1.20
   9  -8   7    4.89    0.63
   9   8   8   15.40    1.77
  -9  -8  -8   14.45    1.73
  -9  -8  -8   14.36    1.84
  -9   8  -8   14.31    1.90
   9  -8   8   12.54    1.43
   9   8   9   27.14    2.75
  -9  -8  -9   29.13    2.74
  -9  -8  -9   20.33    2.73
  -9   8  -9   19.23    2.76
   9  -8   9   23.20    2.43
   9   8  10    0.99    0.83
  -9  -8 -10    0.52    0.73
  -9  -8 -10   -0.07    0.93
   9  -8  10    0.06    0.30
   9  -8  10    0.35    0.33
   9   8  11   27.18    2.55
  -9  -8 -11   26.98    2.51
  -9   8 -11   19.79    2.53
   9  -8  11   22.54    2.18
   9  -8  11   17.38    2.16
  -9  -8 -12    3.19    0.92
  -9  -8 -12    4.84    1.12
  -9   8 -12    3.08    1.08
   9  -8  12    3.90    0.53
   9  -8  12    2.93    0.51
   9   8  13    3.15    1.01
  -9  -8 -13    3.54    0.91
  -9  -8 -13    3.21    1.04
  -9   8 -13    2.34    1.05
   9  -8  13    2.66    0.48
   9  -8  13    2.26    0.46
   9   8  14   17.51    1.95
  -9  -8 -14   20.20    1.92
  -9  -8 -14   12.75    1.84
  -9   8 -14   11.75    1.84
   9  -8  14   14.58    1.49
   9  -8  14   11.66    1.47
   9   9   0   19.60    2.01
  -9  -9   0   20.28    2.01
  -9  -9   0   15.42    2.12
  -9   9   0   16.92    1.86
  -9   9   0   15.95    2.19
   9  -9   0   14.04    1.86
   9   9   1    6.19    1.01
  -9  -9  -1    5.28    0.98
  -9  -9  -1    6.30    1.20
  -9   9  -1    5.45    0.78
  -9   9  -1    6.21    1.28
   9  -9   1    5.09    0.82
   9   9   2    1.60    0.75
  -9  -9  -2    1.88    0.73
  -9  -9  -2    2.27    0.96
  -9   9  -2    1.45    0.44
  -9   9  -2    0.97    0.97
   9  -9   2    0.99    0.51
   9   9   3    6.25    0.99
  -9  -9  -3    6.28    0.94
  -9  -9  -3    4.00    1.09
  -9   9  -3    4.46    1.16
   9  -9   3    3.38    0.66
  -9  -9  -4    2.02    0.75
  -9  -9  -4    3.28    1.00
   9  -9   4    1.81    0.46
   9   9   5   10.53    1.24
  -9  -9  -5   10.11    1.22
  -9  -9  -5    8.03    1.35
  -9   9  -5    6.44    0.86
  -9   9  -5    6.90    1.38
   9  -9   5    7.64    0.88
   9   9   6    1.39    0.77
  -9  -9  -6    1.65    0.74
  -9  -9  -6    1.12    0.94
  -9   9  -6    0.99    0.30
  -9   9  -6   -0.45    1.00
   9  -9   6    0.80    0.30
   9   9   7    6.00    0.98
  -9  -9  -7    4.89    1.09
  -9   9  -7    2.77    0.41
  -9   9  -7    3.54    1.20
   9   9   8   39.81    4.12
  -9  -9  -8   37.21    4.08
  -9  -9  -8   36.33    4.16
  -9   9  -8   38.74    4.22
   9   9   9   10.93    1.41
  -9  -9  -9   10.38    1.36
  -9  -9  -9    7.41    1.44
  -9   9  -9    5.66    1.48
   9   9  10   59.09    5.90
  -9  -9 -10   59.34    5.88
  -9  -9 -10   48.90    5.89
   9   9  11   -0.03    0.84
  -9  -9 -11    0.36    0.79
  -9  -9 -11    0.11    0.98
  -9   9 -11    0.14    1.07
  -9  -9 -12    5.90    1.09
  -9  -9 -12    4.99    1.24
  -9   9 -12    3.69    1.27
   9   9  13    5.64    1.18
  -9  -9 -13    5.26    1.11
  -9  -9 -13    4.78    1.24
  -9   9 -13    4.95    1.30
   9  10   0   77.51    7.47
  -9 -10   0   82.77    7.48
  -9 -10   0   70.54    7.59
  -9  10   0   73.60    7.36
  -9  10   0   64.94    7.59
   9 -10   0   65.44    7.37
   9  10   1    0.12    0.69
  -9 -10  -1   -0.07    0.66
  -9 -10  -1   -0.18    0.94
  -9  10  -1    0.23    0.43
  -9  10  -1    0.05    0.99
   9 -10   1    0.26    0.50
   9  10   2   30.79    2.99
  -9 -10  -2   30.22    2.97
  -9 -10  -2   28.98    3.13
  -9  10  -2   26.66    2.79
  -9  10  -2   27.16    3.15
   9 -10   2   23.01    2.80
   9  10   3   29.95    2.77
  -9 -10  -3   32.10    2.77
  -9 -10  -3   24.94    2.87
  -9  10  -3   24.33    2.53
  -9  10  -3   20.81    2.88
   9 -10   3   20.56    2.53
  -9 -10  -4   16.61    1.56
  -9 -10  -4   12.92    1.70
   9 -10   4    9.75    1.21
   9  10   5   12.65    1.33
  -9 -10  -5   12.97    1.30
  -9 -10  -5   10.22    1.45
  -9  10  -5    7.24    0.85
  -9  10  -5    8.96    1.50
   9 -10   5    6.75    0.85
   9  10   6    4.37    0.99
  -9 -10  -6    4.89    0.97
  -9 -10  -6    3.75    1.15
  -9  10  -6    4.42    1.24
   9  10   7    0.83    0.80
  -9 -10  -7    1.60    0.78
  -9 -10  -7    0.26    0.98
  -9  10  -7    0.94    1.12
   9  10   8   15.09    1.72
  -9 -10  -8   13.40    1.67
  -9 -10  -8   11.74    1.79
  -9  10  -8    8.88    1.83
   9  10   9    2.05    0.89
  -9 -10  -9    2.50    0.86
  -9 -10  -9    1.44    1.05
  -9  10  -9    1.02    1.13
   9  10  10    3.71    1.02
  -9 -10 -10    3.25    0.95
  -9 -10 -10    2.97    1.13
   9  10  11    4.89    1.08
  -9 -10 -11    3.51    0.98
  -9 -10 -11    4.85    1.23
  -9  10 -11    3.94    1.31
  -9 -10 -12    2.75    0.91
  -9 -10 -12    0.71    1.05
  -9  10 -12    1.27    1.18
   9  11   0    3.06    0.86
  -9 -11   0    2.71    0.83
  -9 -11   0    3.76    1.14
  -9  11   0    3.17    0.64
  -9  11   0    4.44    1.28
   9 -11   0    4.48    0.77
   9  11   1    0.82    0.73
  -9 -11  -1    0.67    0.70
  -9 -11  -1    0.04    0.97
  -9  11  -1    0.65    0.45
  -9  11  -1   -0.11    1.08
   9 -11   1    0.24    0.54
   9  11   2   25.81    2.54
  -9 -11  -2   22.89    2.49
  -9 -11  -2   24.29    2.71
  -9  11  -2   21.73    2.31
  -9  11  -2   22.60    2.75
   9 -11   2   19.32    2.33
   9  11   3    9.75    1.32
  -9 -11  -3   10.89    1.30
  -9 -11  -3    7.07    1.47
  -9  11  -3    8.36    0.98
  -9  11  -3    6.80    1.53
  -9 -11  -4    0.33    0.72
  -9 -11  -4   -0.01    0.97
  -9  11  -4    0.17    0.21
   9  11   5    0.12    0.76
  -9 -11  -5    0.02    0.69
  -9 -11  -5    0.04    0.98
  -9  11  -5    0.42    1.07
   9  11   6   18.46    2.06
  -9 -11  -6   16.59    2.19
  -9  11  -6   13.82    2.21
   9  11   7   10.68    1.38
  -9 -11  -7   10.88    1.35
  -9 -11  -7    6.73    1.48
  -9  11  -7    4.35    1.54
   9  11   8    5.34    1.08
  -9 -11  -8    3.88    1.00
  -9 -11  -8    5.70    1.28
  -9  11  -8    6.61    1.42
   9  11   9    0.80    0.85
  -9 -11  -9    0.28    0.77
  -9 -11  -9   -0.27    1.03
  -9  11  -9    0.76    1.19
   9  11  10    1.98    0.93
  -9 -11 -10    1.97    0.86
  -9 -11 -10    1.26    1.09
   9  12   0    2.85    0.82
  -9 -12   0    3.58    0.82
  -9 -12   0    1.02    1.09
  -9  12   0    3.01    0.60
  -9  12   0    0.28    1.16
   9  12   1    0.96    0.75
  -9 -12  -1    0.84    0.71
  -9 -12  -1    1.23    1.05
  -9  12  -1    0.70    0.34
  -9  12  -1    1.07    0.47
  -9  12  -1    0.33    1.12
   9  12   2   47.67    4.57
  -9 -12  -2   48.41    4.56
  -9 -12  -2   39.11    4.68
  -9  12  -2   41.79    4.37
  -9  12  -2   34.93    4.69
   9  12   3    3.74    0.88
  -9 -12  -3    2.48    0.81
  -9 -12  -3    3.09    1.12
  -9  12  -3    1.72    0.33
  -9  12  -3    1.77    0.39
  -9  12  -3    3.02    1.21
  -9 -12  -4   21.11    2.22
  -9 -12  -4   15.33    2.36
   9  12   5    2.14    0.84
  -9 -12  -5    1.56    0.76
  -9 -12  -5    1.77    1.08
  -9  12  -5    0.54    1.13
   9  12   6    3.27    0.93
  -9 -12  -6    2.18    1.13
  -9  12  -6    3.38    1.27
   9  12   7    0.37    0.81
  -9 -12  -7   -0.03    0.75
  -9 -12  -7    0.20    1.05
  -9  12  -7    0.03    1.20
   9  12   8    0.17    0.82
  -9 -12  -8   -0.03    0.73
  -9 -12  -8    0.74    1.05
  -9  12  -8    0.55    1.22
   9  12   9    8.58    1.29
  -9 -12  -9    8.62    1.25
  -9 -12  -9    6.01    1.42
  -9  12  -9    3.64    1.51
   9  13   0   63.58    6.13
  -9 -13   0   65.02    6.11
  -9 -13   0   49.68    6.24
  -9  13   0   62.05    5.95
  -9  13   0   56.32    5.99
  -9  13   0   45.76    6.27
   9  13   1    1.18    0.76
  -9 -13  -1    1.53    0.74
  -9 -13  -1    1.06    1.09
  -9  13  -1    1.15    0.48
  -9  13  -1    1.83    1.22
   9  13   2   17.72    1.77
  -9 -13  -2   17.01    1.73
  -9 -13  -2   13.63    1.97
  -9  13  -2   11.95    1.41
  -9  13  -2   13.37    1.44
  -9  13  -2   11.66    2.01
   9  13   3    3.00    0.85
  -9 -13  -3    2.49    0.77
  -9 -13  -3    1.75    1.14
  -9  13  -3    1.03    0.27
  -9  13  -3    1.01    0.29
  -9  13  -3    1.47    1.21
  -9 -13  -4    1.75    0.77
  -9 -13  -4    1.99    1.12
   9  13   5   -0.11    0.76
  -9 -13  -5   -0.26    0.70
  -9 -13  -5    0.15    1.07
  -9  13  -5   -0.29    1.16
   9  13   6   13.84    1.58
  -9 -13  -6   10.02    1.75
  -9  13  -6    6.98    1.79
   9  14   0    0.02    0.71
  -9 -14   0   -0.34    0.68
  -9 -14   0   -0.53    1.11
  -9  14   0    0.06    0.49
  -9  14   0    0.27    1.20
 -10   0   0   47.20    5.15
 -10   0   0   53.86    5.28
 -10   0  -1   -0.41    0.55
 -10   0  -1   -0.24    0.78
 -10   0  -2   15.44    1.98
 -10   0  -2   21.81    2.15
  10   0   3    0.12    0.59
 -10   0  -3   -0.27    0.54
 -10   0  -3   -0.20    0.74
  10   0   4    0.97    0.63
 -10   0  -4    0.71    0.56
  10   0   5   -0.01    0.60
 -10   0  -5   -0.20    0.75
  10   0   6   46.63    5.19
 -10   0  -6   54.79    5.28
  10   0   7   -0.25    0.64
 -10   0  -7    0.92    0.45
 -10   0  -7   -0.11    0.82
  10   0   8   68.91    7.33
 -10   0  -8   74.09    7.37
  10   0   9    0.30    0.67
 -10   0  -9   -0.51    0.43
 -10   0  -9    0.38    0.84
  10   0  10   40.87    4.49
 -10   0 -10   44.28    4.49
  10   0  11    0.15    0.67
 -10   0 -11   -0.29    0.59
 -10   0 -11   -0.13    0.78
 -10   0 -12    0.19    0.58
 -10   0 -12    0.14    0.79
  10   0  13    0.45    0.73
 -10   0 -13   -0.14    0.57
 -10   0 -13   -0.29    0.79
  10   0  14    4.38    0.97
 -10   0 -14    3.43    0.80
  10   0  15   -0.14    0.77
 -10   0 -15   -0.29    0.61
 -10   0 -15    0.06    0.57
  10   0  16   89.50    6.91
 -10   0 -16   97.06    6.91
 -10   0 -16   48.81    6.56
  10   1   0   -0.01    0.60
 -10  -1   0    0.31    0.57
 -10  -1   0    0.15    0.76
 -10   1   0    0.21    0.54
 -10   1   0    0.50    0.80
 -10  -1  -1    8.20    1.03
 -10  -1  -1    5.92    1.14
 -10   1  -1    6.74    0.98
 -10   1  -1    5.51    1.15
 -10  -1  -2  227.32   22.70
 -10  -1  -2  233.95   22.78
 -10   1  -2  219.39   22.68
 -10   1  -2  237.31   22.79
  10  -1   2  219.61   22.70
  10   1   3    1.28    0.66
 -10  -1  -3    1.88    0.62
 -10  -1  -3    1.01    0.77
 -10   1  -3    1.69    0.49
 -10   1  -3    0.56    0.79
  10  -1   3    0.93    0.62
  10   1   4   19.36    2.21
 -10  -1  -4   18.63    2.19
 -10  -1  -4   21.33    2.30
  10  -1   4   19.57    2.19
  10   1   5    1.92    0.72
 -10  -1  -5    2.82    0.85
 -10   1  -5    2.75    0.86
  10  -1   5    2.58    0.70
  10   1   6   24.24    2.58
 -10  -1  -6   22.40    2.62
 -10   1  -6   22.14    2.62
  10  -1   6   23.73    2.55
  10   1   7    6.88    1.07
 -10  -1  -7    6.16    1.01
 -10  -1  -7    8.70    1.22
 -10   1  -7    6.29    0.98
 -10   1  -7    7.58    1.21
  10  -1   7    7.21    1.05
  10   1   8    3.42    0.84
 -10  -1  -8    4.06    0.78
 -10  -1  -8    3.57    0.96
 -10   1  -8    4.01    0.74
 -10   1  -8    4.34    1.01
  10  -1   8    3.56    0.82
  10   1   9   44.82    4.84
 -10  -1  -9   46.90    4.83
 -10  -1  -9   45.01    4.85
 -10   1  -9   46.14    4.80
 -10   1  -9   46.68    4.87
  10  -1   9   46.65    4.82
  10   1  10   67.64    7.08
 -10  -1 -10   67.79    7.07
 -10   1 -10   68.51    7.04
  10  -1  10   69.91    7.07
  10   1  11    1.94    0.78
 -10  -1 -11    2.01    0.71
 -10  -1 -11    3.70    0.89
 -10   1 -11    1.81    0.66
 -10   1 -11    3.95    0.91
  10  -1  11    2.08    0.76
 -10  -1 -12    1.44    0.66
 -10  -1 -12    0.96    0.81
 -10   1 -12    0.93    0.60
 -10   1 -12    0.69    0.80
  10   1  13    0.24    0.75
 -10  -1 -13    0.72    0.62
 -10  -1 -13    1.00    0.80
 -10   1 -13    0.07    0.56
  10  -1  13    0.42    0.71
  10   1  14    5.06    1.00
 -10   1 -14    3.14    0.82
  10  -1  14    4.86    0.96
  10   1  15   62.67    5.74
 -10  -1 -15   65.53    5.71
 -10  -1 -15   46.17    5.52
 -10   1 -15   63.50    5.67
 -10   1 -15   42.53    5.50
  10  -1  15   63.63    5.71
  10   1  16   24.53    2.53
 -10  -1 -16   28.34    2.48
 -10  -1 -16   18.20    2.24
 -10   1 -16   24.16    2.42
 -10   1 -16   15.30    2.22
  10  -1  16   28.04    2.53
  10   2   0    2.71    0.76
 -10  -2   0    2.54    0.72
 -10  -2   0    4.22    0.96
 -10   2   0    3.20    0.70
 -10   2   0    4.57    0.97
  10  -2   0    3.72    0.76
 -10  -2  -1  435.39   46.15
 -10  -2  -1  503.01   46.28
 -10   2  -1  517.21   46.29
  10  -2   1  435.99   46.14
 -10  -2  -2    5.23    0.84
 -10  -2  -2    3.07    0.98
 -10   2  -2    4.98    0.79
 -10   2  -2    3.14    0.98
  10  -2   2    4.33    0.81
 -10  -2  -3   12.76    1.41
 -10  -2  -3   10.40    1.50
 -10   2  -3   11.99    1.35
 -10   2  -3    8.91    1.49
  10  -2   3   10.23    1.36
  10   2   4    8.19    1.17
 -10  -2  -4    8.79    1.15
 -10  -2  -4    7.14    1.26
 -10   2  -4    8.45    1.10
  10  -2   4    8.23    1.12
  10   2   5   44.73    4.69
 -10  -2  -5   44.48    4.68
 -10  -2  -5   42.59    4.72
 -10   2  -5   44.13    4.73
  10  -2   5   46.68    4.66
  10   2   6   12.45    1.62
 -10  -2  -6   15.69    1.72
 -10   2  -6   12.33    1.68
  10  -2   6   12.48    1.56
  10   2   7  101.28   10.43
 -10  -2  -7   96.16   10.41
 -10  -2  -7  115.81   10.50
 -10   2  -7   96.91   10.37
 -10   2  -7  112.79   10.49
  10  -2   7   99.65   10.39
  10   2   8    0.37    0.69
 -10  -2  -8    0.39    0.59
 -10  -2  -8    1.44    0.84
 -10   2  -8    0.58    0.51
 -10   2  -8    1.34    0.90
  10  -2   8    0.01    0.62
  10   2   9   38.63    4.07
 -10  -2  -9   34.29    4.02
 -10  -2  -9   44.45    4.12
 -10   2  -9   34.33    3.98
 -10   2  -9   43.26    4.12
  10  -2   9   37.83    4.02
  10   2  10   25.67    2.81
 -10  -2 -10   25.64    2.78
 -10  -2 -10   22.97    2.79
 -10   2 -10   24.99    2.71
  10  -2  10   25.60    2.74
  10   2  11    5.07    1.01
 -10  -2 -11    4.97    0.93
 -10  -2 -11    6.96    1.08
 -10   2 -11    3.85    0.82
 -10   2 -11    6.94    1.08
  10  -2  11    4.15    0.92
 -10  -2 -12   22.01    2.39
 -10  -2 -12   20.91    2.38
 -10   2 -12   20.20    2.31
 -10   2 -12   20.13    2.37
  10   2  13   29.18    3.21
 -10  -2 -13   28.01    3.15
 -10  -2 -13   30.24    3.15
 -10   2 -13   28.20    3.09
 -10   2 -13   29.42    3.13
  10  -2  13   26.98    3.12
  10   2  14   14.18    1.67
 -10  -2 -14   14.86    1.61
 -10  -2 -14   10.86    1.53
 -10   2 -14    8.37    1.43
  10  -2  14   14.13    1.58
  10   2  15    2.94    0.94
 -10  -2 -15    3.42    0.81
 -10  -2 -15    2.53    0.72
 -10   2 -15    2.71    0.70
 -10   2 -15    1.55    0.68
  10  -2  15    2.30    0.84
  10   2  16    3.86    1.05
 -10  -2 -16    3.28    0.89
 -10  -2 -16    3.75    0.79
 -10   2 -16    4.80    0.83
 -10   2 -16    3.19    0.71
  10  -2  16    4.14    0.96
  10   3   0    3.71    0.82
 -10  -3   0    3.35    0.79
 -10  -3   0    3.83    0.97
 -10   3   0    3.55    0.73
 -10   3   0    3.73    0.97
  10  -3   0    4.66    0.80
  10   3   1    6.10    0.95
 -10  -3  -1    5.73    0.92
 -10  -3  -1    3.80    1.04
 -10   3  -1    6.17    0.87
 -10   3  -1    3.89    1.06
  10  -3   1    5.89    0.90
 -10  -3  -2   96.89   10.85
 -10  -3  -2  120.74   10.98
 -10   3  -2  100.26   10.81
 -10   3  -2  121.18   10.99
  10  -3   2  108.16   10.84
 -10  -3  -3    3.50    0.83
 -10  -3  -3    6.71    1.05
 -10   3  -3    4.05    0.77
 -10   3  -3    6.52    1.06
  10  -3   3    5.38    0.84
  10   3   4  121.60   12.45
 -10  -3  -4  118.27   12.43
 -10  -3  -4  137.26   12.53
  10  -3   4  119.21   12.39
  10   3   5    1.37    0.70
 -10  -3  -5    1.13    0.64
 -10  -3  -5    1.68    0.83
 -10   3  -5    1.18    0.81
  10  -3   5    1.43    0.61
  10   3   6  189.11   18.46
 -10  -3  -6  188.48   18.50
 -10   3  -6  177.87   18.37
 -10   3  -6  184.02   18.49
  10  -3   6  180.67   18.38
  10   3   7   11.47    1.56
 -10  -3  -7   10.77    1.51
 -10  -3  -7   14.07    1.66
 -10   3  -7   10.71    1.43
 -10   3  -7   16.70    1.73
  10  -3   7   12.59    1.48
  10   3   8    4.31    0.92
 -10  -3  -8    4.77    0.87
 -10  -3  -8    4.19    1.02
 -10   3  -8    4.53    0.75
 -10   3  -8    3.93    1.06
  10  -3   8    4.65    0.83
  10   3   9   14.25    1.74
 -10  -3  -9   14.27    1.70
 -10  -3  -9   13.41    1.76
 -10   3  -9   13.96    1.59
 -10   3  -9   11.83    1.76
  10  -3   9   13.95    1.63
  10   3  10   34.97    3.83
 -10  -3 -10   34.38    3.81
 -10  -3 -10   40.01    3.86
 -10   3 -10   33.00    3.72
  10  -3  10   36.64    3.76
  10   3  11   66.38    7.41
 -10  -3 -11   66.98    7.39
 -10  -3 -11   75.42    7.41
 -10   3 -11   71.28    7.33
 -10   3 -11   72.81    7.40
  10  -3  11   76.50    7.37
 -10  -3 -12   47.19    5.30
 -10  -3 -12   55.01    5.32
 -10   3 -12   49.17    5.23
 -10   3 -12   51.35    5.30
  10   3  13   -0.01    0.77
 -10  -3 -13    0.12    0.65
 -10  -3 -13    0.49    0.80
 -10   3 -13    0.16    0.52
 -10   3 -13    0.61    0.79
  10  -3  13   -0.27    0.67
  10   3  14    5.76    1.12
 -10  -3 -14    5.05    0.99
 -10  -3 -14    6.25    1.07
  10  -3  14    4.91    0.97
  10   3  15    1.81    0.93
 -10  -3 -15    2.86    0.81
 -10   3 -15    2.31    0.65
 -10   3 -15    1.94    0.68
  10  -3  15    2.84    0.82
  10   3  16   51.72    4.87
 -10  -3 -16   54.80    4.85
 -10   3 -16   34.51    4.56
  10  -3  16   52.34    4.75
  10   4   0   46.81    4.78
 -10  -4   0   45.85    4.78
 -10  -4   0   49.28    4.88
 -10   4   0   44.05    4.73
 -10   4   0   43.13    4.84
  10  -4   0   45.08    4.75
  10   4   1    3.73    0.85
 -10  -4  -1    4.06    0.85
 -10  -4  -1    6.01    1.05
 -10   4  -1    3.52    0.73
 -10   4  -1    4.84    1.02
  10  -4   1    4.68    0.80
 -10  -4  -2    9.99    1.30
 -10  -4  -2   10.93    1.43
 -10   4  -2    8.99    1.20
 -10   4  -2    8.47    1.40
  10  -4   2   10.36    1.24
 -10  -4  -3    5.31    0.93
 -10  -4  -3    5.22    1.08
 -10   4  -3    5.19    1.09
  10  -4   3    6.31    0.89
  10   4   4   89.48    9.00
 -10  -4  -4   95.19    9.01
 -10  -4  -4   75.90    9.01
  10  -4   4   90.33    8.94
  10   4   5    1.11    0.73
 -10  -4  -5    2.88    0.89
 -10   4  -5    3.01    0.90
  10  -4   5    1.59    0.60
  10   4   6  169.76   16.85
 -10  -4  -6  165.60   16.88
 -10   4  -6  166.43   16.74
 -10   4  -6  166.72   16.89
  10  -4   6  166.08   16.75
  10   4   7  126.11   12.40
 -10  -4  -7  119.49   12.36
 -10  -4  -7  128.52   12.43
 -10   4  -7  115.94   12.26
 -10   4  -7  128.56   12.43
  10  -4   7  119.86   12.28
  10   4   8   84.89    8.74
 -10  -4  -8   79.15    8.70
 -10  -4  -8   91.26    8.77
 -10   4  -8   82.17    8.62
 -10   4  -8   90.33    8.78
  10  -4   8   86.05    8.64
  10   4   9   14.48    1.83
 -10  -4  -9   14.01    1.79
 -10  -4  -9   19.01    1.91
 -10   4  -9   12.66    1.65
 -10   4  -9   18.60    1.94
  10  -4   9   14.01    1.70
  10   4  10    3.02    0.87
 -10  -4 -10    2.76    0.79
 -10  -4 -10    2.92    0.96
 -10   4 -10    2.40    0.61
  10  -4  10    2.89    0.72
  10   4  11    0.55    0.77
 -10  -4 -11    0.52    0.67
 -10  -4 -11    0.38    0.83
 -10   4 -11    0.38    0.48
 -10   4 -11    0.67    0.86
  10  -4  11   -0.21    0.61
 -10  -4 -12   21.33    2.49
 -10  -4 -12   20.43    2.48
 -10   4 -12   23.32    2.37
 -10   4 -12   20.44    2.49
  10   4  13   14.96    1.77
 -10  -4 -13   13.67    1.68
 -10   4 -13   11.68    1.49
 -10   4 -13   12.11    1.66
  10  -4  13   12.85    1.57
  10   4  14    1.06    0.84
 -10  -4 -14    0.33    0.67
 -10  -4 -14    0.69    0.81
 -10   4 -14    0.66    0.79
  10   4  15    8.90    1.42
 -10  -4 -15    8.50    1.30
  10   4  16   40.32    4.14
 -10  -4 -16   40.52    4.09
 -10  -4 -16   39.37    3.97
 -10   4 -16   29.35    3.87
  10  -4  16   42.99    3.99
  10   5   0   23.15    2.63
 -10  -5   0   22.90    2.63
 -10  -5   0   26.06    2.75
 -10   5   0   24.72    2.76
  10  -5   0   23.05    2.59
  10   5   1   34.34    3.53
 -10  -5  -1   36.89    3.55
 -10  -5  -1   27.63    3.56
 -10   5  -1   30.02    3.60
  10  -5   1   33.65    3.47
 -10  -5  -2   46.29    4.85
 -10  -5  -2   47.00    4.94
 -10   5  -2   45.54    4.94
  10  -5   2   46.13    4.79
 -10  -5  -3  138.03   13.74
 -10   5  -3  128.21   13.72
  10  -5   3  137.13   13.59
 -10  -5  -4    1.84    0.73
 -10  -5  -4    3.41    0.92
  10  -5   4    2.21    0.63
  10   5   5  137.51   13.08
 -10   5  -5  125.65   12.95
 -10   5  -5  119.72   13.11
  10  -5   5  131.76   12.96
  10   5   6    1.70    0.77
 -10  -5  -6    2.07    0.89
 -10   5  -6    2.42    0.55
 -10   5  -6    0.60    0.90
  10  -5   6    2.00    0.60
  10   5   7    0.81    0.73
 -10  -5  -7   -0.16    0.62
 -10  -5  -7    0.46    0.85
 -10   5  -7    0.85    0.47
 -10   5  -7   -0.04    0.93
  10  -5   7    0.79    0.56
  10   5   8   -0.05    0.73
 -10  -5  -8    0.83    0.67
 -10  -5  -8    0.28    0.87
 -10   5  -8    0.44    0.46
 -10   5  -8   -0.41    0.95
  10  -5   8    0.42    0.55
  10   5   9  103.68   10.55
 -10  -5  -9  106.71   10.53
 -10  -5  -9   97.24   10.53
 -10   5  -9  104.48   10.56
  10   5  10   18.30    2.13
 -10  -5 -10   16.74    2.07
 -10  -5 -10   15.31    2.11
 -10   5 -10   18.98    1.93
  10  -5  10   16.92    1.94
  10   5  11   81.91    8.38
 -10  -5 -11   76.10    8.33
 -10  -5 -11   81.52    8.36
 -10   5 -11   86.10    8.22
 -10   5 -11   76.51    8.34
  10  -5  11   80.66    8.23
 -10  -5 -12    1.83    0.74
 -10  -5 -12    1.68    0.87
 -10   5 -12    1.62    0.55
 -10   5 -12    1.25    0.90
  10  -5  12    1.06    0.61
  10   5  13    4.38    1.04
 -10  -5 -13    5.00    1.03
 -10   5 -13    3.71    0.73
 -10   5 -13    4.87    1.05
  10  -5  13    4.30    0.81
  10   5  14    1.04    0.87
 -10  -5 -14    1.59    0.75
 -10  -5 -14    1.00    0.87
 -10   5 -14    0.45    0.84
  10  -5  14    1.21    0.64
  10   5  15   16.30    1.93
 -10  -5 -15   16.05    1.84
 -10   5 -15    9.25    1.70
  10  -5  15   15.33    1.67
  10   6   0    6.59    1.04
 -10  -6   0    5.68    1.02
 -10  -6   0    8.01    1.22
 -10   6   0    5.39    0.89
 -10   6   0    6.78    1.22
  10  -6   0    5.31    0.93
  10   6   1   44.44    4.62
 -10  -6  -1   47.38    4.64
 -10  -6  -1   43.84    4.71
 -10   6  -1   42.77    4.54
 -10   6  -1   43.82    4.73
  10  -6   1   41.76    4.55
 -10  -6  -2   20.13    2.42
 -10  -6  -2   25.21    2.57
 -10   6  -2   24.80    2.59
  10  -6   2   19.57    2.33
 -10  -6  -3    3.61    0.87
 -10  -6  -3    3.32    1.01
 -10   6  -3    3.26    1.02
  10  -6   3    4.03    0.71
  10   6   4    2.97    0.83
 -10  -6  -4    2.93    0.81
 -10  -6  -4    2.62    0.96
 -10   6  -4    2.98    0.60
  10  -6   4    2.89    0.64
  10   6   5   20.05    2.30
 -10   6  -5   19.72    2.14
 -10   6  -5   17.71    2.37
  10  -6   5   20.85    2.16
  10   6   6   13.11    1.77
 -10  -6  -6   12.11    1.72
 -10  -6  -6   15.92    1.89
 -10   6  -6   17.80    1.93
  10   6   7   88.72    8.58
 -10  -6  -7   87.92    8.56
 -10  -6  -7   74.39    8.57
 -10   6  -7   88.82    8.41
 -10   6  -7   71.64    8.58
  10  -6   7   82.22    8.42
  10   6   8    8.53    1.28
 -10  -6  -8    7.75    1.20
 -10  -6  -8    9.52    1.38
 -10   6  -8    7.01    0.97
 -10   6  -8    9.27    1.42
  10  -6   8    7.90    1.02
  10   6   9   16.76    1.91
 -10  -6  -9   14.41    1.84
 -10  -6  -9   17.69    1.97
 -10   6  -9   13.11    1.62
 -10   6  -9   17.62    2.01
  10  -6   9   14.52    1.66
  10   6  10    1.18    0.86
 -10  -6 -10    0.66    0.74
 -10  -6 -10    2.01    0.95
 -10   6 -10    0.57    0.45
  10  -6  10    1.45    0.53
  10   6  11    4.85    1.13
 -10  -6 -11    5.87    1.04
 -10   6 -11    5.94    0.77
 -10   6 -11    2.84    1.11
  10  -6  11    4.99    0.80
  10   6  12    0.63    0.88
 -10  -6 -12    0.64    0.78
 -10  -6 -12    0.77    0.93
 -10   6 -12    1.37    0.49
 -10   6 -12    0.76    0.94
  10  -6  12    0.85    0.55
  10   6  13   35.05    3.68
 -10  -6 -13   32.46    3.60
 -10   6 -13   31.00    3.59
  10   6  14   21.94    2.64
 -10  -6 -14   22.88    2.57
 -10  -6 -14   22.32    2.55
 -10   6 -14   19.61    2.52
  10  -6  14   21.97    2.37
  10   6  15    9.24    1.50
 -10  -6 -15    8.95    1.37
 -10  -6 -15    8.68    1.37
 -10   6 -15    7.26    1.32
  10  -6  15    8.53    1.14
  10   7   0   37.82    3.94
 -10  -7   0   37.32    3.93
 -10  -7   0   40.42    4.07
 -10   7   0   34.76    3.84
 -10   7   0   37.19    4.07
  10  -7   0   35.87    3.87
  10   7   1    0.54    0.70
 -10  -7  -1    0.35    0.67
 -10  -7  -1    1.11    0.90
 -10   7  -1    0.57    0.52
 -10   7  -1    0.60    0.93
  10  -7   1    0.51    0.55
 -10  -7  -2   19.29    2.02
 -10  -7  -2   15.19    2.09
 -10   7  -2   17.14    1.85
 -10   7  -2   15.69    2.13
  10  -7   2   15.89    1.86
 -10  -7  -3    7.88    1.09
 -10  -7  -3    6.10    1.20
 -10   7  -3    5.54    0.85
 -10   7  -3    5.56    1.23
  10  -7   3    6.33    0.89
  10   7   4    6.99    1.10
 -10  -7  -4    6.42    1.07
 -10  -7  -4    7.48    1.25
 -10   7  -4    5.41    0.83
  10  -7   4    6.78    0.88
  10   7   5   20.72    2.23
 -10   7  -5   17.53    2.00
 -10   7  -5   19.69    2.34
  10  -7   5   18.84    2.03
  10   7   6    4.22    0.96
 -10  -7  -6    4.70    0.92
 -10  -7  -6    2.83    1.04
 -10   7  -6    4.43    0.63
 -10   7  -6    3.67    1.15
  10  -7   6    3.12    0.64
  10   7   7   -0.11    0.76
 -10  -7  -7   -0.02    0.70
 -10  -7  -7   -0.01    0.88
 -10   7  -7    0.13    0.39
 -10   7  -7   -0.25    1.02
  10  -7   7    0.12    0.45
  10   7   8    4.72    1.06
 -10  -7  -8    4.79    0.97
 -10  -7  -8    4.92    1.15
 -10   7  -8    4.59    0.68
 -10   7  -8    6.36    1.27
  10  -7   8    4.83    0.72
  10   7   9    1.11    0.86
 -10  -7  -9    0.62    0.74
 -10  -7  -9    1.40    0.97
 -10   7  -9    1.31    0.42
 -10   7  -9    1.00    1.05
  10  -7   9    0.63    0.47
  10   7  10   26.28    2.90
 -10  -7 -10   24.86    2.91
 -10   7 -10   24.30    2.62
  10  -7  10   25.53    2.64
 -10  -7 -11    8.82    1.25
 -10   7 -11    8.55    0.93
 -10   7 -11    4.56    1.33
  10  -7  11    6.55    0.94
  10   7  12   54.90    5.38
 -10  -7 -12   55.79    5.35
 -10  -7 -12   44.65    5.30
 -10   7 -12   43.42    5.29
  10  -7  12   51.29    5.12
  10   7  13    0.42    0.92
 -10  -7 -13    0.43    0.95
 -10   7 -13    0.11    0.94
  10   7  14   -0.24    0.95
 -10  -7 -14    0.03    0.76
 -10  -7 -14    0.58    0.94
 -10   7 -14   -0.09    0.93
  10  -7  14   -0.09    0.51
  10   8   0   14.10    1.77
 -10  -8   0   15.14    1.76
 -10  -8   0   13.70    1.91
 -10   8   0   14.85    1.65
 -10   8   0   14.94    1.99
  10  -8   0   13.46    1.67
  10   8   1    3.98    0.87
 -10  -8  -1    3.55    0.86
 -10  -8  -1    3.36    1.05
 -10   8  -1    3.06    0.66
 -10   8  -1    2.44    1.08
  10  -8   1    3.08    0.69
 -10  -8  -2    2.65    0.80
 -10  -8  -2    1.78    0.98
 -10   8  -2    1.97    0.53
 -10   8  -2    3.14    1.06
 -10  -8  -3    0.68    0.72
 -10  -8  -3    1.16    0.95
 -10   8  -3    1.40    0.46
 -10   8  -3    1.51    1.01
  10  -8   3    1.36    0.53
  10   8   4   10.09    1.42
 -10  -8  -4   10.74    1.42
 -10  -8  -4    9.49    1.54
 -10   8  -4   10.07    1.18
  10  -8   4   10.41    1.21
  10   8   5    2.81    0.84
 -10   8  -5    1.98    0.47
 -10   8  -5    1.21    1.03
  10  -8   5    2.46    0.54
  10   8   6   31.58    3.23
 -10  -8  -6   31.49    3.21
 -10  -8  -6   26.35    3.26
 -10   8  -6   29.23    2.99
 -10   8  -6   23.63    3.29
  10  -8   6   28.90    3.01
  10   8   7   29.71    3.06
 -10  -8  -7   29.06    3.03
 -10  -8  -7   27.30    3.11
 -10   8  -7   25.85    2.79
 -10   8  -7   28.05    3.17
  10  -8   7   26.16    2.81
  10   8   8   12.69    1.56
 -10  -8  -8   13.26    1.53
 -10  -8  -8    9.92    1.60
 -10   8  -8   10.48    1.18
 -10   8  -8    8.16    1.65
  10  -8   8   10.16    1.19
  10   8   9    4.93    1.09
 -10  -8  -9    3.76    0.99
 -10  -8  -9    6.88    1.22
 -10   8  -9    3.69    0.63
 -10   8  -9    8.13    1.36
  10  -8   9    5.09    0.65
  10   8  10    0.15    0.86
 -10  -8 -10    0.27    0.78
 -10  -8 -10    0.76    0.96
 -10   8 -10    0.18    0.35
  10  -8  10   -0.10    0.37
 -10  -8 -11    0.10    0.75
 -10   8 -11   -0.22    1.06
  10  -8  11   -0.02    0.36
  10  -8  11   -0.10    0.35
  10   8  12   -0.13    0.91
 -10  -8 -12   -0.37    0.80
 -10  -8 -12   -0.08    0.97
 -10   8 -12    0.15    1.03
  10  -8  12    0.13    0.38
  10  -8  12    0.32    0.36
  10   8  13    0.64    0.96
 -10  -8 -13    0.00    0.77
 -10  -8 -13    1.23    1.02
 -10   8 -13    0.86    1.04
  10  -8  13    0.10    0.42
  10  -8  13    0.36    0.39
  10   9   0    9.04    1.25
 -10  -9   0    8.86    1.24
 -10  -9   0    8.07    1.43
 -10   9   0    7.66    1.07
 -10   9   0    8.31    1.51
  10  -9   0    7.72    1.11
  10   9   1    0.50    0.73
 -10  -9  -1    0.63    0.73
 -10  -9  -1    0.60    0.94
 -10   9  -1    0.49    0.46
 -10   9  -1    0.11    1.01
  10  -9   1    0.47    0.56
 -10  -9  -2   26.61    2.75
 -10  -9  -2   24.64    2.88
 -10   9  -2   24.39    2.58
 -10   9  -2   23.84    2.92
  10  -9   2   23.13    2.60
  10   9   3   68.44    6.57
 -10  -9  -3   68.96    6.56
 -10  -9  -3   62.18    6.65
 -10   9  -3   61.77    6.38
 -10   9  -3   60.44    6.67
  10  -9   3   59.43    6.41
  10   9   4    0.21    0.76
 -10  -9  -4    0.06    0.71
 -10  -9  -4    0.28    0.94
 -10   9  -4   -0.02    0.39
  10  -9   4   -0.01    0.45
  10   9   5   79.71    7.34
 -10   9  -5   71.06    7.10
 -10   9  -5   60.89    7.38
  10  -9   5   69.34    7.11
  10   9   6    8.98    1.21
 -10  -9  -6    7.48    1.15
 -10  -9  -6    6.90    1.32
 -10   9  -6    5.92    0.77
 -10   9  -6    7.24    1.43
  10  -9   6    5.74    0.77
  10   9   7    0.83    0.82
 -10  -9  -7    0.00    0.75
 -10  -9  -7    0.64    0.98
 -10   9  -7    0.07    0.31
 -10   9  -7    0.26    1.11
  10  -9   7    0.22    0.31
  10   9   8    0.72    0.84
 -10  -9  -8   -0.31    0.77
 -10  -9  -8    0.53    1.01
 -10   9  -8    0.46    0.30
 -10   9  -8    0.07    1.11
  10  -9   8   -0.05    0.29
  10   9   9   46.87    3.83
 -10  -9  -9   47.38    3.80
 -10  -9  -9   34.26    3.79
 -10   9  -9   33.74    3.82
  10  -9   9   29.93    3.40
  10   9  10    4.25    1.01
 -10  -9 -10    4.48    0.97
 -10  -9 -10    4.82    1.18
  10  -9  10    2.23    0.34
  10  -9  10    1.71    0.34
 -10  -9 -11    3.71    0.95
 -10   9 -11    2.43    1.17
  10  -9  11    1.45    0.29
  10  -9  11    1.26    0.28
  10   9  12    4.54    1.08
 -10  -9 -12    4.32    1.14
 -10   9 -12    3.77    1.22
  10  -9  12    1.84    0.33
  10  10   0   39.27    3.79
 -10 -10   0   37.78    3.78
 -10 -10   0   35.40    3.93
 -10  10   0   32.75    3.65
 -10  10   0   32.03    3.95
  10 -10   0   33.55    3.68
  10  10   1    5.17    0.99
 -10 -10  -1    6.37    1.00
 -10 -10  -1    4.29    1.20
 -10  10  -1    4.85    0.72
 -10  10  -1    1.92    1.20
  10 -10   1    3.31    0.77
 -10 -10  -2    3.80    0.87
 -10 -10  -2    1.09    1.05
 -10  10  -2    2.87    0.54
 -10  10  -2    1.13    1.10
  10 -10   2    2.17    0.61
  10  10   3    2.86    0.86
 -10 -10  -3    2.41    0.82
 -10 -10  -3    1.95    1.05
 -10  10  -3    2.44    0.48
 -10  10  -3    0.43    1.08
  10 -10   3    1.09    0.53
  10  10   4    5.77    1.02
 -10 -10  -4    5.90    0.98
 -10 -10  -4    4.73    1.19
 -10  10  -4    3.64    0.60
  10 -10   4    3.73    0.63
  10  10   5    3.46    0.91
 -10  10  -5    2.46    0.43
 -10  10  -5    1.39    1.12
  10 -10   5    1.71    0.43
  10  10   6   -0.01    0.79
 -10 -10  -6    0.32    0.76
 -10 -10  -6    0.27    0.99
 -10  10  -6    0.16    0.27
 -10  10  -6    0.21    1.15
  10 -10   6    0.09    0.26
  10  10   7    0.71    0.84
 -10 -10  -7    0.90    0.78
 -10 -10  -7    0.93    1.03
 -10  10  -7    0.27    0.19
 -10  10  -7    0.29    1.18
  10  10   8    4.37    1.05
 -10 -10  -8    4.74    1.01
 -10 -10  -8    3.60    1.19
 -10  10  -8    2.13    1.26
  10  10   9    1.89    0.93
 -10 -10  -9    1.74    0.89
 -10 -10  -9    3.04    1.15
 -10  10  -9    1.97    1.22
  10  10  10   -0.22    0.89
 -10 -10 -10    0.13    0.80
 -10 -10 -10    0.01    1.05
  10  10  11    6.21    1.24
 -10 -10 -11    7.35    1.21
 -10  10 -11    3.89    1.39
  10  11   0    3.85    0.93
 -10 -11   0    5.36    0.93
 -10 -11   0    1.77    1.13
 -10  11   0    4.45    0.70
 -10  11   0    1.82    1.22
  10 -11   0    2.30    0.73
  10  11   1   47.08    4.62
 -10 -11  -1   47.99    4.61
 -10 -11  -1   39.74    4.74
 -10  11  -1   43.63    4.46
 -10  11  -1   39.28    4.79
  10 -11   1   40.79    4.49
 -10 -11  -2   17.61    1.75
 -10 -11  -2   12.06    1.89
 -10  11  -2   14.93    1.49
 -10  11  -2    9.86    1.93
  10 -11   2   11.05    1.49
  10  11   3   11.17    1.33
 -10 -11  -3   11.31    1.29
 -10 -11  -3    7.99    1.48
 -10  11  -3    7.75    0.96
 -10  11  -3    8.26    1.59
  10 -11   3    6.69    0.98
  10  11   4    8.56    1.11
 -10 -11  -4    5.28    1.25
 -10  11  -4    4.27    0.60
  10 -11   4    3.84    0.59
  10  11   5    0.04    0.78
 -10  11  -5    0.12    0.25
 -10  11  -5   -0.48    1.13
  10  11   6    1.81    0.88
 -10 -11  -6    1.15    0.80
 -10 -11  -6    0.84    1.05
 -10  11  -6    1.63    1.23
  10  11   7    4.83    1.04
 -10 -11  -7    4.33    0.97
 -10 -11  -7    2.31    1.15
 -10  11  -7    1.29    1.28
  10  11   8    5.88    1.11
 -10 -11  -8    4.34    1.04
 -10 -11  -8    3.53    1.22
 -10  11  -8    3.49    1.38
  10  11   9    2.32    0.94
 -10 -11  -9    2.40    0.89
 -10 -11  -9    1.52    1.10
 -10  11  -9    0.83    1.23
  10  12   0    1.97    0.81
 -10 -12   0    2.10    0.79
 -10 -12   0    0.92    1.06
 -10  12   0    1.38    0.55
 -10  12   0    0.76    1.18
  10  12   1    0.23    0.76
 -10 -12  -1    0.48    0.72
 -10 -12  -1    0.46    1.04
 -10  12  -1    0.04    0.45
 -10  12  -1    0.24    1.14
  10 -12   1    0.15    0.53
 -10 -12  -2    1.96    0.78
 -10 -12  -2    1.32    1.10
 -10  12  -2    1.80    0.48
 -10  12  -2    1.16    1.19
  10  12   3    7.90    1.17
 -10 -12  -3   10.40    1.18
 -10 -12  -3    5.16    1.37
 -10  12  -3    5.79    0.72
 -10  12  -3    5.88    0.77
 -10  12  -3    7.18    1.48
  10  12   4    5.83    1.00
 -10 -12  -4    4.07    1.21
 -10  12  -4    2.78    0.38
 -10  12  -4    2.01    0.38
 -10  12  -4    4.04    1.28
  10  12   5    7.39    1.19
 -10 -12  -5    5.86    1.12
 -10  12  -5    5.63    1.46
  10  12   6   10.58    1.42
 -10 -12  -6   10.77    1.38
 -10 -12  -6    6.63    1.54
 -10  12  -6    6.14    1.66
  10  12   7   28.02    2.89
 -10 -12  -7   28.08    2.86
 -10 -12  -7   20.33    2.95
 -10  12  -7   20.80    3.04
  10  13   0    0.24    0.74
 -10 -13   0   -0.20    0.70
 -10 -13   0    0.08    1.07
 -10  13   0   -0.48    0.51
 -10  13   0    0.76    1.18
  10  13   1   15.55    1.85
 -10 -13  -1   16.85    1.83
 -10 -13  -1   13.43    2.06
 -10  13  -1   14.41    1.61
 -10  13  -1   10.19    2.07
 -10 -13  -2    0.44    0.72
 -10 -13  -2    1.26    1.11
 -10  13  -2    0.12    0.29
 -10  13  -2    0.27    0.39
 -10  13  -2    1.04    1.19
  10  13   3   16.34    1.63
 -10 -13  -3   18.66    1.63
 -10 -13  -3   11.50    1.80
 -10  13  -3   11.71    1.21
 -10  13  -3    9.12    1.21
 -10  13  -3    9.38    1.85
  11   0   0   -0.10    0.65
 -11   0   0    0.15    0.59
 -11   0   0    0.14    0.83
  11   0   1    8.65    1.37
 -11   0  -1   14.58    1.59
  11   0   2    0.20    0.64
 -11   0  -2   -0.47    0.82
  11   0   3  225.19   23.61
 -11   0  -3  250.42   23.71
  11   0   4    0.14    0.65
 -11   0  -4    0.21    0.59
  11   0   5   15.41    1.85
 -11   0  -5   15.98    1.82
 -11   0  -5   14.63    1.93
  11   0   6    0.08    0.67
 -11   0  -6    0.12    0.58
 -11   0  -6    0.21    0.83
  11   0   7   36.15    3.75
 -11   0  -7   38.54    3.74
 -11   0  -7   29.38    3.78
  11   0   8   -0.23    0.71
 -11   0  -8   -0.78    0.43
 -11   0  -8    0.33    0.89
  11   0   9  152.23   16.49
 -11   0  -9  176.98   16.55
  11   0  10    0.13    0.73
 -11   0 -10    0.89    0.57
 -11   0 -11   43.25    4.40
 -11   0 -11   39.33    4.41
  11   0  12   -0.31    0.77
 -11   0 -12    0.09    0.62
 -11   0 -12    0.23    0.87
  11   0  13   79.12    8.28
 -11   0 -13   80.28    8.25
 -11   0 -13   80.56    8.23
  11   0  14   -0.16    0.81
 -11   0 -14    0.09    0.63
 -11   0 -14   -0.57    0.84
  11   0  15    1.23    0.87
 -11   0 -15    1.16    0.67
 -11   0 -15    0.15    0.80
  11   1   0   85.19    9.03
 -11  -1   0   82.50    9.01
 -11  -1   0   92.72    9.13
 -11   1   0  100.63    9.17
  11  -1   0   86.64    9.04
  11   1   1    0.54    0.68
 -11  -1  -1    0.60    0.63
 -11  -1  -1    0.50    0.82
 -11   1  -1    0.55    0.85
  11  -1   1    0.67    0.66
  11   1   2   12.22    1.60
 -11  -1  -2   12.89    1.71
 -11   1  -2   14.40    1.75
  11  -1   2   12.57    1.59
  11   1   3    4.60    0.86
 -11  -1  -3    1.77    0.93
 -11   1  -3    5.08    0.80
 -11   1  -3    1.62    0.95
  11  -1   3    4.27    0.85
  11   1   4   16.06    1.93
 -11  -1  -4   15.48    1.89
  11  -1   4   17.14    1.91
  11   1   5    2.92    0.78
 -11  -1  -5    1.63    0.69
 -11  -1  -5    2.57    0.93
 -11   1  -5    2.58    0.62
 -11   1  -5    2.68    0.93
  11  -1   5    2.37    0.74
  11   1   6   15.36    1.82
 -11  -1  -6   15.64    1.79
 -11  -1  -6   12.84    1.86
 -11   1  -6   16.38    1.77
 -11   1  -6   13.02    1.89
  11  -1   6   15.01    1.79
  11   1   7   14.40    1.75
 -11  -1  -7   12.67    1.68
 -11  -1  -7   15.94    1.87
 -11   1  -7   13.95    1.67
 -11   1  -7   14.84    1.86
  11  -1   7   13.51    1.71
  11   1   8   63.10    6.35
 -11  -1  -8   57.10    6.30
 -11  -1  -8   66.46    6.40
 -11   1  -8   57.43    6.28
 -11   1  -8   64.90    6.40
  11  -1   8   59.99    6.31
  11   1   9    6.08    1.04
 -11  -1  -9    5.48    0.96
 -11  -1  -9    5.04    1.15
 -11   1  -9    5.51    0.92
 -11   1  -9    3.71    1.15
  11  -1   9    5.00    0.99
  11   1  10   21.40    2.57
 -11  -1 -10   23.16    2.54
 -11   1 -10   22.54    2.51
  11  -1  10   22.43    2.54
 -11  -1 -11    1.32    0.70
 -11  -1 -11    3.74    0.98
 -11   1 -11    1.24    0.67
 -11   1 -11    2.28    0.96
  11   1  12    6.80    1.14
 -11  -1 -12    5.49    1.03
 -11  -1 -12    6.75    1.18
 -11   1 -12    5.88    0.98
 -11   1 -12    6.34    1.16
  11  -1  12    4.94    1.07
  11   1  13   19.57    2.18
 -11  -1 -13   22.55    2.16
 -11  -1 -13   13.15    2.08
 -11   1 -13   20.65    2.09
 -11   1 -13   12.03    2.06
  11  -1  13   19.60    2.14
  11   1  14    2.05    0.92
 -11  -1 -14    2.11    0.76
 -11  -1 -14    2.98    0.94
 -11   1 -14    2.71    0.75
 -11   1 -14    2.72    0.91
  11  -1  14    3.05    0.91
  11   1  15    1.36    0.93
 -11  -1 -15    3.27    0.73
 -11  -1 -15    2.81    0.91
 -11   1 -15    2.19    0.72
 -11   1 -15    2.05    0.85
  11  -1  15    1.31    0.88
  11   2   0   37.35    3.92
 -11  -2   0   39.59    3.92
 -11  -2   0   33.90    3.98
 -11   2   0   33.87    3.98
  11  -2   0   37.51    3.91
  11   2   1   90.07    8.76
 -11  -2  -1   88.40    8.74
 -11  -2  -1   85.86    8.83
 -11   2  -1   74.77    8.79
  11  -2   1   86.23    8.74
  11   2   2   21.81    2.53
 -11  -2  -2   23.22    2.63
 -11   2  -2   24.92    2.49
 -11   2  -2   19.47    2.59
  11  -2   2   22.58    2.51
  11   2   3    5.54    0.95
 -11  -2  -3    3.68    1.03
 -11   2  -3    4.86    0.82
 -11   2  -3    4.69    1.06
  11  -2   3    4.02    0.85
  11   2   4   21.43    2.34
 -11  -2  -4   19.84    2.30
 -11   2  -4   19.32    2.26
  11  -2   4   21.07    2.30
  11   2   5    1.25    0.71
 -11  -2  -5    0.53    0.63
 -11  -2  -5    0.62    0.85
 -11   2  -5    0.43    0.56
 -11   2  -5    0.50    0.85
  11  -2   5    0.71    0.64
  11   2   6   15.88    1.94
 -11  -2  -6   16.50    1.92
 -11  -2  -6   15.25    1.99
 -11   2  -6   15.42    1.85
 -11   2  -6   17.11    2.06
  11  -2   6   16.66    1.89
  11   2   7   37.95    4.12
 -11  -2  -7   36.70    4.08
 -11  -2  -7   40.72    4.17
 -11   2  -7   38.26    4.05
 -11   2  -7   39.58    4.18
  11  -2   7   38.24    4.07
  11   2   8    5.25    1.02
 -11  -2  -8    5.06    0.93
 -11  -2  -8    5.36    1.12
 -11   2  -8    5.00    0.87
 -11   2  -8    5.51    1.18
  11  -2   8    4.35    0.92
  11   2   9   26.09    2.79
 -11  -2  -9   24.27    2.74
 -11  -2  -9   24.09    2.80
 -11   2  -9   23.82    2.68
 -11   2  -9   23.73    2.82
  11  -2   9   24.99    2.72
  11   2  10  213.70   21.39
 -11  -2 -10  212.89   21.37
 -11   2 -10  217.53   21.31
  11  -2  10  204.71   21.31
 -11  -2 -11   32.06    3.39
 -11  -2 -11   30.49    3.40
 -11   2 -11   30.62    3.32
 -11   2 -11   30.37    3.41
  11   2  12   10.58    1.38
 -11  -2 -12    6.31    1.31
 -11   2 -12   10.44    1.20
 -11   2 -12    6.46    1.32
  11  -2  12    7.29    1.23
  11   2  13    0.48    0.83
 -11  -2 -13    0.47    0.67
 -11  -2 -13    0.53    0.89
 -11   2 -13    1.25    0.88
  11  -2  13    0.84    0.76
  11   2  14    4.93    1.08
 -11  -2 -14    3.84    0.90
 -11  -2 -14    5.30    1.05
 -11   2 -14    2.91    0.78
  11  -2  14    3.85    0.96
  11   2  15    7.60    1.29
 -11  -2 -15    7.12    1.14
 -11  -2 -15    7.33    1.18
 -11   2 -15    5.48    1.01
 -11   2 -15    5.36    1.10
  11  -2  15    6.66    1.17
  11   3   0   11.04    1.46
 -11  -3   0   12.24    1.45
 -11  -3   0   12.42    1.60
 -11   3   0    9.79    1.36
 -11   3   0    9.80    1.57
  11  -3   0   11.40    1.43
  11   3   1    1.87    0.73
 -11  -3  -1    1.29    0.65
 -11  -3  -1    0.18    0.85
 -11   3  -1    1.55    0.62
 -11   3  -1    0.55    0.87
  11  -3   1    1.74    0.69
  11   3   2    4.31    0.92
 -11  -3  -2    4.59    1.05
 -11   3  -2    3.98    0.80
 -11   3  -2    5.96    1.09
  11  -3   2    4.68    0.87
  11   3   3    5.06    0.96
 -11  -3  -3    4.97    1.07
 -11   3  -3    4.95    0.83
 -11   3  -3    3.90    1.06
  11  -3   3    5.16    0.89
  11   3   4    8.91    1.28
 -11  -3  -4    8.63    1.24
 -11   3  -4    8.54    1.16
  11  -3   4    9.20    1.21
  11   3   5    8.73    1.23
 -11  -3  -5    7.74    1.17
 -11  -3  -5    7.99    1.31
 -11   3  -5    7.43    1.08
 -11   3  -5    7.66    1.29
  11  -3   5    8.66    1.15
  11   3   6    8.42    1.29
 -11  -3  -6    8.65    1.25
 -11  -3  -6    7.58    1.36
 -11   3  -6    9.39    1.16
 -11   3  -6    7.93    1.42
  11  -3   6    9.40    1.20
  11   3   7  181.44   17.70
 -11  -3  -7  177.02   17.67
 -11  -3  -7  168.94   17.72
 -11   3  -7  172.70   17.60
 -11   3  -7  169.37   17.71
  11  -3   7  179.69   17.62
  11   3   8    3.55    0.89
 -11  -3  -8    3.04    0.79
 -11  -3  -8    3.00    0.99
 -11   3  -8    2.97    0.70
 -11   3  -8    1.96    1.04
  11  -3   8    2.67    0.77
  11   3   9   19.16    2.29
 -11  -3  -9   16.52    2.22
 -11  -3  -9   25.33    2.39
 -11   3  -9   16.34    2.13
 -11   3  -9   27.29    2.43
  11  -3   9   18.26    2.18
  11   3  10   -0.07    0.81
 -11  -3 -10    1.00    0.71
 -11   3 -10    0.38    0.58
  11  -3  10    0.54    0.70
  11   3  11   77.63    7.82
 -11  -3 -11   77.03    7.79
 -11  -3 -11   69.88    7.76
 -11   3 -11   82.96    7.73
 -11   3 -11   68.00    7.75
  11   3  12   48.27    5.14
 -11  -3 -12   49.35    5.11
 -11   3 -12   42.50    5.07
  11  -3  12   52.61    5.07
  11   3  13    0.94    0.87
 -11  -3 -13    0.47    0.70
 -11  -3 -13    0.97    0.89
 -11   3 -13    0.88    0.89
  11  -3  13    0.52    0.74
  11   3  14    3.26    1.02
 -11  -3 -14    2.03    0.80
 -11  -3 -14    3.08    0.98
 -11   3 -14    3.14    0.70
  11  -3  14    3.39    0.89
  11   3  15    5.36    1.24
 -11  -3 -15    6.20    1.11
 -11  -3 -15    8.67    1.21
 -11   3 -15    4.07    0.92
 -11   3 -15    7.38    1.13
  11  -3  15    5.59    1.08
 -11  -4   0    9.42    1.41
 -11   4   0    8.41    1.18
 -11   4   0    7.98    1.39
  11  -4   0    9.51    1.23
  11   4   1   69.37    6.91
 -11  -4  -1   66.60    6.88
 -11  -4  -1   61.45    6.95
 -11   4  -1   69.00    6.85
 -11   4  -1   58.44    6.94
  11  -4   1   72.17    6.88
  11   4   2    2.98    0.86
 -11  -4  -2    3.05    0.81
 -11  -4  -2    4.43    1.03
 -11   4  -2    3.73    0.75
 -11   4  -2    4.53    1.03
  11  -4   2    3.70    0.79
  11   4   3   82.47    8.27
 -11  -4  -3   81.11    8.33
 -11   4  -3   79.26    8.19
 -11   4  -3   76.80    8.31
  11  -4   3   81.64    8.21
  11   4   4    0.53    0.72
 -11  -4  -4    0.87    0.66
 -11   4  -4    0.74    0.55
  11  -4   4    0.34    0.60
  11   4   5   -0.13    0.71
 -11  -4  -5   -0.05    0.64
 -11  -4  -5    0.03    0.84
 -11   4  -5    0.45    0.53
 -11   4  -5    0.21    0.86
  11  -4   5    0.53    0.62
  11   4   6   16.80    1.95
 -11  -4  -6   17.84    1.92
 -11  -4  -6   12.69    1.96
 -11   4  -6   16.23    1.80
 -11   4  -6   12.32    2.00
  11  -4   6   16.89    1.84
  11   4   7    0.51    0.76
 -11  -4  -7   -0.02    0.66
 -11  -4  -7    0.53    0.92
 -11   4  -7    0.72    0.55
 -11   4  -7    1.27    1.02
  11  -4   7    0.05    0.62
  11   4   8    0.56    0.78
 -11  -4  -8    0.69    0.67
 -11  -4  -8    0.71    0.93
 -11   4  -8    0.44    0.53
 -11   4  -8    0.90    0.99
  11  -4   8    0.63    0.63
  11   4   9   54.67    5.98
 -11  -4  -9   57.55    5.97
 -11  -4  -9   52.01    5.98
 -11   4  -9   62.83    5.89
 -11   4  -9   53.20    5.99
  11  -4   9   58.53    5.90
 -11  -4 -10    2.36    0.82
 -11   4 -10    2.41    0.66
 -11   4 -10    4.26    1.10
  11  -4  10    3.50    0.78
  11   4  11   28.21    3.09
 -11  -4 -11   26.31    3.04
 -11  -4 -11   29.56    3.10
 -11   4 -11   25.72    2.91
 -11   4 -11   27.55    3.08
  11   4  12    0.51    0.83
 -11  -4 -12   -0.05    0.86
 -11   4 -12   -0.01    0.51
 -11   4 -12    0.62    0.91
  11  -4  12    0.47    0.69
  11   4  13    1.42    0.92
 -11  -4 -13    1.87    0.79
 -11  -4 -13    2.94    0.96
 -11   4 -13    1.96    0.96
  11  -4  13    2.47    0.79
  11   4  14   11.77    1.72
 -11  -4 -14   11.53    1.60
 -11  -4 -14   12.20    1.65
  11   4  15   85.44    8.49
 -11  -4 -15   89.10    8.46
 -11   4 -15   97.19    8.36
 -11   4 -15   59.31    8.26
  11  -4  15   88.72    8.34
  11   5   0    4.97    0.98
 -11  -5   0    5.00    0.97
 -11  -5   0    4.85    1.12
 -11   5   0    5.37    0.88
 -11   5   0    4.52    1.14
  11  -5   0    5.82    0.93
  11   5   1   27.79    2.87
 -11  -5  -1   27.89    2.87
 -11  -5  -1   25.05    2.93
 -11   5  -1   25.59    2.77
 -11   5  -1   22.29    2.92
  11  -5   1   24.72    2.79
  11   5   2    0.49    0.71
 -11  -5  -2    0.37    0.69
 -11  -5  -2    0.85    0.86
 -11   5  -2    0.20    0.54
 -11   5  -2    0.95    0.90
  11  -5   2    0.25    0.61
  11   5   3   10.79    1.44
 -11  -5  -3   10.45    1.53
 -11   5  -3   10.07    1.29
 -11   5  -3    9.21    1.54
  11  -5   3   11.09    1.34
 -11  -5  -4   11.89    1.89
 -11   5  -4   15.00    1.70
  11  -5   4   16.59    1.75
 -11  -5  -5    0.62    0.87
 -11   5  -5    0.39    0.52
 -11   5  -5   -0.17    0.90
  11  -5   5    0.59    0.59
  11   5   6   24.53    2.85
 -11  -5  -6   23.43    2.80
 -11  -5  -6   31.08    2.97
 -11   5  -6   22.54    2.69
 -11   5  -6   30.05    2.99
  11  -5   6   25.67    2.73
  11   5   7   39.44    4.20
 -11  -5  -7   41.31    4.19
 -11  -5  -7   35.53    4.22
 -11   5  -7   40.56    4.06
 -11   5  -7   33.33    4.22
  11  -5   7   40.80    4.09
  11   5   8   16.56    2.02
 -11  -5  -8   14.90    1.95
 -11  -5  -8   20.39    2.12
 -11   5  -8   13.90    1.80
 -11   5  -8   20.05    2.17
  11  -5   8   16.75    1.86
  11   5   9    2.86    0.90
 -11  -5  -9    2.56    0.81
 -11  -5  -9    2.22    1.00
 -11   5  -9    2.69    1.09
 -11  -5 -10    0.27    0.71
 -11  -5 -10   -0.36    0.93
 -11   5 -10    0.25    0.50
 -11   5 -10    0.07    1.01
  11  -5  10   -0.17    0.57
  11   5  11    0.69    0.84
 -11  -5 -11    0.54    0.72
 -11  -5 -11    0.73    0.94
 -11   5 -11    1.33    0.55
 -11   5 -11    1.36    0.97
  11   5  12   17.91    2.27
 -11  -5 -12   18.56    2.28
 -11   5 -12   20.61    2.07
 -11   5 -12   16.07    2.25
  11  -5  12   17.87    2.08
  11   5  13    6.50    1.24
 -11  -5 -13    6.97    1.13
 -11  -5 -13    5.49    1.21
 -11   5 -13    4.50    1.19
  11  -5  13    6.22    0.97
  11   5  14   21.71    2.53
 -11  -5 -14   20.78    2.44
 -11  -5 -14   16.24    2.39
 -11   5 -14   23.77    2.29
  11  -5  14   19.22    2.29
  11   6   0   10.60    1.31
 -11  -6   0    9.56    1.29
 -11  -6   0    7.74    1.40
 -11   6   0    8.37    1.16
 -11   6   0    7.32    1.43
  11  -6   0    8.34    1.20
  11   6   1    0.02    0.72
 -11  -6  -1   -0.32    0.72
 -11  -6  -1    0.31    0.87
 -11   6  -1    0.12    0.54
 -11   6  -1   -0.14    0.91
  11  -6   1    0.23    0.61
  11   6   2   16.25    1.89
 -11  -6  -2   16.06    1.88
 -11  -6  -2   13.34    1.95
 -11   6  -2   15.98    1.75
 -11   6  -2   12.64    1.97
  11  -6   2   15.69    1.78
  11   6   3    6.90    1.10
 -11  -6  -3    5.39    1.18
 -11   6  -3    5.65    0.89
 -11   6  -3    6.66    1.26
  11  -6   3    6.06    0.94
  11   6   4   75.62    7.59
 -11  -6  -4   74.16    7.57
 -11  -6  -4   70.38    7.65
 -11   6  -4   71.91    7.46
  11  -6   4   74.33    7.49
  11   6   5   12.99    1.63
 -11  -6  -5   12.71    1.59
 -11  -6  -5   10.62    1.67
 -11   6  -5   11.76    1.41
 -11   6  -5   10.44    1.71
  11  -6   5   12.86    1.46
  11   6   6   11.35    1.48
 -11  -6  -6   11.68    1.43
 -11  -6  -6    7.94    1.50
 -11   6  -6    8.81    1.60
  11   6   7    0.08    0.79
 -11  -6  -7    0.88    0.74
 -11  -6  -7    0.20    0.93
 -11   6  -7    0.03    0.46
 -11   6  -7   -0.17    1.02
  11  -6   7    0.02    0.54
  11   6   8   12.98    1.65
 -11  -6  -8   12.25    1.59
 -11  -6  -8    9.80    1.65
 -11   6  -8   11.32    1.35
 -11   6  -8   11.59    1.75
  11  -6   8   11.79    1.39
  11   6   9   21.65    2.27
 -11  -6  -9   20.59    2.21
 -11  -6  -9   16.78    2.25
 -11   6  -9   17.33    1.98
 -11   6  -9   16.47    2.28
  11  -6   9   17.58    2.01
 -11  -6 -10    7.46    1.18
 -11  -6 -10    6.00    1.30
 -11   6 -10    6.80    0.90
 -11   6 -10    5.82    1.35
  11  -6  10    6.37    0.94
  11   6  11    4.55    1.12
 -11  -6 -11    3.50    0.99
 -11  -6 -11    6.06    1.20
 -11   6 -11    3.91    0.72
 -11   6 -11    6.51    1.27
  11   6  12   -0.09    0.90
 -11  -6 -12    0.13    0.95
 -11   6 -12    0.17    0.48
 -11   6 -12   -0.05    0.97
  11  -6  12    0.05    0.56
  11   6  13    1.32    1.01
 -11  -6 -13    2.22    0.86
 -11  -6 -13    1.50    0.99
 -11   6 -13    1.53    1.01
  11  -6  13    1.63    0.64
 -11  -7   0   21.04    2.10
 -11  -7   0   16.34    2.19
 -11   7   0   17.31    1.96
 -11   7   0   14.00    2.19
  11  -7   0   16.44    1.97
  11   7   1   12.10    1.46
 -11  -7  -1   10.39    1.42
 -11  -7  -1    8.78    1.56
 -11   7  -1   10.68    1.29
 -11   7  -1    7.97    1.57
  11  -7   1    9.98    1.30
  11   7   2    0.65    0.73
 -11  -7  -2    0.12    0.74
 -11  -7  -2   -0.01    0.92
 -11   7  -2    0.18    0.53
 -11   7  -2   -0.05    0.95
  11  -7   2   -0.07    0.59
  11   7   3   11.46    1.46
 -11  -7  -3    8.56    1.54
 -11   7  -3   10.85    1.25
 -11   7  -3    8.07    1.56
  11  -7   3   10.36    1.28
  11   7   4    3.90    0.95
 -11  -7  -4    4.32    0.93
 -11  -7  -4    3.05    1.08
 -11   7  -4    3.60    0.65
 -11   7  -4    2.54    1.09
  11  -7   4    2.76    0.68
  11   7   5    3.75    0.93
 -11  -7  -5    4.48    0.89
 -11  -7  -5    1.83    1.02
 -11   7  -5    2.38    0.58
 -11   7  -5    1.64    1.06
  11  -7   5    2.89    0.65
  11   7   6    0.36    0.81
 -11  -7  -6    0.03    0.70
 -11  -7  -6    0.10    0.96
 -11   7  -6    0.15    0.45
 -11   7  -6    1.23    1.07
  11  -7   6    0.47    0.51
  11   7   7   41.57    4.14
 -11  -7  -7   40.18    4.09
 -11  -7  -7   38.58    4.17
 -11   7  -7   37.08    3.90
 -11   7  -7   33.40    4.17
  11  -7   7   37.27    3.93
  11   7   8    2.69    0.96
 -11  -7  -8    2.66    0.87
 -11  -7  -8    3.40    1.10
 -11   7  -8    2.80    0.56
 -11   7  -8    2.92    1.19
  11  -7   8    2.41    0.60
  11   7   9    0.93    0.90
 -11  -7  -9    0.63    0.75
 -11  -7  -9    0.67    1.00
 -11   7  -9    0.46    0.44
 -11   7  -9    0.71    1.11
  11  -7   9    0.26    0.51
 -11  -7 -10    2.95    0.90
 -11  -7 -10    2.51    1.08
 -11   7 -10    2.80    0.57
  11  -7  10    2.75    0.62
  11   7  11   20.03    2.45
 -11  -7 -11   20.71    2.41
 -11  -7 -11   16.37    2.42
 -11   7 -11   22.30    2.15
 -11   7 -11   15.76    2.43
  11   7  12    3.25    1.10
 -11  -7 -12    3.60    0.95
 -11  -7 -12    3.67    1.14
 -11   7 -12    3.18    0.61
 -11   7 -12    3.10    1.18
  11  -7  12    3.84    0.68
  11   7  13    7.54    1.33
 -11  -7 -13    6.99    1.15
 -11  -7 -13    4.67    1.25
 -11   7 -13    3.65    1.23
  11  -7  13    5.21    0.83
 -11  -8   0   74.56    6.59
 -11  -8   0   57.89    6.64
 -11   8   0   68.98    6.49
 -11   8   0   48.84    6.62
  11  -8   0   60.86    6.49
  11   8   1    7.00    1.18
 -11  -8  -1    7.74    1.19
 -11  -8  -1    6.67    1.36
 -11   8  -1    6.42    0.99
 -11   8  -1    6.66    1.40
  11  -8   1    7.98    1.05
  11   8   2    2.79    0.86
 -11  -8  -2    2.47    0.87
 -11  -8  -2    2.41    1.05
 -11   8  -2    2.65    0.60
 -11   8  -2    1.89    1.10
  11   8   3    1.42    0.80
 -11  -8  -3    1.21    1.00
 -11   8  -3    0.95    0.50
 -11   8  -3    1.80    1.06
  11  -8   3    1.09    0.58
  11   8   4    2.62    0.88
 -11  -8  -4    2.95    0.87
 -11  -8  -4    1.44    1.01
 -11   8  -4    2.05    0.54
 -11   8  -4    0.68    1.04
  11  -8   4    2.28    0.60
  11   8   5   15.37    1.82
 -11  -8  -5   16.38    1.81
 -11  -8  -5   15.25    1.95
 -11   8  -5   11.76    1.52
 -11   8  -5   13.71    1.96
  11  -8   5   14.29    1.57
  11   8   6    3.26    0.95
 -11  -8  -6    3.69    0.93
 -11  -8  -6    3.60    1.13
 -11   8  -6    2.56    0.57
 -11   8  -6    5.56    1.29
  11  -8   6    2.64    0.62
  11   8   7    0.67    0.85
 -11  -8  -7    0.71    0.81
 -11  -8  -7    0.67    0.99
 -11   8  -7    0.71    0.43
 -11   8  -7   -0.13    1.11
  11  -8   7    0.54    0.47
  11   8   8    0.22    0.86
 -11  -8  -8    0.13    0.78
 -11  -8  -8   -0.61    1.04
 -11   8  -8    0.46    0.41
 -11   8  -8    0.28    1.11
  11  -8   8    0.33    0.45
  11   8   9   23.11    2.46
 -11  -8  -9   23.89    2.42
 -11  -8  -9   18.92    2.47
 -11   8  -9   20.35    2.11
 -11   8  -9   16.30    2.48
  11  -8   9   18.45    2.12
  11   8  10    6.50    1.22
 -11  -8 -10    5.90    1.12
 -11  -8 -10    6.32    1.31
 -11   8 -10    4.78    0.72
 -11   8 -10    5.06    1.36
  11  -8  10    5.18    0.75
  11   8  11    4.97    1.14
 -11  -8 -11    4.09    1.23
 -11   8 -11    4.03    0.62
 -11   8 -11    4.80    1.31
  11  -8  11    3.98    0.65
  11   8  12    8.35    1.39
 -11  -8 -12    8.51    1.28
 -11  -8 -12    5.22    1.36
 -11   8 -12    4.77    1.40
 -11  -9   0   69.67    6.86
 -11  -9   0   65.12    6.99
 -11   9   0   61.30    7.00
  11   9   1    0.58    0.78
 -11  -9  -1   -0.05    0.76
 -11  -9  -1    0.23    1.01
 -11   9  -1    0.47    0.51
 -11   9  -1    0.48    1.09
  11  -9   1    0.17    0.61
  11   9   2   26.23    2.56
 -11  -9  -2   20.42    2.64
 -11   9  -2   22.08    2.33
 -11   9  -2   16.70    2.65
  11  -9   2   21.28    2.37
  11   9   3    3.11    0.90
 -11  -9  -3    1.25    1.04
 -11   9  -3    2.41    0.55
 -11   9  -3    0.02    1.10
  11  -9   3    2.38    0.61
  11   9   4    2.21    0.87
 -11  -9  -4    1.47    0.82
 -11  -9  -4    1.40    1.04
 -11   9  -4    1.75    0.50
 -11   9  -4    1.77    1.14
  11  -9   4    1.46    0.54
  11   9   5   19.54    2.05
 -11  -9  -5   19.59    2.01
 -11   9  -5   14.64    1.70
 -11   9  -5   12.86    2.12
  11  -9   5   15.26    1.73
  11   9   6   24.68    2.61
 -11  -9  -6   25.73    2.59
 -11  -9  -6   22.61    2.70
 -11   9  -6   20.91    2.31
 -11   9  -6   21.37    2.75
  11  -9   6   20.89    2.32
  11   9   7    5.57    1.10
 -11  -9  -7    6.81    1.11
 -11  -9  -7    4.29    1.22
 -11   9  -7    5.00    0.65
 -11   9  -7    2.47    1.30
  11  -9   7    3.69    0.65
  11   9   8   33.58    3.04
 -11  -9  -8   29.17    2.97
 -11  -9  -8   29.49    3.09
 -11   9  -8   22.90    2.65
 -11   9  -8   28.17    3.14
  11  -9   8   24.86    2.67
 -11  -9  -9    1.77    0.90
 -11  -9  -9   -0.54    1.06
 -11   9  -9    1.29    0.38
 -11   9  -9    0.38    1.19
  11  -9   9    0.81    0.36
  11   9  10    1.32    0.95
 -11  -9 -10    1.10    0.88
 -11  -9 -10    0.73    1.04
 -11   9 -10    0.69    1.19
  11  -9  10    0.72    0.34
  11   9  11    5.97    1.19
 -11  -9 -11    5.09    1.27
 -11   9 -11    3.75    1.31
  11  -9  11    4.52    0.55
  11  -9  11    3.42    0.55
 -11 -10   0    4.77    1.00
 -11 -10   0    5.14    1.28
 -11  10   0    3.67    0.76
 -11  10   0    4.61    1.36
  11  10   1   20.89    2.12
 -11 -10  -1   20.80    2.11
 -11 -10  -1   13.17    2.21
 -11  10  -1   18.30    1.90
 -11  10  -1   12.83    2.26
  11 -10   1   14.71    1.92
  11  10   2   -0.09    0.79
 -11 -10  -2    0.28    1.05
 -11  10  -2    0.43    0.47
 -11  10  -2    0.55    1.12
  11 -10   2    0.24    0.57
  11  10   3   99.61    9.20
 -11 -10  -3   80.95    9.26
 -11  10  -3   91.77    9.00
 -11  10  -3   77.71    9.29
  11 -10   3   88.72    9.02
  11  10   4   -0.31    0.81
 -11 -10  -4    0.73    0.79
 -11 -10  -4   -0.69    1.04
 -11  10  -4   -0.13    0.42
 -11  10  -4    0.02    1.07
  11 -10   4   -0.13    0.48
  11  10   5   12.32    1.49
 -11 -10  -5   12.54    1.45
 -11  10  -5    8.30    1.06
 -11  10  -5    9.14    1.64
  11 -10   5    8.49    1.07
  11  10   6    1.73    0.90
 -11 -10  -6    2.23    0.90
 -11 -10  -6    2.26    1.11
 -11  10  -6    1.70    0.42
 -11  10  -6    3.35    1.29
  11 -10   6    1.53    0.42
  11  10   7    0.22    0.86
 -11 -10  -7   -0.05    0.81
 -11 -10  -7   -0.46    1.06
 -11  10  -7   -0.10    0.30
 -11  10  -7   -0.07    1.19
  11 -10   7   -0.05    0.30
  11  10   8   -0.49    0.88
 -11 -10  -8    0.30    0.82
 -11 -10  -8    0.42    1.08
 -11  10  -8    0.07    0.25
 -11  10  -8    0.18    1.20
  11 -10   8    0.09    0.22
 -11 -10  -9    8.99    1.39
 -11 -10  -9    7.63    1.54
 -11  10  -9    8.60    1.66
 -11 -11   0    0.55    0.75
 -11 -11   0    0.40    1.06
 -11  11   0    0.12    0.52
 -11  11   0   -0.74    1.15
  11 -11   0    0.06    0.63
  11  11   1    6.14    1.10
 -11 -11  -1    7.29    1.11
 -11 -11  -1    5.57    1.34
 -11  11  -1    5.49    0.83
 -11  11  -1    3.29    1.34
  11  11   2   -0.60    0.79
 -11 -11  -2   -0.12    1.02
 -11  11  -2    0.14    0.45
 -11  11  -2    0.15    1.11
  11 -11   2   -0.24    0.54
  11  11   3   -0.07    0.79
 -11 -11  -3    0.30    0.77
 -11 -11  -3   -0.35    1.03
 -11  11  -3    0.18    0.43
  11 -11   3    0.07    0.48
  11  11   4    1.70    0.86
 -11 -11  -4    0.95    0.81
 -11 -11  -4    0.91    1.06
 -11  11  -4    0.70    0.41
 -11  11  -4    1.17    1.16
  11 -11   4    0.97    0.42
  11  11   5    4.21    1.01
 -11 -11  -5    4.83    0.97
 -11  11  -5    2.53    0.46
 -11  11  -5    2.49    1.25
  11 -11   5    2.13    0.45
  11  11   6   -0.27    0.83
 -11 -11  -6   -0.49    0.80
 -11 -11  -6   -0.43    1.04
 -11  11  -6    0.09    0.24
 -11  11  -6   -0.14    1.21
  11  11   7   23.31    2.53
 -11 -11  -7   22.78    2.49
 -11 -11  -7   18.85    2.61
 -11  11  -7   16.96    2.66
  11  12   0    1.28    0.82
 -11 -12   0    1.69    0.79
 -11 -12   0    0.87    1.10
 -11  12   0   -0.18    1.19
  11 -12   0    0.50    0.67
  11  12   1    1.36    0.81
 -11 -12  -1    0.33    0.74
 -11 -12  -1    0.65    1.08
 -11  12  -1    0.74    0.49
 -11  12  -1   -0.39    1.19
  11 -12   1    0.22    0.60
  11  12   2    1.91    0.86
 -11 -12  -2    1.10    1.11
 -11  12  -2    2.37    0.53
 -11  12  -2    0.91    1.21
  11  12   3    0.03    0.80
 -11 -12  -3   -0.30    0.77
 -11 -12  -3   -0.31    1.05
 -11  12  -3   -0.20    0.40
  11 -12   3    0.08    0.41
  11  12   4    1.00    0.84
 -11 -12  -4    0.55    0.78
 -11 -12  -4    0.19    1.06
 -11  12  -4    0.05    0.33
 -11  12  -4    0.58    1.19
  12   0   0   19.36    2.34
 -12   0   0   20.17    2.33
 -12   0   0   22.35    2.49
  12   0   1    0.53    0.72
 -12   0  -1   -0.13    0.64
 -12   0  -1   -0.37    0.89
  12   0   2    1.96    0.79
 -12   0  -2    2.24    0.72
 -12   0  -2    1.19    0.94
  12   0   3   -0.02    0.72
 -12   0  -3    1.15    0.65
 -12   0  -3    0.10    0.88
  12   0   4   25.10    2.89
 -12   0  -4   26.86    2.88
  12   0   5   -0.22    0.72
 -12   0  -5   -0.07    0.61
 -12   0  -5   -0.61    0.90
  12   0   6   33.54    3.61
 -12   0  -6   33.43    3.59
 -12   0  -6   32.61    3.69
  12   0   7    0.25    0.74
 -12   0  -7    0.25    0.64
 -12   0  -7    0.33    0.99
  12   0   8   51.61    5.37
 -12   0  -8   57.84    5.36
 -12   0  -8   42.86    5.38
 -12   0  -9   -0.32    0.36
 -12   0  -9   -0.28    0.99
  12   0  10   13.05    1.74
 -12   0 -10   12.99    1.62
 -12   0 -10   13.86    1.85
  12   0  11    0.15    0.80
 -12   0 -11    0.17    0.95
  12   0  12   52.75    5.23
 -12   0 -12   54.36    5.21
 -12   0 -12   41.20    5.16
  12   0  13   -0.09    0.85
 -12   0 -13   -0.11    0.65
 -12   0 -13   -0.14    0.93
  12   0  14    1.97    0.92
 -12   0 -14    1.09    0.72
  12   1   0   12.54    1.60
 -12  -1   0   13.85    1.59
 -12  -1   0   10.93    1.70
 -12   1   0   12.14    1.55
 -12   1   0   10.72    1.71
  12  -1   0   12.92    1.61
  12   1   1   46.49    4.87
 -12  -1  -1   48.27    4.86
 -12  -1  -1   44.27    4.94
 -12   1  -1   45.38    4.84
 -12   1  -1   44.85    4.94
  12  -1   1   46.52    4.87
  12   1   2   25.77    2.89
 -12  -1  -2   23.61    2.85
 -12  -1  -2   31.56    3.03
 -12   1  -2   24.00    2.84
 -12   1  -2   28.95    3.02
  12  -1   2   25.18    2.87
  12   1   3   32.69    3.51
 -12  -1  -3   31.12    3.48
 -12  -1  -3   33.32    3.60
 -12   1  -3   29.70    3.45
 -12   1  -3   37.12    3.63
  12  -1   3   31.68    3.49
  12   1   4   12.89    1.67
 -12  -1  -4   11.93    1.62
 -12   1  -4   14.72    1.59
 -12   1  -4   11.64    1.76
  12  -1   4   13.53    1.66
  12   1   5   14.27    1.75
 -12  -1  -5   13.10    1.69
 -12  -1  -5   14.06    1.83
 -12   1  -5   13.03    1.83
  12  -1   5   13.74    1.71
  12   1   6    7.04    1.14
 -12  -1  -6    7.22    1.09
 -12  -1  -6    6.07    1.27
 -12   1  -6    6.10    1.04
 -12   1  -6    4.92    1.27
  12  -1   6    6.90    1.12
  12   1   7   10.34    1.47
 -12  -1  -7   10.71    1.43
 -12  -1  -7    8.51    1.57
 -12   1  -7   11.58    1.41
 -12   1  -7    8.68    1.59
  12  -1   7   11.96    1.47
  12   1   8    9.58    1.40
 -12  -1  -8    9.47    1.33
 -12  -1  -8    9.99    1.54
 -12   1  -8    9.07    1.29
 -12   1  -8    9.39    1.54
  12  -1   8    9.41    1.36
 -12  -1  -9    9.07    1.39
 -12  -1  -9   13.92    1.65
 -12   1  -9    8.91    1.35
 -12   1  -9   12.03    1.64
  12   1  10    1.01    0.82
 -12  -1 -10    0.85    0.70
 -12  -1 -10    0.53    1.00
 -12   1 -10    1.04    0.67
 -12   1 -10   -0.36    1.03
  12  -1  10    1.13    0.81
  12   1  11    0.28    0.82
 -12  -1 -11    0.30    0.96
 -12   1 -11    0.24    0.97
  12  -1  11    0.07    0.80
  12   1  12   10.66    1.54
 -12  -1 -12    9.41    1.43
 -12  -1 -12   12.43    1.59
 -12   1 -12    8.81    1.38
 -12   1 -12   13.04    1.59
  12  -1  12    9.13    1.47
  12   1  13    5.44    1.12
 -12  -1 -13    4.84    0.94
 -12  -1 -13    2.63    1.08
 -12   1 -13    4.55    0.91
 -12   1 -13    3.33    1.08
  12  -1  13    4.68    1.05
  12   1  14    0.91    0.91
 -12  -1 -14    1.02    0.71
 -12   1 -14    1.39    0.69
  12  -1  14    1.25    0.89
  12   2   0   -0.55    0.73
 -12  -2   0   -0.23    0.67
 -12  -2   0    0.66    0.89
 -12   2   0    0.39    0.63
 -12   2   0    0.33    0.91
  12  -2   0    0.14    0.70
  12   2   1   40.91    4.15
 -12  -2  -1   38.83    4.12
 -12  -2  -1   38.73    4.21
 -12   2  -1   36.95    4.09
 -12   2  -1   37.67    4.21
  12  -2   1   38.47    4.12
  12   2   2    1.74    0.78
 -12  -2  -2    1.33    0.70
 -12  -2  -2    0.82    0.91
 -12   2  -2    0.20    0.43
 -12   2  -2    1.70    0.96
  12  -2   2    1.59    0.74
  12   2   3   11.76    1.47
 -12  -2  -3   11.37    1.43
 -12  -2  -3    8.12    1.51
 -12   2  -3   11.42    1.38
 -12   2  -3    9.42    1.56
  12  -2   3   10.20    1.41
  12   2   4    0.81    0.77
 -12  -2  -4    0.72    0.66
 -12   2  -4    1.02    0.63
 -12   2  -4    0.00    0.90
  12  -2   4    0.52    0.71
  12   2   5    6.08    1.07
 -12  -2  -5    5.91    1.00
 -12  -2  -5    5.23    1.17
 -12   2  -5    4.90    0.92
 -12   2  -5    6.36    1.21
  12  -2   5    5.47    1.00
  12   2   6   -0.25    0.76
 -12  -2  -6    0.04    0.66
 -12  -2  -6    0.78    0.95
 -12   2  -6    0.37    0.63
 -12   2  -6   -0.16    1.01
  12  -2   6    0.22    0.70
  12   2   7   47.97    5.27
 -12  -2  -7   48.36    5.24
 -12  -2  -7   50.76    5.33
 -12   2  -7   49.10    5.20
 -12   2  -7   51.05    5.34
  12  -2   7   52.46    5.25
  12   2   8    0.20    0.81
 -12  -2  -8    0.46    0.69
 -12  -2  -8   -0.13    0.98
 -12   2  -8    0.04    1.03
  12  -2   8   -0.17    0.74
 -12  -2  -9    1.56    0.75
 -12  -2  -9   -0.26    1.01
 -12   2  -9    1.25    0.65
 -12   2  -9    0.32    1.03
  12   2  10    3.01    0.96
 -12  -2 -10    2.84    0.85
 -12   2 -10    3.73    0.78
 -12   2 -10    2.91    1.12
  12  -2  10    3.15    0.89
  12   2  11    2.67    0.95
 -12  -2 -11    2.74    1.05
 -12   2 -11    3.07    1.06
  12  -2  11    2.20    0.87
  12   2  12    0.49    0.88
 -12  -2 -12    0.61    0.73
 -12  -2 -12    1.10    0.97
 -12   2 -12    0.87    0.65
 -12   2 -12    0.15    0.95
  12  -2  12    0.60    0.81
  12   2  13   26.67    2.86
 -12  -2 -13   23.95    2.76
 -12  -2 -13   24.94    2.80
 -12   2 -13   23.65    2.69
 -12   2 -13   22.30    2.76
  12  -2  13   23.33    2.74
  12   2  14    4.75    1.17
 -12  -2 -14    5.61    1.05
 -12  -2 -14    3.52    1.13
 -12   2 -14    5.01    0.92
  12  -2  14    5.14    1.08
  12   3   0    6.17    1.11
 -12  -3   0    6.20    1.07
 -12  -3   0    7.23    1.28
 -12   3   0    6.26    1.27
  12  -3   0    7.27    1.11
  12   3   1    6.56    1.14
 -12  -3  -1    6.61    1.09
 -12  -3  -1    5.65    1.25
 -12   3  -1    7.79    1.06
 -12   3  -1    5.12    1.24
  12  -3   1    7.31    1.10
  12   3   2  102.69   10.44
 -12  -3  -2  102.44   10.43
 -12  -3  -2   99.51   10.50
 -12   3  -2  103.18   10.39
 -12   3  -2  101.60   10.51
  12  -3   2  101.75   10.41
  12   3   3   20.99    2.46
 -12  -3  -3   21.24    2.43
 -12  -3  -3   21.29    2.54
 -12   3  -3   21.83    2.38
 -12   3  -3   20.14    2.53
  12  -3   3   21.15    2.40
  12   3   4   51.76    5.22
 -12  -3  -4   49.40    5.19
 -12   3  -4   46.62    5.12
 -12   3  -4   50.36    5.28
  12  -3   4   49.26    5.16
  12   3   5    1.73    0.84
 -12  -3  -5    2.20    0.78
 -12  -3  -5    1.97    1.00
 -12   3  -5    2.56    0.69
 -12   3  -5    1.65    0.97
  12  -3   5    1.48    0.74
  12   3   6   39.31    3.90
 -12  -3  -6   38.66    3.87
 -12  -3  -6   30.89    3.89
 -12   3  -6   36.62    3.79
 -12   3  -6   29.72    3.91
  12  -3   6   37.15    3.82
  12   3   7    6.37    1.11
 -12  -3  -7    5.70    1.01
 -12  -3  -7    4.09    1.18
 -12   3  -7    5.07    0.91
 -12   3  -7    4.69    1.24
  12  -3   7    5.82    0.99
  12   3   8   34.64    3.75
 -12  -3  -8   33.11    3.70
 -12  -3  -8   34.55    3.78
 -12   3  -8   33.83    3.63
 -12   3  -8   36.01    3.81
  12  -3   8   33.08    3.65
 -12  -3  -9   94.94    9.94
 -12  -3  -9   95.47    9.99
 -12   3  -9  101.89    9.88
 -12   3  -9   93.47    9.99
  12   3  10    0.36    0.84
 -12  -3 -10    0.18    0.71
 -12   3 -10    0.61    0.61
 -12   3 -10    2.87    1.09
  12  -3  10    0.86    0.74
  12   3  11   13.68    1.83
 -12  -3 -11   14.01    1.86
 -12   3 -11   12.60    1.83
  12  -3  11   13.60    1.71
  12   3  12   38.41    4.15
 -12  -3 -12   37.40    4.10
 -12  -3 -12   40.03    4.13
 -12   3 -12   36.18    3.99
 -12   3 -12   36.75    4.10
  12  -3  12   37.78    4.04
  12   3  13    0.14    0.91
 -12  -3 -13    0.56    0.74
 -12  -3 -13   -0.28    0.97
 -12   3 -13    0.91    0.61
 -12   3 -13    0.36    0.94
  12  -3  13    0.21    0.79
  12   3  14   20.52    2.65
 -12  -3 -14   22.56    2.59
 -12  -3 -14   22.48    2.61
 -12   3 -14   21.34    2.46
  12  -3  14   22.49    2.54
  12   4   0    5.42    1.04
 -12  -4   0    4.34    0.96
 -12  -4   0    5.70    1.19
 -12   4   0    4.79    0.90
 -12   4   0    6.71    1.21
  12  -4   0    4.71    0.97
 -12  -4  -1    1.07    0.93
 -12   4  -1    1.65    0.67
 -12   4  -1    1.30    0.94
  12  -4   1    1.42    0.73
  12   4   2   -0.29    0.75
 -12  -4  -2    0.09    0.67
 -12  -4  -2    0.45    0.91
 -12   4  -2    0.36    0.61
 -12   4  -2    0.31    0.89
  12  -4   2    0.04    0.66
  12   4   3    5.43    1.02
 -12  -4  -3    4.83    0.93
 -12  -4  -3    3.21    1.09
 -12   4  -3    4.67    0.83
 -12   4  -3    3.00    1.09
  12  -4   3    4.14    0.89
  12   4   4   38.11    4.09
 -12  -4  -4   39.21    4.08
 -12   4  -4   38.15    4.00
 -12   4  -4   32.68    4.12
  12  -4   4   40.15    4.03
  12   4   5   14.33    1.79
 -12  -4  -5   14.67    1.76
 -12  -4  -5   13.77    1.87
 -12   4  -5   12.62    1.64
 -12   4  -5   12.31    1.86
  12  -4   5   15.16    1.70
  12   4   6   58.33    5.90
 -12  -4  -6   55.02    5.86
 -12  -4  -6   57.47    5.94
 -12   4  -6   53.37    5.77
 -12   4  -6   54.97    5.95
  12  -4   6   57.57    5.82
  12   4   7    6.13    1.12
 -12  -4  -7    4.32    0.99
 -12  -4  -7    7.93    1.29
 -12   4  -7    4.38    0.87
 -12   4  -7    6.28    1.31
  12  -4   7    5.40    0.97
  12   4   8   11.91    1.62
 -12  -4  -8   12.50    1.57
 -12  -4  -8   11.75    1.71
 -12   4  -8   11.24    1.42
 -12   4  -8   10.05    1.73
  12  -4   8   11.29    1.48
 -12  -4  -9    0.01    0.71
 -12  -4  -9    0.64    0.99
 -12   4  -9    0.37    0.58
 -12   4  -9    1.10    1.08
  12   4  10    0.77    0.88
 -12  -4 -10    0.10    0.73
 -12   4 -10    0.32    0.57
 -12   4 -10   -0.69    1.07
  12  -4  10    0.39    0.71
  12   4  11   16.72    2.20
 -12  -4 -11   17.71    2.16
 -12  -4 -11   17.64    2.23
 -12   4 -11   16.43    2.23
  12  -4  11   18.88    2.08
  12   4  12   16.10    2.08
 -12  -4 -12   16.99    2.03
 -12  -4 -12   15.40    2.07
 -12   4 -12   15.68    1.85
 -12   4 -12   14.16    2.05
  12  -4  12   16.84    1.92
  12   4  13    9.03    1.49
 -12  -4 -13    9.79    1.38
 -12  -4 -13    8.98    1.46
 -12   4 -13    7.30    1.43
  12   5   0   10.15    1.44
 -12  -5   0    9.85    1.57
 -12   5   0   10.82    1.33
 -12   5   0    8.69    1.56
  12  -5   0    9.59    1.36
  12   5   1    1.23    0.80
 -12  -5  -1    0.97    0.74
 -12  -5  -1    0.62    0.94
 -12   5  -1    1.20    0.64
 -12   5  -1    1.00    0.97
  12  -5   1    1.27    0.71
  12   5   2    5.79    1.06
 -12  -5  -2    5.60    1.01
 -12  -5  -2    4.50    1.17
 -12   5  -2    5.46    0.89
 -12   5  -2    3.73    1.16
  12  -5   2    4.65    0.93
  12   5   3    7.33    1.15
 -12  -5  -3    7.45    1.12
 -12  -5  -3    5.00    1.23
 -12   5  -3    6.10    0.96
 -12   5  -3    3.70    1.22
  12  -5   3    6.22    1.01
  12   5   4    7.77    1.23
 -12  -5  -4    7.87    1.20
 -12   5  -4    6.16    1.02
 -12   5  -4    7.57    1.36
  12  -5   4    7.53    1.10
  12   5   5    2.28    0.90
 -12  -5  -5    2.90    1.05
 -12   5  -5    2.49    0.67
 -12   5  -5    1.98    1.04
  12  -5   5    2.85    0.76
 -12  -5  -6    7.41    1.43
 -12   5  -6    9.00    1.16
 -12   5  -6    8.05    1.53
  12  -5   6    9.12    1.20
 -12  -5  -7    6.90    1.19
 -12  -5  -7    5.50    1.32
 -12   5  -7    7.65    1.04
 -12   5  -7    7.95    1.46
  12  -5   7    8.21    1.10
  12   5   8   18.23    2.18
 -12  -5  -8   17.18    2.11
 -12  -5  -8   17.54    2.22
 -12   5  -8   18.07    1.97
 -12   5  -8   15.18    2.25
  12   5   9   69.60    7.08
 -12  -5  -9   73.52    7.06
 -12  -5  -9   65.35    7.06
 -12   5  -9   60.98    7.07
  12   5  10   -0.61    0.89
 -12   5 -10    0.00    0.53
 -12   5 -10   -0.71    1.10
  12  -5  10    0.74    0.63
  12   5  11    0.41    0.88
 -12  -5 -11    0.09    0.72
 -12  -5 -11    0.02    1.02
 -12   5 -11    0.84    1.06
  12  -5  11   -0.12    0.62
  12   5  12    3.12    1.03
 -12  -5 -12    1.99    0.84
 -12  -5 -12    1.59    1.06
 -12   5 -12    2.08    0.62
 -12   5 -12    1.24    1.07
  12  -5  12    2.01    0.73
  12   5  13    3.26    1.07
 -12  -5 -13    3.99    0.94
 -12  -5 -13    4.53    1.15
 -12   5 -13    2.50    0.71
 -12   5 -13    3.45    1.13
  12  -5  13    2.97    0.81
  12   6   0    7.52    1.21
 -12  -6   0    7.41    1.36
 -12   6   0    6.47    1.07
 -12   6   0    8.11    1.43
  12  -6   0    7.24    1.13
  12   6   1    4.27    0.97
 -12  -6  -1    5.15    0.97
 -12  -6  -1    2.23    1.04
 -12   6  -1    4.03    0.79
 -12   6  -1    1.65    1.07
  12  -6   1    3.13    0.83
  12   6   2   -0.12    0.77
 -12  -6  -2    0.26    0.72
 -12  -6  -2   -0.03    0.91
 -12   6  -2    0.02    0.58
 -12   6  -2    0.36    0.97
  12  -6   2   -0.40    0.67
  12   6   3   14.46    1.77
 -12  -6  -3   13.79    1.75
 -12  -6  -3   12.35    1.85
 -12   6  -3   13.85    1.61
  12  -6   3   12.78    1.64
  12   6   4   34.23    3.47
 -12  -6  -4   34.10    3.45
 -12   6  -4   32.21    3.32
 -12   6  -4   23.41    3.47
  12  -6   4   30.83    3.33
  12   6   5    5.09    1.06
 -12  -6  -5    5.79    1.01
 -12  -6  -5    2.88    1.13
 -12   6  -5    4.23    0.80
 -12   6  -5    3.84    1.20
  12  -6   5    5.29    0.87
  12   6   6    0.05    0.83
 -12  -6  -6   -0.24    0.73
 -12  -6  -6   -0.13    0.96
 -12   6  -6   -0.42    1.07
  12   6   7   13.13    1.70
 -12  -6  -7   13.15    1.64
 -12  -6  -7   10.36    1.73
 -12   6  -7   12.95    1.44
 -12   6  -7    9.69    1.78
  12  -6   7   11.56    1.46
 -12  -6  -8    5.42    1.06
 -12  -6  -8    6.56    1.28
 -12   6  -8    4.14    0.81
 -12   6  -8    7.84    1.39
  12   6   9   -0.07    0.89
 -12  -6  -9    0.22    0.75
 -12  -6  -9    0.07    1.01
 -12   6  -9    0.06    0.50
  12   6  10   -0.27    0.90
 -12   6 -10    0.03    0.50
 -12   6 -10   -0.15    1.07
  12  -6  10   -0.20    0.59
  12   6  11   -0.54    0.94
 -12  -6 -11    0.01    0.76
 -12  -6 -11    0.36    1.00
 -12   6 -11    0.52    1.10
  12  -6  11    0.40    0.60
  12   6  12    4.94    1.20
 -12  -6 -12    4.51    1.02
 -12  -6 -12    3.78    1.21
 -12   6 -12    4.47    0.76
 -12   6 -12    3.39    1.24
  12  -6  12    3.71    0.80
  12   7   0   24.55    2.64
 -12  -7   0   20.19    2.72
 -12   7   0   26.39    2.55
 -12   7   0   20.45    2.76
  12  -7   0   20.37    2.52
  12   7   1   15.59    1.87
 -12  -7  -1   16.79    1.88
 -12  -7  -1   12.92    1.97
 -12   7  -1   15.26    1.73
 -12   7  -1   13.41    2.02
  12  -7   1   13.40    1.75
  12   7   2    3.58    0.94
 -12  -7  -2    3.26    0.95
 -12  -7  -2    3.10    1.10
 -12   7  -2    2.70    0.72
 -12   7  -2    3.12    1.17
  12  -7   2    3.06    0.79
  12   7   3   17.01    1.97
 -12  -7  -3   19.04    2.00
 -12  -7  -3   11.23    2.00
 -12   7  -3   17.46    1.80
  12  -7   3   12.96    1.79
  12   7   4    3.86    1.00
 -12  -7  -4    4.29    0.97
 -12   7  -4    3.64    0.72
 -12   7  -4    3.60    1.18
  12  -7   4    3.50    0.77
  12   7   5   -0.49    0.84
 -12  -7  -5   -0.56    0.76
 -12  -7  -5    0.31    0.96
 -12   7  -5   -0.22    0.50
 -12   7  -5    0.52    1.05
  12  -7   5   -0.12    0.57
  12   7   6    0.64    0.87
 -12  -7  -6    0.26    0.76
 -12  -7  -6    0.47    0.99
 -12   7  -6    0.12    0.50
 -12   7  -6    0.18    1.11
  12  -7   6    0.27    0.56
  12   7   7    1.79    0.94
 -12  -7  -7    1.89    0.83
 -12  -7  -7    1.45    1.07
 -12   7  -7    1.11    0.53
 -12   7  -7    0.65    1.14
  12  -7   7    0.89    0.60
 -12  -7  -8   17.88    1.96
 -12  -7  -8   13.37    2.03
 -12   7  -8   14.00    1.67
 -12   7  -8   15.91    2.12
  12   7   9   39.76    4.12
 -12  -7  -9   42.55    4.10
 -12  -7  -9   30.97    4.09
 -12   7  -9   36.57    3.86
  12   7  10    1.01    0.97
 -12   7 -10    0.17    0.47
 -12   7 -10    1.18    1.17
  12  -7  10    0.00    0.55
  12   7  11    0.94    0.98
 -12  -7 -11    1.56    0.84
 -12  -7 -11    1.66    1.09
 -12   7 -11    1.41    1.17
  12  -7  11    0.93    0.59
  12   8   0    2.92    0.93
 -12  -8   0    1.52    1.09
 -12   8   0    3.29    0.75
 -12   8   0    1.63    1.16
  12   8   1    8.74    1.28
 -12  -8  -1    8.70    1.29
 -12  -8  -1    5.56    1.40
 -12   8  -1    8.07    1.08
 -12   8  -1    4.83    1.42
  12  -8   1    7.57    1.11
  12   8   2    2.82    0.91
 -12  -8  -2    2.34    0.90
 -12  -8  -2    1.24    1.07
 -12   8  -2    2.53    0.63
 -12   8  -2    1.33    1.12
  12   8   3    7.35    1.21
 -12  -8  -3    8.05    1.21
 -12  -8  -3    5.69    1.34
 -12   8  -3    5.96    0.92
  12  -8   3    5.95    0.98
  12   8   4   29.86    2.93
 -12  -8  -4   29.19    2.91
 -12   8  -4   23.55    2.68
 -12   8  -4   21.97    2.99
  12  -8   4   24.22    2.71
  12   8   5   10.01    1.42
 -12  -8  -5   10.50    1.40
 -12  -8  -5    9.33    1.56
 -12   8  -5    7.73    1.08
 -12   8  -5    8.81    1.58
  12  -8   5    8.41    1.14
  12   8   6   26.48    2.49
 -12  -8  -6   24.76    2.44
 -12  -8  -6   17.31    2.48
 -12   8  -6   19.96    2.15
 -12   8  -6   14.30    2.51
  12  -8   6   18.41    2.17
  12   8   7   33.14    3.38
 -12  -8  -7   33.05    3.35
 -12  -8  -7   28.56    3.41
 -12   8  -7   27.39    3.08
 -12   8  -7   27.50    3.46
  12  -8   7   30.16    3.12
 -12  -8  -8    7.90    1.20
 -12  -8  -8    5.13    1.34
 -12   8  -8    5.14    0.79
 -12   8  -8    4.79    1.44
  12   8   9    2.95    1.03
 -12  -8  -9    1.65    0.88
 -12  -8  -9    1.24    1.10
 -12   8  -9    1.49    0.50
  12   8  10   11.89    1.66
 -12   8 -10   10.07    1.21
 -12   8 -10    8.20    1.71
  12  -8  10   10.98    1.25
  12   9   0    2.36    0.89
 -12  -9   0    0.85    1.08
 -12   9   0    1.80    1.16
  12   9   1   25.27    2.57
 -12  -9  -1   26.98    2.58
 -12  -9  -1   17.75    2.64
 -12   9  -1   20.94    2.36
 -12   9  -1   16.26    2.65
  12   9   2    6.56    1.14
 -12  -9  -2    5.76    1.10
 -12  -9  -2    6.37    1.35
 -12   9  -2    4.42    0.81
 -12   9  -2    4.39    1.36
  12   9   3   59.64    6.17
 -12  -9  -3   66.95    6.19
 -12  -9  -3   50.96    6.24
 -12   9  -3   57.41    6.01
  12   9   4    0.32    0.85
 -12  -9  -4    0.12    0.81
 -12   9  -4    0.28    0.48
 -12   9  -4    0.38    1.15
  12  -9   4   -0.05    0.56
  12   9   5    2.63    0.95
 -12  -9  -5    2.12    0.89
 -12  -9  -5    1.31    1.10
 -12   9  -5    1.21    0.50
 -12   9  -5    0.68    1.18
  12  -9   5    1.81    0.59
  12   9   6    0.36    0.90
 -12  -9  -6    0.06    0.84
 -12  -9  -6    0.54    1.07
 -12   9  -6    0.17    0.46
 -12   9  -6    0.52    1.24
  12  -9   6   -0.01    0.51
  12   9   7   55.38    5.12
 -12  -9  -7   60.50    5.12
 -12  -9  -7   40.81    5.09
 -12   9  -7   52.41    4.82
 -12   9  -7   38.72    5.12
  12  -9   7   39.94    4.80
 -12  -9  -8    5.01    1.07
 -12  -9  -8    3.75    1.25
 -12   9  -8    3.20    0.58
 -12   9  -8    3.46    1.34
  12  -9   8    3.33    0.62
  12   9   9   19.09    2.10
 -12  -9  -9   18.48    2.06
 -12  -9  -9   16.13    2.16
 -12   9  -9   13.81    1.65
  12  10   0   27.02    2.90
 -12 -10   0   26.12    3.07
 -12  10   0   24.34    2.73
 -12  10   0   28.17    3.16
  12 -10   0   23.42    2.78
  12  10   1    2.74    0.93
 -12 -10  -1    3.39    0.94
 -12 -10  -1    1.67    1.17
 -12  10  -1    2.45    0.64
 -12  10  -1    1.19    1.22
  12 -10   1    1.84    0.74
  12  10   2   16.73    1.91
 -12 -10  -2   17.73    1.90
 -12 -10  -2   11.11    2.01
 -12  10  -2   15.48    1.65
 -12  10  -2   11.25    2.07
  12 -10   2   12.55    1.68
  12  10   3    2.16    0.92
 -12 -10  -3    2.68    0.90
 -12 -10  -3    1.20    1.11
 -12  10  -3    2.02    0.56
  12  10   4    6.74    1.17
 -12 -10  -4    6.18    1.12
 -12  10  -4    4.90    0.78
 -12  10  -4    4.81    1.39
  12  10   5    1.48    0.91
 -12 -10  -5    1.05    0.86
 -12 -10  -5    1.07    1.10
 -12  10  -5    0.85    0.47
 -12  10  -5    0.96    1.17
  12  10   6    5.97    1.14
 -12 -10  -6    4.81    1.06
 -12 -10  -6    3.43    1.24
 -12  10  -6    3.58    0.61
 -12  10  -6    4.08    1.40
  12 -10   6    3.50    0.64
 -12 -10  -7   15.74    1.72
 -12 -10  -7   12.60    1.84
 -12  10  -7   12.10    1.29
 -12  10  -7   10.63    1.92
  12 -10   7   10.33    1.29
  12  11   0    4.21    1.01
 -12 -11   0    2.04    1.20
 -12  11   0    5.02    0.76
 -12  11   0    2.32    1.29
  12 -11   0    2.81    0.83
  12  11   1    3.41    0.98
 -12 -11  -1    4.38    0.97
 -12 -11  -1    2.77    1.21
 -12  11  -1    3.50    1.31
  12 -11   1    2.58    0.77
  12  11   2   24.60    2.51
 -12 -11  -2   26.86    2.51
 -12 -11  -2   22.07    2.67
 -12  11  -2   21.50    2.26
 -12  11  -2   15.51    2.64
  12 -11   2   17.12    2.27
  12  11   3    0.01    0.83
 -12 -11  -3   -0.24    0.78
 -12 -11  -3    0.02    1.07
 -12  11  -3    0.00    0.47
  12 -11   3    0.06    0.53
  12  11   4    5.81    1.10
 -12 -11  -4    4.43    1.03
 -12 -11  -4    3.75    1.29
 -12  11  -4    3.98    0.66
 -12  11  -4    2.89    1.32
  13   0   0   -0.20    0.78
 -13   0   0   -0.38    0.71
 -13   0   0    0.83    0.99
  13   0   1  310.27   29.81
 -13   0  -1  309.51   29.79
 -13   0  -1  266.83   29.83
  13   0   2    0.71    0.80
 -13   0  -2   -0.01    0.69
 -13   0  -2   -0.12    0.96
  13   0   3   97.87    9.87
 -13   0  -3   94.31    9.84
  13   0   4    0.45    0.80
 -13   0  -4    0.23    0.70
 -13   0  -4    0.41    0.97
  13   0   5   -0.73    0.80
 -13   0  -5    0.44    0.69
 -13   0  -5    1.28    1.00
 -13   0  -6    0.20    0.70
 -13   0  -6    0.58    1.06
 -13   0  -7   10.20    1.45
 -13   0  -7   11.17    1.69
  13   0   8   -0.04    0.80
 -13   0  -8    0.22    0.65
 -13   0  -8    0.33    1.09
  13   0   9   88.48    8.80
 -13   0  -9   80.97    8.80
  13   0  10   -0.13    0.85
 -13   0 -10   -0.78    0.54
 -13   0 -10   -0.30    1.07
  13   0  11   35.04    3.95
 -13   0 -11   34.76    3.91
 -13   0 -11   38.63    4.02
  13   0  12    0.26    0.90
 -13   0 -12    0.07    0.69
 -13   0 -12   -0.03    1.06
  13   0  13    4.35    1.13
 -13   0 -13    3.71    0.96
 -13   0 -13    5.55    1.24
  13   1   0   11.89    1.72
 -13  -1   0   12.44    1.67
 -13  -1   0   14.79    1.87
 -13   1   0   12.72    1.67
 -13   1   0   15.22    1.90
  13  -1   0   12.90    1.72
  13   1   1    3.11    0.94
 -13  -1  -1    3.75    0.88
 -13  -1  -1    2.16    1.06
 -13   1  -1    3.32    0.87
 -13   1  -1    2.98    1.10
  13  -1   1    3.68    0.93
  13   1   2   11.84    1.57
 -13  -1  -2   10.85    1.50
 -13  -1  -2    8.73    1.62
 -13   1  -2   11.19    1.49
 -13   1  -2   10.83    1.67
  13  -1   2   12.85    1.56
  13   1   3    5.34    1.08
 -13  -1  -3    5.88    1.01
 -13  -1  -3    4.10    1.18
 -13   1  -3    5.50    0.97
  13  -1   3    3.93    1.01
  13   1   4   17.37    2.17
 -13  -1  -4   18.89    2.15
 -13  -1  -4   15.99    2.24
 -13   1  -4   19.05    2.14
 -13   1  -4   16.73    2.26
  13  -1   4   18.97    2.17
  13   1   5    6.03    1.02
 -13  -1  -5    4.21    0.91
 -13  -1  -5    5.77    1.17
 -13   1  -5    1.35    0.55
 -13   1  -5    5.93    1.18
  13  -1   5    4.62    0.97
 -13  -1  -6   95.78   10.07
 -13  -1  -6   98.48   10.15
 -13   1  -6   99.11   10.04
 -13   1  -6   99.98   10.17
 -13  -1  -7   21.78    2.35
 -13  -1  -7   18.31    2.46
 -13   1  -7   20.77    2.30
 -13   1  -7   16.58    2.45
  13   1   8    3.00    1.00
 -13  -1  -8    2.47    0.87
 -13  -1  -8    4.80    1.24
 -13   1  -8    2.32    0.83
 -13   1  -8    4.94    1.26
  13  -1   8    3.97    0.98
  13   1   9    1.28    0.89
 -13  -1  -9    1.96    1.16
  13  -1   9    1.46    0.87
  13   1  10    0.29    0.86
 -13  -1 -10    0.45    0.71
 -13  -1 -10    0.12    1.08
 -13   1 -10   -0.30    0.69
 -13   1 -10    0.54    1.11
  13  -1  10    0.12    0.84
  13   1  11   30.84    3.39
 -13  -1 -11   31.70    3.34
 -13  -1 -11   26.24    3.38
 -13   1 -11   30.46    3.30
 -13   1 -11   26.50    3.38
  13  -1  11   32.29    3.36
  13   1  12    3.18    1.04
 -13  -1 -12    2.90    0.88
 -13  -1 -12    2.83    1.17
 -13   1 -12    3.13    0.85
 -13   1 -12    3.14    1.15
  13  -1  12    3.30    1.01
  13   1  13    7.36    1.34
 -13  -1 -13    6.60    1.19
 -13  -1 -13    6.22    1.38
 -13   1 -13    7.11    1.15
 -13   1 -13    7.55    1.38
  13  -1  13    7.23    1.31
  13   2   0    3.40    0.92
 -13  -2   0    2.72    0.85
 -13  -2   0    2.80    1.06
 -13   2   0    2.48    0.81
 -13   2   0    2.28    1.07
  13  -2   0    3.30    0.91
  13   2   1    4.16    1.01
 -13  -2  -1    5.55    0.96
 -13  -2  -1    3.14    1.11
 -13   2  -1    4.85    0.93
 -13   2  -1    2.05    1.11
  13  -2   1    4.18    0.97
  13   2   2   46.74    5.00
 -13  -2  -2   44.89    4.96
 -13  -2  -2   48.38    5.08
 -13   2  -2   48.71    5.09
  13  -2   2   46.80    4.98
  13   2   3    5.08    1.08
 -13  -2  -3    4.49    1.01
 -13  -2  -3    3.95    1.18
 -13   2  -3    6.56    0.96
  13  -2   3    5.28    1.03
  13   2   4   21.23    2.33
 -13  -2  -4   19.98    2.29
 -13  -2  -4   16.60    2.36
 -13   2  -4   18.27    2.23
 -13   2  -4   19.02    2.41
  13  -2   4   20.65    2.29
  13   2   5   28.55    2.98
 -13  -2  -5   28.94    2.95
 -13  -2  -5   22.39    2.99
 -13   2  -5   26.94    2.89
 -13   2  -5   20.93    2.98
  13  -2   5   27.01    2.93
 -13  -2  -6    4.22    0.97
 -13  -2  -6    3.48    1.21
 -13   2  -6    4.52    0.91
 -13   2  -6    3.25    1.24
 -13  -2  -7   42.40    4.42
 -13  -2  -7   42.42    4.52
 -13   2  -7   40.83    4.36
 -13   2  -7   41.19    4.52
  13  -2   7   39.12    4.38
  13   2   8  202.20   19.65
 -13  -2  -8  197.59   19.62
 -13  -2  -8  188.42   19.65
 -13   2  -8  194.37   19.56
 -13   2  -8  187.72   19.66
  13  -2   8  192.98   19.58
  13   2   9    4.64    1.10
 -13  -2  -9    4.53    1.27
  13  -2   9    3.66    1.00
  13   2  10    8.02    1.35
 -13  -2 -10    6.46    1.19
 -13  -2 -10    9.30    1.47
 -13   2 -10    6.32    1.11
 -13   2 -10    8.14    1.47
  13  -2  10    7.18    1.24
  13   2  11    0.69    0.91
 -13  -2 -11    0.08    0.74
 -13  -2 -11   -0.64    1.10
 -13   2 -11    1.22    0.71
 -13   2 -11    1.03    1.09
  13  -2  11    0.47    0.84
  13   2  12    0.36    0.91
 -13  -2 -12    0.53    0.73
 -13  -2 -12   -0.54    1.06
 -13   2 -12    0.58    0.68
 -13   2 -12    0.00    1.02
  13  -2  12    0.33    0.84
  13   2  13    0.74    0.98
 -13  -2 -13    0.86    0.79
 -13  -2 -13    0.93    1.06
 -13   2 -13    1.04    0.68
 -13   2 -13   -0.19    1.02
  13  -2  13    0.83    0.88
  13   3   0    8.36    1.16
 -13  -3   0    8.59    1.11
 -13  -3   0    7.55    1.32
 -13   3   0    2.66    0.74
 -13   3   0    6.56    1.29
  13  -3   0    7.90    1.13
  13   3   1    2.90    0.93
 -13  -3  -1    3.13    0.86
 -13  -3  -1    3.51    1.11
 -13   3  -1    3.61    0.84
 -13   3  -1    3.16    1.11
  13  -3   1    2.43    0.88
  13   3   2    6.64    1.15
 -13  -3  -2    6.00    1.08
 -13  -3  -2    6.14    1.28
 -13   3  -2    5.90    1.01
 -13   3  -2    4.09    1.24
  13  -3   2    5.36    1.06
  13   3   3   41.29    4.44
 -13  -3  -3   45.20    4.45
 -13  -3  -3   36.95    4.49
 -13   3  -3   41.94    4.38
  13  -3   3   40.41    4.40
  13   3   4    2.73    0.96
 -13  -3  -4    3.62    0.90
 -13  -3  -4    2.25    1.09
 -13   3  -4    4.25    0.84
 -13   3  -4    2.52    1.09
  13  -3   4    3.84    0.90
  13   3   5   16.01    1.93
 -13  -3  -5   15.74    1.88
 -13  -3  -5   13.93    1.99
 -13   3  -5   14.64    1.80
 -13   3  -5   13.65    2.00
 -13  -3  -6   13.69    1.71
 -13  -3  -6   12.72    1.87
 -13   3  -6   12.51    1.62
 -13   3  -6   12.91    1.90
 -13  -3  -7   27.06    3.12
 -13  -3  -7   32.72    3.28
 -13   3  -7   25.48    3.04
 -13   3  -7   28.52    3.26
  13  -3   7   28.09    3.09
  13   3   8    8.39    1.39
 -13  -3  -8    9.76    1.32
 -13  -3  -8    6.02    1.48
 -13   3  -8   10.44    1.23
 -13   3  -8    5.43    1.49
  13  -3   8    7.18    1.26
  13   3   9    4.44    1.12
 -13  -3  -9    3.93    1.23
  13  -3   9    3.70    0.95
  13   3  10   43.02    4.41
 -13  -3 -10   44.10    4.37
 -13  -3 -10   36.05    4.37
 -13   3 -10   42.41    4.27
 -13   3 -10   32.53    4.36
  13  -3  10   41.25    4.30
  13   3  11   22.76    2.79
 -13  -3 -11   24.38    2.75
 -13  -3 -11   23.57    2.83
 -13   3 -11   24.22    2.64
 -13   3 -11   22.52    2.82
  13  -3  11   22.99    2.68
  13   3  12    3.39    1.13
 -13  -3 -12    5.22    1.01
 -13  -3 -12    2.57    1.19
 -13   3 -12    4.14    0.85
 -13   3 -12    3.54    1.21
  13  -3  12    3.77    0.99
  13   4   0   49.78    5.01
 -13  -4   0   50.97    4.99
 -13  -4   0   43.65    5.05
 -13   4   0   47.64    4.93
 -13   4   0   39.36    5.03
  13  -4   0   47.43    4.96
  13   4   1   -0.29    0.80
 -13  -4  -1    0.11    0.74
 -13  -4  -1    0.74    0.98
 -13   4  -1    0.62    0.67
 -13   4  -1    0.20    0.96
  13  -4   1   -0.39    0.76
 -13  -4  -2    6.18    1.31
 -13   4  -2    7.59    1.09
 -13   4  -2    5.71    1.31
  13  -4   2    6.56    1.13
 -13  -4  -3    8.40    1.26
 -13  -4  -3    8.30    1.43
 -13   4  -3    7.18    1.15
  13  -4   3    8.01    1.22
  13   4   4   24.22    2.47
 -13  -4  -4   22.31    2.42
 -13  -4  -4   17.47    2.47
 -13   4  -4   21.57    2.32
 -13   4  -4   15.33    2.44
  13   4   5    2.70    0.93
 -13  -4  -5    3.16    0.87
 -13  -4  -5    1.66    1.06
 -13   4  -5    2.49    0.74
 -13   4  -5    1.51    1.05
 -13  -4  -6   -0.26    0.75
 -13  -4  -6    0.23    0.98
 -13   4  -6    0.40    0.63
 -13   4  -6    0.59    1.12
 -13  -4  -7   10.65    1.40
 -13  -4  -7    8.52    1.54
 -13   4  -7    9.17    1.26
 -13   4  -7    8.97    1.61
  13  -4   7    8.68    1.30
  13   4   8    4.28    1.07
 -13  -4  -8    4.25    0.96
 -13  -4  -8    4.27    1.19
 -13   4  -8    3.39    0.79
 -13   4  -8    4.34    1.27
  13  -4   8    3.04    0.90
  13   4   9   30.13    3.24
 -13  -4  -9   23.65    3.21
  13  -4   9   29.96    3.11
  13   4  10   14.43    1.87
 -13  -4 -10   12.98    1.76
 -13  -4 -10   11.97    1.89
 -13   4 -10   13.71    1.63
 -13   4 -10   11.41    1.91
  13  -4  10   13.99    1.70
  13   4  11    0.35    0.92
 -13  -4 -11   -0.01    0.75
 -13  -4 -11    0.29    1.07
 -13   4 -11   -0.14    0.59
 -13   4 -11   -0.30    1.11
  13  -4  11   -0.73    0.78
  13   4  12    1.78    1.03
 -13  -4 -12    1.71    0.86
 -13  -4 -12    1.59    1.15
 -13   4 -12    2.07    0.67
 -13   4 -12    2.04    1.16
  13  -4  12    2.21    0.86
  13   5   0    1.36    0.89
 -13  -5   0    1.31    0.80
 -13  -5   0    1.92    1.06
 -13   5   0    1.45    0.72
 -13   5   0    1.92    1.07
  13   5   1    2.52    0.91
 -13  -5  -1    2.40    0.86
 -13  -5  -1    1.53    1.05
 -13   5  -1    2.13    0.73
 -13   5  -1    0.71    1.03
  13  -5   1    2.03    0.82
  13   5   2    9.85    1.40
 -13  -5  -2    9.99    1.36
 -13  -5  -2    8.52    1.50
 -13   5  -2    8.77    1.24
 -13   5  -2    6.12    1.47
  13   5   3    0.45    0.83
 -13  -5  -3    0.80    0.80
 -13  -5  -3    0.31    1.01
 -13   5  -3    0.83    0.64
  13   5   4    8.71    1.34
 -13  -5  -4   10.48    1.32
 -13   5  -4    7.46    1.11
 -13   5  -4    3.66    1.34
  13   5   5    2.23    0.94
 -13  -5  -5    3.16    0.91
 -13  -5  -5    2.83    1.11
 -13   5  -5    2.51    0.73
 -13   5  -5    2.39    1.12
 -13  -5  -6    0.23    0.77
 -13  -5  -6    0.79    1.07
 -13   5  -6    0.26    0.61
 -13   5  -6    0.05    1.12
  13  -5   6    0.05    0.70
 -13  -5  -7   17.64    2.44
 -13   5  -7   20.23    2.19
 -13   5  -7   18.36    2.48
  13  -5   7   19.86    2.23
 -13  -5  -8    0.36    1.07
 -13   5  -8    0.87    1.15
  13  -5   8    1.09    0.73
 -13  -5  -9    1.71    1.13
  13   5  10    9.20    1.44
 -13  -5 -10    8.76    1.33
 -13  -5 -10    7.02    1.48
 -13   5 -10    8.71    1.14
 -13   5 -10    4.65    1.48
  13  -5  10    8.33    1.20
  13   5  11    0.16    0.95
 -13  -5 -11    0.27    0.79
 -13  -5 -11    0.18    1.07
 -13   5 -11    0.26    0.58
 -13   5 -11    0.21    1.11
  13  -5  11    0.43    0.68
  13   6   0    1.09    0.88
 -13  -6   0    0.67    0.84
 -13  -6   0    1.31    1.05
 -13   6   0    1.01    0.69
 -13   6   0    1.00    1.06
  13   6   1    1.24    0.87
 -13  -6  -1    0.70    0.81
 -13  -6  -1    1.51    1.05
 -13   6  -1    1.39    0.69
 -13   6  -1    1.07    1.07
  13   6   2    0.79    0.86
 -13  -6  -2    0.14    0.75
 -13  -6  -2   -0.16    1.01
 -13   6  -2    0.60    0.65
 -13   6  -2    0.57    1.04
  13   6   3    9.18    1.48
 -13  -6  -3   11.77    1.49
 -13  -6  -3    8.43    1.59
 -13   6  -3    9.59    1.30
  13   6   4   12.46    1.64
 -13  -6  -4   12.55    1.59
 -13   6  -4   10.52    1.41
 -13   6  -4    9.06    1.70
  13   6   5   20.25    2.12
 -13  -6  -5   18.02    2.05
 -13  -6  -5   13.89    2.13
 -13   6  -5   16.92    1.88
 -13   6  -5   11.85    2.12
  13  -6   5   15.32    1.91
 -13  -6  -6    1.79    0.84
 -13  -6  -6    0.44    1.06
 -13   6  -6    2.40    1.21
  13   6   7   -0.05    0.90
 -13  -6  -7    0.38    0.78
 -13  -6  -7   -0.68    1.05
 -13   6  -7    0.65    0.58
 -13   6  -7   -0.04    1.15
  13  -6   7    0.17    0.63
  13   6   8    1.77    1.01
 -13  -6  -8    2.83    1.12
 -13   6  -8    3.18    1.26
  13  -6   8    1.95    0.72
  13   6   9    8.92    1.50
 -13  -6  -9    9.48    1.42
 -13  -6  -9    8.64    1.55
  13  -6   9    8.60    1.22
  13   6  10   -0.10    0.97
 -13  -6 -10    0.31    0.78
 -13   6 -10   -0.26    0.54
 -13   6 -10    0.63    1.16
  13  -6  10    0.21    0.65
  13   7   0    6.89    1.19
 -13  -7   0    5.96    1.15
 -13  -7   0    6.88    1.35
 -13   7   0    5.95    1.01
 -13   7   0    4.74    1.35
  13  -7   0    5.02    1.04
  13   7   1    2.46    0.92
 -13  -7  -1    2.27    0.89
 -13  -7  -1    1.27    1.05
 -13   7  -1    1.67    0.71
 -13   7  -1    1.34    1.14
  13  -7   1    1.45    0.78
  13   7   2    0.98    0.86
 -13  -7  -2    0.35    0.86
 -13  -7  -2    0.91    1.04
 -13   7  -2    0.89    0.64
 -13   7  -2    2.33    1.14
  13  -7   2    0.96    0.72
  13   7   3    0.49    0.86
 -13  -7  -3    0.27    0.85
 -13  -7  -3    0.25    1.01
 -13   7  -3    0.17    0.61
  13  -7   3    0.14    0.69
  13   7   4    3.39    1.03
 -13  -7  -4    4.60    1.02
 -13   7  -4    3.71    0.76
 -13   7  -4    3.12    1.23
  13  -7   4    4.04    0.83
  13   7   5    0.42    0.89
 -13  -7  -5    0.60    0.81
 -13  -7  -5    0.68    1.03
 -13   7  -5    0.30    0.54
 -13   7  -5    0.09    1.15
  13  -7   5    0.61    0.64
 -13  -7  -6   11.27    1.43
 -13  -7  -6    7.81    1.55
 -13   7  -6    8.75    1.14
 -13   7  -6    5.27    1.58
  13  -7   6    8.73    1.19
  13   7   7    4.99    1.17
 -13  -7  -7    5.52    1.09
 -13  -7  -7    5.15    1.30
 -13   7  -7    3.78    0.78
 -13   7  -7    4.63    1.38
  13  -7   7    4.83    0.87
  13   7   8    4.33    1.13
 -13  -7  -8    1.82    1.18
 -13   7  -8    2.57    1.29
  13  -7   8    2.91    0.74
  13   7   9   10.11    1.45
 -13  -7  -9    8.62    1.29
 -13  -7  -9    6.02    1.44
  13  -7   9    6.02    1.02
  13   7  10   -0.13    0.97
 -13  -7 -10    0.25    0.79
 -13   7 -10    0.03    0.49
 -13   7 -10   -0.28    1.19
  13  -7  10    0.25    0.60
  13   8   0    3.07    1.01
 -13  -8   0    3.16    0.97
 -13  -8   0    4.26    1.21
 -13   8   0    3.03    1.24
  13  -8   0    3.06    0.86
  13   8   1   14.44    1.70
 -13  -8  -1   14.88    1.71
 -13  -8  -1    9.20    1.77
 -13   8  -1   11.66    1.50
 -13   8  -1    7.97    1.79
  13  -8   1   11.59    1.53
  13   8   2   11.09    1.56
 -13  -8  -2   10.23    1.54
 -13  -8  -2   11.07    1.72
 -13   8  -2    9.67    1.32
 -13   8  -2   10.33    1.75
  13  -8   2   10.44    1.39
  13   8   3   -0.03    0.85
 -13  -8  -3   -0.71    0.87
 -13  -8  -3    0.79    1.05
 -13   8  -3    0.36    0.56
  13  -8   3   -0.04    0.65
  13   8   4   -0.18    0.87
 -13  -8  -4    0.10    0.84
 -13   8  -4   -0.13    0.53
 -13   8  -4    0.13    1.12
  13  -8   4    0.12    0.64
  13   8   5    0.43    0.90
 -13  -8  -5    0.04    0.84
 -13  -8  -5   -1.04    1.08
 -13   8  -5   -0.19    0.51
 -13   8  -5    0.30    1.20
  13  -8   5   -0.06    0.60
 -13  -8  -6   -0.09    0.85
 -13  -8  -6   -0.37    1.08
 -13   8  -6    0.21    0.52
 -13   8  -6   -0.10    1.19
  13  -8   6   -0.26    0.58
  13   8   7   41.21    4.00
 -13  -8  -7   43.24    3.99
 -13  -8  -7   29.75    3.98
 -13   8  -7   36.11    3.72
 -13   8  -7   28.56    4.02
  13  -8   7   34.46    3.73
  13   8   8    7.61    1.34
 -13  -8  -8    6.28    1.44
 -13   8  -8    5.55    1.51
  13  -8   8    5.55    0.91
  13   9   0   28.11    2.92
 -13  -9   0   27.13    2.90
 -13  -9   0   21.60    3.01
 -13   9   0   21.57    3.05
  13   9   1    1.96    0.96
 -13  -9  -1    1.85    0.95
 -13  -9  -1    0.92    1.16
 -13   9  -1    2.58    1.25
  13  -9   1    2.07    0.76
  13   9   2   27.42    2.82
 -13  -9  -2   31.28    2.84
 -13  -9  -2   19.96    2.86
 -13   9  -2   17.45    2.88
  13  -9   2   22.41    2.62
  13   9   3    1.24    0.90
 -13  -9  -3    0.70    0.88
 -13  -9  -3    0.43    1.09
  13  -9   3    0.15    0.64
  13   9   4   45.89    4.45
 -13  -9  -4   45.71    4.43
 -13   9  -4   32.38    4.49
  13  -9   4   38.79    4.24
 -13  -9  -5    0.01    0.85
 -13  -9  -5    0.56    1.10
 -13   9  -5    0.14    0.49
 -13   9  -5   -0.19    1.25
  13  -9   5    0.12    0.58
 -13  -9  -6   11.43    1.54
 -13  -9  -6   12.41    1.76
 -13   9  -6    8.39    1.19
 -13   9  -6   11.29    1.85
  13  -9   6    9.77    1.23
  13   9   7    2.58    1.07
 -13  -9  -7    2.87    1.02
 -13  -9  -7    3.35    1.26
 -13   9  -7    3.22    1.39
  13  -9   7    2.79    0.66
  13  10   0   12.28    1.58
 -13 -10   0   14.19    1.60
 -13 -10   0    7.91    1.70
 -13  10   0   10.61    1.34
 -13  10   0    6.50    1.73
  13 -10   0    9.11    1.40
  13  10   1    6.46    1.23
 -13 -10  -1    6.97    1.23
 -13 -10  -1    6.01    1.44
 -13  10  -1    6.29    0.96
 -13  10  -1    5.65    1.51
  13 -10   1    6.15    1.06
  13  10   2    1.27    0.91
 -13 -10  -2    1.31    0.87
 -13 -10  -2    0.75    1.10
 -13  10  -2    1.06    0.55
 -13  10  -2    0.53    1.20
  13 -10   2    0.57    0.67
  13  10   3   16.74    1.92
 -13 -10  -3   16.52    1.90
 -13 -10  -3   13.91    2.06
 -13  10  -3   11.50    2.08
  13 -10   3   12.38    1.65
  13  10   4   -0.07    0.88
 -13 -10  -4    0.08    0.83
 -13  10  -4    0.22    1.19
  13 -10   4   -0.10    0.58
  14   0   0    1.22    0.91
 -14   0   0    2.10    0.84
 -14   0   0    2.17    1.10
  14   0   1    0.03    0.83
 -14   0  -1    0.41    0.76
 -14   0  -1    0.36    1.03
 -14   0  -2   46.09    4.41
 -14   0  -2   34.62    4.44
 -14   0  -3    0.15    0.74
  14   0   4   21.24    2.42
 -14   0  -4   20.09    2.37
 -14   0  -4   18.39    2.49
  14   0   5    0.26    0.84
 -14   0  -5    0.28    0.72
 -14   0  -5   -0.29    1.04
  14   0   6   18.50    2.29
 -14   0  -6   18.94    2.44
  14   0   7   -0.16    0.88
 -14   0  -7   -0.01    1.15
  14   0   8    4.11    1.14
 -14   0  -8    6.63    1.07
 -14   0  -8    3.67    1.34
  14   0   9   -0.28    0.92
 -14   0  -9    0.04    0.53
  14   0  10   18.93    2.32
 -14   0 -10   17.73    2.40
  14   0  11   -0.28    0.92
 -14   0 -11    0.28    0.73
 -14   0 -11   -0.72    1.17
  14   1   0    0.16    0.84
 -14  -1   0    0.59    0.77
 -14  -1   0    0.88    1.04
 -14   1   0    0.62    0.75
 -14   1   0    2.26    1.08
  14   1   1   22.20    2.51
 -14  -1  -1   21.43    2.45
 -14  -1  -1   19.79    2.57
 -14   1  -1   21.23    2.45
 -14   1  -1   18.70    2.58
 -14  -1  -2   34.19    3.68
 -14  -1  -2   33.56    3.79
 -14   1  -2   34.13    3.67
 -14   1  -2   31.44    3.77
 -14  -1  -3    0.64    0.78
 -14   1  -3    0.49    0.74
 -14  -1  -4    3.97    0.92
 -14  -1  -4    2.04    1.13
 -14   1  -4    2.57    0.87
 -14   1  -4    1.91    1.13
  14  -1   4    4.05    0.99
  14   1   5    5.16    1.13
 -14  -1  -5    6.01    1.09
 -14  -1  -5    2.81    1.24
 -14   1  -5    6.74    0.96
 -14   1  -5    4.31    1.34
  14  -1   5    5.25    1.13
  14   1   6    3.40    1.01
 -14  -1  -6    1.64    1.19
 -14   1  -6    2.10    1.23
  14  -1   6    3.42    0.99
  14   1   7   89.77    9.01
 -14  -1  -7   86.78    9.06
 -14   1  -7   86.59    9.07
  14  -1   7   84.34    8.97
  14   1   8   36.83    4.18
 -14  -1  -8   40.02    4.15
 -14  -1  -8   32.68    4.21
 -14   1  -8   41.53    4.14
 -14   1  -8   36.26    4.24
  14  -1   8   39.42    4.16
  14   1   9   15.56    2.26
 -14  -1  -9   19.26    2.22
 -14   1  -9   19.29    2.19
  14  -1   9   18.00    2.26
  14   1  10    2.89    1.07
 -14  -1 -10    3.85    0.95
 -14  -1 -10    3.58    1.27
 -14   1 -10    3.21    0.90
 -14   1 -10    4.72    1.34
  14  -1  10    3.25    1.06
  14   1  11    7.71    1.40
 -14  -1 -11    6.39    1.22
 -14  -1 -11    7.46    1.51
 -14   1 -11    7.58    1.22
 -14   1 -11    6.28    1.50
  14  -1  11    7.61    1.34
  14   2   0    0.50    0.87
 -14  -2   0   -0.13    0.76
 -14  -2   0   -0.08    1.03
 -14   2   0    0.29    0.75
 -14   2   0    0.03    1.05
  14   2   1    0.16    0.83
 -14  -2  -1    0.75    0.78
 -14  -2  -1    0.53    1.01
 -14   2  -1    0.51    0.73
 -14   2  -1   -0.10    1.03
  14   2   2    0.14    0.86
 -14  -2  -2    0.04    0.75
 -14  -2  -2    1.48    1.05
 -14   2  -2    1.71    0.67
 -14   2  -2    0.30    1.03
 -14  -2  -3   18.50    2.17
  14  -2   3   16.84    2.16
 -14  -2  -4    0.05    0.75
 -14  -2  -4   -0.23    1.04
 -14   2  -4    0.85    0.74
 -14   2  -4    0.04    1.04
  14  -2   4    0.72    0.84
  14   2   5   73.68    7.09
 -14  -2  -5   69.24    7.05
 -14  -2  -5   63.87    7.10
 -14   2  -5   65.35    7.00
 -14   2  -5   64.14    7.13
  14  -2   5   67.37    7.03
  14   2   6    2.65    1.02
 -14  -2  -6    2.61    1.22
 -14   2  -6    1.73    1.24
  14  -2   6    2.67    0.95
  14   2   7    7.36    1.33
 -14  -2  -7    4.81    1.44
 -14   2  -7    8.44    1.19
 -14   2  -7    4.80    1.47
  14  -2   7    7.52    1.26
  14   2   8   28.31    3.03
 -14  -2  -8   28.18    2.98
 -14  -2  -8   22.40    3.05
 -14   2  -8   26.19    2.90
 -14   2  -8   22.04    3.07
  14  -2   8   26.62    2.96
  14   2   9    8.00    1.43
 -14  -2  -9    8.90    1.33
 -14   2  -9    8.98    1.27
  14  -2   9    7.10    1.33
  14   2  10    3.47    1.12
 -14  -2 -10    3.94    0.97
 -14  -2 -10    4.40    1.29
 -14   2 -10    2.40    0.85
 -14   2 -10    2.88    1.27
  14  -2  10    4.01    1.04
  14   2  11    1.97    1.05
 -14  -2 -11    1.89    0.88
 -14  -2 -11    2.91    1.23
 -14   2 -11    2.53    0.81
 -14   2 -11    1.47    1.19
  14  -2  11    1.54    0.95
 -14  -3   0   19.29    2.67
 -14   3   0   22.17    2.49
 -14   3   0   20.48    2.69
  14  -3   0   25.04    2.62
  14   3   1    6.07    1.21
 -14  -3  -1    5.99    1.11
 -14  -3  -1    2.71    1.25
 -14   3  -1    8.34    1.08
 -14   3  -1    3.95    1.29
  14  -3   1    6.25    1.15
  14   3   2    3.81    1.03
 -14  -3  -2    3.74    0.97
 -14  -3  -2    4.29    1.19
 -14   3  -2    3.21    0.90
 -14   3  -2    3.92    1.20
  14  -3   2    3.66    0.99
 -14  -3  -3    2.73    0.91
 -14   3  -3    2.81    0.84
  14  -3   3    3.35    0.95
 -14  -3  -4    3.62    0.94
 -14  -3  -4    1.42    1.11
 -14   3  -4    2.52    0.84
 -14   3  -4    2.84    1.16
  14  -3   4    2.45    0.91
  14   3   5   11.70    1.73
 -14  -3  -5   12.08    1.68
 -14  -3  -5   11.94    1.82
 -14   3  -5   12.68    1.91
  14  -3   5   12.36    1.66
  14   3   6   30.39    3.34
 -14  -3  -6   26.35    3.38
 -14   3  -6   28.08    3.43
  14  -3   6   31.23    3.28
  14   3   7   -0.23    0.90
 -14  -3  -7    1.36    1.14
 -14   3  -7    0.68    0.70
 -14   3  -7   -0.66    1.18
  14  -3   7    0.07    0.81
  14   3   8    5.99    1.26
 -14  -3  -8    5.13    1.12
 -14  -3  -8    8.86    1.47
 -14   3  -8    5.59    1.04
 -14   3  -8    7.16    1.47
  14  -3   8    5.74    1.15
  14   3   9    0.88    0.97
 -14  -3  -9    0.73    0.77
 -14   3  -9    0.21    0.69
  14  -3   9   -0.04    0.83
  14   3  10    3.52    1.16
 -14  -3 -10    3.38    0.98
 -14  -3 -10    4.23    1.31
 -14   3 -10    3.77    0.87
 -14   3 -10    2.67    1.28
  14  -3  10    4.30    1.02
  14   3  11    2.69    1.12
 -14  -3 -11    3.24    0.94
 -14  -3 -11    2.36    1.20
 -14   3 -11    2.91    0.82
 -14   3 -11    2.39    1.27
  14  -3  11    2.09    0.96
  14   4   0    0.12    0.87
 -14  -4   0   -0.17    0.78
 -14  -4   0    0.02    1.05
 -14   4   0   -0.12    0.71
 -14   4   0   -0.11    1.02
  14  -4   0   -0.36    0.82
  14   4   1   14.83    1.87
 -14  -4  -1   16.22    1.84
 -14  -4  -1   11.91    1.94
 -14   4  -1   14.44    1.75
 -14   4  -1   10.43    1.89
  14  -4   1   12.74    1.77
  14   4   2    3.77    1.05
 -14  -4  -2    2.95    0.93
 -14  -4  -2    3.13    1.17
 -14   4  -2    3.76    0.88
 -14   4  -2    1.81    1.12
  14  -4   2    2.62    0.91
 -14   4  -3    0.35    0.69
  14  -4   3    0.83    0.81
 -14  -4  -4   18.23    1.98
 -14  -4  -4   15.23    2.09
 -14   4  -4   10.92    2.01
  14  -4   4   15.45    1.90
  14   4   5    0.51    0.90
 -14  -4  -5    0.99    0.81
 -14  -4  -5    0.40    1.08
 -14   4  -5    0.29    1.18
  14  -4   5    0.75    0.80
  14   4   6   10.54    1.51
 -14  -4  -6    7.53    1.56
 -14   4  -6    7.09    1.63
  14  -4   6   10.04    1.37
  14   4   7    5.05    1.22
 -14  -4  -7    6.26    1.39
 -14   4  -7    5.19    0.99
 -14   4  -7    5.59    1.44
  14  -4   7    6.67    1.11
  14   4   8   -0.04    0.94
 -14  -4  -8    0.53    0.79
 -14  -4  -8   -0.03    1.08
 -14   4  -8    0.72    0.66
 -14   4  -8   -0.59    1.20
  14  -4   8    0.08    0.78
  14   4   9    0.38    0.98
 -14  -4  -9    1.63    0.83
 -14   4  -9    1.37    0.67
  14  -4   9    1.09    0.84
  14   4  10   -0.06    0.97
 -14  -4 -10   -0.05    0.79
 -14  -4 -10    0.30    1.14
 -14   4 -10    0.70    0.66
 -14   4 -10   -0.81    1.19
  14  -4  10   -0.08    0.80
  14   5   0   20.63    2.30
 -14  -5   0   18.22    2.23
 -14  -5   0   16.42    2.36
 -14   5   0   15.31    2.36
  14  -5   0   19.70    2.24
  14   5   1    0.68    0.92
 -14  -5  -1   -0.22    0.81
 -14  -5  -1   -0.03    1.05
 -14   5  -1   -0.26    1.06
  14  -5   1    0.17    0.80
  14   5   2    0.74    0.90
 -14  -5  -2    0.57    0.80
 -14  -5  -2    1.41    1.07
 -14   5  -2    0.52    1.07
  14  -5   2    0.35    0.79
 -14  -5  -3    2.71    0.94
  14  -5   3    2.71    0.89
 -14  -5  -4    0.20    0.82
 -14  -5  -4   -0.03    1.06
 -14   5  -4    0.79    1.08
  14  -5   4    0.88    0.78
  14   5   5    4.09    1.11
 -14  -5  -5    5.48    1.06
 -14  -5  -5    2.32    1.20
 -14   5  -5    3.15    1.34
  14  -5   5    4.80    0.98
  14   5   6    1.91    0.99
 -14  -5  -6    1.54    1.15
 -14   5  -6    1.77    0.71
 -14   5  -6    1.62    1.23
  14  -5   6    1.78    0.83
  14   5   7   18.72    2.21
 -14  -5  -7   18.23    2.14
 -14  -5  -7   14.11    2.22
 -14   5  -7   17.02    1.98
 -14   5  -7   15.28    2.30
  14  -5   7   16.77    2.03
  14   5   8    1.13    0.99
 -14  -5  -8    1.15    1.13
 -14   5  -8    0.59    0.64
 -14   5  -8    0.60    1.20
  14  -5   8    1.35    0.80
 -14  -5  -9   -0.45    1.12
 -14   5  -9    0.08    1.17
  14   6   0    1.00    0.95
 -14  -6   0    1.07    0.90
 -14  -6   0    1.03    1.12
 -14   6   0    1.63    1.14
  14  -6   0    0.65    0.83
  14   6   1    8.70    1.36
 -14  -6  -1    9.76    1.34
 -14  -6  -1    6.54    1.46
 -14   6  -1    5.14    1.44
  14  -6   1    6.28    1.21
  14   6   2    2.65    1.00
 -14  -6  -2    2.89    0.93
 -14  -6  -2    1.11    1.11
 -14   6  -2    2.09    1.16
  14  -6   2    2.48    0.88
 -14  -6  -3    0.82    0.85
 -14  -6  -3    0.53    1.08
 -14   6  -3   -0.11    1.09
  14  -6   3    0.70    0.77
 -14  -6  -4   -0.32    0.83
 -14  -6  -4   -0.29    1.05
 -14   6  -4   -0.82    1.12
  14  -6   4   -0.14    0.75
  14   6   5    0.12    0.91
 -14  -6  -5    0.10    0.80
 -14  -6  -5   -0.56    1.08
 -14   6  -5    0.00    0.62
 -14   6  -5   -0.74    1.21
  14  -6   5    0.17    0.73
  14   6   6   -0.04    0.92
 -14  -6  -6    0.63    1.12
 -14   6  -6    0.43    1.21
  14   6   7    1.12    0.99
 -14  -6  -7    0.54    0.82
 -14  -6  -7    0.91    1.16
 -14   6  -7    0.61    0.63
 -14   6  -7    0.63    1.23
  14  -6   7    0.87    0.70
  14   6   8    0.25    0.98
 -14  -6  -8   -0.20    1.12
 -14   6  -8   -0.30    0.59
 -14   6  -8   -0.01    1.21
  14  -6   8   -0.20    0.69
  14   7   0   58.74    5.54
 -14  -7   0   63.72    5.56
 -14  -7   0   45.56    5.56
 -14   7   0   52.88    5.42
 -14   7   0   41.17    5.55
  14  -7   0   47.53    5.42
  14   7   1    4.97    1.15
 -14  -7  -1    5.42    1.13
 -14  -7  -1    4.53    1.31
 -14   7  -1    4.57    0.95
 -14   7  -1    3.55    1.34
  14  -7   1    4.52    1.02
  14   7   2    7.50    1.26
 -14  -7  -2    7.69    1.27
 -14  -7  -2    5.71    1.40
 -14   7  -2    5.00    1.00
 -14   7  -2    5.43    1.44
  14  -7   2    5.47    1.08
 -14  -7  -3   -0.26    0.88
 -14  -7  -3    0.96    1.12
 -14   7  -3    0.59    0.66
 -14   7  -3    0.55    1.12
  14  -7   3    0.79    0.76
  14   7   4    0.84    0.93
 -14  -7  -4    0.65    0.88
 -14  -7  -4    0.14    1.10
 -14   7  -4    0.50    0.62
 -14   7  -4    0.16    1.13
  14  -7   4    1.36    0.74
  14   7   5    1.08    0.95
 -14  -7  -5    0.71    0.88
 -14  -7  -5    0.73    1.12
 -14   7  -5    0.74    0.60
 -14   7  -5    0.76    1.25
  14  -7   5    0.10    0.69
  14   7   6    5.76    1.21
 -14  -7  -6    5.84    1.37
 -14   7  -6    4.45    0.84
 -14   7  -6    4.58    1.44
  14  -7   6    4.02    0.91
  14   7   7   25.62    2.78
 -14  -7  -7   25.63    2.72
 -14  -7  -7   18.64    2.76
 -14   7  -7   23.42    2.49
 -14   7  -7   18.47    2.82
  14  -7   7   22.27    2.52
  14   8   0   13.59    1.75
 -14  -8   0   13.73    1.72
 -14  -8   0   10.56    1.85
 -14   8   0   11.26    1.54
 -14   8   0   10.15    1.89
  14  -8   0   11.12    1.59
  14   8   1   -0.02    0.91
 -14  -8  -1    1.35    0.95
 -14  -8  -1    0.49    1.12
 -14   8  -1    0.26    0.68
 -14   8  -1    0.43    1.17
  14  -8   1    0.17    0.77
  14   8   2    8.35    1.35
 -14  -8  -2    7.68    1.32
 -14  -8  -2    5.44    1.43
 -14   8  -2    6.87    1.06
 -14   8  -2    5.71    1.49
  14  -8   2    6.13    1.12
 -14  -8  -3    0.47    0.89
 -14  -8  -3   -0.64    1.10
 -14   8  -3    0.18    0.61
 -14   8  -3    0.88    1.17
  14  -8   3   -0.39    0.72
  14   8   4   30.16    3.18
 -14  -8  -4   32.78    3.18
 -14  -8  -4   23.50    3.21
 -14   8  -4   26.35    2.93
 -14   8  -4   21.20    3.22
  14  -8   4   28.08    2.98
  14   8   5   43.50    4.36
 -14  -8  -5   46.25    4.36
 -14  -8  -5   35.44    4.38
 -14   8  -5   37.49    4.11
 -14   8  -5   34.26    4.43
  14  -8   5   39.29    4.16
  14   9   0   -0.13    0.91
 -14  -9   0    0.37    0.89
 -14  -9   0    0.07    1.11
 -14   9   0   -0.64    1.21
  14   9   1   19.75    2.14
 -14  -9  -1   19.96    2.12
 -14  -9  -1   13.22    2.19
 -14   9  -1   15.92    1.88
 -14   9  -1   10.85    2.20
  14  -9   1   15.27    1.94
  14   9   2    1.34    0.98
 -14  -9  -2    1.54    0.95
 -14  -9  -2    1.66    1.16
 -14   9  -2    1.53    0.66
  14  -9   2    2.52    0.80
 -14  -9  -3    0.39    0.88
 -14  -9  -3    0.63    1.11
 -14   9  -3   -0.10    0.57
 -14   9  -3   -0.18    1.15
  14  -9   3   -0.17    0.69
  15   0   0    0.62    0.92
 -15   0   0   -0.38    0.82
 -15   0   0   -0.04    1.09
  15   0   1   38.78    4.06
 -15   0  -1   33.87    4.10
  15   0   2   -0.47    0.91
 -15   0  -2   -0.59    1.09
  15   0   3    0.02    0.89
 -15   0  -3   -0.04    1.09
  15   0   4    0.23    0.92
 -15   0  -4    0.02    0.78
 -15   0  -4    0.16    1.09
  15   0   5    0.66    0.94
 -15   0  -5    0.59    0.79
 -15   0  -5   -0.16    1.18
  15   0   6    0.74    0.95
 -15   0  -6   -0.17    0.78
 -15   0  -6   -0.96    1.21
  15   0   7    9.08    1.51
 -15   0  -7    8.90    1.41
 -15   0  -7    9.88    1.70
  15   0   8    0.00    0.92
 -15   0  -8    0.04    0.77
 -15   0  -8    0.74    1.21
  15   0   9    6.87    1.47
 -15   0  -9   11.40    1.34
 -15   0  -9    6.05    1.60
  15   1   0    0.77    0.92
 -15  -1   0    1.16    0.86
 -15  -1   0    0.15    1.08
 -15   1   0    0.36    1.08
  15  -1   0    1.14    0.93
  15   1   1    2.41    1.01
 -15  -1  -1    2.60    0.92
 -15  -1  -1    2.10    1.17
 -15   1  -1    2.14    1.17
  15  -1   1    2.65    1.02
  15   1   2    1.52    0.95
 -15  -1  -2    0.51    1.10
 -15   1  -2    0.76    1.10
  15  -1   2    1.82    0.95
  15   1   3   20.99    2.48
 -15   1  -3   21.59    2.42
 -15   1  -3   15.32    2.50
  15  -1   3   21.22    2.46
  15   1   4   16.03    2.04
 -15  -1  -4   16.35    1.97
 -15  -1  -4   13.68    2.10
 -15   1  -4   15.65    1.95
 -15   1  -4   11.87    2.07
  15  -1   4   16.00    2.00
  15   1   5   42.44    4.50
 -15  -1  -5   44.29    4.47
 -15  -1  -5   36.44    4.53
 -15   1  -5   41.81    4.43
 -15   1  -5   36.93    4.54
  15  -1   5   41.82    4.48
  15   1   6    1.21    0.98
 -15  -1  -6    0.43    0.81
 -15  -1  -6   -0.38    1.23
 -15   1  -6   -0.08    0.42
 -15   1  -6    0.17    1.23
  15  -1   6    1.40    0.97
  15   1   7    0.62    0.97
 -15  -1  -7    1.47    0.87
 -15  -1  -7    1.51    1.23
 -15   1  -7    1.33    0.82
 -15   1  -7    1.02    1.23
  15  -1   7    1.81    0.99
  15   1   8    2.97    1.08
 -15  -1  -8    2.66    0.92
 -15  -1  -8    1.75    1.24
 -15   1  -8    2.50    0.87
 -15   1  -8    1.74    1.27
  15  -1   8    2.45    1.01
  15   1   9    4.10    1.21
 -15  -1  -9    4.99    1.09
 -15   1  -9    5.18    1.05
 -15   1  -9    4.63    1.44
  15  -1   9    4.70    1.19
  15   2   0   10.29    1.53
 -15  -2   0   10.22    1.47
 -15  -2   0    9.17    1.64
 -15   2   0    8.59    1.64
  15  -2   0    9.03    1.50
  15   2   1    0.26    0.89
 -15  -2  -1    0.18    0.78
 -15  -2  -1   -0.25    1.06
 -15   2  -1   -0.06    1.06
  15  -2   1    0.19    0.88
  15   2   2    0.48    0.92
 -15  -2  -2    0.90    0.83
 -15  -2  -2   -0.47    1.09
 -15   2  -2    0.22    0.75
 -15   2  -2    0.46    1.11
  15  -2   2    0.42    0.90
  15   2   3   15.15    1.95
 -15   2  -3   10.01    1.97
  15  -2   3   17.01    1.95
  15   2   4    1.88    1.02
 -15  -2  -4    0.90    1.14
 -15   2  -4    2.91    0.89
 -15   2  -4    1.00    1.15
  15  -2   4    2.54    0.97
  15   2   5    4.56    1.13
 -15  -2  -5    3.38    1.00
 -15  -2  -5    3.40    1.31
 -15   2  -5    3.01    0.93
 -15   2  -5    3.70    1.35
  15  -2   5    4.08    1.07
  15   2   6   26.96    3.02
 -15  -2  -6   26.40    2.97
 -15  -2  -6   24.08    3.08
 -15   2  -6   26.13    2.91
 -15   2  -6   22.19    3.07
  15  -2   6   25.86    2.96
  15   2   7   -0.82    1.01
 -15  -2  -7   -0.14    0.81
 -15  -2  -7   -0.77    1.19
 -15   2  -7    0.19    0.75
 -15   2  -7    0.73    1.22
  15  -2   7    0.19    0.91
  15   2   8    2.53    1.10
 -15  -2  -8    2.26    0.90
 -15  -2  -8    2.83    1.31
 -15   2  -8    2.34    0.87
 -15   2  -8    2.27    1.32
  15  -2   8    3.07    1.02
  15   2   9    3.78    1.16
 -15  -2  -9    4.55    1.05
 -15   2  -9    4.47    0.96
 -15   2  -9    1.67    1.30
  15  -2   9    2.80    1.06
  15   3   0    0.85    0.94
 -15  -3   0    0.15    0.81
 -15  -3   0   -0.30    1.06
 -15   3   0    0.14    0.78
 -15   3   0   -0.08    1.09
  15  -3   0    0.22    0.88
 -15  -3  -1   22.37    2.95
 -15   3  -1   22.57    2.96
  15  -3   1   27.90    2.91
  15   3   2    1.16    0.98
 -15  -3  -2    1.83    0.89
 -15  -3  -2    1.18    1.12
 -15   3  -2    1.42    0.80
 -15   3  -2    1.93    1.15
  15  -3   2    1.31    0.94
  15   3   3    1.94    1.00
 -15   3  -3    1.68    0.82
 -15   3  -3    1.20    1.12
  15  -3   3    1.21    0.93
  15   3   4   11.82    1.67
 -15  -3  -4    8.30    1.71
 -15   3  -4   13.02    1.57
 -15   3  -4    8.39    1.73
  15  -3   4   11.64    1.62
  15   3   5    0.94    0.97
 -15  -3  -5    1.04    0.86
 -15  -3  -5    0.96    1.18
 -15   3  -5    1.28    0.76
 -15   3  -5    0.67    1.23
  15  -3   5    0.74    0.88
  15   3   6    1.54    1.02
 -15  -3  -6    1.01    0.86
 -15  -3  -6    0.59    1.17
 -15   3  -6    1.54    0.78
 -15   3  -6    0.55    1.23
  15  -3   6    1.05    0.90
  15   3   7   -0.23    1.00
 -15  -3  -7    0.05    0.81
 -15  -3  -7    0.33    1.17
 -15   3  -7    0.45    0.74
 -15   3  -7   -0.24    1.23
  15  -3   7    0.14    0.87
  15   3   8    0.79    1.01
 -15  -3  -8    0.02    0.81
 -15  -3  -8   -0.74    1.21
 -15   3  -8   -0.32    0.74
 -15   3  -8    0.57    1.23
  15  -3   8   -0.07    0.89
  15   4   0   13.60    1.83
 -15  -4   0   13.62    1.76
 -15  -4   0   10.80    1.88
 -15   4   0   14.14    1.71
 -15   4   0    9.17    1.84
  15  -4   0   12.49    1.76
  15   4   1    5.80    1.28
 -15  -4  -1    8.38    1.26
 -15  -4  -1    4.48    1.37
 -15   4  -1    6.01    1.12
 -15   4  -1    4.60    1.32
  15  -4   1    5.17    1.20
  15   4   2   -0.16    0.94
 -15  -4  -2    0.12    0.84
 -15  -4  -2    0.47    1.11
 -15   4  -2    0.21    0.75
  15  -4   2    0.04    0.85
  15   4   3    6.89    1.31
 -15   4  -3    6.38    1.11
 -15   4  -3    4.70    1.34
  15  -4   3    6.02    1.19
 -15  -4  -4    5.02    1.36
 -15   4  -4    5.80    1.05
 -15   4  -4    4.85    1.34
  15  -4   4    5.88    1.17
 -15  -4  -5    1.37    1.20
 -15   4  -5    1.82    0.79
 -15   4  -5    1.67    1.29
  15  -4   5    1.48    0.90
  15   4   6    2.45    1.08
 -15  -4  -6    1.80    0.92
 -15  -4  -6    2.65    1.26
 -15   4  -6    3.17    0.85
 -15   4  -6    2.20    1.32
  15  -4   6    2.47    0.95
  15   4   7   13.42    1.89
 -15  -4  -7   14.09    1.81
 -15  -4  -7   13.25    1.98
 -15   4  -7   12.73    1.68
 -15   4  -7   11.24    1.98
  15  -4   7   12.33    1.73
  15   4   8    5.62    1.27
 -15  -4  -8    5.99    1.15
 -15  -4  -8    3.52    1.36
 -15   4  -8    4.76    0.97
 -15   4  -8    4.68    1.45
  15  -4   8    4.55    1.10
 -15  -5   0    2.08    0.98
 -15  -5   0    3.21    1.25
 -15   5   0    2.84    0.89
 -15   5   0    2.55    1.22
  15  -5   0    3.72    1.03
  15   5   1    1.49    1.03
 -15  -5  -1    1.86    0.93
 -15  -5  -1    1.81    1.17
 -15   5  -1    1.65    0.82
 -15   5  -1    1.59    1.17
  15  -5   1    1.80    0.93
  15   5   2   14.57    1.87
 -15  -5  -2   13.86    1.79
 -15  -5  -2   11.22    1.92
 -15   5  -2   12.52    1.68
  15  -5   2   11.73    1.74
  15   5   3    4.70    1.18
 -15   5  -3    4.79    0.95
 -15   5  -3    2.95    1.26
  15  -5   3    3.46    1.03
  15   5   4   -0.10    0.96
 -15  -5  -4   -0.14    1.12
 -15   5  -4   -0.08    0.70
 -15   5  -4    0.13    1.11
  15  -5   4   -0.20    0.83
  15   5   5    0.10    0.97
 -15  -5  -5    0.24    0.82
 -15  -5  -5    0.28    1.13
 -15   5  -5    0.43    0.70
 -15   5  -5    0.34    1.24
  15  -5   5    0.33    0.85
  15   5   6    0.10    0.98
 -15  -5  -6   -0.52    0.85
 -15  -5  -6   -0.56    1.14
 -15   5  -6   -0.10    0.68
 -15   5  -6    0.37    1.24
  15  -5   6    0.10    0.80
  15   5   7    0.83    1.02
 -15  -5  -7    0.94    0.87
 -15  -5  -7    0.56    1.14
 -15   5  -7    0.26    0.70
 -15   5  -7   -0.41    1.24
  15  -5   7    0.46    0.83
 -15  -6   0   23.53    2.40
 -15  -6   0   14.60    2.42
 -15   6   0   20.05    2.27
 -15   6   0   14.42    2.43
  15  -6   0   19.31    2.31
  15   6   1    3.90    1.17
 -15  -6  -1    4.59    1.12
 -15  -6  -1    4.24    1.32
 -15   6  -1    3.93    0.97
 -15   6  -1    4.51    1.34
  15  -6   1    3.85    1.06
  15   6   2    1.21    0.99
 -15  -6  -2    0.50    0.87
 -15  -6  -2    0.73    1.13
 -15   6  -2    0.27    0.73
  15  -6   2    0.51    0.85
  15   6   3    0.00    0.95
 -15   6  -3    0.12    0.70
 -15   6  -3    0.49    1.12
  15  -6   3    0.03    0.83
  15   6   4    0.98    1.00
 -15  -6  -4    2.08    0.92
 -15  -6  -4    0.86    1.13
 -15   6  -4    1.62    0.73
 -15   6  -4    0.49    1.14
  15  -6   4    1.24    0.85
  15   6   5    1.12    0.99
 -15  -6  -5   -0.03    0.82
 -15  -6  -5    0.47    1.12
 -15   6  -5    0.29    0.68
 -15   6  -5    0.75    1.25
  15  -6   5    0.59    0.81
  15   6   6   11.24    1.70
 -15  -6  -6   12.11    1.61
 -15  -6  -6   10.40    1.79
 -15   6  -6    7.80    1.81
 -15  -7   0    7.43    1.24
 -15  -7   0    4.14    1.35
 -15   7   0    6.41    1.06
 -15   7   0    1.79    1.32
  15  -7   0    4.10    1.09
  15   7   1    0.09    0.96
 -15  -7  -1    0.60    0.91
 -15  -7  -1   -0.81    1.14
 -15   7  -1   -0.19    0.73
 -15   7  -1    0.85    1.16
  15  -7   1    0.07    0.85
  15   7   2    0.98    0.99
 -15  -7  -2    0.28    0.94
 -15  -7  -2    1.64    1.16
 -15   7  -2    0.66    0.73
  15  -7   2    0.97    0.84
  15   7   3    1.80    1.03
 -15   7  -3    1.53    0.74
 -15   7  -3    1.73    1.21
  15  -7   3    0.53    0.83
  15   7   4   12.61    1.69
 -15  -7  -4   13.70    1.66
 -15  -7  -4    6.71    1.68
 -15   7  -4   10.29    1.40
 -15   7  -4    6.84    1.72
  15  -7   4   11.41    1.48
  16   0   0   30.26    3.32
 -16   0   0   32.46    3.29
 -16   0   0   21.74    3.30
  16   0   1   -0.37    0.97
 -16   0  -1   -0.44    0.83
 -16   0  -1   -0.06    1.12
  16   0   2    1.28    1.01
 -16   0  -2    2.72    0.94
  16   0   3    0.19    0.98
 -16   0  -3    0.21    0.83
 -16   0  -3   -0.55    1.17
  16   0   4   38.95    4.05
 -16   0  -4   39.70    4.01
 -16   0  -4   28.49    4.03
  16   0   5   -0.39    1.02
 -16   0  -5   -0.43    0.85
 -16   0  -5    0.37    1.24
  16   0   6    1.82    1.07
 -16   0  -6    1.03    0.90
 -16   0  -6    1.36    1.28
  16   1   0    2.30    1.07
 -16  -1   0    1.56    0.91
 -16  -1   0    1.02    1.19
 -16   1   0    2.12    0.93
 -16   1   0    0.84    1.17
  16  -1   0    2.28    1.05
  16   1   1    0.41    0.96
 -16  -1  -1   -0.14    0.82
 -16  -1  -1    0.98    1.14
 -16   1  -1    0.44    0.83
 -16   1  -1    0.29    1.14
  16  -1   1    0.14    0.96
  16   1   2    1.26    1.02
 -16  -1  -2    1.03    0.87
 -16   1  -2    1.29    0.86
  16  -1   2    0.77    0.98
  16   1   3    5.32    1.28
 -16  -1  -3    5.69    1.18
 -16  -1  -3    4.98    1.39
 -16   1  -3    6.20    1.18
 -16   1  -3    4.48    1.39
  16  -1   3    6.41    1.28
  16   1   4    1.07    1.04
 -16  -1  -4    0.04    0.83
 -16  -1  -4    0.54    1.16
 -16   1  -4    0.71    0.85
 -16   1  -4   -0.27    1.16
  16  -1   4    0.49    0.98
  16   1   5    6.65    1.39
 -16  -1  -5    7.69    1.31
 -16  -1  -5    5.05    1.54
 -16   1  -5    7.60    1.27
 -16   1  -5    4.84    1.54
  16  -1   5    6.94    1.37
  16   1   6   12.93    1.85
 -16  -1  -6   13.56    1.79
 -16  -1  -6    9.28    1.92
 -16   1  -6   10.79    1.96
  16  -1   6   13.61    1.85
  16   2   0    1.21    1.00
 -16  -2   0    0.43    0.84
 -16  -2   0    0.30    1.12
 -16   2   0    0.88    0.84
 -16   2   0   -0.36    1.15
  16  -2   0    1.57    1.01
  16   2   1    2.70    1.09
 -16  -2  -1    3.31    0.97
 -16  -2  -1    1.63    1.18
 -16   2  -1    1.61    0.89
 -16   2  -1    1.05    1.16
  16  -2   1    2.14    1.06
  16   2   2    0.49    0.98
 -16  -2  -2    0.44    0.85
 -16  -2  -2    0.57    1.12
 -16   2  -2    0.05    0.80
  16  -2   2    0.18    0.95
  16   2   3    2.46    1.11
 -16  -2  -3    3.22    0.98
 -16  -2  -3    1.34    1.17
 -16   2  -3    1.53    0.69
 -16   2  -3    3.18    1.24
  16  -2   3    2.59    1.07
  16   2   4    0.32    0.99
 -16  -2  -4   -0.54    0.85
 -16  -2  -4    0.62    1.13
 -16   2  -4    1.66    0.73
 -16   2  -4   -0.24    1.12
  16  -2   4   -0.05    0.92
  16   2   5    0.56    1.02
 -16  -2  -5    0.86    0.87
 -16  -2  -5   -0.56    1.21
 -16   2  -5    0.44    0.81
 -16   2  -5    0.52    1.26
  16  -2   5    0.45    0.95
  16   2   6    2.00    1.08
 -16  -2  -6    2.60    0.96
 -16  -2  -6    1.54    1.30
 -16   2  -6    1.50    0.86
 -16   2  -6    1.49    1.32
  16  -2   6    1.69    1.03
  16   3   0    3.60    1.16
 -16  -3   0    3.34    1.02
 -16  -3   0    2.49    1.25
 -16   3   0    4.53    1.03
 -16   3   0    3.23    1.28
  16  -3   0    3.35    1.13
  16   3   1    2.49    1.07
 -16  -3  -1    2.80    0.95
 -16  -3  -1   -0.26    1.13
 -16   3  -1    0.22    0.43
 -16   3  -1    0.32    1.15
  16  -3   1    1.26    0.98
 -16  -3  -2    3.42    1.27
 -16   3  -2    2.95    0.94
  16  -3   2    3.07    1.07
  16   3   3    0.43    1.00
 -16  -3  -3    0.46    0.84
 -16  -3  -3   -0.20    1.13
 -16   3  -3    0.20    0.77
 -16   3  -3   -0.34    1.14
  16  -3   3   -1.00    0.97
  16   3   4    0.22    1.01
 -16  -3  -4    1.05    0.89
 -16  -3  -4    0.47    1.14
 -16   3  -4    0.14    0.80
 -16   3  -4    0.26    1.14
  16  -3   4    1.18    0.98
  16   3   5    0.32    0.99
 -16  -3  -5    0.50    0.87
 -16  -3  -5    0.26    1.22
 -16   3  -5    0.49    0.78
 -16   3  -5   -0.99    1.29
  16  -3   5   -0.04    0.92
  16   4   0    6.13    1.31
 -16  -4   0    6.74    1.22
 -16  -4   0    3.52    1.36
 -16   4   0    6.06    1.17
 -16   4   0    3.24    1.33
  16  -4   0    5.80    1.25
  16   4   1    0.26    1.00
 -16  -4  -1   -0.31    0.86
 -16  -4  -1    0.47    1.13
 -16   4  -1    0.70    0.81
 -16   4  -1   -0.10    1.10
  16  -4   1   -0.56    0.96
  16   4   2    2.04    1.09
 -16  -4  -2    1.46    0.92
 -16  -4  -2    1.98    1.21
 -16   4  -2    2.05    0.87
  16  -4   2    1.75    1.00
  16   4   3    5.82    1.29
 -16  -4  -3    6.62    1.15
 -16  -4  -3    2.02    1.29
 -16   4  -3    4.36    1.03
 -16   4  -3    2.46    1.26
  16  -4   3    4.16    1.14
  16   4   4    2.84    1.13
 -16  -4  -4    2.42    0.99
 -16  -4  -4    1.59    1.22
 -16   4  -4    2.55    0.90
 -16   4  -4    1.89    1.20
  16  -4   4    2.00    1.01
  16   5   0    0.53    1.01
 -16  -5   0    0.32    0.91
 -16  -5   0    0.72    1.17
 -16   5   0    0.05    0.81
 -16   5   0    0.09    1.15
  16  -5   0   -0.03    0.95
  16   5   1   16.61    2.08
 -16  -5  -1   16.18    1.98
 -16  -5  -1   13.89    2.12
 -16   5  -1   14.98    1.90
 -16   5  -1    9.71    2.04
  16  -5   1   14.31    1.96
  16   5   2    0.53    1.06
 -16  -5  -2    0.63    0.86
 -16  -5  -2    1.14    1.18
 -16   5  -2    1.08    0.82
  16  -5   2    0.20    0.93
  17   0   0   -0.20    1.05
 -17   0   0   -0.18    0.88
 -17   0   0    0.21    1.17
  17   0   1    2.24    1.15
 -17   0  -1    2.76    0.99
 -17   0  -1    1.21    1.24
  17   1   0    0.10    1.03
 -17  -1   0    0.46    0.90
 -17  -1   0    0.22    1.18
 -17   1   0    0.23    0.89
 -17   1   0    0.87    1.18
  17  -1   0    0.19    1.02
   0   0   0    0.00    0.00

_computing_structure_solution     'SHELXT 2014/5 (Sheldrick, 2014)'
;
_shelx_hkl_checksum              7151
loop_
_space_group_symop_operation_xyz
'x, y, z'
'-x+1/2, y+1/2, -z+1/2'
'-x, -y, -z'
'x-1/2, -y-1/2, z-1/2'
loop_
_atom_site_label
_atom_site_type_symbol
_atom_site_fract_x
_atom_site_fract_y
_atom_site_fract_z
_atom_site_U_iso_or_equiv
_atom_site_adp_type
_atom_site_occupancy
_atom_site_site_symmetry_order
_atom_site_calc_flag
_atom_site_refinement_flags_posn
_atom_site_refinement_flags_adp
_atom_site_refinement_flags_occupancy
_atom_site_disorder_assembly
_atom_site_disorder_group
Zn01 Zn 0.94987(4) 0.38918(4) 0.67812(3) 0.0728(4) Uani 1 1 d . . . . .
C100 C 1.0978(4) 0.2783(4) 0.6860(3) 0.0890(19) Uani 1 1 d . . . . .
H100 H 1.094188 0.284196 0.730079 0.107 Uiso 1 1 calc R U . . .
C101 C 1.1584(5) 0.2321(5) 0.6626(4) 0.110(3) Uani 1 1 d . . . . .
H101 H 1.196111 0.206867 0.689650 0.132 Uiso 1 1 calc R U . . .
C102 C 1.1618(5) 0.2242(6) 0.5983(4) 0.122(3) Uani 1 1 d . . . . .
H102 H 1.202755 0.193473 0.580554 0.146 Uiso 1 1 calc R U . . .
C103 C 1.1072(5) 0.2601(5) 0.5605(3) 0.105(2) Uani 1 1 d . . . . .
H103 H 1.108775 0.253533 0.516375 0.126 Uiso 1 1 calc R U . . .
C104 C 1.0494(4) 0.3061(4) 0.5867(3) 0.0802(17) Uani 1 1 d . . . . .
C105 C 0.9872(4) 0.3457(4) 0.5490(3) 0.0797(17) Uani 1 1 d . . . . .
H105 H 0.986306 0.340497 0.504767 0.096 Uiso 1 1 calc R U . . .
C106 C 0.8731(4) 0.4225(4) 0.5378(3) 0.0724(16) Uani 1 1 d . . . . .
C107 C 0.8189(4) 0.3741(4) 0.5054(3) 0.0798(17) Uani 1 1 d . . . . .
H107 H 0.824460 0.316861 0.505628 0.096 Uiso 1 1 calc R U . . .
C108 C 0.7565(4) 0.4104(4) 0.4728(3) 0.0790(17) Uani 1 1 d . . . . .
H108 H 0.719168 0.377312 0.451061 0.095 Uiso 1 1 calc R U . . .
C109 C 0.7478(4) 0.4944(4) 0.4714(2) 0.0734(16) Uani 1 1 d . . . . .
C110 C 0.8031(4) 0.5414(4) 0.5026(3) 0.0772(17) Uani 1 1 d . . . . .
H110 H 0.798664 0.598736 0.501194 0.093 Uiso 1 1 calc R U . . .
C111 C 0.8657(4) 0.5058(4) 0.5366(3) 0.0777(17) Uani 1 1 d . . . . .
H111 H 0.902749 0.538831 0.558606 0.093 Uiso 1 1 calc R U . . .
C112 C 0.6778(4) 0.5319(4) 0.4361(3) 0.0755(16) Uani 1 1 d . . . . .
H112 H 0.644432 0.487100 0.418519 0.091 Uiso 1 1 calc R U . . .
C113 C 0.7021(4) 0.5865(5) 0.3819(3) 0.095(2) Uani 1 1 d . . . . .
H11A H 0.733141 0.555011 0.352561 0.143 Uiso 1 1 calc R U . . .
H11B H 0.655152 0.607687 0.360170 0.143 Uiso 1 1 calc R U . . .
H11C H 0.733737 0.631699 0.398392 0.143 Uiso 1 1 calc R U . . .
C114 C 0.5548(4) 0.5952(3) 0.4695(3) 0.0689(15) Uani 1 1 d . . . . .
C115 C 0.5126(3) 0.6329(3) 0.5216(2) 0.0657(15) Uani 1 1 d . . . . .
C116 C 0.4561(3) 0.6928(3) 0.5099(3) 0.0693(15) Uani 1 1 d . . . . .
H116 H 0.447205 0.712545 0.468575 0.083 Uiso 1 1 calc R U . . .
C120 C -0.0079(4) 0.5788(4) 0.1825(3) 0.0826(18) Uani 1 1 d . . . . .
H120 H -0.043438 0.540433 0.198938 0.099 Uiso 1 1 calc R U . . .
C121 C -0.0007(5) 0.5850(5) 0.1178(3) 0.093(2) Uani 1 1 d . . . . .
H121 H -0.029400 0.549484 0.090680 0.112 Uiso 1 1 calc R U . . .
C122 C 0.0471(5) 0.6415(5) 0.0937(3) 0.093(2) Uani 1 1 d . . . . .
H122 H 0.051686 0.646478 0.049718 0.111 Uiso 1 1 calc R U . . .
C123 C 0.0897(4) 0.6925(4) 0.1340(3) 0.0841(18) Uani 1 1 d . . . . .
H123 H 0.123241 0.733262 0.118267 0.101 Uiso 1 1 calc R U . . .
C124 C 0.0815(4) 0.6816(4) 0.1973(3) 0.0734(16) Uani 1 1 d . . . . .
C125 C 0.1267(4) 0.7312(4) 0.2428(3) 0.0747(16) Uani 1 1 d . . . . .
H125 H 0.157964 0.774935 0.228750 0.090 Uiso 1 1 calc R U . . .
C126 C 0.1690(4) 0.7651(3) 0.3433(2) 0.0691(15) Uani 1 1 d . . . . .
C127 C 0.1321(4) 0.8057(4) 0.3912(3) 0.0741(16) Uani 1 1 d . . . . .
H127 H 0.076714 0.802486 0.394703 0.089 Uiso 1 1 calc R U . . .
C128 C 0.1763(4) 0.8510(4) 0.4340(3) 0.0753(16) Uani 1 1 d . . . . .
H128 H 0.150673 0.879837 0.466021 0.090 Uiso 1 1 calc R U . . .
C129 C 0.2560(4) 0.8546(4) 0.4307(3) 0.0770(17) Uani 1 1 d . . . . .
C130 C 0.2927(4) 0.8158(4) 0.3816(3) 0.0799(17) Uani 1 1 d . . . . .
H130 H 0.347958 0.819961 0.378014 0.096 Uiso 1 1 calc R U . . .
C131 C 0.2498(4) 0.7715(4) 0.3381(3) 0.0743(16) Uani 1 1 d . . . . .
H131 H 0.275342 0.745522 0.304635 0.089 Uiso 1 1 calc R U . . .
C132 C 0.3056(4) 0.8994(4) 0.4803(3) 0.0853(19) Uani 1 1 d . . . . .
H132 H 0.271323 0.915562 0.515384 0.102 Uiso 1 1 calc R U . . .
C133 C 0.3455(5) 0.9758(4) 0.4541(4) 0.107(2) Uani 1 1 d . . . . .
H13A H 0.305332 1.013201 0.437756 0.160 Uiso 1 1 calc R U . . .
H13B H 0.376265 1.002371 0.487606 0.160 Uiso 1 1 calc R U . . .
H13C H 0.380285 0.960211 0.420339 0.160 Uiso 1 1 calc R U . . .
C134 C 0.3491(5) 0.7865(4) 0.5468(3) 0.0752(17) Uani 1 1 d . . . . .
C135 C 0.4132(4) 0.7234(3) 0.5587(3) 0.0693(15) Uani 1 1 d . . . . .
C136 C 0.4235(4) 0.6931(3) 0.6196(3) 0.0708(15) Uani 1 1 d . . . . .
H136 H 0.393385 0.713928 0.652753 0.085 Uiso 1 1 calc R U . . .
C140 C 1.0985(5) 0.5057(5) 0.6632(3) 0.093(2) Uani 1 1 d . . . . .
H140 H 1.127211 0.458417 0.653036 0.111 Uiso 1 1 calc R U . . .
C141 C 1.1366(5) 0.5789(5) 0.6652(4) 0.101(2) Uani 1 1 d . . . . .
H141 H 1.190467 0.582379 0.655074 0.121 Uiso 1 1 calc R U . . .
C142 C 1.0961(6) 0.6469(5) 0.6818(4) 0.111(2) Uani 1 1 d . . . . .
H142 H 1.122365 0.697491 0.685874 0.133 Uiso 1 1 calc R U . . .
C143 C 1.0167(5) 0.6414(5) 0.6927(3) 0.095(2) Uani 1 1 d . . . . .
H143 H 0.986952 0.688422 0.701659 0.114 Uiso 1 1 calc R U . . .
C144 C 0.9819(4) 0.5664(4) 0.6901(3) 0.0797(17) Uani 1 1 d . . . . .
C145 C 0.8983(4) 0.5548(4) 0.7025(3) 0.0800(17) Uani 1 1 d . . . . .
H145 H 0.867949 0.599753 0.715599 0.096 Uiso 1 1 calc R U . . .
C146 C 0.7845(3) 0.4794(3) 0.7113(3) 0.0657(15) Uani 1 1 d . . . . .
C147 C 0.7340(4) 0.4374(4) 0.6717(3) 0.0728(16) Uani 1 1 d . . . . .
H147 H 0.753870 0.411117 0.635892 0.087 Uiso 1 1 calc R U . . .
C148 C 0.6551(4) 0.4332(4) 0.6836(3) 0.0739(16) Uani 1 1 d . . . . .
H148 H 0.621058 0.404329 0.655674 0.089 Uiso 1 1 calc R U . . .
C149 C 0.6244(4) 0.4712(3) 0.7364(3) 0.0701(15) Uani 1 1 d . . . . .
C150 C 0.6769(4) 0.5114(4) 0.7765(3) 0.0744(17) Uani 1 1 d . . . . .
H150 H 0.657783 0.536514 0.813124 0.089 Uiso 1 1 calc R U . . .
C151 C 0.7559(4) 0.5158(4) 0.7645(3) 0.0712(15) Uani 1 1 d . . . . .
H151 H 0.790560 0.543635 0.792613 0.085 Uiso 1 1 calc R U . . .
C152 C 0.5370(4) 0.4710(4) 0.7473(3) 0.0747(16) Uani 1 1 d . . . . .
H152 H 0.527394 0.499310 0.787706 0.090 Uiso 1 1 calc R U . . .
C153 C 0.5015(5) 0.3859(4) 0.7504(3) 0.095(2) Uani 1 1 d . . . . .
H15A H 0.527629 0.355285 0.784281 0.143 Uiso 1 1 calc R U . . .
H15B H 0.445339 0.390060 0.758445 0.143 Uiso 1 1 calc R U . . .
H15C H 0.508903 0.357989 0.710543 0.143 Uiso 1 1 calc R U . . .
C154 C 0.4924(4) 0.5965(4) 0.6956(3) 0.0718(16) Uani 1 1 d . . . . .
C155 C 0.4782(4) 0.6324(4) 0.6309(3) 0.0687(15) Uani 1 1 d . . . . .
C156 C 0.5229(4) 0.6037(3) 0.5820(3) 0.0694(16) Uani 1 1 d . . . . .
H156 H 0.561379 0.563231 0.590290 0.083 Uiso 1 1 calc R U . . .
N100 N 1.0448(3) 0.3145(3) 0.6492(2) 0.0784(14) Uani 1 1 d . . . . .
N101 N 0.9349(3) 0.3866(3) 0.5753(2) 0.0710(13) Uani 1 1 d . . . . .
N102 N 0.6311(3) 0.5781(3) 0.4808(2) 0.0749(14) Uani 1 1 d D . . . .
N120 N 0.0341(3) 0.6256(3) 0.2217(2) 0.0731(14) Uani 1 1 d . . . . .
N121 N 0.1239(3) 0.7153(3) 0.3013(2) 0.0697(12) Uani 1 1 d . . . . .
N122 N 0.3670(4) 0.8441(3) 0.5045(2) 0.0782(14) Uani 1 1 d D . . . .
N140 N 1.0210(3) 0.4987(3) 0.6754(2) 0.0775(14) Uani 1 1 d . . . . .
N141 N 0.8654(3) 0.4856(3) 0.6959(2) 0.0696(13) Uani 1 1 d . . . . .
N142 N 0.4978(3) 0.5166(3) 0.6966(2) 0.0706(13) Uani 1 1 d D . . . .
O100 O 0.5202(2) 0.5780(2) 0.41971(18) 0.0758(11) Uani 1 1 d . . . . .
O120 O 0.2873(3) 0.7834(3) 0.5736(2) 0.0851(12) Uani 1 1 d . . . . .
O140 O 0.4992(3) 0.6412(3) 0.74165(19) 0.0837(12) Uani 1 1 d . . . . .
S1 S 0.30299(14) 0.77718(12) 0.11290(9) 0.1023(7) Uani 1 1 d D U . . .
O1 O 0.3760(3) 0.8079(3) 0.0896(2) 0.0993(14) Uani 1 1 d D U . . .
O2 O 0.2346(4) 0.7970(4) 0.0748(4) 0.140(2) Uani 1 1 d D U . . .
O3 O 0.2969(5) 0.7817(4) 0.1784(3) 0.159(3) Uani 1 1 d D U . . .
C1 C 0.3114(5) 0.6644(5) 0.0992(3) 0.106(2) Uani 1 1 d D U . . .
F1 F 0.3775(3) 0.6360(3) 0.1192(3) 0.1394(18) Uani 1 1 d D U . . .
F2 F 0.3054(4) 0.6499(3) 0.0395(2) 0.1427(18) Uani 1 1 d D U . . .
F3 F 0.2524(3) 0.6279(3) 0.1280(2) 0.1098(13) Uani 1 1 d D U . . .
S2 S 0.5284(4) 0.8503(3) 0.38153(15) 0.1325(15) Uani 0.708(7) 1 d D U P A 1
O4 O 0.4994(7) 0.8906(5) 0.3310(4) 0.111(3) Uani 0.708(7) 1 d D U P A 1
O5 O 0.4968(6) 0.7620(5) 0.3690(4) 0.112(3) Uani 0.708(7) 1 d D U P A 1
O6 O 0.5125(8) 0.8833(7) 0.4442(6) 0.082(3) Uani 0.708(7) 1 d D U P A 1
C2 C 0.6301(10) 0.8213(10) 0.3835(7) 0.165(5) Uani 0.708(7) 1 d D U P A 1
F4 F 0.6576(7) 0.8985(7) 0.3966(6) 0.184(4) Uani 0.708(7) 1 d D U P A 1
F5 F 0.6357(6) 0.7704(6) 0.4331(5) 0.154(3) Uani 0.708(7) 1 d D U P A 1
F6 F 0.6407(5) 0.7898(5) 0.3261(4) 0.147(3) Uani 0.708(7) 1 d D U P A 1
S2A S 0.5825(4) 0.8316(4) 0.3867(3) 0.076(2) Uani 0.292(7) 1 d D U P A 2
C2A C 0.5784(15) 0.9218(14) 0.3345(10) 0.135(6) Uani 0.292(7) 1 d D U P A 2
F4A F 0.613(2) 0.932(3) 0.2795(13) 0.340(18) Uani 0.292(7) 1 d D U P A 2
F5A F 0.6301(12) 0.9520(12) 0.3771(9) 0.130(6) Uani 0.292(7) 1 d D U P A 2
F6A F 0.5028(16) 0.928(2) 0.3230(16) 0.210(11) Uani 0.292(7) 1 d D U P A 2
O4A O 0.5576(17) 0.7495(12) 0.3664(11) 0.156(7) Uani 0.292(7) 1 d D U P A 2
O5A O 0.6525(14) 0.8206(19) 0.4260(10) 0.153(8) Uani 0.292(7) 1 d D U P A 2
O6A O 0.523(2) 0.8598(18) 0.4371(14) 0.093(8) Uani 0.292(7) 1 d D U P A 2
O20B O 1.1964(9) 0.0408(13) 0.7214(12) 0.144(12) Uani 0.185(3) 1 d DG U P B 1
H20K H 1.201791 0.083832 0.742095 0.217 Uiso 0.185(3) 1 d G U P B 1
C20B C 1.1210(10) 0.0414(12) 0.6887(12) 0.166(18) Uani 0.185(3) 1 d DG U P B 1
H20D H 1.095188 -0.011127 0.694222 0.249 Uiso 0.185(3) 1 d G U P B 1
H20E H 1.128541 0.051167 0.644078 0.249 Uiso 0.185(3) 1 d G U P B 1
H20F H 1.088199 0.084369 0.705794 0.249 Uiso 0.185(3) 1 d G U P B 1
O30 O 0.0203(5) 0.9201(7) 0.5129(3) 0.108(8) Uani 0.188(3) 1 d DG U P C 2
H30 H -0.028368 0.915974 0.517300 0.162 Uiso 0.188(3) 1 d G U P C 2
C30 C 0.0597(4) 0.9181(6) 0.5738(3) 0.095(9) Uani 0.188(3) 1 d DG U P C 2
H30A H 0.106580 0.952451 0.573118 0.142 Uiso 0.188(3) 1 d G U P C 2
H30B H 0.075055 0.862319 0.583873 0.142 Uiso 0.188(3) 1 d G U P C 2
H30C H 0.024121 0.938291 0.605508 0.142 Uiso 0.188(3) 1 d G U P C 2
O30A O 0.0738(4) 0.8160(5) 0.5839(3) 0.162(7) Uani 0.406(3) 1 d DG U P D 3
H30K H 0.120855 0.817487 0.573307 0.244 Uiso 0.406(3) 1 d G U P D 3
C30A C 0.0267(5) 0.8119(7) 0.5324(4) 0.144(8) Uani 0.406(3) 1 d DG U P D 3
H30D H 0.013440 0.866866 0.518254 0.216 Uiso 0.406(3) 1 d G U P D 3
H30E H -0.021492 0.782760 0.542270 0.216 Uiso 0.406(3) 1 d G U P D 3
H30F H 0.053879 0.783237 0.499191 0.216 Uiso 0.406(3) 1 d G U P D 3
O10 O 0.5065(9) 0.5078(13) 0.9892(5) 0.173(11) Uani 0.221(3) 1 d DG U P E 4
H10 H 0.524509 0.460885 0.994856 0.259 Uiso 0.221(3) 1 d G U P E 4
C10 C 0.4808(7) 0.5166(11) 0.9250(5) 0.152(14) Uani 0.221(3) 1 d DG U P E 4
H10A H 0.479640 0.574220 0.913971 0.227 Uiso 0.221(3) 1 d G U P E 4
H10B H 0.428136 0.493575 0.919394 0.227 Uiso 0.221(3) 1 d G U P E 4
H10C H 0.517227 0.488061 0.897970 0.227 Uiso 0.221(3) 1 d G U P E 4
O50 O 0.2590(3) 0.7640(4) 0.6958(2) 0.149(2) Uani 1 1 d G U . . .
H50 H 0.269285 0.762571 0.657597 0.223 Uiso 1 1 d G U . . .
C50 C 0.2399(3) 0.8443(5) 0.7129(3) 0.193(6) Uani 1 1 d G U . . .
H50A H 0.201306 0.843190 0.746067 0.289 Uiso 1 1 d G U . . .
H50B H 0.217804 0.872994 0.676386 0.289 Uiso 1 1 d G U . . .
H50C H 0.287405 0.872252 0.728120 0.289 Uiso 1 1 d G U . . .
H10N H 0.660(4) 0.596(4) 0.515(3) 0.10(2) Uiso 1 1 d D . . . .
H12N H 0.419(4) 0.836(4) 0.480(3) 0.10(2) Uiso 1 1 d D . . . .
H14N H 0.491(3) 0.491(3) 0.663(3) 0.058(16) Uiso 1 1 d D . . . .
loop_
_atom_site_aniso_label
_atom_site_aniso_U_11
_atom_site_aniso_U_22
_atom_site_aniso_U_33
_atom_site_aniso_U_23
_atom_site_aniso_U_13
_atom_site_aniso_U_12
Zn01 0.0910(6) 0.0759(6) 0.0509(5) 0.0017(3) -0.0096(4) 0.0081(3)
C100 0.104(5) 0.100(5) 0.062(4) 0.010(3) -0.009(4) 0.014(4)
C101 0.116(6) 0.129(6) 0.085(6) -0.005(4) -0.012(4) 0.044(5)
C102 0.131(7) 0.152(8) 0.082(6) -0.012(5) -0.005(5) 0.057(6)
C103 0.119(5) 0.124(6) 0.071(4) -0.009(4) 0.000(4) 0.041(5)
C104 0.096(4) 0.085(4) 0.059(4) -0.001(3) -0.006(3) 0.005(4)
C105 0.103(5) 0.084(4) 0.052(3) 0.003(3) -0.005(3) 0.008(4)
C106 0.098(4) 0.072(4) 0.047(3) 0.006(3) 0.002(3) 0.009(3)
C107 0.112(5) 0.069(4) 0.057(4) 0.003(3) -0.012(4) -0.001(4)
C108 0.105(5) 0.080(4) 0.051(3) 0.005(3) -0.016(3) -0.004(3)
C109 0.097(4) 0.083(4) 0.040(3) 0.003(3) -0.004(3) 0.012(3)
C110 0.111(5) 0.066(4) 0.054(3) 0.002(3) -0.011(3) 0.009(3)
C111 0.097(4) 0.083(5) 0.053(3) 0.002(3) -0.010(3) -0.001(3)
C112 0.092(4) 0.085(4) 0.049(3) 0.001(3) -0.006(3) 0.013(3)
C113 0.108(5) 0.125(6) 0.053(4) 0.023(4) -0.001(3) 0.016(4)
C114 0.098(5) 0.059(3) 0.050(4) 0.007(3) -0.007(3) 0.009(3)
C115 0.089(4) 0.059(3) 0.048(3) 0.002(3) -0.011(3) 0.000(3)
C116 0.095(4) 0.061(3) 0.051(3) 0.006(3) -0.013(3) 0.003(3)
C120 0.105(5) 0.082(4) 0.059(4) -0.007(3) -0.023(3) 0.014(4)
C121 0.118(6) 0.094(5) 0.066(5) -0.002(4) -0.032(4) 0.021(4)
C122 0.115(5) 0.109(5) 0.053(4) 0.000(4) -0.017(4) 0.029(5)
C123 0.109(5) 0.095(4) 0.047(4) 0.000(3) -0.015(3) 0.017(4)
C124 0.090(4) 0.080(4) 0.051(4) 0.004(3) -0.006(3) 0.017(3)
C125 0.086(4) 0.085(4) 0.052(4) 0.004(3) -0.011(3) 0.008(3)
C126 0.096(5) 0.066(3) 0.045(3) 0.005(3) -0.011(3) 0.010(3)
C127 0.094(4) 0.069(4) 0.058(4) 0.007(3) -0.004(3) 0.010(3)
C128 0.103(5) 0.068(4) 0.054(3) 0.000(3) -0.008(3) 0.013(3)
C129 0.109(5) 0.059(3) 0.061(4) 0.004(3) -0.021(3) 0.010(3)
C130 0.094(4) 0.077(4) 0.067(4) -0.003(3) -0.019(3) 0.015(3)
C131 0.092(5) 0.076(4) 0.054(3) -0.001(3) -0.010(3) 0.010(3)
C132 0.121(5) 0.063(4) 0.070(4) -0.006(3) -0.033(4) 0.010(3)
C133 0.148(6) 0.066(4) 0.104(5) 0.002(4) -0.051(5) 0.008(4)
C134 0.098(5) 0.070(4) 0.056(4) -0.015(3) -0.018(4) 0.008(3)
C135 0.091(4) 0.062(3) 0.054(3) -0.003(3) -0.015(3) 0.006(3)
C136 0.087(4) 0.068(4) 0.057(4) -0.006(3) -0.017(3) 0.009(3)
C140 0.095(5) 0.106(6) 0.076(4) 0.006(4) -0.005(4) 0.002(4)
C141 0.102(5) 0.105(6) 0.096(5) 0.011(4) 0.005(4) -0.009(5)
C142 0.126(7) 0.093(6) 0.113(6) 0.008(5) -0.012(5) -0.026(5)
C143 0.111(6) 0.082(5) 0.092(5) -0.001(4) 0.002(4) -0.003(4)
C144 0.101(5) 0.079(5) 0.058(4) 0.004(3) -0.012(3) -0.002(4)
C145 0.101(5) 0.083(5) 0.056(3) 0.004(3) -0.007(3) 0.013(4)
C146 0.082(4) 0.063(3) 0.052(3) 0.001(3) -0.008(3) 0.009(3)
C147 0.099(5) 0.070(4) 0.049(3) -0.005(3) -0.008(3) 0.014(3)
C148 0.092(5) 0.080(4) 0.049(3) 0.001(3) -0.009(3) 0.006(3)
C149 0.098(4) 0.067(3) 0.044(3) 0.012(3) -0.008(3) 0.007(3)
C150 0.113(5) 0.066(3) 0.044(3) 0.004(3) -0.004(3) 0.014(3)
C151 0.089(4) 0.072(4) 0.052(3) 0.003(3) -0.011(3) 0.004(3)
C152 0.093(4) 0.083(4) 0.048(3) 0.006(3) -0.004(3) 0.005(3)
C153 0.111(5) 0.103(5) 0.072(4) 0.026(4) -0.004(4) 0.000(4)
C154 0.082(4) 0.084(5) 0.049(4) -0.006(3) -0.009(3) 0.004(3)
C155 0.086(4) 0.070(3) 0.049(3) 0.000(3) -0.009(3) 0.004(3)
C156 0.090(4) 0.066(3) 0.051(4) 0.001(3) -0.016(3) 0.004(3)
N100 0.094(3) 0.084(3) 0.057(3) 0.008(3) -0.002(3) 0.011(3)
N101 0.091(4) 0.071(3) 0.050(3) 0.002(2) -0.007(3) 0.007(3)
N102 0.101(4) 0.078(3) 0.046(3) 0.001(2) -0.006(3) 0.008(3)
N120 0.093(3) 0.080(3) 0.045(3) -0.003(3) -0.019(3) 0.016(3)
N121 0.088(3) 0.076(3) 0.045(3) 0.001(2) -0.010(2) 0.007(2)
N122 0.109(4) 0.064(3) 0.060(3) -0.003(3) -0.027(3) 0.013(3)
N140 0.087(4) 0.086(4) 0.059(3) 0.006(3) -0.006(2) 0.006(3)
N141 0.093(4) 0.067(3) 0.047(3) 0.000(2) -0.015(2) 0.010(3)
N142 0.095(3) 0.072(4) 0.044(3) 0.003(3) -0.008(2) 0.005(3)
O100 0.103(3) 0.072(2) 0.052(2) -0.0035(19) -0.013(2) 0.010(2)
O120 0.098(3) 0.085(3) 0.071(3) -0.007(2) -0.011(3) 0.021(2)
O140 0.112(3) 0.084(3) 0.054(3) -0.007(2) -0.010(2) 0.005(2)
S1 0.1356(17) 0.0960(13) 0.0753(12) -0.0076(9) 0.0046(11) -0.0296(12)
O1 0.122(4) 0.106(3) 0.070(3) 0.014(2) -0.007(2) -0.030(3)
O2 0.122(4) 0.099(4) 0.198(7) 0.052(4) -0.020(4) -0.008(3)
O3 0.221(6) 0.152(5) 0.106(4) -0.038(4) 0.037(4) -0.078(5)
C1 0.131(6) 0.117(6) 0.069(5) 0.021(4) -0.021(4) -0.019(5)
F1 0.111(3) 0.130(4) 0.176(5) 0.041(4) -0.021(3) -0.005(3)
F2 0.218(5) 0.114(3) 0.095(3) -0.001(3) -0.005(3) -0.031(3)
F3 0.114(3) 0.093(3) 0.122(3) 0.031(2) -0.006(3) -0.013(2)
S2 0.187(4) 0.147(3) 0.063(2) 0.0057(18) -0.001(2) 0.065(3)
O4 0.206(8) 0.070(5) 0.055(4) 0.026(4) -0.024(5) 0.020(4)
O5 0.156(7) 0.087(5) 0.092(5) -0.018(4) -0.013(5) -0.014(5)
O6 0.139(6) 0.057(6) 0.049(5) -0.019(4) -0.002(4) 0.033(4)
C2 0.204(11) 0.174(10) 0.117(9) 0.024(9) 0.026(11) -0.007(10)
F4 0.216(10) 0.148(8) 0.191(9) -0.035(7) 0.077(8) -0.054(7)
F5 0.174(7) 0.122(6) 0.163(8) 0.047(6) -0.027(6) 0.053(5)
F6 0.183(7) 0.142(6) 0.119(5) 0.011(4) 0.068(5) 0.060(5)
S2A 0.077(4) 0.075(4) 0.076(4) 0.022(3) 0.013(3) 0.035(3)
C2A 0.171(11) 0.124(11) 0.109(11) 0.000(10) 0.005(10) 0.041(10)
F4A 0.39(4) 0.32(4) 0.31(3) 0.00(3) 0.01(3) 0.02(3)
F5A 0.159(13) 0.113(12) 0.118(11) 0.012(10) 0.003(9) -0.009(11)
F6A 0.27(2) 0.21(2) 0.150(18) -0.001(18) 0.003(17) 0.02(2)
O4A 0.189(15) 0.166(14) 0.114(12) 0.002(11) 0.004(13) 0.064(13)
O5A 0.225(17) 0.168(17) 0.066(11) 0.068(13) -0.009(12) 0.026(16)
O6A 0.175(16) 0.074(17) 0.031(12) -0.003(11) 0.013(9) 0.045(13)
O20B 0.18(3) 0.100(18) 0.15(3) 0.054(19) -0.07(2) -0.027(19)
C20B 0.20(4) 0.10(3) 0.20(4) 0.01(3) -0.03(3) -0.04(3)
O30 0.111(16) 0.119(17) 0.095(16) 0.033(14) 0.023(13) 0.027(14)
C30 0.100(12) 0.104(12) 0.081(12) 0.015(9) 0.018(9) 0.013(9)
O30A 0.233(17) 0.171(14) 0.086(9) 0.034(10) 0.058(10) 0.041(13)
C30A 0.128(16) 0.156(17) 0.149(18) -0.038(16) 0.026(14) 0.022(14)
O10 0.180(13) 0.167(13) 0.171(14) -0.006(10) 0.020(10) -0.008(9)
C10 0.153(15) 0.152(15) 0.150(15) -0.003(5) 0.005(5) -0.002(5)
O50 0.131(5) 0.214(8) 0.101(4) 0.004(5) -0.003(4) -0.004(5)
C50 0.190(11) 0.253(15) 0.135(9) -0.071(10) -0.002(8) 0.061(11)
loop_
_atom_type_symbol
_atom_type_description
_atom_type_scat_dispersion_real
_atom_type_scat_dispersion_imag
_atom_type_scat_source
C C 0.0032 0.0016 'International Tables Vol C Tables 4.2.6.8 and 6.1.1.4'
H H 0.0000 0.0000 'International Tables Vol C Tables 4.2.6.8 and 6.1.1.4'
N N 0.0061 0.0032 'International Tables Vol C Tables 4.2.6.8 and 6.1.1.4'
Zn Zn 0.3032 1.3627 'International Tables Vol C Tables 4.2.6.8 and 6.1.1.4'
S S 0.1203 0.1179 'International Tables Vol C Tables 4.2.6.8 and 6.1.1.4'
O O 0.0106 0.0058 'International Tables Vol C Tables 4.2.6.8 and 6.1.1.4'
F F 0.0168 0.0099 'International Tables Vol C Tables 4.2.6.8 and 6.1.1.4'
loop_
_geom_angle_atom_site_label_1
_geom_angle_atom_site_label_2
_geom_angle_atom_site_label_3
_geom_angle
_geom_angle_site_symmetry_1
_geom_angle_site_symmetry_3
N100 Zn01 N120 98.28(18) . 3_666
N100 Zn01 N140 92.6(2) . .
N120 Zn01 N140 93.7(2) 3_666 .
N100 Zn01 N121 92.70(19) . 3_666
N120 Zn01 N121 76.74(19) 3_666 3_666
N140 Zn01 N121 169.65(17) . 3_666
N100 Zn01 N141 167.7(2) . .
N120 Zn01 N141 88.62(17) 3_666 .
N140 Zn01 N141 76.7(2) . .
N121 Zn01 N141 98.9(2) 3_666 .
N100 Zn01 N101 76.70(19) . .
N120 Zn01 N101 172.41(19) 3_666 .
N140 Zn01 N101 92.25(18) . .
N121 Zn01 N101 97.64(18) 3_666 .
N141 Zn01 N101 97.36(18) . .
N100 C100 C101 122.4(6) . .
N100 C100 H100 118.8 . .
C101 C100 H100 118.8 . .
C102 C101 C100 117.5(7) . .
C102 C101 H101 121.3 . .
C100 C101 H101 121.3 . .
C103 C102 C101 120.4(7) . .
C103 C102 H102 119.8 . .
C101 C102 H102 119.8 . .
C102 C103 C104 119.2(7) . .
C102 C103 H103 120.4 . .
C104 C103 H103 120.4 . .
N100 C104 C103 121.4(6) . .
N100 C104 C105 116.0(6) . .
C103 C104 C105 122.5(6) . .
N101 C105 C104 120.1(5) . .
N101 C105 H105 119.9 . .
C104 C105 H105 119.9 . .
C111 C106 C107 120.2(6) . .
C111 C106 N101 119.2(6) . .
C107 C106 N101 120.6(5) . .
C106 C107 C108 119.4(6) . .
C106 C107 H107 120.3 . .
C108 C107 H107 120.3 . .
C107 C108 C109 121.1(6) . .
C107 C108 H108 119.4 . .
C109 C108 H108 119.4 . .
C110 C109 C108 118.6(6) . .
C110 C109 C112 121.8(6) . .
C108 C109 C112 119.7(6) . .
C109 C110 C111 121.0(6) . .
C109 C110 H110 119.5 . .
C111 C110 H110 119.5 . .
C106 C111 C110 119.6(6) . .
C106 C111 H111 120.2 . .
C110 C111 H111 120.2 . .
N102 C112 C109 108.5(5) . .
N102 C112 C113 110.4(5) . .
C109 C112 C113 112.8(5) . .
N102 C112 H112 108.3 . .
C109 C112 H112 108.3 . .
C113 C112 H112 108.3 . .
C112 C113 H11A 109.5 . .
C112 C113 H11B 109.5 . .
H11A C113 H11B 109.5 . .
C112 C113 H11C 109.5 . .
H11A C113 H11C 109.5 . .
H11B C113 H11C 109.5 . .
O100 C114 N102 122.9(5) . .
O100 C114 C115 120.9(6) . .
N102 C114 C115 116.1(5) . .
C156 C115 C116 118.8(5) . .
C156 C115 C114 120.2(5) . .
C116 C115 C114 120.7(5) . .
C135 C116 C115 119.9(5) . .
C135 C116 H116 120.0 . .
C115 C116 H116 120.0 . .
N120 C120 C121 121.3(7) . .
N120 C120 H120 119.3 . .
C121 C120 H120 119.3 . .
C122 C121 C120 119.9(7) . .
C122 C121 H121 120.1 . .
C120 C121 H121 120.1 . .
C121 C122 C123 119.5(6) . .
C121 C122 H122 120.2 . .
C123 C122 H122 120.2 . .
C124 C123 C122 117.6(7) . .
C124 C123 H123 121.2 . .
C122 C123 H123 121.2 . .
N120 C124 C123 123.4(6) . .
N120 C124 C125 115.8(5) . .
C123 C124 C125 120.8(7) . .
N121 C125 C124 119.9(6) . .
N121 C125 H125 120.0 . .
C124 C125 H125 120.0 . .
C131 C126 C127 119.5(6) . .
C131 C126 N121 120.9(5) . .
C127 C126 N121 119.6(6) . .
C128 C127 C126 119.8(6) . .
C128 C127 H127 120.1 . .
C126 C127 H127 120.1 . .
C129 C128 C127 120.9(6) . .
C129 C128 H128 119.5 . .
C127 C128 H128 119.5 . .
C128 C129 C130 119.2(6) . .
C128 C129 C132 121.3(6) . .
C130 C129 C132 119.6(7) . .
C131 C130 C129 120.8(6) . .
C131 C130 H130 119.6 . .
C129 C130 H130 119.6 . .
C130 C131 C126 119.8(6) . .
C130 C131 H131 120.1 . .
C126 C131 H131 120.1 . .
N122 C132 C129 108.6(5) . .
N122 C132 C133 108.5(6) . .
C129 C132 C133 112.6(5) . .
N122 C132 H132 109.0 . .
C129 C132 H132 109.0 . .
C133 C132 H132 109.0 . .
C132 C133 H13A 109.5 . .
C132 C133 H13B 109.5 . .
H13A C133 H13B 109.5 . .
C132 C133 H13C 109.5 . .
H13A C133 H13C 109.5 . .
H13B C133 H13C 109.5 . .
O120 C134 N122 124.0(6) . .
O120 C134 C135 121.4(6) . .
N122 C134 C135 114.6(7) . .
C116 C135 C136 120.9(5) . .
C116 C135 C134 120.9(5) . .
C136 C135 C134 118.0(6) . .
C155 C136 C135 119.2(6) . .
C155 C136 H136 120.4 . .
C135 C136 H136 120.4 . .
N140 C140 C141 122.2(7) . .
N140 C140 H140 118.9 . .
C141 C140 H140 118.9 . .
C142 C141 C140 119.2(8) . .
C142 C141 H141 120.4 . .
C140 C141 H141 120.4 . .
C141 C142 C143 119.5(8) . .
C141 C142 H142 120.3 . .
C143 C142 H142 120.3 . .
C144 C143 C142 118.5(7) . .
C144 C143 H143 120.7 . .
C142 C143 H143 120.7 . .
N140 C144 C143 122.9(7) . .
N140 C144 C145 115.0(6) . .
C143 C144 C145 122.1(7) . .
N141 C145 C144 121.4(6) . .
N141 C145 H145 119.3 . .
C144 C145 H145 119.3 . .
C147 C146 C151 119.7(6) . .
C147 C146 N141 119.1(5) . .
C151 C146 N141 121.3(5) . .
C146 C147 C148 120.6(5) . .
C146 C147 H147 119.7 . .
C148 C147 H147 119.7 . .
C147 C148 C149 120.8(6) . .
C147 C148 H148 119.6 . .
C149 C148 H148 119.6 . .
C150 C149 C148 117.5(6) . .
C150 C149 C152 121.7(5) . .
C148 C149 C152 120.8(5) . .
C151 C150 C149 121.7(5) . .
C151 C150 H150 119.2 . .
C149 C150 H150 119.2 . .
C150 C151 C146 119.7(5) . .
C150 C151 H151 120.1 . .
C146 C151 H151 120.1 . .
N142 C152 C149 108.5(4) . .
N142 C152 C153 109.3(5) . .
C149 C152 C153 113.6(5) . .
N142 C152 H152 108.5 . .
C149 C152 H152 108.5 . .
C153 C152 H152 108.5 . .
C152 C153 H15A 109.5 . .
C152 C153 H15B 109.5 . .
H15A C153 H15B 109.5 . .
C152 C153 H15C 109.5 . .
H15A C153 H15C 109.5 . .
H15B C153 H15C 109.5 . .
O140 C154 N142 125.4(6) . .
O140 C154 C155 120.2(6) . .
N142 C154 C155 114.4(5) . .
C136 C155 C156 119.6(5) . .
C136 C155 C154 122.1(5) . .
C156 C155 C154 118.2(5) . .
C115 C156 C155 121.5(5) . .
C115 C156 H156 119.2 . .
C155 C156 H156 119.2 . .
C100 N100 C104 119.1(6) . .
C100 N100 Zn01 126.7(4) . .
C104 N100 Zn01 114.1(4) . .
C105 N101 C106 119.2(5) . .
C105 N101 Zn01 112.9(4) . .
C106 N101 Zn01 127.8(4) . .
C114 N102 C112 121.9(5) . .
C114 N102 H10N 125(4) . .
C112 N102 H10N 113(5) . .
C120 N120 C124 118.3(5) . .
C120 N120 Zn01 127.4(5) . 3_666
C124 N120 Zn01 113.6(4) . 3_666
C125 N121 C126 117.6(5) . .
C125 N121 Zn01 113.2(4) . 3_666
C126 N121 Zn01 129.1(4) . 3_666
C134 N122 C132 119.9(6) . .
C134 N122 H12N 117(4) . .
C132 N122 H12N 120(4) . .
C144 N140 C140 117.7(6) . .
C144 N140 Zn01 113.9(4) . .
C140 N140 Zn01 128.4(5) . .
C145 N141 C146 117.5(5) . .
C145 N141 Zn01 112.4(4) . .
C146 N141 Zn01 129.1(4) . .
C154 N142 C152 123.6(5) . .
C154 N142 H14N 119(4) . .
C152 N142 H14N 115(4) . .
O3 S1 O2 118.0(5) . .
O3 S1 O1 114.3(4) . .
O2 S1 O1 114.6(3) . .
O3 S1 C1 102.3(4) . .
O2 S1 C1 101.5(4) . .
O1 S1 C1 102.9(4) . .
F1 C1 F2 107.7(8) . .
F1 C1 F3 110.3(6) . .
F2 C1 F3 109.1(6) . .
F1 C1 S1 112.2(6) . .
F2 C1 S1 109.2(5) . .
F3 C1 S1 108.2(6) . .
O4 S2 O6 118.1(7) . .
O4 S2 O5 101.7(6) . .
O6 S2 O5 115.1(7) . .
O4 S2 C2 118.9(8) . .
O6 S2 C2 106.1(8) . .
O5 S2 C2 94.8(7) . .
F6 C2 F5 117.7(13) . .
F6 C2 F4 119.1(12) . .
F5 C2 F4 113.4(14) . .
F6 C2 S2 103.5(11) . .
F5 C2 S2 103.3(10) . .
F4 C2 S2 94.7(11) . .
O5A S2A O4A 106.2(15) . .
O5A S2A O6A 100.2(16) . .
O4A S2A O6A 106.7(17) . .
O5A S2A C2A 117.6(14) . .
O4A S2A C2A 123.4(12) . .
O6A S2A C2A 99.2(13) . .
O5A S2A F5A 82.2(13) . .
O4A S2A F5A 156.9(12) . .
O6A S2A F5A 92.5(14) . .
C2A S2A F5A 38.2(6) . .
F6A C2A F4A 106(2) . .
F6A C2A F5A 136(3) . .
F4A C2A F5A 105(2) . .
F6A C2A S2A 101.6(19) . .
F4A C2A S2A 128(3) . .
F5A C2A S2A 83.0(12) . .
C2A F5A S2A 58.8(11) . .
C20B O20B H20K 109.5 . .
O20B C20B H20D 109.5 . .
O20B C20B H20E 109.5 . .
H20D C20B H20E 109.5 . .
O20B C20B H20F 109.5 . .
H20D C20B H20F 109.5 . .
H20E C20B H20F 109.5 . .
C30 O30 H30 109.5 . .
O30 C30 H30A 109.5 . .
O30 C30 H30B 109.5 . .
H30A C30 H30B 109.5 . .
O30 C30 H30C 109.5 . .
H30A C30 H30C 109.5 . .
H30B C30 H30C 109.5 . .
C30A O30A H30K 109.5 . .
O30A C30A H30D 109.5 . .
O30A C30A H30E 109.5 . .
H30D C30A H30E 109.5 . .
O30A C30A H30F 109.5 . .
H30D C30A H30F 109.5 . .
H30E C30A H30F 109.5 . .
C10 O10 H10 109.5 . .
C10 O10 H10 98.6(10) . 3_667
H10 O10 H10 139.3 . 3_667
O10 C10 H10A 109.5 . .
O10 C10 H10A 116.3 3_667 .
O10 C10 H10B 109.5 . .
O10 C10 H10B 96.8 3_667 .
H10A C10 H10B 109.5 . .
O10 C10 H10C 109.5 . .
O10 C10 H10C 114.5 3_667 .
H10A C10 H10C 109.5 . .
H10B C10 H10C 109.5 . .
C50 O50 H50 109.5 . .
O50 C50 H50A 109.5 . .
O50 C50 H50B 109.5 . .
H50A C50 H50B 109.5 . .
O50 C50 H50C 109.5 . .
H50A C50 H50C 109.5 . .
H50B C50 H50C 109.5 . .
loop_
_geom_bond_atom_site_label_1
_geom_bond_atom_site_label_2
_geom_bond_distance
_geom_bond_site_symmetry_2
Zn01 N100 2.139(5) .
Zn01 N120 2.166(5) 3_666
Zn01 N140 2.178(6) .
Zn01 N121 2.186(5) 3_666
Zn01 N141 2.187(5) .
Zn01 N101 2.205(5) .
C100 N100 1.324(8) .
C100 C101 1.389(10) .
C100 H100 0.9500 .
C101 C102 1.383(11) .
C101 H101 0.9500 .
C102 C103 1.352(10) .
C102 H102 0.9500 .
C103 C104 1.376(10) .
C103 H103 0.9500 .
C104 N100 1.347(8) .
C104 C105 1.468(9) .
C105 N101 1.262(8) .
C105 H105 0.9500 .
C106 C111 1.380(9) .
C106 C107 1.391(9) .
C106 N101 1.435(8) .
C107 C108 1.392(9) .
C107 H107 0.9500 .
C108 C109 1.395(9) .
C108 H108 0.9500 .
C109 C110 1.379(9) .
C109 C112 1.527(8) .
C110 C111 1.403(9) .
C110 H110 0.9500 .
C111 H111 0.9500 .
C112 N102 1.473(8) .
C112 C113 1.532(9) .
C112 H112 1.0000 .
C113 H11A 0.9800 .
C113 H11B 0.9800 .
C113 H11C 0.9800 .
C114 O100 1.237(7) .
C114 N102 1.345(8) .
C114 C115 1.479(9) .
C115 C156 1.385(8) .
C115 C116 1.398(8) .
C116 C135 1.385(8) .
C116 H116 0.9500 .
C120 N120 1.334(8) .
C120 C121 1.395(10) .
C120 H120 0.9500 .
C121 C122 1.349(11) .
C121 H121 0.9500 .
C122 C123 1.394(10) .
C122 H122 0.9500 .
C123 C124 1.375(9) .
C123 H123 0.9500 .
C124 N120 1.342(8) .
C124 C125 1.474(9) .
C125 N121 1.280(8) .
C125 H125 0.9500 .
C126 C131 1.387(9) .
C126 C127 1.389(8) .
C126 N121 1.426(8) .
C127 C128 1.387(9) .
C127 H127 0.9500 .
C128 C129 1.363(9) .
C128 H128 0.9500 .
C129 C130 1.392(9) .
C129 C132 1.529(9) .
C130 C131 1.377(9) .
C130 H130 0.9500 .
C131 H131 0.9500 .
C132 N122 1.473(8) .
C132 C133 1.544(11) .
C132 H132 1.0000 .
C133 H13A 0.9800 .
C133 H13B 0.9800 .
C133 H13C 0.9800 .
C134 O120 1.211(8) .
C134 N122 1.353(9) .
C134 C135 1.526(9) .
C135 C136 1.402(8) .
C136 C155 1.385(8) .
C136 H136 0.9500 .
C140 N140 1.358(9) .
C140 C141 1.372(11) .
C140 H140 0.9500 .
C141 C142 1.370(12) .
C141 H141 0.9500 .
C142 C143 1.381(11) .
C142 H142 0.9500 .
C143 C144 1.373(10) .
C143 H143 0.9500 .
C144 N140 1.344(8) .
C144 C145 1.470(10) .
C145 N141 1.278(8) .
C145 H145 0.9500 .
C146 C147 1.377(8) .
C146 C151 1.386(8) .
C146 N141 1.430(8) .
C147 C148 1.377(9) .
C147 H147 0.9500 .
C148 C149 1.404(8) .
C148 H148 0.9500 .
C149 C150 1.391(9) .
C149 C152 1.513(9) .
C150 C151 1.380(9) .
C150 H150 0.9500 .
C151 H151 0.9500 .
C152 N142 1.466(7) .
C152 C153 1.531(9) .
C152 H152 1.0000 .
C153 H15A 0.9800 .
C153 H15B 0.9800 .
C153 H15C 0.9800 .
C154 O140 1.233(7) .
C154 N142 1.322(8) .
C154 C155 1.518(9) .
C155 C156 1.393(9) .
C156 H156 0.9500 .
N102 H10N 0.92(7) .
N122 H12N 1.04(6) .
N142 H14N 0.85(5) .
S1 O3 1.409(6) .
S1 O2 1.443(6) .
S1 O1 1.444(5) .
S1 C1 1.890(8) .
C1 F1 1.284(8) .
C1 F2 1.301(8) .
C1 F3 1.336(8) .
S2 O4 1.350(8) .
S2 O6 1.478(12) .
S2 O5 1.574(8) .
S2 C2 1.798(18) .
C2 F6 1.349(15) .
C2 F5 1.353(15) .
C2 F4 1.383(15) .
S2A O5A 1.45(2) .
S2A O4A 1.48(2) .
S2A O6A 1.57(2) .
S2A C2A 1.861(19) .
S2A F5A 2.16(2) .
C2A F6A 1.310(18) .
C2A F4A 1.338(18) .
C2A F5A 1.346(18) .
O20B C20B 1.4457 .
O20B H20K 0.8400 .
C20B H20D 0.9800 .
C20B H20E 0.9800 .
C20B H20F 0.9800 .
O30 C30 1.4488 .
O30 H30 0.8400 .
C30 H30A 0.9800 .
C30 H30B 0.9800 .
C30 H30C 0.9801 .
O30A C30A 1.3472 .
O30A H30K 0.8400 .
C30A H30D 0.9800 .
C30A H30E 0.9800 .
C30A H30F 0.9800 .
O10 C10 1.4347 .
O10 H10 0.8400 .
O10 H10 0.82(3) 3_667
C10 H10A 0.9800 .
C10 H10B 0.9801 .
C10 H10C 0.9800 .
O50 C50 1.4143 .
O50 H50 0.8400 .
C50 H50A 0.9800 .
C50 H50B 0.9800 .
C50 H50C 0.9800 .
loop_
_geom_hbond_atom_site_label_D
_geom_hbond_atom_site_label_H
_geom_hbond_atom_site_label_A
_geom_hbond_distance_DH
_geom_hbond_distance_HA
_geom_hbond_distance_DA
_geom_hbond_angle_DHA
_geom_hbond_site_symmetry_A
N142 H14N O100 0.85(5) 2.10(5) 2.944(7) 176(5) 3_666
O50 H50 O120 0.84 1.86 2.689(7) 167.5 .
loop_
_geom_torsion_atom_site_label_1
_geom_torsion_atom_site_label_2
_geom_torsion_atom_site_label_3
_geom_torsion_atom_site_label_4
_geom_torsion
_geom_torsion_site_symmetry_4
N100 C100 C101 C102 -0.4(13) .
C100 C101 C102 C103 -0.6(15) .
C101 C102 C103 C104 1.6(15) .
C102 C103 C104 N100 -1.8(12) .
C102 C103 C104 C105 -178.8(8) .
N100 C104 C105 N101 2.0(9) .
C103 C104 C105 N101 179.2(7) .
C111 C106 C107 C108 -1.0(9) .
N101 C106 C107 C108 175.7(6) .
C106 C107 C108 C109 0.7(9) .
C107 C108 C109 C110 0.7(9) .
C107 C108 C109 C112 -178.9(6) .
C108 C109 C110 C111 -1.6(9) .
C112 C109 C110 C111 177.9(5) .
C107 C106 C111 C110 0.1(9) .
N101 C106 C111 C110 -176.7(5) .
C109 C110 C111 C106 1.3(9) .
C110 C109 C112 N102 -60.3(7) .
C108 C109 C112 N102 119.2(6) .
C110 C109 C112 C113 62.3(8) .
C108 C109 C112 C113 -118.1(7) .
O100 C114 C115 C156 133.5(6) .
N102 C114 C115 C156 -43.8(8) .
O100 C114 C115 C116 -40.1(8) .
N102 C114 C115 C116 142.6(6) .
C156 C115 C116 C135 1.7(8) .
C114 C115 C116 C135 175.4(5) .
N120 C120 C121 C122 -2.8(10) .
C120 C121 C122 C123 0.9(10) .
C121 C122 C123 C124 0.9(10) .
C122 C123 C124 N120 -0.8(9) .
C122 C123 C124 C125 177.8(6) .
N120 C124 C125 N121 5.3(8) .
C123 C124 C125 N121 -173.5(6) .
C131 C126 C127 C128 -1.2(8) .
N121 C126 C127 C128 176.8(5) .
C126 C127 C128 C129 -1.7(9) .
C127 C128 C129 C130 3.6(9) .
C127 C128 C129 C132 -175.6(5) .
C128 C129 C130 C131 -2.6(9) .
C132 C129 C130 C131 176.6(5) .
C129 C130 C131 C126 -0.3(9) .
C127 C126 C131 C130 2.2(8) .
N121 C126 C131 C130 -175.9(5) .
C128 C129 C132 N122 127.1(6) .
C130 C129 C132 N122 -52.1(8) .
C128 C129 C132 C133 -112.6(7) .
C130 C129 C132 C133 68.2(8) .
C115 C116 C135 C136 -2.3(9) .
C115 C116 C135 C134 -177.7(5) .
O120 C134 C135 C116 139.3(6) .
N122 C134 C135 C116 -40.3(8) .
O120 C134 C135 C136 -36.2(8) .
N122 C134 C135 C136 144.2(5) .
C116 C135 C136 C155 0.7(9) .
C134 C135 C136 C155 176.3(5) .
N140 C140 C141 C142 2.1(11) .
C140 C141 C142 C143 -3.9(12) .
C141 C142 C143 C144 4.0(11) .
C142 C143 C144 N140 -2.4(10) .
C142 C143 C144 C145 178.6(6) .
N140 C144 C145 N141 -3.8(8) .
C143 C144 C145 N141 175.3(6) .
C151 C146 C147 C148 1.9(8) .
N141 C146 C147 C148 -177.1(5) .
C146 C147 C148 C149 -0.4(9) .
C147 C148 C149 C150 -1.3(8) .
C147 C148 C149 C152 176.2(5) .
C148 C149 C150 C151 1.5(8) .
C152 C149 C150 C151 -176.0(5) .
C149 C150 C151 C146 0.0(8) .
C147 C146 C151 C150 -1.7(8) .
N141 C146 C151 C150 177.3(5) .
C150 C149 C152 N142 113.2(6) .
C148 C149 C152 N142 -64.2(7) .
C150 C149 C152 C153 -125.1(6) .
C148 C149 C152 C153 57.5(7) .
C135 C136 C155 C156 1.3(9) .
C135 C136 C155 C154 -179.8(6) .
O140 C154 C155 C136 -45.6(9) .
N142 C154 C155 C136 135.6(6) .
O140 C154 C155 C156 133.3(6) .
N142 C154 C155 C156 -45.5(8) .
C116 C115 C156 C155 0.3(9) .
C114 C115 C156 C155 -173.4(6) .
C136 C155 C156 C115 -1.8(9) .
C154 C155 C156 C115 179.2(5) .
C101 C100 N100 C104 0.2(11) .
C101 C100 N100 Zn01 -178.7(6) .
C103 C104 N100 C100 0.9(10) .
C105 C104 N100 C100 178.1(6) .
C103 C104 N100 Zn01 179.9(6) .
C105 C104 N100 Zn01 -2.9(7) .
C104 C105 N101 C106 -177.9(6) .
C104 C105 N101 Zn01 -0.1(8) .
C111 C106 N101 C105 -117.5(7) .
C107 C106 N101 C105 65.7(8) .
C111 C106 N101 Zn01 65.0(7) .
C107 C106 N101 Zn01 -111.7(6) .
O100 C114 N102 C112 -4.5(9) .
C115 C114 N102 C112 172.7(5) .
C109 C112 N102 C114 -157.7(5) .
C113 C112 N102 C114 78.2(7) .
C121 C120 N120 C124 2.8(9) .
C121 C120 N120 Zn01 -166.7(5) 3_666
C123 C124 N120 C120 -1.0(9) .
C125 C124 N120 C120 -179.7(5) .
C123 C124 N120 Zn01 170.0(5) 3_666
C125 C124 N120 Zn01 -8.7(6) 3_666
C124 C125 N121 C126 179.8(5) .
C124 C125 N121 Zn01 1.1(7) 3_666
C131 C126 N121 C125 -58.8(7) .
C127 C126 N121 C125 123.2(6) .
C131 C126 N121 Zn01 119.7(5) 3_666
C127 C126 N121 Zn01 -58.3(7) 3_666
O120 C134 N122 C132 -10.7(8) .
C135 C134 N122 C132 168.8(5) .
C129 C132 N122 C134 -78.3(7) .
C133 C132 N122 C134 159.0(5) .
C143 C144 N140 C140 0.7(9) .
C145 C144 N140 C140 179.7(5) .
C143 C144 N140 Zn01 178.3(5) .
C145 C144 N140 Zn01 -2.6(6) .
C141 C140 N140 C144 -0.5(9) .
C141 C140 N140 Zn01 -177.7(5) .
C144 C145 N141 C146 177.7(5) .
C144 C145 N141 Zn01 7.9(7) .
C147 C146 N141 C145 135.9(5) .
C151 C146 N141 C145 -43.0(7) .
C147 C146 N141 Zn01 -56.3(6) .
C151 C146 N141 Zn01 124.8(5) .
O140 C154 N142 C152 -20.6(10) .
C155 C154 N142 C152 158.1(5) .
C149 C152 N142 C154 -81.9(7) .
C153 C152 N142 C154 153.8(6) .
O3 S1 C1 F1 -70.3(7) .
O2 S1 C1 F1 167.4(6) .
O1 S1 C1 F1 48.5(6) .
O3 S1 C1 F2 170.3(6) .
O2 S1 C1 F2 48.0(7) .
O1 S1 C1 F2 -70.9(6) .
O3 S1 C1 F3 51.6(6) .
O2 S1 C1 F3 -70.7(5) .
O1 S1 C1 F3 170.4(4) .
O4 S2 C2 F6 -45.7(12) .
O6 S2 C2 F6 178.4(9) .
O5 S2 C2 F6 60.5(10) .
O4 S2 C2 F5 -169.0(8) .
O6 S2 C2 F5 55.1(12) .
O5 S2 C2 F5 -62.8(10) .
O4 S2 C2 F4 75.7(11) .
O6 S2 C2 F4 -60.2(11) .
O5 S2 C2 F4 -178.1(9) .
O5A S2A C2A F6A -160(2) .
O4A S2A C2A F6A 64(3) .
O6A S2A C2A F6A -53(3) .
F5A S2A C2A F6A -136(3) .
O5A S2A C2A F4A 79(3) .
O4A S2A C2A F4A -57(3) .
O6A S2A C2A F4A -174(3) .
F5A S2A C2A F4A 103(3) .
O5A S2A C2A F5A -24(2) .
O4A S2A C2A F5A -160.6(18) .
O6A S2A C2A F5A 82(2) .
F6A C2A F5A S2A 99(3) .
F4A C2A F5A S2A -127(3) .
