#------------------------------------------------------------------------------
#$Date: 2019-11-03 16:32:52 +0200 (Sun, 03 Nov 2019) $
#$Revision: 221882 $
#$URL: file:///home/coder/svn-repositories/cod/cif/4/12/88/4128817.cif $
#------------------------------------------------------------------------------
#
# This file is available in the Crystallography Open Database (COD),
# http://www.crystallography.net/
#
# All data on this site have been placed in the public domain by the
# contributors.
#
data_4128817
loop_
_publ_author_name
'Chen, Shoushun'
'Mukherjee, Soumya'
'Lucier, Bryan E. G.'
'Guo, Ying'
'Wong, Y. T. Angel'
'Terskikh, Victor V.'
'Zaworotko, Michael J.'
'Huang, Yining'
_publ_section_title
;
 Cleaving Carboxyls: Understanding Thermally Triggered Hierarchical Pores
 in the Metal-Organic Framework MIL-121.
;
_journal_issue                   36
_journal_name_full               'Journal of the American Chemical Society'
_journal_page_first              14257
_journal_page_last               14271
_journal_paper_doi               10.1021/jacs.9b06194
_journal_volume                  141
_journal_year                    2019
_chemical_formula_sum            'C8 H4 Al O7.61'
_chemical_formula_weight         248.81
_space_group_crystal_system      orthorhombic
_space_group_IT_number           74
_space_group_name_Hall           '-I 2b 2'
_space_group_name_H-M_alt        'I m m a'
_atom_sites_solution_hydrogens   mixed
_atom_sites_solution_primary     dual
_atom_sites_solution_secondary   difmap
_audit_creation_method           SHELXL-2016/6
_cell_angle_alpha                90
_cell_angle_beta                 90
_cell_angle_gamma                90
_cell_formula_units_Z            4
_cell_length_a                   16.188(5)
_cell_length_b                   6.624(2)
_cell_length_c                   13.520(6)
_cell_measurement_reflns_used    1474
_cell_measurement_temperature    110
_cell_measurement_theta_max      26.03
_cell_measurement_theta_min      3.01
_cell_volume                     1449.7(9)
_computing_cell_refinement       SAINT
_computing_data_collection       Apex3
_computing_data_reduction        SAINT
_computing_molecular_graphics    Mercury
_computing_publication_material  cif2tables.py
_computing_structure_refinement  SHELXL
_computing_structure_solution    SHELXT
_diffrn_ambient_temperature      110
_diffrn_detector                 'CCD plate'
_diffrn_detector_type            'Bruker Apex2'
_diffrn_measured_fraction_theta_full 0.999
_diffrn_measured_fraction_theta_max 0.999
_diffrn_measurement_device       '\k-geometry diffractometer'
_diffrn_measurement_device_type  'Bruker Kappa Axis Apex2'
_diffrn_measurement_method       'phi and omega scans'
_diffrn_radiation_type           MoK\a
_diffrn_radiation_wavelength     0.71073
_diffrn_reflns_av_R_equivalents  0.0884
_diffrn_reflns_av_unetI/netI     0.0360
_diffrn_reflns_Laue_measured_fraction_full 0.999
_diffrn_reflns_Laue_measured_fraction_max 0.999
_diffrn_reflns_limit_h_max       21
_diffrn_reflns_limit_h_min       -21
_diffrn_reflns_limit_k_max       8
_diffrn_reflns_limit_k_min       -8
_diffrn_reflns_limit_l_max       18
_diffrn_reflns_limit_l_min       -18
_diffrn_reflns_number            14798
_diffrn_reflns_point_group_measured_fraction_full 0.999
_diffrn_reflns_point_group_measured_fraction_max 0.999
_diffrn_reflns_theta_full        25.242
_diffrn_reflns_theta_max         28.731
_diffrn_reflns_theta_min         2.516
_diffrn_source                   'sealed tube'
_exptl_absorpt_coefficient_mu    0.157
_exptl_absorpt_correction_T_max  0.7458
_exptl_absorpt_correction_T_min  0.6295
_exptl_absorpt_correction_type   multi-scan
_exptl_absorpt_process_details   SADABS
_exptl_crystal_colour            colourless
_exptl_crystal_density_diffrn    1.140
_exptl_crystal_description       prism
_exptl_crystal_F_000             503
_exptl_crystal_size_max          0.255
_exptl_crystal_size_mid          0.226
_exptl_crystal_size_min          0.099
_refine_diff_density_max         0.606
_refine_diff_density_min         -0.340
_refine_diff_density_rms         0.093
_refine_ls_extinction_method     none
_refine_ls_goodness_of_fit_ref   1.452
_refine_ls_hydrogen_treatment    mixed
_refine_ls_matrix_type           full
_refine_ls_number_parameters     79
_refine_ls_number_reflns         1058
_refine_ls_number_restraints     56
_refine_ls_restrained_S_all      1.449
_refine_ls_R_factor_all          0.0765
_refine_ls_R_factor_gt           0.0665
_refine_ls_shift/su_max          0.126
_refine_ls_shift/su_mean         0.020
_refine_ls_structure_factor_coef Fsqd
_refine_ls_weighting_details
'w=1/[\s^2^(Fo^2^)+(0.1000P)^2^] where P=(Fo^2^+2Fc^2^)/3'
_refine_ls_weighting_scheme      calc
_refine_ls_wR_factor_gt          0.1912
_refine_ls_wR_factor_ref         0.1975
_reflns_Friedel_coverage         0.000
_reflns_number_gt                869
_reflns_number_total             1058
_reflns_threshold_expression     'I > 2\s(I)'
_cod_data_source_file            ja9b06194_si_002.cif
_cod_data_source_block           b19209
_cod_original_cell_volume        1449.8(9)
_cod_database_code               4128817
_shelx_shelxl_version_number     2016/6
_shelx_space_group_comment
;
The symmetry employed for this shelxl refinement is uniquely defined
by the following loop, which should always be used as a source of
symmetry information in preference to the above space-group names.
They are only intended as comments.
;
_shelx_estimated_absorpt_t_min   0.961
_shelx_estimated_absorpt_t_max   0.985
_shelx_res_file
;
TITL b19209 in Imma
    b19209.res
    created by SHELXL-2016/6 at 13:31:57 on 07-May-2019
CELL 0.71073 16.18790    6.62425   13.51970   90.0000   90.0000   90.0000
ZERR     4    0.00496    0.00243    0.00600    0.0000    0.0000    0.0000
LATT  2
SYMM -X, 1/2-Y, Z
SYMM -X, 1/2+Y, -Z
SYMM X, -Y, -Z
SFAC  C  H  O    AL
UNIT 32 16 30.43  4
TEMP -163.110
SIZE 0.099 0.226 0.255
ACTA
REM  Operators for generating equivalent atoms:
EQIV $1   -x+1, -y+1/2, z
EQIV $2   -x+1, -y+1, -z+1
EQIV $3   x, -y+3/2, z
EQIV $4   x, -y+1, -z+1
EQIV $5   -x+1, y, z
EQIV $6   -x+3/2, y, -z+3/2
REM aryl group disorder
FREE C3 C3'
FREE C3 C3"
FREE C3 C3'_$6
FREE C3 C3"_$6
FREE C3' C3"
FREE C3' C3_$6
FREE C3' C3'_$3
FREE C3" C3"_$3
FREE C3" C3_$6
FREE C3" C3'
RIGU
ISOR 0.005 0.005 O2X
REM put the hammer down on C3' so its ADP is more physically reasonable
EADP C3" C3'
L.S. 12 4    8
FMAP  2
PLAN 25
BOND $H
CONF
HTAB
SUMP 1.0 0.001 1.0 2 1.0 3 1.0 4
SUMP 1.0 0.001 1.0 5 1.0 6 1.0 7
ABIN
WGHT    0.100000
FVAR       0.19782   0.60062   0.19147   0.20764   0.21420   0.02515   0.76065
AL1   4    0.500000    0.500000    0.500000    10.25000    0.01192    0.01500 =
         0.01416   -0.00123    0.00000    0.00000
O1    3    0.500000    0.250000    0.559002    10.25000    0.01921    0.01588 =
         0.01437    0.00000    0.00000    0.00000
AFIX   3
H1    2    0.500000    0.250000    0.612896    10.25000    0.04912
AFIX   0
O2    3    0.584114    0.581056    0.590341    11.00000    0.02592    0.01889 =
         0.03061    0.00188   -0.01279   -0.00337
C1    1    0.610956    0.750000    0.616278    10.50000    0.01796    0.02250 =
         0.02160    0.00000   -0.00610    0.00000
C2    1    0.683115    0.750000    0.686043    10.50000    0.02531    0.01820 =
         0.03542    0.00000   -0.01622    0.00000
C3    1    0.715963    0.929227    0.718858    21.00000    0.05028    0.01438 =
         0.07314   -0.00040   -0.04458   -0.00009
AFIX  43
H3    2    0.691956    1.053527    0.698808    21.00000   -1.20000
AFIX   0
C3'   1    0.679628    0.855779    0.773041    31.00000    0.04419    0.04620 =
         0.06167   -0.00503   -0.03378   -0.00331
AFIX  43
H3'   2    0.630089    0.922241    0.791980    31.00000   -1.20000
AFIX   0
C3"   1    0.751258    0.865191    0.666839    41.00000    0.04419    0.04620 =
         0.06167   -0.00503   -0.03378   -0.00331
AFIX  43
H3"   2    0.751210    0.953154    0.611342    41.00000   -1.20000
AFIX   0
PART 1
O1X   3    0.653752    1.250000    0.702239    50.50000    0.08688    0.05605 =
         0.11027    0.00000   -0.07116    0.00000
PART 2
O2X   3    0.698371    1.250000    0.638468    60.50000   -0.00604   -0.00642 =
        -0.00634    0.00000    0.00135    0.00000
PART 3
O3X   3    0.738801    1.158266    0.558839    70.50000    0.31059    0.31322 =
         0.61296    0.02009   -0.28717   -0.17361
PART 0
HKLF 4




REM  b19209 in Imma
REM R1 =  0.0665 for     869 Fo > 4sig(Fo)  and  0.0765 for all    1058 data
REM     79 parameters refined using     56 restraints

END

WGHT      0.1268      1.4834

REM No hydrogen bonds found for HTAB generation

REM Highest difference peak  0.606,  deepest hole -0.340,  1-sigma level  0.093
Q1    1   0.5975  1.1777  0.7622  11.00000  0.05    0.61
Q2    1   0.7006  1.1190  0.6516  11.00000  0.05    0.53
Q3    1   0.7494  1.0000  0.5000  10.50000  0.05    0.39
Q4    1   0.8027  1.0000  0.5000  10.50000  0.05    0.38
Q5    1   0.6488  0.7500  0.6611  10.50000  0.05    0.35
Q6    1   0.7457  1.2500  0.6388  10.50000  0.05    0.34
Q7    1   0.6696  1.1219  0.7084  11.00000  0.05    0.32
Q8    1   0.7982  1.2500  0.5499  10.50000  0.05    0.31
Q9    1   0.4444  0.2500  0.6101  10.50000  0.05    0.28
Q10   1   0.6016  1.0017  0.8006  11.00000  0.05    0.28
Q11   1   0.6677  0.7500  0.7849  10.50000  0.05    0.27
Q12   1   0.6713  1.2500  0.7476  10.50000  0.05    0.27
Q13   1   0.5592  1.2500  0.7233  10.50000  0.05    0.25
Q14   1   0.7576  0.7500  0.6474  10.50000  0.05    0.25
Q15   1   0.5870  0.8825  0.8247  11.00000  0.05    0.22
Q16   1   0.5000  0.7500  0.6594  10.25000  0.05    0.21
Q17   1   0.5578  0.5705  0.5520  11.00000  0.05    0.21
Q18   1   0.5571  0.5730  0.5826  11.00000  0.05    0.21
Q19   1   0.5513  0.9359  0.7847  11.00000  0.05    0.20
Q20   1   0.7427  0.9214  0.6891  11.00000  0.05    0.20
Q21   1   0.6879  0.8481  0.7001  11.00000  0.05    0.18
Q22   1   0.4606  0.1598  0.5469  11.00000  0.05    0.17
Q23   1   0.6426  1.3839  0.6318  11.00000  0.05    0.17
Q24   1   0.5000  0.2500  0.4384  10.25000  0.05    0.17
Q25   1   0.6809  1.2500  0.6170  10.50000  0.05    0.16
;
_shelx_res_checksum              63284
_shelx_hkl_file
;
  -2   0   0  184.91    5.02
   2   0   0  166.04    5.00
  -4   0   0   48.74    1.75
   4   0   0   47.63    2.32
  -4   0   0   46.80    1.72
  -6   0   0   27.32    1.30
  -6   0   0   30.70    2.42
   6   0   0   30.59    2.08
  -6   0   0   28.51    1.32
  -6   0   0   28.49    1.31
   8   0   0   24.99    2.64
  -8   0   0   27.26    1.36
  -8   0   0   28.17    3.33
  -8   0   0   23.41    1.26
  10   0   0  393.05   13.33
 -10   0   0  366.89   10.80
 -10   0   0  351.91   11.02
 -10   0   0  375.45   14.52
 -10   0   0  373.62   10.85
  12   0   0  191.72    8.71
 -12   0   0  194.83    5.88
 -12   0   0  193.99    6.52
 -12   0   0  195.31    9.93
 -12   0   0  206.63    6.15
  14   0   0   19.72    1.32
  14   0   0   19.90    1.31
 -14   0   0   32.87    5.05
 -14   0   0   21.70    1.48
  14   0   0   15.53    1.31
 -16   0   0   14.09    3.62
  16   0   0   13.16    1.67
  16   0   0   15.20    1.69
 -16   0   0   15.27    1.59
  18   0   0    3.64    1.17
 -18   0   0    1.88    1.94
  18   0   0    4.68    1.22
 -18   0   0    6.13    0.98
 -20   0   0    1.86    2.02
  20   0   0    6.73    1.65
  -1  -1   0    0.25    0.26
  -1  -1   0   -0.02    0.30
   1   1   0    0.06    0.21
   1   1   0    0.14    0.29
   1  -1   0    0.16    0.25
   1  -1   0    0.00    0.16
  -1   1   0   -0.29    0.21
  -1   1   0    0.04    0.17
   3  -1   0   -0.27    0.23
  -3   1   0   -0.17    0.20
  -3   1   0   -0.17    0.24
   3   1   0    0.18    0.33
  -3  -1   0   -0.07    0.29
   3  -1   0    0.18    0.24
   3   1   0   -0.12    0.27
  -3   1   0    0.05    0.25
  -5   1   0    0.17    0.35
   5  -1   0    0.20    0.31
  -5  -1   0    0.07    0.52
   5   1   0    0.10    0.39
  -5  -1   0   -0.08    0.23
  -5   1   0   -0.29    0.24
  -5   1   0   -0.09    0.22
  -5  -1   0    0.03    0.35
  -7   1   0    0.32    0.43
  -7  -1   0    0.15    0.41
  -7  -1   0   -0.19    0.46
  -7   1   0   -0.56    0.51
   7  -1   0    0.19    0.39
  -7   1   0   -0.06    0.19
   7   1   0    0.26    0.46
   7   1   0   -0.24    0.36
  -7  -1   0   -0.11    0.35
  -7   1   0    0.21    0.30
   9  -1   0   -0.07    0.47
   9   1   0   -0.21    0.33
  -9  -1   0    0.58    0.47
   9   1   0   -0.17    0.37
  -9   1   0    0.21    0.26
  -9   1   0    0.33    0.75
  -9  -1   0   -0.24    0.60
  -9   1   0   -0.03    0.22
  -9  -1   0   -0.46    0.35
  -9  -1   0    0.31    0.46
  -9   1   0    0.28    0.28
   9   1   0    0.76    0.52
   9   1   0    0.25    0.59
 -11   1   0    0.03    0.74
 -11   1   0    0.08    0.33
  11   1   0   -0.14    0.46
 -11  -1   0   -0.30    0.46
  11   1   0    0.41    0.55
  11   1   0   -0.02    0.59
  11  -1   0   -0.06    0.60
 -11  -1   0    0.26    0.48
  11   1   0   -0.03    0.44
 -11  -1   0    0.50    0.90
  13   1   0    0.24    0.58
 -13   1   0    0.04    0.32
  13   1   0    0.67    0.63
 -13  -1   0    0.02    0.52
 -13  -1   0    1.01    0.59
 -13  -1   0    0.71    0.99
  13  -1   0    0.83    0.89
 -13   1   0    0.90    1.03
 -15  -1   0   -0.71    0.82
 -15  -1   0    0.50    0.68
 -15   1   0    0.64    0.41
  15  -1   0   -0.64    0.37
 -15  -1   0    0.29    0.57
  15   1   0    0.15    0.74
  15   1   0   -0.33    0.62
  15  -1   0    0.01    0.39
 -15   1   0    1.27    1.49
 -17   1   0   -1.28    1.08
  17  -1   0    0.81    0.63
  17  -1   0   -0.29    0.57
 -17  -1   0    0.21    0.67
 -17  -1   0    1.18    1.78
  17   1   0    0.49    0.78
 -17   1   0   -0.15    0.40
 -19  -1   0    0.82    1.59
  19  -1   0   -0.16    0.68
 -19   1   0    1.75    1.61
  19   1   0    0.94    1.02
 -19  -1   0   -0.84    0.73
  19  -1   0    0.44    0.94
 -21   1   0    0.98    2.28
  21  -1   0   -0.88    0.86
  21   1   0   -0.67    1.03
   0  -2   0    0.54    0.44
   0   2   0    1.10    0.66
   0  -2   0    0.13    0.53
   0   2   0    0.47    0.40
   2   2   0   47.30    2.78
   2  -2   0   44.94    2.45
   2  -2   0   50.04    2.75
  -2  -2   0   48.62    2.65
  -2  -2   0   44.34    2.82
  -2   2   0   45.72    2.31
   2   2   0   45.23    2.45
  -2   2   0   47.90    2.70
   2   2   0   45.60    2.66
  -4   2   0   19.97    1.39
  -4   2   0   20.98    2.07
  -4  -2   0   17.97    1.47
   4  -2   0   20.52    2.06
   4  -2   0   17.55    1.38
  -4  -2   0   25.12    2.59
   4   2   0   21.71    1.75
   4   2   0   24.01    2.54
   4   2   0   25.72    2.15
   6   2   0   90.39    3.90
   6  -2   0   93.55    3.79
   6   2   0   90.03    4.48
   6   2   0  101.59    4.25
  -6   2   0   87.27    3.98
  -6   2   0   87.16    4.01
   6   2   0   88.20    4.34
  -6   2   0   96.52    3.95
  -6  -2   0   86.21    4.49
   6  -2   0   94.11    4.01
   8  -2   0    0.22    0.45
  -8   2   0    0.64    0.46
   8   2   0   -0.58    0.61
  -8   2   0    0.14    0.41
   8  -2   0    0.30    0.40
   8   2   0    0.20    0.43
   8  -2   0   -0.03    0.43
   8  -2   0    0.00    0.28
  -8  -2   0    1.27    0.70
  -8   2   0   -0.16    0.37
  -8  -2   0   -0.63    0.44
  -8   2   0    0.75    0.48
   8   2   0    0.54    0.65
   8   2   0   -0.12    0.43
  10   2   0   11.84    1.92
 -10   2   0   11.82    2.50
 -10  -2   0   11.86    1.95
  10   2   0    6.28    1.17
  10   2   0   10.29    1.84
  10  -2   0    9.18    1.11
 -10   2   0   10.44    1.76
 -10  -2   0   13.82    2.11
 -10   2   0    8.79    1.23
  10  -2   0    9.32    1.58
 -10   2   0   11.01    1.35
  10   2   0   10.75    1.55
  10  -2   0    9.09    1.12
 -12   2   0   34.95    2.11
 -12   2   0   38.29    4.91
  12  -2   0   35.54    2.01
 -12  -2   0   35.04    2.82
  12  -2   0   33.91    1.94
 -12   2   0   32.61    1.72
  12  -2   0   33.08    3.27
  12   2   0   32.85    2.78
  12   2   0   38.34    2.52
 -12  -2   0   32.00    3.14
 -14   2   0   71.59    7.55
 -14   2   0   65.32    3.05
 -14  -2   0   64.63    3.93
  14  -2   0   63.92    3.08
  14   2   0   63.79    4.14
 -14  -2   0   69.22    4.07
  14  -2   0   66.33    3.00
 -16  -2   0    1.63    1.05
 -16   2   0    3.61    2.08
 -16  -2   0    0.68    0.78
  16  -2   0    0.63    0.80
 -16   2   0    2.45    0.66
  16  -2   0    1.99    0.84
  16   2   0    2.58    1.24
  18   2   0    1.19    1.15
  18  -2   0    1.03    0.90
  18  -2   0    0.99    0.75
 -18  -2   0    0.50    0.83
 -18   2   0   -0.30    1.81
  20  -2   0    2.38    1.07
  20   2   0    2.21    1.42
 -20   2   0    0.31    1.92
 -20  -2   0    3.02    1.35
  -1  -3   0   -0.53    0.37
  -1   3   0   -0.11    0.43
   1  -3   0   -0.07    0.47
   1  -3   0   -0.14    0.36
  -1  -3   0    0.92    0.73
   1   3   0   -0.23    0.49
  -1   3   0   -0.11    0.43
   1   3   0   -0.43    0.37
  -1   3   0   -0.02    0.45
   1   3   0   -0.06    0.48
   1   3   0    0.05    0.46
   1  -3   0   -0.43    0.47
  -1   3   0   -0.06    0.54
  -1  -3   0   -0.29    0.45
  -3   3   0   -0.76    0.40
  -3   3   0    0.09    0.40
   3  -3   0    0.17    0.41
   3   3   0    0.38    0.58
  -3  -3   0    0.07    0.53
   3   3   0    0.60    0.70
   3  -3   0    0.35    0.64
  -3  -3   0    0.62    0.69
   3   3   0   -0.54    0.45
   3  -3   0   -0.04    0.51
  -3   3   0    0.31    0.38
  -3  -3   0    0.59    0.60
   5   3   0    0.33    0.71
   5  -3   0    0.14    0.53
  -5  -3   0    0.59    0.71
   5   3   0   -0.28    0.39
  -5  -3   0   -0.07    0.49
  -5  -3   0   -0.08    0.68
   5  -3   0    0.06    0.46
  -5   3   0    0.18    0.55
  -5   3   0   -0.28    0.52
  -5  -3   0    1.63    0.65
   5   3   0    0.00    0.56
   5  -3   0   -0.29    0.62
  -5   3   0    1.30    0.53
   5  -3   0   -0.11    0.56
   7  -3   0    0.29    0.55
   7   3   0    0.71    0.68
  -7   3   0    0.98    0.57
   7  -3   0   -0.01    0.43
  -7  -3   0    0.50    0.71
  -7   3   0    0.06    0.51
   7  -3   0    0.10    0.53
  -7   3   0   -0.02    0.43
  -7  -3   0   -0.15    0.63
   7   3   0    0.00    0.62
   7   3   0   -0.21    0.48
   7   3   0    1.12    0.95
   9  -3   0   -0.08    0.43
  -9   3   0   -0.33    0.48
  -9   3   0   -0.04    0.44
   9   3   0   -0.18    0.68
  -9  -3   0    0.27    0.85
   9   3   0   -0.16    0.55
   9  -3   0    0.06    0.53
  -9   3   0   -0.44    0.47
  -9  -3   0   -0.36    0.63
   9   3   0    0.70    0.96
   9  -3   0    0.14    0.54
 -11  -3   0    0.62    0.81
  11   3   0    0.04    0.75
  11  -3   0    0.12    0.79
  11  -3   0    1.12    0.86
 -11  -3   0    0.98    0.95
 -11   3   0   -0.16    0.54
  11   3   0    0.05    0.64
  11  -3   0    0.13    0.56
  11   3   0    1.02    1.02
 -11   3   0   -0.19    0.46
  13  -3   0    0.54    0.82
 -13  -3   0    0.31    0.83
  13   3   0    1.00    1.15
 -13  -3   0    0.17    0.81
 -13   3   0   -0.39    0.52
  13  -3   0    0.52    0.71
 -13   3   0   -0.20    1.06
  13   3   0   -0.18    0.66
 -13   3   0   -0.45    0.41
 -15   3   0    1.82    1.77
  15   3   0    1.25    1.04
 -15   3   0    0.58    0.61
  15  -3   0    0.04    0.67
 -15  -3   0   -0.27    0.67
 -15  -3   0   -0.44    1.04
  15   3   0    1.11    1.12
 -17  -3   0    0.89    1.16
  17   3   0    0.05    1.14
  17  -3   0   -0.34    0.74
 -17   3   0    0.35    1.43
 -17   3   0    0.63    0.62
 -17  -3   0    0.37    1.15
 -19   3   0   -0.51    1.74
  19  -3   0   -0.44    0.73
  19   3   0   -1.05    1.24
 -19  -3   0    0.64    1.15
   0   4   0   85.04    5.20
   0  -4   0   91.44    4.55
   0  -4   0   86.35    5.32
   0   4   0   90.95    4.49
   0   4   0   83.49    4.43
   0  -4   0   91.90    5.17
   0   4   0   90.56    4.92
   2  -4   0   43.33    4.47
  -2   4   0   43.21    3.26
  -2   4   0   47.60    2.93
  -2  -4   0   44.35    3.05
  -2   4   0   42.53    4.45
   2   4   0   45.61    3.07
   2   4   0   46.89    3.51
   2  -4   0   39.77    3.31
  -2   4   0   42.47    3.06
   2  -4   0   41.41    2.99
  -2   4   0   43.95    2.80
   2   4   0   48.77    3.79
  -2  -4   0   46.21    3.53
  -2  -4   0   46.78    4.71
   2   4   0   44.05    3.11
  -4   4   0   26.90    3.09
   4   4   0   32.08    3.24
  -4  -4   0   24.84    3.07
  -4  -4   0   23.69    2.66
  -4   4   0   30.40    3.45
   4  -4   0   28.85    3.82
   4  -4   0   23.53    2.67
   4   4   0   25.24    3.20
   4  -4   0   29.84    2.97
  -4   4   0   27.03    2.05
  -4  -4   0   22.92    2.80
  -4  -4   0   27.10    3.63
   4   4   0   20.59    3.08
   4   4   0   24.42    2.92
  -4   4   0   26.64    2.32
  -4   4   0   28.48    2.57
   4  -4   0   21.61    2.91
   6  -4   0  204.87    7.73
   6   4   0  189.29    8.11
  -6   4   0  190.89    8.10
   6  -4   0  191.74    7.73
   6  -4   0  212.49    9.16
   6  -4   0  191.33    8.18
  -6   4   0  187.90    7.26
  -6   4   0  204.77    8.70
  -6  -4   0  193.09    8.56
   6   4   0  190.05    8.87
  -6  -4   0  182.60    9.12
   6   4   0  196.99    9.10
  -6  -4   0  189.18    7.70
   6   4   0  195.66    9.06
   8  -4   0   65.90    3.88
   8   4   0   74.22    4.53
  -8   4   0   68.04    4.52
  -8   4   0   66.68    4.17
   8  -4   0   78.04    4.45
   8  -4   0   76.83    4.89
  -8  -4   0   63.86    4.57
   8   4   0   75.13    5.19
  -8  -4   0   65.96    5.03
 -10  -4   0   46.25    5.11
 -10  -4   0   56.71    5.29
 -10   4   0   46.06    3.43
  10  -4   0   45.86    3.83
  10   4   0   52.94    3.83
 -10   4   0   53.73    3.79
  10   4   0   50.30    4.34
  10  -4   0   45.54    3.44
  10  -4   0   48.47    3.23
 -12  -4   0    5.66    2.03
  12   4   0    3.52    1.73
  12   4   0    4.73    1.68
 -12  -4   0    5.03    1.67
 -12   4   0    4.87    1.56
 -12   4   0    2.67    1.13
  12  -4   0    6.96    1.46
  12  -4   0    3.96    1.51
 -14   4   0    0.80    0.86
  14   4   0    0.82    1.11
 -14   4   0    1.41    0.89
  14  -4   0    0.58    1.06
 -14  -4   0    0.63    1.06
  14   4   0    2.31    1.55
 -14  -4   0    2.89    1.66
 -14   4   0    0.70    1.50
  16   4   0   25.51    4.16
  16   4   0   31.70    3.97
  16  -4   0   35.18    4.01
 -16   4   0   27.60    5.10
 -16  -4   0   48.53    5.49
 -16   4   0   31.56    3.28
 -16  -4   0   28.66    4.01
 -18  -4   0   48.71    5.21
  18  -4   0   35.44    4.25
 -18   4   0   38.92    2.90
 -18  -4   0   41.59    4.98
  18   4   0   32.11    4.39
  18   4   0   35.78    4.94
 -18   4   0   27.44    5.56
  -1   5   0   -0.79    0.82
  -1  -5   0    1.69    1.02
   1  -5   0   -0.10    0.94
   1   5   0    0.12    0.76
   1   5   0    0.42    0.76
  -1   5   0    0.48    0.76
  -1   5   0   -0.18    0.66
   1   5   0    0.62    1.07
  -1  -5   0    0.28    0.91
   1   5   0    0.05    0.69
  -1   5   0    1.36    1.09
   1  -5   0    0.02    0.71
   3   5   0   -0.68    0.60
  -3  -5   0   -0.78    1.06
  -3   5   0   -0.59    0.81
  -3   5   0   -0.62    0.59
   3   5   0    0.49    0.88
   3  -5   0    0.45    0.73
  -3  -5   0    0.74    1.18
  -3   5   0    0.36    0.64
  -3  -5   0    0.26    0.67
   3   5   0   -0.05    0.90
  -3   5   0   -0.82    0.74
   5   5   0    0.23    0.98
  -5   5   0    0.61    0.62
  -5   5   0   -0.47    0.76
  -5  -5   0   -0.02    0.90
   5  -5   0    0.10    0.69
  -5  -5   0    0.48    0.90
   5   5   0   -0.06    0.82
  -5  -5   0   -0.28    0.70
   5  -5   0   -1.02    1.04
   5   5   0    0.69    1.00
  -5   5   0    1.24    1.02
   7  -5   0    0.39    1.29
   7   5   0    0.08    0.69
  -7   5   0    0.80    1.12
  -7  -5   0    0.57    1.09
  -7  -5   0   -0.45    1.19
  -7   5   0    0.21    0.89
   7  -5   0   -0.06    0.80
   9  -5   0    0.60    1.28
   9  -5   0    1.12    0.97
  -9  -5   0   -0.78    0.98
  -9   5   0   -0.14    0.87
  -9   5   0   -0.65    0.86
   9   5   0    0.13    0.98
  -9  -5   0   -0.04    1.06
  11  -5   0   -0.42    0.84
 -11   5   0   -0.53    0.73
  11   5   0   -0.15    0.92
  11  -5   0    0.57    1.26
 -11   5   0   -0.31    1.02
 -11  -5   0   -0.10    1.16
 -11  -5   0   -1.64    1.01
 -13   5   0   -0.15    1.10
 -13  -5   0   -0.50    1.10
 -13   5   0    0.66    0.98
  13  -5   0    0.47    1.27
  13  -5   0    0.16    0.88
 -13  -5   0    0.16    1.31
  13   5   0   -0.91    0.85
 -15   5   0   -0.28    1.65
  15   5   0    0.39    1.11
  15  -5   0    0.75    1.20
 -15  -5   0    0.83    1.31
 -15  -5   0   -0.92    1.30
 -15   5   0   -0.01    1.18
 -15   5   0    0.14    0.94
 -17   5   0   -0.62    0.77
  17  -5   0    0.43    1.39
  17   5   0    1.30    1.48
 -17   5   0    1.37    1.86
 -17  -5   0    0.84    1.36
   0   6   0  111.06    6.76
   0   6   0  111.81    6.03
   0  -6   0  107.96    7.41
   0   6   0  100.00    7.03
   0  -6   0  113.02    6.32
   0   6   0   98.55    5.86
  -2   6   0    5.42    1.54
   2  -6   0    5.23    1.78
  -2  -6   0    6.53    2.37
  -2   6   0    6.36    2.24
  -2   6   0    4.26    1.65
   2   6   0    6.62    2.29
   2   6   0    4.73    1.55
  -2  -6   0    5.45    1.87
   2   6   0    8.71    2.08
  -2   6   0    5.62    1.69
  -4  -6   0   51.85    5.59
   4   6   0   40.77    4.50
   4   6   0   33.27    4.89
  -4  -6   0   33.15    3.87
   4  -6   0   40.94    4.35
  -4  -6   0   26.27    4.35
   4   6   0   32.76    4.01
  -4   6   0   38.74    4.60
  -4   6   0   31.23    3.18
  -4   6   0   34.37    4.81
  -6  -6   0   46.52    5.34
   6  -6   0   50.14    5.00
  -6   6   0   40.12    4.62
  -6   6   0   40.41    5.14
   6   6   0   37.03    4.54
  -6  -6   0   33.48    5.10
  -6  -6   0   44.49    4.50
   6   6   0   50.62    5.22
   8  -6   0   27.43    5.88
   8   6   0   20.34    3.28
  -8   6   0   28.82    3.92
  -8  -6   0   24.46    4.13
   8   6   0   22.79    3.68
   8  -6   0   24.82    3.51
  -8  -6   0   23.43    4.24
  -8   6   0   30.38    4.41
 -10  -6   0    5.96    2.53
 -10  -6   0    9.65    2.88
  10   6   0   10.53    2.79
  10  -6   0    3.63    2.12
  10   6   0    7.57    2.24
 -10   6   0    6.88    2.40
  10  -6   0    7.35    1.94
 -10   6   0   10.90    2.58
 -12  -6   0    1.04    1.75
  12  -6   0    0.11    0.94
  12  -6   0    0.60    1.87
 -12   6   0    0.65    1.32
 -12   6   0    1.60    1.57
  12   6   0    1.09    1.35
 -12  -6   0   -0.07    1.35
 -14   6   0    2.65    1.90
  14  -6   0    1.05    1.82
  14  -6   0    2.48    1.52
 -14   6   0    0.15    1.20
  14   6   0    0.11    1.18
 -14  -6   0   -0.75    1.21
  16   6   0    3.95    2.12
  16  -6   0    3.21    2.50
 -16   6   0    2.91    1.55
 -16  -6   0    2.53    2.12
  -1   7   0   -0.26    1.02
   1  -7   0   -1.36    0.92
  -1   7   0   -0.55    1.39
   1   7   0   -1.15    1.10
  -1   7   0    0.61    1.60
   1   7   0   -0.17    1.03
  -1  -7   0   -0.09    1.04
   1   7   0    0.52    1.12
  -3   7   0   -0.07    0.85
  -3  -7   0    0.58    1.50
   3   7   0    1.04    1.29
  -3   7   0   -0.20    1.31
   3   7   0   -0.41    1.10
   3  -7   0   -0.39    0.95
  -3  -7   0    0.58    1.24
  -3   7   0    0.72    1.39
   3   7   0   -0.22    1.22
   5  -7   0   -0.05    0.99
   5   7   0   -0.07    1.20
  -5   7   0    0.38    1.29
  -5   7   0    0.46    1.43
  -5  -7   0    0.18    1.51
   5   7   0   -0.56    1.20
  -5  -7   0   -0.90    0.99
  -7   7   0    0.38    1.36
   7  -7   0    0.07    1.13
  -7  -7   0    0.70    1.57
   7   7   0   -0.96    0.95
   7   7   0    0.45    1.41
  -7   7   0   -0.40    1.19
  -7  -7   0   -0.06    1.57
  -9   7   0    0.84    1.72
   9   7   0   -0.95    1.07
  -9  -7   0    0.92    1.77
   9   7   0   -0.53    1.31
  -9  -7   0    2.71    1.94
  -9   7   0   -0.21    1.34
   9  -7   0    1.34    1.46
 -11   7   0    0.50    1.26
  11   7   0   -0.45    1.18
  11   7   0    0.13    1.47
  11  -7   0    1.52    1.59
 -11  -7   0    0.40    1.44
 -13  -7   0    0.15    1.38
  13  -7   0   -0.55    1.23
 -13   7   0   -1.01    1.14
  13   7   0   -1.12    1.37
  13   7   0    2.95    2.00
   0   8   0   14.84    2.90
   0   8   0    7.99    3.27
   0  -8   0   13.34    3.07
   2   8   0   11.11    3.59
   2  -8   0   10.42    2.85
  -2   8   0    6.12    2.05
  -2   8   0    6.52    2.92
  -2  -8   0    7.18    2.31
   2   8   0    8.22    2.31
   2   8   0    6.60    2.19
  -2   8   0    5.12    3.92
  -4   8   0    3.87    2.46
  -4   8   0    1.12    1.97
   4  -8   0    6.57    2.41
   4   8   0    8.45    2.83
  -4  -8   0   11.16    3.04
   4   8   0    3.32    1.96
  -4  -8   0    4.00    2.87
  -6  -8   0   42.26    6.70
   6  -8   0   34.03    4.91
   6   8   0   44.84    5.66
   6   8   0   54.88    6.01
  -6   8   0   44.91    5.97
   8   8   0    8.11    2.64
   8  -8   0    8.23    2.60
  -8   8   0   17.63    3.94
   3   0  -1   33.53    1.80
  -3   0   1   38.30    1.90
  -3   0  -1   32.47    1.19
   3   0  -1   37.68    1.64
  -3   0   1   35.26    1.63
  -3   0  -1   35.37    1.21
  -5   0   1    1.19    0.44
  -5   0   1    0.59    0.54
  -5   0  -1    0.40    0.15
   5   0  -1   -0.04    0.36
  -5   0  -1    0.33    0.15
   5   0  -1    0.69    0.37
  -5   0   1    0.44    0.52
  -5   0   1    0.74    0.38
  -5   0  -1   -0.36    0.38
   7   0   1    8.26    1.37
   7   0  -1   13.30    1.77
  -7   0   1   12.25    2.04
  -7   0   1   13.77    1.37
  -7   0  -1   11.35    2.01
   7   0  -1   10.87    0.78
  -7   0   1   14.02    1.05
  -9   0  -1  119.17    6.55
  -9   0   1  129.29    4.63
  -9   0   1  132.08    4.61
   9   0  -1  102.12    4.15
   9   0   1  130.21    5.75
   9   0  -1  125.06    5.88
  -9   0   1  124.85    4.58
  -9   0   1  133.11    6.65
   9   0  -1  126.97    4.15
  11   0  -1  207.49    8.84
  11   0   1  211.94    8.71
  11   0  -1  202.84    6.71
 -11   0   1  202.73    7.08
 -11   0  -1  200.66    9.97
 -11   0  -1  203.50    6.37
 -11   0   1  210.41    6.98
 -11   0   1  206.62    9.86
 -13   0  -1   77.05    6.07
 -13   0   1   76.30    3.44
 -13   0   1   72.76    5.80
 -13   0   1   77.29    3.21
  13   0  -1   74.75    3.30
  13   0  -1   68.04    3.36
 -13   0  -1   75.18    2.86
  13   0   1   66.31    4.76
 -15   0  -1   16.62    1.09
  15   0  -1   22.00    2.23
  15   0  -1   19.58    2.21
 -15   0  -1   15.12    3.50
  15   0   1   14.74    0.79
 -15   0   1   15.97    3.62
  15   0   1   11.67    0.78
 -15   0   1   17.76    1.88
 -17   0   1    7.27    2.58
  17   0   1    5.06    1.02
 -17   0  -1    3.75    1.95
  17   0   1    6.13    0.99
  17   0   1    6.44    1.02
 -17   0   1    8.41    1.36
  17   0  -1    7.97    1.59
  17   0  -1    7.41    1.72
 -19   0   1    3.78    2.40
 -19   0  -1    2.59    2.06
 -19   0   1    7.00    1.36
  19   0  -1    3.15    1.22
  19   0   1    4.68    1.07
  19   0   1    3.32    1.15
  21   0  -1   11.44    2.24
 -21   0   1   13.36    4.35
  21   0   1   12.49    2.04
 -21   0  -1    8.43    3.42
   0  -1  -1  204.57    6.54
   0   1   1  193.74    6.33
   0  -1   1  187.52    6.42
   0   1   1  204.16    6.51
   0   1  -1  195.43    6.44
   0  -1  -1  208.72    6.45
   0   1  -1  195.67    6.30
  -2  -1  -1   48.33    2.30
   2   1  -1   43.85    2.15
  -2  -1  -1   44.37    1.94
   2   1  -1   50.03    2.35
  -2   1   1   48.83    2.25
   2  -1   1   47.65    1.75
   2  -1   1   46.36    2.05
  -2  -1   1   44.78    2.30
  -2  -1   1   48.84    2.11
  -2  -1   1   46.25    2.31
   2  -1  -1   46.21    2.01
   2   1   1   48.42    2.28
  -2   1  -1   47.39    1.54
   2  -1  -1   47.43    2.22
  -2   1  -1   46.48    2.07
   2   1   1   47.76    2.11
  -4   1   1   18.83    1.32
  -4  -1  -1   21.72    1.83
  -4   1   1   22.47    1.45
  -4  -1  -1   19.33    1.44
  -4   1   1   21.43    1.51
   4   1  -1   19.62    1.49
   4  -1   1   23.30    1.25
   4   1   1   20.66    1.46
  -4   1  -1   20.96    1.18
   4  -1  -1   19.56    1.46
  -4  -1   1   21.21    1.58
  -4   1  -1   19.86    1.12
   4   1   1   20.28    1.10
   4  -1  -1   17.74    1.29
  -4  -1   1   20.65    1.57
   6   1  -1   30.65    2.21
  -6   1   1   31.36    2.43
  -6  -1  -1   29.60    1.86
  -6  -1  -1   28.76    1.79
   6   1  -1   31.23    2.01
   6  -1   1   29.43    1.83
  -6   1   1   28.97    2.07
  -6   1   1   28.66    1.73
   6   1  -1   32.43    2.40
  -6   1   1   29.60    1.74
  -6  -1  -1   26.81    2.87
  -6   1  -1   30.12    1.29
  -6  -1   1   32.40    2.61
   6  -1  -1   29.60    1.44
   6   1   1   27.85    1.59
  -6   1  -1   28.46    1.27
  -6  -1   1   29.84    2.01
   6  -1  -1   28.65    2.08
   6   1   1   32.63    1.89
  -8  -1  -1   20.67    1.57
   8   1  -1   24.13    1.77
  -8   1   1   23.64    1.57
   8  -1   1   22.22    2.18
   8   1  -1   20.94    2.55
   8   1  -1   26.82    1.99
  -8  -1  -1   24.17    1.71
  -8  -1  -1   31.32    3.54
  -8   1   1   27.79    2.70
  -8   1   1   26.13    1.62
  -8   1   1   18.75    2.61
   8   1  -1   24.90    1.53
   8  -1  -1   23.49    1.23
  -8  -1   1   23.46    1.81
   8  -1  -1   23.93    1.24
   8  -1  -1   30.18    2.77
  -8  -1   1   27.96    3.51
   8   1   1   21.97    1.39
   8   1   1   24.85    1.47
  -8   1  -1   26.14    3.29
  -8  -1   1   22.90    1.72
  -8  -1   1   25.39    1.90
 -10  -1  -1   20.24    1.87
  10   1  -1   13.50    2.26
  10   1  -1   14.42    1.72
  10  -1   1   14.42    1.96
 -10  -1  -1   15.35    2.84
  10   1  -1   17.38    1.64
 -10   1   1   16.75    1.58
 -10   1   1   16.60    1.56
 -10  -1  -1   18.09    1.81
 -10  -1  -1   14.28    1.59
 -10   1   1   15.64    1.50
  10   1  -1   20.49    2.17
 -10   1   1   12.78    2.50
  10  -1  -1   12.41    1.89
  10   1   1   14.49    1.20
  10   1   1   13.55    1.37
  10   1   1   14.24    1.04
  10  -1  -1   10.68    0.95
 -10  -1   1   14.54    1.71
 -10   1  -1   11.53    0.75
 -10  -1   1   17.70    2.02
 -10  -1   1   12.82    2.67
 -10   1  -1   21.55    3.30
  10  -1  -1   14.67    1.01
 -12  -1  -1    1.39    1.24
 -12   1   1    5.92    2.16
  12   1  -1    4.62    1.15
 -12   1   1    1.63    0.53
 -12  -1  -1    3.48    0.85
 -12  -1  -1    0.42    0.59
 -12   1   1    2.00    0.63
  12   1  -1    1.30    0.68
  12   1  -1    2.49    0.99
  12  -1   1    4.42    1.29
  12   1   1    2.52    0.70
 -12  -1   1    2.13    0.89
 -12   1  -1    2.92    0.43
 -12  -1   1    5.25    1.99
  12  -1  -1    1.86    0.62
  12   1   1    1.74    1.35
 -12   1  -1    2.67    0.41
  12  -1  -1    1.99    1.06
 -12  -1   1    1.10    0.59
 -12   1  -1    2.47    1.54
  12  -1  -1    2.68    0.69
  12   1   1    2.33    0.78
 -14   1   1   10.93    1.39
 -14  -1  -1   11.70    1.56
  14  -1   1   11.95    2.37
  14   1  -1   11.63    1.91
 -14  -1  -1    9.03    2.52
  14   1  -1    9.25    1.70
 -14  -1  -1   13.60    1.34
 -14   1   1   19.34    3.87
 -14  -1   1   14.12    1.91
  14  -1  -1    9.90    1.45
  14  -1  -1   10.49    1.41
  14   1   1   12.91    1.56
 -14  -1   1   10.94    1.69
 -14   1  -1   14.08    3.46
  14   1   1    7.04    1.22
 -14  -1   1    9.72    2.85
  16   1  -1    0.43    0.77
 -16  -1  -1   -0.23    1.10
 -16   1   1    0.41    0.52
 -16  -1  -1    0.00    0.64
 -16   1   1   -0.56    1.05
 -16  -1   1    0.79    0.82
 -16  -1   1    0.40    0.80
  16   1   1    0.15    0.73
  16  -1  -1   -0.97    0.70
  16   1   1    0.21    0.67
 -16  -1   1    0.14    1.23
  16  -1  -1    0.30    0.69
 -16   1  -1   -0.28    1.20
  18  -1   1   -0.29    0.52
 -18  -1  -1    1.43    1.79
  18  -1   1    0.45    0.56
  18   1  -1    0.55    0.89
 -18   1   1    1.23    0.68
 -18   1   1    0.68    1.49
 -18  -1  -1    0.70    0.73
 -18   1  -1    1.23    1.71
  18   1   1    0.44    0.85
  18  -1  -1    1.12    0.85
 -18  -1   1   -0.76    1.12
  18  -1  -1    0.62    1.01
 -18  -1   1    1.51    1.10
 -20  -1  -1    5.34    2.91
  20   1  -1    2.44    1.31
  20  -1   1    2.40    0.90
  20  -1   1    0.99    0.82
 -20   1   1    3.08    2.51
  20  -1  -1    1.51    1.30
 -20   1  -1    4.45    2.56
 -20  -1   1    4.36    1.27
  20   1   1    2.82    1.17
  -1  -2  -1   12.68    1.71
   1  -2   1   12.13    1.52
  -1  -2  -1   11.95    1.61
   1   2  -1   12.11    1.71
   1   2  -1   10.50    1.39
  -1   2   1   13.68    1.60
  -1   2   1   14.42    1.85
   1  -2   1   14.45    1.84
   1   2   1   13.62    1.80
  -1  -2   1   13.03    1.78
  -1   2  -1   13.71    1.70
  -1  -2   1   13.07    1.75
   1  -2  -1   17.53    2.02
   1   2   1   10.56    1.41
  -1   2  -1   13.86    1.56
   3  -2   1   60.65    3.09
   3   2  -1   63.33    3.00
   3   2  -1   54.83    3.28
   3  -2   1   60.30    2.81
  -3   2   1   60.04    3.19
  -3  -2  -1   64.45    3.03
   3   2  -1   62.77    3.23
  -3  -2  -1   63.80    3.49
  -3  -2   1   63.79    3.49
  -3   2  -1   59.31    3.08
   3  -2  -1   61.73    3.02
   3   2   1   61.13    3.35
   3  -2  -1   63.63    3.25
  -3   2  -1   62.48    2.22
  -3  -2   1   62.09    3.12
   3   2   1   64.36    3.26
   3  -2  -1   60.94    2.76
   3   2   1   58.07    2.89
  -5   2   1    5.33    1.03
   5   2  -1    3.54    0.94
   5  -2   1    5.31    0.73
   5   2  -1    6.25    1.29
   5  -2   1    4.61    0.88
   5  -2   1    6.16    1.08
   5   2  -1    6.37    1.09
  -5   2   1    7.03    1.35
  -5  -2  -1    4.27    1.15
  -5   2  -1    4.51    0.95
   5   2   1    5.03    1.00
   5   2   1    6.47    1.32
   5  -2  -1    3.87    0.81
   5   2   1    6.07    1.21
  -5   2  -1    4.97    0.76
   5  -2  -1    4.79    1.06
   5  -2  -1    6.20    0.94
  -5  -2   1    3.08    1.03
  -5   2  -1    5.06    1.00
   5  -2  -1    4.78    1.05
  -7  -2  -1    4.43    1.18
   7  -2   1    4.83    0.78
  -7   2   1    4.24    1.01
   7   2  -1    3.60    0.90
   7   2  -1    2.57    0.87
   7   2  -1    4.41    1.25
  -7   2   1    2.68    0.76
  -7   2   1    3.68    0.94
   7  -2   1    2.16    0.64
   7  -2   1    3.96    0.78
  -7  -2  -1    4.58    1.06
  -7   2   1    3.57    0.94
   7   2  -1    5.08    1.26
  -7   2  -1    2.05    0.66
   7   2   1    4.27    0.98
   7   2   1    4.72    1.19
  -7   2  -1    3.04    0.78
   7  -2  -1    3.82    0.87
   7   2   1    4.42    1.16
  -7  -2   1    4.33    1.24
   7   2   1    5.27    1.07
   7  -2  -1    4.45    0.83
  -7  -2   1    4.52    1.10
  -7   2  -1    3.35    0.80
  -7   2  -1    2.83    0.74
   7  -2  -1    4.23    0.98
  -9  -2  -1    2.19    0.82
   9  -2   1    2.25    0.74
  -9   2   1    1.45    1.06
  -9   2   1    2.96    1.03
   9  -2   1    2.47    0.51
   9   2  -1    1.72    0.76
  -9   2   1    3.01    0.81
  -9   2   1    2.27    0.75
   9  -2   1    2.82    0.57
   9   2  -1    4.03    1.07
   9   2  -1    2.09    1.00
  -9  -2  -1    1.88    0.87
   9   2  -1    4.81    1.34
   9  -2  -1    2.45    0.72
   9   2   1    3.07    0.86
  -9  -2   1    4.22    1.33
  -9   2  -1    3.16    0.75
   9  -2  -1    1.22    0.62
  -9   2  -1    2.36    0.65
   9  -2  -1    3.23    0.74
   9   2   1    3.84    1.11
   9   2   1    2.54    0.78
  -9  -2   1    3.45    0.98
   9  -2  -1    2.73    0.90
  -9   2  -1    1.33    0.48
 -11  -2  -1   17.78    3.29
 -11  -2  -1   18.24    2.24
  11   2  -1   18.91    2.52
  11  -2   1   19.70    1.08
 -11  -2  -1   18.68    2.48
  11  -2   1   18.99    1.10
 -11   2   1   20.37    2.71
  11  -2   1   19.41    2.34
 -11   2   1   22.67    2.23
 -11   2   1   24.18    1.79
  11   2  -1   20.77    2.29
 -11   2   1   18.78    3.12
  11   2   1   22.31    2.48
  11   2   1   26.76    2.36
 -11   2  -1   19.39    1.41
 -11  -2   1   19.69    2.65
  11  -2  -1   17.66    2.45
 -11  -2   1   23.91    2.72
  11  -2  -1   20.18    1.66
  11  -2  -1   20.05    1.98
 -11   2  -1   23.27    1.14
 -11   2  -1   18.79    3.23
 -13   2   1   44.04    5.41
 -13   2   1   48.53    2.48
  13  -2   1   42.96    1.89
 -13  -2  -1   56.20    3.39
 -13  -2  -1   44.10    3.05
 -13   2   1   43.20    2.63
  13   2  -1   51.48    3.15
  13   2  -1   50.39    3.59
  13  -2   1   41.50    1.91
 -13  -2  -1   38.44    5.24
 -13  -2   1   39.96    3.12
  13  -2  -1   53.10    3.93
  13  -2  -1   45.49    2.73
 -13   2  -1   47.27    2.26
 -13   2  -1   52.76    6.33
  13   2   1   51.13    2.86
 -13  -2   1   43.88    3.34
  13   2   1   44.19    3.17
  13  -2  -1   47.27    2.78
 -15  -2  -1    9.37    1.77
 -15   2   1   10.25    3.05
  15  -2   1    6.80    0.91
  15   2  -1    8.99    2.02
 -15   2   1    6.57    1.28
  15  -2   1    6.67    0.92
 -15  -2  -1    9.48    1.74
 -15  -2   1    6.80    1.73
  15  -2  -1    5.04    1.21
 -15   2  -1    7.46    0.88
 -15   2  -1    9.49    3.14
 -15  -2   1    9.18    1.99
  15  -2  -1    6.10    1.35
  15   2   1   10.33    1.97
  17  -2   1    0.71    0.61
  17  -2   1    1.11    0.65
 -17   2   1    1.09    1.62
 -17   2   1    1.02    0.61
  17   2  -1   -0.66    0.91
 -17  -2  -1    1.52    0.97
  17   2   1    0.99    1.20
 -17  -2   1    1.77    1.06
 -17   2  -1    1.44    1.52
 -17  -2   1    1.20    1.13
  17  -2  -1    0.03    0.71
  17  -2  -1   -0.14    1.48
  19   2  -1   -1.04    0.99
 -19  -2  -1    0.65    0.93
  19  -2   1    1.08    0.82
 -19   2   1    0.38    0.80
  19  -2   1    0.86    0.71
 -19   2   1   -0.48    1.55
 -19   2  -1   -0.12    1.66
 -19  -2   1    0.49    0.97
  19  -2  -1    0.40    0.87
  19   2   1    0.54    1.13
  21  -2   1    2.72    1.26
  21   2  -1    2.17    1.77
 -21  -2  -1    4.23    1.34
 -21   2   1    5.70    3.21
  21  -2   1    2.96    1.04
  21   2   1    2.79    1.57
 -21   2  -1   -0.15    2.10
 -21  -2   1    3.68    1.60
  21  -2  -1    1.84    1.05
   0  -3   1  138.76    5.60
   0   3  -1  140.70    5.94
   0   3   1  137.94    6.34
   0   3   1  134.34    5.97
   0  -3  -1  138.93    5.60
   0  -3  -1  142.18    6.18
   0   3  -1  142.31    5.58
   0   3  -1  147.67    6.42
   0  -3   1  144.76    6.22
   0  -3   1  132.16    5.56
   0  -3  -1  135.70    6.34
   0   3   1  132.05    5.51
   0  -3   1  137.28    6.36
   0   3  -1  126.93    5.33
   0   3   1  138.13    5.53
  -2   3   1    6.68    1.37
   2  -3   1    6.79    1.52
   2   3  -1    5.34    1.28
  -2   3   1    6.36    1.12
  -2  -3  -1    5.82    1.37
   2   3  -1    6.04    1.53
   2   3  -1    8.55    1.48
  -2  -3  -1    5.51    1.49
   2  -3   1    7.50    1.52
  -2   3   1    5.59    1.12
   2  -3   1    6.61    1.20
  -2  -3  -1    5.30    1.22
  -2   3   1    4.65    1.25
  -2  -3   1    6.10    1.45
   2   3   1    5.64    1.43
   2   3   1    7.30    1.34
  -2   3  -1    6.64    1.14
   2   3   1    6.64    1.40
  -2   3  -1    5.77    1.40
  -2   3  -1    4.48    0.96
   2   3   1    7.81    1.32
   2  -3  -1    3.70    0.88
   2  -3  -1    5.51    1.42
  -2  -3   1    4.91    1.12
  -2  -3   1    7.40    1.69
   2  -3  -1    5.80    1.21
  -2   3  -1    5.89    1.23
   4   3  -1   16.33    2.40
   4   3  -1   18.99    2.24
  -4   3   1   16.20    2.39
  -4  -3  -1   17.66    1.98
  -4  -3  -1   16.99    2.09
  -4  -3  -1   21.82    2.84
   4   3  -1   15.16    2.16
   4  -3   1   22.18    2.45
  -4   3   1   19.31    2.29
   4  -3   1   19.98    2.64
   4  -3   1   22.33    2.18
   4  -3   1   20.18    2.47
  -4   3   1   20.78    1.83
   4   3   1   22.00    2.33
  -4   3  -1   19.93    2.51
  -4  -3   1   13.51    1.96
   4  -3  -1   27.14    3.10
  -4   3  -1   18.83    1.18
   4  -3  -1   23.78    2.31
   4   3   1   20.34    2.56
   4  -3  -1   14.24    1.96
  -4   3  -1   19.03    2.18
   4  -3  -1   19.97    2.62
   4   3   1   19.47    2.67
  -4  -3   1   16.53    2.46
  -4  -3   1   19.58    2.10
  -6  -3  -1   62.33    4.36
   6   3  -1   56.49    3.86
  -6   3   1   61.83    3.28
  -6  -3  -1   60.23    4.08
  -6   3   1   51.81    3.52
   6   3  -1   65.71    4.15
  -6  -3  -1   56.67    2.97
   6   3  -1   57.87    3.40
  -6  -3  -1   57.60    3.63
   6  -3   1   55.15    3.10
   6  -3   1   59.66    3.56
   6  -3   1   52.56    3.29
   6  -3   1   58.31    3.00
  -6   3   1   55.87    3.33
   6   3  -1   59.87    3.75
   6  -3  -1   59.30    3.42
  -6   3  -1   54.29    3.38
  -6   3  -1   60.36    2.74
  -6  -3   1   60.23    3.19
   6  -3  -1   53.89    3.51
   6   3   1   62.19    3.82
   6  -3  -1   60.62    3.12
  -6   3  -1   54.36    3.22
   6   3   1   53.65    3.29
  -6  -3   1   53.86    3.68
   6   3   1   54.15    3.72
   6   3   1   51.79    3.72
   6  -3  -1   53.62    3.59
  -6  -3   1   61.51    4.12
   8   3  -1    1.51    0.84
   8  -3   1    0.40    0.57
   8   3  -1    0.52    0.79
   8  -3   1    1.00    0.63
   8   3  -1    1.89    1.05
  -8   3   1    0.36    0.62
   8  -3   1    1.22    0.83
  -8  -3  -1   -0.19    0.63
  -8   3   1   -0.01    0.63
  -8   3   1    2.36    0.86
   8  -3   1    0.59    0.53
  -8  -3  -1    1.05    0.94
   8   3   1    1.52    0.81
   8   3   1    1.35    0.91
   8   3   1    0.62    0.81
  -8  -3   1    0.43    0.83
  -8  -3   1   -0.17    0.81
  -8   3  -1    0.99    0.64
  -8   3  -1   -0.12    0.51
   8  -3  -1    1.48    0.71
  -8   3  -1    1.06    0.54
   8  -3  -1    0.40    0.69
   8  -3  -1    0.75    0.59
 -10   3   1    0.98    0.66
  10   3  -1    2.54    1.24
 -10   3   1    1.08    0.77
  10  -3   1    0.83    0.52
 -10  -3  -1    2.51    1.24
  10   3  -1    2.12    1.01
  10  -3   1    0.25    0.57
  10   3  -1    0.02    0.72
  10  -3   1    0.00    0.70
 -10   3   1    1.93    0.91
  10  -3   1   -0.24    0.46
 -10  -3  -1    0.63    0.70
 -10  -3   1    1.55    1.05
  10   3   1    0.11    0.59
 -10   3  -1    0.83    0.68
  10   3   1    0.13    0.84
  10  -3  -1    0.07    0.54
 -10  -3   1    0.45    0.90
  10  -3  -1    1.01    0.64
  10  -3  -1    0.64    0.86
 -10   3  -1    3.15    0.93
  10  -3  -1    0.40    0.65
  10   3   1    0.56    0.70
 -12  -3  -1    5.66    1.66
 -12   3   1    5.13    1.35
  12   3  -1    8.75    2.21
  12   3  -1    6.14    1.57
 -12   3   1    5.43    1.23
  12  -3   1    6.72    1.36
 -12  -3  -1    4.34    1.56
 -12   3   1    8.23    2.47
  12  -3   1    4.54    1.22
  12  -3  -1    6.25    1.52
  12   3   1    6.19    1.75
 -12   3  -1    6.99    1.33
  12   3   1    6.76    1.55
 -12   3  -1    8.46    1.38
 -12  -3   1    7.65    2.09
 -12  -3   1    8.70    2.00
 -14  -3  -1   35.40    3.94
 -14   3   1   30.09    4.87
  14  -3   1   28.55    2.38
  14   3  -1   33.79    4.25
 -14   3   1   23.33    2.62
  14   3  -1   24.57    3.09
 -14  -3  -1   28.58    3.41
  14  -3   1   27.82    2.33
 -14   3   1   27.95    2.23
 -14  -3   1   34.46    4.19
  14   3   1   22.68    3.36
 -14   3  -1   28.10    2.05
  14   3   1   39.50    3.67
 -14   3  -1   30.92    5.22
  14  -3  -1   31.75    3.33
 -14  -3   1   32.04    3.68
 -16   3   1    1.89    1.86
  16   3  -1    7.51    2.03
 -16   3   1    4.21    1.16
 -16  -3  -1    9.43    2.28
  16  -3   1    8.57    1.62
  16  -3   1    8.94    1.68
  16   3  -1    7.58    1.84
 -16  -3  -1   10.94    2.16
  16   3   1    9.89    2.54
  16  -3  -1    8.74    1.85
 -16   3  -1    9.44    3.26
 -16  -3   1    9.33    2.27
 -16   3  -1    7.04    1.20
 -16  -3   1    5.87    1.90
 -18   3   1    1.31    2.27
 -18  -3  -1    4.38    1.67
 -18   3   1    2.87    0.99
  18   3  -1    6.40    2.36
  18  -3   1    4.60    1.31
 -18   3  -1    3.80    2.36
 -18  -3   1    7.41    2.19
  18   3   1    3.54    1.82
 -18  -3   1    2.83    1.48
  18  -3  -1    4.07    1.40
  20  -3   1   -0.84    0.83
  20   3  -1    1.74    1.54
 -20  -3  -1    2.28    1.37
 -20   3   1   -2.26    1.50
  20  -3  -1   -0.84    0.90
  20   3   1   -0.02    1.43
 -20  -3   1   -0.08    1.25
 -20   3  -1   -0.95    2.03
   1  -4   1   40.70    2.97
   1  -4   1   37.24    2.81
  -1  -4  -1   39.42    2.96
   1   4  -1   40.87    3.23
  -1   4   1   44.02    2.95
  -1   4   1   39.49    2.81
  -1   4   1   43.18    3.23
   1  -4   1   39.95    4.16
  -1   4   1   46.89    3.44
  -1  -4  -1   50.50    3.65
   1   4  -1   44.49    2.98
   1   4  -1   46.05    3.71
   1   4  -1   41.37    2.97
  -1  -4  -1   40.73    4.39
  -1   4   1   50.84    3.81
   1  -4  -1   44.86    3.63
  -1  -4   1   44.11    3.06
   1  -4  -1   44.57    3.51
   1  -4  -1   43.80    3.04
  -1  -4   1   37.36    4.17
   1   4   1   48.78    3.15
  -1   4  -1   43.35    2.83
   1   4   1   41.90    4.47
   1   4   1   39.97    2.97
   1   4   1   39.95    3.26
  -1  -4   1   43.59    3.49
  -1   4  -1   41.61    4.31
  -1   4  -1   44.15    3.23
  -1   4  -1   42.83    3.13
  -1   4  -1   45.75    2.94
  -3   4   1   26.17    2.49
  -3   4   1   21.95    3.09
   3  -4   1   28.36    3.56
  -3  -4  -1   24.46    3.00
   3   4  -1   29.38    3.54
  -3  -4  -1   27.13    2.83
   3  -4   1   22.95    3.13
   3  -4   1   29.28    3.56
  -3   4   1   27.49    2.31
  -3   4   1   26.72    2.62
   3  -4   1   26.88    2.92
  -3  -4  -1   25.58    3.23
   3   4  -1   29.46    3.15
  -3  -4  -1   26.67    3.67
  -3   4   1   24.05    2.95
   3  -4   1   29.58    3.09
   3   4  -1   23.71    3.23
  -3   4  -1   28.09    2.25
   3   4   1   34.25    4.14
   3  -4  -1   25.37    2.79
  -3  -4   1   25.45    3.06
  -3   4  -1   25.36    2.97
   3  -4  -1   28.59    3.44
  -3   4  -1   22.13    2.35
  -3  -4   1   26.61    2.88
   3   4   1   20.10    2.77
   3  -4  -1   29.16    3.96
   3  -4  -1   26.51    3.40
  -3   4  -1   26.38    3.40
  -3   4  -1   25.33    2.40
   3   4   1   27.62    2.83
   3   4   1   27.02    2.89
  -3  -4   1   22.52    3.34
  -5   4   1   91.54    5.01
  -5   4   1   96.30    5.42
   5   4  -1   88.00    4.88
  -5  -4  -1   84.82    4.53
   5  -4   1   89.57    4.58
   5  -4   1   94.89    4.71
  -5  -4  -1   91.83    5.84
   5   4  -1   90.59    5.65
  -5   4   1   85.89    3.85
   5  -4   1   87.22    4.93
   5   4  -1   98.19    6.32
  -5  -4  -1   89.92    4.87
   5  -4   1  102.82    5.76
  -5  -4  -1   98.43    5.34
   5   4   1   90.06    5.38
  -5   4  -1   87.75    3.62
   5   4   1   89.12    4.90
   5   4   1   92.11    5.64
  -5  -4   1   79.94    5.06
   5  -4  -1   94.79    5.66
   5  -4  -1   81.38    4.52
   5   4   1   84.48    5.49
  -5  -4   1   98.30    5.21
  -5   4  -1   86.76    5.22
  -5  -4   1   93.91    5.91
  -5   4  -1   89.23    4.97
  -5  -4   1   82.72    4.52
   5  -4  -1   95.48    5.22
   5   4   1   83.54    4.67
   7   4  -1   97.21    6.06
  -7   4   1  106.67    5.45
   7  -4   1   97.52    5.82
  -7  -4  -1   96.73    6.18
  -7  -4  -1   94.19    5.59
   7   4  -1  103.57    5.46
  -7   4   1  100.06    4.88
   7  -4   1   93.68    4.81
  -7   4   1  107.67    5.91
   7  -4   1   94.96    5.11
   7   4   1   95.43    5.95
   7   4   1   85.56    5.01
  -7  -4   1  104.50    6.39
   7   4   1  105.68    6.16
   7  -4  -1   98.88    4.98
  -7   4  -1   99.42    5.22
  -7  -4   1   92.72    4.80
   7  -4  -1  101.69    5.95
  -7  -4   1  107.45    5.87
  -7   4  -1  109.82    5.72
   7  -4  -1  113.34    5.79
  -9   4   1   50.25    3.69
   9  -4   1   56.92    3.70
   9  -4   1   47.64    3.86
  -9  -4  -1   48.45    4.84
  -9  -4  -1   47.22    5.19
   9   4  -1   50.58    4.74
   9   4  -1   50.50    4.38
  -9   4   1   54.88    3.98
   9  -4   1   48.11    3.22
  -9   4  -1   52.49    3.73
   9   4   1   49.79    4.41
  -9  -4   1   52.75    4.85
  -9  -4   1   51.51    5.49
   9  -4  -1   54.68    4.20
   9  -4  -1   56.32    3.51
  -9   4  -1   50.90    3.53
   9   4   1   52.63    4.35
  11   4  -1   23.10    3.07
  11  -4   1   26.76    2.85
 -11  -4  -1   16.96    2.85
 -11   4   1   21.37    2.76
  11   4  -1   21.62    3.70
  11  -4   1   24.64    3.29
 -11  -4  -1   21.48    3.52
 -11   4   1   20.83    2.99
 -11   4  -1   19.80    2.58
 -11  -4   1   26.03    3.55
 -11   4  -1   23.28    2.89
 -11  -4   1   25.07    3.93
  11   4   1   25.64    3.27
  11   4   1   24.92    3.73
  11  -4  -1   21.32    3.16
  11  -4  -1   20.85    2.56
 -13   4   1    1.75    1.01
 -13   4   1    1.39    0.99
  13   4  -1    1.81    1.59
  13  -4   1    0.67    1.12
 -13  -4  -1    1.83    1.44
  13   4  -1    1.35    1.12
 -13   4   1    0.10    1.27
 -13  -4  -1    3.79    1.57
  13   4   1    1.76    1.34
  13   4   1    2.17    1.40
 -13  -4   1    3.28    1.49
  13  -4  -1   -0.15    0.88
 -13  -4   1    0.22    1.18
 -13   4  -1    2.08    1.07
 -13   4  -1    1.31    0.89
 -15   4   1   15.33    3.66
  15   4  -1   11.09    2.34
  15  -4   1   13.83    2.58
 -15   4   1   11.87    2.15
 -15  -4  -1   12.12    2.80
  15   4  -1   14.27    3.10
 -15  -4  -1    8.82    2.35
 -15   4   1   12.50    2.14
  15   4   1   11.63    2.49
 -15  -4   1   10.42    2.50
  15  -4  -1    8.61    2.08
 -15   4  -1    9.09    1.69
 -15   4  -1   11.13    3.41
  15   4   1   10.37    2.74
 -15  -4   1    9.15    2.57
 -17  -4  -1   34.17    4.45
 -17   4   1   31.87    5.59
 -17  -4  -1   36.81    4.69
 -17   4   1   25.83    2.99
  17   4  -1   23.12    3.56
  17   4  -1   30.44    4.64
  17  -4   1   31.43    3.79
 -17   4  -1   32.01    6.09
 -17  -4   1   28.33    4.00
 -17   4  -1   29.90    2.90
  17   4   1   33.33    4.78
  17  -4  -1   31.61    4.10
  17   4   1   36.89    4.42
 -17  -4   1   35.37    4.81
  19   4  -1   15.28    3.67
 -19  -4  -1   14.61    2.95
  19  -4   1   12.71    2.63
 -19   4   1   21.80    5.06
 -19   4   1   12.47    2.08
  19  -4  -1   15.82    2.90
 -19  -4   1   13.44    2.95
 -19   4  -1   18.28    4.68
  19   4   1   16.13    3.74
   0  -5   1   54.65    5.79
   0  -5  -1   52.29    4.65
   0  -5  -1   58.44    5.84
   0   5   1   48.09    5.26
   0   5  -1   52.13    5.04
   0   5  -1   47.38    4.23
   0   5   1   42.51    3.96
   0  -5   1   40.95    4.14
   0   5   1   55.23    4.19
   0   5   1   49.41    3.59
   0   5  -1   54.47    5.58
   0   5  -1   43.12    3.28
   2   5  -1    3.28    1.74
  -2  -5  -1    2.24    1.36
   2   5  -1    4.94    1.87
  -2   5   1    3.62    1.15
   2  -5   1    3.68    1.71
  -2  -5  -1    5.78    1.96
   2   5  -1    4.57    1.37
   2  -5   1    5.09    1.56
  -2   5   1    4.43    1.70
  -2   5   1    5.22    1.47
  -2   5   1    6.09    1.97
  -2  -5  -1    2.24    1.04
   2   5  -1    3.33    1.21
  -2   5  -1    6.34    1.45
   2   5   1    7.11    2.03
  -2   5  -1    2.82    1.51
   2   5   1    4.90    1.59
   2  -5  -1    5.05    1.83
  -2  -5   1    1.82    1.47
   2  -5  -1    4.27    1.36
  -2   5  -1    1.93    0.92
  -2  -5   1    4.14    1.86
   2   5   1    4.40    1.32
  -2   5  -1    4.03    1.64
  -2  -5   1    2.83    1.13
   2   5   1    3.46    1.83
  -4  -5  -1    3.21    1.58
   4  -5   1    2.47    1.27
  -4   5   1    7.92    2.02
  -4   5   1    3.78    1.11
  -4  -5  -1    8.12    2.41
   4  -5   1    6.44    2.20
  -4  -5  -1    6.31    1.56
   4   5  -1    7.37    2.27
  -4   5   1    3.21    1.47
   4   5  -1    4.28    1.50
   4   5  -1    8.45    1.89
   4   5   1    7.04    2.26
  -4  -5   1    6.42    2.06
  -4   5  -1    3.62    1.02
  -4   5  -1    5.00    1.60
  -4  -5   1    4.77    1.48
  -4   5  -1    6.30    2.01
  -4  -5   1    7.56    2.04
   4  -5  -1    6.02    1.69
   4   5   1    3.43    1.33
   4   5   1    5.53    1.57
  -6  -5  -1    7.82    1.75
  -6  -5  -1    5.86    2.14
   6   5  -1   10.62    3.34
   6   5  -1    9.56    2.12
  -6   5   1   11.05    2.23
  -6   5   1   12.43    2.71
  -6   5   1    9.98    1.47
   6  -5   1    6.30    1.60
   6  -5   1    9.94    2.51
  -6  -5  -1   12.35    2.55
   6  -5   1   12.62    2.12
   6   5   1    9.56    2.12
   6  -5  -1    8.36    1.88
  -6  -5   1    9.33    2.02
  -6   5  -1    9.54    2.28
  -6  -5   1   13.62    2.63
   6   5   1   11.29    2.27
   6  -5  -1    9.00    2.58
  -6  -5   1    8.24    2.32
  -6   5  -1   13.50    2.78
  -8  -5  -1    3.96    1.69
  -8   5   1    5.60    1.74
   8  -5   1    2.74    1.25
   8   5  -1    4.42    1.64
  -8  -5  -1    1.84    1.43
  -8   5   1    4.99    1.88
   8  -5   1    2.71    1.71
  -8   5  -1    2.86    1.52
   8   5   1    4.84    1.54
   8   5   1    3.52    1.47
  -8  -5   1    5.89    1.93
  -8   5  -1    4.45    1.60
  -8  -5   1    2.71    1.62
   8  -5  -1    4.89    1.53
   8  -5  -1    5.83    2.14
  10  -5   1   14.08    2.34
 -10  -5  -1   13.60    3.08
 -10   5   1   11.46    2.52
 -10   5   1    9.36    2.41
 -10  -5  -1   17.95    3.22
  10  -5   1   17.81    3.36
  10   5  -1    9.20    2.27
 -10   5  -1   11.57    2.51
 -10   5  -1   12.00    2.46
  10  -5  -1   12.54    2.26
 -10  -5   1   12.65    3.05
 -10  -5   1   11.97    2.73
  10   5   1   13.46    2.58
  10  -5  -1   15.76    3.26
 -12   5   1    1.56    1.23
 -12   5   1    0.48    1.09
 -12  -5  -1   -0.56    0.95
  12  -5   1    2.50    1.70
  12   5  -1   -0.55    0.93
 -12  -5  -1    0.08    1.18
  12  -5   1    1.27    1.08
 -12   5  -1    1.22    1.00
  12   5   1    1.60    1.27
 -12  -5   1    1.14    1.26
 -12  -5   1    1.75    1.42
 -12   5  -1    0.17    1.02
  12  -5  -1    1.63    1.52
  12  -5  -1    1.93    1.31
  14  -5   1    1.04    1.34
 -14  -5  -1   -0.91    1.23
  14   5  -1    3.74    1.68
 -14  -5  -1    1.29    1.42
 -14   5   1    0.73    1.07
 -14   5   1    0.44    1.21
 -14   5   1    0.70    1.50
  14   5   1    0.90    1.35
 -14  -5   1    0.91    1.38
  14  -5  -1   -0.29    1.37
 -14  -5   1    0.51    1.55
 -14   5  -1    0.85    0.93
 -14   5  -1   -0.56    1.05
 -16  -5  -1    0.41    1.18
 -16   5   1    0.04    0.90
 -16   5   1   -0.18    1.71
  16   5  -1    0.62    1.38
  16  -5   1    0.25    1.38
 -16  -5   1   -1.69    1.17
 -16   5  -1   -0.06    1.63
  16  -5  -1    0.60    1.34
 -16   5  -1    1.68    1.16
  16   5   1    1.03    2.11
  16   5   1    1.64    1.67
  18   5  -1    0.77    1.69
  18  -5   1    1.61    1.60
 -18  -5  -1    0.21    1.25
 -18   5   1    0.02    0.86
 -18   5  -1   -1.43    1.91
 -18  -5   1   -0.76    1.12
  18   5   1   -0.58    1.89
 -18   5  -1    0.40    1.00
  18  -5  -1    2.32    1.84
  18   5   1   -0.99    1.37
   1   6  -1   19.26    2.89
  -1   6   1   16.46    2.60
   1  -6   1   12.57    2.51
   1   6  -1   17.83    2.84
  -1  -6  -1   16.36    3.40
  -1   6   1   19.30    3.40
   1   6  -1   17.36    3.39
  -1  -6  -1   14.27    2.69
   1   6  -1   11.85    2.83
  -1   6   1   10.38    2.13
  -1   6   1   18.83    3.88
  -1   6  -1   23.26    4.10
   1  -6  -1   15.82    3.90
  -1   6  -1   11.77    2.32
  -1   6  -1   15.74    2.98
   1  -6  -1   13.52    2.64
  -1  -6   1   16.37    3.48
  -1  -6   1   13.87    2.64
   1   6   1   14.89    2.67
   1   6   1   13.46    2.60
   1   6   1   12.98    2.98
  -1   6  -1   15.40    2.49
  -3  -6  -1   18.03    3.55
  -3   6   1   24.82    3.77
   3   6  -1   20.25    3.06
  -3   6   1   19.01    3.62
  -3   6   1   19.78    2.59
   3   6  -1   16.95    3.41
  -3  -6  -1   18.69    3.09
   3  -6   1   25.14    3.35
   3   6  -1   15.52    2.92
  -3   6  -1   18.85    2.54
   3   6   1   18.42    3.03
  -3  -6   1   20.26    3.06
   3   6   1   13.12    3.02
  -3   6  -1   19.59    3.50
  -3   6  -1   22.47    4.01
   3   6   1   25.24    3.54
  -3  -6   1   12.86    3.05
   3  -6  -1   15.64    2.80
  -5   6   1   42.49    3.10
  -5  -6  -1   44.55    5.25
  -5   6   1   45.24    5.57
   5   6  -1   40.43    4.58
   5  -6   1   48.28    4.73
  -5   6   1   47.95    5.14
   5   6  -1   43.31    4.66
  -5  -6  -1   46.85    4.81
  -5  -6  -1   43.65    5.94
   5   6   1   44.44    4.84
  -5   6  -1   47.00    3.09
  -5  -6   1   44.94    5.17
  -5   6  -1   45.99    5.04
  -5   6  -1   41.64    5.47
  -5  -6   1   34.88    5.24
   5  -6  -1   42.17    4.66
   5   6   1   37.17    4.38
  -5  -6   1   39.76    4.32
   7   6  -1   35.21    4.55
  -7   6   1   24.40    3.67
   7  -6   1   36.31    4.09
  -7  -6  -1   33.77    4.56
  -7  -6  -1   26.37    4.53
   7   6  -1   34.85    4.18
  -7   6   1   37.12    5.12
  -7  -6   1   43.09    5.14
   7   6   1   39.55    4.63
   7   6   1   41.35    4.72
  -7   6  -1   32.56    4.69
  -7   6  -1   31.16    4.07
   7  -6  -1   41.32    4.41
  -7  -6   1   37.35    5.56
   9  -6   1   -0.31    1.24
   9  -6   1   -0.81    0.78
  -9  -6  -1    1.92    1.57
   9   6  -1    0.43    0.94
  -9   6   1    0.72    1.31
  -9  -6  -1    1.59    1.50
  -9   6   1    0.03    1.25
  -9  -6   1   -1.85    1.03
  -9   6  -1    0.35    1.21
   9  -6  -1    0.14    1.78
  -9   6  -1   -0.50    1.02
  -9  -6   1    0.40    1.30
   9   6   1   -0.57    0.96
   9   6   1    0.39    1.14
   9  -6  -1   -0.37    0.97
  11  -6   1    4.43    1.68
 -11  -6  -1    3.88    2.05
 -11   6   1    3.61    1.84
 -11  -6  -1    3.21    1.93
  11   6  -1    2.75    1.78
  11  -6   1    4.87    2.30
 -11   6   1    2.32    1.48
  11   6   1    1.78    1.41
 -11  -6   1    3.39    1.97
  11   6   1    0.45    1.32
 -11   6  -1    2.27    1.39
 -11   6  -1    2.98    1.86
 -11  -6   1    5.33    2.47
  11  -6  -1    2.37    1.41
  11  -6  -1    3.54    2.30
 -13   6   1    0.13    1.51
  13   6  -1    1.13    1.51
 -13  -6  -1    0.97    1.32
  13  -6   1    0.33    1.66
 -13   6   1   -0.45    0.85
  13  -6   1    2.02    1.33
 -13  -6  -1    0.73    1.62
  13  -6  -1   -0.84    0.94
 -13   6  -1    0.71    1.41
 -13  -6   1    0.39    1.55
 -13  -6   1    0.58    1.38
  13   6   1   -0.50    1.34
 -13   6  -1    0.65    1.27
  13  -6  -1    1.10    1.65
 -15  -6  -1    2.45    1.89
 -15   6   1    2.25    1.62
  15  -6   1    1.67    1.92
  15   6  -1    4.62    2.18
  15  -6  -1    8.07    2.99
 -15  -6   1    4.81    2.14
  15   6   1    6.44    2.23
 -15   6  -1    5.34    1.99
   0   7   1    7.75    2.06
   0   7  -1    5.54    2.27
   0  -7  -1   12.00    2.77
   0   7   1   11.89    3.47
   0   7   1    6.81    2.14
   0   7  -1    8.57    2.10
   0   7  -1   13.19    2.71
   0  -7   1    8.53    2.34
   2  -7   1    0.83    1.43
   2   7  -1    2.02    1.52
   2   7  -1   -0.77    1.03
  -2  -7  -1    1.75    1.45
  -2   7   1    1.06    1.62
  -2   7   1   -0.54    0.94
   2   7  -1    0.48    1.66
  -2   7   1    0.54    1.50
  -2  -7  -1   -0.34    1.25
   2   7   1   -1.45    1.06
  -2   7  -1   -0.22    0.96
   2  -7  -1    1.67    1.42
  -2  -7   1    0.43    1.16
  -2   7  -1    0.30    1.30
  -2   7  -1    1.70    1.60
   2   7   1    1.42    1.26
   2   7   1    0.47    1.30
  -2  -7   1   -0.14    1.55
  -4   7   1   -0.16    1.28
  -4   7   1    3.22    1.33
  -4  -7  -1    3.10    2.08
  -4  -7  -1   -0.21    1.14
   4  -7   1    6.89    2.22
   4   7  -1    4.59    1.81
  -4   7   1    2.16    1.84
   4   7  -1    1.31    1.26
   4  -7  -1    1.53    1.34
  -4  -7   1    6.15    2.06
  -4  -7   1    1.48    1.82
   4   7   1    2.79    1.71
  -4   7  -1    3.01    1.82
  -4   7  -1    2.37    1.21
  -4   7  -1    3.13    1.86
   4   7   1    2.13    1.62
   6  -7   1    3.74    1.91
  -6   7   1    0.18    1.34
  -6   7   1    1.37    1.49
   6   7  -1    0.10    1.23
  -6  -7  -1    3.33    2.17
   6   7  -1    1.34    1.55
   6   7   1    2.09    1.49
   6   7   1    1.15    1.34
  -6   7  -1    1.06    1.51
   6  -7  -1    0.23    1.12
  -6   7  -1    1.51    1.75
  -6  -7   1    0.29    1.48
  -8   7   1    0.18    1.69
   8   7  -1    0.71    1.57
   8   7  -1    2.00    1.55
  -8   7   1    3.24    1.98
  -8  -7  -1    1.87    1.72
   8  -7   1    0.61    1.34
  -8  -7  -1    0.84    1.90
  -8   7  -1   -0.29    1.09
  -8  -7   1    2.26    1.95
   8   7   1    1.11    1.66
   8   7   1    2.94    1.81
  -8  -7   1    1.25    1.93
   8  -7  -1   -0.45    1.10
  -8   7  -1    2.45    1.89
 -10  -7  -1    1.16    1.64
  10  -7   1    4.06    1.83
 -10  -7  -1    0.40    2.14
  10   7  -1   -0.09    1.20
  10   7  -1   -0.90    1.33
 -10   7   1    0.20    1.49
 -10  -7   1    2.37    2.06
  10   7   1    1.84    1.70
 -10  -7   1   -0.48    1.48
 -10   7  -1    2.98    2.56
 -10   7  -1    0.95    1.50
  10  -7  -1   -0.04    1.19
  10   7   1    2.26    1.69
  12  -7   1    1.03    1.49
  12   7  -1   -0.38    1.73
 -12   7   1    0.57    1.33
  12   7  -1    0.68    1.58
 -12  -7  -1    0.29    1.44
  12   7   1    0.65    1.47
 -12   7  -1   -1.37    1.07
  12  -7  -1    0.55    1.26
  12   7   1   -1.40    1.31
 -12  -7   1    2.63    2.27
  -1   8   1    6.02    2.12
  -1  -8  -1    7.56    2.72
   1  -8   1    3.09    1.91
   1   8  -1    4.26    2.48
   1   8  -1   12.27    2.85
  -1   8   1    9.46    3.07
  -1   8  -1    8.86    2.37
   1  -8  -1    6.74    2.31
   1   8   1    8.02    3.10
   1   8   1    3.64    1.88
   1   8   1    7.32    2.43
  -1   8  -1    6.25    2.56
  -1  -8   1    6.90    2.43
   3  -8   1    3.33    1.80
  -3   8   1    3.86    2.30
  -3   8   1    4.86    1.79
  -3  -8  -1    3.26    1.77
   3   8  -1    6.13    2.40
   3   8  -1    2.70    1.71
  -3   8   1    4.14    2.35
  -3   8  -1    6.26    2.79
  -3  -8   1    4.58    2.04
   3  -8  -1    4.72    2.02
  -3   8  -1    5.38    2.31
   3   8   1    3.37    1.89
  -3   8  -1    8.16    1.97
   3   8   1    4.80    1.96
  -5  -8  -1   18.95    4.48
  -5   8   1   15.91    3.61
   5  -8   1   13.65    3.04
   5   8  -1   21.79    3.89
   5   8  -1   14.39    3.22
   5  -8  -1   18.38    3.68
   5   8   1   20.74    3.91
  -5  -8   1   27.26    5.54
  -5   8  -1   19.49    4.25
   5   8   1   22.92    3.98
   7   8  -1   21.58    4.07
  -7   8   1   21.92    4.27
   7   8  -1   24.73    4.17
   7  -8   1   13.18    3.11
  -7   8  -1   23.53    4.46
   7   8   1   20.24    3.97
   7   8   1   27.95    4.66
   7  -8  -1   18.72    3.67
   9   8  -1   10.21    3.10
   9   8  -1   10.13    2.97
   9  -8   1    6.86    2.35
  -9   8   1    9.16    2.90
   9   8   1    6.99    2.63
  -9   8  -1   11.62    3.20
   9   8   1    9.60    2.80
   9  -8  -1    6.71    2.59
   0   0   2   79.48    3.04
   0   0  -2   81.58    3.05
  -2   0  -2  494.14   14.87
   2   0   2  519.45   14.41
  -2   0   2  532.13   15.27
   2   0  -2  514.16   15.27
   2   0   2  517.70   14.88
  -2   0   2  510.12   15.27
   2   0  -2  531.58   15.28
   2   0   2  541.70   14.43
   4   0  -2    2.81    0.71
   4   0  -2    1.88    0.66
  -4   0   2    1.55    0.59
  -4   0   2    1.85    0.60
  -6   0  -2   19.22    2.40
   6   0  -2   26.20    2.45
  -6   0   2   31.83    3.11
  -6   0  -2   21.05    0.96
  -6   0  -2   22.46    0.97
  -6   0   2   16.83    1.80
  -6   0   2   23.98    1.68
   6   0  -2   22.03    1.61
  -6   0   2   19.56    2.10
  -8   0   2  146.26    6.88
   8   0  -2  139.10    6.28
  -8   0   2  154.34    6.56
   8   0  -2  148.66    4.98
   8   0  -2  147.19    5.35
  -8   0   2  144.87    5.47
  -8   0  -2  131.06    6.87
  -8   0   2  142.75    5.52
  -8   0   2  143.65    5.55
  10   0  -2   52.82    2.92
 -10   0  -2   52.42    4.31
  10   0  -2   56.86    2.91
  10   0  -2   50.58    3.69
  10   0   2   50.01    3.50
 -10   0  -2   55.29    1.98
 -10   0   2   51.68    2.89
  10   0  -2   56.16    2.57
 -10   0   2   54.57    2.88
 -10   0   2   64.51    4.56
 -12   0   2  114.39    4.73
 -12   0  -2  104.76    7.02
  12   0  -2  106.67    4.28
  12   0  -2  102.85    4.77
  12   0   2  112.21    5.89
  12   0  -2  103.22    4.66
 -12   0   2  107.36    6.87
 -12   0   2  103.84    4.64
 -12   0  -2  105.49    3.44
 -12   0  -2  109.05    3.50
  12   0  -2  106.92    6.93
  14   0  -2   55.06    3.25
 -14   0   2   52.14    2.91
 -14   0  -2   50.67    1.80
 -14   0  -2   49.26    6.09
 -14   0   2   57.34    6.58
 -14   0   2   47.34    2.93
  14   0  -2   56.51    3.52
 -16   0   2   17.14    4.04
  16   0  -2    9.92    1.81
 -16   0   2   11.94    1.80
 -16   0  -2   16.68    3.92
  18   0  -2    8.18    1.89
 -18   0   2    5.96    2.60
 -18   0  -2    4.87    2.35
  18   0   2    5.95    1.02
  18   0   2    6.11    0.92
 -18   0   2    5.56    1.32
 -20   0  -2   10.84    4.17
  20   0   2   17.97    1.92
  20   0  -2   11.18    2.29
 -20   0   2   14.69    2.15
 -20   0   2   17.00    4.65
  -1  -1  -2   98.22    3.87
   1  -1   2   94.88    3.56
   1  -1   2   91.57    2.87
   1   1  -2   97.47    3.90
  -1   1   2   97.00    3.69
   1  -1   2   98.56    3.73
  -1   1   2   97.37    3.90
  -1  -1  -2   97.71    3.64
   1   1  -2   93.86    3.46
  -1   1  -2   93.78    3.42
   1   1   2   95.93    3.71
  -1  -1   2   94.60    3.86
  -1  -1   2   95.55    3.45
  -1   1  -2   95.25    3.72
   1   1   2   92.39    3.81
   3   1  -2  106.91    4.25
   3   1  -2  109.46    4.37
  -3  -1  -2  109.53    4.18
   3  -1   2  107.46    3.83
  -3   1   2  108.41    4.25
  -3   1   2   98.45    4.17
  -3  -1  -2  102.59    3.28
   3  -1   2  107.38    3.81
  -3  -1   2  101.88    4.30
  -3   1  -2  102.31    3.80
   3  -1  -2  100.40    4.16
  -3   1  -2  101.03    3.76
   3   1   2  105.25    4.13
   3   1   2  108.27    3.86
  -5   1   2  194.40    7.11
  -5   1   2  189.04    7.19
   5   1  -2  200.25    6.62
  -5  -1  -2  197.92    6.75
  -5  -1  -2  194.57    6.69
   5  -1   2  195.06    6.30
   5   1  -2  198.24    7.13
  -5   1   2  192.95    6.91
  -5  -1  -2  199.70    7.59
   5   1  -2  189.77    7.29
  -5   1  -2  199.97    6.12
   5   1   2  199.35    6.68
   5   1   2  198.79    5.92
   5  -1  -2  192.79    6.83
   5  -1  -2  200.90    7.20
  -5  -1   2  194.18    7.12
  -5   1  -2  196.73    6.13
  -7   1   2   49.63    2.65
   7   1  -2   50.53    2.95
   7  -1   2   50.87    2.61
  -7   1   2   49.66    2.66
  -7   1   2   48.70    3.28
  -7  -1  -2   46.50    2.46
  -7  -1  -2   52.31    2.56
   7   1  -2   53.41    2.86
   7   1  -2   49.27    2.44
  -7   1   2   47.99    3.07
  -7  -1  -2   52.66    3.60
   7   1  -2   50.08    3.26
   7  -1  -2   45.11    2.43
  -7   1  -2   47.33    1.62
   7   1   2   51.48    2.33
  -7   1  -2   48.46    1.60
   7  -1  -2   48.37    2.45
   7  -1  -2   49.26    2.64
  -7  -1   2   45.45    2.81
  -9   1   2    0.59    0.73
  -9   1   2    0.06    0.40
  -9  -1  -2    0.17    0.74
  -9   1   2    0.31    0.41
   9   1  -2   -0.68    0.39
  -9  -1  -2    0.27    0.40
  -9  -1  -2    0.27    0.44
  -9  -1  -2    0.75    0.49
   9  -1   2   -0.51    0.36
  -9   1   2   -0.32    0.36
   9   1  -2    0.67    0.64
  -9   1   2   -0.21    0.54
   9   1  -2    1.42    0.57
  -9  -1   2    0.36    0.44
   9  -1  -2    0.33    0.34
  -9  -1   2    0.47    0.58
   9   1   2    0.01    0.41
  -9   1  -2    1.69    0.99
  -9  -1   2    0.40    0.49
   9   1   2    0.17    0.39
  -9  -1   2   -0.05    0.45
  -9  -1   2    0.41    0.51
   9  -1  -2    0.04    0.37
   9  -1  -2    0.02    0.51
   9  -1  -2    0.13    0.56
 -11  -1  -2    8.97    2.31
  11   1  -2   14.18    2.10
  11   1  -2   14.67    2.60
 -11   1   2   11.16    2.58
  11   1  -2   18.14    2.33
 -11   1   2   13.91    1.72
 -11  -1  -2   13.02    1.43
 -11   1   2   13.82    1.69
  11   1  -2   11.95    1.57
 -11  -1  -2   13.28    1.52
  11  -1   2   12.35    1.89
 -11   1  -2    7.37    2.05
  11  -1  -2   12.42    1.57
 -11  -1   2   11.92    2.53
  11   1   2    9.17    1.09
  11  -1  -2   14.15    1.47
 -11  -1   2   11.93    1.86
 -11  -1   2   11.95    1.71
  11  -1  -2   10.22    1.59
 -11  -1   2   12.21    1.73
  11  -1  -2   17.91    2.67
 -13  -1  -2    5.14    1.04
 -13   1   2    5.28    2.07
 -13   1   2    7.89    1.23
  13   1  -2    7.89    1.37
  13   1  -2    7.69    1.84
  13   1  -2    9.13    1.85
 -13   1   2    5.13    1.11
 -13  -1  -2    6.66    0.89
 -13  -1  -2    4.01    1.69
  13  -1   2    6.32    1.52
 -13   1  -2    5.28    2.18
  13  -1  -2    9.16    1.61
 -13  -1   2    6.12    2.01
  13   1   2    4.21    0.90
  13   1   2    4.04    0.88
  13  -1  -2    6.55    1.28
 -13  -1   2    7.79    1.50
 -13  -1   2    7.06    1.56
 -15   1   2    4.07    1.96
 -15  -1  -2    1.84    1.61
 -15   1   2    1.93    0.83
 -15   1   2    2.91    1.15
  15   1  -2    2.26    1.22
 -15  -1  -2    2.89    0.81
 -15   1  -2    1.06    1.60
 -15  -1   2    2.62    0.99
  15   1   2    3.26    0.95
  15  -1  -2    2.27    0.95
 -15  -1   2    1.81    0.94
  15   1   2    1.40    0.82
  15  -1  -2   -0.07    0.97
 -17  -1  -2   -0.02    0.57
 -17  -1  -2    1.81    1.84
  17   1  -2   -0.32    0.86
 -17   1   2   -1.59    1.10
 -17   1   2    0.08    0.55
  17   1   2    0.64    0.90
  17   1   2    0.03    0.68
  17  -1  -2   -0.07    0.73
 -17  -1   2   -0.69    0.71
 -17   1  -2   -0.17    1.31
 -19   1   2    2.59    2.22
 -19   1   2    2.97    1.07
  19   1  -2    2.57    1.45
 -19  -1  -2    1.89    1.93
  19  -1   2    1.06    0.36
  19  -1   2    0.83    0.36
  19  -1   2    2.06    0.43
  19  -1   2    1.91    0.43
  19  -1  -2    0.81    0.91
 -19   1  -2    1.83    2.31
  19  -1  -2    2.82    1.40
 -19  -1   2    3.30    1.25
  19   1   2    1.74    1.01
 -21   1   2   -0.51    1.83
 -21  -1  -2    0.40    1.89
  21   1  -2    0.13    1.32
  21  -1   2    0.23    0.64
  21  -1   2    0.03    0.75
 -21   1  -2    3.01    2.42
 -21  -1   2    1.99    1.20
  21   1   2    0.77    1.11
  21  -1  -2    0.41    0.92
   0  -2   2  169.74    6.66
   0  -2  -2  167.00    6.41
   0  -2   2  173.55    6.07
   0  -2  -2  174.18    6.15
   0   2   2  167.51    6.65
   0  -2  -2  177.62    6.78
   0   2  -2  175.01    6.38
   0   2   2  170.12    6.49
   0   2  -2  167.51    6.68
   0   2   2  173.63    6.49
   2  -2   2   71.55    3.38
  -2   2   2   68.82    3.71
  -2  -2  -2   70.23    3.43
   2  -2   2   74.14    3.58
  -2   2   2   72.65    3.36
   2  -2   2   72.31    3.11
  -2  -2  -2   70.69    3.77
   2   2  -2   69.76    3.53
   2   2  -2   71.18    3.79
   2   2  -2   71.57    3.26
   2  -2  -2   75.62    3.29
   2   2   2   65.01    3.64
  -2  -2   2   69.40    3.22
  -2  -2   2   69.46    3.58
   2   2   2   70.32    3.53
  -2   2  -2   72.98    3.01
   2  -2  -2   71.47    3.52
  -2   2  -2   65.94    3.50
   2  -2  -2   70.94    3.69
  -2  -2   2   76.41    3.89
   2   2   2   76.84    3.29
   4  -2   2    1.95    0.71
   4  -2   2    2.52    0.80
  -4  -2  -2    2.54    0.67
  -4  -2  -2    1.34    0.75
  -4   2   2    2.43    0.83
   4   2  -2    2.23    0.72
   4  -2   2    2.79    0.68
   4   2  -2    1.71    0.68
   4   2  -2    1.13    0.77
  -4  -2   2    2.86    0.80
   4   2   2    1.63    0.67
   4   2   2    2.48    0.80
  -4  -2   2    0.97    0.72
   4  -2  -2    3.20    0.82
   4  -2  -2    2.06    0.69
  -4   2  -2    2.88    0.78
  -4   2  -2    0.27    0.33
   4  -2  -2    2.14    0.79
   4   2   2    3.45    1.02
   6   2  -2   35.67    2.66
   6   2  -2   34.55    3.24
   6  -2   2   35.00    1.37
   6   2  -2   32.46    3.23
  -6   2   2   37.62    2.60
   6  -2   2   34.53    2.00
  -6   2   2   35.57    2.52
   6   2  -2   36.01    2.56
  -6  -2  -2   33.70    2.57
   6   2  -2   36.92    2.33
   6  -2  -2   33.70    2.08
   6   2   2   36.46    2.61
   6   2   2   35.54    2.51
   6   2   2   37.57    2.37
  -6   2  -2   35.31    2.15
   6  -2  -2   36.39    2.41
  -6   2  -2   35.10    2.15
   6  -2  -2   41.74    2.61
  -6  -2   2   35.10    2.72
   6   2   2   38.44    2.26
   8   2  -2    1.39    0.70
   8   2  -2    1.79    0.94
   8   2  -2    4.06    1.29
  -8   2   2    0.55    0.51
  -8   2   2    1.09    0.68
  -8   2   2    1.60    0.73
   8  -2   2    0.86    0.46
  -8  -2  -2   -0.01    0.56
  -8  -2  -2   -0.08    0.69
   8   2  -2    1.64    0.80
   8  -2   2    1.48    0.57
  -8  -2  -2    0.97    0.61
   8   2  -2    2.04    0.76
   8  -2   2    1.42    0.44
  -8   2   2    0.41    0.58
  -8   2   2    1.55    1.01
  -8  -2   2    1.04    0.75
  -8   2  -2    1.58    0.58
  -8   2  -2    1.20    0.51
   8   2   2    1.60    0.67
   8  -2  -2    1.72    0.66
  -8  -2   2    1.68    0.83
   8  -2  -2    0.90    0.60
   8   2   2    0.86    0.90
   8   2   2    0.94    0.63
   8   2   2    0.20    0.61
  -8   2  -2    0.97    0.49
 -10  -2  -2   14.53    2.96
  10   2  -2   15.26    2.56
  10  -2   2   13.80    0.70
 -10   2   2   15.21    2.24
  10  -2   2   15.59    0.78
 -10   2   2   15.35    1.90
 -10  -2  -2   16.52    2.24
 -10  -2  -2   14.84    1.96
 -10   2   2   19.60    2.26
  10   2  -2   19.94    2.70
  10  -2   2   15.55    1.90
 -10   2   2   17.64    3.10
  10   2  -2   20.37    2.34
  10   2   2   17.54    1.88
  10  -2  -2   14.26    1.89
  10   2   2   14.02    2.03
 -10   2  -2   13.86    0.97
  10  -2  -2   18.65    1.84
  10  -2  -2   16.14    2.03
 -10   2  -2   14.94    1.42
 -10   2  -2   14.94    1.03
 -10  -2   2   17.25    2.58
  10   2   2   14.71    1.78
  10   2   2   15.61    2.15
 -10  -2   2   14.02    2.02
 -12   2   2   50.14    2.98
  12   2  -2   45.20    3.50
  12   2  -2   55.98    3.31
 -12   2   2   49.63    3.01
 -12  -2  -2   47.43    3.17
 -12   2   2   50.76    5.51
 -12  -2  -2   67.56    6.81
 -12  -2  -2   45.02    3.03
  12  -2  -2   49.94    3.09
 -12   2  -2   47.76    2.20
  12   2   2   55.72    2.97
 -12   2  -2   46.48    5.61
 -12  -2   2   47.68    3.34
  12  -2  -2   44.97    2.98
  12  -2  -2   43.37    4.13
  12   2   2   47.97    3.39
 -12  -2   2   44.68    3.51
  12   2   2   47.46    3.22
 -14  -2  -2    0.83    0.81
 -14   2   2    1.34    0.68
 -14  -2  -2    1.79    1.60
  14   2  -2    0.77    1.07
 -14  -2  -2    1.92    0.90
 -14   2   2    2.37    1.77
  14   2  -2    1.58    0.91
 -14   2   2    2.00    0.85
  14  -2  -2    0.02    0.88
  14   2   2    0.38    0.81
 -14   2  -2    0.78    0.36
  14  -2  -2    1.31    0.82
 -14  -2   2    0.59    0.93
 -14   2  -2    0.35    1.06
 -14  -2   2    1.57    0.98
  16  -2   2   11.97    0.79
 -16   2   2   10.31    1.69
 -16  -2  -2   11.67    3.40
  16   2  -2   13.03    2.59
 -16   2   2   16.02    3.92
 -16  -2  -2   13.83    2.05
  16  -2   2   10.57    0.72
 -16   2  -2   10.13    3.09
 -16  -2   2   11.51    2.26
  16  -2  -2   15.21    2.33
 -16  -2   2   13.73    2.43
  16   2   2   12.54    2.16
  18  -2   2    0.92    0.52
 -18   2   2    0.13    1.58
  18   2  -2   -0.09    1.08
  18  -2   2    0.87    0.53
 -18  -2  -2    1.78    0.98
 -18   2   2    0.13    0.58
 -18  -2   2    1.33    1.34
  18  -2  -2    0.23    0.77
  18   2   2    0.32    0.98
 -18   2  -2   -0.03    1.59
 -18  -2   2    0.79    1.20
 -20   2   2    2.37    2.41
  20  -2   2    1.63    0.68
 -20  -2  -2    3.19    1.28
  20   2  -2    1.79    1.45
  20  -2   2    0.34    0.75
 -20   2   2    1.56    0.80
 -20   2  -2    0.21    2.08
  20   2   2    2.75    1.45
 -20  -2   2    2.70    1.46
  20  -2  -2    3.09    1.45
   1  -3   2   88.50    4.12
  -1   3   2   84.83    4.15
   1  -3   2   88.30    4.65
   1   3  -2   85.83    4.57
  -1  -3  -2   88.89    4.26
  -1  -3  -2   98.17    4.83
  -1   3   2   93.66    4.59
  -1   3   2   90.17    4.14
   1   3  -2  100.27    4.42
   1   3  -2   96.96    5.04
   1  -3   2   92.00    4.84
   1  -3   2   90.47    4.20
  -1  -3  -2   87.28    4.94
  -1   3   2   85.04    4.78
   1  -3  -2   85.24    4.57
   1  -3  -2   93.00    4.34
  -1  -3   2   85.08    4.84
  -1  -3   2   93.85    4.78
  -1  -3   2   86.12    4.17
  -1   3  -2   98.34    4.96
  -1   3  -2   95.72    4.02
  -1   3  -2   91.32    4.10
   1   3   2   94.36    5.03
   1   3   2   90.77    4.25
  -1  -3   2   93.16    4.28
  -1   3  -2   89.54    4.35
   1   3   2   93.88    4.32
   1  -3  -2   85.15    4.84
   1   3   2   95.92    4.79
   3  -3   2   35.48    2.39
   3   3  -2   39.41    3.16
  -3   3   2   38.15    2.98
   3  -3   2   36.35    2.68
   3  -3   2   33.93    2.78
  -3  -3  -2   38.57    3.15
  -3   3   2   39.43    2.54
  -3   3   2   40.27    2.33
  -3  -3  -2   37.24    2.46
   3   3  -2   37.56    2.86
   3   3  -2   35.48    2.55
  -3   3   2   34.71    2.31
  -3  -3  -2   34.73    2.64
   3  -3   2   39.39    2.89
  -3  -3   2   44.03    2.63
   3  -3  -2   32.64    2.67
   3   3   2   35.97    2.54
  -3  -3   2   40.21    2.99
   3  -3  -2   37.26    2.53
   3   3   2   35.92    2.84
  -3  -3   2   42.25    3.30
  -3   3  -2   39.68    2.22
   3   3   2   37.95    2.57
  -3   3  -2   38.22    2.09
  -3  -3   2   37.75    2.55
   3  -3  -2   38.80    3.84
  -3   3  -2   37.41    2.88
   3   3   2   36.94    3.72
   5  -3   2   23.85    2.63
   5   3  -2   24.89    2.74
  -5   3   2   24.46    3.00
   5   3  -2   26.87    3.36
  -5   3   2   27.91    2.87
  -5  -3  -2   25.71    2.00
   5  -3   2   25.67    2.94
   5  -3   2   23.01    1.95
   5   3  -2   21.84    2.44
   5  -3   2   26.46    2.34
  -5  -3  -2   20.68    2.18
  -5  -3  -2   22.07    3.02
  -5  -3  -2   24.49    2.78
  -5   3   2   21.67    1.53
  -5  -3   2   25.20    3.15
   5  -3  -2   28.44    2.68
  -5   3  -2   23.70    2.45
  -5  -3   2   21.92    2.79
   5  -3  -2   21.66    2.80
   5  -3  -2   22.42    2.50
  -5   3  -2   23.07    1.28
  -5   3  -2   24.71    2.81
   5   3   2   24.14    2.81
   5  -3  -2   25.92    3.13
  -5  -3   2   22.67    2.34
   5   3   2   23.83    2.99
   5   3   2   28.67    2.68
   5   3   2   24.21    2.92
   5   3   2   22.00    2.46
   7   3  -2   48.87    3.85
  -7   3   2   52.96    3.59
   7  -3   2   53.03    2.94
  -7  -3  -2   52.47    3.56
   7   3  -2   54.89    3.79
   7   3  -2   48.25    3.24
   7  -3   2   66.17    4.95
  -7  -3  -2   48.11    3.71
  -7   3   2   57.24    3.55
   7   3  -2   53.90    3.86
  -7   3   2   50.89    3.31
   7  -3   2   56.67    2.87
   7  -3   2   53.00    3.38
   7   3   2   57.95    3.70
  -7   3  -2   45.12    2.91
  -7  -3   2   52.79    3.72
   7  -3  -2   61.11    3.28
   7  -3  -2   56.67    3.38
   7   3   2   57.25    3.34
  -7   3  -2   48.82    2.39
   7   3   2   58.31    3.92
   7   3   2   54.57    3.66
  -7   3  -2   52.45    3.29
   7  -3  -2   55.66    3.69
  -7  -3   2   50.13    3.87
  -7  -3   2   56.55    3.10
  -9  -3  -2    2.65    1.20
   9   3  -2    2.40    1.23
   9   3  -2    0.84    0.77
  -9   3   2    1.49    0.94
   9  -3   2    0.81    0.58
   9   3  -2    1.34    0.83
  -9   3   2    1.47    0.78
  -9  -3  -2    2.46    1.12
   9  -3   2    1.33    0.76
   9  -3   2    1.04    0.57
  -9   3   2    1.53    1.03
   9   3   2    1.36    0.85
  -9  -3   2    1.91    1.06
   9  -3  -2    0.98    0.70
   9   3   2    0.99    0.75
   9  -3  -2    0.67    0.66
  -9   3  -2    1.75    0.81
   9  -3  -2    0.54    0.71
   9   3   2    1.43    1.04
  -9   3  -2    1.16    0.71
  -9  -3   2    0.29    0.90
  11   3  -2   14.34    2.19
  11  -3   2   11.49    1.68
  11  -3   2   11.44    1.61
 -11   3   2   11.78    1.88
  11   3  -2   12.20    2.26
 -11   3   2   14.40    2.23
  11   3  -2   16.07    2.82
 -11  -3  -2   13.24    2.25
 -11  -3  -2   14.05    2.50
 -11   3   2   14.47    3.02
  11  -3  -2   10.88    1.71
  11   3   2   17.91    2.38
 -11  -3   2   13.70    2.38
  11   3   2   13.61    2.30
  11  -3  -2   10.99    2.03
 -11   3  -2   11.29    1.63
 -11  -3   2   13.67    2.65
 -11   3  -2   13.69    1.76
 -13  -3  -2   66.12    4.44
 -13   3   2   77.31    4.28
  13   3  -2   73.94    5.15
  13   3  -2   69.36    4.34
  13  -3   2   74.94    3.85
  13  -3   2   72.22    3.73
 -13   3   2   73.68    4.28
 -13  -3  -2   73.17    4.76
 -13   3   2   81.87    6.29
 -13  -3   2   79.74    5.27
 -13   3  -2   70.09    3.59
 -13  -3   2   74.14    4.94
  13   3   2   76.70    4.89
  13  -3  -2   74.43    4.58
  13   3   2   81.80    4.48
 -15  -3  -2    3.82    1.30
  15  -3   2    1.75    0.88
  15   3  -2    2.09    1.14
 -15   3   2    1.16    1.69
 -15   3   2    1.48    0.84
  15  -3   2    1.14    0.86
 -15  -3  -2    1.09    1.09
 -15   3   2    2.10    0.98
  15   3  -2    1.29    1.33
 -15   3  -2    1.60    1.66
  15   3   2    1.10    1.33
  15  -3  -2    1.99    1.15
 -15  -3   2    1.41    1.39
 -15  -3   2    1.89    1.31
 -15   3  -2    1.50    0.65
  17  -3   2   12.68    1.85
  17   3  -2   18.19    2.89
 -17   3   2   14.61    4.14
  17   3  -2   11.89    2.89
  17  -3   2   10.99    1.71
 -17  -3  -2   14.22    2.43
 -17   3   2   10.51    1.80
 -17  -3  -2   16.27    2.62
  17  -3  -2   11.54    2.35
  17   3   2   12.41    2.73
 -17  -3   2   13.76    2.62
 -17  -3   2   17.86    3.18
 -17   3  -2   14.72    4.02
  19  -3   2    1.91    0.98
 -19   3   2    1.26    2.16
  19   3  -2    3.73    2.23
 -19  -3  -2    2.92    1.48
 -19   3   2    1.97    0.92
  19  -3  -2    3.81    1.61
 -19  -3   2    4.66    1.99
 -19   3  -2    0.43    1.81
 -19  -3   2    3.20    1.67
  19   3   2    3.75    1.83
   0   4  -2   26.79    2.98
   0   4  -2   20.89    2.41
   0   4  -2   23.29    2.66
   0  -4   2   25.50    3.28
   0   4   2   23.48    2.61
   0   4   2   20.90    3.17
   0  -4  -2   23.16    3.33
   0  -4  -2   28.87    3.50
   0  -4   2   26.28    2.89
   0   4   2   27.32    2.91
   0  -4   2   28.25    3.04
   0   4  -2   31.63    3.88
   0  -4   2   24.25    3.03
   0  -4  -2   27.66    2.86
   0   4   2   23.94    3.04
   0   4  -2   23.36    2.92
  -2  -4  -2   39.79    2.94
   2   4  -2   41.53    3.68
   2   4  -2   41.43    4.48
   2  -4   2   45.04    3.74
  -2  -4  -2   37.24    4.18
   2  -4   2   41.09    2.91
   2  -4   2   44.27    3.44
  -2   4   2   45.15    3.26
   2  -4   2   40.99    2.93
  -2   4   2   39.74    2.75
   2  -4   2   45.58    3.65
  -2   4   2   40.20    3.90
  -2   4   2   33.68    3.90
  -2  -4  -2   37.44    3.21
  -2   4   2   34.97    3.26
   2   4  -2   40.31    3.34
  -2   4  -2   39.68    2.69
   2   4   2   37.22    4.11
  -2  -4   2   40.69    2.97
  -2   4  -2   48.08    4.81
   2   4   2   35.81    3.39
   2  -4  -2   41.23    3.63
  -2   4  -2   36.84    2.57
   2   4   2   35.55    3.40
  -2   4  -2   33.05    3.45
   2   4   2   44.26    3.48
  -2   4  -2   42.60    2.97
  -2  -4   2   42.73    3.52
  -2  -4   2   40.22    2.89
  -2  -4   2   49.99    4.97
   2  -4  -2   34.47    3.88
   4  -4   2   88.55    5.27
  -4   4   2   80.68    3.98
   4  -4   2   87.77    4.42
   4  -4   2   78.56    4.77
  -4  -4  -2   79.18    4.80
  -4  -4  -2   80.19    4.70
   4   4  -2   78.17    5.26
  -4   4   2   82.96    4.22
   4  -4   2   82.10    4.30
  -4  -4  -2   88.22    5.58
   4  -4   2   92.09    5.18
   4   4  -2   77.86    4.55
  -4  -4  -2   80.54    4.40
  -4   4   2   86.63    5.26
  -4   4   2   85.76    4.88
  -4   4   2   77.67    4.09
  -4  -4   2   70.49    5.08
   4   4   2   81.83    5.07
  -4  -4   2   91.89    5.22
   4  -4  -2   82.14    4.54
  -4   4  -2   76.97    3.60
  -4   4  -2   82.12    3.75
   4  -4  -2   81.35    5.53
   4   4   2   92.55    5.52
  -4   4  -2   84.83    4.65
   4   4   2   80.14    4.56
   4  -4  -2   79.39    5.05
   4  -4  -2   83.93    5.42
  -4  -4   2   79.96    4.91
  -4   4  -2   84.14    5.08
  -4  -4   2   81.19    4.45
   4   4   2   84.71    4.61
  -6  -4  -2   42.92    4.89
  -6   4   2   44.18    4.25
   6  -4   2   40.67    3.50
   6  -4   2   40.36    3.18
   6  -4   2   40.99    2.85
   6   4  -2   40.60    3.88
  -6  -4  -2   46.92    4.47
   6  -4   2   50.89    4.56
  -6   4   2   35.80    4.08
  -6  -4  -2   41.96    2.93
   6   4  -2   37.44    4.37
  -6   4   2   41.74    2.30
  -6  -4   2   31.72    4.03
  -6  -4   2   45.01    3.36
  -6  -4   2   36.45    3.39
   6   4   2   40.73    3.82
  -6   4  -2   35.70    3.49
   6   4   2   41.96    3.93
   6   4   2   49.20    5.10
   6  -4  -2   36.78    4.21
   6  -4  -2   36.43    3.49
  -6  -4   2   40.83    4.11
   6   4   2   35.47    3.95
  -6   4  -2   37.40    4.04
   6   4   2   47.79    4.96
  -8   4   2   68.11    4.23
   8   4  -2   59.57    4.67
  -8   4   2   61.33    4.17
  -8  -4  -2   62.15    4.43
  -8  -4  -2   60.50    4.71
   8   4  -2   65.44    4.31
  -8   4   2   53.39    4.20
   8  -4   2   63.67    4.52
   8  -4   2   56.23    3.47
   8  -4   2   62.09    3.87
   8  -4  -2   65.08    3.91
  -8  -4   2   57.75    4.40
  -8   4  -2   62.33    3.98
  -8   4  -2   59.98    4.07
   8   4   2   61.08    4.68
   8  -4  -2   60.94    4.59
  -8  -4   2   66.04    4.97
   8   4   2   56.59    3.92
 -10   4   2   24.14    3.32
  10  -4   2   31.35    2.96
  10   4  -2   31.23    3.69
 -10   4   2   25.95    3.17
 -10  -4  -2   24.28    3.62
  10  -4   2   24.49    2.89
  10  -4   2   23.92    3.32
 -10  -4  -2   30.07    3.76
  10   4  -2   33.38    4.39
 -10  -4   2   34.50    4.03
 -10  -4   2   32.77    4.24
 -10   4  -2   31.61    3.30
  10   4   2   35.87    4.53
  10   4   2   31.99    3.52
  10  -4  -2   26.09    3.62
 -10   4  -2   28.33    3.21
  10  -4  -2   33.12    3.33
  12   4  -2   11.45    2.72
  12  -4   2    8.21    1.92
 -12   4   2    9.61    2.14
 -12  -4  -2   11.55    2.64
 -12  -4  -2    8.76    2.20
 -12   4   2    9.66    2.02
  12   4  -2   13.86    2.70
 -12   4   2    7.17    2.29
 -12  -4   2   11.15    2.70
 -12  -4   2   13.72    2.62
  12   4   2   10.38    2.47
  12  -4  -2   11.39    2.00
 -12   4  -2   10.39    1.87
  12   4   2    8.15    1.94
 -12   4  -2   12.36    2.07
  12  -4  -2   10.30    2.45
 -14  -4  -2   26.76    4.10
 -14   4   2   23.36    3.19
  14   4  -2   15.83    3.36
 -14  -4  -2   17.12    3.04
 -14   4   2   23.93    3.03
 -14   4   2   15.24    3.55
  14  -4   2   17.88    2.78
  14   4  -2   16.15    3.08
 -14  -4   2   23.79    4.01
  14   4   2   18.79    2.93
 -14  -4   2   18.85    3.23
  14  -4  -2   20.29    3.27
 -14   4  -2   18.40    2.42
  14   4   2   18.42    3.34
  16   4  -2   15.36    3.42
  16   4  -2   11.65    2.61
 -16  -4  -2   11.90    2.52
 -16   4   2   10.26    3.19
 -16   4   2    8.99    1.91
 -16  -4  -2   17.32    3.22
  16  -4   2   13.24    2.44
  16  -4  -2   12.48    2.65
  16   4   2   11.00    2.46
 -16   4  -2   10.78    3.48
  16   4   2   15.52    3.34
 -16  -4   2   16.19    3.39
 -16  -4   2   13.76    2.87
 -18   4   2   17.93    4.45
  18  -4   2   15.02    2.67
 -18   4   2   12.97    2.26
  18   4  -2   12.24    2.84
 -18  -4  -2    9.29    2.45
  18   4  -2   12.64    3.20
 -18  -4  -2   20.88    3.49
 -18   4  -2   12.10    3.93
  18  -4  -2   12.83    2.87
  18   4   2   11.71    2.90
 -18   4  -2   11.93    1.56
 -18  -4   2   12.04    2.79
   1   5  -2   17.70    2.51
  -1   5   2   22.25    3.34
  -1   5   2   14.82    2.94
  -1   5   2   16.48    2.47
  -1  -5  -2   21.64    2.81
  -1   5   2   18.15    2.56
   1  -5   2   14.71    2.45
  -1  -5  -2   18.07    3.22
   1  -5   2   17.27    3.08
  -1  -5  -2   26.42    3.37
   1   5  -2   19.82    3.35
   1  -5   2   19.98    2.80
   1   5  -2   21.56    3.21
   1   5  -2   21.08    2.70
  -1  -5   2   23.74    3.01
  -1   5  -2   22.54    2.73
  -1   5  -2   16.69    2.98
  -1   5  -2   20.96    3.02
   1   5   2   16.95    3.08
   1   5   2   19.22    2.71
   1  -5  -2   18.89    2.77
  -1   5  -2   18.12    2.41
  -1  -5   2   21.77    3.51
   1   5   2   22.71    3.31
   1  -5  -2   18.45    3.32
   1   5   2   14.56    2.43
  -3  -5  -2   22.85    3.94
  -3   5   2   22.35    3.22
  -3  -5  -2   27.10    3.48
   3   5  -2   22.85    3.05
  -3   5   2   17.56    3.19
   3  -5   2   13.30    2.32
   3   5  -2   27.25    3.38
  -3   5   2   23.83    2.86
  -3  -5  -2   18.00    2.67
   3  -5   2   27.87    3.24
  -3   5   2   21.63    2.56
   3   5  -2   25.51    3.87
  -3  -5   2   19.65    2.81
   3  -5  -2   25.47    3.25
  -3  -5   2   26.74    3.62
  -3   5  -2   26.68    3.66
   3   5   2   24.84    3.22
  -3   5  -2   29.23    3.11
   3   5   2   19.67    2.98
  -3   5  -2   22.21    2.52
  -3  -5   2   23.17    3.79
   3   5   2   35.04    4.62
   3  -5  -2   16.17    3.01
  -3   5  -2   22.42    3.13
  -5  -5  -2   24.56    3.44
   5   5  -2   19.27    2.99
   5   5  -2   19.63    3.39
   5  -5   2   21.00    2.99
   5  -5   2   20.64    3.61
   5  -5   2   28.44    3.43
  -5   5   2   23.78    2.53
  -5   5   2   17.17    3.28
  -5  -5  -2   16.90    2.64
  -5  -5  -2   17.40    3.48
  -5   5   2   16.91    2.79
  -5  -5   2   16.52    3.20
   5  -5  -2   19.39    2.71
   5   5   2   19.07    2.91
   5   5   2   23.36    3.80
   5   5   2   18.25    2.85
  -5   5  -2   18.03    3.11
  -5   5  -2   25.02    3.34
  -5  -5   2   17.18    2.94
  -5  -5   2   21.36    2.88
  -5   5  -2   20.55    2.09
   5  -5  -2   22.34    4.17
   7   5  -2   17.55    2.85
  -7   5   2   17.22    3.05
   7  -5   2   30.18    3.40
  -7  -5  -2   16.61    2.99
  -7   5   2   24.09    3.89
  -7  -5  -2   20.31    3.74
   7  -5   2   22.03    3.76
  -7  -5   2   17.63    3.54
   7   5   2   13.59    2.53
   7   5   2   20.28    3.00
   7  -5  -2   21.59    2.91
  -7  -5   2   26.85    3.91
  -7   5  -2   19.32    3.10
  -7   5  -2   19.48    3.15
   7  -5  -2   20.36    3.63
  -7  -5   2   18.82    2.71
  -9   5   2    2.36    1.50
  -9   5   2    0.15    0.84
   9   5  -2    0.31    0.92
   9  -5   2    2.66    1.64
  -9  -5  -2    0.62    1.28
   9  -5   2    0.52    0.97
  -9  -5  -2   -0.07    0.97
  -9   5  -2    1.01    1.05
  -9  -5   2    2.26    1.58
   9   5   2    0.52    1.03
  -9   5  -2    0.42    1.06
   9   5   2   -0.19    0.90
   9  -5  -2    1.15    1.35
   9  -5  -2    1.83    1.05
  -9  -5   2    4.07    1.79
  11   5  -2    4.08    1.71
  11  -5   2    6.11    1.69
 -11   5   2    1.68    1.29
 -11  -5  -2    6.10    2.08
 -11   5   2    6.48    2.20
 -11  -5  -2    4.40    1.90
  11  -5   2    6.46    2.30
 -11   5  -2    4.02    1.66
  11  -5  -2    4.49    1.99
 -11  -5   2    3.77    1.82
 -11  -5   2    4.28    2.03
  11  -5  -2    2.65    1.37
 -11   5  -2    3.54    1.48
  11   5   2    4.13    1.68
 -13  -5  -2   -0.27    1.27
  13   5  -2    2.04    1.59
  13  -5   2    1.84    1.51
 -13   5   2    1.85    1.26
 -13   5   2    2.10    1.61
 -13  -5  -2    0.91    1.34
 -13   5  -2    1.78    1.18
  13  -5  -2    0.15    1.27
  13   5   2    3.37    1.53
 -13  -5   2    1.04    1.44
  13  -5  -2    2.03    1.19
 -13  -5   2    0.28    1.32
 -13   5  -2    0.77    1.10
  15  -5   2    2.70    1.66
 -15  -5  -2    4.07    1.76
 -15  -5  -2    6.18    2.39
  15   5  -2    2.88    1.67
 -15   5   2    4.83    1.84
 -15   5   2    1.54    1.11
  15   5   2    1.01    1.26
 -15  -5   2    4.38    2.11
  15   5   2    4.67    2.29
  15  -5  -2    5.73    2.32
 -15   5  -2    3.85    1.52
 -15  -5   2    5.70    2.40
  17   5  -2   -0.11    1.26
 -17  -5  -2    0.72    1.29
 -17   5   2   -0.22    0.89
  17  -5   2   -0.51    1.47
 -17  -5   2   -0.48    1.26
  17  -5  -2    1.11    1.54
  17   5   2   -1.06    1.58
 -17   5  -2    0.72    1.95
 -17   5  -2    0.26    0.87
  17   5   2    0.64    1.45
   0  -6   2   11.50    3.44
   0  -6  -2   13.74    2.61
   0   6   2   13.77    2.53
   0   6   2   17.03    3.55
   0  -6  -2   16.57    3.63
   0   6  -2   12.94    2.35
   0   6   2   13.24    2.41
   0   6  -2   15.12    3.39
   0   6  -2   12.82    2.42
   0  -6   2   15.86    2.86
   0   6   2   15.62    2.92
   0   6  -2   23.42    3.66
   2   6  -2    2.04    1.22
   2   6  -2    2.22    1.29
  -2   6   2    3.78    1.84
   2  -6   2    3.59    1.61
  -2   6   2    3.29    1.75
  -2   6   2    1.40    1.04
  -2  -6  -2    1.84    1.74
   2   6  -2    3.98    1.92
  -2   6   2    3.48    1.42
  -2  -6  -2    2.64    1.26
   2  -6  -2    2.13    1.23
   2   6   2    3.54    1.48
  -2   6  -2    3.51    1.31
  -2  -6   2    5.55    1.65
  -2   6  -2    1.48    1.50
  -2  -6   2    1.01    1.30
   2   6   2    3.52    2.06
   2   6   2    2.74    1.53
  -2   6  -2    4.47    1.88
  -4   6   2   36.92    5.27
   4  -6   2   36.37    4.19
  -4   6   2   29.58    3.23
   4   6  -2   30.42    4.65
  -4  -6  -2   30.84    4.28
   4   6  -2   32.38    4.06
  -4  -6  -2   31.93    4.86
   4   6  -2   24.32    3.35
  -4  -6  -2   26.55    3.65
  -4   6   2   27.62    4.17
   4   6   2   23.07    3.44
   4  -6  -2   26.51    3.60
  -4  -6   2   27.04    3.53
   4   6   2   28.77    4.47
  -4   6  -2   29.07    3.00
  -4   6  -2   34.46    4.98
  -4  -6   2   30.98    4.71
  -4   6  -2   29.16    4.21
   4   6   2   31.24    4.00
  -6  -6  -2   26.16    4.09
  -6  -6  -2   25.95    4.47
   6   6  -2   39.18    4.72
   6  -6   2   32.20    3.89
  -6   6   2   29.19    4.05
   6   6  -2   30.18    3.85
  -6   6   2   23.06    4.06
   6  -6   2   27.74    3.53
  -6  -6   2   26.78    4.65
  -6  -6   2   28.78    4.21
  -6  -6   2   27.64    3.55
   6   6   2   36.48    4.30
   6   6   2   30.13    3.95
   6  -6  -2   33.16    4.13
  -6   6  -2   26.37    3.83
  -6   6  -2   38.04    5.11
  -8   6   2    3.46    1.96
   8  -6   2    2.81    2.00
  -8  -6  -2    3.09    1.85
   8  -6   2    2.61    1.30
  -8  -6  -2    3.70    2.07
  -8   6   2    2.98    1.74
   8   6  -2    5.13    1.95
  -8   6  -2    3.74    1.71
   8   6   2    2.54    1.39
   8  -6  -2    5.60    1.86
  -8  -6   2    2.86    1.79
  -8  -6   2    5.48    2.26
   8   6   2    4.59    1.91
  -8   6  -2    1.92    1.53
 -10  -6  -2    8.88    3.01
  10  -6   2    1.45    1.25
 -10   6   2    3.54    1.81
 -10  -6  -2    3.22    2.01
  10   6  -2    1.57    1.46
 -10   6   2    5.12    2.10
  10  -6   2    6.09    2.42
 -10  -6   2    2.38    1.78
 -10  -6   2    3.43    2.10
  10  -6  -2    3.94    3.30
  10   6   2    5.26    1.78
  10  -6  -2    4.66    1.62
  10   6   2    2.55    1.51
 -10   6  -2    2.76    1.72
 -10   6  -2    3.60    1.76
 -12  -6  -2   -0.32    1.37
  12  -6   2    0.80    1.49
  12   6  -2   -0.06    1.11
  12  -6   2    0.13    0.95
 -12   6   2   -0.64    1.06
 -12  -6  -2    1.50    1.64
 -12   6   2    0.25    1.55
 -12   6  -2   -0.11    1.36
  12  -6  -2   -0.22    1.59
  12  -6  -2   -0.02    1.02
  12   6   2   -0.19    1.15
 -12  -6   2    1.51    1.59
 -12   6  -2    0.19    1.11
 -12  -6   2   -0.36    1.37
 -14   6   2    1.15    2.45
  14   6  -2    1.57    1.59
 -14  -6  -2    0.58    1.45
  14  -6   2    3.39    2.21
 -14   6   2    3.33    1.57
 -14   6  -2    5.97    2.09
 -14   6  -2    4.71    1.89
  14  -6  -2    2.95    1.52
  14  -6  -2    2.82    2.11
 -14  -6   2    2.30    1.76
  14   6   2    1.86    1.54
 -16   6   2    6.46    2.28
 -16  -6  -2    4.81    2.34
  16   6  -2    3.84    2.04
 -16  -6   2    3.92    2.47
  16   6   2    4.93    2.07
 -16   6  -2    3.47    1.70
  -1  -7  -2    1.75    1.54
  -1  -7  -2    7.34    3.88
   1   7  -2    6.02    1.97
  -1   7   2    6.11    2.13
   1   7  -2    5.31    2.37
  -1   7   2    4.21    2.43
   1   7  -2    2.26    1.51
  -1   7   2    4.29    1.68
   1  -7   2    1.94    1.41
  -1   7  -2    4.55    1.70
  -1   7  -2    4.34    2.19
   1   7   2    9.54    3.14
   1  -7  -2    3.72    1.79
  -1   7  -2    4.25    2.16
   1   7   2    4.27    1.74
  -1  -7   2    4.94    1.96
   1   7   2    4.63    1.81
  -3   7   2    4.20    2.09
   3   7  -2   10.78    3.10
  -3   7   2    3.85    2.06
   3   7  -2    5.14    1.95
  -3   7   2    2.89    1.54
   3   7  -2    9.21    2.28
   3  -7   2    4.92    1.94
  -3  -7  -2    6.57    2.15
  -3  -7  -2    2.43    2.11
  -3  -7   2   10.21    2.61
   3   7   2    5.35    2.00
  -3   7  -2    4.17    2.16
  -3  -7   2    1.07    1.82
  -3   7  -2    8.27    1.93
   3   7   2    4.91    1.93
  -3   7  -2    2.33    1.77
   3  -7  -2    5.98    1.90
  -5   7   2    8.16    2.82
   5   7  -2    5.64    2.19
  -5   7   2    6.41    1.70
  -5  -7  -2   10.44    3.11
   5   7  -2    6.62    2.32
  -5  -7  -2   11.49    3.33
   5  -7   2    9.14    2.29
  -5   7   2    9.32    2.46
  -5   7  -2    7.77    2.57
  -5  -7   2    4.91    1.78
   5  -7  -2    4.28    1.75
   5   7   2   10.59    2.78
  -5  -7   2    1.25    1.66
  -5   7  -2    6.87    2.43
   5   7   2    6.10    2.23
  -7  -7  -2    5.09    2.56
   7   7  -2    8.74    2.52
   7   7  -2    1.56    1.59
   7  -7   2    4.87    2.03
  -7  -7  -2    3.78    2.20
  -7   7   2    1.65    1.80
  -7   7   2    2.28    1.95
  -7   7  -2    2.12    1.83
   7   7   2    7.51    2.31
   7   7   2    2.70    1.72
   7  -7  -2    3.62    1.67
  -7  -7   2    3.12    2.08
  -7   7  -2    2.57    1.72
   9   7  -2    1.63    1.72
   9  -7   2   -0.62    0.94
  -9   7   2   -0.06    1.33
   9   7  -2   -1.17    1.37
  -9   7   2   -0.54    1.14
  -9  -7  -2    2.41    1.93
  -9  -7  -2    1.22    1.75
  -9   7  -2   -0.17    1.36
   9   7   2   -0.66    1.42
  -9   7  -2   -0.45    1.16
   9  -7  -2    0.16    1.27
   9   7   2   -0.43    1.19
  -9  -7   2    0.24    1.83
  -9  -7   2    1.77    1.83
 -11  -7  -2    0.55    1.73
  11   7  -2    1.26    1.71
  11   7  -2    2.36    1.89
 -11   7   2    0.32    1.32
  11  -7   2    1.23    1.44
  11   7   2    1.41    1.82
 -11   7  -2    0.01    1.25
  11  -7  -2    1.48    1.46
 -11  -7   2    5.12    2.35
  11   7   2    1.27    1.55
  13  -7   2   -0.50    2.09
 -13   7   2    1.09    1.44
 -13  -7  -2    4.08    2.40
  13   7  -2    0.98    1.61
  13  -7   2    3.93    1.83
  13  -7  -2    1.77    1.64
 -13   7  -2    0.54    1.38
  13   7   2    1.11    1.64
 -13  -7   2    2.96    1.96
   0  -8  -2    6.57    2.38
   0   8   2    4.39    2.43
   0  -8   2    2.55    1.71
   0   8  -2    7.40    2.96
   0   8  -2    6.53    2.20
   0   8   2    4.35    2.02
  -2   8   2    3.79    1.74
  -2  -8  -2    7.20    2.34
   2  -8   2    8.73    2.90
   2   8  -2    5.86    2.21
   2   8  -2    6.39    2.41
   2   8  -2    6.20    3.03
  -2   8   2    7.44    3.04
  -2   8  -2    3.85    2.09
   2   8   2    4.87    2.08
  -2  -8   2    9.65    2.71
  -2   8  -2    6.63    2.87
   2  -8  -2    5.87    2.23
   2   8   2    7.83    2.68
  -2   8  -2    8.31    2.18
  -4  -8  -2   23.99    5.24
  -4  -8  -2   29.62    4.65
   4   8  -2   21.44    3.89
  -4   8   2   24.18    4.39
  -4   8   2   17.34    2.99
   4   8  -2   23.97    3.82
   4  -8   2   23.63    4.05
  -4  -8   2   24.04    4.00
  -4   8  -2   15.54    3.62
   4   8   2   16.54    3.32
   4  -8  -2   20.43    3.83
   4   8   2   20.78    3.63
  -6   8   2    5.97    2.58
   6   8  -2    3.02    1.99
   6  -8   2    4.54    2.13
   6   8  -2    2.09    1.97
   6   8   2    6.56    2.48
  -6  -8   2    5.75    2.98
  -6   8  -2    5.99    2.29
   6  -8  -2    5.65    2.23
   6   8   2    2.77    1.89
   8  -8   2   19.18    3.68
  -8   8   2   18.43    4.05
   8   8  -2   11.19    3.19
   8   8  -2   18.79    3.86
   8   8   2   14.88    3.47
  -8   8  -2   19.61    3.95
   8  -8  -2   16.34    3.51
   8   8   2   21.82    4.12
   1   0   3   21.29    1.46
  -1   0  -3   20.64    1.28
   1   0   3   21.47    1.35
  -1   0  -3   19.31    1.41
   1   0  -3   21.60    1.58
  -1   0   3   17.53    1.46
   3   0   3  949.44   27.45
   3   0   3  991.80   26.92
  -3   0  -3  934.16   27.50
   3   0  -3  983.41   28.03
   3   0   3  965.48   26.89
   3   0  -3 1000.00   28.11
  -3   0   3  981.57   28.11
  -3   0   3  955.65   28.00
  -5   0   3   43.27    2.63
   5   0  -3   44.43    2.61
  -5   0   3   50.95    2.91
  -5   0  -3   44.56    2.06
  -5   0  -3   46.60    2.10
   5   0  -3   42.26    2.23
   7   0  -3  166.18    6.41
  -7   0   3  164.04    7.19
  -7   0  -3  160.13    7.39
  -7   0  -3  167.67    5.29
   7   0  -3  173.49    5.92
  -7   0   3  165.16    6.53
  -7   0   3  170.51    7.03
  -7   0  -3  163.56    5.27
   7   0  -3  179.37    7.11
   7   0  -3  163.70    6.30
  -9   0   3   32.66    2.58
  -9   0   3   33.99    2.35
   9   0  -3   31.18    2.31
   9   0  -3   31.63    3.24
  -9   0   3   30.82    2.37
  -9   0  -3   36.37    4.17
  -9   0   3   37.57    4.20
  -9   0  -3   32.48    1.54
  -9   0   3   34.86    4.06
   9   0  -3   38.92    2.20
  11   0  -3   18.43    2.37
 -11   0  -3   13.88    0.91
 -11   0  -3    9.91    2.41
  11   0  -3   18.68    2.27
  11   0  -3   18.82    1.97
 -11   0   3   21.35    3.46
  11   0  -3   13.25    2.29
 -11   0   3   18.06    2.20
 -11   0   3   16.59    2.07
  13   0   3   37.14    3.87
 -13   0   3   34.76    2.61
 -13   0   3   31.94    4.50
  13   0  -3   31.09    3.28
 -13   0   3   36.64    2.65
 -13   0  -3   30.06    4.63
  13   0  -3   35.75    2.77
 -13   0  -3   32.54    1.28
  13   0  -3   32.07    2.30
  15   0  -3   17.50    2.48
 -15   0   3    9.66    2.97
 -15   0   3   17.30    2.21
 -15   0   3   10.39    1.79
 -15   0   3   13.88    1.98
 -15   0  -3    6.89    2.60
 -17   0   3    6.11    1.60
 -17   0  -3    7.06    2.76
 -17   0   3    2.46    2.00
  17   0  -3    7.43    1.89
 -17   0   3    8.63    1.59
  19   0  -3   15.10    2.72
 -19   0  -3   13.77    4.05
 -19   0   3   14.09    2.25
 -19   0   3   13.87    4.06
  19   0   3   10.73    1.27
  21   0   3    6.45    1.23
 -21   0   3   12.46    2.19
 -21   0  -3   10.15    4.07
  21   0   3    4.96    1.21
  21   0  -3   10.02    2.61
   0  -1  -3   11.86    1.37
   0   1  -3   11.30    1.02
   0  -1  -3   13.96    1.63
   0  -1   3   12.57    1.52
   0   1   3   17.69    1.90
   0   1  -3   11.98    1.58
   0  -1   3   13.50    0.96
   0   1   3   14.36    1.54
   2   1  -3  137.64    5.40
  -2  -1  -3  128.40    5.05
   2  -1   3  124.76    4.58
   2  -1   3  124.26    4.78
  -2   1   3  127.54    5.21
   2   1  -3  126.67    5.03
   2   1  -3  121.59    4.75
  -2  -1  -3  129.54    4.62
   2   1   3  131.74    4.86
   2  -1  -3  137.75    5.25
  -2  -1   3  123.96    4.77
  -2   1  -3  135.49    4.20
  -2  -1   3  117.81    5.08
  -2   1  -3  132.68    5.00
  -2   1  -3  128.41    4.15
   2   1   3  123.55    5.01
  -4   1   3  269.18    9.28
  -4  -1  -3  262.43    8.88
   4   1  -3  267.65    8.70
   4   1  -3  273.74    9.51
   4  -1   3  280.21    8.55
   4   1  -3  266.89    9.23
  -4   1   3  268.38    9.27
  -4  -1  -3  265.95    9.28
   4  -1  -3  267.40    8.60
   4   1   3  265.55    8.48
  -4   1  -3  267.68    8.54
  -4   1  -3  267.23    8.52
  -4  -1   3  270.74    9.22
   4  -1  -3  266.37    9.20
   4   1   3  260.32    8.82
  -4  -1   3  260.96    9.23
   4  -1  -3  272.42    8.61
  -6  -1  -3  195.57    6.82
   6   1  -3  189.43    6.72
   6   1  -3  195.25    7.68
  -6  -1  -3  191.78    7.95
   6   1  -3  195.51    8.66
  -6  -1  -3  192.97    6.79
  -6   1   3  193.47    7.52
   6   1  -3  191.76    7.47
  -6   1   3  185.62    7.17
  -6   1   3  187.40    7.43
   6   1   3  195.86    6.63
   6   1   3  190.98    5.93
   6  -1  -3  200.80    7.58
   6   1   3  195.30    6.77
  -6   1  -3  191.65    6.20
   6  -1  -3  187.82    7.02
   6  -1  -3  197.61    7.25
   6  -1  -3  198.85    6.62
  -6   1  -3  182.54    6.14
  -6  -1   3  187.74    7.41
   6  -1  -3  202.97    6.65
   8   1  -3    1.04    0.84
  -8  -1  -3    3.35    0.77
  -8  -1  -3    1.30    0.57
  -8   1   3    1.72    0.82
  -8  -1  -3    4.58    1.54
   8  -1   3    2.31    0.72
   8   1  -3    3.17    1.05
  -8   1   3    2.11    0.75
  -8   1   3    1.75    0.90
   8   1  -3    2.41    1.05
  -8  -1  -3    1.90    0.67
   8   1  -3    1.20    0.57
  -8   1   3    0.51    0.45
  -8   1   3    1.81    0.84
  -8   1  -3    1.87    0.30
   8  -1  -3    0.59    0.58
  -8   1  -3    2.28    0.32
   8  -1  -3    3.29    0.93
   8   1   3    1.34    0.49
   8  -1  -3    2.59    0.73
   8   1   3    1.93    0.66
   8  -1  -3    0.16    0.47
  -8  -1   3    0.89    0.63
   8  -1  -3    1.32    0.69
  -8  -1   3    1.63    0.81
 -10   1   3   -0.25    0.67
 -10  -1  -3    0.64    0.88
  10   1  -3    0.60    0.52
  10  -1   3    0.76    0.55
 -10   1   3    0.13    0.40
  10   1  -3    0.26    0.76
 -10  -1  -3    0.33    0.42
 -10  -1  -3    0.19    0.39
  10   1  -3    0.29    0.70
 -10   1   3    0.26    0.55
  10   1   3    0.08    0.45
  10  -1  -3   -0.26    0.40
  10   1   3    0.36    0.44
  10   1   3    0.49    0.38
  10  -1  -3    0.25    0.82
 -10   1  -3   -0.01    0.19
  10  -1  -3    0.35    0.47
  10  -1  -3    0.45    0.60
 -10  -1   3   -0.62    0.39
 -10  -1   3    0.70    0.64
 -10   1  -3    0.66    0.91
  10  -1  -3   -0.24    0.63
 -12  -1  -3    0.81    0.49
  12   1  -3    1.25    0.91
  12  -1   3    2.00    0.91
 -12   1   3    0.56    0.57
 -12  -1  -3    1.20    0.51
 -12   1   3    1.26    0.79
 -12  -1  -3    1.64    1.17
 -12   1   3    1.44    1.37
  12   1  -3    0.63    0.58
  12  -1  -3    1.10    1.02
 -12  -1   3    0.99    0.64
  12   1   3    1.08    0.63
  12  -1  -3    0.95    0.68
 -12  -1   3    2.47    1.08
 -12  -1   3    1.19    0.68
 -12  -1   3    0.54    0.69
  12  -1  -3   -0.17    0.65
 -12   1  -3    1.07    1.28
  12   1   3    0.81    0.59
 -14  -1  -3    0.36    1.06
  14   1  -3    1.73    0.94
 -14   1   3    1.16    1.37
 -14   1   3    2.03    0.96
  14   1  -3    3.27    1.28
 -14  -1  -3    2.30    0.76
 -14   1   3    2.80    0.99
 -14  -1   3    1.44    0.84
  14  -1  -3    1.00    0.87
  14   1   3    1.29    0.71
 -14  -1   3    1.97    0.94
  14   1   3    0.88    0.70
 -14   1  -3    1.20    1.24
 -16  -1  -3    8.11    2.90
 -16  -1  -3    6.37    1.10
 -16   1   3    7.80    2.62
  16   1  -3    6.69    1.95
 -16   1   3    4.63    1.18
 -16   1   3    4.12    1.17
 -16   1  -3    1.75    1.86
 -16  -1   3    4.97    1.49
  16  -1  -3    6.41    1.77
  16   1   3    3.25    1.05
  16  -1  -3    5.96    1.63
  16   1   3    5.70    1.23
 -16  -1   3    4.42    1.46
 -18   1   3    1.78    0.92
 -18   1   3    1.34    1.52
 -18  -1  -3    1.66    2.05
 -18  -1  -3    1.92    0.68
  18   1  -3    0.51    1.22
  18  -1  -3    2.82    1.28
 -18   1  -3    5.41    2.85
  18  -1  -3    2.29    1.24
 -18  -1   3    3.61    1.33
  18   1   3    1.23    0.95
  18   1   3    0.97    1.07
 -20   1   3    1.36    1.04
  20   1  -3    0.84    1.33
 -20   1   3   -0.81    1.89
 -20  -1  -3    0.95    1.70
 -20   1  -3   -0.44    1.94
  20  -1  -3    0.09    1.05
 -20  -1   3   -0.06    1.07
  20   1   3   -0.33    0.83
  -1   2   3   50.78    3.17
   1   2  -3   51.46    2.68
   1   2  -3   52.10    3.22
   1  -2   3   51.83    2.98
  -1   2   3   53.46    2.99
   1  -2   3   54.62    3.15
   1  -2   3   56.23    2.71
  -1  -2  -3   51.89    2.70
  -1  -2  -3   50.71    3.21
   1  -2   3   51.41    3.09
   1   2  -3   52.52    2.99
  -1   2   3   50.01    2.72
  -1  -2  -3   51.39    2.97
  -1  -2  -3   49.19    2.67
   1   2  -3   52.86    2.54
  -1  -2   3   51.96    2.77
   1   2   3   55.18    3.34
   1  -2  -3   55.42    2.84
   1   2   3   54.69    2.81
  -1   2  -3   55.23    3.17
  -1  -2   3   53.97    3.22
  -1  -2   3   50.54    3.18
   1   2   3   54.19    3.09
   1  -2  -3   50.55    3.03
   1  -2  -3   47.98    3.08
  -1   2  -3   54.56    2.83
  -1  -2   3   54.05    3.16
  -1   2  -3   50.77    2.02
   3  -2   3    0.45    0.42
   3  -2   3    0.31    0.46
   3   2  -3    0.09    0.40
   3  -2   3    0.26    0.49
   3   2  -3    0.00    0.51
   3   2  -3   -0.30    0.34
  -3   2   3    0.12    0.55
  -3  -2  -3   -0.13    0.44
  -3   2   3    0.16    0.38
   3   2  -3    1.14    0.54
  -3  -2  -3    0.18    0.49
   3  -2  -3   -0.43    0.47
  -3   2  -3    0.04    0.47
  -3  -2   3   -0.20    0.39
  -3   2  -3   -0.03    0.20
  -3  -2   3   -0.35    0.40
   3   2   3    0.88    0.57
   3  -2  -3   -0.32    0.35
  -3  -2   3   -0.47    0.45
  -3  -2   3   -0.20    0.49
   3  -2  -3   -0.44    0.27
   3   2   3    0.17    0.63
   3   2   3    0.93    0.57
   5  -2   3   18.11    1.31
  -5   2   3   20.30    2.29
   5  -2   3   20.47    2.07
   5   2  -3   27.87    2.50
  -5  -2  -3   20.42    2.51
   5   2  -3   15.95    2.00
   5  -2   3   18.71    1.32
   5   2  -3   18.95    2.31
   5   2  -3   25.34    2.90
   5  -2   3   21.92    2.14
  -5   2   3   19.41    2.40
  -5  -2  -3   23.44    2.69
  -5  -2  -3   19.63    1.16
  -5  -2   3   22.62    2.11
  -5   2  -3   18.07    2.00
  -5  -2   3   22.11    2.11
  -5   2  -3   17.57    1.96
   5   2   3   19.72    2.44
   5   2   3   20.73    2.27
  -5  -2   3   14.17    2.25
   5  -2  -3   16.54    2.19
  -5  -2   3   25.18    2.92
   5   2   3   21.62    2.46
   5   2   3   19.38    1.95
   5  -2  -3   21.78    2.08
   5  -2  -3   22.07    2.50
   5  -2  -3   18.99    2.02
   7   2  -3   39.01    2.60
  -7   2   3   43.54    2.98
  -7  -2  -3   38.38    2.80
   7   2  -3   40.58    3.08
  -7   2   3   39.41    2.62
   7  -2   3   35.70    1.88
  -7   2   3   38.22    2.87
  -7  -2  -3   40.48    4.10
   7  -2   3   36.35    2.25
   7   2  -3   43.63    2.98
   7  -2   3   36.25    2.11
   7   2  -3   38.67    3.60
   7  -2   3   39.33    2.09
  -7   2   3   44.15    3.06
   7   2  -3   38.69    3.03
  -7  -2  -3   35.56    2.50
  -7  -2   3   36.96    3.00
  -7   2  -3   35.58    2.21
   7  -2  -3   40.15    2.42
   7   2   3   40.16    2.36
   7  -2  -3   38.12    2.75
   7  -2  -3   38.03    2.69
  -7   2  -3   39.63    2.26
  -7   2  -3   37.40    2.15
   7   2   3   39.94    2.54
  -7  -2   3   38.76    2.77
   7   2   3   43.40    2.78
  -7  -2   3   35.11    2.92
   7   2   3   38.60    2.75
   9  -2   3    5.32    0.75
  -9   2   3    8.20    1.88
  -9  -2  -3    8.28    1.61
   9  -2   3    8.79    1.22
   9   2  -3   11.62    2.09
  -9  -2  -3    4.41    1.10
  -9   2   3   10.75    1.95
  -9   2   3    9.01    1.70
  -9   2   3   10.29    1.72
   9   2  -3    7.20    1.77
   9  -2   3    8.06    0.91
   9   2  -3    9.66    1.66
   9  -2   3    8.29    0.92
  -9  -2  -3    7.81    2.15
   9   2   3    7.90    1.58
   9   2   3    6.17    1.16
  -9   2  -3    7.64    1.05
   9  -2  -3    8.37    1.38
  -9   2  -3    6.11    0.93
   9   2   3    5.48    1.10
   9   2   3    8.88    1.66
  -9  -2   3    6.13    1.37
  -9   2  -3    7.43    1.00
  -9  -2   3    7.53    1.81
   9  -2  -3    8.05    1.55
 -11  -2  -3   48.25    3.03
 -11   2   3   42.88    2.99
 -11   2   3   48.39    3.21
  11   2  -3   49.92    3.79
  11   2  -3   50.90    3.22
 -11  -2  -3   49.29    3.20
 -11  -2  -3   53.54    5.77
 -11   2   3   49.92    5.23
  11   2   3   52.07    3.32
 -11  -2   3   43.99    3.28
  11  -2  -3   49.96    5.45
  11  -2  -3   49.27    3.31
 -11   2  -3   45.26    2.27
  11   2   3   44.84    2.73
  11   2   3   45.04    3.12
  11  -2  -3   46.20    2.83
 -11  -2   3   46.20    3.60
  13   2  -3   -0.51    0.87
  13   2  -3   -0.38    0.56
 -13  -2  -3    0.08    1.07
 -13  -2  -3    0.27    0.67
 -13   2   3    0.01    0.56
 -13   2   3   -1.06    1.06
 -13   2   3    0.07    0.68
 -13  -2  -3    0.02    0.56
 -13  -2   3    0.76    0.95
 -13   2  -3   -0.26    0.30
  13   2   3    0.69    0.86
 -13   2  -3    1.63    1.35
  13  -2  -3    0.69    0.74
 -13  -2   3   -0.19    0.72
 -15  -2  -3    5.52    1.23
 -15   2   3    7.46    1.52
 -15   2   3    5.86    1.50
 -15   2   3    9.11    2.79
 -15  -2  -3    7.40    1.53
  15   2  -3   11.39    2.06
 -15  -2  -3    8.44    2.78
  15   2  -3    4.81    1.90
 -15  -2   3    8.65    2.09
 -15   2  -3   11.75    3.20
  15  -2  -3    7.47    1.87
 -15  -2   3    6.72    1.72
  15   2   3    8.31    1.84
 -17   2   3   18.49    2.39
 -17   2   3   15.35    3.88
  17   2  -3   12.57    2.79
 -17  -2  -3   14.86    2.17
 -17  -2  -3   12.13    3.58
 -17  -2   3   18.52    2.96
 -17   2  -3   16.43    4.09
  17  -2  -3   18.16    2.89
 -17  -2   3   15.32    2.68
  17   2   3   14.47    2.32
 -19  -2  -3    3.54    2.58
 -19   2   3    4.37    2.73
  19  -2   3    4.91    0.70
  19   2  -3    5.04    2.08
 -19   2   3    5.15    1.42
  19  -2   3    4.41    0.72
 -19  -2  -3    4.35    1.36
  19   2   3    6.11    1.86
 -19   2  -3    4.03    2.75
 -19  -2   3    3.05    1.48
  19  -2  -3    5.22    1.81
 -21   2   3    5.25    3.00
 -21   2   3    7.13    1.41
 -21  -2   3    8.80    2.26
 -21   2  -3    4.31    3.06
   0  -3  -3   98.13    5.38
   0   3  -3  111.51    5.06
   0   3   3   96.00    4.55
   0   3   3  103.21    5.10
   0  -3   3  104.12    5.18
   0   3  -3  102.55    4.59
   0  -3  -3  101.47    4.69
   0   3   3   99.91    4.69
   0   3  -3  101.13    5.40
   0  -3   3   97.37    4.59
   0  -3   3   95.41    5.20
   0  -3  -3   99.37    5.09
   0   3   3  105.91    5.51
   0  -3   3  104.19    4.65
   2   3  -3  131.85    5.71
   2  -3   3  131.49    5.54
   2   3  -3  134.07    6.61
  -2   3   3  131.98    6.52
  -2  -3  -3  134.44    5.67
  -2   3   3  126.99    5.41
   2  -3   3  131.01    6.23
  -2   3   3  135.32    5.96
   2  -3   3  143.43    5.58
  -2  -3  -3  126.22    6.01
   2   3  -3  141.08    6.25
  -2  -3  -3  136.10    6.59
  -2   3   3  130.79    5.60
   2  -3   3  146.42    6.23
  -2  -3   3  131.29    6.26
  -2   3  -3  125.32    5.10
  -2  -3   3  138.91    5.70
   2   3   3  145.46    6.65
   2   3   3  136.39    6.28
   2   3   3  140.50    5.82
  -2  -3   3  130.65    5.65
   2  -3  -3  142.57    6.61
  -2  -3   3  134.07    6.51
  -2   3  -3  132.57    5.28
  -2   3  -3  137.71    6.40
   2  -3  -3  136.22    5.78
  -2   3  -3  137.21    5.49
   2   3   3  140.22    5.74
  -4   3   3    4.24    1.02
   4  -3   3    5.15    1.44
  -4  -3  -3    6.62    1.30
   4   3  -3   10.05    2.19
   4   3  -3    7.01    1.40
   4   3  -3    6.42    1.55
  -4   3   3    6.59    1.20
   4  -3   3    7.91    1.66
   4  -3   3    8.19    1.41
  -4   3   3    6.97    1.57
   4   3  -3    7.82    1.50
  -4  -3  -3    4.88    1.53
  -4  -3  -3    5.91    1.30
  -4   3   3    2.76    1.11
  -4  -3  -3    6.78    1.50
   4  -3   3    5.08    1.27
   4   3   3    7.16    1.45
   4  -3  -3    6.10    1.43
   4  -3  -3    5.92    1.64
  -4   3  -3    4.01    1.15
   4   3   3    5.29    1.24
  -4  -3   3    6.51    1.57
  -4  -3   3    8.47    1.47
  -4  -3   3    5.38    1.26
  -4   3  -3    6.23    1.47
   4  -3  -3    4.90    1.39
   4   3   3    7.72    1.78
  -4  -3   3    8.12    1.95
   4   3   3    6.08    1.34
   4  -3  -3    6.24    1.32
  -4   3  -3    5.87    0.44
   6   3  -3   27.66    2.94
   6   3  -3   27.96    3.30
   6  -3   3   26.74    2.98
   6  -3   3   27.04    1.99
   6   3  -3   29.50    3.26
  -6   3   3   25.41    2.78
  -6   3   3   25.65    1.68
  -6  -3  -3   22.19    2.69
   6   3  -3   31.82    3.92
   6   3  -3   29.26    3.59
  -6   3   3   25.68    2.87
  -6  -3  -3   27.94    3.47
  -6   3   3   29.38    3.35
   6  -3   3   26.46    2.09
  -6  -3   3   25.73    3.39
   6   3   3   26.80    3.13
   6   3   3   29.37    3.43
  -6  -3   3   24.47    2.95
  -6   3  -3   28.63    2.64
  -6  -3   3   30.96    2.84
   6  -3  -3   29.83    2.52
   6   3   3   30.60    2.87
  -6   3  -3   27.16    2.94
   6  -3  -3   26.73    3.12
   6   3   3   28.04    3.40
   6  -3  -3   35.95    3.87
   6  -3  -3   26.44    2.72
   6   3   3   28.61    2.79
  -8   3   3   18.59    2.60
   8  -3   3   24.44    2.20
  -8  -3  -3   21.38    2.69
   8   3  -3   12.46    2.23
   8  -3   3   16.16    1.82
   8  -3   3   19.46    2.32
  -8  -3  -3   19.96    3.02
   8  -3   3   16.91    2.33
  -8   3   3   21.47    2.91
   8   3  -3   13.99    2.42
  -8   3   3   22.97    2.78
   8   3  -3   23.69    3.43
   8   3  -3   15.86    2.26
   8   3   3   19.22    2.91
   8  -3  -3   22.12    2.44
   8  -3  -3   18.05    2.31
  -8   3  -3   20.17    2.40
   8   3   3   18.83    2.70
  -8  -3   3   15.32    2.43
   8   3   3   17.35    2.24
   8  -3  -3   23.37    3.04
  -8  -3   3   19.14    2.99
  -8   3  -3   19.38    2.20
  10  -3   3   12.67    1.89
  10   3  -3    7.65    1.84
  10  -3   3   11.05    1.72
 -10   3   3   13.02    2.30
 -10   3   3   13.16    2.62
 -10   3   3   12.82    2.16
  10   3  -3   12.88    2.65
 -10  -3  -3   12.25    2.18
  10   3  -3   10.65    1.98
 -10  -3  -3   13.42    2.38
  10  -3  -3   12.30    1.95
  10  -3  -3   14.11    2.03
  10   3   3   12.90    2.20
 -10   3  -3   13.10    1.82
  10  -3  -3   16.11    2.62
  10   3   3   11.83    1.87
  10   3   3   16.04    2.69
 -10  -3   3   13.76    2.35
 -10   3  -3   14.88    1.90
 -10  -3   3   16.60    2.87
  12   3  -3   90.47    6.01
  12  -3   3   86.92    4.44
 -12   3   3  110.99    6.86
 -12   3   3  100.46    5.34
  12  -3   3   91.75    4.36
 -12  -3  -3   87.50    5.33
 -12   3   3   93.28    5.14
  12   3  -3   96.02    5.24
 -12  -3  -3   91.89    5.13
 -12  -3   3  101.26    5.73
  12  -3  -3   95.85    5.50
 -12  -3   3   86.51    5.79
 -12   3  -3   96.36    3.88
 -12   3  -3   89.79    4.22
  12   3   3   91.35    5.48
  12   3   3   97.26    4.94
  12  -3  -3   93.42    4.72
  14   3  -3    7.68    1.88
 -14   3   3   10.72    2.07
  14  -3   3    8.77    1.59
 -14  -3  -3   10.14    2.00
 -14   3   3    7.67    2.54
 -14  -3  -3   10.19    2.23
  14   3  -3   13.12    2.83
  14  -3   3    8.48    1.52
 -14   3   3    9.24    1.85
  14   3   3    9.54    1.93
  14  -3  -3   10.41    2.16
 -14  -3   3    6.97    2.15
 -14  -3   3   10.26    2.38
 -14   3  -3   11.54    1.49
  14   3   3    8.32    2.03
  16  -3   3    0.29    0.69
 -16  -3  -3    0.00    1.00
 -16   3   3    0.27    0.71
 -16   3   3    0.52    1.10
  16   3  -3    0.16    0.90
 -16  -3  -3    0.56    0.88
 -16   3   3    0.15    1.52
  16  -3   3   -0.63    0.72
  16   3  -3    0.24    1.47
  16  -3  -3   -0.10    0.80
 -16   3  -3    0.27    0.46
 -16  -3   3    1.18    1.20
 -16  -3   3    0.61    1.20
 -16   3  -3    0.76    1.48
  16   3   3    0.56    1.20
 -18  -3  -3   13.25    2.47
 -18   3   3   10.81    2.10
 -18   3   3   12.57    3.77
  18  -3   3   11.46    1.85
  18   3  -3   13.86    3.21
  18   3  -3   13.29    2.49
  18  -3   3    8.99    1.58
  18   3   3   15.30    3.12
 -18   3  -3    9.89    3.59
 -18  -3   3   12.74    2.94
 -18  -3   3   10.31    2.72
  18  -3  -3   12.64    2.66
 -20   3   3    1.57    2.18
  20  -3   3    1.06    1.02
  20   3  -3    0.40    1.64
 -20   3   3    0.10    0.90
 -20  -3  -3    1.67    1.29
  20  -3  -3    1.28    1.27
 -20   3  -3    0.98    2.24
 -20  -3   3    1.06    1.45
  20   3   3    2.85    1.79
  -1   4   3   12.66    2.46
   1  -4   3   15.25    2.12
   1   4  -3   19.51    2.52
   1   4  -3   16.72    3.04
  -1  -4  -3   12.67    2.29
  -1   4   3   12.31    2.32
  -1   4   3   14.99    2.42
  -1   4   3   10.22    1.88
  -1   4   3   14.65    2.09
   1  -4   3   20.48    3.07
   1   4  -3   19.72    3.18
  -1  -4  -3    9.64    1.84
  -1  -4  -3   15.34    2.73
   1   4  -3   14.14    2.31
   1  -4   3   16.31    2.26
  -1   4  -3   13.10    1.89
  -1   4  -3   17.03    2.37
   1   4   3   13.79    2.16
  -1  -4   3   15.89    2.29
   1  -4  -3   14.77    2.57
  -1   4  -3   19.00    2.57
   1  -4  -3   18.84    3.01
  -1  -4   3    9.71    2.12
  -1  -4   3   16.46    2.82
   1   4   3   10.09    2.31
   1   4   3   12.09    2.03
   1   4   3   14.63    2.71
  -1   4  -3   14.68    2.04
  -1   4  -3   13.92    2.69
   1  -4  -3   18.43    2.50
  -1  -4   3   16.30    2.22
  -3   4   3   98.21    4.85
   3   4  -3  111.46    5.57
  -3  -4  -3  112.01    5.36
   3  -4   3  111.14    6.23
  -3   4   3  114.91    6.46
  -3  -4  -3  113.00    5.85
   3   4  -3  102.37    6.21
   3  -4   3  116.02    5.37
   3  -4   3  114.66    5.28
   3  -4   3  104.01    5.92
  -3   4   3  100.66    5.75
  -3   4   3  106.93    5.16
  -3  -4  -3  102.60    6.29
  -3  -4  -3  111.00    5.84
   3  -4   3  111.90    5.90
  -3   4   3  115.73    5.55
   3   4   3  102.18    5.36
   3   4   3  110.15    6.32
   3  -4  -3  113.74    5.55
  -3  -4   3  100.61    5.28
  -3  -4   3  106.93    5.31
  -3   4  -3  108.89    5.47
   3   4   3  110.94    5.48
   3  -4  -3  101.30    6.06
  -3   4  -3  101.29    5.94
  -3   4  -3  108.73    4.92
  -3   4  -3  106.86    4.82
  -3   4  -3  105.37    4.61
  -3  -4   3  112.53    6.14
  -3  -4   3  117.07    6.54
  -5  -4  -3   27.57    2.88
  -5   4   3   28.92    2.74
  -5   4   3   25.72    2.51
  -5  -4  -3   20.98    2.97
  -5   4   3   25.88    3.52
  -5   4   3   30.68    3.53
   5  -4   3   20.72    2.79
   5  -4   3   28.80    2.93
   5  -4   3   31.36    3.17
   5   4  -3   23.16    3.46
   5   4  -3   29.05    3.48
   5  -4   3   26.09    3.52
  -5  -4  -3   26.36    3.73
   5   4   3   25.49    3.04
   5  -4  -3   23.46    3.58
   5  -4  -3   27.71    4.75
  -5   4  -3   22.92    1.51
  -5  -4   3   32.07    3.82
  -5  -4   3   25.91    3.61
  -5  -4   3   19.52    2.53
   5   4   3   23.82    3.35
   5   4   3   25.29    3.54
  -5   4  -3   28.14    3.43
   5   4   3   27.76    3.11
  -5   4  -3   24.17    2.88
   5  -4  -3   26.13    2.88
  -5  -4   3   29.62    3.78
   7  -4   3   19.68    2.94
  -7   4   3   20.79    2.94
  -7  -4  -3   18.47    2.83
   7   4  -3   19.63    2.83
   7  -4   3   21.47    2.50
   7  -4   3   17.88    2.51
  -7   4   3   19.42    3.15
   7   4  -3   19.13    2.71
   7   4  -3   18.39    3.34
  -7  -4  -3   19.11    3.19
   7   4   3   18.40    3.06
  -7  -4   3   14.19    2.76
   7   4   3   15.26    2.42
   7  -4  -3   19.39    3.18
  -7  -4   3   18.10    2.39
   7  -4  -3   21.07    2.71
   7   4   3   12.91    2.18
  -7   4  -3   19.04    2.57
  -7  -4   3   20.65    3.14
  -7   4  -3   21.59    3.00
  -9  -4  -3   29.47    3.63
   9  -4   3   30.79    3.77
   9  -4   3   27.74    2.87
  -9   4   3   25.08    3.60
   9  -4   3   25.90    2.93
   9   4  -3   31.34    3.75
  -9  -4  -3   21.36    3.55
  -9   4   3   27.69    3.27
   9   4   3   28.03    3.32
  -9   4  -3   29.63    3.38
   9  -4  -3   27.52    3.84
  -9   4  -3   29.65    3.25
   9   4   3   26.18    3.30
  -9  -4   3   22.80    3.56
   9  -4  -3   29.40    3.20
   9   4   3   31.19    4.01
  -9  -4   3   32.02    4.03
 -11  -4  -3    6.89    1.93
 -11   4   3    4.97    1.56
 -11   4   3    4.16    1.72
  11   4  -3    2.78    1.34
 -11  -4  -3    7.71    2.18
  11   4  -3    3.18    1.98
  11  -4   3    2.79    1.37
 -11   4   3    5.70    2.03
  11  -4  -3    7.29    1.66
 -11   4  -3    5.63    1.43
 -11  -4   3    3.35    1.76
  11   4   3    4.07    1.68
  11  -4  -3    3.08    1.55
 -11  -4   3    6.50    1.96
  11   4   3    4.47    1.55
 -11   4  -3    3.58    1.18
 -13  -4  -3   47.61    5.30
 -13   4   3   45.80    4.73
 -13   4   3   39.13    4.18
 -13  -4  -3   48.31    4.88
 -13   4   3   49.67    6.19
  13   4  -3   45.79    5.76
  13   4  -3   33.47    4.05
  13  -4   3   45.31    3.84
 -13   4  -3   46.47    3.03
 -13  -4   3   34.80    4.44
 -13   4  -3   37.21    3.53
  13   4   3   41.97    4.28
  13   4   3   39.96    4.97
  13  -4  -3   45.29    4.12
 -13  -4   3   46.34    5.45
  13  -4  -3   39.46    4.70
  15   4  -3   16.77    3.01
 -15  -4  -3   16.02    3.15
 -15   4   3   16.74    2.79
 -15  -4  -3   21.63    3.29
  15  -4   3   14.26    2.53
  15   4  -3   19.72    3.96
 -15   4   3   16.89    2.68
  15   4   3   15.17    2.72
 -15   4  -3   16.45    2.14
 -15  -4   3   17.95    3.66
 -15  -4   3   25.36    4.10
  15  -4  -3   17.68    3.22
  15   4   3   15.03    3.08
 -17   4   3    1.58    1.14
  17  -4   3    0.60    1.22
  17   4  -3    0.79    1.43
  17   4  -3    1.10    1.88
 -17  -4  -3    3.82    1.58
 -17  -4  -3    2.63    1.61
 -17  -4   3    2.50    1.86
  17  -4  -3    3.39    1.75
 -17   4  -3    0.63    1.72
  17   4   3    1.04    1.59
 -17  -4   3    3.49    1.66
 -17   4  -3    1.54    0.87
  19   4  -3    7.67    2.75
 -19   4   3   10.66    2.18
  19   4  -3    5.15    2.21
 -19  -4  -3    4.89    2.14
  19  -4   3    8.46    2.16
  19   4   3    6.55    2.68
 -19  -4   3    9.03    2.59
 -19   4  -3    7.66    3.49
  19  -4  -3    6.58    2.36
   0   5  -3    4.96    1.32
   0  -5  -3    6.58    2.05
   0   5  -3    8.39    2.35
   0   5  -3    8.90    2.12
   0  -5   3    4.98    1.53
   0   5   3    5.99    1.96
   0  -5   3    5.80    1.69
   0   5   3    5.07    1.48
   0   5  -3    5.28    1.54
   0   5   3    9.75    2.10
   0  -5   3    6.37    2.22
   0   5   3    5.45    1.93
   0  -5  -3    4.54    1.38
   2  -5   3    3.46    1.38
  -2  -5  -3    4.61    1.46
   2   5  -3    2.37    1.16
  -2   5   3    6.29    2.20
  -2  -5  -3    5.49    1.89
   2   5  -3    5.46    1.93
  -2   5   3    4.15    1.32
  -2   5   3    5.16    1.44
  -2   5   3    4.00    1.61
   2   5  -3    6.80    1.73
   2   5  -3    3.57    1.66
   2  -5   3    5.39    1.68
  -2  -5  -3    9.27    2.19
   2   5   3    5.73    1.83
  -2   5  -3    4.15    1.22
   2  -5  -3    2.21    1.11
   2   5   3    4.32    1.46
   2  -5  -3    4.77    1.86
  -2   5  -3    6.28    1.48
   2   5   3    1.33    1.07
  -2   5  -3    4.70    1.77
  -2  -5   3    3.24    1.30
  -2   5  -3    3.26    1.39
  -2  -5   3    1.94    1.05
  -2  -5   3    3.33    1.52
  -4  -5  -3   41.42    5.26
  -4  -5  -3   40.10    3.91
   4   5  -3   46.22    5.36
   4  -5   3   46.65    4.21
  -4   5   3   50.12    5.59
   4  -5   3   46.88    4.17
  -4  -5  -3   46.32    4.78
  -4   5   3   43.54    4.69
   4   5  -3   41.17    4.24
  -4   5   3   44.89    3.33
   4  -5   3   50.15    5.50
  -4   5   3   43.93    3.17
  -4   5  -3   40.29    4.70
   4   5   3   50.13    5.57
   4   5   3   51.47    4.85
  -4  -5   3   51.00    4.67
   4  -5  -3   45.66    4.47
  -4  -5   3   46.17    4.80
  -4   5  -3   45.85    2.89
   4   5   3   50.20    4.67
  -4   5  -3   53.48    4.87
  -4  -5   3   44.57    5.23
   6   5  -3   28.43    4.29
  -6  -5  -3   39.05    4.59
   6   5  -3   32.32    3.83
   6  -5   3   35.88    3.74
  -6   5   3   35.18    2.50
  -6   5   3   23.76    3.76
  -6  -5  -3   35.27    4.80
   6  -5   3   28.16    4.15
  -6   5   3   42.04    4.71
  -6   5  -3   41.03    4.35
  -6  -5   3   34.75    4.32
  -6  -5   3   36.54    3.69
  -6   5  -3   32.44    4.20
  -6  -5   3   26.74    4.04
   6   5   3   35.61    3.99
   6   5   3   41.79    4.43
   6  -5  -3   28.55    3.54
  -8  -5  -3    1.11    1.31
   8   5  -3    1.25    1.12
  -8   5   3   -0.02    0.89
   8  -5   3    0.95    1.32
   8  -5   3    0.15    0.93
  -8  -5  -3    3.42    1.66
  -8   5   3    1.47    1.24
  -8  -5   3   -0.18    0.93
   8  -5  -3    0.23    0.93
   8  -5  -3    0.97    1.49
   8   5   3    1.47    1.22
  -8   5  -3    1.98    1.49
  -8   5  -3    0.64    0.92
   8   5   3    0.39    0.85
  -8  -5   3    1.46    1.45
 -10  -5  -3    0.02    1.22
 -10  -5  -3   -0.07    0.94
  10  -5   3    0.92    0.96
 -10   5   3   -0.32    1.04
  10  -5   3   -0.62    1.00
 -10   5   3    0.42    0.82
  10   5  -3   -0.46    0.75
  10   5   3   -0.53    0.90
 -10   5  -3    0.09    1.04
 -10  -5   3    0.66    1.19
 -10   5  -3   -0.06    0.92
  10  -5  -3    0.09    0.98
 -10  -5   3    0.12    1.14
  10  -5  -3    1.63    1.53
  10   5   3   -0.06    0.89
 -12   5   3    0.84    1.17
  12   5  -3    1.48    1.58
  12  -5   3    0.16    0.99
  12  -5   3    1.88    1.36
 -12  -5  -3    1.20    1.38
 -12   5   3    1.33    1.41
 -12  -5  -3   -0.42    1.26
  12  -5  -3    0.83    1.15
 -12  -5   3    0.70    1.40
  12  -5  -3    2.16    1.67
 -12   5  -3    1.01    1.24
 -12   5  -3   -0.65    0.81
  12   5   3    2.71    1.42
 -12  -5   3    0.12    1.42
  14   5  -3    6.29    2.12
  14  -5   3    3.42    1.82
 -14   5   3    1.62    1.36
 -14  -5  -3    4.34    1.82
 -14   5   3    3.57    1.61
 -14  -5  -3    3.20    2.03
  14  -5  -3    2.38    1.86
 -14  -5   3    3.02    1.93
  14  -5  -3    1.38    1.18
 -14   5  -3    4.45    1.59
  14   5   3    3.84    1.73
  14   5   3    3.13    1.88
 -14  -5   3    3.49    2.14
 -16   5   3    1.83    1.16
  16   5  -3    0.57    1.44
 -16  -5  -3    1.05    1.34
  16  -5   3    5.56    2.19
 -16   5   3    2.69    1.62
  16   5   3    1.72    1.35
  16  -5  -3    2.27    1.89
 -16   5  -3    1.57    1.10
  16   5   3    2.21    2.14
 -16  -5   3    3.45    1.85
   1   6  -3   44.47    5.01
   1   6  -3   41.42    4.31
  -1  -6  -3   40.73    4.55
   1  -6   3   37.14    4.33
   1   6  -3   43.21    5.68
   1   6  -3   39.48    4.25
   1  -6   3   29.64    3.69
  -1   6   3   33.93    3.87
  -1   6   3   27.92    3.51
  -1  -6  -3   44.89    5.94
  -1   6   3   45.64    5.17
  -1   6   3   33.96    4.77
   1   6   3   33.75    4.03
  -1  -6   3   44.91    4.74
  -1   6  -3   37.69    3.87
   1   6   3   36.73    5.10
   1   6   3   33.13    3.99
  -1  -6   3   33.54    5.02
   1  -6  -3   27.09    3.62
   1  -6  -3   30.50    4.53
  -1   6  -3   43.58    5.04
  -1   6  -3   32.16    3.72
  -1   6  -3   40.08    5.26
  -3  -6  -3    0.60    1.00
  -3   6   3    1.23    1.20
   3   6  -3    0.49    1.25
   3   6  -3    0.33    1.02
   3  -6   3    1.25    1.33
  -3   6   3   -0.40    0.81
   3  -6   3    0.96    1.02
  -3  -6  -3    0.90    1.45
   3   6  -3   -0.81    0.74
  -3   6   3   -0.39    0.87
  -3   6  -3    1.78    1.53
  -3  -6   3    0.38    1.06
  -3   6  -3    1.04    0.94
   3  -6  -3    0.50    0.97
   3   6   3   -0.19    1.33
  -3  -6   3   -0.85    1.15
   3   6   3    0.58    0.91
   3   6   3    3.22    1.47
  -3   6  -3    2.28    1.46
   5  -6   3   27.26    3.75
  -5  -6  -3   14.80    2.93
  -5  -6  -3   17.57    3.61
  -5  -6  -3   16.84    2.85
  -5   6   3   11.14    2.97
   5   6  -3   11.61    3.16
   5   6  -3   12.11    2.60
  -5   6   3   21.40    3.78
   5   6  -3   20.23    3.29
  -5   6   3   13.38    2.19
   5  -6   3   15.78    2.95
   5  -6  -3   13.36    2.61
  -5  -6   3   17.98    3.71
  -5   6  -3    8.39    2.39
   5   6   3   14.14    2.63
   5   6   3   15.45    2.98
  -5   6  -3   16.35    3.08
  -5  -6   3   14.28    2.63
   7  -6   3    2.76    1.45
  -7  -6  -3    3.02    2.01
   7   6  -3   -0.08    1.06
  -7   6   3   -0.73    1.03
  -7   6   3    1.29    1.42
  -7  -6  -3    2.38    1.54
   7  -6  -3    1.10    1.20
   7   6   3    1.83    1.58
  -7  -6   3    0.68    1.30
   7   6   3    1.57    1.29
  -7   6  -3    0.18    1.21
  -7   6  -3    0.89    1.30
  -7  -6   3   -0.27    1.43
  -9   6   3    7.46    2.29
   9   6  -3   12.38    2.67
  -9  -6  -3   13.36    3.15
  -9  -6  -3    8.64    2.93
   9  -6   3   10.59    2.37
   9  -6   3   14.19    3.43
  -9   6   3    9.92    2.82
  -9   6  -3    7.61    2.23
   9  -6  -3    6.17    2.00
  -9  -6   3   11.39    3.17
  -9   6  -3   12.46    3.02
   9   6   3    6.51    1.90
   9   6   3    6.85    2.20
  -9  -6   3    9.97    3.26
 -11  -6  -3    5.27    2.37
  11  -6   3   13.46    3.21
  11   6  -3   11.89    2.87
 -11  -6  -3    8.93    2.63
 -11   6   3   12.65    2.94
 -11   6   3   11.04    3.08
  11  -6   3   12.29    2.57
 -11   6  -3   12.44    2.96
 -11   6  -3   12.35    2.72
  11   6   3    8.96    2.47
 -11  -6   3   10.26    3.05
  11  -6  -3    9.78    2.54
  11   6   3    7.70    2.22
 -11  -6   3    7.38    2.29
  13  -6   3    2.89    1.64
  13  -6   3    2.14    1.94
  13   6  -3    2.75    1.63
 -13   6   3    0.81    1.66
 -13   6   3    2.99    1.97
 -13  -6  -3    0.89    1.41
 -13   6  -3    3.28    1.80
  13   6   3    1.82    1.53
 -13   6  -3    3.15    1.58
  13  -6  -3    2.96    2.12
  13  -6  -3    1.22    1.32
 -13  -6   3   -0.28    1.31
  15  -6   3    1.77    2.03
  15   6  -3    1.94    1.65
 -15  -6  -3    1.39    1.55
 -15   6   3    1.95    1.54
  15  -6  -3    0.22    1.27
  15   6   3    1.60    1.51
 -15   6  -3    3.71    1.63
 -15  -6   3    1.37    1.62
  15  -6  -3    1.94    2.07
   0  -7  -3    0.52    1.06
   0   7   3    1.45    1.39
   0   7   3   -0.48    1.49
   0   7  -3    3.73    1.57
   0   7   3    2.30    1.37
   0   7  -3    1.89    1.61
   0  -7   3    0.26    1.24
   0   7  -3    2.06    1.99
  -2  -7  -3   -0.21    1.36
  -2   7   3    0.68    1.26
   2   7  -3   -0.80    0.89
  -2  -7  -3    1.07    1.31
   2   7  -3    0.71    1.26
  -2   7   3    1.58    1.20
   2  -7   3   -1.58    1.06
  -2   7   3    0.54    1.43
   2   7  -3    0.79    1.50
  -2   7  -3   -0.86    1.32
   2   7   3    0.00    1.06
   2   7   3    1.20    1.30
  -2   7  -3   -0.02    1.27
  -2  -7   3    0.52    1.45
  -2   7  -3    0.04    0.95
   2  -7  -3   -0.92    1.00
   2   7   3    1.17    1.45
   4   7  -3    5.47    2.01
  -4   7   3   10.67    2.84
   4  -7   3    5.34    2.07
  -4  -7  -3    3.20    2.13
   4   7  -3    8.72    2.33
  -4   7   3    8.72    2.87
  -4   7   3    6.76    1.85
  -4  -7  -3    8.23    2.31
   4   7  -3    4.10    2.29
  -4   7  -3    5.63    2.39
   4  -7  -3   13.62    2.93
  -4  -7   3    6.04    2.02
   4   7   3   14.42    3.07
   4   7   3    8.46    2.28
  -4   7  -3    4.59    2.32
  -4  -7   3    4.75    2.45
  -6  -7  -3    7.29    2.94
  -6  -7  -3   14.87    3.55
   6  -7   3   12.01    2.92
   6   7  -3    8.63    2.40
  -6   7   3   15.33    3.59
   6   7  -3    7.61    2.40
  -6   7   3   18.13    4.09
  -6  -7   3    8.33    2.92
  -6   7  -3   14.82    3.37
   6   7   3   16.62    3.27
   6  -7  -3   14.74    3.10
   6   7   3   11.34    2.86
  -6  -7   3    7.75    2.27
  -6   7  -3   15.25    3.43
   8   7  -3   -0.07    1.28
  -8  -7  -3    0.53    1.70
  -8   7   3   -0.25    1.22
   8  -7   3   -0.66    1.15
   8   7  -3   -0.14    1.33
  -8   7   3    0.32    1.49
  -8  -7  -3    0.02    1.75
   8   7   3    1.04    1.64
   8  -7  -3    0.05    1.26
   8   7   3   -0.42    1.03
  -8   7  -3    0.91    1.44
  -8  -7   3   -0.29    1.56
  -8   7  -3   -0.63    1.34
  10   7  -3   -0.63    1.15
 -10  -7  -3   -0.35    1.43
  10  -7   3   -0.29    1.27
 -10   7   3   -0.85    1.31
  10   7  -3   -0.39    1.30
  10   7   3    3.78    2.14
  10   7   3    0.35    1.31
 -10  -7   3   -0.03    1.56
 -10   7  -3    0.03    1.08
  10  -7  -3   -0.04    1.26
  12  -7   3   -0.70    1.15
  12   7  -3    0.13    1.40
 -12  -7  -3    1.00    1.75
 -12   7   3    0.59    1.24
 -12  -7   3   -2.03    1.52
  12   7   3   -2.18    1.40
  12   7   3    0.28    1.32
 -12   7  -3   -1.23    1.08
  12  -7  -3    1.96    1.75
   1   8  -3    4.31    2.04
   1  -8   3    4.22    2.12
   1   8  -3    1.57    2.00
  -1   8   3    3.18    1.61
  -1   8   3    3.11    2.41
  -1  -8  -3   -0.11    1.34
   1   8   3    7.23    2.83
   1   8   3    4.27    2.21
  -1  -8   3    4.87    2.29
   1   8   3    2.19    1.64
  -1   8  -3    2.51    2.10
  -1   8  -3    2.73    1.63
   1  -8  -3    1.95    1.62
   3  -8   3   24.91    4.10
  -3  -8  -3   15.38    3.18
   3   8  -3   26.57    3.99
  -3   8   3   12.76    3.69
   3   8  -3   17.40    3.57
  -3   8   3   21.52    3.38
   3   8   3   16.61    3.38
  -3  -8   3   11.72    2.89
   3   8   3   24.26    4.15
  -3   8  -3   24.60    4.38
   3  -8  -3   13.33    3.05
  -5   8   3    6.83    2.65
   5  -8   3    8.32    2.52
  -5  -8  -3    2.21    2.19
   5   8  -3    9.88    2.90
   5   8  -3    3.45    1.87
   5  -8  -3    5.01    2.24
  -5  -8   3    2.28    1.84
   5   8   3    6.26    2.43
  -5   8  -3    7.45    2.84
   5   8   3    6.33    2.37
   7   8  -3    2.89    1.99
   7   8  -3    5.45    2.32
  -7   8   3    0.31    1.66
   7  -8   3    1.46    1.65
   7   8   3    1.32    1.78
  -7   8  -3   -0.29    1.61
   7  -8  -3    2.70    1.94
   7   8   3    3.76    2.10
  -9  -8  -3    8.75    3.27
  -9   8   3   15.52    3.68
   9  -8   3    8.18    2.58
   9   8  -3   19.43    3.98
   9   8  -3   12.27    3.45
  -9   8  -3   10.15    3.04
   9  -8  -3    5.51    2.29
   9   8   3   11.53    3.28
   9   8   3   11.01    3.07
   0   0   4    5.31    1.10
   0   0  -4    6.78    1.22
   0   0  -4    9.76    1.26
  -2   0  -4   20.00    1.99
  -2   0   4   20.48    2.17
   2   0  -4   26.70    3.26
   2   0   4   19.89    1.61
   2   0  -4   16.59    1.99
  -2   0  -4   18.19    1.26
  -2   0   4   23.00    2.04
   2   0   4   19.62    1.46
  -2   0  -4   17.96    1.22
  -4   0   4  226.65    8.28
   4   0   4  216.39    6.97
  -4   0  -4  230.92    7.63
  -4   0   4  235.04    8.23
   4   0  -4  226.63    7.58
   4   0  -4  217.66    8.13
   4   0  -4  228.89    8.28
   4   0   4  218.63    7.54
   4   0   4  220.55    7.00
   6   0  -4  467.21   14.35
   6   0  -4  469.10   15.02
   6   0  -4  463.24   15.40
  -6   0   4  473.35   15.20
   6   0  -4  462.83   15.00
  -6   0  -4  465.50   13.99
   6   0   4  449.53   13.56
  -6   0   4  466.44   15.36
  -6   0  -4  463.05   14.01
   8   0  -4   53.05    3.23
  -8   0  -4   45.53    2.19
  -8   0   4   47.57    3.44
  -8   0   4   44.47    3.10
   8   0  -4   56.57    3.76
   8   0  -4   49.14    2.76
  -8   0  -4   44.85    2.17
  -8   0  -4   49.05    2.24
  -8   0   4   48.25    2.97
   8   0  -4   45.49    3.03
  -8   0  -4   52.78    3.95
 -10   0  -4    4.85    0.76
 -10   0  -4    3.83    0.44
  10   0  -4    3.30    1.09
  10   0  -4    2.15    1.13
 -10   0   4    5.66    1.74
 -10   0   4    1.98    0.91
 -10   0   4    5.96    1.44
  10   0  -4    3.46    0.90
 -10   0  -4    3.77    0.42
 -10   0  -4    2.61    1.36
 -12   0  -4    0.22    0.32
  12   0  -4   -0.24    0.58
  12   0  -4   -0.83    0.64
 -12   0   4   -0.36    1.02
 -12   0   4   -0.16    0.59
 -12   0  -4   -0.06    0.98
 -12   0   4    0.53    0.69
 -14   0  -4   18.92    4.13
 -14   0   4   20.13    2.61
  14   0  -4   24.01    3.09
 -14   0   4   29.07    3.20
  14   0  -4   19.69    2.39
 -14   0  -4   18.86    0.91
 -14   0   4   18.25    3.67
 -16   0  -4   13.71    3.71
 -16   0   4   13.85    2.22
 -16   0   4   14.55    2.27
 -16   0   4   10.33    1.97
  16   0  -4   13.83    2.57
  18   0   4   21.83    1.40
 -18   0   4   21.46    3.02
 -18   0   4   16.74    2.52
 -18   0  -4   28.08    5.72
  18   0  -4   20.53    3.28
  20   0   4    7.29    1.30
  20   0   4    7.28    1.14
 -20   0   4    7.89    1.98
 -20   0  -4   11.01    3.76
  20   0  -4    7.31    2.28
  -1  -1  -4    0.33    0.55
   1   1  -4    0.79    0.42
  -1  -1  -4    0.14    0.33
  -1   1   4    0.26    0.43
   1  -1   4    0.02    0.39
  -1   1   4    1.25    0.72
   1  -1   4   -0.11    0.46
   1   1  -4    0.49    0.59
   1  -1   4    1.35    0.41
   1  -1   4    0.23    0.50
   1   1  -4    0.51    0.54
   1   1   4    0.57    0.55
   1  -1  -4    0.58    0.53
   1   1   4    1.16    0.55
   1   1   4    0.64    0.49
  -1  -1   4    1.11    0.56
  -1   1  -4    0.43    0.57
   1  -1  -4    0.80    0.48
  -1  -1   4    0.91    0.46
  -1  -1   4    0.97    0.66
   1  -1  -4    0.16    0.56
  -1   1  -4    0.93    0.47
   3  -1   4    1.99    0.72
  -3   1   4    3.75    1.07
   3   1  -4    1.90    0.69
   3   1  -4    1.88    0.78
   3   1  -4    3.48    0.82
  -3  -1  -4    2.76    0.88
   3  -1   4    3.10    0.78
  -3  -1  -4    2.75    0.63
   3  -1  -4    4.03    0.92
  -3  -1   4    2.26    0.73
   3   1   4    4.60    0.90
  -3   1  -4    1.67    0.71
  -3  -1   4    4.26    1.11
   3  -1  -4    1.99    0.85
   3   1   4    3.30    0.89
  -3  -1   4    2.61    0.76
   3   1   4    2.24    0.66
  -5  -1  -4  175.78    6.96
  -5   1   4  171.69    6.46
   5   1  -4  171.87    6.31
   5   1  -4  167.44    6.86
   5  -1   4  166.17    5.18
  -5   1   4  164.88    6.84
   5  -1   4  170.43    6.30
   5  -1   4  169.61    5.18
   5  -1   4  175.03    5.92
  -5  -1  -4  172.79    6.47
   5   1  -4  172.03    7.05
  -5   1   4  166.54    6.98
   5  -1  -4  171.81    6.27
   5   1   4  168.92    5.98
  -5  -1   4  174.44    6.96
   5   1   4  166.62    6.35
  -5   1  -4  173.28    6.19
   5  -1  -4  161.36    6.82
  -5   1  -4  163.89    6.06
   5   1   4  172.53    6.34
   5   1   4  175.72    5.86
  -5  -1   4  169.92    7.04
  -5  -1   4  158.58    5.94
  -7  -1  -4    9.13    1.40
   7   1  -4    7.92    1.65
  -7  -1  -4    8.89    1.87
   7   1  -4    8.85    1.74
   7   1  -4    8.67    1.75
  -7   1   4    7.92    1.48
  -7   1   4   10.32    1.79
   7   1  -4   11.59    1.65
   7  -1   4    8.01    0.68
  -7  -1  -4   12.02    1.45
  -7  -1  -4    8.59    1.39
  -7   1   4    9.83    1.81
  -7   1   4   10.65    1.86
   7  -1   4    7.50    0.65
  -7   1  -4    9.83    1.15
   7   1   4   12.22    1.30
  -7  -1   4   12.72    1.96
  -7   1  -4   11.38    1.27
  -7  -1   4    9.05    1.76
   7  -1  -4    8.25    1.31
  -7   1  -4   10.33    1.18
  -7  -1   4   10.42    1.82
   7   1   4    8.67    1.25
   7  -1  -4   11.73    1.91
  -7  -1   4   11.73    1.33
   7   1   4    8.28    0.96
   7  -1  -4   10.18    1.81
  -9   1   4    6.44    1.70
  -9   1   4    3.97    1.09
  -9  -1  -4    4.98    1.03
  -9  -1  -4    8.02    2.05
   9   1  -4    7.58    1.77
  -9   1   4    6.88    1.50
  -9  -1  -4    6.68    1.20
   9   1  -4    6.07    1.61
   9   1  -4    6.64    1.26
   9   1   4    5.69    0.41
  -9   1  -4    5.11    0.58
  -9   1  -4    5.96    0.84
  -9  -1   4    4.72    1.33
   9  -1  -4    5.00    1.40
   9  -1  -4    3.37    1.12
   9  -1  -4    5.42    1.16
   9   1   4    6.40    0.94
  -9   1  -4    4.78    0.59
   9   1   4    7.04    1.17
   9   1   4    5.28    0.97
  -9  -1   4    5.16    1.37
 -11   1   4    0.62    0.88
 -11   1   4    0.06    0.68
  11   1  -4    0.24    0.53
 -11  -1  -4   -0.02    0.45
 -11  -1  -4    1.09    1.05
 -11  -1  -4    0.77    0.50
  11  -1   4    0.59    0.67
  11   1  -4    0.01    0.62
 -11   1   4   -0.34    0.48
 -11   1  -4    0.10    0.29
 -11  -1   4    0.47    0.59
  11  -1  -4   -0.04    0.66
  11  -1  -4    0.10    0.95
  11  -1  -4   -0.32    0.47
  11   1   4    0.16    0.46
 -11   1  -4   -0.68    0.63
  11   1   4    0.06    0.51
  11  -1  -4    0.49    0.76
 -11  -1   4   -0.22    0.64
 -13   1   4    1.75    1.54
  13   1  -4   -0.30    0.66
  13   1  -4    1.12    1.03
 -13   1   4   -0.48    0.58
 -13  -1  -4    0.11    1.06
 -13   1   4   -0.02    0.61
 -13  -1  -4    0.71    0.45
 -13  -1  -4   -0.37    0.44
 -13   1  -4   -0.53    0.88
  13   1   4   -0.12    0.63
 -13  -1   4    0.27    0.85
  13  -1  -4    2.08    0.86
 -13  -1   4    0.75    0.74
  13  -1  -4    0.48    0.73
  13   1   4    0.47    0.57
  13  -1  -4    0.51    0.74
 -13  -1   4    0.05    0.74
 -13  -1   4    0.63    0.67
  15   1  -4    4.93    1.43
 -15  -1  -4    3.17    2.01
 -15   1   4    0.84    1.46
  15   1  -4    2.51    1.34
 -15   1   4    2.08    0.95
 -15   1   4    3.45    1.19
 -15  -1  -4    3.91    0.87
  15  -1  -4    3.85    1.38
 -15  -1   4    2.85    1.11
  15  -1  -4    4.75    1.57
 -15  -1   4    4.75    1.60
 -15  -1   4    2.95    1.26
  15   1   4    3.93    1.15
 -15   1  -4    4.32    1.87
 -17  -1  -4    6.22    2.73
 -17   1   4    7.28    2.81
  17   1  -4   15.74    2.81
 -17  -1  -4   11.74    1.36
 -17   1   4   12.59    2.51
 -17   1   4   10.25    2.00
  17  -1  -4   11.25    2.39
 -17  -1   4    9.32    2.01
 -17  -1   4   13.84    2.48
  17   1   4   11.00    1.74
 -17   1  -4   10.86    3.48
  17   1   4   11.95    1.87
 -19  -1  -4   -0.26    1.66
 -19   1   4    0.65    1.77
 -19   1   4    0.61    0.79
  19   1  -4    0.84    1.44
  19  -1  -4    0.49    1.06
 -19  -1   4   -0.02    0.96
 -19   1  -4   -1.50    1.38
  19   1   4    0.63    0.91
  21   1  -4    3.04    1.87
 -21   1   4    3.04    1.38
 -21  -1  -4   -0.27    1.61
 -21  -1   4    2.27    1.42
  21  -1  -4   -0.26    1.20
  21   1   4    1.41    1.12
 -21   1  -4    2.42    2.80
   0   2  -4   66.82    2.82
   0   2  -4   70.40    3.24
   0   2   4   69.59    3.33
   0  -2   4   64.38    3.27
   0   2   4   66.93    3.67
   0   2   4   68.06    3.41
   0   2   4   69.55    3.94
   0  -2  -4   64.18    3.28
   0  -2  -4   70.78    3.95
   0   2  -4   69.29    3.51
   0  -2  -4   63.99    3.63
   0   2  -4   63.35    3.79
   0  -2   4   61.88    3.70
  -2  -2  -4    2.56    1.02
   2  -2   4    3.67    1.06
   2   2  -4    3.04    1.12
  -2  -2  -4    2.80    0.86
   2   2  -4    2.16    0.67
   2  -2   4    3.24    0.84
   2   2  -4    2.32    0.78
   2  -2   4    3.36    1.03
  -2   2   4    4.62    1.02
   2  -2   4    2.95    0.89
  -2   2   4    4.94    1.33
  -2   2   4    4.07    0.94
  -2  -2  -4    2.43    0.79
   2   2  -4    3.99    0.97
   2   2   4    3.69    0.98
   2  -2  -4    2.68    0.83
  -2  -2   4    2.91    0.88
   2  -2  -4    1.70    0.66
   2   2   4    0.93    0.72
  -2   2  -4    3.98    1.19
  -2   2  -4    4.06    0.88
   2   2   4    4.26    1.15
   2  -2  -4    2.63    1.02
  -2  -2   4    3.23    0.95
  -2  -2   4    3.30    1.16
  -2  -2   4    3.39    1.09
   2  -2  -4    2.65    0.93
  -4  -2  -4   37.15    2.13
  -4   2   4   35.66    2.20
   4   2  -4   32.57    2.47
   4  -2   4   29.12    2.29
  -4  -2  -4   31.75    2.36
   4  -2   4   29.21    2.32
   4  -2   4   34.85    2.23
   4   2  -4   36.65    3.67
  -4   2   4   34.18    2.78
  -4   2   4   36.41    2.14
   4  -2   4   33.67    2.02
  -4  -2  -4   36.79    2.75
   4   2  -4   32.19    2.27
   4  -2   4   34.36    2.52
   4   2  -4   33.70    2.71
   4  -2  -4   35.62    2.35
   4  -2  -4   34.74    2.35
  -4  -2   4   27.88    2.10
  -4  -2   4   26.37    3.00
   4  -2  -4   32.02    2.66
  -4  -2   4   32.46    2.25
   4   2   4   32.64    2.20
   4   2   4   33.06    2.61
  -4   2  -4   30.99    2.33
   4  -2  -4   30.06    2.43
   4   2   4   35.12    2.50
   6  -2   4   57.26    2.66
   6   2  -4   60.30    3.97
  -6   2   4   59.33    3.77
  -6  -2  -4   56.44    3.58
   6  -2   4   58.29    2.08
  -6   2   4   61.90    3.83
  -6   2   4   54.43    3.39
   6  -2   4   54.24    3.10
   6   2  -4   62.36    3.79
  -6   2   4   56.52    2.68
   6   2  -4   57.74    3.34
  -6   2   4   54.61    3.21
   6  -2   4   60.78    2.70
  -6  -2  -4   59.21    3.83
   6  -2   4   56.01    3.06
  -6  -2  -4   57.81    3.43
   6   2  -4   62.97    3.92
   6  -2  -4   58.56    3.25
  -6  -2   4   63.44    3.21
  -6  -2   4   54.03    3.80
   6   2   4   63.23    3.69
  -6   2  -4   58.47    3.02
   6  -2  -4   53.27    3.13
  -6   2  -4   60.08    3.17
  -6  -2   4   54.84    3.58
   6   2   4   59.18    3.08
  -6   2  -4   54.89    3.16
  -6  -2   4   61.25    3.69
   6  -2  -4   61.08    3.77
   6   2   4   56.74    3.32
   6  -2  -4   62.64    3.75
  -6  -2   4   54.91    3.00
   6   2   4   64.33    3.75
  -8  -2  -4   81.36    4.33
  -8  -2  -4   72.40    4.86
   8  -2   4   75.59    3.30
  -8   2   4   76.86    4.16
   8  -2   4   77.63    3.31
  -8  -2  -4   71.67    4.01
   8   2  -4   67.09    3.86
   8  -2   4   79.27    3.04
   8   2  -4   77.81    4.81
   8   2  -4   85.78    4.88
   8  -2   4   71.35    3.36
   8   2  -4   73.69    4.64
  -8   2   4   70.44    4.36
  -8   2   4   73.93    4.42
   8  -2   4   76.93    3.13
  -8  -2   4   80.54    4.47
   8  -2  -4   75.68    4.30
   8   2   4   71.29    4.14
  -8  -2   4   72.33    4.28
   8   2   4   72.86    3.81
   8   2   4   78.60    3.66
   8  -2  -4   75.14    3.82
  -8  -2   4   67.95    4.43
  -8   2  -4   71.33    3.40
  -8  -2   4   74.33    4.59
  -8   2  -4   74.23    3.48
   8  -2  -4   74.22    3.80
  10   2  -4   45.30    3.09
  10  -2   4   45.31    2.14
 -10   2   4   45.06    3.84
 -10  -2  -4   47.00    3.16
 -10  -2  -4   47.11    5.16
 -10   2   4   45.84    3.36
  10   2  -4   43.62    3.67
 -10  -2  -4   44.73    3.08
  10  -2   4   43.44    2.23
 -10   2   4   43.15    3.12
 -10   2  -4   43.90    2.35
 -10  -2   4   43.15    3.35
  10   2   4   46.46    3.23
  10  -2  -4   49.79    2.99
 -10  -2   4   51.40    3.82
  10   2   4   43.26    3.20
  10   2   4   49.28    2.76
 -10   2  -4   45.43    2.16
  10  -2  -4   49.23    3.50
  10   2   4   46.37    3.23
 -10  -2   4   44.25    4.50
  10  -2  -4   41.34    2.79
 -12   2   4    1.05    0.85
 -12  -2  -4   -0.16    0.58
 -12   2   4    0.45    1.05
 -12  -2  -4    1.41    1.36
 -12   2   4    0.07    0.52
  12  -2   4    0.13    0.29
  12   2  -4    0.80    1.01
 -12  -2  -4    1.01    0.80
  12   2  -4    0.08    0.65
  12  -2   4    0.04    0.27
 -12  -2   4   -0.80    0.56
  12  -2  -4    0.14    0.65
 -12  -2   4    0.10    0.85
  12   2   4    0.67    0.85
  12   2   4    1.12    0.71
  12  -2  -4    0.97    0.90
 -12   2  -4    0.02    0.35
 -14  -2  -4    3.69    1.24
 -14   2   4    5.42    1.62
 -14   2   4    2.51    1.01
 -14  -2  -4    6.73    2.41
  14   2  -4    4.34    1.81
 -14  -2  -4    2.82    1.03
  14   2  -4    4.05    1.32
 -14   2   4    5.91    2.22
 -14   2  -4    3.08    0.43
 -14  -2   4    5.03    1.52
  14   2   4    3.98    1.45
  14  -2  -4    1.90    1.06
 -14  -2   4    3.88    1.54
  14  -2  -4    2.07    1.11
 -14   2  -4    3.29    1.88
 -16   2   4   17.27    2.56
 -16   2   4   19.59    2.55
 -16  -2  -4   20.04    4.42
  16   2  -4   14.04    2.45
 -16   2   4   12.62    3.46
  16   2  -4   15.51    3.10
 -16  -2  -4   19.47    2.45
 -16  -2   4   14.55    2.66
  16   2   4   16.94    2.68
 -16   2  -4   13.54    3.57
 -16  -2   4   17.46    3.01
  16  -2  -4   19.26    3.13
 -18   2   4   25.65    3.16
  18   2  -4   24.89    4.07
 -18  -2  -4   26.88    5.18
 -18  -2  -4   32.11    3.09
  18  -2   4   23.97    1.03
 -18   2   4   25.94    5.10
  18   2   4   27.44    3.38
 -18   2  -4   28.01    5.71
 -18  -2   4   27.94    3.74
 -18  -2   4   29.77    3.93
  18  -2  -4   26.41    3.77
  20  -2   4   10.95    0.89
  20  -2   4   10.26    1.04
 -20   2   4   15.09    4.25
 -20  -2  -4   12.18    1.83
  20   2  -4   12.93    3.08
 -20   2   4    7.61    1.75
 -20  -2  -4   13.92    4.57
  20   2   4   12.68    2.46
  20  -2  -4   10.15    2.51
 -20  -2   4   13.83    2.87
 -20   2  -4    9.43    3.76
  -1  -3  -4  148.61    6.22
   1   3  -4  139.37    6.46
   1   3  -4  157.51    7.24
   1  -3   4  152.25    6.80
  -1   3   4  157.88    6.72
   1  -3   4  148.19    6.89
  -1   3   4  142.28    6.02
   1  -3   4  148.43    6.17
   1  -3   4  153.24    6.16
  -1  -3  -4  153.59    6.72
   1   3  -4  159.79    5.83
  -1   3   4  148.53    6.24
   1   3  -4  142.62    6.08
  -1   3   4  148.31    7.10
  -1  -3  -4  144.90    7.09
   1   3   4  146.23    6.27
  -1   3  -4  147.72    6.97
   1  -3  -4  157.83    6.88
  -1   3  -4  145.92    5.91
   1   3   4  138.95    6.10
   1   3   4  151.11    7.22
  -1  -3   4  156.61    7.18
  -1  -3   4  149.89    6.91
   1  -3  -4  150.07    6.33
  -1   3  -4  143.67    6.20
   1   3   4  145.91    6.71
  -1   3  -4  148.32    5.10
   1  -3  -4  140.24    6.92
  -1  -3   4  141.12    6.12
  -1  -3   4  153.67    6.24
  -3  -3  -4    1.96    0.79
   3  -3   4    3.04    1.11
  -3  -3  -4    1.11    0.91
  -3   3   4    1.35    0.75
   3   3  -4    0.75    0.55
   3  -3   4    1.58    1.01
  -3  -3  -4    1.07    0.77
   3   3  -4    1.34    0.74
   3   3  -4    2.13    1.12
   3   3  -4    1.10    0.81
   3  -3   4    0.37    0.63
  -3  -3  -4    0.01    0.60
  -3   3   4    0.98    0.97
   3  -3   4    1.13    0.98
  -3  -3  -4    0.40    0.59
  -3   3   4    0.44    0.88
  -3   3   4    0.88    0.60
   3  -3   4    0.71    0.65
   3  -3  -4    1.59    1.12
   3  -3  -4    0.58    0.66
   3   3   4    2.91    1.27
  -3   3  -4    0.90    0.53
  -3  -3   4    1.22    0.70
   3   3   4    1.82    0.81
  -3   3  -4    2.52    1.15
   3   3   4    0.78    0.64
  -3  -3   4    1.09    0.74
   3   3   4    0.23    0.65
  -3   3  -4    1.08    0.75
  -3  -3   4    0.70    0.90
  -3  -3   4    1.38    0.82
  -3   3  -4    0.94    0.55
   3  -3  -4    0.36    0.68
  -5   3   4    6.99    1.24
  -5  -3  -4    9.41    1.91
   5   3  -4    3.37    1.48
  -5   3   4    6.90    1.30
  -5  -3  -4    6.60    1.25
   5   3  -4    6.07    1.33
  -5   3   4    5.53    1.57
  -5   3   4    8.01    1.60
   5   3  -4    6.83    1.52
   5  -3   4    6.11    1.25
   5   3  -4    7.72    1.86
  -5  -3  -4    6.65    1.75
   5  -3   4    6.26    1.44
   5  -3   4    8.84    1.84
  -5  -3  -4    6.63    1.29
   5   3   4   10.20    1.94
   5   3   4    7.26    1.47
   5  -3  -4    7.01    1.80
   5   3   4    8.83    1.67
  -5   3  -4   11.39    1.81
   5  -3  -4    8.55    1.59
   5  -3  -4    8.62    1.91
  -5  -3   4    6.75    1.75
   5   3   4    7.39    1.78
   5   3   4   10.33    2.16
  -5  -3   4    6.84    1.59
  -5  -3   4    7.70    1.47
  -5   3  -4    8.07    1.75
  -5  -3   4    7.78    1.50
   5  -3  -4    8.23    1.74
   7  -3   4   11.15    1.93
   7   3  -4    7.31    1.63
  -7   3   4   12.18    1.35
   7  -3   4   11.80    1.59
   7   3  -4    7.08    1.63
  -7  -3  -4    7.78    1.73
   7  -3   4   10.82    1.81
  -7   3   4   11.36    2.05
   7   3  -4   13.57    2.79
   7  -3   4    8.73    1.46
  -7   3   4    8.17    1.93
  -7  -3  -4    8.61    1.98
   7   3  -4    5.28    1.47
   7   3  -4    8.35    2.13
  -7   3   4    7.22    1.58
  -7   3  -4    9.18    1.58
   7   3   4   10.22    1.74
   7   3   4    8.87    1.75
   7   3   4   12.28    1.91
  -7  -3   4    8.28    1.75
   7  -3  -4   10.46    2.14
  -7   3  -4    9.82    1.81
  -7  -3   4   10.53    2.26
   7   3   4    7.98    1.88
   7  -3  -4   10.39    1.85
  -7  -3   4   13.28    1.94
   7  -3  -4    8.03    1.70
  -9  -3  -4    2.19    1.11
   9  -3   4    1.70    0.91
  -9   3   4    2.54    1.17
   9   3  -4    0.76    1.33
   9  -3   4    1.18    0.61
   9  -3   4    1.25    0.68
  -9  -3  -4    0.48    0.82
  -9   3   4    0.96    0.99
  -9   3   4    1.47    1.02
   9  -3   4    2.42    0.97
   9   3  -4    0.64    0.94
   9   3  -4    0.47    0.76
   9   3   4    1.40    0.88
   9  -3  -4   -0.25    1.02
   9  -3  -4    1.79    1.11
   9   3   4    0.87    0.93
  -9   3  -4    0.39    0.60
   9   3   4    0.52    0.94
  -9  -3   4    2.67    1.31
  -9  -3   4    0.46    0.84
  -9   3  -4    2.20    0.90
   9  -3  -4    1.00    0.80
  11   3  -4   82.39    4.95
 -11   3   4   96.55    5.52
 -11  -3  -4   87.26    5.09
 -11   3   4   86.50    5.05
  11  -3   4   85.81    4.28
  11  -3   4   79.94    4.44
  11   3  -4   86.12    5.97
 -11   3   4   98.62    6.06
 -11  -3  -4   85.67    5.29
 -11  -3   4   90.41    5.42
  11  -3  -4   93.62    5.58
 -11   3  -4   86.33    4.14
  11   3   4   79.81    4.55
 -11  -3   4   87.23    5.74
  11  -3  -4   91.73    4.80
 -11   3  -4   87.82    4.03
 -13   3   4    6.09    1.76
 -13   3   4    4.21    1.42
 -13  -3  -4    6.96    1.82
  13  -3   4    5.33    1.28
  13   3  -4    5.12    1.63
  13   3  -4    5.87    2.14
 -13   3   4    3.54    1.96
 -13  -3  -4    2.45    1.09
  13  -3   4    3.01    1.10
  13   3   4    7.21    2.06
 -13   3  -4    4.12    0.99
  13  -3  -4    4.95    1.45
  13   3   4    3.57    1.29
  13  -3  -4    8.18    1.70
 -13  -3   4    0.77    1.29
 -13  -3   4    2.17    1.49
  13  -3  -4    4.90    1.67
 -15   3   4    0.40    0.77
 -15   3   4    0.42    0.88
  15   3  -4    1.85    1.49
  15  -3   4    0.70    0.95
  15  -3   4    2.15    1.01
 -15  -3  -4    1.68    1.16
 -15   3   4    1.64    1.74
  15   3  -4    2.26    1.26
 -15  -3  -4    2.81    1.28
 -15   3  -4    1.08    0.62
 -15  -3   4    0.47    0.93
  15   3   4    0.57    1.13
 -15   3  -4    0.82    1.53
  15  -3  -4    1.72    1.25
 -15  -3   4    0.67    1.30
  17  -3   4    1.27    0.96
 -17  -3  -4   -0.95    0.90
  17   3  -4    0.84    1.46
  17   3  -4    0.71    1.07
  17  -3   4    0.97    0.91
 -17   3   4    0.94    1.02
 -17  -3   4    0.05    1.34
 -17   3  -4    2.29    2.16
 -17  -3   4    1.51    1.16
  17   3   4    1.86    1.47
  17  -3  -4    2.04    1.19
  19   3  -4    3.69    2.02
  19   3  -4    1.87    1.51
 -19   3   4    1.54    1.07
 -19  -3  -4    2.78    1.46
  19  -3   4    0.95    1.06
  19  -3   4    4.93    1.44
 -19  -3   4    6.45    2.31
 -19   3  -4   -2.00    1.66
  19   3   4    3.02    1.93
  19  -3  -4    6.18    2.10
   0   4   4   21.38    2.78
   0  -4   4   24.82    3.52
   0  -4  -4   20.98    2.64
   0   4  -4   24.62    3.00
   0  -4  -4   26.23    4.16
   0  -4  -4   23.41    3.41
   0  -4   4   18.25    2.52
   0   4   4   22.02    2.59
   0   4  -4   20.11    3.23
   0   4  -4   22.34    2.11
   0  -4   4   25.21    2.88
   0   4   4   24.66    3.50
   0   4  -4   20.01    2.56
   0   4  -4   21.82    2.86
  -2  -4  -4   47.43    3.46
  -2  -4  -4   53.21    3.98
  -2   4   4   56.31    4.12
   2  -4   4   53.33    3.57
  -2  -4  -4   61.72    4.22
   2   4  -4   54.15    3.40
   2   4  -4   51.64    3.58
   2  -4   4   60.81    4.35
   2  -4   4   55.38    3.56
   2   4  -4   61.96    4.67
  -2   4   4   52.46    3.41
   2   4  -4   59.77    5.84
  -2  -4  -4   56.69    4.48
  -2   4   4   50.44    4.21
   2  -4   4   57.93    4.48
  -2   4   4   49.81    3.49
  -2   4  -4   58.18    3.35
  -2   4  -4   53.93    3.43
   2  -4  -4   55.42    3.70
  -2   4  -4   56.23    3.20
  -2   4  -4   56.35    3.81
   2   4   4   60.77    3.86
   2   4   4   54.77    3.69
   2   4   4   56.40    4.46
  -2  -4   4   57.79    3.73
  -2   4  -4   52.08    4.14
  -2  -4   4   54.48    3.63
   2  -4  -4   53.10    4.27
  -2  -4   4   48.79    5.04
  -4  -4  -4   40.65    3.27
  -4   4   4   45.53    2.97
  -4  -4  -4   44.47    4.56
  -4  -4  -4   33.92    4.26
  -4  -4  -4   41.50    3.74
   4   4  -4   53.22    5.56
  -4   4   4   42.99    3.79
   4  -4   4   48.84    3.21
  -4   4   4   47.23    4.56
   4   4  -4   44.19    4.14
   4  -4   4   45.55    4.86
   4  -4   4   41.66    3.01
   4   4  -4   45.74    3.40
  -4  -4  -4   43.09    3.10
  -4   4   4   47.98    4.91
   4  -4  -4   48.32    3.95
  -4  -4   4   45.47    3.23
  -4   4  -4   40.09    2.41
   4  -4  -4   51.56    4.40
  -4  -4   4   42.66    3.20
  -4  -4   4   41.12    4.25
   4   4   4   43.23    4.00
  -4  -4   4   46.58    3.71
   4   4   4   34.28    3.68
   4   4   4   42.22    4.63
  -4   4  -4   45.91    4.20
  -4  -4   4   50.68    5.26
   4  -4  -4   45.56    3.35
  -4   4  -4   44.52    4.58
   6   4  -4    9.27    2.32
  -6  -4  -4   15.72    2.63
   6   4  -4   11.15    2.09
   6  -4   4    9.30    1.69
  -6  -4  -4   11.71    2.60
  -6   4   4    9.74    2.15
   6  -4   4   10.10    2.20
   6   4  -4    9.60    1.96
  -6   4   4    9.96    1.53
  -6   4   4   16.52    2.99
   6   4   4    7.33    2.17
   6   4   4   11.91    2.10
  -6  -4   4    8.83    2.20
  -6   4  -4   12.82    2.40
  -6   4  -4   11.40    1.96
   6   4   4    9.73    1.92
   6  -4  -4    6.80    1.66
  -6  -4   4   10.27    2.32
  -6  -4   4    9.25    1.80
   6  -4  -4   13.29    2.67
  -8  -4  -4    9.16    2.13
   8  -4   4    5.04    1.74
  -8   4   4    9.74    2.30
   8  -4   4    6.89    1.55
   8   4  -4    5.53    1.61
  -8   4   4    9.02    2.07
  -8  -4  -4    9.75    2.41
   8  -4  -4    6.42    1.65
   8   4   4    7.72    1.79
  -8   4  -4    5.87    1.52
  -8   4  -4    7.02    1.82
   8   4   4    5.95    2.02
   8   4   4    8.54    1.96
  -8  -4   4    4.82    1.86
   8  -4  -4    7.90    2.14
  -8  -4   4    1.39    1.30
  10  -4   4    4.09    1.60
  10  -4   4    3.64    1.28
 -10   4   4    3.89    1.61
 -10  -4  -4    7.03    2.15
 -10  -4  -4    9.74    2.28
 -10   4   4    5.31    1.67
  10   4  -4    2.73    1.35
 -10   4  -4    4.55    1.54
 -10  -4   4    4.01    1.76
  10   4   4    3.78    1.46
 -10   4  -4    3.98    1.24
 -10  -4   4    5.65    1.89
  10  -4  -4    7.46    1.77
  10   4   4    5.83    1.80
  10  -4  -4    4.35    1.86
  12  -4   4   43.66    3.66
 -12  -4  -4   40.33    4.60
  12   4  -4   36.34    4.22
 -12   4   4   37.77    4.49
 -12  -4  -4   43.75    5.14
 -12   4   4   36.22    4.13
  12   4   4   37.54    4.50
 -12  -4   4   29.99    4.32
  12  -4  -4   39.51    4.08
  12  -4  -4   37.72    4.79
 -12  -4   4   41.61    4.90
 -12   4  -4   41.67    3.16
  12   4   4   39.08    4.10
 -12   4  -4   35.41    2.80
 -14   4   4   35.96    4.34
 -14  -4  -4   31.56    4.14
 -14   4   4   26.64    3.64
  14   4  -4   31.22    4.26
  14  -4   4   37.26    4.11
 -14  -4  -4   37.30    4.72
  14  -4  -4   32.74    4.50
 -14  -4   4   33.17    4.90
 -14   4  -4   35.13    3.26
  14  -4  -4   35.87    3.98
  14   4   4   36.86    4.70
 -14  -4   4   25.47    4.03
  14   4   4   34.05    3.99
 -16  -4  -4    4.67    1.98
  16  -4   4    4.64    1.81
 -16   4   4    2.40    1.33
 -16   4   4    3.19    1.61
  16   4  -4    3.60    1.52
 -16  -4  -4    3.24    1.69
 -16  -4   4    1.65    1.66
 -16   4  -4    5.14    1.24
 -16  -4   4    3.56    2.00
  16   4   4    5.77    2.18
  16   4   4    3.98    1.71
  16  -4  -4    6.32    2.43
  18   4  -4   -0.20    1.33
 -18  -4  -4   -0.03    1.31
  18  -4   4    0.39    1.13
 -18   4   4    0.80    1.16
 -18  -4   4    1.09    1.44
  18  -4  -4   -1.17    1.16
 -18   4  -4    0.79    2.08
  18   4   4    0.49    1.62
  -1   5   4    1.26    1.22
   1   5  -4    0.84    0.87
   1   5  -4    1.10    1.02
  -1  -5  -4    0.94    1.28
   1   5  -4    0.91    1.12
  -1   5   4    0.70    0.73
  -1  -5  -4    0.16    0.86
   1   5  -4   -0.49    0.73
  -1   5   4    5.86    1.89
   1  -5   4   -0.70    0.85
  -1   5   4   -0.74    0.55
   1  -5   4   -0.38    0.75
   1  -5   4    1.36    1.01
  -1  -5  -4   -0.58    0.87
   1   5   4    0.63    1.06
   1  -5  -4    0.56    0.86
   1   5   4    0.40    1.07
  -1   5  -4   -0.29    0.62
  -1  -5   4   -1.14    0.71
  -1   5  -4    0.31    0.89
  -1  -5   4   -0.13    1.01
  -1   5  -4   -0.40    0.69
  -1   5  -4    0.67    0.98
   1  -5  -4    0.62    1.26
   1   5   4    0.21    0.77
  -1  -5   4    0.94    0.90
  -3  -5  -4    0.25    1.09
  -3  -5  -4    0.85    1.12
  -3   5   4    1.58    1.43
  -3  -5  -4    0.45    0.83
  -3   5   4   -0.02    0.64
   3  -5   4    1.23    0.94
  -3   5   4    1.01    0.88
  -3   5   4    0.56    1.14
   3  -5   4    1.90    1.15
   3   5  -4   -0.21    0.81
   3   5  -4    1.56    1.34
   3  -5  -4    1.13    0.98
  -3  -5   4    0.28    1.10
  -3   5  -4   -0.21    0.89
  -3  -5   4    1.37    0.87
  -3   5  -4   -0.08    0.82
  -3  -5   4    0.89    0.96
   3  -5  -4   -0.90    0.84
   3   5   4    1.35    1.07
  -3   5  -4    0.24    0.67
   3   5   4    0.55    1.20
   3   5   4    0.17    0.81
  -5  -5  -4   59.52    5.63
   5  -5   4   51.49    3.84
   5   5  -4   43.56    4.62
  -5  -5  -4   54.29    3.93
   5  -5   4   51.71    5.78
  -5   5   4   49.17    5.60
  -5   5   4   51.42    3.42
   5  -5   4   54.77    3.86
  -5  -5  -4   54.80    3.92
  -5   5   4   66.64    5.96
  -5  -5  -4   61.42    6.62
   5   5  -4   51.97    4.80
   5   5  -4   64.30    6.68
  -5  -5   4   53.32    4.90
  -5   5  -4   52.18    4.91
  -5  -5   4   58.28    5.83
  -5   5  -4   50.29    5.27
   5   5   4   50.78    4.77
   5   5   4   58.57    4.25
   5  -5  -4   53.86    5.00
  -5  -5   4   54.69    6.14
   7  -5   4    6.61    2.16
  -7   5   4    0.88    1.25
  -7  -5  -4    3.47    1.77
  -7  -5  -4   -0.45    1.08
  -7   5   4    5.06    1.82
   7   5  -4    1.69    1.24
   7  -5   4    2.15    1.15
  -7  -5   4    3.62    1.70
   7   5   4    2.93    1.51
  -7  -5   4    2.58    1.22
  -7   5  -4    3.71    1.53
  -7   5  -4    3.74    1.64
  -7  -5   4    3.53    1.86
   7  -5  -4    2.70    1.38
   7   5   4    4.91    1.75
   9   5  -4   -0.22    0.89
   9  -5   4   -1.06    1.10
  -9   5   4    0.29    1.23
  -9  -5  -4   -0.86    1.01
  -9  -5  -4    0.01    1.22
   9  -5   4   -0.01    0.89
  -9   5   4    0.20    0.95
  -9   5  -4   -0.49    0.75
   9   5   4   -0.70    1.03
  -9   5  -4    0.54    1.17
  -9  -5   4   -1.42    1.02
  -9  -5   4   -0.28    1.08
   9   5   4   -0.44    0.77
   9  -5  -4    1.20    1.60
   9  -5  -4   -0.50    0.90
  11  -5   4   -1.11    0.95
 -11   5   4   -0.60    1.10
  11  -5   4    1.40    1.09
 -11   5   4    0.56    1.08
  11   5  -4    0.92    1.13
 -11  -5  -4   -0.88    1.24
 -11  -5  -4    0.35    1.15
 -11   5  -4   -0.07    0.86
 -11  -5   4    0.26    1.33
  11   5   4    0.42    0.97
  11  -5  -4   -0.15    0.91
  11  -5  -4    2.15    1.72
 -11  -5   4    0.21    1.32
 -11   5  -4   -0.69    1.05
 -13   5   4    2.30    1.34
 -13  -5  -4    0.75    1.62
  13  -5   4   -1.24    1.07
 -13   5   4    1.09    1.34
  13   5  -4    1.81    1.19
 -13  -5  -4    0.53    1.28
 -13  -5   4    0.82    1.44
  13  -5  -4    0.11    1.43
 -13  -5   4    0.51    1.34
 -13   5  -4    0.11    1.00
  13   5   4   -0.95    0.92
  13  -5  -4    0.67    1.24
 -13   5  -4   -0.42    0.94
 -15  -5  -4    3.96    2.04
  15  -5   4    0.65    1.50
 -15   5   4    1.68    1.70
 -15   5   4    1.79    1.34
 -15  -5  -4    1.57    1.81
  15   5  -4   -0.24    1.22
  15   5   4   -0.76    1.06
 -15  -5   4    2.44    1.86
  15   5   4   -0.10    1.67
  15  -5  -4    0.89    1.23
  15  -5  -4    1.98    2.06
 -15   5  -4    0.95    1.08
  17   5  -4    6.57    2.26
 -17   5   4    6.00    1.90
  17  -5   4    7.31    2.47
 -17  -5  -4    7.29    2.26
  17   5   4    7.28    2.85
 -17   5  -4    7.17    1.75
  17  -5  -4    6.51    2.67
  17   5   4    8.07    2.40
 -17  -5   4    5.11    2.42
   0   6   4   69.44    4.92
   0   6   4   78.55    6.33
   0  -6   4   63.03    4.62
   0  -6  -4   47.91    5.01
   0   6  -4   69.15    6.52
   0   6  -4   53.97    4.08
   0   6  -4   66.03    4.51
   0  -6  -4   67.22    7.08
   0  -6   4   54.58    5.37
   0   6   4   63.52    4.62
   0   6  -4   63.47    6.95
  -2   6   4   45.32    5.79
   2   6  -4   56.76    4.12
  -2  -6  -4   31.57    3.99
  -2  -6  -4   38.24    5.38
   2   6  -4   42.69    4.54
   2  -6   4   49.98    5.06
   2   6  -4   49.72    6.29
  -2   6   4   44.63    4.51
  -2   6   4   65.13    6.45
  -2   6   4   42.85    4.75
   2  -6   4   41.68    4.43
   2   6   4   51.21    4.99
  -2  -6   4   63.16    6.95
   2   6   4   39.40    5.30
   2  -6  -4   42.03    4.76
   2   6   4   41.72    4.65
  -2   6  -4   49.41    3.51
  -2   6  -4   47.55    5.16
  -2   6  -4   49.08    5.88
  -2  -6   4   38.00    4.46
   4  -6   4   -0.29    1.13
  -4  -6  -4   -0.26    0.93
  -4   6   4    0.07    1.32
  -4   6   4   -0.52    1.18
   4   6  -4   -0.37    1.23
  -4   6   4    0.72    0.90
  -4  -6  -4    0.26    1.38
   4  -6   4   -0.07    0.95
   4   6  -4    1.55    1.12
  -4  -6  -4   -0.31    1.13
   4   6  -4    1.97    1.25
   4   6   4    0.29    1.04
  -4  -6   4    0.51    1.03
  -4   6  -4    0.62    1.25
  -4  -6   4   -0.18    1.29
   4  -6  -4   -0.06    0.90
  -4   6  -4   -0.26    0.76
  -4   6  -4   -0.13    0.91
   4   6   4   -0.18    0.87
   6  -6   4    0.60    1.04
   6   6  -4    0.28    1.20
  -6  -6  -4    1.70    1.69
  -6  -6  -4    1.10    1.47
  -6   6   4   -0.62    1.05
  -6   6   4    0.03    0.75
  -6   6   4    1.18    1.31
  -6  -6   4    0.09    1.00
  -6   6  -4    1.04    1.42
  -6  -6   4   -0.11    1.37
  -6   6  -4    0.48    0.97
   6  -6  -4    0.56    1.02
   6   6   4   -0.88    0.82
   6   6   4    0.08    1.12
   8   6  -4    8.61    2.47
  -8   6   4    5.31    2.14
   8  -6   4    9.65    2.26
   8  -6   4    5.72    2.33
  -8   6   4   10.03    2.73
  -8  -6  -4    4.60    2.32
  -8  -6  -4   11.88    3.10
  -8   6  -4   11.55    2.65
   8   6   4    7.23    2.29
   8   6   4    7.21    2.14
   8  -6  -4    9.26    2.45
  -8  -6   4   11.99    3.37
  -8   6  -4    8.67    2.66
  -8  -6   4    4.17    2.22
  10  -6   4   25.87    3.54
  10   6  -4   18.87    3.51
 -10  -6  -4   21.05    4.29
 -10  -6  -4   28.77    4.41
  10  -6   4   12.60    3.18
 -10   6   4   23.42    3.83
 -10   6   4   19.89    3.92
  10   6   4   26.53    3.95
  10  -6  -4   24.07    3.71
 -10   6  -4   24.17    3.68
  10   6   4   20.84    3.54
 -10  -6   4   19.08    4.03
 -10  -6   4   17.47    3.66
 -10   6  -4   26.84    4.16
 -12   6   4   20.28    3.75
  12  -6   4   27.89    3.74
  12   6  -4   17.86    3.63
 -12  -6  -4   17.06    3.69
 -12  -6  -4   26.09    4.75
  12  -6   4   16.33    3.77
 -12   6   4   21.91    4.12
  12   6   4   22.30    3.67
 -12  -6   4   28.65    4.92
 -12   6  -4   22.74    3.64
 -12  -6   4   18.69    4.13
 -12   6  -4   24.94    3.78
  12  -6  -4   26.33    3.92
  14   6  -4    1.52    1.60
 -14   6   4    3.35    1.97
 -14  -6  -4    2.27    1.85
  14  -6   4   -1.05    1.36
  14  -6  -4    0.57    1.34
  14   6   4    1.31    1.39
 -14  -6   4    2.74    1.91
 -14   6  -4    2.19    1.86
 -14   6  -4    1.00    1.34
  -1   7   4   -0.23    0.95
   1  -7   4    0.07    1.25
   1   7  -4   -1.46    0.98
  -1   7   4   -0.57    1.00
  -1   7   4   -0.07    1.51
   1   7  -4   -0.28    1.10
  -1  -7  -4    1.58    1.77
   1   7  -4    0.34    1.20
  -1  -7  -4   -0.81    1.06
   1   7   4    0.06    1.10
  -1   7  -4   -0.51    1.28
   1   7   4    0.97    1.57
  -1  -7   4   -0.05    1.25
   1   7   4    1.90    1.41
  -1   7  -4   -0.20    0.99
  -1   7  -4    0.41    1.42
   1  -7  -4   -0.67    1.04
  -3  -7  -4   -0.52    1.32
   3   7  -4    0.04    1.11
   3   7  -4    1.15    1.85
  -3  -7  -4    0.94    1.25
   3  -7   4   -1.21    1.06
  -3   7   4   -1.15    1.43
  -3   7   4    0.12    1.08
  -3   7   4    1.39    1.73
   3   7  -4    1.41    1.53
   3   7   4    0.14    1.26
  -3   7  -4   -0.67    0.85
  -3  -7   4    0.88    1.44
  -3   7  -4    1.31    1.64
  -3   7  -4    0.17    1.42
   3  -7  -4   -0.38    1.12
   3   7   4   -0.80    1.00
   5   7  -4   11.16    2.87
  -5   7   4    6.94    2.51
  -5   7   4    9.36    3.06
  -5   7   4   15.45    2.55
   5  -7   4    7.35    2.27
   5  -7   4   10.76    2.63
  -5  -7  -4   14.86    3.93
   5   7  -4    8.86    2.38
   5   7   4    9.23    2.55
  -5  -7   4   11.17    2.72
  -5  -7   4    9.27    3.11
  -5   7  -4   11.00    3.09
   5  -7  -4    9.14    2.62
   5   7   4   13.20    2.99
  -5   7  -4   12.94    3.15
  -7   7   4    0.60    1.48
  -7  -7  -4    4.16    2.28
   7   7  -4    1.18    1.50
   7  -7   4    4.37    1.88
  -7  -7  -4   -1.36    1.61
   7   7  -4   -0.02    1.30
  -7   7   4    0.35    1.44
  -7   7  -4    5.26    2.08
   7  -7  -4    4.31    1.89
   7   7   4    3.55    2.03
  -7  -7   4    4.64    2.36
   7   7   4    2.02    1.67
  -7   7  -4    4.26    2.23
   9  -7   4   -1.00    1.08
   9   7  -4    1.05    1.69
  -9  -7  -4    0.51    1.72
  -9   7   4    1.50    1.39
   9  -7  -4   -0.96    1.05
   9   7   4    1.86    1.74
   9   7   4    1.22    1.60
  -9  -7   4   -0.41    1.59
  -9   7  -4    0.46    1.30
  -9  -7   4   -0.21    1.67
 -11  -7  -4    2.87    2.44
  11  -7   4    2.52    1.64
 -11   7   4    2.31    1.81
  11   7  -4    2.07    1.79
 -11  -7   4    0.33    1.68
  11  -7  -4    1.50    1.46
  11   7   4    1.44    1.80
  11   7   4    2.33    1.73
 -11   7  -4    2.29    1.72
   0  -8  -4   -0.85    1.24
   0   8  -4    2.46    2.04
   0  -8   4    1.00    1.69
   0   8   4    1.24    2.29
   0   8  -4    3.21    1.85
   0   8   4    2.21    1.65
  -2   8   4   10.54    3.71
   2   8  -4   13.48    3.92
  -2  -8  -4   19.35    3.75
   2  -8   4   12.29    3.00
  -2   8   4   14.79    3.02
   2   8  -4   13.25    2.95
  -2  -8   4   20.56    3.84
  -2   8  -4   12.99    3.66
   2   8   4   11.17    3.07
   2  -8  -4   11.52    2.83
  -2   8  -4   10.52    2.31
   2   8   4   14.29    3.18
   4   8  -4    1.81    1.79
   4   8  -4    3.84    2.00
  -4   8   4    3.63    2.39
   4  -8   4   10.85    3.01
  -4   8   4    6.10    1.91
  -4  -8  -4    1.01    2.25
   4   8   4    5.91    2.46
  -4  -8   4    6.57    2.41
  -4   8  -4    6.46    2.71
   4   8   4    2.53    1.86
   4  -8  -4    4.99    2.13
   6   8  -4    6.68    2.76
   6  -8   4    2.19    1.84
  -6   8   4    4.93    2.51
   6   8  -4    4.47    2.24
   6   8   4    3.91    2.12
   6   8   4    2.55    1.99
  -6  -8   4    2.38    3.10
   6  -8  -4    6.11    2.41
  -6   8  -4    8.17    2.86
  -8   8   4    4.70    2.48
   8  -8   4    0.65    1.73
   8   8  -4    2.96    2.07
   8   8  -4    2.21    1.86
   8   8   4    2.31    2.00
  -8   8  -4    3.58    2.08
   8  -8  -4    1.65    1.66
   8   8   4    3.09    1.82
   1   0  -5  157.30    6.56
   1   0  -5  156.61    5.89
   1   0   5  154.40    6.39
   1   0   5  163.85    5.83
  -1   0   5  159.88    5.88
  -1   0   5  166.13    6.63
  -1   0  -5  164.52    6.49
  -1   0  -5  158.83    5.99
   3   0   5    0.63    0.48
   3   0   5   -0.06    0.33
  -3   0   5   -0.28    0.39
  -3   0  -5    0.22    0.22
  -3   0   5    0.58    0.70
  -3   0  -5   -0.47    0.23
  -3   0   5    0.30    0.41
   3   0  -5    0.12    0.40
   3   0  -5    0.48    0.57
   3   0   5    0.80    0.60
  -3   0   5   -0.89    0.35
  -3   0  -5   -0.03    0.41
   5   0   5  526.34   16.15
  -5   0   5  549.58   17.71
   5   0  -5  538.99   17.67
  -5   0   5  554.93   16.56
   5   0  -5  543.29   16.87
  -5   0   5  527.90   17.77
   5   0  -5  545.65   17.77
  -5   0   5  555.04   17.19
  -5   0  -5  546.09   16.90
   5   0   5  567.59   16.95
   5   0   5  547.58   16.24
   5   0   5  570.20   16.22
   5   0   5  560.33   16.85
  -7   0   5   74.82    3.18
   7   0  -5   71.65    4.36
  -7   0   5   71.40    4.37
   7   0   5   78.76    3.04
   7   0  -5   73.21    3.73
  -7   0  -5   77.78    3.36
  -7   0  -5   74.24    3.50
  -7   0  -5   75.20    3.50
   7   0   5   71.86    3.32
   7   0  -5   74.99    4.30
   7   0   5   74.79    2.58
   7   0   5   78.51    3.39
   7   0  -5   74.69    4.27
  -7   0   5   72.80    4.31
   7   0   5   72.80    2.53
   7   0  -5   73.48    4.24
  -7   0   5   80.58    4.19
  -9   0  -5    0.29    0.95
  -9   0   5    0.76    0.86
  -9   0  -5    0.95    0.52
   9   0   5    0.96    0.51
   9   0  -5    0.76    0.77
   9   0  -5    1.92    1.01
   9   0  -5    1.19    0.76
   9   0   5    0.77    0.49
  -9   0  -5    0.90    0.52
  -9   0   5    1.09    0.69
 -11   0   5    2.92    1.19
 -11   0  -5    4.96    0.86
 -11   0  -5    4.94    0.63
  11   0  -5    3.18    1.35
 -11   0  -5    6.00    2.12
 -11   0   5    2.60    1.04
  11   0   5    5.45    0.83
  11   0   5    1.78    0.53
  11   0  -5    4.23    1.18
  13   0   5    1.63    0.49
  13   0  -5    1.52    0.99
 -13   0  -5    1.74    0.56
 -13   0   5    1.77    0.99
 -13   0  -5    0.23    1.12
 -13   0   5    0.54    0.83
  13   0   5    0.83    0.39
  13   0  -5    2.30    1.25
 -15   0   5   15.75    2.58
  15   0  -5   12.88    2.68
 -15   0  -5   14.75    0.82
  15   0  -5   23.18    2.77
 -15   0   5   12.91    2.36
  15   0   5    9.82    1.04
 -15   0  -5   21.89    4.76
  15   0   5   14.17    1.12
  17   0  -5   29.26    4.02
 -17   0   5   29.23    3.38
 -17   0   5   29.10    3.48
  17   0   5   28.54    1.87
 -17   0  -5   22.92    4.74
 -17   0   5   30.59    3.59
  17   0   5   26.46    1.76
 -19   0   5    7.78    1.84
 -19   0   5   11.00    2.48
  19   0  -5   14.67    3.20
 -19   0  -5   14.23    4.39
  19   0  -5    8.85    2.38
 -21   0  -5    3.28    2.78
  21   0  -5    5.23    2.05
 -21   0   5   10.92    2.41
  21   0  -5    9.71    2.74
   0  -1   5   81.26    3.60
   0  -1   5   86.54    4.40
   0   1  -5   90.42    4.42
   0  -1  -5   88.55    4.50
   0   1  -5   84.24    4.09
   0  -1  -5   85.26    4.20
   0   1   5   84.76    3.86
   0  -1  -5   80.21    3.74
   0   1   5   88.72    4.44
   0   1   5   87.30    4.21
   0  -1   5   87.14    3.84
   0   1  -5   84.66    3.71
  -2   1   5   14.18    1.64
   2  -1   5   18.52    2.17
  -2   1   5   17.85    2.33
   2  -1   5   11.61    1.45
   2   1  -5   13.33    1.62
  -2  -1  -5   15.74    2.16
  -2  -1  -5   18.74    1.98
  -2   1   5   22.55    2.21
   2   1  -5   15.08    1.74
   2   1  -5   16.58    2.22
   2  -1   5   13.55    1.87
   2   1  -5   14.88    1.96
   2  -1  -5   13.48    1.81
   2  -1  -5   15.16    1.75
  -2  -1   5   12.81    1.59
  -2   1  -5   14.50    1.48
  -2   1  -5   17.20    2.15
  -2  -1   5   12.19    1.58
   2   1   5   13.31    1.95
  -2  -1   5   15.66    2.28
   2   1   5   16.30    1.77
  -2  -1   5   14.27    1.68
  -2   1  -5   13.09    1.42
   2   1   5   12.51    1.71
   2  -1  -5   16.22    2.29
  -4  -1  -5   27.13    1.35
  -4  -1  -5   27.94    2.29
  -4   1   5   29.79    2.02
   4  -1   5   27.74    2.20
   4  -1   5   29.79    1.96
  -4   1   5   34.08    3.22
  -4  -1  -5   29.09    2.19
   4  -1   5   29.49    1.81
   4   1  -5   32.64    3.39
  -4   1   5   32.06    2.00
   4   1  -5   28.96    2.14
  -4  -1  -5   29.95    1.38
  -4   1   5   25.06    2.87
   4  -1   5   29.84    2.20
   4   1  -5   23.99    2.49
   4   1   5   27.34    2.21
  -4  -1   5   26.15    1.96
   4  -1  -5   30.12    2.15
   4   1   5   33.49    2.42
   4  -1  -5   30.19    3.15
  -4   1  -5   26.92    2.11
  -4  -1   5   30.13    2.79
  -4  -1   5   30.43    2.60
   4   1   5   31.78    2.18
  -4  -1   5   31.79    3.36
   4   1   5   30.70    1.99
  -6   1   5    9.59    1.29
  -6  -1  -5   12.71    1.84
   6   1  -5    9.92    1.55
   6  -1   5   11.83    1.23
  -6  -1  -5   11.88    1.63
   6   1  -5   11.59    1.83
  -6  -1  -5   10.47    1.91
  -6   1   5    9.86    1.81
  -6   1   5    5.50    1.30
   6  -1   5   10.87    1.10
   6  -1   5    9.90    1.35
   6  -1   5    7.83    0.92
   6   1  -5    9.29    1.78
  -6   1   5   11.84    1.96
  -6   1  -5    8.42    1.38
   6   1   5   10.93    1.34
  -6   1  -5    9.66    1.41
  -6  -1   5    8.19    1.56
  -6  -1   5   14.19    1.69
   6  -1  -5   11.65    1.64
  -6  -1   5    7.17    1.63
   6  -1  -5   10.22    1.88
   6   1   5    9.82    1.56
  -6  -1   5   13.36    1.64
   6   1   5   10.35    1.65
  -6   1  -5   11.19    1.39
  -6  -1   5    8.40    1.73
   6   1   5    9.68    1.34
   6  -1  -5    5.90    1.48
   8  -1   5   35.96    2.01
  -8  -1  -5   32.75    2.37
   8   1  -5   38.31    3.95
   8  -1   5   40.19    1.89
  -8  -1  -5   41.76    4.36
   8   1  -5   38.93    3.18
   8   1  -5   35.71    3.71
   8   1  -5   31.27    2.91
  -8   1   5   37.75    3.04
  -8  -1  -5   34.54    2.37
  -8   1   5   37.41    3.49
   8  -1   5   35.41    1.93
  -8   1   5   35.94    2.97
   8  -1  -5   34.62    2.49
  -8   1  -5   33.83    2.06
   8  -1  -5   37.64    3.01
  -8   1  -5   37.57    2.12
   8   1   5   37.29    2.52
   8  -1  -5   48.53    5.38
  -8   1  -5   31.70    1.99
  -8  -1   5   33.41    3.58
  -8  -1   5   34.51    2.04
   8   1   5   37.40    2.11
  -8  -1   5   39.78    3.72
   8   1   5   37.83    2.13
   8   1   5   40.49    2.51
  10   1  -5    0.16    0.72
  10  -1   5    0.62    0.33
 -10   1   5    1.70    1.12
  10   1  -5    0.47    0.64
 -10  -1  -5    1.18    0.69
 -10  -1  -5    2.20    1.31
 -10  -1  -5    0.47    0.61
 -10   1   5    0.04    0.62
 -10   1   5    0.00    0.70
  10  -1   5    0.27    0.30
  10   1   5    1.45    0.81
 -10  -1   5    0.76    0.76
 -10  -1   5    0.75    0.87
  10  -1  -5    0.15    0.64
 -10   1  -5    0.76    0.39
  10  -1  -5    1.15    0.98
  10   1   5    1.23    0.57
  10   1   5    2.17    0.85
 -10   1  -5    1.24    0.52
  10  -1  -5    1.98    0.83
 -12  -1  -5    2.63    0.81
 -12   1   5    1.70    0.90
 -12   1   5    0.90    0.86
 -12   1   5    2.20    1.54
 -12  -1  -5    2.10    1.50
  12   1  -5    2.30    1.04
  12   1  -5    2.73    1.18
 -12  -1  -5    2.17    0.83
  12  -1  -5    1.47    1.06
  12  -1  -5    3.02    1.16
 -12   1  -5    2.61    0.57
 -12  -1   5    1.25    1.02
  12   1   5    2.54    0.93
  12   1   5    2.94    1.01
 -12  -1   5    1.32    1.08
 -12   1  -5    1.90    1.39
 -14   1   5   -0.29    0.53
  14   1  -5    0.22    1.04
 -14  -1  -5    0.12    0.55
 -14   1   5   -0.31    1.02
  14   1  -5    0.09    0.78
 -14   1   5    1.04    0.90
 -14  -1  -5    1.29    1.72
  14  -1  -5    1.40    0.95
  14   1   5    0.01    0.76
 -14  -1   5    0.33    0.80
 -14   1  -5    0.99    1.31
 -14  -1   5   -0.07    0.70
  14  -1  -5   -0.23    0.77
  14   1   5    0.05    0.65
  16   1  -5    9.00    2.01
 -16   1   5    8.15    1.89
  16   1  -5    4.81    1.92
 -16   1   5    6.31    2.44
 -16   1   5    4.87    1.45
 -16  -1  -5    8.04    1.30
 -16  -1  -5    3.14    2.08
 -16   1  -5    3.80    2.26
  16  -1  -5    5.37    1.79
 -16  -1   5    3.84    1.30
 -16  -1   5    7.53    2.04
  16   1   5    7.03    1.56
  16   1   5    5.20    1.32
 -16  -1   5    4.87    1.73
  18   1  -5    3.72    1.80
 -18   1   5    0.03    0.81
 -18  -1  -5    0.64    1.73
  18   1   5    4.21    1.27
 -18   1  -5   -0.50    1.53
  18  -1  -5    1.56    1.18
 -18  -1   5    1.34    1.42
 -18  -1   5    2.94    1.63
  20   1  -5    0.90    1.64
 -20  -1  -5    0.52    1.86
 -20   1   5    1.40    0.97
  20   1   5    1.15    1.22
 -20   1  -5    0.31    1.83
  20  -1  -5    0.45    1.37
 -20  -1   5    1.15    1.34
   1  -2   5   22.00    2.25
  -1  -2  -5   16.45    1.95
   1  -2   5   21.29    2.59
  -1   2   5   18.44    2.28
   1   2  -5   14.23    2.24
  -1  -2  -5   15.45    2.35
  -1   2   5   17.49    1.99
  -1   2   5   14.98    2.40
   1  -2   5   20.24    2.09
   1  -2   5   21.90    2.70
   1   2  -5   16.27    1.70
   1   2  -5   13.19    2.01
  -1  -2  -5   15.48    1.99
   1  -2   5   19.01    1.26
  -1   2   5   15.41    1.95
   1   2  -5   21.88    2.19
  -1  -2   5   14.18    2.32
   1   2   5   18.89    2.14
  -1   2  -5   14.51    1.82
   1   2   5   13.32    2.08
  -1  -2   5   18.27    2.39
   1  -2  -5   16.04    1.96
  -1  -2   5   18.24    2.10
  -1  -2   5   17.68    2.02
   1  -2  -5   21.17    2.79
  -1   2  -5   18.07    1.85
  -1  -2   5   17.37    1.74
   1   2   5   21.10    2.34
  -1   2  -5   21.68    2.71
   1   2   5   14.59    1.92
   1  -2  -5   15.15    2.07
   3  -2   5   91.17    3.02
   3  -2   5   95.02    4.60
   3   2  -5  103.72    5.35
  -3   2   5   89.02    5.06
  -3   2   5   91.78    4.24
  -3   2   5   92.41    4.30
   3   2  -5   90.46    4.40
  -3  -2  -5   94.64    4.38
   3  -2   5   93.67    4.13
  -3  -2  -5   92.67    4.96
   3   2  -5   98.55    4.47
   3  -2   5   87.37    4.61
  -3  -2  -5   93.46    4.10
   3  -2   5   99.90    5.00
  -3   2  -5   90.10    5.03
   3   2   5  105.81    4.44
  -3  -2   5   97.83    5.24
   3  -2  -5  101.24    4.54
  -3  -2   5   92.72    4.37
  -3  -2   5   87.97    4.37
  -3   2  -5   96.27    4.81
   3  -2  -5   82.18    4.86
  -3   2  -5   96.09    3.61
   3   2   5   94.50    4.78
  -3   2  -5   92.65    3.56
  -3  -2   5   91.43    4.44
   3   2   5   96.22    5.03
   3   2   5   97.03    4.45
  -5  -2  -5   76.41    3.08
   5   2  -5   73.32    4.25
   5  -2   5   77.69    4.02
  -5   2   5   80.11    4.66
  -5   2   5   75.49    3.63
   5  -2   5   82.56    4.11
   5  -2   5   81.82    3.56
   5  -2   5   75.57    3.72
  -5  -2  -5   74.56    4.38
  -5  -2  -5   72.93    4.16
  -5   2   5   83.34    4.64
  -5   2   5   79.61    3.83
   5   2  -5   80.11    4.11
  -5   2   5   73.48    4.23
  -5  -2  -5   73.39    4.03
   5  -2   5   80.72    4.21
   5   2  -5   76.46    4.67
  -5   2  -5   72.87    3.98
  -5   2  -5   78.43    3.89
   5  -2  -5   77.28    3.98
   5  -2  -5   81.57    4.41
   5   2   5   75.96    4.12
  -5  -2   5   74.88    3.84
  -5  -2   5   82.52    4.88
   5  -2  -5   82.64    4.69
   5   2   5   68.51    4.25
   5  -2  -5   76.95    4.59
   5   2   5   75.97    4.33
  -5  -2   5   82.02    4.00
   5   2   5   77.64    3.82
   7   2  -5   77.90    4.15
  -7  -2  -5   70.33    3.97
   7   2  -5   69.71    4.65
   7   2  -5   76.35    4.64
   7  -2   5   71.02    3.29
  -7  -2  -5   66.83    4.46
  -7   2   5   83.76    4.21
   7  -2   5   80.41    3.33
  -7   2   5   72.05    4.58
   7   2  -5   72.75    4.43
  -7  -2  -5   71.50    4.26
   7  -2   5   70.72    2.75
  -7   2   5   68.84    4.22
  -7   2   5   71.60    3.20
   7  -2   5   75.89    3.71
   7   2  -5   81.18    4.87
   7  -2   5   76.16    3.88
   7  -2  -5   70.40    4.41
   7   2   5   76.61    4.04
  -7  -2   5   69.22    3.68
   7  -2  -5   66.18    4.33
  -7  -2   5   64.59    4.29
  -7   2  -5   73.59    3.76
  -7  -2   5   74.36    4.75
  -7  -2   5   68.04    3.58
  -7   2  -5   73.76    3.67
   7   2   5   83.84    4.46
   7   2   5   72.68    3.70
   7  -2  -5   74.64    3.95
  -7  -2   5   76.73    4.50
  -9   2   5  117.29    6.16
   9  -2   5  119.22    4.95
   9   2  -5  119.12    6.58
  -9  -2  -5  125.19    6.93
  -9  -2  -5  123.03    5.61
   9  -2   5  120.60    3.97
  -9  -2  -5  124.12    5.85
   9   2  -5  114.73    5.59
   9  -2   5  122.99    4.88
  -9   2   5  118.81    6.20
  -9   2   5  130.67    6.03
   9  -2   5  120.20    5.65
   9   2   5  119.61    5.45
   9  -2  -5  115.65    5.42
  -9  -2   5  115.58    6.08
   9   2   5  119.51    5.13
   9   2   5  112.65    5.74
  -9   2  -5  124.85    5.00
  -9  -2   5  116.10    6.19
   9  -2  -5  124.33    6.26
  -9  -2   5  123.16    6.58
  -9   2  -5  120.91    4.94
 -11   2   5   -0.18    0.65
 -11  -2  -5    1.13    1.24
  11   2  -5    1.97    0.99
  11  -2   5   -0.01    0.42
  11   2  -5    1.00    1.04
 -11   2   5    0.68    0.76
 -11   2   5    1.50    1.13
 -11  -2  -5   -0.07    0.64
  11  -2   5    0.16    0.43
 -11  -2  -5    0.23    0.62
 -11   2  -5   -0.17    0.36
 -11  -2   5   -0.53    0.75
 -11  -2   5    0.90    0.87
  11   2   5    1.23    0.92
  11  -2  -5    0.87    0.79
 -11   2  -5    0.05    0.49
 -11  -2   5    0.33    0.74
  11   2   5    0.50    0.60
  11  -2  -5    1.55    1.01
 -11  -2   5    0.52    0.81
 -13   2   5    7.22    2.34
 -13  -2  -5    3.66    1.15
  13  -2   5    4.60    0.88
 -13   2   5    2.32    1.18
 -13   2   5    4.55    1.54
 -13  -2  -5    7.47    2.65
  13  -2   5    3.91    0.94
  13   2  -5    6.75    1.75
  13   2  -5    4.31    1.75
 -13  -2  -5    5.20    1.37
  13  -2  -5    3.55    1.46
  13  -2  -5    5.35    1.41
  13   2   5    6.02    1.73
 -13  -2   5    3.06    1.56
 -13  -2   5    3.68    1.49
 -13   2  -5    4.67    0.88
  15   2  -5    7.61    2.42
  15  -2   5    6.40    1.02
  15   2  -5    9.33    2.08
 -15  -2  -5   11.97    2.11
 -15   2   5   10.17    2.18
 -15  -2  -5    9.65    1.79
 -15   2   5    9.49    2.90
 -15  -2  -5   12.66    3.34
  15  -2   5    8.94    1.09
 -15   2   5    6.95    1.89
  15  -2  -5   10.67    2.09
  15  -2  -5    7.40    2.13
  15   2   5   11.77    2.19
 -15  -2   5    7.47    1.99
 -15   2  -5    4.78    2.34
 -15  -2   5   10.79    2.52
 -17   2   5   15.71    2.57
  17  -2   5   25.09    1.48
 -17   2   5   17.74    4.07
  17  -2   5   21.74    1.47
  17   2  -5   24.26    4.17
 -17  -2  -5   22.66    4.99
  17   2  -5   17.54    2.85
 -17  -2  -5   17.32    2.37
 -17   2   5   24.69    3.12
  17   2   5   24.06    3.31
 -17   2  -5   27.20    5.62
  17  -2  -5   28.30    4.07
 -17  -2   5   26.02    3.75
 -17  -2   5   26.83    3.87
  19   2  -5   33.64    4.97
  19  -2   5   29.11    1.72
 -19  -2  -5   35.72    2.70
 -19  -2  -5   22.63    5.20
  19  -2   5   26.82    1.69
 -19   2   5   31.08    3.68
 -19  -2   5   30.54    4.17
  19  -2  -5   31.58    4.45
  19   2   5   29.49    3.63
 -19   2  -5   28.28    5.96
 -19  -2   5   37.45    4.46
   0  -3  -5  171.33    7.37
   0   3   5  156.80    7.20
   0   3  -5  162.53    6.53
   0  -3   5  175.50    6.82
   0   3  -5  156.33    7.52
   0  -3   5  154.78    7.44
   0  -3   5  163.10    7.63
   0   3  -5  158.71    5.77
   0  -3   5  156.66    6.67
   0  -3  -5  155.32    7.55
   0   3   5  171.55    6.94
   0   3  -5  144.42    8.66
   0  -3  -5  149.84    6.57
   0   3   5  160.90    6.64
   0  -3  -5  156.18    6.64
   0   3   5  167.51    7.82
   0   3  -5  158.77    6.89
  -2   3   5    3.45    1.38
   2   3  -5    6.45    1.73
  -2  -3  -5    6.28    1.93
  -2  -3  -5    3.64    1.06
   2  -3   5    2.02    1.08
   2  -3   5    5.15    1.26
  -2   3   5    3.33    1.01
  -2   3   5    5.21    1.35
  -2  -3  -5    5.35    1.34
   2   3  -5    6.29    1.23
  -2   3   5    3.65    1.06
   2   3  -5    4.35    1.16
   2  -3   5    3.65    1.54
   2  -3   5    4.03    1.30
  -2  -3  -5    5.99    1.67
   2  -3   5    7.73    1.50
   2   3  -5    2.93    1.07
  -2  -3   5    4.02    1.59
  -2   3  -5    6.28    1.68
   2  -3  -5    7.19    1.52
   2  -3  -5    4.77    1.30
   2   3   5    6.15    1.39
   2   3   5    3.79    1.20
  -2  -3   5    5.57    1.71
  -2   3  -5    5.96    1.22
  -2  -3   5    3.33    1.09
   2  -3  -5    4.59    1.34
   2  -3  -5    5.89    1.71
   2   3   5    6.94    1.74
   2   3   5    3.83    1.13
  -2  -3   5    5.05    1.36
  -2  -3   5    6.35    1.44
  -2   3  -5    5.31    1.18
  -2   3  -5    3.99    1.25
  -4  -3  -5   -0.25    0.43
  -4  -3  -5    1.42    0.88
  -4   3   5    0.97    0.99
  -4  -3  -5    0.98    0.91
   4  -3   5    0.15    0.58
   4   3  -5    0.19    0.62
   4   3  -5    0.09    0.72
   4  -3   5   -0.20    0.53
  -4   3   5    0.01    0.45
   4  -3   5    0.94    0.72
   4   3  -5   -0.06    0.60
   4  -3   5   -0.27    0.76
   4   3  -5    0.29    0.56
  -4   3   5    0.20    0.52
   4  -3   5   -0.20    0.69
  -4   3   5   -0.06    0.66
  -4  -3  -5    0.30    0.58
  -4  -3   5   -0.43    0.66
   4   3   5    0.15    0.66
  -4  -3   5    0.12    0.71
  -4  -3   5    0.29    0.60
   4  -3  -5   -0.13    0.70
  -4   3  -5   -0.66    0.55
   4   3   5   -0.28    0.75
   4   3   5   -0.11    0.52
  -4   3  -5    0.46    0.41
   4   3   5   -0.84    0.69
   4   3   5   -0.19    0.62
  -4   3  -5    0.24    0.76
   4  -3  -5    0.13    0.65
   4  -3  -5   -0.39    0.48
   4  -3  -5    0.10    0.64
  -4  -3   5    0.20    0.60
  -6  -3  -5    0.40    0.77
   6  -3   5    0.17    0.53
  -6   3   5    0.05    0.53
   6  -3   5    0.17    0.62
   6   3  -5    1.33    1.15
  -6   3   5    0.38    0.86
   6   3  -5   -0.01    0.63
   6  -3   5    0.78    0.85
  -6   3   5    0.37    0.73
  -6   3   5    0.40    0.57
  -6  -3  -5    0.66    1.03
   6   3  -5    0.26    0.56
  -6  -3   5    0.20    0.92
  -6  -3   5   -0.04    0.93
  -6   3  -5   -0.45    0.48
   6  -3  -5   -0.21    0.76
   6   3   5    0.35    0.63
   6  -3  -5    1.16    1.08
   6  -3  -5    0.36    0.74
  -6  -3   5    0.27    0.64
   6  -3  -5    0.54    0.75
  -6  -3   5    0.11    0.53
   6   3   5    0.25    0.64
  -6   3  -5    0.25    0.67
   6   3   5    2.39    1.10
  -6  -3   5    0.12    0.76
   6   3   5    0.08    0.70
  -8   3   5   -0.51    0.69
   8  -3   5    0.36    0.75
  -8  -3  -5    1.13    0.86
   8   3  -5    0.40    1.13
  -8  -3  -5    0.07    0.92
  -8   3   5    0.19    0.76
   8  -3   5   -0.56    0.56
   8  -3   5    0.09    0.66
   8   3  -5    0.06    0.60
  -8  -3   5    0.08    0.85
   8  -3  -5    0.00    0.62
  -8  -3   5    1.23    1.03
   8   3   5    0.36    0.70
  -8  -3   5    0.24    0.55
  -8  -3   5    0.47    0.70
   8   3   5    0.05    0.85
   8   3   5    0.90    0.72
   8  -3  -5    0.40    0.86
   8  -3  -5    0.00    0.69
  -8   3  -5    0.76    0.64
  -8   3  -5    0.30    0.68
  10   3  -5   39.95    4.06
 -10  -3  -5   40.33    4.25
  10   3  -5   51.83    5.57
 -10  -3  -5   49.40    4.63
  10  -3   5   40.13    2.97
 -10   3   5   43.38    4.32
 -10   3   5   40.65    4.62
  10  -3   5   35.67    2.94
  10  -3  -5   40.67    3.75
 -10   3  -5   33.38    2.51
  10  -3  -5   34.52    4.14
  10  -3  -5   39.53    3.74
 -10   3  -5   37.88    2.72
 -10  -3   5   35.93    4.01
  10   3   5   39.37    4.33
 -10  -3   5   43.92    5.07
  10   3   5   37.31    3.48
 -12  -3  -5    0.42    0.96
 -12   3   5    1.02    0.91
 -12   3   5    0.84    0.93
 -12  -3  -5    0.95    1.03
  12   3  -5    1.63    1.59
  12  -3   5   -0.16    0.82
  12   3  -5   -0.86    0.64
  12  -3   5    0.33    0.78
  12  -3  -5   -0.53    0.80
  12   3   5    1.10    0.93
  12  -3  -5    0.02    0.82
 -12   3  -5    0.22    0.57
 -12  -3   5   -0.85    0.77
 -12   3  -5    0.61    0.66
 -12  -3   5   -0.56    0.85
  12  -3  -5    0.06    0.73
  12   3   5    0.96    1.10
  14  -3   5    0.60    0.79
 -14  -3  -5   -0.21    0.98
  14   3  -5   -0.05    1.24
 -14   3   5    0.93    1.23
 -14  -3  -5   -0.20    0.86
 -14   3   5    0.73    0.92
  14  -3   5    0.88    0.92
  14   3  -5    0.50    0.92
 -14  -3   5    0.65    1.05
 -14  -3   5   -0.10    1.04
  14   3   5   -0.72    0.90
  14  -3  -5    0.16    0.90
  14   3   5    0.23    1.14
 -14   3  -5    0.25    0.57
  14  -3  -5   -0.44    0.86
  16  -3   5   -0.09    0.81
 -16  -3  -5    0.19    1.03
  16   3  -5    0.50    1.07
 -16  -3  -5   -0.76    0.85
  16  -3   5   -0.30    0.82
  16   3  -5    1.00    1.60
 -16   3   5    0.51    1.04
 -16   3   5    0.75    0.97
 -16  -3   5   -0.01    1.20
  16  -3  -5    0.95    1.06
  16   3   5    0.68    1.26
 -16   3  -5   -0.04    0.43
 -16  -3   5    0.49    1.27
 -16   3  -5   -0.02    1.53
 -18  -3  -5    0.25    1.12
  18   3  -5   -0.38    1.58
  18  -3   5   -0.16    0.83
 -18   3   5   -0.77    0.78
  18   3  -5   -0.99    1.15
 -18   3  -5    0.31    1.88
 -18  -3   5   -0.75    1.90
 -18  -3   5   -1.10    1.18
  18   3   5    0.91    1.24
  18  -3  -5    0.73    1.27
   1   4  -5   47.33    2.96
  -1  -4  -5   42.28    3.86
   1  -4   5   41.00    7.75
  -1   4   5   46.25    4.20
  -1  -4  -5   55.06    4.90
   1  -4   5   40.27    4.46
   1   4  -5   52.56    4.86
  -1  -4  -5   50.33    5.42
   1  -4   5   55.09    3.57
  -1   4   5   55.20    4.08
   1  -4   5   46.42    3.34
   1   4  -5   39.12    3.63
   1   4  -5   48.38    5.13
  -1   4   5   44.96    3.28
  -1  -4  -5   50.92    3.55
  -1   4   5   46.67    5.03
   1  -4  -5   36.90    3.78
  -1   4  -5   44.08    4.77
   1   4   5   45.99    3.41
  -1   4  -5   50.72    4.57
  -1  -4   5   44.64    3.33
   1  -4  -5   37.45    4.38
  -1  -4   5   55.35    4.36
  -1  -4   5   37.34    3.79
   1   4   5   47.65    3.49
  -1   4  -5   49.87    3.48
   1   4   5   59.75    4.66
  -1   4  -5   38.68    2.83
  -1   4  -5   54.16    3.34
   3  -4   5    6.88    1.57
  -3  -4  -5   11.12    2.34
  -3   4   5    7.28    1.53
   3   4  -5    8.12    1.60
  -3   4   5    8.06    1.93
  -3   4   5    7.11    2.11
   3   4  -5    5.94    1.71
   3   4  -5   10.86    2.02
  -3  -4  -5    6.99    1.58
   3  -4   5    9.79    2.34
  -3  -4  -5    7.30    1.70
  -3  -4  -5    6.27    2.09
  -3  -4  -5    8.86    1.80
  -3   4   5   11.69    2.00
   3   4  -5    6.83    2.17
   3  -4   5    6.97    1.61
   3   4   5    8.84    2.54
  -3   4  -5    5.80    1.87
   3   4   5   11.22    2.07
  -3  -4   5    5.52    1.55
   3  -4  -5    7.28    1.75
  -3  -4   5    5.38    1.66
  -3   4  -5    7.00    1.30
   3  -4  -5    9.87    2.33
  -3  -4   5    7.85    2.20
   3   4   5    6.92    1.75
  -3   4  -5    6.91    1.70
  -3  -4   5    8.28    1.78
  -5  -4  -5   24.62    3.87
  -5  -4  -5   20.51    2.49
   5   4  -5   16.63    2.60
   5  -4   5   21.51    2.63
   5   4  -5   23.80    3.77
  -5   4   5   29.85    4.16
  -5  -4  -5   18.69    3.08
   5   4  -5   23.07    2.97
  -5   4   5   19.53    3.08
  -5   4   5   21.40    2.43
   5  -4   5   19.47    2.55
   5  -4   5   23.76    3.45
  -5   4   5   20.21    2.45
   5   4   5   19.57    2.82
  -5   4  -5   19.58    2.79
   5   4   5   17.88    2.56
  -5   4  -5   22.75    3.33
  -5  -4   5   16.92    2.44
  -5  -4   5   21.23    3.14
   5  -4  -5   18.71    2.66
  -5  -4   5   17.99    3.34
  -5  -4   5   16.93    2.45
  -7  -4  -5    0.56    1.17
  -7  -4  -5   -0.04    1.10
  -7   4   5    0.82    0.97
  -7   4   5    1.19    0.76
   7   4  -5   -0.08    0.72
  -7   4   5    0.78    1.05
   7   4  -5    2.29    2.24
   7  -4   5    1.29    1.19
   7  -4   5    0.87    0.84
   7  -4  -5    1.70    1.39
  -7  -4   5    0.78    1.15
   7   4   5    2.67    1.13
   7  -4  -5    0.88    0.98
  -7   4  -5    1.00    1.04
  -7  -4   5    1.74    0.94
   7   4   5    1.21    1.31
  -7  -4   5    1.57    0.99
   7   4   5    1.79    1.07
  -7  -4   5    1.14    1.14
  -7   4  -5    0.89    0.90
  -9  -4  -5    1.67    1.29
  -9   4   5   -0.89    0.91
   9  -4   5   -1.26    0.73
   9   4  -5   -0.49    0.70
  -9  -4  -5    0.69    1.09
   9  -4   5   -0.43    0.73
  -9   4   5    0.48    1.02
   9   4   5    1.53    1.32
   9   4   5    0.41    0.76
   9  -4  -5   -0.87    0.93
   9  -4  -5    1.02    0.99
  -9   4  -5    0.72    0.99
  -9  -4   5   -0.17    0.99
  -9  -4   5    2.39    1.36
  -9   4  -5    0.16    0.63
 -11   4   5   49.33    5.32
  11   4  -5   43.80    4.68
 -11  -4  -5   35.33    4.49
  11  -4   5   37.61    4.28
 -11   4   5   40.68    4.72
 -11  -4  -5   42.94    5.06
  11   4   5   44.17    5.12
  11  -4  -5   42.84    5.17
 -11   4  -5   40.74    3.26
  11  -4  -5   43.94    4.43
 -11  -4   5   39.90    5.15
 -11   4  -5   40.46    3.13
 -11  -4   5   37.55    4.65
  11   4   5   38.99    4.00
 -13   4   5   32.14    4.29
 -13  -4  -5   24.30    3.77
 -13  -4  -5   29.96    4.17
  13  -4   5   28.95    3.70
  13   4  -5   22.03    3.36
 -13   4   5   23.87    3.55
 -13  -4   5   24.25    3.96
  13  -4  -5   28.74    3.54
  13  -4  -5   24.05    4.15
 -13  -4   5   21.13    3.94
  13   4   5   24.60    4.06
 -13   4  -5   32.39    4.26
  13  -4  -5   24.57    3.31
  13   4   5   25.22    3.40
 -13   4  -5   23.77    2.89
 -15   4   5    7.94    2.21
  15   4  -5    6.38    2.18
 -15  -4  -5   10.00    2.52
  15  -4   5    6.54    1.84
 -15  -4  -5   11.29    2.61
 -15   4   5    8.65    2.26
  15  -4  -5    5.25    1.84
  15  -4  -5    6.28    2.26
 -15  -4   5   11.35    2.91
 -15   4  -5    8.46    1.54
  15  -4  -5    7.71    2.13
  15   4   5    9.07    2.50
  15   4   5   10.70    2.36
 -15  -4   5   14.62    3.39
 -17  -4  -5    0.07    1.37
  17   4  -5    0.70    1.31
 -17   4   5    0.57    1.27
 -17   4   5    0.74    1.11
  17  -4   5   -0.30    0.97
 -17  -4  -5    2.79    1.60
 -17   4  -5    1.49    1.87
  17  -4  -5    1.87    1.50
 -17   4  -5    1.46    0.79
 -17  -4   5    1.24    1.54
  17   4   5    1.78    1.74
   0  -5   5    4.22    1.79
   0   5   5    1.03    1.25
   0   5  -5    1.25    0.89
   0   5  -5    2.07    1.30
   0   5   5    0.03    1.36
   0   5   5    1.71    1.15
   0   5  -5    1.49    1.16
   0   5   5    1.66    1.01
   0   5  -5    0.31    0.83
   0  -5  -5    3.15    1.67
   0  -5   5    1.75    1.14
   0  -5   5    0.77    0.95
   0  -5  -5    0.86    0.89
   2   5  -5    6.76    2.11
   2   5  -5    5.20    1.76
  -2  -5  -5    4.01    1.66
  -2  -5  -5    5.67    2.12
  -2   5   5    5.27    1.61
   2  -5   5    6.47    1.78
   2   5  -5    4.52    1.55
   2  -5   5    5.38    1.68
  -2   5   5    7.11    2.01
  -2   5   5    3.69    1.33
  -2  -5  -5    3.63    1.42
  -2   5   5    6.44    2.24
   2   5   5    4.24    1.57
   2  -5  -5    3.30    1.69
   2   5   5    4.06    1.45
  -2  -5   5    4.62    1.61
   2  -5  -5    3.24    1.31
  -2   5  -5    3.13    1.36
  -2  -5   5    6.14    2.27
  -2  -5   5    7.13    1.79
  -2   5  -5    3.91    1.76
  -2   5  -5    5.92    1.47
   2   5   5    3.64    1.90
   4  -5   5    0.11    1.13
  -4   5   5    0.94    0.92
   4  -5   5   -0.18    0.82
   4  -5   5    0.28    1.03
  -4   5   5   -1.34    0.69
  -4  -5  -5    1.97    1.41
   4   5  -5   -1.51    0.96
  -4  -5  -5   -0.03    0.78
  -4   5   5    1.64    1.42
  -4   5   5    0.57    0.73
   4   5  -5   -0.28    0.85
  -4  -5  -5   -0.20    0.81
  -4  -5  -5   -0.27    1.18
  -4  -5   5   -0.18    1.28
   4   5   5    0.03    0.90
  -4  -5   5   -1.04    0.67
  -4  -5   5    0.53    0.83
   4  -5  -5   -0.21    0.87
  -4   5  -5   -0.25    0.97
  -4   5  -5    0.39    0.87
  -4   5  -5   -0.26    0.61
   4   5   5   -0.05    0.88
   6  -5   5   17.96    2.73
   6   5  -5   14.55    3.53
  -6   5   5   11.41    1.88
  -6  -5  -5   20.26    3.49
   6   5  -5   14.40    2.70
  -6   5   5   13.64    2.76
  -6  -5  -5    8.73    2.76
   6  -5   5   14.57    3.21
  -6   5   5   10.67    2.82
   6  -5  -5   15.66    2.92
  -6  -5   5   13.48    3.26
  -6  -5   5   16.21    3.22
   6   5   5   18.11    3.03
  -6   5  -5   15.37    3.10
  -6   5  -5   12.73    2.61
  -6  -5   5   16.92    2.77
   6   5   5   14.86    2.76
   8   5  -5   -0.11    0.99
  -8   5   5    2.92    1.77
  -8  -5  -5    2.29    1.67
  -8  -5  -5   -0.24    1.19
  -8   5   5    0.44    1.27
   8  -5   5    0.97    1.52
   8  -5   5    1.69    1.11
   8   5   5    0.86    1.29
  -8   5  -5    1.29    1.20
   8   5   5    0.63    1.12
  -8  -5   5    2.25    1.49
  -8  -5   5    3.01    1.62
   8  -5  -5    0.77    1.08
  -8   5  -5    2.35    1.48
 -10   5   5    4.34    2.10
 -10   5   5    1.55    1.41
  10   5  -5    1.04    1.10
  10  -5   5    0.40    1.31
 -10  -5  -5    0.41    1.35
  10  -5   5    3.21    1.27
 -10  -5  -5    3.14    1.72
 -10  -5   5    0.94    1.41
 -10   5  -5    2.28    1.29
  10   5   5    0.41    1.16
  10  -5  -5    3.64    1.48
 -10  -5   5    1.24    1.57
 -10   5  -5    1.17    1.07
 -12   5   5    0.34    1.19
  12   5  -5    0.92    1.24
 -12  -5  -5    0.81    1.41
 -12  -5  -5    0.55    1.28
 -12   5   5    0.34    1.13
  12  -5   5    0.20    1.22
 -12   5  -5   -0.01    1.03
  12   5   5    2.14    1.35
 -12  -5   5   -0.62    1.19
  12  -5  -5    0.13    1.12
 -12   5  -5   -0.69    1.03
 -12  -5   5    0.54    1.21
  12  -5  -5   -0.46    1.31
 -14   5   5    0.46    0.97
  14   5  -5   -1.62    1.01
  14  -5   5    1.66    1.54
 -14   5   5    0.14    1.45
 -14  -5  -5    0.87    1.57
 -14  -5  -5    0.64    1.45
  14   5   5    0.11    1.01
 -14  -5   5   -0.64    1.47
 -14   5  -5    0.15    0.96
  14  -5  -5   -0.31    1.17
  14   5   5    2.47    2.39
  14  -5  -5   -0.23    1.14
 -14  -5   5    0.63    1.62
  14  -5  -5   -0.29    1.50
 -16  -5  -5    5.09    2.22
  16   5  -5    4.80    2.12
 -16   5   5    1.97    1.59
  16  -5   5    4.86    2.14
  16   5   5    1.01    1.93
  16  -5  -5    5.91    1.99
  16  -5  -5    5.14    1.91
  16  -5  -5    4.21    2.46
 -16   5  -5    4.54    1.53
 -16  -5   5    5.48    2.29
  16   5   5    5.00    1.95
   1  -6   5   69.64    5.02
  -1   6   5   60.27    5.74
   1  -6   5   76.96    5.19
   1   6  -5   70.59    4.82
  -1  -6  -5   72.68    5.16
  -1   6   5   63.20    4.65
   1   6  -5   61.92    6.13
  -1  -6  -5   52.43    6.50
   1   6  -5   66.54    4.57
   1   6  -5   58.65    6.80
  -1   6   5   55.46    6.55
  -1   6  -5   67.10    6.41
  -1   6  -5   61.64    7.04
  -1   6  -5   61.58    4.22
   1   6   5   70.14    7.48
   1   6   5   62.58    5.78
   1  -6  -5   59.64    5.98
  -1  -6   5   60.80    5.76
   1   6   5   68.55    6.10
  -1  -6   5   69.24    5.06
   1  -6  -5   59.33    6.63
  -3  -6  -5   39.42    4.50
  -3   6   5   31.29    4.41
  -3   6   5   33.32    3.87
   3   6  -5   47.11    6.21
   3  -6   5   34.10    4.16
  -3  -6  -5   33.40    4.01
  -3   6   5   32.48    3.88
  -3   6   5   36.66    5.23
   3   6  -5   33.51    3.97
   3  -6   5   29.68    3.86
  -3  -6  -5   38.67    5.31
   3   6  -5   28.81    3.75
  -3  -6   5   39.29    5.62
   3   6   5   24.45    3.73
  -3   6  -5   34.04    3.41
   3   6   5   36.74    4.59
  -3   6  -5   30.63    4.60
  -3   6  -5   40.88    5.09
   3  -6  -5   34.19    4.34
  -3  -6   5   38.82    4.48
  -3  -6   5   34.13    4.21
  -5   6   5   14.58    2.50
   5  -6   5   12.00    2.55
  -5  -6  -5   16.58    3.84
  -5   6   5   11.58    3.29
   5  -6   5   21.02    3.33
   5   6  -5   17.70    3.10
   5   6  -5   14.28    3.49
  -5   6   5   15.24    3.26
  -5  -6  -5   12.85    3.07
   5  -6  -5   12.75    2.70
  -5  -6   5   11.94    3.24
   5   6   5   13.63    2.96
  -5   6  -5   14.32    2.96
   5   6   5   15.48    3.16
  -5   6  -5   13.85    3.17
  -5  -6   5   11.69    2.55
   7   6  -5    1.44    1.30
  -7   6   5    0.23    1.48
  -7   6   5    2.83    1.71
   7  -6   5   -0.07    1.05
  -7  -6  -5    1.41    1.72
  -7  -6  -5    2.16    1.84
  -7  -6   5    4.23    2.11
  -7   6  -5    2.42    1.55
   7   6   5    0.51    1.25
  -7   6  -5    2.84    1.58
   7  -6  -5    2.88    1.51
  -7  -6   5    1.14    1.25
  -7  -6   5    2.12    1.96
   7   6   5    2.37    1.49
   9  -6   5   18.86    4.01
  -9  -6  -5   21.31    4.17
  -9   6   5    9.55    2.76
  -9   6   5   19.72    4.05
   9   6  -5   17.68    3.39
  -9  -6  -5   23.78    4.56
   9  -6   5   16.52    2.83
  -9   6  -5   17.37    3.26
   9   6   5   20.28    3.48
   9   6   5   18.65    3.31
   9  -6  -5   14.76    2.96
  -9  -6   5   18.57    3.64
  -9   6  -5   21.09    3.81
  -9  -6   5   14.07    3.52
 -11  -6  -5   27.66    4.82
  11  -6   5   29.47    5.01
  11  -6   5   24.16    3.43
  11   6  -5   47.81    5.75
 -11   6   5   42.54    5.33
 -11  -6  -5   28.16    4.81
 -11   6   5   32.45    5.20
  11  -6  -5   29.74    4.34
 -11   6  -5   36.16    4.71
 -11  -6   5   27.96    4.75
 -11  -6   5   31.55    5.11
  11   6   5   27.31    4.07
 -11   6  -5   27.65    4.14
  13  -6   5   10.20    3.01
 -13   6   5   16.92    3.52
 -13  -6  -5   15.84    3.76
  13   6  -5   12.67    3.21
 -13   6  -5   18.55    3.31
  13   6   5   14.30    3.02
  13  -6  -5   13.43    2.82
 -13  -6   5   19.13    4.28
 -13   6  -5   18.65    3.24
 -15   6   5   10.05    2.70
  15  -6   5    3.76    2.36
 -15  -6  -5    7.21    2.67
  15   6  -5    6.93    2.61
  15  -6  -5    9.00    2.49
  15   6   5   10.14    2.95
 -15   6  -5    5.02    1.92
  15  -6  -5    6.07    2.20
 -15  -6   5    4.97    2.59
   0  -7   5   -0.07    1.44
   0   7   5    3.41    1.62
   0   7   5    3.87    1.89
   0   7   5    0.98    1.83
   0   7  -5    1.84    1.38
   0   7  -5    4.01    2.34
   0  -7  -5    1.29    1.39
   0   7  -5    5.67    2.56
  -2  -7  -5    0.22    1.19
   2   7  -5    0.61    1.25
  -2  -7  -5    0.26    1.73
  -2   7   5   -0.21    1.13
   2  -7   5   -0.50    1.05
   2   7  -5   -0.79    1.17
  -2   7   5    2.28    2.09
   2  -7   5   -0.50    1.08
   2   7  -5    1.62    1.80
  -2   7  -5    1.21    1.52
  -2   7  -5    0.19    1.06
   2  -7  -5   -0.38    1.12
   2   7   5    3.23    2.02
   2   7   5    0.86    1.29
  -2  -7   5    0.69    1.36
  -2   7  -5    2.10    1.66
   4  -7   5    1.79    1.60
   4   7  -5   -1.72    1.13
  -4   7   5    1.53    1.65
  -4   7   5   -1.12    1.43
   4   7  -5    0.22    1.00
   4  -7   5    0.58    1.49
   4   7  -5    1.50    2.04
  -4   7   5    1.11    1.23
  -4  -7  -5    0.28    1.54
  -4   7  -5   -0.36    1.36
  -4  -7   5   -0.78    1.18
  -4   7  -5   -1.05    1.20
  -4  -7   5    0.38    2.28
   4   7   5   -0.64    1.21
   4   7   5   -0.03    1.29
   4  -7  -5   -0.13    1.09
   6   7  -5    5.24    2.05
  -6   7   5    2.73    1.94
   6  -7   5    4.89    2.21
  -6  -7  -5    0.07    1.74
  -6  -7  -5    3.04    2.28
   6   7  -5    0.76    1.32
  -6   7   5    0.32    1.56
  -6  -7   5   -0.16    1.81
   6   7   5    2.19    1.76
  -6  -7   5    2.17    1.67
  -6   7  -5    1.78    1.76
  -6   7  -5    1.25    1.75
   6  -7  -5    0.12    1.27
   6   7   5    4.54    1.81
  -8   7   5    1.45    1.67
   8   7  -5   -0.10    1.52
   8  -7   5   -0.08    1.36
  -8  -7  -5   -1.05    1.51
  -8  -7  -5    2.74    1.99
   8  -7  -5    1.21    1.49
   8   7   5    0.49    1.55
  -8   7  -5    0.59    1.55
  -8  -7   5   -0.06    1.78
   8   7   5    0.61    1.49
 -10   7   5    2.15    1.88
  10   7  -5    1.13    1.72
 -10  -7  -5    2.60    2.21
  10  -7   5    1.72    1.53
  10   7   5    0.37    1.38
  10   7   5    3.40    2.02
 -10   7  -5    3.17    1.79
  10  -7  -5    0.04    1.50
 -10  -7   5   -0.16    1.60
  12  -7   5   -0.43    1.28
 -12   7   5    1.86    1.96
 -12  -7  -5    0.81    1.82
  12   7  -5   -1.61    1.47
 -12  -7   5    1.26    1.67
  12   7   5    0.18    1.51
 -12   7  -5    0.57    1.36
  12  -7  -5   -0.21    1.44
   1   8  -5    5.37    2.63
  -1  -8  -5    8.66    2.57
   1  -8   5    6.57    2.61
   1   8  -5    8.41    2.43
  -1   8   5   10.40    3.50
  -1   8   5    6.21    2.17
   1   8   5   12.08    3.03
  -1  -8   5    9.74    2.77
  -1   8  -5   12.81    2.65
   1  -8  -5    7.27    2.50
   1   8   5    9.18    2.71
   3  -8   5    5.07    2.27
   3   8  -5    3.16    2.82
   3   8  -5    2.78    1.94
  -3   8   5    5.94    2.05
  -3  -8  -5    3.96    3.46
  -3   8  -5    1.01    2.01
   3   8   5    0.05    1.61
  -3  -8   5   -0.10    1.52
   3   8   5    3.81    2.25
   3  -8  -5    4.94    2.36
   5   8  -5    2.82    1.79
   5   8  -5    2.55    2.05
   5  -8   5    0.17    1.76
  -5   8   5    0.52    1.91
   5   8   5    2.54    2.04
   5   8   5    2.23    1.95
   5  -8  -5    2.23    1.89
  -5  -8   5    1.37    1.97
  -5   8  -5   -1.34    1.59
   7  -8   5   -1.12    1.67
   7   8  -5    0.49    1.77
  -7   8   5   -0.34    1.74
   7   8  -5    3.54    1.99
   7   8   5    5.11    2.42
  -7   8  -5    0.03    1.61
   7   8   5    0.58    1.69
   7  -8  -5    0.62    1.53
   0   0   6  105.29    4.64
   0   0   6  106.70    4.52
   0   0  -6  104.18    4.49
   0   0  -6  103.46    4.82
   0   0  -6  108.50    5.33
   0   0   6  109.58    5.28
  -2   0   6   37.91    2.90
   2   0   6   39.49    2.37
  -2   0  -6   37.44    2.34
  -2   0   6   32.90    2.32
   2   0   6   36.30    2.72
   2   0  -6   35.63    2.86
   2   0  -6   36.59    2.42
  -2   0  -6   34.96    2.23
  -2   0   6   34.31    2.56
  -2   0   6   36.71    2.33
  -2   0  -6   30.46    2.56
  -4   0  -6  176.88    6.85
   4   0   6  173.98    6.35
  -4   0   6  176.81    6.70
  -4   0   6  174.49    6.64
  -4   0   6  177.83    7.65
  -4   0   6  170.11    7.25
   4   0  -6  170.38    7.53
   4   0  -6  171.78    6.79
  -4   0  -6  171.79    7.04
   4   0   6  176.30    7.13
   4   0   6  170.90    6.64
   4   0   6  172.92    6.98
   6   0  -6  317.22   11.73
  -6   0  -6  318.71   10.86
  -6   0   6  322.82   11.93
  -6   0   6  300.55   11.31
   6   0   6  313.61   10.85
   6   0   6  319.05   10.75
  -6   0   6  317.73   11.67
   6   0   6  311.59   10.15
   6   0  -6  316.76   10.88
   6   0  -6  304.64   11.59
  -6   0  -6  308.00   10.46
   6   0  -6  303.99   11.68
   6   0   6  314.56   10.06
  -6   0   6  306.10   10.34
  -6   0   6  308.29   10.47
   8   0  -6   58.06    4.09
   8   0  -6   53.85    3.93
   8   0  -6   48.85    3.23
  -8   0  -6   53.48    2.95
   8   0   6   56.08    3.06
   8   0   6   55.53    2.67
   8   0  -6   51.14    3.79
  -8   0   6   57.47    3.73
   8   0  -6   62.31    4.07
  -8   0   6   51.96    3.90
   8   0   6   57.85    2.60
  -8   0   6   54.13    2.71
   8   0   6   53.40    2.50
   8   0   6   53.86    3.11
  -8   0  -6   55.55    3.12
 -10   0   6    1.16    0.92
 -10   0  -6    1.85    1.24
  10   0  -6    3.97    1.16
 -10   0  -6    2.73    0.80
  10   0   6    2.99    0.95
 -10   0   6    3.41    1.32
  10   0  -6    4.61    1.56
 -10   0  -6    4.05    0.95
  10   0   6    3.51    0.97
  10   0  -6    3.78    1.43
 -12   0   6    0.41    0.67
  12   0   6    0.30    0.61
  12   0  -6    0.33    0.89
  12   0   6   -0.29    0.50
 -12   0  -6   -0.40    0.95
 -12   0  -6   -0.16    0.37
  12   0  -6    0.54    0.98
  12   0  -6   -0.62    0.59
 -12   0   6    0.00    0.74
 -12   0  -6    0.28    0.42
  14   0  -6   -1.02    0.91
  14   0  -6    0.37    0.92
 -14   0  -6   -0.91    0.98
  14   0  -6   -0.85    0.79
 -14   0   6   -0.10    0.79
  14   0   6    0.03    0.56
  14   0   6   -0.28    0.61
 -14   0  -6   -0.47    0.47
 -14   0   6   -0.46    0.76
  16   0  -6   37.07    4.73
 -16   0   6   41.63    4.53
  16   0  -6   41.38    4.19
  16   0   6   38.26    2.57
 -16   0  -6   44.25    6.75
  16   0  -6   33.43    4.46
 -16   0   6   37.91    4.25
  18   0   6   15.39    1.83
 -18   0   6   16.94    3.01
  18   0  -6   13.63    3.05
 -18   0   6   18.96    2.97
  18   0   6   14.26    1.97
 -18   0   6   12.13    2.37
 -18   0  -6   16.66    4.35
  18   0  -6    9.93    2.70
  20   0   6    7.76    1.63
 -20   0  -6    5.64    3.11
  20   0  -6    6.33    2.33
 -20   0   6    3.68    1.47
  20   0   6    6.65    1.35
 -20   0   6    7.94    2.34
  20   0  -6    7.60    2.41
   1   1  -6   39.86    2.87
  -1  -1  -6   36.69    2.35
  -1  -1  -6   43.36    2.78
   1  -1   6   42.01    3.03
  -1   1   6   37.81    2.98
  -1  -1  -6   38.37    3.00
   1  -1   6   37.55    2.24
   1  -1   6   43.02    3.59
   1   1  -6   41.29    3.03
  -1   1   6   37.53    2.47
  -1   1   6   37.32    2.48
   1   1  -6   43.10    2.54
   1  -1   6   35.18    2.35
  -1  -1   6   38.80    2.54
   1   1   6   36.50    2.47
  -1  -1   6   38.49    2.52
  -1   1  -6   36.16    2.29
  -1  -1   6   37.43    2.45
   1  -1  -6   37.94    2.79
   1   1   6   36.23    2.42
  -1   1  -6   35.40    2.78
   1  -1  -6   36.90    2.48
   1   1   6   37.70    2.91
   1  -1  -6   38.94    3.06
  -1   1  -6   39.27    2.54
   1   1   6   36.67    2.71
  -1  -1   6   34.02    2.84
  -3   1   6    7.39    1.38
   3  -1   6    8.22    1.69
  -3  -1  -6    4.75    1.29
   3  -1   6    8.14    1.44
  -3   1   6    7.06    1.69
   3  -1   6    4.51    1.26
   3   1  -6    4.53    1.30
   3   1  -6    5.65    1.17
  -3  -1  -6    6.13    1.09
   3  -1   6    5.55    1.10
   3   1  -6    5.89    1.23
  -3   1   6    9.07    1.52
  -3   1  -6    6.08    0.88
   3  -1  -6    7.32    1.52
   3  -1  -6    7.32    1.81
  -3  -1   6    7.11    1.33
   3   1   6    4.96    1.18
  -3   1  -6    5.40    0.83
   3  -1  -6    6.46    1.30
   3   1   6    6.31    1.47
  -3  -1   6    6.16    1.23
  -3   1  -6    6.31    1.45
  -3  -1   6    7.76    1.74
  -3  -1   6    6.37    1.26
   3   1   6    7.73    1.37
  -5   1   6   23.88    2.84
   5  -1   6   21.50    2.36
  -5   1   6   25.86    3.08
   5   1  -6   27.22    3.14
   5  -1   6   24.63    1.98
  -5  -1  -6   29.18    2.41
  -5  -1  -6   25.44    2.95
  -5   1   6   30.20    2.18
   5   1  -6   25.69    2.78
   5   1  -6   25.46    2.70
   5  -1   6   26.66    2.27
  -5   1   6   25.83    2.46
  -5   1   6   32.66    3.26
   5  -1   6   28.26    2.27
  -5  -1  -6   28.65    2.81
  -5  -1   6   34.56    2.99
  -5   1  -6   28.88    2.81
   5  -1  -6   26.12    2.60
  -5  -1   6   29.74    2.82
  -5   1  -6   25.33    2.42
  -5  -1   6   22.72    2.97
   5   1   6   28.20    2.38
   5   1   6   30.76    2.12
   5   1   6   26.03    2.16
   5  -1  -6   22.86    2.95
   5   1   6   27.47    2.91
  -5  -1   6   25.66    2.83
  -7  -1  -6   12.65    2.29
   7  -1   6   14.04    1.53
  -7  -1  -6   14.26    2.11
   7   1  -6   10.74    2.25
   7  -1   6   15.14    1.56
  -7   1   6   11.41    1.63
  -7   1   6   12.37    1.57
  -7   1   6   14.13    2.29
   7  -1   6   10.41    1.56
   7   1  -6   11.71    2.29
  -7  -1  -6   17.19    2.13
   7   1  -6   11.05    1.81
   7   1  -6   15.19    2.47
   7  -1   6   14.87    1.58
  -7   1   6   11.49    2.10
   7  -1   6   15.51    1.91
   7  -1  -6   12.22    2.35
   7  -1  -6   11.80    1.93
  -7  -1   6   12.36    1.78
  -7   1  -6   17.75    2.12
  -7  -1   6   16.37    2.66
   7   1   6   14.41    2.03
   7   1   6   17.61    1.96
   7   1   6    9.69    1.53
  -7   1  -6   14.11    1.73
  -7  -1   6   13.63    1.78
  -7  -1   6   14.46    2.37
   7  -1  -6   13.05    2.33
   9   1  -6    9.24    2.13
  -9  -1  -6    8.78    1.52
  -9   1   6    8.87    2.04
   9  -1   6   12.48    1.60
   9   1  -6    9.62    1.75
   9  -1   6    6.65    0.74
  -9   1   6    9.04    1.95
  -9  -1  -6    7.14    1.96
   9  -1   6    7.86    1.28
   9  -1   6    8.00    1.25
  -9  -1  -6   11.72    1.87
   9   1   6   10.38    1.86
  -9   1  -6    9.78    1.42
  -9  -1   6    9.94    1.99
   9   1   6   11.43    1.55
  -9  -1   6    9.17    1.35
   9  -1  -6    8.30    1.97
   9  -1  -6    7.69    1.57
  -9  -1   6   12.38    2.31
  -9   1  -6   10.33    1.44
   9   1   6   12.14    1.80
   9   1   6    9.61    1.37
  11   1  -6    4.13    1.62
 -11  -1  -6    4.89    1.26
  11  -1   6    2.73    0.76
 -11   1   6    3.46    1.26
  11   1  -6    2.06    1.01
 -11  -1  -6    3.84    1.85
 -11   1   6    4.45    1.53
 -11  -1  -6    4.62    1.18
  11  -1   6    2.18    0.69
 -11   1  -6    3.59    0.71
  11  -1  -6    1.97    1.34
  11   1   6    3.52    1.14
  11   1   6    4.49    1.23
 -11  -1   6    2.49    1.26
 -11  -1   6    3.40    1.47
  11  -1  -6    3.45    1.23
 -11   1  -6    2.93    0.82
 -13  -1  -6    2.32    1.73
  13   1  -6    3.03    1.45
  13  -1   6    1.62    0.65
 -13  -1  -6    1.79    0.90
 -13  -1  -6    1.03    0.65
 -13   1   6    0.82    0.94
  13  -1   6    1.07    0.57
 -13   1   6    0.69    0.85
  13   1  -6    1.80    0.99
 -13  -1   6    1.13    1.07
  13   1   6    1.94    1.04
  13  -1  -6    2.70    1.51
 -13  -1   6    0.87    1.07
 -13   1  -6    1.84    0.62
  13   1   6    2.86    1.15
 -13   1  -6    1.24    1.69
  13  -1  -6   -0.30    0.76
  15  -1   6    0.17    0.53
  15   1  -6    0.50    1.12
 -15   1   6    1.24    1.10
  15   1  -6    0.68    1.00
 -15   1   6   -0.62    0.72
 -15  -1  -6   -0.14    1.37
 -15  -1  -6    0.57    0.66
  15  -1   6    0.23    0.50
  15  -1  -6    0.10    1.11
 -15  -1   6   -0.35    0.73
  15  -1  -6    0.94    1.04
 -15  -1   6    0.91    1.17
  15   1   6   -0.70    0.92
  15   1   6   -0.27    0.87
 -15   1  -6    0.43    1.34
  17  -1   6    0.27    0.58
  17  -1   6    0.78    0.63
 -17  -1  -6    2.36    1.87
  17   1  -6   -0.89    0.95
 -17   1   6    2.03    1.22
 -17   1   6    0.74    1.02
  17   1  -6    0.92    1.35
  17  -1  -6    0.29    1.36
 -17  -1   6    1.99    1.45
 -17  -1   6   -0.61    1.17
 -17   1  -6    0.24    1.48
 -17  -1   6    2.39    1.20
 -17  -1   6    0.12    1.17
  17   1   6    1.56    1.06
 -19  -1  -6    1.42    2.25
  19  -1   6    1.00    0.66
  19   1  -6    2.60    1.97
 -19   1   6    1.67    1.12
  19  -1   6    3.78    0.82
 -19  -1   6    2.11    1.66
  19   1   6    2.16    1.22
 -19  -1   6    1.28    1.57
  19  -1  -6    4.40    1.87
 -19   1  -6    4.77    2.86
   0   2  -6    0.15    0.51
   0  -2  -6    1.75    1.00
   0   2  -6    1.49    0.68
   0  -2   6   -0.10    0.33
   0   2  -6    1.64    0.98
   0  -2   6    0.62    0.64
   0   2   6    1.41    0.77
   0  -2   6    0.91    0.73
   0  -2   6    2.74    0.74
   0  -2   6    2.69    1.15
   0  -2  -6    0.99    0.67
   0   2   6    1.53    1.01
   0  -2  -6    2.08    0.83
   0   2   6    0.51    0.62
   0   2   6    1.53    0.78
   2   2  -6   62.80    3.52
   2   2  -6   59.28    4.23
   2  -2   6   62.47    3.43
   2  -2   6   68.08    3.98
  -2  -2  -6   62.46    3.39
   2  -2   6   68.66    2.77
  -2   2   6   64.45    3.59
   2  -2   6   59.65    3.91
  -2  -2  -6   65.74    4.26
  -2   2   6   64.80    3.51
   2  -2   6   74.84    4.53
   2   2  -6   59.68    3.37
   2  -2   6   65.10    3.45
  -2   2   6   63.65    4.25
  -2  -2  -6   66.89    3.75
   2   2   6   67.48    3.69
  -2   2  -6   58.94    3.13
  -2   2  -6   61.53    3.76
   2   2   6   71.13    4.32
  -2   2  -6   61.10    3.28
  -2  -2   6   60.89    3.42
   2  -2  -6   63.32    4.23
   2   2   6   61.66    3.49
   2  -2  -6   61.50    3.58
   2   2   6   65.44    4.00
  -2  -2   6   57.80    3.48
  -2   2  -6   66.70    4.14
   2  -2  -6   66.12    4.14
  -2  -2   6   68.73    4.40
  -2  -2   6   60.19    3.52
  -4   2   6   94.47    5.17
   4  -2   6  101.39    4.97
  -4   2   6  103.62    4.81
  -4  -2  -6   99.96    4.38
  -4  -2  -6  112.07    5.66
   4   2  -6   99.95    4.95
   4  -2   6  106.05    4.57
  -4  -2  -6   97.56    4.66
   4   2  -6  103.81    5.86
  -4  -2  -6  103.97    5.21
   4  -2   6  109.27    5.59
  -4   2   6   96.67    5.54
  -4   2   6  103.20    4.65
   4   2  -6   90.55    4.93
   4  -2   6   96.75    5.10
   4  -2   6  103.10    3.47
  -4  -2  -6  103.92    4.56
   4  -2  -6   99.97    4.93
  -4   2  -6  109.47    5.11
   4   2   6  100.62    5.21
  -4  -2   6   97.92    4.86
  -4  -2   6   98.44    4.80
   4   2   6  104.04    4.86
   4   2   6  104.87    5.50
   4   2   6  104.31    5.46
  -4   2  -6  106.56    5.26
   4  -2  -6   96.38    5.56
  -4  -2   6  106.24    5.86
  -4  -2   6  106.53    5.14
   4   2   6  105.39    4.78
  -6   2   6   90.65    4.32
   6  -2   6   94.17    4.41
  -6   2   6   90.59    4.20
   6   2  -6   89.97    5.07
   6  -2   6   98.81    4.93
  -6   2   6   90.91    5.45
  -6  -2  -6   90.95    4.97
   6   2  -6   85.77    5.35
  -6   2   6   95.67    5.08
   6  -2   6   86.82    4.04
   6   2  -6   86.93    4.67
   6   2  -6   81.64    5.06
  -6  -2  -6   92.85    4.82
  -6  -2  -6   92.11    5.10
   6   2   6   93.42    4.48
   6  -2  -6   87.92    5.25
   6   2   6   91.03    4.84
   6   2   6   90.11    5.08
   6  -2  -6   92.76    5.40
  -6   2  -6   84.72    4.56
   6  -2  -6   88.34    5.02
   6  -2  -6   85.45    4.61
  -6  -2   6   90.33    4.47
  -6  -2   6   97.52    5.67
   6   2   6   89.66    4.35
  -6   2  -6   89.04    4.48
  -6  -2   6   92.00    4.57
  -6  -2   6   95.80    5.28
   8   2  -6  128.25    6.95
  -8   2   6  126.48    4.84
   8  -2   6  129.32    5.54
  -8   2   6  123.96    6.69
  -8   2   6  126.17    6.30
  -8   2   6  125.63    7.86
   8  -2   6  121.74    5.43
   8  -2   6  127.18    5.02
   8  -2   6  129.93    5.79
  -8  -2  -6  126.02    6.24
   8   2  -6  129.70    6.77
  -8  -2  -6  128.27    5.98
   8   2  -6  124.91    5.98
  -8  -2  -6  130.35    6.85
   8  -2   6  123.56    5.11
  -8  -2   6  129.14    5.47
  -8  -2   6  120.23    6.85
   8  -2  -6  130.10    6.68
  -8   2  -6  130.95    5.59
  -8   2  -6  131.75    5.53
  -8  -2   6  135.95    6.62
  -8  -2   6  131.74    5.63
  -8  -2   6  131.51    6.62
   8   2   6  125.22    5.55
   8   2   6  118.76    6.18
   8  -2  -6  132.31    6.04
   8   2   6  125.79    5.84
  10   2  -6    5.21    1.46
 -10  -2  -6    6.27    1.66
  10  -2   6    6.04    1.27
  10  -2   6    9.72    1.59
 -10   2   6   11.13    2.47
  10   2  -6   10.27    2.44
 -10  -2  -6    9.11    1.76
 -10   2   6    6.54    1.85
 -10  -2  -6    5.28    1.80
  10  -2  -6    6.35    1.55
 -10   2  -6    6.48    1.26
 -10  -2   6   10.80    2.28
 -10   2  -6    6.76    1.32
 -10  -2   6   10.12    2.18
  10  -2  -6    6.38    1.79
 -10  -2   6    8.71    2.03
  10   2   6    9.37    1.64
  10   2   6    9.66    2.00
  12   2  -6    2.70    1.57
  12  -2   6    3.44    0.96
  12  -2   6    2.45    0.93
 -12  -2  -6    2.71    1.08
 -12  -2  -6    2.71    1.62
 -12   2   6    2.85    1.23
  12   2  -6    1.90    1.08
 -12  -2  -6    3.67    1.26
 -12   2   6    1.67    1.17
  12  -2  -6    3.27    1.39
 -12  -2   6    3.69    1.61
  12   2   6    2.47    1.39
 -12   2  -6    1.30    0.69
 -12  -2   6    1.98    1.09
 -12  -2   6    1.80    1.20
  12  -2  -6    2.67    1.50
 -12  -2   6    0.41    1.00
  12   2   6    4.03    1.20
  14   2  -6   14.08    2.42
 -14  -2  -6   14.46    2.15
  14   2  -6   13.66    2.98
  14  -2   6    7.87    1.37
 -14   2   6    8.40    2.13
 -14  -2  -6   15.32    3.72
  14  -2   6   18.39    1.99
 -14   2   6   10.36    2.42
 -14  -2  -6   15.84    2.31
 -14  -2   6   13.27    2.70
 -14  -2   6   12.31    2.79
 -14   2  -6   11.26    1.24
  14   2   6   16.69    2.68
  14  -2  -6   14.33    2.45
 -14  -2   6   14.58    3.07
 -14   2  -6    9.67    2.90
  14  -2  -6   16.25    3.10
  16   2  -6   19.88    3.81
  16   2  -6   14.54    2.65
  16  -2   6   19.97    1.97
 -16   2   6   15.50    2.76
 -16  -2  -6   11.53    3.52
  16  -2   6   12.57    1.60
 -16   2   6   17.25    3.01
 -16  -2  -6   17.30    2.42
 -16  -2   6   17.79    3.13
 -16  -2   6   18.44    3.47
  16  -2  -6   13.62    2.90
 -16   2  -6    9.86    3.05
  16  -2  -6   28.55    3.60
  16   2   6   23.47    3.22
  18  -2   6   39.53    2.38
 -18  -2  -6   28.81    5.70
 -18   2   6   36.81    4.13
  18   2  -6   32.66    4.16
 -18  -2  -6   36.53    3.36
  18   2  -6   33.59    4.97
 -18   2   6   27.34    3.70
 -18   2  -6   28.63    5.86
 -18  -2   6   41.47    5.07
 -18  -2   6   31.34    4.26
  18   2   6   34.09    4.09
  18  -2  -6   32.67    4.60
 -20  -2  -6    1.89    2.21
 -20   2   6    9.09    2.21
  20  -2   6    3.15    1.00
  20  -2   6    8.22    1.34
 -20  -2  -6    9.78    1.54
  20   2  -6   11.43    3.33
 -20   2  -6    2.66    2.34
  20   2   6    9.83    2.55
  20  -2  -6    6.89    2.47
 -20  -2   6    8.50    2.47
   1  -3   6    6.09    2.55
  -1  -3  -6    2.29    1.21
  -1   3   6    1.28    1.10
  -1   3   6    2.93    0.93
  -1  -3  -6    2.88    1.01
   1  -3   6    3.54    1.41
  -1   3   6    2.46    1.00
   1   3  -6    2.35    1.03
   1  -3   6    4.51    1.48
   1   3  -6    4.02    1.22
   1   3  -6    1.03    0.76
   1  -3   6    3.77    1.16
  -1  -3  -6    4.84    1.51
   1  -3   6    2.89    1.11
   1  -3   6    6.01    1.68
   1   3  -6    4.60    1.64
   1   3  -6    2.89    0.87
  -1  -3  -6    3.44    1.25
  -1   3   6    3.22    1.05
   1   3   6    5.66    1.55
   1   3   6    1.31    1.09
  -1   3  -6    4.38    1.17
  -1  -3   6    4.22    1.27
  -1  -3   6    4.40    1.53
  -1   3  -6    3.52    1.34
  -1   3  -6    3.82    1.20
  -1  -3   6    5.13    1.43
   1   3   6    3.39    1.14
   1  -3  -6    2.37    1.17
  -1  -3   6    4.13    1.37
   1  -3  -6    1.84    0.82
  -1   3  -6    3.49    1.41
  -1  -3   6    2.54    1.31
   1   3   6    2.21    0.98
   1  -3  -6    3.84    1.37
  -3  -3  -6    0.73    0.61
  -3   3   6    0.65    0.68
   3  -3   6   -0.54    0.53
   3  -3   6   -0.41    0.62
   3   3  -6    0.04    0.73
  -3  -3  -6    0.31    0.72
   3  -3   6   -0.27    0.74
  -3   3   6    0.34    0.79
   3   3  -6    0.31    0.57
   3  -3   6   -0.14    1.00
   3   3  -6    0.19    0.60
  -3  -3  -6   -0.26    0.50
  -3  -3  -6   -0.97    0.64
  -3   3   6   -0.03    0.69
   3  -3   6    0.05    0.81
  -3   3   6    0.15    0.51
   3  -3   6    1.50    0.84
  -3  -3   6    0.08    0.59
   3   3   6    1.10    0.76
   3   3   6   -0.30    0.59
  -3  -3   6   -0.42    0.65
  -3   3  -6    0.49    0.57
  -3   3  -6    0.17    0.46
  -3  -3   6    0.27    0.90
   3   3   6    0.12    0.75
  -3  -3   6   -0.80    0.46
   3   3   6    0.93    0.95
   3  -3  -6    0.09    0.81
  -3   3  -6   -0.30    0.61
   3  -3  -6   -0.13    0.51
  -3   3  -6    0.03    0.42
  -3   3  -6    1.48    0.94
   5   3  -6    1.66    0.84
   5   3  -6    1.70    1.23
  -5  -3  -6    5.00    1.74
   5  -3   6    0.55    0.98
  -5  -3  -6    1.90    0.81
  -5   3   6    1.90    0.91
  -5   3   6    0.41    0.54
  -5   3   6    2.40    1.17
   5  -3   6    3.88    1.28
   5  -3   6    1.14    0.78
  -5  -3  -6    1.80    1.03
   5  -3   6    0.89    0.74
  -5   3   6    5.53    1.85
   5   3  -6    2.49    1.06
  -5  -3   6    1.35    1.02
   5  -3  -6    1.62    0.91
   5   3   6    3.13    1.43
  -5   3  -6    1.07    0.82
   5  -3  -6    1.43    1.27
   5   3   6    1.31    0.85
   5  -3  -6    3.43    1.49
   5   3   6    1.14    0.90
   5   3   6    1.80    1.12
  -5  -3   6    2.18    1.29
  -5  -3   6    0.47    0.67
   5   3   6    3.67    1.16
  -5  -3   6    2.87    1.43
  -5   3  -6    2.52    1.16
  -5  -3   6    1.62    0.97
   7  -3   6    8.60    1.53
   7  -3   6    7.32    1.63
   7  -3   6    2.11    1.19
  -7  -3  -6    5.04    1.46
   7   3  -6    5.79    1.62
  -7   3   6    6.29    1.92
  -7  -3  -6    3.65    1.47
   7   3  -6    5.72    1.59
  -7   3   6    5.29    1.14
   7   3  -6    6.97    2.08
  -7   3   6    7.16    1.97
   7   3   6    6.04    1.57
   7   3   6    6.10    1.82
   7  -3  -6    4.52    1.36
  -7  -3   6    4.34    1.61
  -7  -3   6    7.61    2.10
  -7  -3   6    5.65    1.64
  -7   3  -6   10.03    2.07
  -7   3  -6    6.39    1.47
  -7  -3   6    3.57    1.19
   7  -3  -6    6.67    1.97
   7   3   6    4.22    1.27
  -7  -3   6    5.92    1.49
   7   3   6    5.18    1.38
   9  -3   6   45.59    3.63
  -9   3   6   49.56    5.26
  -9   3   6   56.70    4.24
   9  -3   6   50.66    3.09
   9  -3   6   49.74    3.28
  -9  -3  -6   51.12    3.87
   9   3  -6   53.10    3.88
  -9  -3  -6   53.18    4.15
   9  -3  -6   51.42    4.35
   9   3   6   49.71    3.49
   9   3   6   55.09    3.96
  -9  -3   6   50.84    3.21
  -9   3  -6   46.97    3.36
   9   3   6   58.59    4.29
  -9   3  -6   48.85    3.32
  -9  -3   6   59.83    5.48
   9  -3  -6   53.59    3.77
  -9  -3   6   52.60    5.79
  -9  -3   6   59.42    6.03
 -11  -3  -6   10.65    2.18
 -11  -3  -6    5.04    1.64
 -11   3   6    4.42    1.74
  11  -3   6    4.55    1.40
 -11   3   6    3.50    1.35
  11   3  -6    7.31    1.89
 -11   3  -6    6.11    1.37
  11   3   6    4.69    1.77
  11  -3  -6    7.57    2.18
  11  -3  -6    6.02    1.66
 -11  -3   6    3.51    1.68
 -11   3  -6    4.85    1.24
  11   3   6    5.12    1.50
 -11  -3   6    8.27    2.12
  13   3  -6    0.18    0.98
 -13  -3  -6    0.98    0.92
 -13  -3  -6   -0.05    0.92
 -13   3   6   -1.13    0.75
  13   3  -6    0.66    1.48
  13  -3   6    0.47    0.89
 -13   3   6   -1.04    0.82
 -13  -3   6    0.15    1.18
  13  -3  -6    0.09    0.92
  13  -3  -6    0.96    1.20
  13   3   6   -0.79    0.72
  13   3   6    1.18    1.25
 -13  -3   6   -0.05    1.11
 -13   3  -6    0.06    0.58
 -15   3   6    0.90    1.12
 -15  -3  -6   -0.49    0.95
  15   3  -6    1.00    1.68
 -15   3   6   -0.10    0.84
  15  -3   6    0.25    0.93
  15   3  -6    1.51    1.17
 -15  -3  -6   -0.15    1.05
 -15   3  -6    1.18    0.74
  15  -3  -6    1.17    1.33
 -15  -3   6    1.17    1.33
  15  -3  -6    1.01    1.16
  15   3   6    0.17    1.28
 -15  -3   6    0.11    1.41
  17   3  -6    0.19    1.14
  17  -3   6    1.11    1.17
  17   3  -6   -0.13    1.55
 -17   3   6    1.66    1.42
 -17   3   6    1.92    1.20
 -17  -3  -6   -0.31    0.95
 -17  -3   6    0.81    1.72
  17  -3  -6    2.00    1.57
 -17  -3   6    1.55    1.62
 -17   3  -6   -0.17    1.35
  17   3   6    2.54    1.66
  19   3  -6   11.33    2.71
 -19  -3  -6   13.33    2.53
  19  -3   6    6.01    1.64
  19   3  -6   12.00    3.51
 -19   3   6   12.67    2.64
 -19   3  -6   11.21    3.85
  19   3   6   16.14    3.22
 -19  -3   6   15.39    3.31
  19  -3  -6   21.87    4.04
   0  -4  -6   58.52    4.00
   0   4  -6   75.84    5.33
   0  -4   6   59.87    4.73
   0   4   6   62.67    4.18
   0   4  -6   61.38    3.91
   0  -4  -6   49.81    5.34
   0  -4  -6   70.07    4.73
   0   4   6   73.16    4.34
   0  -4   6   60.60    4.08
   0  -4  -6   54.62    3.88
   0   4   6   66.42    4.55
   0  -4   6   63.59    4.11
   0   4   6   58.10    5.87
   0   4  -6   59.04    4.42
   2  -4   6   19.14    2.58
   2  -4   6   19.22    3.26
  -2  -4  -6   14.99    2.30
  -2   4   6    9.88    2.22
   2   4  -6   12.78    2.14
  -2   4   6    8.62    1.77
   2  -4   6   12.24    2.18
   2   4  -6   14.81    2.95
   2   4  -6   15.73    2.66
  -2  -4  -6    9.15    2.16
  -2  -4  -6   10.37    2.37
  -2  -4  -6   10.80    2.60
   2   4  -6   10.02    1.68
  -2   4   6   13.93    2.94
  -2   4   6   12.17    2.20
  -2  -4   6   16.60    2.59
  -2  -4   6   16.69    3.17
  -2   4  -6   10.12    2.12
   2   4   6   11.07    2.14
  -2   4  -6   13.71    2.04
   2  -4  -6   10.92    2.47
   2  -4  -6   11.86    2.16
  -2   4  -6   16.22    2.26
   2   4   6   14.66    3.07
  -2  -4   6   16.25    2.53
  -2   4  -6   14.17    2.87
  -2   4  -6   12.09    1.80
   2   4   6   12.60    2.32
   2  -4  -6   10.18    1.98
  -4   4   6    3.50    1.20
   4   4  -6    2.48    1.55
   4   4  -6    2.81    1.30
   4  -4   6    4.49    1.46
   4  -4   6    3.93    1.35
  -4  -4  -6    0.52    0.92
  -4   4   6    1.18    0.74
   4  -4   6    2.90    1.56
  -4  -4  -6    3.78    1.50
  -4   4   6    4.67    1.94
  -4  -4  -6    1.90    1.00
   4   4  -6    1.70    0.98
  -4   4   6    2.51    1.37
   4  -4  -6    1.00    0.94
   4  -4  -6    4.35    1.46
  -4  -4   6    3.37    1.29
   4   4   6    4.49    1.74
  -4  -4   6    5.29    1.92
  -4   4  -6    2.58    0.82
   4  -4  -6    1.55    1.34
  -4  -4   6    5.18    1.46
   4   4   6    3.11    1.27
   4   4   6    4.26    1.44
  -4  -4   6    1.49    1.40
  -4   4  -6    2.33    1.32
  -4   4  -6    2.07    1.16
   6   4  -6    8.95    2.62
  -6  -4  -6    9.44    2.38
  -6   4   6    8.15    1.55
   6   4  -6    7.72    1.90
  -6   4   6   12.15    2.87
  -6  -4  -6   11.49    2.42
   6  -4   6    7.61    2.20
   6   4  -6    5.92    1.73
   6  -4   6    9.90    2.03
  -6   4   6    7.51    2.01
   6  -4  -6   10.75    2.20
  -6   4  -6   10.26    2.25
   6  -4  -6    6.36    1.80
   6   4   6    8.28    1.94
  -6  -4   6    7.49    2.17
  -6  -4   6    8.63    2.35
  -6   4  -6   10.79    2.15
  -6  -4   6    8.68    2.00
   6   4   6    7.18    1.74
  -6  -4   6   13.22    2.22
  -8   4   6    2.44    1.30
  -8  -4  -6    1.76    1.28
   8  -4   6    2.98    1.25
  -8   4   6    1.58    1.28
   8   4  -6    3.14    1.50
   8  -4   6   -0.04    1.08
  -8  -4  -6    1.63    1.26
  -8  -4   6    1.79    1.42
  -8  -4   6    0.37    1.00
   8  -4  -6    1.11    1.28
  -8   4  -6    1.29    1.26
  -8   4  -6    0.96    0.83
   8  -4  -6    1.50    1.05
   8   4   6    0.74    0.94
  -8  -4   6   -0.43    0.99
   8   4   6    5.34    1.62
  -8  -4   6    3.33    1.21
   8  -4  -6    2.25    1.21
   8   4   6    1.63    1.48
 -10  -4  -6   23.40    3.84
 -10  -4  -6   23.29    3.49
  10   4  -6   23.71    3.44
  10  -4   6   30.41    3.26
 -10   4   6   24.10    3.62
 -10   4   6   25.40    4.05
  10  -4   6   19.07    3.12
  10  -4  -6   21.58    3.05
  10  -4  -6   26.81    3.35
 -10   4  -6   24.75    3.03
 -10  -4   6   20.45    3.59
  10  -4  -6   22.45    3.89
 -10  -4   6   23.44    4.06
  10   4   6   22.94    3.94
 -10   4  -6   25.23    3.28
  10   4   6   25.68    3.37
 -12   4   6   19.20    3.51
 -12  -4  -6   25.23    3.65
  12  -4   6   20.24    3.21
 -12  -4  -6   26.15    3.96
 -12   4   6   22.60    3.56
  12   4  -6   23.63    3.54
 -12  -4   6   23.26    4.06
 -12   4  -6   24.19    2.96
  12  -4  -6   21.89    3.98
 -12   4  -6   26.08    3.05
  12  -4  -6   24.38    3.38
  12  -4  -6   32.07    3.87
  12   4   6   26.24    4.04
  12   4   6   29.82    3.83
 -12  -4   6   21.19    4.00
 -14   4   6    6.05    2.11
  14  -4   6    2.30    1.40
  14   4  -6    9.68    2.48
 -14  -4  -6    5.17    1.99
 -14   4   6    7.54    2.20
 -14  -4  -6    7.16    2.19
  14   4   6   13.56    3.15
 -14   4  -6    8.09    1.83
  14   4   6    6.22    1.86
 -14  -4   6    7.70    2.44
  14  -4  -6    8.48    2.60
 -14  -4   6    8.02    2.54
  14  -4  -6    4.82    1.75
 -16   4   6    3.80    1.83
 -16  -4  -6    7.94    2.29
  16  -4   6    1.36    1.41
  16   4  -6    0.89    1.32
 -16   4   6    4.05    1.79
 -16  -4  -6    3.25    1.58
  16   4   6    3.07    1.60
 -16  -4   6    3.93    2.17
  16  -4  -6    6.17    2.13
 -16   4  -6    2.47    1.02
  16  -4  -6    3.01    1.80
  16   4   6    2.81    1.94
 -18   4   6    1.07    1.19
 -18  -4  -6    0.01    1.31
  18   4  -6   -0.23    1.31
  18  -4   6   -0.14    1.33
  18  -4  -6    1.19    1.63
  18   4   6    0.33    1.92
 -18  -4   6   -0.54    1.36
 -18   4  -6    1.14    2.31
  -1   5   6   10.12    2.23
   1  -5   6    4.75    1.58
   1   5  -6    8.13    2.56
  -1  -5  -6    7.82    2.33
  -1  -5  -6    7.19    1.90
   1   5  -6    9.11    2.31
  -1  -5  -6    9.86    2.26
  -1  -5  -6    4.53    2.90
  -1   5   6    7.44    2.59
   1  -5   6    8.90    2.08
  -1   5   6    4.93    1.63
   1   5  -6   10.43    2.23
  -1   5   6    6.80    2.19
  -1   5  -6    4.51    2.03
  -1   5  -6    9.83    2.33
   1   5   6    8.56    2.12
   1   5   6   10.38    2.20
  -1   5  -6    8.95    1.91
   1   5   6    8.29    2.38
  -1  -5   6    5.43    1.69
   1  -5  -6    7.36    2.01
   1  -5  -6   10.74    2.94
  -1  -5   6    8.63    2.58
   1  -5  -6    9.56    2.21
  -1  -5   6    8.77    2.05
  -1   5  -6    9.92    1.92
  -3  -5  -6    5.98    1.98
   3  -5   6    1.52    1.15
   3   5  -6    8.03    2.39
   3  -5   6    6.63    1.74
  -3  -5  -6    4.89    2.04
  -3   5   6    1.91    1.41
   3   5  -6    5.00    1.77
  -3  -5  -6    5.31    1.62
  -3   5   6    5.99    1.63
  -3   5   6    7.88    2.52
  -3   5   6    6.62    1.76
   3  -5  -6    6.80    1.99
   3   5   6    3.86    1.63
   3  -5  -6    9.78    3.01
   3   5   6    4.95    1.70
  -3  -5   6    2.31    1.47
  -3   5  -6    5.69    2.08
   3  -5  -6    6.07    1.89
  -3  -5   6    5.40    1.63
  -3  -5   6    5.57    1.90
  -3   5  -6    4.46    1.64
  -3   5  -6    5.26    1.35
   3   5   6    4.53    1.98
  -5   5   6   17.60    3.25
   5  -5   6    7.58    2.55
   5   5  -6   14.67    2.85
  -5   5   6   10.55    2.84
  -5  -5  -6   15.83    3.24
   5   5  -6   18.44    3.97
   5  -5   6   12.70    2.34
  -5  -5  -6   14.59    3.28
  -5   5   6   10.91    1.99
   5  -5   6   16.51    2.66
   5   5   6   11.56    2.43
  -5   5  -6   18.36    3.45
   5   5   6    9.38    2.12
  -5  -5   6   10.88    2.30
  -5  -5   6   14.10    2.66
  -5   5  -6   12.21    2.60
  -5  -5   6   12.27    3.18
   5  -5  -6   13.65    2.64
  -7  -5  -6    6.73    2.32
  -7   5   6    8.89    2.46
   7  -5   6    8.26    1.95
  -7   5   6    6.05    1.35
   7  -5   6    5.52    2.06
  -7  -5  -6    5.16    2.10
  -7   5   6    4.16    1.88
   7   5  -6    7.12    2.26
   7  -5  -6    6.29    1.95
  -7   5  -6    2.23    1.53
   7   5   6    3.79    1.63
   7   5   6    4.86    1.86
  -7  -5   6    3.46    1.53
  -7   5  -6    9.80    2.26
  -7  -5   6    7.60    2.26
  -7  -5   6    6.07    2.49
   9  -5   6    3.91    1.87
  -9   5   6    1.46    1.30
   9  -5   6    4.04    1.48
  -9  -5  -6    3.67    2.04
  -9   5   6    5.50    2.24
   9   5  -6    8.76    2.34
  -9  -5  -6    4.81    2.27
   9   5   6    4.42    1.67
  -9  -5   6    2.88    1.74
  -9   5  -6    6.83    2.10
   9   5   6    6.71    2.01
   9  -5  -6    7.97    2.24
  -9  -5   6    2.96    1.82
  -9   5  -6    2.18    1.34
   9  -5  -6    5.19    1.97
  11  -5   6    9.45    2.73
  11  -5   6    0.79    1.10
 -11   5   6    0.01    1.22
 -11   5   6    3.40    1.81
  11   5  -6    0.65    1.21
 -11  -5  -6    2.60    1.85
 -11  -5  -6   -0.62    1.35
  11  -5  -6    0.43    1.02
 -11  -5   6    0.12    1.63
 -11   5  -6    1.85    1.24
  11  -5  -6    3.95    1.69
 -11  -5   6    0.14    1.37
  11   5   6    0.86    1.14
 -11   5  -6    3.35    1.54
 -13  -5  -6    0.64    1.58
  13  -5   6   -0.32    1.37
 -13   5   6    0.24    1.58
 -13  -5  -6   -0.12    1.32
  13   5  -6    0.03    1.05
 -13   5   6    0.16    1.02
 -13  -5   6    2.76    1.96
 -13  -5   6    0.88    1.57
 -13   5  -6   -0.20    0.92
  13  -5  -6    0.48    1.22
  13  -5  -6   -0.13    1.12
  13   5   6    0.21    1.10
 -13   5  -6   -1.71    0.94
 -15   5   6    0.45    1.32
 -15  -5  -6    0.45    1.46
  15   5  -6   -0.11    1.32
  15  -5   6   -1.04    1.22
 -15  -5   6    1.67    1.79
  15   5   6    0.90    1.37
 -15   5  -6    1.04    1.18
  15  -5  -6    0.33    1.25
  15  -5  -6    0.06    1.78
   0  -6   6   76.44    5.34
   0   6  -6   71.83    4.65
   0  -6   6   62.73    5.94
   0  -6  -6   81.32    6.62
   0   6   6   81.81    6.67
   0   6   6   72.28    5.10
   0   6  -6   59.14    6.62
   0  -6  -6   78.19    5.49
   0   6   6   61.62    5.85
   0   6  -6   79.42    5.84
   0  -6  -6   56.93    5.61
  -2   6   6   49.75    5.06
  -2  -6  -6   47.78    6.13
   2  -6   6   48.33    5.14
   2   6  -6   55.41    5.43
   2   6  -6   55.03    6.62
  -2   6   6   53.13    6.44
  -2  -6  -6   38.23    4.44
   2  -6   6   46.87    5.03
  -2   6   6   55.51    5.36
  -2  -6  -6   61.03    5.72
   2   6  -6   64.19    5.59
   2   6   6   53.39    5.69
  -2   6  -6   46.18    5.47
  -2   6  -6   48.21    3.60
   2  -6  -6   56.07    5.70
  -2  -6   6   47.01    5.04
  -2   6  -6   52.70    6.28
  -2  -6   6   60.71    5.67
   2   6   6   46.04    6.05
   2   6   6   47.62    5.25
   4  -6   6    0.69    1.09
  -4  -6  -6    4.20    1.73
   4  -6   6   -0.25    1.15
  -4   6   6    1.48    1.06
   4   6  -6    2.08    1.84
  -4   6   6    1.95    1.72
   4   6  -6    1.20    1.42
  -4  -6  -6    3.68    2.01
  -4  -6  -6    2.16    1.69
  -4   6   6    4.23    2.16
   4  -6  -6    4.48    1.80
   4   6   6   -0.07    1.16
  -4  -6   6    0.65    1.24
   4   6   6    0.84    1.40
  -4   6  -6    1.50    1.44
  -4  -6   6    1.99    1.59
  -4   6  -6    0.77    1.45
  -4  -6   6    1.96    1.24
  -6   6   6    0.88    1.01
   6   6  -6    1.57    1.35
  -6  -6  -6    3.49    1.99
  -6  -6  -6    2.49    1.94
  -6   6   6   -0.07    1.31
  -6   6   6    1.09    1.62
   6  -6   6    1.06    1.38
  -6   6  -6    0.97    1.29
   6  -6  -6    1.59    1.34
   6   6   6    0.54    1.13
   6   6   6    0.44    1.49
  -6  -6   6    1.20    1.36
  -6   6  -6    1.16    1.44
  -6  -6   6   -0.12    1.21
   8   6  -6    2.06    1.55
  -8  -6  -6    5.35    2.43
  -8   6   6    4.83    2.31
  -8   6   6    7.05    2.41
  -8  -6  -6    6.54    2.61
   8  -6   6    6.87    2.04
   8  -6  -6    4.70    2.02
  -8   6  -6   10.41    2.87
  -8  -6   6    7.84    2.88
   8   6   6    7.25    2.24
  -8  -6   6    6.91    2.71
   8   6   6    5.75    2.15
  -8   6  -6    8.85    2.37
 -10   6   6   19.56    3.78
  10   6  -6   29.04    4.45
 -10  -6  -6   28.81    5.08
 -10  -6  -6   31.54    4.98
  10  -6   6   29.16    3.81
  10  -6   6   14.63    3.65
 -10   6   6   34.50    5.30
  10   6   6   27.86    4.13
  10   6   6   32.13    4.26
 -10   6  -6   24.45    3.88
 -10  -6   6   27.02    4.46
  10  -6  -6   29.23    4.22
 -10   6  -6   40.23    5.09
 -10  -6   6   29.33    5.34
 -12  -6  -6   19.53    3.99
  12  -6   6   15.55    2.84
  12   6  -6   17.27    3.64
  12  -6   6   14.12    3.58
 -12   6   6   24.83    4.31
  12   6   6   27.81    4.33
 -12   6  -6   25.07    3.92
 -12   6  -6   21.56    3.67
 -12  -6   6   21.31    4.37
  12  -6  -6   24.24    3.89
  12  -6  -6   17.62    3.32
  14   6  -6   18.46    3.98
 -14  -6  -6   16.50    3.63
  14  -6   6   16.89    3.77
  14   6   6   22.32    3.88
  14  -6  -6   20.58    3.71
  14  -6  -6   26.50    4.11
 -14   6  -6   23.05    3.57
 -14  -6   6   14.67    3.61
  -1   7   6    6.90    2.19
   1  -7   6    5.92    2.21
  -1  -7  -6    5.20    2.16
  -1   7   6    5.07    2.32
  -1  -7  -6    9.02    2.63
   1  -7   6    1.14    1.34
   1   7  -6    3.30    1.72
  -1  -7  -6    5.16    2.70
   1   7  -6    1.41    1.84
  -1   7   6    4.17    1.82
   1   7   6    4.08    1.96
  -1  -7   6    5.42    2.06
  -1   7  -6    7.08    2.65
   1   7   6    7.25    4.31
  -1  -7   6    6.55    2.41
   1   7   6    3.65    1.85
  -1   7  -6    3.34    2.12
   1  -7  -6    6.23    2.40
   1  -7  -6    4.37    1.83
  -1   7  -6    5.24    1.92
  -3   7   6   -0.63    1.27
   3  -7   6    0.53    1.58
  -3  -7  -6    0.34    1.45
  -3  -7  -6    3.06    1.74
   3   7  -6    4.85    1.97
  -3  -7  -6    0.13    1.65
   3  -7   6    1.29    1.45
   3   7  -6    1.18    1.40
   3   7  -6    0.45    1.84
  -3   7   6    2.49    1.62
  -3  -7   6    2.58    1.88
   3   7   6    1.06    1.51
   3   7   6    0.29    1.31
  -3   7  -6    1.38    1.31
  -3   7  -6    1.40    1.84
   3  -7  -6    2.29    1.59
  -5  -7  -6    6.59    2.73
   5   7  -6    4.73    2.12
  -5   7   6    1.06    1.18
  -5   7   6    2.94    2.07
   5  -7   6    2.92    1.78
   5  -7   6    1.25    1.77
  -5   7   6    4.87    2.23
   5   7  -6    1.86    1.69
   5   7   6    3.02    1.88
  -5  -7   6    5.27    2.78
  -5  -7   6    2.07    1.80
  -5   7  -6    5.60    2.32
   5  -7  -6    2.70    1.71
   5   7   6   -0.23    1.30
  -5   7  -6    1.19    1.60
   7   7  -6    1.97    1.76
   7  -7   6    1.55    1.54
  -7   7   6    0.22    1.92
  -7  -7  -6   -1.01    1.37
  -7   7   6   -0.07    1.58
  -7  -7  -6    1.28    1.99
   7   7   6    2.56    1.75
  -7  -7   6    1.20    1.76
  -7   7  -6   -0.75    1.22
   7  -7  -6    2.81    1.94
   7   7   6   -0.29    1.47
  -9   7   6    2.94    1.97
   9  -7   6    5.81    2.22
  -9  -7  -6    1.09    2.04
   9   7  -6    5.07    2.39
  -9   7  -6    3.34    1.98
   9   7   6    5.17    2.40
   9  -7  -6    4.99    2.04
   9   7   6    6.92    2.60
  11  -7   6    0.42    1.49
 -11   7   6   -0.24    1.58
  11   7  -6    1.20    1.64
 -11  -7  -6   -1.78    1.61
  11  -7  -6   -0.49    1.33
  11   7   6    0.14    1.58
 -11  -7   6    0.34    1.80
  11   7   6   -1.03    1.23
  11  -7  -6   -0.47    1.51
 -11   7  -6    0.41    1.43
   0  -8   6   26.45    4.31
   0   8   6   28.55    4.37
   0   8  -6   20.72    3.40
   0  -8  -6   21.88    3.82
   0  -8  -6   35.54    5.19
   2  -8   6    4.10    2.34
   2   8  -6    1.92    1.57
  -2  -8  -6    0.33    1.72
  -2   8   6    0.51    1.28
  -2  -8  -6   -0.44    1.33
   2   8   6   -0.75    1.43
   2   8   6    3.62    1.81
  -2  -8   6   -0.28    1.63
  -2   8  -6    0.36    1.86
   2  -8  -6    1.15    1.84
   2  -8  -6    3.88    2.30
   4   8  -6    1.51    2.32
  -4   8   6   -0.84    1.19
   4  -8   6    0.99    1.50
   4  -8   6   -0.40    1.52
   4   8  -6    0.51    1.52
  -4   8  -6    0.22    1.82
   4  -8  -6    1.34    1.67
   4   8   6    1.38    1.93
   4   8   6    1.59    1.99
  -4  -8   6    1.59    1.98
   6   8  -6    3.47    1.99
  -6   8   6   -0.60    1.58
   6   8  -6   -0.30    1.56
   6  -8   6    0.40    1.80
   6   8   6    1.10    1.67
  -6   8  -6    0.46    1.73
   6   8   6   -0.10    1.58
   6  -8  -6    2.62    2.09
  -1   0  -7    3.18    1.22
   1   0  -7    3.51    1.30
   1   0  -7    3.23    0.98
   1   0   7    3.24    0.98
   1   0   7    3.16    1.26
  -1   0   7    4.83    1.07
   1   0   7    4.19    1.09
  -1   0  -7    4.99    1.10
  -1   0  -7    3.05    0.92
   1   0  -7    7.54    1.40
  -1   0   7    7.39    1.69
  -1   0   7    7.36    1.43
  -3   0  -7   54.76    3.65
   3   0  -7   51.76    3.22
  -3   0   7   56.41    3.30
   3   0   7   49.68    2.97
  -3   0   7   54.93    3.57
   3   0   7   47.46    3.39
  -3   0  -7   52.91    3.29
   3   0  -7   52.58    3.84
  -3   0   7   48.14    3.10
  -3   0   7   52.21    3.80
  -3   0  -7   53.81    2.77
  -3   0  -7   53.85    2.78
   3   0   7   54.26    3.79
   5   0   7   25.78    2.86
  -5   0   7   25.27    3.17
   5   0   7   24.49    2.54
  -5   0  -7   19.46    2.41
  -5   0   7   20.31    2.29
  -5   0   7   22.39    2.38
   5   0   7   23.56    2.35
  -5   0   7   22.93    3.07
  -5   0  -7   22.02    2.76
   5   0  -7   17.65    2.68
   5   0  -7   20.33    2.53
   5   0   7   24.01    3.00
   7   0  -7   98.32    5.63
  -7   0   7   94.88    5.69
  -7   0   7  106.06    5.50
   7   0   7   94.33    4.83
   7   0   7   95.62    4.49
   7   0  -7  101.43    5.69
  -7   0   7   97.31    4.49
  -7   0  -7   90.76    4.60
   7   0   7  100.19    4.32
  -7   0  -7  103.02    4.99
   7   0  -7   91.34    4.93
  -7   0   7   97.58    4.64
   7   0   7   98.40    5.07
  -9   0  -7    1.40    0.77
  -9   0   7    2.82    0.78
  -9   0  -7    2.71    1.01
   9   0   7    3.20    0.91
   9   0  -7    2.97    1.26
  -9   0  -7    4.31    1.66
   9   0   7    2.25    0.95
   9   0  -7    4.83    1.62
   9   0   7    2.22    1.03
  -9   0   7    1.08    0.90
  -9   0   7    4.01    1.48
  11   0   7    1.47    0.81
 -11   0  -7    2.22    0.77
  11   0  -7    2.26    1.30
 -11   0   7    1.23    0.98
 -11   0  -7    1.06    0.66
  11   0  -7    2.57    1.46
 -11   0   7    0.60    0.83
  11   0  -7    1.24    0.91
  11   0   7    1.76    1.05
 -11   0  -7    1.63    1.34
 -13   0   7    4.49    1.56
  13   0   7    4.33    1.19
 -13   0  -7    2.63    1.89
  13   0  -7    6.85    2.08
  13   0   7    3.62    1.15
  13   0  -7    1.76    1.32
  13   0  -7    6.01    1.75
 -13   0   7    5.15    1.81
 -13   0  -7    6.43    1.19
  15   0  -7    5.75    2.06
  15   0  -7   11.27    2.71
 -15   0   7    7.60    2.11
  15   0   7    5.69    1.28
  15   0   7    9.35    1.76
 -15   0  -7   12.61    1.57
 -15   0   7   12.81    2.75
  15   0  -7   13.18    2.54
 -15   0  -7   15.15    3.85
  17   0   7   16.54    2.14
  17   0  -7   17.19    2.97
 -17   0   7   13.06    2.80
  17   0  -7   16.25    3.50
 -17   0  -7   17.49    4.67
 -17   0   7   21.09    3.55
  17   0   7   15.82    2.25
 -19   0  -7    8.07    3.28
  19   0   7    5.97    1.49
 -19   0   7    9.12    2.52
  19   0  -7    8.25    2.65
 -19   0   7    3.49    1.63
 -19   0   7    5.67    1.82
   0   1  -7   25.37    3.04
   0   1   7   19.89    2.39
   0   1  -7   22.06    2.46
   0   1  -7   31.68    2.84
   0  -1  -7   29.62    3.60
   0  -1   7   26.14    2.63
   0  -1   7   30.89    2.85
   0  -1   7   24.80    2.32
   0   1   7   26.48    3.29
   0  -1  -7   26.96    2.65
   0  -1  -7   19.39    2.36
   0   1   7   26.09    2.66
   0  -1   7   16.29    2.51
   2   1  -7   31.51    2.90
   2   1  -7   36.26    3.72
  -2   1   7   32.06    3.07
  -2   1   7   26.16    3.18
  -2  -1  -7   31.42    3.15
   2  -1   7   38.84    3.24
   2  -1   7   36.52    3.82
  -2  -1  -7   32.17    2.28
   2  -1   7   31.84    2.80
   2  -1   7   31.54    3.48
  -2   1   7   33.22    3.05
  -2  -1  -7   38.24    3.91
   2   1  -7   32.87    3.70
  -2  -1  -7   31.95    2.44
  -2  -1   7   33.78    3.11
  -2   1  -7   30.68    2.25
  -2  -1   7   32.70    3.00
  -2   1  -7   34.25    2.60
   2   1   7   31.92    3.55
  -2   1  -7   31.36    2.30
   2   1   7   35.67    2.55
  -2   1  -7   34.46    3.67
  -2  -1   7   35.77    2.59
   2   1   7   37.36    3.27
   2  -1  -7   27.69    3.00
   2   1   7   33.79    2.70
  -2   1  -7   29.65    2.09
  -2  -1   7   29.25    3.53
   2  -1  -7   23.74    2.60
   2  -1  -7   26.74    3.37
  -4   1   7   23.35    2.51
   4  -1   7   20.49    2.81
  -4   1   7   22.04    2.55
  -4  -1  -7   18.77    1.50
   4  -1   7   19.66    2.15
   4   1  -7   25.13    2.75
  -4  -1  -7   17.64    1.47
  -4   1   7   20.53    3.09
  -4  -1  -7   19.90    2.57
  -4  -1  -7   21.76    2.41
   4  -1   7   18.67    2.54
   4   1  -7   17.31    2.79
   4  -1   7   16.57    2.23
  -4  -1  -7   16.74    2.53
  -4  -1   7   23.45    2.62
   4  -1  -7   24.46    3.47
   4   1   7   20.48    2.27
  -4   1  -7   17.30    2.20
   4   1   7   18.27    2.46
   4  -1  -7   19.06    2.37
   4   1   7   20.67    2.77
  -4  -1   7   26.90    3.58
  -4  -1   7   22.07    2.44
   4   1   7   20.56    2.27
  -4   1  -7   15.87    2.25
   4   1   7   23.89    3.05
  -4  -1   7   19.29    2.38
   6   1  -7   18.21    2.45
  -6   1   7   16.73    2.10
   6  -1   7   20.75    2.39
  -6  -1  -7   18.38    2.64
  -6   1   7   17.85    2.74
  -6   1   7   19.43    3.01
   6   1  -7   18.86    2.81
  -6  -1  -7   16.63    2.47
   6   1  -7   18.39    2.64
  -6  -1  -7   14.42    2.05
   6  -1   7   23.88    2.77
   6  -1   7   20.46    2.10
  -6   1   7   22.34    2.62
   6  -1  -7   20.49    3.08
  -6   1  -7   16.24    2.30
  -6  -1   7   20.95    2.84
  -6  -1   7   20.82    2.51
  -6  -1   7   21.97    2.46
   6  -1  -7   19.36    2.55
   6   1   7   21.75    2.34
   6   1   7   23.07    2.96
  -6   1  -7   20.23    2.32
   6  -1  -7   19.19    2.97
  -6  -1   7   22.00    3.13
   6   1   7   23.26    2.67
  -8   1   7    5.55    1.63
  -8   1   7    4.63    1.02
  -8  -1  -7    4.93    1.39
   8  -1   7    7.25    1.27
   8  -1   7    5.31    1.29
   8   1  -7    5.82    1.49
   8   1  -7    3.07    1.46
  -8  -1  -7    5.38    1.30
  -8  -1  -7    5.96    1.78
  -8   1   7    4.12    1.53
   8  -1   7    4.60    1.03
   8  -1   7    4.76    1.37
   8  -1   7    4.16    1.00
  -8  -1   7    4.53    1.54
  -8  -1   7    7.04    1.37
  -8  -1   7    7.92    1.53
   8  -1  -7    6.24    1.84
   8   1   7    4.74    1.16
   8  -1  -7    6.70    1.66
  -8  -1   7    4.17    1.59
  -8   1  -7    2.49    0.88
  -8   1  -7    5.39    1.29
   8   1   7    4.37    1.44
   8   1   7    5.63    1.27
 -10  -1  -7   14.67    2.20
  10   1  -7   10.83    2.46
 -10  -1  -7    8.25    2.27
  10   1  -7    9.66    1.91
  10  -1   7   14.24    1.91
  10  -1   7    7.56    1.42
 -10  -1  -7    9.92    1.68
 -10   1   7    8.17    2.13
 -10   1   7   11.12    2.41
  10  -1  -7   11.71    2.49
  10   1   7   12.78    1.81
 -10   1  -7   11.56    1.64
  10  -1  -7   17.77    2.66
 -10  -1   7    5.55    1.79
 -10  -1   7   16.92    2.97
 -10  -1   7   12.25    1.50
 -10   1  -7   12.23    1.72
  10   1   7   12.83    2.13
  12  -1   7    0.75    0.71
 -12   1   7    0.70    1.00
  12   1  -7    2.17    1.70
  12   1  -7    1.42    0.99
 -12   1   7    0.37    1.01
 -12  -1  -7    1.38    0.92
 -12  -1  -7    0.51    0.65
  12  -1   7    0.46    0.66
 -12  -1  -7    1.31    1.45
 -12  -1   7    1.19    1.22
  12  -1  -7    0.44    1.08
  12  -1  -7    0.96    0.96
 -12  -1   7    1.40    1.11
 -12   1  -7    0.35    0.54
  12   1   7    0.63    0.92
 -12   1  -7    1.21    0.65
 -12   1  -7    2.40    1.41
  14  -1   7    0.35    0.77
 -14  -1  -7    5.85    2.55
 -14  -1  -7    4.13    1.16
  14   1  -7    2.18    1.40
  14  -1   7    5.03    1.13
 -14   1   7    2.00    1.27
 -14   1   7    1.24    1.03
  14   1  -7    2.73    1.74
 -14  -1   7    1.21    1.05
  14   1   7    2.30    1.29
  14  -1  -7    3.52    1.67
 -14  -1   7    1.91    1.47
  14  -1  -7    5.03    1.61
 -14   1  -7    3.26    2.10
 -14   1  -7    3.61    0.86
 -16   1   7   -0.31    1.01
  16   1  -7    0.94    1.25
 -16   1   7    0.29    0.97
  16   1  -7    0.83    1.20
 -16  -1  -7    2.05    2.29
  16  -1   7    0.76    0.84
 -16  -1  -7    0.50    0.76
  16  -1   7    0.74    0.77
  16  -1  -7   -0.59    0.99
 -16   1  -7    1.63    2.15
  16   1   7    0.65    1.10
  16  -1  -7   -0.20    1.14
 -16  -1   7    0.26    0.87
 -16  -1   7    0.59    1.15
 -18   1   7    1.85    1.33
  18  -1   7    0.38    0.84
  18   1  -7    0.67    1.86
 -18   1   7    1.87    1.46
  18   1  -7    0.96    1.20
  18  -1   7    2.29    0.96
 -18  -1  -7    1.13    0.81
 -18  -1  -7    1.20    1.76
 -18  -1   7    0.31    0.87
 -18  -1   7    1.30    1.36
 -18   1  -7    2.52    2.41
 -18  -1   7   -0.55    1.06
  18  -1  -7   -0.13    1.26
 -18  -1   7    0.30    1.30
 -20   1   7   -0.23    1.07
  20   1  -7   -0.72    1.72
 -20  -1  -7    0.34    1.83
  20  -1   7   -0.18    0.90
  20   1  -7    0.17    1.66
  20  -1   7   -0.45    0.74
  20   1   7   -0.46    0.98
 -20   1  -7   -0.10    2.01
  20  -1  -7   -0.84    1.36
 -20  -1   7    1.26    1.38
  -1  -2  -7    4.37    1.66
   1  -2   7    6.20    1.07
  -1  -2  -7    6.21    1.51
   1  -2   7    5.72    1.67
   1  -2   7    7.64    1.48
   1  -2   7   10.46    1.66
  -1   2   7    6.53    1.73
  -1  -2  -7    5.30    1.63
  -1   2   7    5.60    1.33
  -1  -2  -7    5.55    1.30
   1   2  -7   10.08    1.73
  -1   2   7    7.45    1.57
   1  -2   7    8.05    1.83
   1   2  -7    4.54    1.39
   1   2  -7    5.49    1.74
  -1  -2   7    6.44    1.42
   1  -2  -7    5.47    1.44
   1   2   7    7.52    1.91
  -1  -2   7    5.87    1.18
  -1   2  -7    5.43    1.35
   1   2   7    5.40    1.51
  -1   2  -7    8.45    2.01
   1   2   7    3.34    1.08
   1  -2  -7    5.63    1.59
  -1  -2   7   11.09    2.37
  -1   2  -7    4.69    1.14
  -1  -2   7    6.63    1.40
  -1   2  -7    3.86    1.26
   1  -2  -7    3.83    1.22
   1   2   7    8.39    1.67
  -3   2   7   60.15    4.42
   3   2  -7   59.37    4.49
  -3  -2  -7   62.74    3.67
  -3  -2  -7   68.58    4.51
   3   2  -7   66.03    3.83
  -3   2   7   60.49    3.67
   3  -2   7   67.44    4.28
   3  -2   7   66.72    3.62
   3  -2   7   69.52    4.18
   3   2  -7   62.02    4.33
   3   2  -7   58.35    3.71
  -3  -2  -7   62.58    3.45
   3  -2   7   60.66    2.76
   3  -2   7   70.72    4.56
  -3  -2  -7   66.92    4.12
  -3   2   7   63.99    3.67
  -3   2   7   65.53    4.75
   3  -2   7   59.70    3.53
  -3   2  -7   64.65    4.27
  -3   2  -7   65.26    3.17
   3   2   7   65.62    4.19
  -3  -2   7   66.18    3.85
  -3  -2   7   65.17    3.78
   3   2   7   56.51    4.14
   3   2   7   63.17    3.80
  -3  -2   7   70.13    3.94
   3   2   7   71.81    3.86
  -3  -2   7   55.35    4.32
   3  -2  -7   61.25    4.16
   3   2   7   67.30    4.52
   3  -2  -7   61.23    3.78
   3  -2  -7   61.05    4.47
  -3   2  -7   63.63    3.94
  -5  -2  -7   88.68    4.72
  -5   2   7   98.81    4.75
  -5   2   7   81.53    5.45
  -5  -2  -7   94.23    5.45
   5  -2   7  100.00    5.50
   5   2  -7   95.17    4.98
   5   2  -7   94.05    5.22
   5  -2   7   95.04    4.95
  -5  -2  -7   94.58    5.17
   5   2  -7   94.67    5.82
  -5   2   7   92.08    4.59
  -5   2   7  103.63    5.41
   5  -2   7   92.63    4.46
  -5  -2   7   93.60    4.89
  -5   2  -7   98.34    4.96
   5  -2  -7   91.86    4.91
  -5   2  -7   84.12    4.92
  -5  -2   7   90.73    5.71
  -5  -2   7   86.81    4.66
   5  -2  -7   94.87    5.73
   5   2   7   93.21    5.13
  -5  -2   7   94.39    5.41
   5  -2  -7   92.23    6.58
   5   2   7   97.59    5.66
   5   2   7   89.55    4.66
   5   2   7   96.09    4.69
   7  -2   7   94.01    4.36
  -7  -2  -7   91.94    5.20
  -7  -2  -7   91.06    5.36
   7   2  -7   98.39    5.73
   7   2  -7   99.66    5.18
   7  -2   7   97.81    4.82
   7   2  -7   94.94    5.96
  -7   2   7   87.64    4.95
  -7   2   7  115.28    6.33
   7  -2   7   87.66    5.17
  -7   2   7   97.14    4.54
  -7  -2  -7   93.79    5.42
  -7   2   7   94.93    5.47
   7  -2  -7  100.93    5.22
   7   2   7   93.32    4.79
  -7  -2   7   91.57    4.82
   7   2   7   97.01    5.19
   7  -2  -7   92.48    5.79
  -7   2  -7   89.55    4.77
  -7  -2   7   96.62    4.82
  -7  -2   7  103.08    5.80
   7   2   7   97.43    5.73
  -7   2  -7   90.90    4.90
  -7  -2   7   93.36    5.94
   9   2  -7   12.82    2.80
   9  -2   7    7.49    1.70
   9   2  -7    7.07    1.73
  -9  -2  -7   11.42    2.18
  -9   2   7    7.85    2.07
  -9  -2  -7    6.40    1.88
   9  -2   7   11.10    1.58
  -9   2   7   10.96    2.23
   9  -2   7    7.50    1.34
  -9  -2  -7   11.16    2.16
   9  -2   7   11.16    2.48
  -9  -2   7    7.58    1.53
   9   2   7   14.04    2.52
  -9  -2   7    5.29    1.89
   9  -2  -7    8.45    1.86
   9  -2  -7   11.43    2.48
  -9   2  -7   11.58    1.85
  -9   2  -7    9.63    1.68
  -9  -2   7   11.60    2.51
   9   2   7   12.93    2.04
  11   2  -7   15.89    3.19
 -11  -2  -7   15.18    3.25
 -11   2   7   14.66    2.85
  11  -2   7   10.66    1.77
 -11   2   7   14.93    2.78
 -11  -2  -7   16.93    2.60
  11   2  -7   18.80    2.86
 -11  -2  -7   17.42    2.78
  11  -2   7   18.40    2.41
  11   2   7   21.19    2.58
 -11   2  -7   19.68    2.33
  11   2   7   18.86    2.79
 -11  -2   7   12.12    2.59
  11  -2  -7   10.47    2.38
 -11  -2   7   13.96    2.68
  11  -2  -7   16.80    2.58
 -11  -2   7   17.24    2.95
 -11   2  -7   19.67    2.16
 -13   2   7   19.61    3.30
 -13   2   7   16.43    2.91
  13  -2   7   21.13    2.43
 -13  -2  -7   20.29    2.71
  13   2  -7   17.46    3.47
 -13  -2  -7   17.58    2.66
 -13  -2  -7   15.24    3.42
  13   2  -7   18.45    2.96
  13  -2   7   10.65    1.71
 -13   2  -7   22.16    2.25
  13  -2  -7   11.17    2.36
  13  -2  -7   17.04    3.35
 -13  -2   7   17.15    3.25
  13   2   7   18.96    2.98
 -13  -2   7   12.92    2.87
 -13  -2   7   17.65    3.09
 -13  -2   7   14.24    3.09
 -15  -2  -7   16.44    2.43
 -15  -2  -7   18.64    3.96
 -15   2   7   15.66    3.09
 -15   2   7   14.77    2.83
  15   2  -7   15.99    2.75
  15  -2   7   24.07    2.58
  15  -2   7   11.01    1.68
  15   2  -7   25.81    4.24
 -15   2  -7   17.92    1.38
  15  -2  -7   16.93    3.44
 -15  -2   7   17.31    3.32
  15   2   7   23.50    3.51
 -15   2  -7   19.28    4.26
 -15  -2   7   19.13    3.33
  15  -2  -7   20.56    3.19
 -15  -2   7   17.30    3.44
 -17  -2  -7   18.87    2.57
  17   2  -7   31.39    5.06
 -17   2   7   23.92    3.53
 -17  -2  -7   27.56    5.48
  17  -2   7   28.58    2.38
  17   2  -7   27.23    3.72
 -17   2   7   23.55    3.61
  17  -2  -7   27.81    3.80
  17  -2  -7   22.10    3.99
 -17  -2   7   27.44    4.09
 -17   2  -7   26.69    5.63
 -17  -2   7   20.64    3.76
  17   2   7   26.46    3.62
  19  -2   7    5.30    1.48
  19   2  -7    9.10    3.15
  19  -2   7    1.30    1.11
  19   2  -7    6.88    2.32
 -19  -2  -7    6.27    2.99
 -19  -2  -7    6.14    1.48
 -19   2   7    4.12    1.69
  19  -2  -7    8.28    2.91
  19   2   7    5.87    2.06
 -19  -2   7    4.45    2.04
 -19   2  -7    4.28    2.70
   0   3   7   48.25    3.44
   0  -3  -7   45.36    3.68
   0   3   7   55.26    4.37
   0  -3   7   47.46    3.36
   0   3  -7   42.63    3.06
   0  -3  -7   47.69    3.38
   0  -3  -7   47.11    4.50
   0  -3  -7   46.89    4.96
   0   3  -7   51.17    5.16
   0   3   7   46.87    3.42
   0  -3   7   45.85    3.31
   0   3  -7   53.57    3.70
   0  -3   7   52.61    4.19
   0   3  -7   43.94    4.25
   2  -3   7    0.93    0.84
  -2  -3  -7   -0.24    0.82
   2   3  -7    0.01    0.56
  -2  -3  -7   -0.66    0.57
   2   3  -7   -0.48    0.66
  -2   3   7    0.76    0.74
   2   3  -7   -0.17    0.58
   2  -3   7    0.53    0.74
   2   3  -7    0.38    1.01
  -2   3   7    0.26    0.90
  -2   3   7   -0.10    0.90
  -2   3   7    0.16    0.59
   2  -3   7    0.52    1.19
   2  -3   7   -0.11    0.76
   2  -3   7   -0.03    0.69
  -2  -3  -7   -0.03    0.75
  -2  -3  -7   -0.68    0.47
  -2   3  -7   -0.44    0.49
   2  -3  -7    0.33    0.81
   2   3   7    0.02    0.59
   2   3   7    0.71    1.06
  -2   3  -7   -0.16    0.58
  -2  -3   7   -0.25    0.82
  -2  -3   7    0.18    0.71
   2  -3  -7    0.50    0.69
   2   3   7    0.50    0.70
  -2   3  -7   -0.02    0.78
  -2   3  -7   -0.45    0.67
  -2  -3   7   -0.52    0.61
  -4   3   7    1.26    0.84
  -4  -3  -7    0.60    0.97
  -4   3   7    2.09    0.98
   4   3  -7    2.21    1.04
   4  -3   7    3.99    1.80
   4   3  -7    4.08    1.62
  -4  -3  -7    1.71    1.09
   4  -3   7    3.62    1.19
  -4   3   7    1.85    1.34
   4  -3   7    3.17    1.08
  -4   3   7    2.94    1.33
   4   3  -7    2.13    1.06
  -4  -3  -7    2.65    0.99
   4   3   7    2.72    1.19
   4   3   7    1.56    0.98
  -4   3  -7    1.97    1.07
   4   3   7    4.83    1.85
  -4  -3   7    1.51    1.33
  -4  -3   7    3.15    1.17
  -4  -3   7    2.95    1.19
  -4   3  -7    3.14    0.77
  -4   3  -7    3.19    1.41
  -4  -3   7    1.11    1.20
   4  -3  -7    1.21    0.87
   4   3   7    0.29    0.95
   4  -3  -7    1.52    1.09
  -6  -3  -7    3.44    1.42
  -6  -3  -7    9.21    2.16
  -6   3   7    6.05    1.35
  -6   3   7    6.52    1.49
   6  -3   7    4.34    1.51
   6   3  -7    7.59    1.92
  -6   3   7    5.44    1.83
  -6   3   7    2.01    1.25
   6  -3   7    8.24    1.67
   6   3  -7    4.35    1.35
   6   3  -7    5.25    1.94
  -6   3  -7    7.25    1.77
   6   3   7    6.77    2.05
  -6  -3   7    2.88    1.12
  -6  -3   7    4.19    1.70
  -6   3  -7    2.72    1.25
  -6  -3   7    7.06    1.62
   6   3   7    5.65    1.53
  -6  -3   7    6.19    2.01
   6  -3  -7    5.19    1.48
   6   3   7    4.67    1.67
   6   3   7    6.44    1.64
  -8  -3  -7   64.14    4.63
  -8  -3  -7   73.39    5.09
   8   3  -7   67.98    4.56
   8  -3   7   78.99    4.70
  -8   3   7   75.56    5.05
   8  -3   7   73.61    4.88
   8  -3   7   73.16    4.01
  -8   3   7   67.66    5.27
  -8   3   7   70.03    3.73
  -8  -3   7   72.34    5.24
  -8  -3   7   77.41    5.65
  -8  -3   7   74.12    4.43
  -8  -3   7   79.35    4.42
   8  -3  -7   77.81    4.78
  -8   3  -7   73.67    4.41
   8   3   7   69.44    4.85
   8  -3  -7   75.67    5.43
  -8  -3   7   74.91    5.57
   8   3   7   75.87    5.20
   8   3   7   75.35    4.51
  -8   3  -7   72.12    4.59
 -10   3   7    5.64    2.02
 -10   3   7    4.47    1.59
  10   3  -7    5.74    1.78
  10  -3   7    3.82    1.47
  10  -3   7    8.15    1.60
 -10  -3  -7    3.21    1.61
 -10  -3  -7    6.40    1.79
 -10  -3  -7    2.32    1.38
 -10   3  -7    4.16    1.30
 -10  -3   7    1.61    1.20
 -10   3  -7    3.97    1.34
  10   3   7    4.48    1.44
 -10  -3   7    5.18    1.27
  10  -3  -7    3.34    1.42
  10  -3  -7    4.27    1.73
 -10  -3   7    2.97    1.57
  10   3   7    4.38    1.77
 -10  -3   7    2.75    1.51
  12   3  -7    7.45    2.07
 -12   3   7    5.26    1.97
 -12  -3  -7    7.32    2.02
 -12   3   7    7.62    2.28
 -12  -3  -7    7.79    2.04
  12  -3   7    7.50    1.81
 -12  -3  -7    7.14    2.43
  12   3   7   10.56    2.16
 -12  -3   7   10.79    2.84
 -12   3  -7    8.31    1.56
 -12  -3   7    9.31    2.60
  12   3   7    9.28    2.36
 -12  -3   7    4.65    1.95
  12  -3  -7    8.70    2.00
  12  -3  -7    8.36    2.59
 -12   3  -7    8.39    1.59
 -14  -3  -7    2.19    1.98
 -14  -3  -7    2.85    1.45
 -14   3   7    5.51    2.08
 -14   3   7    2.27    1.63
  14   3  -7    2.96    1.50
 -14  -3  -7    0.59    1.03
  14  -3   7    3.21    1.35
  14   3   7    1.69    1.28
  14  -3  -7    4.71    1.78
  14   3   7    4.73    2.02
 -14  -3   7    3.62    1.80
 -14  -3   7    5.82    2.32
 -14   3  -7    4.17    1.13
  14  -3  -7    6.48    2.49
 -16   3   7    1.07    1.49
  16  -3   7   -0.95    1.01
  16   3  -7    0.85    1.16
 -16  -3  -7   -0.96    0.95
 -16   3   7   -1.45    0.80
 -16  -3  -7   -0.43    1.09
  16  -3  -7   -0.14    1.08
 -16  -3   7    1.04    1.32
  16   3   7    1.82    1.80
  16  -3  -7   -0.97    1.14
 -16  -3   7    0.80    1.61
 -16   3  -7   -1.03    1.17
 -16   3  -7   -0.42    0.58
 -18   3   7   18.49    3.50
 -18  -3  -7   16.56    2.78
  18   3  -7   19.27    3.38
  18   3   7   16.28    3.38
 -18  -3   7   17.57    3.71
 -18   3  -7   17.61    4.74
  18  -3  -7   25.07    4.56
  -1  -4  -7   24.36    3.58
   1   4  -7   33.30    4.22
  -1  -4  -7   23.15    3.68
  -1   4   7   26.58    3.24
  -1  -4  -7   22.94    3.04
  -1   4   7   28.53    3.42
  -1   4   7   32.44    4.06
   1  -4   7   26.67    3.37
  -1   4   7   31.21    4.49
   1   4  -7   23.63    3.82
   1  -4   7   23.07    3.02
   1   4  -7   27.68    3.35
  -1  -4   7   32.58    3.69
   1  -4  -7   22.22    2.92
  -1   4  -7   24.03    3.82
  -1   4  -7   29.51    3.82
   1   4   7   32.08    3.59
  -1  -4   7   33.41    3.83
  -1  -4   7   28.33    4.10
   1   4   7   22.85    3.06
   1   4   7   29.14    4.18
  -1   4  -7   29.49    3.21
   1  -4  -7   24.64    3.80
  -3  -4  -7   10.77    2.44
   3   4  -7   10.40    2.66
   3   4  -7   12.24    3.01
  -3   4   7    8.13    2.10
  -3  -4  -7    9.05    2.32
  -3  -4  -7   13.15    2.22
   3  -4   7    8.94    2.40
   3   4  -7   10.10    2.11
  -3   4   7    4.89    1.43
  -3   4   7    6.27    2.01
   3  -4   7   12.35    2.18
  -3   4   7    9.29    1.86
   3  -4   7   12.82    2.36
   3   4   7    9.37    2.08
  -3   4  -7    8.73    1.50
  -3   4  -7    9.29    2.22
  -3   4  -7   11.96    2.69
   3  -4  -7    9.71    2.06
   3  -4  -7    7.71    2.22
  -3  -4   7    7.48    2.23
  -3  -4   7   13.18    2.33
   3   4   7    9.70    2.76
  -3  -4   7    9.78    2.04
   3   4   7    9.17    1.99
   5  -4   7    0.56    1.17
  -5   4   7   -0.01    0.68
   5   4  -7    0.58    1.20
   5  -4   7   -0.05    1.19
   5  -4   7    1.54    1.02
  -5  -4  -7    0.67    1.24
   5   4  -7    1.69    0.99
   5   4  -7   -0.20    0.90
  -5   4   7   -0.11    0.68
  -5   4   7    0.29    1.08
  -5  -4  -7    0.91    1.08
  -5   4   7    0.40    1.13
   5  -4  -7   -0.77    0.70
  -5   4  -7   -0.16    0.92
  -5  -4   7    0.37    0.99
   5   4   7   -0.10    0.73
  -5  -4   7    0.38    0.80
  -5  -4   7    0.15    0.84
  -5  -4   7    1.16    1.27
   5   4   7   -0.63    0.87
  -5   4  -7    0.60    1.08
  -7   4   7    1.27    1.27
   7  -4   7    0.82    1.26
   7  -4   7    0.19    0.85
  -7   4   7    0.09    1.03
   7   4  -7    0.32    0.86
  -7  -4  -7    0.82    1.33
  -7  -4  -7    0.75    1.30
  -7   4   7    1.15    0.87
  -7  -4   7    0.32    1.01
  -7   4  -7    0.07    0.86
   7   4   7   -0.49    0.93
   7  -4  -7    0.55    0.96
  -7   4  -7    1.71    1.20
  -7  -4   7    1.19    0.96
   7   4   7    1.29    1.01
  -7  -4   7   -0.62    0.77
  -7  -4   7    0.13    1.00
  -9  -4  -7   20.47    3.71
  -9   4   7   19.95    3.44
  -9  -4  -7   23.68    3.63
  -9   4   7   20.30    3.55
   9  -4   7   13.26    2.60
   9   4  -7   16.95    2.88
   9  -4   7   22.04    2.83
   9   4   7   16.39    3.20
   9   4   7   22.17    3.22
  -9  -4   7   12.08    2.16
  -9   4  -7   18.78    2.85
  -9  -4   7   14.15    3.19
   9  -4  -7   19.15    3.03
  -9  -4   7   18.80    3.46
  -9   4  -7   22.33    3.28
 -11  -4  -7    5.16    1.83
  11  -4   7    5.04    1.83
  11   4  -7    7.63    2.03
 -11  -4  -7    7.86    2.39
 -11   4   7    6.62    2.36
 -11   4   7    6.19    1.99
 -11   4  -7    6.85    1.70
  11  -4  -7    9.71    2.22
  11   4   7    7.94    2.13
 -11  -4   7    4.53    2.05
 -11  -4   7    7.88    2.39
  11   4   7    8.60    2.70
 -11   4  -7    7.70    1.85
 -13   4   7    6.90    2.14
 -13  -4  -7    3.75    1.80
  13  -4   7    4.75    1.76
 -13  -4  -7    9.03    2.41
 -13   4   7    3.81    1.73
  13   4  -7    6.39    2.14
 -13  -4   7    8.17    2.47
  13  -4  -7   11.56    3.17
  13   4   7    8.31    2.13
 -13   4  -7    1.82    1.08
  13   4   7    5.03    2.13
 -13  -4   7    5.34    2.24
  13  -4  -7    5.54    1.85
 -15  -4  -7    0.10    1.23
 -15  -4  -7    0.34    1.32
 -15   4   7    2.26    1.63
  15  -4   7    0.01    1.37
 -15   4   7    1.86    1.43
  15   4  -7    1.25    1.35
  15   4   7   -0.28    1.15
 -15   4  -7    1.47    0.98
  15   4   7    1.54    1.80
  15  -4  -7    2.23    1.70
  15  -4  -7    0.51    1.16
 -15  -4   7    0.13    1.44
  17  -4   7   -0.01    1.32
  17   4  -7    1.51    1.42
 -17   4   7   -0.07    1.09
 -17  -4  -7    0.37    1.08
  17   4   7    1.59    1.79
 -17  -4   7    1.24    1.70
  17  -4  -7   -0.29    1.43
 -17   4  -7    0.39    0.78
  17  -4  -7   -0.27    1.51
   0  -5  -7    7.92    2.04
   0   5   7   10.80    2.45
   0  -5   7   11.27    2.41
   0   5   7    8.61    2.78
   0  -5   7    5.73    1.81
   0   5   7   14.63    2.70
   0  -5  -7   12.55    3.07
   0   5  -7   11.56    2.23
   0   5  -7    8.27    2.58
   0   5  -7    9.87    2.59
  -2  -5  -7    8.52    2.50
  -2   5   7   11.08    3.21
   2   5  -7   11.87    3.16
  -2   5   7   11.49    2.78
  -2   5   7    7.58    1.96
  -2  -5  -7    6.15    1.86
   2  -5   7    8.36    2.07
   2   5  -7   11.69    2.45
   2  -5   7    3.78    1.65
  -2  -5  -7    6.53    2.19
   2   5  -7   12.70    3.02
  -2   5   7    7.78    2.07
   2   5   7    8.34    2.15
  -2   5  -7   10.56    2.66
  -2   5  -7    9.98    2.68
   2  -5  -7   12.51    3.03
   2   5   7    9.24    2.07
   2  -5  -7    7.62    2.05
  -2   5  -7    9.29    1.86
  -2  -5   7   10.35    2.84
   2  -5  -7    8.23    2.13
  -2  -5   7    5.01    1.59
  -2  -5   7    8.39    2.15
   2   5   7   10.97    3.05
  -4  -5  -7    0.29    1.14
   4  -5   7    4.03    1.72
  -4   5   7    1.14    1.53
  -4   5   7    4.07    1.40
  -4   5   7    2.90    1.61
   4   5  -7    4.35    2.39
  -4   5   7    1.56    1.17
  -4  -5  -7    4.89    1.56
  -4  -5  -7   -0.04    1.24
   4  -5   7    4.90    1.78
   4   5  -7    4.33    1.65
  -4  -5   7    3.01    1.40
   4   5   7    1.36    1.35
   4  -5  -7    2.06    1.26
  -4  -5   7    2.48    1.36
  -4   5  -7    3.45    1.56
   4  -5  -7    2.88    1.49
  -4  -5   7    1.87    1.57
  -4   5  -7    4.65    1.89
   4   5   7    3.74    1.61
   6  -5   7   12.07    2.48
  -6  -5  -7   11.56    2.94
   6   5  -7    6.23    1.98
  -6   5   7    9.19    2.53
  -6   5   7    9.04    1.94
   6  -5   7   10.28    3.00
  -6   5   7   12.25    3.13
  -6  -5  -7   11.61    2.68
  -6  -5   7    9.48    2.16
  -6  -5   7   15.72    3.60
  -6   5  -7    9.54    2.35
   6  -5  -7    9.54    2.34
   6  -5  -7   10.87    2.30
   6   5   7   10.31    2.42
  -6  -5   7    9.95    2.19
   6   5   7   13.76    2.73
  -6   5  -7   11.29    2.84
  -8  -5  -7    6.69    2.51
  -8   5   7    4.10    1.83
   8   5  -7    6.00    2.12
   8  -5   7    5.95    1.84
   8  -5   7    5.19    2.34
  -8  -5  -7    4.57    1.81
  -8   5   7    4.61    2.18
   8   5   7    4.45    1.60
  -8   5  -7    5.38    1.83
   8  -5  -7    5.51    1.95
  -8  -5   7    4.96    2.26
  -8  -5   7    3.83    2.05
   8   5   7    5.63    2.07
   8  -5  -7    7.47    2.04
  -8   5  -7    7.04    2.16
 -10  -5  -7    5.74    2.13
 -10   5   7    4.84    2.11
 -10   5   7    4.03    2.01
 -10  -5  -7    3.96    2.11
  10   5  -7    5.03    2.04
  10  -5   7    2.30    1.89
  10  -5   7    6.73    1.92
 -10  -5   7    1.21    1.66
 -10   5  -7    3.29    1.52
 -10   5  -7    5.09    1.87
 -10  -5   7    1.82    1.96
  10  -5  -7    4.42    1.75
  10  -5  -7    1.86    1.41
  10   5   7    7.91    2.24
 -12   5   7    2.36    1.77
  12   5  -7    0.98    1.45
 -12  -5  -7    3.02    1.75
 -12  -5  -7    3.39    1.98
  12  -5   7    0.14    1.41
 -12   5   7    1.82    1.50
  12   5   7    1.75    1.43
 -12   5  -7    1.06    1.31
 -12  -5   7   -0.23    1.49
  12  -5  -7    1.55    1.37
 -12   5  -7    1.18    0.99
 -12  -5   7    1.10    1.54
  14   5  -7    0.94    1.52
  14  -5   7    2.33    2.02
 -14  -5  -7    1.50    1.42
 -14   5   7    4.92    2.21
  14   5   7    0.20    1.22
 -14  -5   7    3.83    2.20
 -14   5  -7    4.81    1.65
  14  -5  -7    0.92    1.30
 -16  -5  -7    0.45    1.40
  16   5  -7   -0.35    1.53
 -16   5   7    0.43    1.23
  16  -5   7    0.02    1.79
 -16   5  -7    1.51    1.20
  16  -5  -7   -0.97    1.28
  16   5   7    0.40    1.49
 -16  -5   7    5.22    2.68
  -1  -6  -7   60.54    5.77
   1  -6   7   45.11    4.89
   1   6  -7   46.03    5.54
   1   6  -7   41.80    5.78
   1  -6   7   47.24    5.04
  -1   6   7   48.44    5.20
  -1   6   7   38.01    4.47
   1   6  -7   54.84    4.95
   1   6  -7   47.86    4.88
  -1   6   7   49.63    6.42
  -1  -6  -7   39.89    5.72
  -1   6  -7   41.03    4.99
   1  -6  -7   38.73    5.63
  -1   6  -7   32.17    4.85
   1   6   7   64.09    7.36
  -1   6  -7   52.63    4.71
   1  -6  -7   62.20    6.18
   1   6   7   55.83    5.71
  -1  -6   7   47.50    5.15
   1  -6  -7   43.37    4.89
   1   6   7   56.95    5.72
  -1  -6   7   44.79    4.95
  -3   6   7    8.88    2.30
  -3   6   7    7.16    2.40
   3   6  -7    7.46    2.59
   3  -6   7    8.40    2.13
   3  -6   7    7.96    2.24
  -3  -6  -7    8.88    3.01
  -3   6   7    7.48    2.10
  -3  -6  -7    7.00    2.24
  -3   6   7   10.06    3.14
   3   6  -7   10.83    2.64
  -3   6  -7   10.71    2.68
  -3  -6   7   10.97    2.67
   3  -6  -7    6.19    2.02
   3   6   7    9.03    2.40
   3  -6  -7   14.12    3.00
  -3   6  -7    8.88    2.70
   3   6   7   17.91    3.35
  -3   6  -7    9.43    1.85
  -3  -6   7    6.03    1.91
  -5  -6  -7   10.43    3.06
   5   6  -7   15.89    3.22
   5   6  -7   13.96    3.95
  -5   6   7    9.41    2.81
  -5  -6  -7   11.67    3.04
  -5   6   7    8.81    2.98
   5  -6   7   11.12    2.58
   5  -6   7    7.23    2.28
  -5   6   7   11.20    2.27
  -5  -6   7   11.13    2.48
   5   6   7   11.37    2.85
  -5   6  -7    5.10    2.25
  -5   6  -7    5.25    2.09
   5   6   7   12.48    2.96
  -5  -6   7   12.63    3.59
  -5  -6   7   12.08    2.78
   5  -6  -7    5.33    1.96
   5  -6  -7   12.32    2.87
  -7  -6  -7    0.07    1.44
   7   6  -7    1.54    1.39
   7  -6   7    1.62    1.38
  -7  -6  -7    1.79    1.59
  -7   6   7    0.79    1.42
  -7   6   7    0.02    1.28
   7  -6  -7    2.15    1.36
   7  -6  -7    0.07    1.36
   7   6   7    0.08    1.21
  -7  -6   7    0.30    1.19
  -7   6  -7    0.49    1.32
  -7  -6   7    2.38    2.03
  -7   6  -7    2.12    1.53
   7   6   7   -0.08    1.22
  -9   6   7   16.22    3.78
  -9  -6  -7   15.76    3.39
  -9   6   7   12.95    3.36
  -9  -6  -7   12.09    3.40
   9   6  -7    9.05    2.73
   9  -6   7    8.15    2.97
   9  -6   7   12.44    2.67
   9  -6  -7   24.78    4.11
  -9   6  -7    9.96    2.79
   9  -6  -7   13.43    3.04
   9   6   7   15.21    3.32
   9   6   7   16.49    3.29
  -9   6  -7   14.55    3.00
  -9  -6   7    6.22    2.81
  -9  -6   7   11.28    3.29
  11  -6   7   21.70    3.50
 -11   6   7   31.82    5.01
  11   6  -7   25.30    4.53
  11  -6   7   17.02    3.77
 -11  -6  -7   24.53    4.43
  11  -6  -7   20.37    3.60
 -11   6  -7   21.18    3.52
 -11   6  -7   24.16    3.97
  11   6   7   20.57    3.64
 -11  -6   7   20.35    4.28
  11  -6  -7   18.77    3.62
  13  -6   7   16.26    3.67
  13   6  -7   29.29    4.73
 -13  -6  -7   26.71    4.52
 -13   6   7   27.20    4.40
  13   6   7   22.37    3.79
  13  -6  -7   25.96    4.11
 -13   6  -7   24.27    3.90
 -13  -6   7   16.41    4.16
   0   7  -7    0.41    1.95
   0   7   7    3.30    1.97
   0   7  -7    3.74    2.38
   0   7   7    1.65    1.93
   0   7  -7    2.11    1.52
   0  -7   7    0.34    1.25
   0  -7  -7    1.74    1.77
   0   7   7    2.73    1.83
   0  -7  -7    0.94    1.39
   0  -7   7    3.33    2.00
  -2  -7  -7    3.84    2.02
   2   7  -7   10.41    3.49
   2  -7   7    5.16    2.13
  -2  -7  -7    2.77    2.11
  -2   7   7    4.29    1.87
   2  -7   7    3.79    1.97
  -2   7   7    7.40    2.84
   2   7  -7    3.42    1.74
   2   7   7    3.06    1.90
   2  -7  -7    3.28    1.73
   2  -7  -7    3.22    1.87
  -2   7  -7    2.82    2.05
   2   7   7    6.03    2.18
  -2   7  -7    2.27    1.96
  -2   7  -7    6.68    1.88
  -2  -7   7    2.10    1.54
  -2  -7   7    4.78    2.24
   4  -7   7    3.73    1.94
   4   7  -7    1.87    1.78
   4   7  -7    3.60    2.42
   4   7  -7    1.81    1.58
  -4   7   7    0.53    1.88
  -4  -7  -7    0.73    1.78
  -4   7   7    0.46    1.13
   4  -7   7    0.91    1.39
  -4   7  -7    0.52    1.55
   4   7   7    2.04    1.74
   4  -7  -7    1.97    1.51
  -4  -7   7    2.88    2.03
   4  -7  -7   -0.08    1.27
  -4   7  -7    2.20    1.89
   4   7   7   -0.22    1.35
  -6  -7  -7    6.51    2.50
  -6   7   7    4.03    2.43
   6  -7   7    2.27    1.77
  -6   7   7    3.33    1.85
  -6   7   7    1.42    2.57
  -6  -7  -7    2.43    2.27
   6   7  -7    9.15    2.82
  -6  -7   7    3.34    1.99
  -6  -7   7    3.36    2.33
   6  -7  -7    4.37    2.17
   6   7   7    2.23    1.74
   6   7   7    2.73    1.96
  -6   7  -7    2.68    1.63
   6  -7  -7    4.56    2.25
  -8   7   7    0.01    1.70
  -8  -7  -7    5.71    2.52
   8   7  -7    3.72    2.18
   8  -7   7    0.93    1.57
   8  -7  -7    1.33    1.65
   8   7   7    4.98    2.39
  -8   7  -7    1.76    1.77
   8   7   7    1.60    1.52
   8  -7  -7    4.34    2.16
  10  -7   7   -0.28    1.36
  10   7  -7    4.78    2.27
 -10   7   7   -0.92    1.64
 -10  -7  -7    1.24    1.87
  10  -7  -7   -0.47    1.34
  10   7   7    1.26    1.80
 -10   7  -7   -0.34    1.40
  10  -7  -7    1.24    1.76
  10   7   7   -0.52    1.50
   1  -8   7   12.07    3.07
   1   8  -7   12.99    3.07
  -1  -8  -7    8.12    2.71
   1  -8   7    4.75    2.41
  -1  -8  -7    8.40    2.82
  -1   8   7    9.47    2.63
  -1   8  -7    6.41    2.47
   1   8   7   15.69    3.61
   1   8   7    7.70    2.78
   1  -8  -7    9.19    3.09
   1  -8  -7    3.99    2.35
  -1  -8   7    6.09    2.66
   3  -8   7   -0.67    1.60
   3   8  -7   -0.23    1.64
   3  -8   7    0.61    1.67
  -3   8   7   -0.83    1.29
   3  -8  -7    0.46    1.64
   3   8   7    2.51    2.05
  -3   8  -7    2.03    2.13
  -3  -8   7   -0.92    1.78
   3  -8  -7    2.11    1.93
   3   8   7    0.69    1.48
   5   8  -7    4.38    2.03
   5   8  -7   -1.50    1.59
   5  -8   7    0.64    1.48
   5  -8   7    1.61    1.88
   5   8   7   -1.57    1.34
  -5   8  -7   -1.27    1.54
  -5  -8   7    0.85    1.89
   5   8   7    0.19    1.65
   5  -8  -7   -0.26    1.55
   5  -8  -7   -0.21    1.61
   0   0   8    0.00    0.59
   0   0   8   -0.32    0.61
   0   0  -8   -0.15    0.33
   0   0  -8   -0.34    0.62
   0   0   8    0.00    0.52
   0   0  -8    0.16    0.50
  -2   0  -8   37.14    3.66
   2   0   8   36.99    2.64
   2   0   8   30.57    2.94
   2   0  -8   37.62    4.12
  -2   0   8   37.03    2.67
  -2   0  -8   31.94    2.50
   2   0  -8   35.81    3.31
  -2   0   8   34.04    3.84
  -2   0   8   38.69    3.64
   2   0   8   40.27    4.31
  -2   0  -8   25.53    3.25
   2   0   8   34.05    3.77
  -2   0  -8   33.10    2.37
  -2   0  -8   32.02    2.57
  -2   0   8   36.98    3.47
   4   0   8    1.65    0.85
   4   0  -8    3.10    1.18
   4   0  -8    2.49    1.32
  -4   0   8    2.14    0.93
   4   0   8    1.65    0.93
   4   0   8    4.02    1.11
  -4   0   8    2.50    1.37
  -4   0   8    1.73    0.91
  -4   0   8    2.75    1.24
   4   0   8    2.23    1.37
  -4   0  -8    1.83    0.98
  -4   0  -8    1.74    0.93
   6   0  -8    6.84    2.05
   6   0  -8    5.07    1.43
  -6   0   8    7.62    1.74
  -6   0  -8    7.42    1.79
  -6   0   8    5.64    1.80
  -6   0  -8    8.47    1.62
  -6   0   8    4.71    1.24
   6   0  -8    5.56    1.78
   6   0   8    9.91    2.17
   6   0   8    7.45    1.47
  -6   0   8    8.05    1.67
   6   0   8    5.73    1.43
   8   0   8   23.89    3.17
   8   0   8   19.54    2.79
  -8   0   8   15.89    2.67
  -8   0   8   19.53    3.28
  -8   0   8   18.75    2.30
   8   0  -8   23.21    3.61
  -8   0  -8   18.73    2.38
   8   0  -8   23.40    2.99
  -8   0  -8   17.18    2.54
   8   0   8   17.15    2.08
  10   0  -8    7.10    1.88
  10   0  -8   10.51    2.53
  10   0   8   10.85    1.65
 -10   0  -8    8.47    2.44
 -10   0  -8    8.56    1.63
 -10   0   8    8.09    1.66
 -10   0   8    6.18    2.01
 -10   0   8    6.27    1.84
 -10   0  -8    9.96    1.85
  10   0   8    7.85    1.79
  12   0   8    1.41    1.06
 -12   0   8    0.18    0.95
 -12   0   8    0.79    0.87
  12   0  -8    2.02    1.20
  12   0  -8    1.34    1.30
 -12   0  -8    0.82    0.69
 -12   0  -8    1.12    0.78
 -12   0  -8    1.74    1.42
  14   0   8    5.78    1.38
 -14   0  -8    8.17    1.54
 -14   0   8    7.45    2.25
 -14   0   8    7.03    2.08
 -14   0  -8   12.05    3.53
  14   0  -8    9.15    2.22
  14   0  -8   12.00    2.88
  16   0  -8    3.83    1.69
  16   0  -8    6.02    2.26
 -16   0   8    4.09    1.91
 -16   0   8    4.24    1.76
 -16   0  -8    7.72    1.32
  16   0   8    9.80    2.00
 -16   0  -8   11.19    3.56
  18   0   8    9.06    1.93
  18   0  -8    9.50    2.85
 -18   0   8    9.35    2.32
 -18   0   8   10.68    3.27
  18   0  -8   10.29    2.49
 -18   0  -8   12.85    4.20
  -1  -1  -8   43.55    4.57
  -1   1   8   33.82    3.22
   1  -1   8   35.63    2.58
  -1   1   8   36.62    2.74
  -1  -1  -8   39.05    2.99
  -1  -1  -8   38.23    3.36
   1  -1   8   37.22    3.37
   1   1  -8   35.56    4.06
  -1  -1  -8   42.45    4.05
   1  -1   8   36.67    2.65
   1   1  -8   34.70    3.21
   1  -1   8   31.59    3.73
  -1   1   8   42.08    4.50
   1   1  -8   34.30    3.53
  -1  -1   8   37.97    2.83
  -1   1  -8   41.26    2.90
  -1   1  -8   39.03    2.93
   1   1   8   40.58    4.33
   1  -1  -8   44.40    4.78
   1  -1  -8   29.29    3.17
   1   1   8   38.83    3.59
  -1   1  -8   38.96    3.36
  -1  -1   8   37.95    3.40
   1  -1  -8   45.55    3.89
   1   1   8   38.59    3.44
  -1   1  -8   32.18    3.62
  -1  -1   8   43.87    4.63
  -1  -1   8   33.75    3.17
  -1   1  -8   31.31    3.27
  -3   1   8    0.89    0.91
  -3  -1  -8    1.04    0.93
   3  -1   8    1.06    0.85
  -3   1   8    0.62    0.63
   3  -1   8    1.21    1.22
   3   1  -8   -1.24    0.56
   3  -1   8    0.44    0.87
  -3   1   8    0.22    0.57
  -3  -1  -8    1.24    0.71
   3   1  -8    0.20    0.63
  -3  -1  -8   -0.44    0.42
  -3  -1  -8    0.35    0.67
   3  -1   8   -0.02    0.54
   3  -1  -8    0.07    0.64
  -3  -1   8    0.81    0.92
  -3   1  -8    0.44    0.68
   3   1   8    1.16    0.82
  -3  -1   8   -0.30    0.49
  -3   1  -8    0.64    0.66
  -3   1  -8    0.59    0.68
   3   1   8   -0.09    0.54
   3   1   8    1.03    0.72
  -3  -1   8    0.69    0.65
   3   1   8    0.40    0.80
  -3  -1   8   -0.05    0.52
   3  -1  -8    0.83    0.64
  -3   1  -8    1.03    0.61
   3   1   8    0.43    0.75
   3  -1  -8    1.77    1.17
   5   1  -8   14.42    2.78
  -5   1   8   17.20    2.44
  -5   1   8   21.02    2.94
   5  -1   8   15.57    2.67
  -5  -1  -8   15.99    2.49
   5  -1   8   17.90    2.15
   5  -1   8   16.63    2.18
   5   1  -8   17.90    2.45
  -5  -1  -8   15.89    2.63
  -5  -1  -8   13.70    2.18
  -5   1   8   13.98    2.70
  -5   1   8   15.73    2.24
   5   1   8   12.85    2.03
   5   1   8   16.66    2.26
   5   1   8   13.72    2.29
  -5  -1   8   22.61    3.56
   5   1   8   21.70    3.08
  -5   1  -8   12.31    2.17
  -5  -1   8   19.31    2.82
  -5  -1   8   12.01    1.99
   5  -1  -8   14.54    2.72
  -5   1  -8   17.68    2.44
   5  -1  -8   15.10    2.25
  -5  -1   8   13.48    2.13
  -7   1   8   10.78    1.82
  -7  -1  -8   14.78    2.58
  -7  -1  -8   15.56    2.34
   7   1  -8   15.54    2.46
  -7  -1  -8   11.93    2.30
   7  -1   8   13.97    2.36
   7   1  -8   13.69    2.69
  -7   1   8   11.13    2.33
   7  -1   8   13.92    1.89
  -7   1   8   14.92    2.08
   7  -1   8   13.55    2.06
  -7   1   8   14.47    2.87
  -7   1  -8   16.34    2.40
   7   1   8   15.84    2.40
  -7   1  -8   13.83    2.03
  -7  -1   8   14.28    2.20
  -7  -1   8   11.23    2.39
   7  -1  -8   10.56    2.33
   7  -1  -8   14.89    3.27
   7   1   8   12.48    2.29
  -7  -1   8   10.85    2.48
  -7  -1   8   11.34    1.90
   7   1   8   14.30    2.16
   7  -1  -8   11.71    2.13
   9  -1   8    7.29    1.72
   9   1  -8    6.69    2.13
  -9  -1  -8    7.11    1.84
  -9   1   8    8.01    1.38
   9  -1   8    5.61    1.21
  -9  -1  -8    6.28    1.97
   9  -1   8    3.77    1.15
  -9   1   8    6.37    1.93
  -9   1   8    4.15    1.62
   9   1  -8    9.15    2.34
   9   1  -8    7.11    1.82
  -9  -1  -8    8.96    1.80
   9  -1  -8    9.02    2.07
  -9   1  -8    5.62    1.31
   9   1   8    7.19    1.56
  -9  -1   8    7.20    2.18
   9  -1  -8    3.82    1.64
   9   1   8    8.25    1.83
  -9   1  -8    8.14    1.70
  -9  -1   8    6.49    1.44
  -9  -1   8   10.19    2.33
  11   1  -8    0.62    1.43
  11   1  -8    2.04    1.21
 -11  -1  -8    2.68    1.62
 -11  -1  -8    1.86    1.12
  11  -1   8    2.20    1.04
 -11   1   8    1.32    1.31
 -11   1   8    2.21    1.37
  11   1  -8    2.29    1.69
 -11  -1  -8    2.09    0.98
  11   1   8    3.71    1.48
 -11  -1   8    0.79    1.24
  11  -1  -8    2.58    1.60
 -11   1  -8    2.84    1.03
  11   1   8    3.19    1.17
  11  -1  -8    4.45    1.48
 -11  -1   8    2.71    1.51
 -11   1  -8    3.73    1.09
 -13  -1  -8    2.35    1.11
 -13   1   8    0.37    0.87
 -13  -1  -8    3.84    1.32
  13   1  -8    3.51    1.49
 -13  -1  -8    3.40    1.85
  13   1  -8    4.94    2.14
 -13   1   8    2.42    1.41
  13  -1   8    0.85    0.95
  13   1  -8    2.60    1.83
 -13  -1   8    1.60    1.42
  13   1   8    2.48    1.43
 -13   1  -8    4.72    2.16
 -13   1  -8    1.91    0.89
  13  -1  -8    2.21    1.58
 -13  -1   8    5.18    1.90
  13  -1  -8    3.93    1.58
 -15  -1  -8    1.83    1.81
  15   1  -8    0.36    1.49
  15   1  -8   -0.29    1.06
  15  -1   8    0.49    0.90
  15   1  -8    0.21    1.35
 -15   1   8    0.73    1.34
 -15   1   8    0.02    1.11
 -15  -1  -8    1.12    0.91
  15   1   8   -0.86    1.00
  15  -1  -8    0.06    1.20
 -15  -1   8   -0.74    1.02
 -15   1  -8    0.24    0.58
 -15  -1   8    1.97    1.27
 -15   1  -8    0.09    1.52
  15  -1  -8    0.82    1.26
  17   1  -8    0.90    1.29
 -17  -1  -8    0.40    1.69
 -17  -1  -8    0.98    0.89
 -17   1   8    0.63    1.37
  17  -1   8    1.46    1.16
  17   1  -8    0.46    1.47
 -17   1   8    0.00    0.93
  17   1  -8    0.16    1.40
  17  -1  -8    1.42    1.28
 -17  -1   8    0.90    1.22
 -17  -1   8   -1.05    1.14
 -17  -1   8    1.86    1.27
  17   1   8    0.37    1.29
  17  -1  -8    0.25    1.50
 -17   1  -8    0.29    1.73
  19   1  -8    0.55    1.39
  19   1  -8   -1.14    1.45
  19  -1   8   -0.46    0.98
 -19  -1  -8    1.32    1.98
  19   1  -8   -0.52    1.63
 -19   1   8   -0.61    0.96
 -19  -1   8   -0.75    1.23
  19  -1  -8    0.57    1.71
 -19  -1   8   -0.41    1.05
 -19   1  -8    2.54    2.24
  19   1   8   -0.37    1.27
   0  -2  -8   56.69    4.02
   0  -2  -8   59.66    4.14
   0   2   8   57.23    4.37
   0  -2   8   65.13    3.82
   0  -2   8   54.25    3.17
   0  -2   8   53.12    4.03
   0   2  -8   61.97    4.06
   0  -2   8   60.42    3.65
   0  -2  -8   54.20    3.62
   0   2  -8   57.45    3.49
   0  -2  -8   61.03    4.60
   0   2   8   55.87    3.69
   0   2   8   58.94    3.71
   0   2  -8   58.99    4.50
   0   2  -8   49.03    3.81
   2   2  -8   23.18    2.87
   2  -2   8   24.49    2.84
   2  -2   8   23.45    2.72
  -2   2   8   27.69    4.05
   2  -2   8   23.49    3.47
  -2   2   8   25.60    2.83
  -2  -2  -8   21.38    2.61
   2  -2   8   22.71    3.05
  -2   2   8   21.36    2.64
  -2  -2  -8   18.31    3.16
   2   2  -8   21.52    3.13
   2  -2   8   23.32    1.76
   2   2  -8   18.18    3.05
  -2  -2  -8   21.45    2.55
  -2  -2  -8   23.06    2.97
  -2  -2   8   19.16    2.38
   2  -2  -8   16.76    2.35
  -2   2  -8   23.45    2.55
  -2   2  -8   23.81    3.43
   2   2   8   21.08    2.77
  -2   2  -8   21.61    2.40
   2   2   8   20.08    3.14
  -2  -2   8   30.34    3.34
   2   2   8   19.33    2.59
  -2  -2   8   20.63    3.18
  -2  -2   8   18.71    2.49
   2   2   8   22.28    2.79
   2  -2  -8   23.49    3.66
  -2   2  -8   21.55    2.97
   4  -2   8  100.56    5.69
   4   2  -8   90.03    5.03
  -4   2   8   94.18    4.83
   4  -2   8   85.10    4.56
  -4   2   8   83.47    4.83
   4  -2   8   85.03    4.61
  -4   2   8   87.94    5.77
   4  -2   8   97.87    5.33
  -4  -2  -8   94.32    4.50
  -4  -2  -8  100.55    5.90
   4   2  -8  100.06    5.28
  -4  -2  -8   93.19    5.37
   4   2  -8   91.22    6.05
  -4   2   8   98.07    5.55
  -4  -2   8   89.90    4.95
   4   2   8   92.54    4.87
  -4   2  -8   92.32    5.51
   4   2   8   97.84    5.76
  -4  -2   8   98.97    5.13
   4   2   8   90.32    5.36
  -4  -2   8   89.18    5.67
   4   2   8  110.24    6.27
  -4   2  -8   93.56    5.19
   4   2   8  101.53    5.12
   4  -2  -8   92.09    5.14
  -4  -2   8  100.47    5.66
   4  -2  -8   97.84    6.12
  -6  -2  -8  124.08    6.27
   6   2  -8  140.79    6.91
   6  -2   8  144.17    7.06
  -6   2   8  125.77    6.81
  -6  -2  -8  132.24    7.02
  -6  -2  -8  125.31    6.52
   6   2  -8  136.76    7.60
   6  -2   8  133.00    6.40
  -6   2   8  127.68    6.04
  -6   2   8  131.44    7.37
   6  -2   8  124.87    5.76
   6   2  -8  123.70    6.29
  -6   2   8  124.79    5.86
   6   2   8  131.44    6.20
  -6   2  -8  134.77    6.61
  -6   2  -8  137.17    6.41
   6   2   8  137.22    6.78
   6   2   8  137.56    7.28
  -6  -2   8  122.07    6.06
  -6  -2   8  132.12    6.32
   6   2   8  133.03    6.01
  -6  -2   8  121.33    7.26
   6  -2  -8  126.17    6.46
   6  -2  -8  143.70    7.75
  -6  -2   8  141.34    7.16
   8  -2   8    4.99    1.33
   8  -2   8    4.34    1.31
   8  -2   8    3.74    1.51
  -8   2   8    5.26    1.73
  -8  -2  -8    4.32    1.59
  -8   2   8    4.49    1.21
   8   2  -8    5.86    1.67
  -8   2   8    5.22    1.80
  -8  -2  -8    5.44    1.56
  -8  -2  -8    5.98    1.90
  -8   2  -8    8.55    1.76
   8  -2  -8    5.40    1.52
  -8  -2   8    6.59    1.54
  -8  -2   8    4.43    1.67
  -8   2  -8    6.29    1.68
   8   2   8    4.65    1.47
   8  -2  -8    6.22    2.10
  -8  -2   8    4.29    1.69
   8   2   8    5.26    1.40
  -8  -2   8    6.41    1.61
   8   2   8    4.90    1.72
 -10   2   8   24.90    3.54
 -10  -2  -8   31.60    3.84
 -10   2   8   16.83    3.19
  10  -2   8   16.23    2.41
 -10  -2  -8   15.70    2.54
 -10  -2  -8   17.11    3.26
  10   2  -8   18.13    2.77
  10  -2  -8   21.71    3.15
  10   2   8   19.52    3.19
 -10  -2   8   22.34    2.50
 -10   2  -8   23.36    2.76
  10  -2  -8   21.74    3.63
 -10   2  -8   22.63    2.68
 -10  -2   8   14.77    3.09
  10   2   8   20.61    2.65
 -10  -2   8   21.05    3.51
 -12   2   8   32.65    4.40
 -12  -2  -8   32.56    3.72
 -12  -2  -8   37.08    5.31
 -12  -2  -8   34.61    3.83
  12  -2   8   19.75    2.58
 -12   2   8   30.14    4.04
  12   2  -8   36.22    3.97
 -12  -2   8   34.43    4.46
  12  -2  -8   38.87    4.93
 -12  -2   8   28.26    3.98
  12  -2  -8   46.57    4.83
 -12   2  -8   35.56    2.47
 -12   2  -8   31.48    3.07
  12   2   8   40.82    3.86
 -12  -2   8   37.56    5.00
  12   2   8   42.65    4.58
 -14   2   8   20.77    3.63
 -14  -2  -8   35.77    5.62
 -14  -2  -8   28.24    3.33
 -14   2   8   23.78    3.90
 -14  -2  -8   28.95    3.41
  14   2  -8   29.48    3.84
 -14  -2   8   30.71    4.39
  14  -2  -8   24.35    3.55
  14   2   8   28.15    3.77
 -14   2  -8   26.40    2.60
 -14  -2   8   28.21    4.05
 -14  -2   8   29.19    4.47
  14  -2  -8   17.95    3.67
 -16  -2  -8   29.26    3.38
 -16   2   8   23.30    3.79
 -16   2   8   31.57    4.55
 -16  -2  -8   26.31    5.17
  16   2  -8   33.05    4.17
 -16  -2   8   31.72    4.63
 -16   2  -8   29.12    1.80
  16   2   8   35.66    4.45
  16  -2  -8   32.02    4.98
 -16  -2   8   26.66    4.32
 -16   2  -8   21.39    5.03
 -16  -2   8   26.34    4.28
  16  -2  -8   27.64    3.96
 -18  -2  -8    2.31    2.54
  18   2  -8    1.82    1.48
 -18  -2  -8    2.55    1.16
 -18   2   8    1.75    1.34
  18  -2   8   -0.49    0.97
  18   2   8    3.51    1.86
  18  -2  -8    0.30    1.46
  18  -2  -8    2.83    2.08
 -18  -2   8    2.17    1.85
 -18   2  -8   -0.18    1.70
  -1  -3  -8   25.27    3.32
   1  -3   8   37.75    4.62
  -1   3   8   41.45    4.39
  -1   3   8   51.23    5.65
  -1  -3  -8   45.58    4.56
  -1   3   8   30.48    3.42
   1  -3   8   40.75    3.94
  -1  -3  -8   31.68    4.27
   1  -3   8   31.30    3.41
   1   3  -8   37.82    4.55
  -1   3   8   40.19    3.97
   1   3  -8   37.93    3.56
  -1  -3  -8   33.61    3.45
   1   3  -8   28.42    3.62
  -1  -3   8   35.67    3.73
   1   3   8   35.27    3.69
   1  -3  -8   29.10    3.38
  -1  -3   8   37.90    3.82
  -1   3  -8   32.27    3.23
  -1   3  -8   33.64    4.27
  -1  -3   8   42.01    4.97
  -1   3  -8   35.45    4.05
   1   3   8   36.05    4.53
   1   3   8   32.96    3.59
   1  -3  -8   33.36    3.93
   1  -3  -8   27.67    4.01
   3   3  -8    3.09    1.37
   3  -3   8    5.24    1.46
   3  -3   8    0.66    0.77
   3   3  -8    1.92    0.93
  -3  -3  -8    0.93    1.10
  -3  -3  -8    2.60    1.11
   3   3  -8    1.48    0.82
  -3   3   8    2.35    1.02
   3   3  -8    1.83    1.30
  -3   3   8    2.02    1.22
   3  -3   8    5.46    1.95
  -3   3   8    2.80    1.19
  -3   3   8    1.32    1.23
  -3  -3  -8    0.80    1.13
   3   3   8    1.78    1.06
   3   3   8    1.04    1.18
  -3  -3   8    1.36    0.92
  -3   3  -8    2.80    1.29
   3  -3  -8    2.15    1.42
   3   3   8    2.11    1.09
  -3  -3   8    3.25    1.69
  -3  -3   8    3.68    1.67
  -3   3  -8    3.25    1.54
  -3  -3   8    0.57    0.79
   3  -3  -8    2.77    1.16
   5   3  -8   11.26    2.31
  -5  -3  -8    5.91    1.89
   5   3  -8   11.20    2.20
   5  -3   8   10.05    1.86
  -5   3   8   13.07    2.28
  -5   3   8   13.24    2.58
  -5   3   8    9.18    1.70
   5   3  -8   11.31    2.77
   5  -3   8    9.65    2.44
  -5   3   8   10.90    2.55
  -5  -3  -8    9.93    2.25
  -5  -3   8   17.93    3.43
   5   3   8   10.06    2.02
  -5  -3   8    8.06    2.02
   5   3   8    7.71    2.18
  -5   3  -8   11.94    2.55
  -5   3  -8    8.86    1.97
   5  -3  -8    9.48    2.36
   5   3   8   12.79    2.27
  -5  -3   8    9.92    2.01
  -5  -3   8   12.33    2.32
   5  -3  -8   13.78    2.46
  -7   3   8   55.93    5.92
  -7   3   8   62.34    5.71
   7   3  -8   65.19    7.25
   7  -3   8   55.88    4.64
  -7  -3  -8   59.89    5.96
  -7  -3  -8   58.29    4.49
   7   3  -8   54.10    5.03
   7  -3   8   60.76    3.77
  -7   3   8   55.82    3.55
  -7  -3   8   57.76    3.93
  -7   3  -8   56.12    4.18
  -7  -3   8   67.74    5.02
  -7  -3   8   57.50    3.97
   7   3   8   54.76    4.63
   7   3   8   60.80    4.10
  -7  -3   8   64.60    6.73
   7   3   8   56.05    4.04
  -7   3  -8   64.25    4.24
   7  -3  -8   58.16    4.25
  -9  -3  -8   -0.06    0.95
  -9   3   8    0.81    1.17
   9  -3   8    2.31    1.45
  -9  -3  -8    4.03    1.72
   9  -3   8    1.20    0.86
  -9   3   8    0.21    1.08
   9   3  -8    1.28    1.09
  -9  -3   8    0.72    1.34
  -9  -3   8    0.78    1.13
  -9   3  -8    1.84    1.20
   9   3   8    0.92    1.02
   9  -3  -8   -0.23    0.78
  -9   3  -8    0.26    0.70
  -9  -3   8    1.66    1.02
  -9  -3   8   -0.53    1.00
   9   3   8    0.92    1.21
 -11   3   8   10.61    2.74
  11  -3   8    6.34    1.92
  11   3  -8    5.35    1.76
 -11   3   8    7.58    2.08
 -11  -3  -8    3.96    1.62
 -11  -3  -8    2.17    1.49
 -11   3  -8    5.41    1.51
 -11  -3   8    6.23    2.26
 -11  -3   8    8.09    2.51
 -11  -3   8    3.00    1.95
  11   3   8    4.89    1.64
 -11   3  -8    7.08    1.74
  11  -3  -8    5.69    2.32
  11   3   8    7.21    2.23
  11  -3  -8    3.79    1.51
 -13  -3  -8   19.22    3.32
 -13  -3  -8   10.79    3.18
 -13   3   8   17.09    3.37
 -13   3   8   11.29    2.90
  13   3  -8   10.38    2.56
  13  -3   8    9.54    2.01
 -13  -3  -8   14.42    2.77
 -13  -3   8   10.13    2.69
  13   3   8   14.71    3.05
  13  -3  -8   17.05    2.94
 -13   3  -8   23.08    2.71
 -13  -3   8   11.32    2.87
  13   3   8   15.69    2.68
 -13  -3   8   15.02    3.41
  13  -3  -8   14.70    3.54
 -15  -3  -8   -1.43    1.06
 -15   3   8    3.17    1.90
 -15  -3  -8   -1.99    1.29
  15  -3   8   -1.00    0.98
 -15  -3  -8   -0.44    0.99
 -15   3   8    0.40    1.35
 -15   3  -8    1.13    0.81
  15  -3  -8    1.83    1.48
  15   3   8   -0.41    1.21
 -15  -3   8    1.78    1.62
  15  -3  -8    0.49    1.40
 -15  -3   8    0.25    1.39
  17  -3   8    7.00    1.85
 -17  -3  -8   15.79    2.76
  17   3  -8   18.99    3.44
 -17   3   8   13.24    3.08
  17  -3  -8   16.37    3.80
 -17  -3   8   12.39    3.26
  17  -3  -8   17.93    3.36
  17   3   8   10.69    2.82
 -17   3  -8   19.13    5.06
   0  -4  -8   11.01    2.56
   0  -4   8   15.31    2.71
   0   4   8   13.32    3.20
   0  -4  -8   14.07    2.46
   0   4  -8   11.75    2.73
   0   4   8   13.66    2.33
   0  -4   8   13.93    2.42
   0   4  -8   23.08    3.63
   0  -4   8    9.68    4.14
   0  -4  -8   14.00    3.08
   0  -4   8   14.89    4.63
   0   4   8    9.82    2.07
   0   4  -8   19.40    2.83
   2  -4   8   19.53    3.00
  -2   4   8   12.79    2.29
  -2   4   8   12.47    3.09
   2   4  -8   20.18    3.68
  -2   4   8   17.67    2.77
  -2  -4  -8   22.88    3.07
   2   4  -8   16.29    2.67
   2  -4   8   18.27    2.68
  -2  -4  -8   13.52    2.61
   2   4  -8   23.09    3.57
  -2  -4  -8   14.72    3.01
  -2   4   8   18.95    3.28
  -2  -4   8   24.98    4.43
   2  -4  -8   17.47    2.77
   2   4   8   16.96    3.42
   2  -4  -8   16.46    3.41
   2   4   8   16.71    2.72
  -2  -4   8   21.86    3.17
   2   4   8   14.88    2.63
  -2   4  -8   19.71    3.37
  -2   4  -8   19.71    3.21
  -2  -4   8   18.10    2.73
  -2  -4   8   20.96    3.84
  -4   4   8    2.44    1.67
  -4  -4  -8    2.21    1.33
   4  -4   8    3.70    1.40
   4  -4   8    1.25    1.70
   4   4  -8    1.05    1.31
  -4   4   8    2.00    1.15
   4   4  -8    0.60    0.91
  -4  -4  -8    4.68    1.56
   4  -4   8    4.96    1.59
  -4   4   8    3.32    1.27
  -4  -4  -8    2.48    1.49
  -4   4   8    3.50    1.70
   4  -4  -8    4.66    1.62
  -4   4  -8    2.79    1.52
  -4  -4   8    2.74    1.42
  -4  -4   8    1.04    1.59
   4   4   8    3.92    1.48
  -4  -4   8    1.18    1.43
  -4  -4   8    3.98    1.46
   4  -4  -8    2.12    1.40
  -4   4  -8    2.51    1.31
   4   4   8    4.04    1.57
  -6  -4  -8    1.50    1.28
  -6   4   8    2.70    1.75
   6  -4   8    1.89    1.20
   6   4  -8    2.34    1.69
  -6   4   8    1.88    1.54
   6  -4   8    2.62    1.71
  -6   4   8    3.17    1.16
   6   4  -8    0.76    1.04
  -6  -4  -8    1.72    1.33
  -6  -4   8    0.45    1.35
   6   4   8    1.21    1.22
  -6   4  -8    1.07    1.24
  -6  -4   8    1.58    1.03
  -6   4  -8    1.95    1.45
  -6  -4   8    0.99    1.08
   6  -4  -8    2.79    1.50
   6   4   8    1.82    1.26
  -6  -4   8    1.31    1.37
  -6  -4   8    5.94    2.08
  -8   4   8   33.62    4.60
  -8   4   8   28.51    4.58
   8  -4   8   31.36    3.50
  -8  -4  -8   30.99    4.23
   8  -4   8   22.67    3.61
   8   4  -8   39.68    4.52
  -8   4   8   39.07    3.50
  -8  -4  -8   36.60    4.79
   8   4   8   39.63    4.43
   8   4   8   40.48    4.23
  -8  -4   8   29.12    3.47
  -8   4  -8   40.86    4.74
  -8   4  -8   34.29    4.04
  -8  -4   8   38.39    4.80
  -8  -4   8   23.65    4.29
  -8  -4   8   39.60    5.32
   8  -4  -8   34.85    4.20
 -10  -4  -8    6.73    2.10
  10  -4   8    4.97    1.58
 -10  -4  -8    8.84    2.55
 -10   4   8    3.04    1.82
 -10   4   8    3.85    1.76
  10  -4   8    5.46    2.03
  10   4  -8    7.41    2.10
 -10  -4   8    2.29    1.59
 -10  -4   8    5.74    2.24
 -10   4  -8    8.34    2.09
 -10   4  -8    7.38    1.86
 -10  -4   8    5.52    1.54
  10   4   8    7.46    2.42
  10  -4  -8    4.07    1.60
  10   4   8    4.19    1.68
  12   4  -8    0.74    1.10
  12  -4   8    0.63    1.26
 -12   4   8    1.11    1.55
 -12  -4  -8    2.09    1.70
 -12   4   8   -0.01    1.14
 -12  -4  -8    1.02    1.23
 -12  -4   8    2.64    1.83
 -12   4  -8    2.52    1.25
 -12   4  -8    1.55    1.04
  12  -4  -8    1.81    1.40
  12   4   8    2.26    1.81
  12   4   8    0.83    1.09
 -12  -4   8    2.14    1.69
  14   4  -8    2.93    1.66
 -14  -4  -8   -0.28    1.28
  14  -4   8    0.34    1.44
 -14   4   8   -0.20    1.14
 -14  -4  -8    3.30    1.89
 -14   4   8    0.64    1.39
  14  -4  -8    0.39    1.13
  14   4   8    0.85    1.43
 -14  -4   8    1.25    1.90
 -14  -4   8    1.90    1.71
 -14   4  -8    0.33    1.01
 -16  -4  -8   -2.17    1.04
  16  -4   8    0.12    1.41
 -16   4   8   -0.79    1.11
  16   4  -8    0.97    1.28
 -16  -4   8   -1.37    1.40
  16   4   8    1.72    1.82
 -16   4  -8    0.15    0.83
  16  -4  -8    0.64    1.40
  16   4   8    0.84    1.85
  -1   5   8    9.87    2.19
   1  -5   8   10.00    2.41
   1  -5   8    7.64    2.09
   1   5  -8    8.87    2.29
   1   5  -8   12.16    2.81
  -1  -5  -8    8.99    2.77
   1   5  -8    8.89    2.72
  -1   5   8    8.58    2.11
  -1   5   8   13.13    3.37
  -1  -5  -8    7.51    2.13
  -1  -5   8    7.24    2.06
   1   5   8   10.69    3.09
   1   5   8    8.53    2.29
  -1   5  -8    6.74    1.67
  -1  -5   8    7.25    2.10
  -1   5  -8    7.34    2.58
   1   5   8   10.99    2.44
  -1   5  -8    7.44    2.18
   1  -5  -8   12.45    2.51
   1  -5  -8   13.26    3.32
   3  -5   8    1.87    1.26
  -3   5   8    0.41    0.95
  -3  -5  -8    4.08    1.95
  -3   5   8    1.58    1.25
  -3   5   8    2.17    1.89
  -3  -5  -8    0.46    1.34
   3   5  -8    4.50    2.20
   3   5  -8    2.18    1.40
   3  -5   8    0.50    1.10
  -3  -5  -8    2.94    1.49
  -3   5   8    1.68    1.73
  -3   5  -8    4.02    1.97
   3   5   8    2.54    1.30
   3   5   8    1.64    1.12
  -3  -5   8    3.32    1.65
  -3  -5   8    3.94    2.07
  -3   5  -8    1.78    1.66
  -3   5  -8    1.77    1.02
   3  -5  -8    1.46    1.23
  -3  -5   8    0.11    0.90
  -5  -5  -8    3.12    1.87
   5   5  -8    4.17    2.35
   5  -5   8    2.84    1.53
  -5   5   8    2.22    1.22
  -5   5   8    3.74    2.08
  -5  -5  -8    1.61    1.69
  -5   5   8    5.06    2.14
   5   5  -8    5.71    1.97
   5   5   8    5.08    1.99
  -5   5  -8    1.92    1.66
   5  -5  -8    3.49    1.58
  -5  -5   8    4.28    1.59
  -5  -5   8    1.38    1.72
  -5  -5   8    2.04    1.34
   5   5   8    2.48    1.35
  -7   5   8    9.50    2.87
   7  -5   8    4.08    1.73
  -7   5   8    5.38    1.50
  -7   5   8    5.47    2.30
   7   5  -8    4.47    1.86
  -7  -5  -8    7.97    2.74
  -7  -5  -8    5.60    2.21
   7  -5   8    6.45    2.32
  -7  -5   8    5.84    2.35
  -7   5  -8    5.26    1.98
  -7  -5   8    3.71    1.52
   7   5   8    5.40    2.03
   7   5   8    3.56    1.59
  -7   5  -8    2.56    1.49
  -7  -5   8    3.42    1.60
   7  -5  -8   10.70    2.67
   9  -5   8    3.67    2.33
   9   5  -8    3.96    1.74
  -9   5   8    1.89    1.67
  -9  -5  -8    3.53    1.89
   9  -5   8    2.11    1.41
  -9   5   8    2.04    1.63
  -9  -5  -8    1.38    1.59
  -9  -5   8    5.83    2.26
  -9   5  -8    2.30    1.36
  -9  -5   8    1.38    1.80
  -9   5  -8    1.85    1.43
   9   5   8    1.47    1.38
   9   5   8    4.06    1.84
   9  -5  -8    3.28    1.67
 -11  -5  -8    2.18    1.96
  11  -5   8    3.27    1.70
  11   5  -8    1.19    1.26
 -11  -5  -8    3.16    1.92
 -11   5   8   -0.05    1.42
 -11   5   8    2.20    1.72
  11  -5   8   -0.93    1.48
 -11   5  -8    2.37    1.70
  11   5   8    2.63    1.62
 -11  -5   8    2.70    1.95
 -11   5  -8    1.82    1.36
 -11  -5   8    4.03    2.20
  11  -5  -8    1.15    1.47
 -13   5   8   -0.51    1.37
 -13  -5  -8    1.89    1.63
  13  -5   8    0.51    1.89
  13   5  -8    0.36    1.44
  13  -5  -8    0.70    1.52
 -13  -5   8   -1.34    1.56
  13   5   8    2.36    1.46
 -13   5  -8    0.30    1.42
 -13   5  -8    1.65    1.18
 -15   5   8   -0.30    1.40
  15  -5   8    1.28    1.91
 -15  -5  -8   -0.06    1.34
  15   5  -8    1.30    1.76
  15  -5  -8    1.17    1.46
 -15  -5   8    3.86    2.07
  15   5   8    0.77    1.59
 -15   5  -8    2.88    1.48
   0  -6  -8   19.88    3.49
   0   6  -8   26.11    4.33
   0   6   8   21.73    3.61
   0   6  -8   12.23    3.20
   0  -6   8   22.92    3.72
   0  -6   8   20.58    3.28
   0   6  -8   21.70    3.07
   0   6   8   22.88    3.69
   0  -6  -8   17.14    3.91
   0   6   8   18.68    4.18
  -2   6   8    5.93    2.08
   2  -6   8    8.11    2.33
  -2  -6  -8   12.52    3.57
   2   6  -8   10.71    2.59
   2   6  -8   15.94    3.95
   2  -6   8   10.46    2.57
  -2   6   8    7.72    3.21
  -2   6   8    9.35    2.38
  -2  -6  -8   12.36    2.87
  -2   6  -8   11.53    3.05
  -2  -6   8   10.19    2.46
   2   6   8   17.28    3.21
  -2   6  -8   11.43    2.24
   2   6   8    8.39    2.58
  -2  -6   8   12.59    2.98
  -2   6  -8   12.77    3.19
   2  -6  -8   17.16    3.40
   4   6  -8   18.11    4.20
   4   6  -8   19.95    3.49
  -4   6   8   19.00    4.12
  -4   6   8   21.40    3.97
  -4  -6  -8   23.20    4.21
   4  -6   8   22.90    3.68
  -4   6   8   23.17    3.46
   4  -6   8   20.97    3.48
  -4  -6  -8   20.81    4.55
  -4  -6   8   28.28    4.19
   4  -6  -8   23.38    3.91
  -4  -6   8   30.68    8.90
  -4   6  -8   21.53    4.19
   4   6   8   20.11    3.67
  -4  -6   8   18.44    3.46
   4   6   8   26.58    3.99
  -4   6  -8   25.26    4.05
  -6   6   8   22.54    4.29
   6  -6   8   24.42    3.83
  -6   6   8   20.73    3.08
  -6  -6  -8   32.26    4.94
  -6  -6  -8   19.63    4.26
  -6   6   8   30.02    5.43
   6   6  -8   28.40    4.40
  -6  -6   8   22.42    4.51
  -6  -6   8   19.44    3.18
  -6  -6   8   20.40    3.48
   6   6   8   22.55    3.86
  -6   6  -8   26.83    4.42
  -6   6  -8   25.25    4.06
   6   6   8   33.50    4.63
   6  -6  -8   21.47    3.81
  -8  -6  -8    5.28    2.46
  -8  -6  -8    4.42    2.38
   8   6  -8    2.10    1.56
  -8   6   8    1.55    1.92
  -8   6   8    9.88    2.81
   8  -6   8    7.88    2.42
   8  -6  -8    6.01    2.05
  -8  -6   8    6.62    2.95
   8   6   8    6.49    2.17
   8   6   8    8.73    2.57
  -8   6  -8    2.86    1.62
  -8   6  -8    5.70    2.37
  10   6  -8    7.39    2.73
 -10   6   8    7.91    2.99
  10  -6   8    3.31    2.32
 -10  -6  -8    8.02    2.89
  10  -6   8   13.69    2.91
 -10  -6   8   12.21    3.61
  10   6   8    4.72    1.94
 -10   6  -8    9.50    2.50
  10   6   8    9.55    2.58
 -10  -6   8    6.50    3.51
  10  -6  -8    9.68    2.73
 -12  -6  -8   21.48    4.13
  12  -6   8   25.89    3.78
  12   6  -8   18.24    3.63
 -12   6   8   20.84    4.13
  12  -6   8   13.19    3.53
 -12   6  -8   23.22    3.66
  12   6   8   22.78    3.98
 -12  -6   8   18.40    4.18
  12  -6  -8   29.82    4.91
  -1   7   8    2.89    1.86
   1  -7   8    3.00    1.66
   1   7  -8    2.11    2.04
   1  -7   8    3.15    1.92
  -1  -7  -8    0.93    1.72
  -1  -7  -8    1.79    2.17
  -1   7   8    2.98    2.75
   1   7  -8    2.70    1.77
  -1   7   8    0.99    1.46
  -1   7  -8    0.92    2.00
  -1  -7   8    1.03    1.63
   1   7   8    2.27    1.71
   1   7   8    0.69    1.61
   1  -7  -8    4.20    2.19
  -1  -7   8   -0.70    1.16
  -1   7  -8    2.33    1.52
  -1   7  -8    1.86    1.96
  -3  -7  -8   -0.90    1.68
  -3   7   8    0.65    1.47
   3  -7   8    0.36    1.44
   3  -7   8   -1.12    1.34
   3   7  -8   -0.66    1.11
  -3   7   8    2.03    2.05
   3   7  -8   -0.58    1.60
  -3  -7   8   -0.03    1.50
  -3  -7   8    0.04    1.01
   3  -7  -8    1.73    1.75
   3   7   8   -0.01    1.34
  -3   7  -8    1.87    1.72
  -3   7  -8   -0.01    1.81
   3   7   8    1.31    1.57
  -5   7   8    0.82    2.44
  -5  -7  -8    3.28    2.36
  -5   7   8    2.15    1.63
   5  -7   8    2.69    1.87
   5   7  -8    1.21    1.78
   5  -7   8    1.18    1.81
  -5   7  -8   -0.20    1.64
   5   7   8    1.90    1.68
  -5  -7   8    4.73    2.46
   5   7   8    3.72    1.97
   5  -7  -8    1.22    1.77
  -7  -7  -8   -0.85    1.72
  -7   7   8   -1.07    1.55
   7  -7   8   -0.34    1.40
   7   7  -8    0.43    1.69
   7   7   8    0.79    1.67
  -7  -7   8   -0.91    1.98
  -7   7  -8    0.40    1.45
   7   7   8    3.70    2.07
   7  -7  -8   -0.47    1.42
   9   7  -8    0.76    1.77
  -9  -7  -8   -2.46    1.56
   9  -7   8    1.77    1.81
  -9   7   8    1.21    1.83
   9   7   8    0.76    1.61
   9  -7  -8   -0.17    1.59
  -9   7  -8    2.04    1.48
   9   7   8    0.52    1.88
   0  -8   8    3.13    1.67
   0  -8  -8    0.23    1.73
   0   8   8    4.52    2.22
   0   8  -8    1.94    1.76
   0  -8   8    1.36    2.26
   2  -8   8    5.83    2.32
  -2   8   8    3.90    1.91
   2  -8   8    7.80    3.02
   2   8  -8    3.77    2.18
  -2  -8   8    6.87    2.89
   2  -8  -8    3.28    2.35
   2   8   8    9.10    2.94
  -2   8  -8    5.86    2.24
   2   8   8    5.14    2.53
   1   0   9   40.75    4.35
   1   0  -9   37.49    3.19
  -1   0  -9   40.39    3.16
  -1   0   9   45.07    4.66
   1   0  -9   33.42    3.66
  -1   0  -9   41.86    4.04
  -1   0  -9   34.34    4.09
   1   0  -9   30.58    3.96
  -1   0  -9   39.66    2.85
   1   0  -9   37.49    3.47
   1   0   9   41.50    2.96
  -1   0   9   35.18    3.51
  -1   0  -9   41.69    3.14
   1   0   9   34.81    3.59
  -1   0   9   40.87    3.73
  -3   0  -9    0.95    0.95
  -3   0   9    3.52    1.15
   3   0   9    2.69    1.24
  -3   0  -9    2.45    0.92
   3   0   9    4.56    1.71
  -3   0  -9    3.78    1.37
  -3   0   9    2.41    0.96
  -3   0  -9    2.92    1.01
   3   0  -9    3.77    1.66
   3   0   9    3.02    1.09
   3   0  -9    2.24    1.02
  -3   0   9    2.40    1.42
   3   0   9    2.89    1.06
   5   0   9    7.98    1.59
   5   0  -9    7.61    2.05
   5   0  -9    8.59    1.87
   5   0   9    7.95    1.63
  -5   0  -9    8.84    2.01
   5   0   9   10.56    2.31
  -5   0   9    5.84    1.58
  -5   0  -9   10.30    1.93
  -5   0   9   10.70    1.94
  -5   0   9    7.53    1.78
  -5   0   9    8.86    2.27
   7   0   9    1.86    1.23
  -7   0   9    0.04    0.99
  -7   0  -9    1.36    1.05
  -7   0   9   -0.57    0.64
  -7   0  -9    0.55    0.78
   7   0   9    0.80    0.80
  -7   0   9    0.45    0.73
   7   0   9    0.76    0.69
   7   0  -9    1.13    1.17
   7   0  -9    0.39    0.80
  -7   0   9    0.32    0.92
  -9   0   9   33.29    4.47
  -9   0   9   31.87    4.21
   9   0   9   37.85    3.38
  -9   0  -9   34.48    3.75
  -9   0  -9   32.25    3.42
  -9   0   9   35.03    3.27
   9   0  -9   38.42    4.24
   9   0   9   32.60    4.02
 -11   0  -9    5.40    2.28
 -11   0   9    4.54    1.95
 -11   0  -9    4.86    1.33
  11   0  -9    6.68    1.93
 -11   0  -9    3.83    1.45
  11   0   9    5.00    1.72
 -11   0   9    5.63    2.03
 -13   0  -9   15.15    2.09
  13   0  -9   12.16    2.50
 -13   0   9   13.09    3.00
 -13   0  -9   15.61    3.64
  13   0   9   11.54    2.29
  13   0  -9   16.06    5.52
 -13   0   9   11.49    2.68
 -13   0  -9   16.18    2.38
  15   0   9    2.02    1.35
 -15   0  -9    1.91    1.78
  15   0  -9    5.56    2.45
 -15   0   9    4.99    2.05
  15   0  -9    5.03    1.80
 -15   0  -9    2.71    1.19
 -15   0   9    3.71    1.74
  17   0   9    0.22    1.11
 -17   0  -9    2.98    2.36
 -17   0  -9    1.15    0.88
  17   0  -9    2.30    1.47
 -17   0   9    0.16    1.21
  17   0  -9    0.58    1.96
 -19   0   9    2.98    1.69
  19   0  -9    5.68    3.11
 -19   0  -9    2.82    2.62
  19   0  -9    4.68    2.20
   0   1  -9   38.98    3.56
   0  -1  -9   31.24    3.42
   0   1   9   38.86    3.69
   0  -1   9   34.72    4.17
   0  -1   9   32.63    3.30
   0   1   9   31.84    3.25
   0  -1   9   30.21    3.05
   0  -1  -9   38.99    4.08
   0   1  -9   29.33    3.76
   0   1   9   43.48    4.77
   0   1  -9   37.04    3.89
   0  -1  -9   47.10    5.23
   0   1  -9   27.18    2.98
   0  -1  -9   38.87    3.66
   0   1  -9   34.07    2.90
   0  -1   9   39.29    3.61
  -2  -1  -9    1.34    0.94
  -2   1   9    2.11    1.03
   2   1  -9    1.65    1.12
   2  -1   9    0.96    1.19
   2  -1   9    2.46    1.01
   2  -1   9    1.47    1.43
   2   1  -9    1.35    1.15
   2   1  -9    0.24    0.68
  -2  -1  -9    1.49    0.82
  -2   1   9    2.30    1.05
  -2  -1  -9    0.08    0.64
  -2  -1  -9    1.75    1.22
  -2   1   9    0.52    0.95
   2  -1   9    1.51    0.87
   2  -1  -9    1.41    1.22
   2   1   9    0.19    0.80
  -2   1  -9    0.45    0.76
   2  -1  -9    0.67    0.77
   2   1   9    2.45    1.23
  -2   1  -9    0.73    0.90
  -2   1  -9    1.96    0.99
  -2  -1   9    0.76    0.84
   2   1   9    0.47    0.57
   2   1   9    1.47    1.37
  -2  -1   9    2.91    1.57
  -2  -1   9   -0.27    0.69
  -2   1  -9    1.81    0.96
  -2  -1   9    0.94    0.82
  -4   1   9    1.44    0.79
  -4  -1  -9    0.64    0.97
   4  -1   9    2.17    0.98
  -4  -1  -9    1.44    1.03
   4   1  -9    1.40    1.29
   4  -1   9    0.42    1.02
  -4   1   9    1.16    1.16
  -4   1   9    0.20    0.98
   4   1  -9    1.52    0.90
  -4   1   9    1.12    0.88
   4  -1   9    3.14    1.13
  -4   1  -9    1.47    0.98
  -4  -1   9    0.34    1.09
   4   1   9    0.38    0.75
   4  -1  -9    1.19    0.93
  -4  -1   9   -0.17    0.70
  -4  -1   9    2.24    1.32
  -4   1  -9    0.74    0.82
   4  -1  -9    0.41    0.89
  -4  -1   9    0.14    0.62
   4   1   9    2.00    1.31
   4   1   9    0.83    0.84
   4   1   9    1.18    0.90
  -6   1   9    3.85    1.64
   6   1  -9    3.38    1.31
   6   1  -9    5.30    1.81
   6  -1   9    4.80    1.78
   6  -1   9    6.33    1.51
  -6   1   9    7.50    2.13
  -6   1   9    6.90    1.63
  -6  -1  -9    4.58    1.69
  -6  -1  -9    6.16    1.69
  -6  -1  -9    6.74    1.67
  -6   1   9    5.79    1.55
  -6  -1   9    7.38    1.71
   6  -1  -9    6.67    2.24
  -6  -1   9    5.36    1.92
   6  -1  -9    3.14    1.35
  -6  -1   9    4.19    1.37
   6   1   9    2.66    1.39
  -6   1  -9    3.32    1.29
  -6   1  -9    2.87    1.23
   6   1   9    3.31    1.28
  -6  -1   9    5.77    1.98
   6   1   9    4.39    1.44
   6   1   9    4.27    1.33
   8   1  -9   10.05    2.11
  -8  -1  -9    8.08    1.79
   8  -1   9   10.56    1.74
  -8   1   9   11.09    2.57
  -8   1   9   12.11    1.96
  -8  -1  -9   11.93    2.51
  -8   1   9    6.52    1.94
  -8  -1  -9   11.45    2.33
   8  -1   9    9.51    2.29
  -8   1  -9    9.15    1.96
  -8   1  -9   10.39    1.94
   8  -1  -9   14.31    2.64
  -8  -1   9   13.50    2.85
   8   1   9    7.79    1.64
  -8  -1   9    5.55    1.43
  -8  -1   9    8.67    2.37
   8   1   9   13.45    2.66
  -8  -1   9   10.28    1.95
 -10   1   9    4.02    1.68
 -10  -1  -9    4.04    1.57
 -10   1   9    2.12    1.43
  10   1  -9    1.03    1.14
  10  -1   9    1.76    1.00
  10  -1   9    1.36    1.34
 -10  -1  -9    2.58    1.74
 -10  -1  -9    0.67    0.91
 -10   1  -9    1.25    0.92
 -10   1  -9    3.76    1.23
  10   1   9    0.88    1.21
 -10  -1   9    2.71    1.71
  10   1   9    1.74    1.04
 -10  -1   9    3.04    1.09
 -10  -1   9    2.42    1.54
  10  -1  -9    2.86    1.49
 -12  -1  -9    6.94    2.42
  12  -1   9    4.15    1.50
 -12  -1  -9    6.60    1.73
 -12  -1  -9    8.08    1.74
 -12   1   9    2.57    1.57
 -12   1   9    4.08    1.92
  12   1  -9    6.38    1.90
 -12   1  -9    4.42    1.27
 -12  -1   9    4.20    1.81
  12  -1  -9    6.78    2.56
 -12   1  -9    4.83    1.32
  12  -1  -9    7.91    2.12
 -12  -1   9    6.02    2.13
  12   1   9    5.10    1.81
 -14  -1  -9    0.41    1.62
 -14   1   9    0.86    1.16
 -14  -1  -9   -1.08    1.01
  14  -1   9    1.27    1.12
  14   1  -9    0.67    1.17
 -14   1   9    1.25    1.46
 -14  -1  -9    1.36    0.95
  14  -1  -9   -0.92    0.97
 -14   1  -9    0.02    1.51
 -14  -1   9   -0.14    1.12
  14   1   9    0.98    1.32
 -14  -1   9   -0.17    1.14
  14  -1  -9    0.42    1.35
 -14   1  -9    0.08    0.80
  16  -1   9    0.05    1.03
 -16   1   9   -1.26    1.05
 -16  -1  -9    0.15    0.88
 -16   1   9    1.68    1.41
 -16  -1  -9    1.18    1.86
  16   1  -9   -0.11    1.06
  16   1   9   -0.23    1.25
 -16   1  -9    0.28    0.75
 -16  -1   9   -0.34    1.24
  16  -1  -9   -0.28    1.34
  16  -1  -9   -0.42    1.25
 -16   1  -9    0.24    1.42
 -16  -1   9    0.00    1.27
 -18   1   9    1.74    1.63
  18   1  -9    5.49    1.96
 -18  -1  -9    3.27    2.38
 -18  -1  -9    4.95    1.43
  18  -1   9   -0.19    1.18
 -18  -1   9    2.15    1.66
  18   1   9    2.75    1.64
 -18   1  -9    3.58    2.75
  18  -1  -9    0.97    1.74
  18  -1  -9    0.78    1.66
 -18  -1   9    1.60    1.37
   1  -2   9   46.52    4.06
  -1  -2  -9   52.31    3.86
   1   2  -9   52.05    4.42
  -1   2   9   54.05    5.66
  -1  -2  -9   47.07    3.33
   1  -2   9   47.34    5.06
  -1   2   9   52.37    4.59
   1  -2   9   49.38    3.52
  -1   2   9   40.16    3.83
  -1  -2  -9   48.13    4.79
   1  -2   9   46.82    4.58
   1   2  -9   42.73    4.82
  -1  -2  -9   50.80    5.57
   1   2  -9   51.54    4.77
  -1   2  -9   44.06    3.13
  -1   2  -9   39.35    4.64
   1  -2  -9   47.81    4.60
   1   2   9   47.57    5.27
   1  -2  -9   50.77    3.59
  -1   2  -9   42.04    4.19
  -1  -2   9   41.43    4.03
  -1  -2   9   50.96    3.32
  -1  -2   9   50.38    4.51
  -1   2  -9   52.23    3.66
   1   2   9   47.42    3.47
   1   2   9   43.99    4.09
   1  -2  -9   45.18    5.21
  -1  -2   9   44.35    4.91
   3   2  -9   47.57    5.23
   3  -2   9   45.44    3.36
  -3   2   9   46.54    4.15
  -3   2   9   56.23    3.75
  -3  -2  -9   47.90    3.20
  -3  -2  -9   42.11    4.36
   3   2  -9   33.13    3.61
  -3   2   9   47.71    4.81
   3   2  -9   41.72    4.52
   3  -2   9   49.98    5.39
  -3   2   9   49.68    5.39
   3  -2   9   45.50    4.15
  -3  -2  -9   61.77    5.96
  -3  -2   9   38.07    4.73
  -3   2  -9   41.53    4.82
  -3  -2   9   46.25    4.24
  -3  -2   9   46.02    4.25
   3   2   9   47.09    4.41
   3  -2  -9   34.80    3.79
   3   2   9   46.27    4.96
  -3   2  -9   50.45    4.67
   3   2   9   47.62    3.47
  -3  -2   9   54.38    5.16
   3   2   9   56.86    6.57
   3  -2  -9   55.32    5.86
  -5   2   9   94.74    5.16
  -5  -2  -9   98.92    6.26
  -5  -2  -9  112.11    6.04
   5  -2   9  102.86    6.19
   5   2  -9  117.48    7.09
  -5   2   9  104.15    6.16
  -5   2   9  101.35    5.36
  -5   2   9  107.72    6.69
   5   2  -9  103.68    5.67
   5  -2   9  104.36    5.29
  -5   2  -9  108.17    6.21
   5  -2  -9  100.09    5.73
  -5  -2   9   96.58    6.10
  -5   2  -9   94.82    5.57
   5   2   9  100.84    6.41
   5   2   9  105.23    5.43
   5  -2  -9  114.25    7.06
  -5  -2   9   96.53    5.45
   5   2   9   98.72    5.46
  -5  -2   9   96.13    5.40
  -5  -2   9   98.38    6.27
   7   2  -9    9.05    2.54
   7   2  -9   10.74    2.17
  -7   2   9    8.26    2.25
  -7   2   9    5.49    1.47
  -7   2   9    8.49    2.41
   7  -2   9   10.93    2.35
  -7  -2  -9   10.16    2.51
   7  -2   9    6.95    1.48
  -7  -2  -9    9.61    2.10
  -7   2  -9   10.27    2.26
  -7  -2   9   11.75    2.87
   7   2   9    8.25    2.43
  -7  -2   9   11.53    2.16
   7   2   9    7.94    1.84
  -7  -2   9   11.66    2.67
  -7  -2   9    8.72    1.92
   7  -2  -9    8.13    2.03
   7   2   9    7.11    1.98
  -7   2  -9    9.17    2.00
  -9   2   9   12.11    2.69
  -9   2   9   11.82    1.90
   9  -2   9   11.68    1.93
   9  -2   9    9.95    2.20
  -9  -2  -9   16.03    2.95
  -9  -2  -9    8.78    2.00
   9   2  -9   15.81    2.81
  -9   2   9   19.70    3.76
  -9  -2   9   15.65    3.01
   9   2   9   11.50    2.72
  -9   2  -9   10.24    2.12
   9  -2  -9   15.79    2.84
  -9  -2   9   15.32    3.15
  -9   2  -9   11.76    2.26
   9   2   9   11.21    2.15
  -9  -2   9   14.52    2.25
 -11  -2  -9   28.87    3.81
  11  -2   9   14.79    2.47
 -11  -2  -9   25.40    3.37
  11   2  -9   35.27    4.17
 -11  -2  -9   20.75    3.68
 -11   2   9   30.28    4.54
 -11   2   9   31.76    4.39
 -11   2  -9   31.83    3.25
  11  -2  -9   32.28    4.10
 -11  -2   9   35.34    4.72
 -11  -2   9   29.49    4.63
  11   2   9   30.48    4.35
  11   2   9   25.60    3.33
 -11   2  -9   25.03    3.04
 -13  -2  -9   38.04    4.06
 -13   2   9   32.73    4.59
 -13  -2  -9   27.91    4.62
  13   2  -9   33.23    4.17
 -13  -2  -9   40.10    4.29
 -13   2   9   39.58    5.27
 -13  -2   9   36.91    4.81
 -13   2  -9   34.90    3.41
 -13  -2   9   32.39    4.48
 -13  -2   9   26.79    4.47
  13   2   9   46.13    5.01
  13  -2  -9   35.61    4.32
 -15  -2  -9   27.06    5.26
  15   2  -9   23.31    3.51
 -15   2   9   29.22    4.60
 -15  -2  -9   19.05    2.79
 -15   2   9   20.66    3.92
  15   2   9   29.21    4.27
  15  -2  -9   33.30    4.37
 -15  -2   9   23.85    4.35
 -15  -2   9   21.64    3.90
 -15   2  -9   25.78    5.28
  15  -2  -9   20.46    4.27
 -15  -2   9   22.04    3.78
 -15  -2   9   24.09    4.24
 -15   2  -9   28.12    2.84
  17   2  -9    3.55    1.69
 -17  -2  -9    4.40    1.50
 -17  -2  -9    0.08    1.91
  17  -2   9    1.78    1.16
 -17   2   9    0.69    1.37
  17   2   9    2.42    1.62
 -17  -2   9    1.54    1.66
 -17   2  -9    1.40    2.09
  17  -2  -9    4.81    2.05
  17  -2  -9    3.18    2.08
   0   3   9   46.88    4.64
   0   3  -9   39.63    4.70
   0   3   9   50.97    4.72
   0  -3  -9   29.53    4.21
   0  -3   9   28.77    4.13
   0   3   9   27.74    3.94
   0   3  -9   38.43    3.79
   0  -3   9   35.29    3.86
   0  -3  -9   35.86    4.31
   0  -3  -9   35.68    3.87
   0   3  -9   41.46    4.37
   0  -3   9   42.89    4.33
  -2   3   9   12.41    2.37
  -2   3   9   19.97    3.72
   2   3  -9   10.66    2.65
   2  -3   9   17.95    2.69
  -2  -3  -9   20.91    3.38
  -2  -3  -9   14.31    2.40
   2   3  -9   12.57    2.30
   2  -3   9   14.78    2.34
  -2  -3  -9   15.05    3.09
  -2   3   9   14.76    2.59
   2   3  -9   17.80    3.11
  -2   3   9   19.76    3.19
  -2  -3   9   13.72    2.98
   2  -3  -9   16.65    3.24
  -2  -3   9   14.33    2.53
  -2  -3   9   17.51    2.74
  -2   3  -9   14.85    2.99
  -2   3  -9   16.17    2.67
   2   3   9    9.19    1.95
   2   3   9   15.76    3.17
   2   3   9   17.91    2.76
   2  -3  -9   14.20    2.42
   4   3  -9    6.87    2.19
  -4   3   9   10.05    2.01
   4   3  -9   11.07    2.17
  -4  -3  -9   12.04    2.64
   4  -3   9    6.69    1.74
  -4   3   9    7.69    2.25
  -4  -3  -9    6.50    2.10
   4  -3   9    9.08    1.90
  -4   3   9    4.85    1.99
   4   3  -9    8.29    1.93
   4  -3   9    5.63    2.18
  -4   3   9    7.10    1.63
  -4   3  -9    8.73    2.31
  -4  -3   9   11.17    2.37
   4   3   9   10.79    2.15
  -4  -3   9    8.12    2.41
   4  -3  -9    8.06    2.09
   4  -3  -9    8.36    2.49
   4   3   9    7.60    1.91
  -4   3  -9    8.82    2.07
  -4  -3   9    7.21    1.96
  -6   3   9   66.67    5.47
  -6  -3  -9   67.65    5.28
   6  -3   9   62.24    4.09
  -6  -3  -9   63.87    4.87
  -6   3   9   67.18    6.12
  -6   3   9   64.22    4.20
   6  -3   9   62.12    5.09
   6   3  -9   63.58    4.50
  -6   3   9   67.56    4.20
   6   3  -9   59.84    6.32
  -6  -3   9   72.33    5.74
  -6  -3   9   61.41    5.95
  -6   3  -9   57.58    4.39
  -6  -3   9   57.72    4.31
   6   3   9   56.17    4.94
   6  -3  -9   61.10    4.52
  -6  -3   9   61.77    4.27
   6   3   9   62.98    4.44
  -6  -3   9   69.29    5.25
  -6   3  -9   64.05    4.73
   6   3   9   63.74    4.27
  -8  -3  -9    2.02    1.36
   8   3  -9    1.69    1.26
  -8   3   9    1.65    0.99
  -8  -3  -9    1.44    1.41
  -8   3   9    0.09    1.02
   8  -3   9    2.16    1.16
  -8   3   9    1.50    1.38
   8  -3   9    3.22    1.72
   8   3   9    3.24    1.33
  -8   3  -9    2.80    1.30
   8   3   9    3.02    1.82
  -8   3  -9    1.45    1.12
  -8  -3   9    0.41    0.89
  -8  -3   9    0.74    1.38
  -8  -3   9    4.38    2.06
   8  -3  -9    1.19    1.06
  -8  -3   9    0.55    1.41
  -8  -3   9    0.97    1.06
 -10   3   9   -0.09    1.04
  10  -3   9    3.38    1.35
 -10  -3  -9    1.07    1.33
  10  -3   9    1.11    1.44
 -10  -3  -9    3.43    1.68
 -10   3   9    2.00    1.47
  10   3  -9    2.62    1.43
 -10   3  -9    3.83    1.52
 -10  -3   9    4.15    1.89
  10   3   9    3.29    1.85
 -10   3  -9    3.05    1.23
  10  -3  -9    5.84    1.96
  10   3   9    3.61    1.60
 -10  -3   9    3.42    1.28
 -10  -3   9    3.53    2.08
  12   3  -9   10.56    2.49
 -12  -3  -9   13.26    2.82
 -12  -3  -9   10.03    2.41
 -12   3   9    9.47    2.85
 -12   3   9    9.60    2.67
  12  -3   9    6.13    1.92
 -12  -3   9   13.17    3.25
 -12   3  -9   11.80    2.22
 -12  -3   9    2.75    1.81
  12   3   9   19.07    3.05
 -12   3  -9   12.41    2.18
 -12  -3   9   13.36    3.36
  12   3   9   15.90    3.40
  12  -3  -9   12.77    2.68
 -14  -3  -9    7.31    2.31
  14  -3   9    3.54    1.65
 -14  -3  -9    3.73    1.58
 -14   3   9    1.62    1.72
  14   3  -9    6.90    2.29
 -14   3   9    6.25    2.30
 -14  -3   9    5.32    2.23
 -14   3  -9    3.55    1.30
  14   3   9    6.39    2.18
 -14  -3   9    6.08    2.64
 -14  -3   9    2.02    1.85
  14   3   9    4.94    1.89
  14  -3  -9    8.05    2.49
  16  -3   9    3.65    1.71
 -16  -3  -9    7.37    2.22
 -16   3   9    7.13    2.61
  16   3  -9    5.70    2.09
  16  -3  -9   10.29    2.70
  16   3   9   10.42    2.91
 -16   3  -9    7.79    1.52
 -16  -3   9   14.60    3.46
  -1  -4  -9    5.16    1.63
   1   4  -9    2.76    1.67
   1  -4   9    7.49    2.03
   1   4  -9    6.25    1.69
   1   4  -9    7.20    2.20
  -1   4   9    4.30    1.59
   1  -4   9    6.37    1.91
  -1   4   9    5.48    1.75
  -1   4   9    4.53    2.06
  -1  -4  -9    6.65    2.11
  -1  -4  -9    7.56    2.64
   1  -4  -9    2.57    1.36
  -1   4  -9    5.15    2.12
  -1  -4   9    5.43    1.75
  -1  -4   9    4.65    1.55
  -1  -4   9    7.88    3.90
  -1  -4   9    1.63    2.54
  -1   4  -9    8.94    2.44
   1  -4  -9    4.33    1.84
   1   4   9    3.28    1.36
   1   4   9    5.22    1.73
   1   4   9    9.26    2.79
  -3   4   9    1.98    1.19
  -3  -4  -9    5.06    2.08
  -3  -4  -9    1.81    1.45
  -3   4   9    2.87    1.63
  -3   4   9    2.86    1.88
   3   4  -9    2.12    1.45
  -3  -4  -9    2.46    1.30
   3  -4   9    4.41    1.58
  -3   4   9    2.59    1.33
   3  -4   9    3.90    1.50
   3   4  -9    2.17    1.20
  -3   4  -9    2.37    1.68
  -3   4  -9    2.35    0.93
  -3  -4   9    1.48    1.16
   3   4   9    2.46    1.31
  -3  -4   9    4.60    1.82
  -3  -4   9    3.23    1.78
   3   4   9    0.85    1.11
  -3   4  -9    3.01    1.39
  -3  -4   9    3.55    1.85
   3  -4  -9    1.20    1.16
   3  -4  -9    1.78    1.48
   5   4  -9    1.49    1.17
   5  -4   9   -0.43    1.48
  -5   4   9    0.15    1.09
   5  -4   9    0.09    0.86
   5   4  -9   -1.19    1.14
  -5   4   9    2.04    1.11
  -5  -4  -9    1.38    1.24
  -5  -4  -9    1.40    1.36
  -5   4   9    0.72    1.24
  -5   4   9    0.96    0.94
   5   4   9    0.88    0.96
   5   4   9    1.35    1.32
   5  -4  -9   -0.21    0.90
  -5  -4   9    0.96    1.46
  -5  -4   9   -0.60    0.72
  -5  -4   9    2.42    2.06
  -5  -4   9    2.76    1.40
  -5   4  -9   -0.67    0.98
  -5   4  -9    0.98    1.18
  -7   4   9   16.61    3.25
  -7  -4  -9   13.67    3.25
   7  -4   9   12.60    2.35
  -7   4   9   15.26    3.41
  -7  -4  -9   16.00    3.14
  -7   4   9    9.61    1.97
   7  -4   9   15.22    3.29
   7   4  -9   11.88    2.44
  -7  -4   9   16.01    3.56
   7   4   9   14.19    2.69
  -7  -4   9   25.12    4.60
  -7   4  -9   13.31    2.63
  -7   4  -9   18.80    3.50
  -7  -4   9   10.25    2.22
  -7  -4   9   10.08    2.30
  -7  -4   9   10.67    2.68
   7   4   9   15.45    2.91
   7  -4  -9   13.72    2.83
  -9  -4  -9   19.06    3.56
  -9   4   9    6.52    2.40
   9  -4   9   20.38    2.96
  -9   4   9   16.42    3.34
  -9  -4  -9   14.34    3.27
   9   4  -9   11.43    2.48
   9  -4   9    9.57    2.61
  -9  -4   9   13.68    3.43
  -9  -4   9   16.18    2.72
  -9   4  -9   13.67    2.70
   9   4   9   14.94    2.84
  -9  -4   9   10.97    3.00
  -9  -4   9   11.93    2.91
  -9   4  -9   13.51    2.75
   9  -4  -9   13.68    2.78
 -11  -4  -9   -0.84    1.23
 -11   4   9    2.75    1.57
  11   4  -9    2.62    1.53
  11  -4   9    1.53    1.57
  11  -4   9    2.31    1.40
 -11   4   9    0.44    1.53
 -11  -4  -9    1.46    1.66
  11  -4  -9    2.67    1.57
 -11  -4   9    0.29    1.58
  11   4   9   -0.13    1.40
  11   4   9    1.91    1.38
 -11   4  -9    1.32    1.00
 -11   4  -9    0.31    1.19
 -11  -4   9    2.66    2.02
  13   4  -9    0.63    1.34
 -13   4   9    0.52    1.51
  13  -4   9   -0.06    1.40
 -13  -4  -9    0.25    1.32
 -13   4   9   -0.41    1.23
 -13  -4  -9   -0.44    1.31
 -13   4  -9    0.53    0.95
 -13  -4   9   -2.15    1.16
 -13  -4   9    0.32    1.15
  13  -4  -9    2.16    1.58
  13   4   9    0.71    1.65
  13   4   9   -0.35    1.03
 -15  -4  -9    0.71    1.25
  15   4  -9   -0.84    1.11
  15  -4   9   -0.78    1.59
 -15   4   9    1.40    1.59
  15  -4  -9   -1.19    1.21
  15   4   9    0.44    1.73
  15   4   9   -0.68    1.37
 -15   4  -9   -0.44    0.89
 -15  -4   9    1.22    1.67
   0  -5  -9   13.60    2.83
   0  -5   9    9.36    2.50
   0   5   9   12.03    2.57
   0  -5  -9   10.17    2.98
   0   5   9   13.35    2.72
   0  -5   9   17.33    3.07
   0   5  -9   14.90    3.17
   0   5   9   15.92    3.90
   0   5  -9   10.57    3.02
  -2  -5  -9   -0.35    1.11
  -2   5   9   -0.40    1.16
   2  -5   9    2.23    1.42
  -2  -5  -9   -0.92    0.94
   2   5  -9   -0.66    1.02
  -2  -5  -9    1.03    1.70
   2  -5   9   -0.39    1.00
  -2   5   9   -0.26    0.88
   2   5  -9   -0.41    1.15
  -2  -5   9   -0.90    0.80
  -2   5  -9    1.47    1.56
  -2   5  -9    0.69    0.93
   2  -5  -9   -0.29    1.08
  -2   5  -9   -0.85    1.07
   2   5   9    0.00    1.11
   2   5   9   -0.88    1.08
  -2  -5   9    1.34    1.51
   2  -5  -9    0.95    1.20
   4  -5   9    1.48    1.29
   4   5  -9   -1.22    1.36
   4   5  -9    0.79    1.34
  -4  -5  -9    0.02    1.03
  -4   5   9    0.64    1.65
  -4   5   9    0.49    1.06
  -4  -5  -9   -1.06    1.30
  -4   5   9   -1.05    1.34
  -4   5   9    0.55    1.15
   4  -5   9    0.77    1.08
  -4   5  -9    0.03    1.23
   4  -5  -9    1.78    1.45
  -4   5  -9   -0.22    1.24
  -4  -5   9    1.21    1.33
   4   5   9    0.07    1.17
  -4  -5   9    1.89    1.82
   4   5   9   -0.34    1.07
  -4  -5   9    0.47    0.95
  -6   5   9    2.84    1.91
  -6  -5  -9    3.06    1.93
  -6   5   9    2.47    1.27
   6  -5   9    3.43    1.67
   6   5  -9    3.25    1.67
  -6  -5  -9    4.65    2.28
  -6   5   9    1.51    1.76
  -6   5  -9    1.02    1.42
   6   5   9    2.03    1.51
   6  -5  -9    1.66    1.48
  -6  -5   9    1.48    1.74
  -6   5  -9    0.45    1.33
   6   5   9    0.11    1.17
  -6  -5   9    5.47    1.87
  -6  -5   9    1.83    1.36
   8  -5   9    4.69    2.47
  -8   5   9    0.47    1.38
  -8   5   9    5.72    2.19
   8  -5   9    5.84    2.11
  -8  -5  -9    6.47    2.30
  -8  -5  -9    4.71    2.34
   8   5   9    1.61    1.43
   8  -5  -9    3.37    1.71
  -8  -5   9    1.74    1.30
  -8   5  -9    4.29    1.98
  -8  -5   9    3.19    1.92
  -8   5  -9    1.23    1.32
   8   5   9    2.33    1.65
 -10   5   9    1.08    1.82
 -10   5   9    1.01    1.44
 -10  -5  -9   -0.30    1.35
  10  -5   9   -0.71    1.80
 -10  -5  -9    0.38    1.39
  10   5  -9    0.45    1.30
  10  -5   9    2.12    1.48
 -10  -5   9    0.56    1.72
 -10  -5   9   -0.42    1.72
 -10   5  -9    0.92    1.13
  10  -5  -9    1.13    1.37
 -10   5  -9    1.32    1.47
  10   5   9   -0.44    1.08
 -12   5   9    3.21    1.84
 -12  -5  -9    0.94    1.42
  12  -5   9    1.86    2.18
  12   5  -9    4.20    2.02
 -12   5  -9    6.60    2.20
 -12  -5   9    2.67    1.83
  12   5   9    6.46    2.23
 -12   5  -9    3.68    1.60
  12  -5  -9    3.58    1.91
  14  -5   9    0.32    1.95
  14   5  -9   -1.54    1.16
 -14  -5  -9   -0.39    1.59
 -14   5   9   -0.78    1.18
  14   5   9    1.47    1.61
 -14  -5   9    6.09    2.80
  14  -5  -9   -0.17    1.28
 -14   5  -9   -0.77    0.90
  -1  -6  -9    2.39    1.94
  -1   6   9    0.64    1.63
   1   6  -9    1.63    1.40
   1   6  -9    3.78    2.38
   1  -6   9    2.07    1.49
  -1   6   9    1.89    1.46
  -1   6   9    3.05    1.69
  -1  -6  -9    1.44    1.64
   1  -6   9    3.07    1.86
   1   6   9    2.89    1.64
   1  -6  -9    3.41    1.91
  -1  -6   9    2.40    1.74
   1   6   9    0.66    1.47
  -1   6  -9    3.29    1.92
  -1   6  -9    2.46    2.00
  -1  -6   9    3.10    1.71
  -1   6  -9    3.00    1.28
  -3   6   9   16.08    3.35
  -3   6   9   28.29    5.58
  -3   6   9   18.53    3.23
   3   6  -9   24.95    3.88
   3  -6   9   26.22    4.00
  -3  -6  -9   25.31    5.03
   3  -6   9   14.79    3.11
   3   6   9   22.72    3.90
  -3   6  -9   24.59    4.14
  -3   6  -9   22.41    4.49
   3  -6  -9   17.06    3.35
  -3  -6   9   20.88    3.70
  -3  -6   9   21.74    3.72
   3   6   9   24.00    3.89
  -5  -6  -9   28.17    5.27
  -5   6   9   34.27    5.09
  -5   6   9   29.85    5.26
   5  -6   9   37.01    4.87
  -5  -6  -9   34.46    5.32
  -5   6   9   28.78    3.75
   5   6  -9   26.30    4.23
  -5   6  -9   29.93    4.48
  -5  -6   9   38.76    7.97
  -5   6  -9   36.52    5.50
  -5  -6   9   22.57    3.79
   5  -6  -9   30.96    4.81
   5   6   9   30.62    4.60
  -5  -6   9   28.64    4.19
   5   6   9   33.81    4.48
   7   6  -9   22.55    3.93
  -7   6   9   17.96    4.20
  -7   6   9   27.70    3.40
  -7  -6  -9   29.99    5.07
   7  -6   9   30.22    4.36
  -7   6   9   36.68    5.48
  -7  -6  -9   30.74    5.54
  -7   6  -9   19.76    3.94
  -7  -6   9   20.12    4.64
  -7  -6   9   24.48    3.86
   7   6   9   34.82    4.74
  -7   6  -9   21.87    3.79
   7  -6  -9   34.02    4.95
   7   6   9   26.00    4.18
  -9  -6  -9    5.77    2.63
  -9   6   9    4.53    2.28
   9   6  -9    1.89    1.96
   9  -6   9    4.85    2.07
   9   6   9    4.23    2.16
  -9   6  -9    3.20    1.81
   9  -6  -9    1.38    1.74
  -9  -6   9    1.25    2.24
   9   6   9    3.18    1.84
 -11  -6  -9   10.38    3.18
  11  -6   9    6.20    3.00
  11   6  -9    9.41    2.98
  11  -6   9    9.34    2.65
 -11   6   9    9.39    3.00
  11   6   9   12.24    3.16
 -11   6  -9   10.76    2.94
  11  -6  -9   14.68    3.36
   0  -7   9    1.32    1.46
   0   7   9    2.75    1.92
   0   7  -9    1.81    2.43
   0  -7   9    1.44    2.04
   0   7  -9    5.53    1.82
   0  -7  -9    0.75    1.74
   0   7   9    3.23    2.05
  -2   7   9    0.31    1.38
  -2   7   9    4.70    2.80
  -2  -7  -9    1.51    2.38
   2   7  -9    2.07    1.70
   2   7  -9    1.22    2.10
   2  -7   9    0.48    1.53
   2  -7   9    0.44    1.76
  -2  -7   9    0.93    1.62
   2   7   9   -0.12    1.46
  -2  -7   9   -0.40    1.47
   2   7   9    0.36    1.36
  -2   7  -9    2.24    1.86
   2  -7  -9    0.99    1.84
   4  -7   9    2.57    1.94
   4   7  -9   -1.02    2.33
  -4   7   9    1.22    1.48
   4   7  -9   -0.58    1.28
   4  -7   9    0.74    1.50
   4   7   9   -0.62    1.53
   4   7   9    1.12    1.36
  -4  -7   9    0.20    1.40
  -4  -7   9   -0.66    1.64
   4  -7  -9   -1.01    1.58
  -4   7  -9   -1.24    1.23
   6  -7   9    0.37    1.48
   6   7  -9    0.63    1.71
  -6   7   9    0.62    1.25
  -6  -7   9   -0.39    1.62
   6   7   9   -0.24    1.49
   6  -7  -9    1.09    1.86
  -6   7  -9    0.76    1.76
   6   7   9    2.32    1.76
  -8   7   9    0.51    1.96
   8  -7   9    4.03    2.03
   8   7  -9    4.59    2.32
  -8  -7  -9   -0.97    1.65
  -8   7  -9    2.52    2.18
   8  -7  -9    4.07    2.33
   8   7   9    2.31    1.96
   8   7   9    2.60    1.93
   0   0 -10  162.07    8.63
   0   0  10  162.53    7.41
   0   0 -10  166.12    8.08
   0   0 -10  156.02    7.20
   0   0 -10  170.79    7.83
   0   0  10  186.65    7.68
   0   0  10  162.39    8.48
  -2   0 -10   27.05    3.53
  -2   0 -10   34.13    3.67
   2   0 -10   27.79    3.63
   2   0  10   34.23    4.29
  -2   0  10   31.28    3.51
  -2   0  10   36.23    3.80
  -2   0  10   38.86    4.91
   2   0  10   28.08    3.29
  -2   0 -10   25.39    3.69
  -2   0 -10   26.18    2.93
   2   0 -10   29.55    3.28
   2   0 -10   41.22    5.20
   2   0  10   27.07    4.16
   2   0  10   28.36    3.17
   4   0  10    1.45    0.89
   4   0  10    1.45    1.61
  -4   0  10    0.89    1.16
   4   0 -10    0.94    0.95
  -4   0  10    1.47    1.41
   4   0 -10    1.43    1.40
  -4   0  10    0.61    0.86
   4   0  10    0.31    0.85
  -4   0 -10    0.48    0.87
  -4   0  10    1.88    0.91
  -4   0 -10   -0.05    0.75
  -6   0 -10    1.12    1.05
   6   0 -10    0.34    1.12
  -6   0  10    4.17    1.65
   6   0  10    1.06    1.39
   6   0 -10    2.57    1.30
  -6   0  10    0.17    0.93
   6   0  10    1.24    0.85
  -6   0 -10    3.24    1.36
  -6   0  10    2.97    1.21
  -6   0  10    4.52    1.43
  -8   0  10    0.40    1.16
  -8   0  10   -0.02    0.72
  -8   0  10   -1.05    0.90
  -8   0 -10    0.77    0.96
   8   0  10   -0.24    0.62
   8   0  10    0.29    1.30
   8   0 -10   -0.15    0.86
  -8   0 -10    0.83    0.94
 -10   0  10   17.15    3.22
 -10   0  10   18.04    2.43
  10   0  10   12.30    2.73
 -10   0 -10   18.94    2.90
 -10   0 -10   19.55    3.63
 -10   0  10   12.88    3.00
 -10   0 -10   19.76    2.74
  10   0  10   17.30    2.44
  10   0 -10   20.57    3.32
 -12   0  10   37.62    4.80
  12   0  10   35.61    4.20
 -12   0  10   37.05    5.10
 -12   0 -10   37.37    5.45
  12   0 -10   31.97    4.20
 -12   0 -10   39.12    3.21
 -12   0 -10   37.84    3.90
 -14   0  10    8.48    2.57
 -14   0  10    6.67    2.43
 -14   0 -10    7.53    1.77
  14   0  10    7.32    2.08
 -14   0 -10    7.58    2.93
  14   0 -10   13.20    2.78
 -16   0  10    1.97    1.58
  16   0 -10    1.78    1.49
 -16   0 -10    0.97    0.95
 -16   0 -10   -0.14    1.74
  16   0  10    0.00    1.36
 -18   0  10    2.23    1.70
  18   0 -10    0.80    1.50
  18   0  10   -0.03    1.40
 -18   0 -10    1.49    1.22
 -18   0 -10    5.46    2.93
  -1   1  10    0.92    0.96
   1   1 -10    2.62    1.41
   1   1 -10    0.63    0.79
  -1  -1 -10    1.09    0.89
   1  -1  10    0.67    0.77
   1  -1  10    0.76    0.91
  -1  -1 -10    1.64    1.32
   1  -1  10    1.19    0.98
  -1   1  10    3.08    1.57
   1  -1  10    0.17    1.19
  -1  -1 -10    1.88    1.31
  -1  -1 -10    0.28    0.83
  -1   1  10    1.30    0.89
   1   1 -10   -0.04    0.93
  -1   1 -10   -0.40    0.74
   1  -1 -10    0.63    0.76
  -1  -1  10   -0.24    1.00
   1  -1 -10    1.26    0.99
  -1   1 -10    2.29    1.06
  -1  -1  10    2.49    1.19
  -1  -1  10    0.27    0.76
   1   1  10    1.03    0.83
   1   1  10    0.55    1.12
   1   1  10    0.33    0.72
   1  -1 -10    0.53    1.07
  -1   1 -10    1.22    0.99
  -3  -1 -10    4.60    1.71
  -3   1  10    3.94    1.27
   3   1 -10    5.91    1.68
  -3  -1 -10    5.09    1.64
   3   1 -10    4.24    1.73
  -3   1  10    6.64    1.67
   3  -1  10    3.34    1.35
  -3  -1 -10    6.08    2.16
   3   1 -10    5.93    1.91
   3  -1  10    5.27    1.58
  -3   1  10    3.35    1.58
  -3   1  10    5.23    1.85
  -3  -1 -10    4.29    1.41
   3  -1  10    1.41    1.61
  -3   1 -10    2.88    1.35
  -3  -1  10    5.03    1.55
  -3  -1  10    2.21    1.46
   3   1  10    5.09    1.47
  -3  -1  10    4.16    1.40
  -3  -1  10    4.96    1.92
   3  -1 -10    3.58    1.27
   3   1  10    5.73    1.63
   3  -1 -10    5.87    2.08
   3   1  10    3.14    1.89
  -3   1 -10    6.18    1.69
  -5   1  10    0.06    1.07
   5  -1  10    0.22    0.74
  -5   1  10   -0.18    0.67
  -5   1  10    0.46    0.70
  -5   1  10    1.21    1.16
   5   1 -10   -0.60    0.66
  -5  -1 -10    0.63    0.90
  -5  -1 -10    0.43    0.88
   5  -1  10    1.21    1.35
   5  -1  10    0.10    0.69
   5   1 -10   -0.11    0.98
  -5  -1  10    0.85    1.16
   5  -1 -10   -0.06    1.06
   5   1  10    1.37    1.46
  -5   1 -10   -0.01    0.67
  -5   1 -10   -0.29    0.75
   5   1  10    0.11    0.61
  -5  -1  10    0.82    1.18
   5   1  10    0.52    0.99
  -5  -1  10    1.11    0.89
  -5  -1  10    0.28    0.84
   5  -1 -10    0.20    0.76
  -7   1  10    2.58    1.50
  -7   1  10    1.96    1.07
   7  -1  10    2.70    1.71
  -7   1  10    4.13    1.54
   7  -1  10    2.32    1.06
  -7  -1 -10    3.14    1.46
  -7   1  10    4.02    1.74
   7   1 -10    1.96    1.32
  -7  -1 -10    2.10    1.39
   7  -1 -10    5.41    1.69
  -7   1 -10    2.24    1.11
  -7  -1  10    2.79    1.74
   7   1  10    3.06    1.19
  -7  -1  10    5.00    1.53
  -7   1 -10    3.37    1.51
   7   1  10    2.04    1.38
  -7  -1  10    2.38    1.45
  -7  -1  10    2.93    1.30
   7   1  10    4.96    1.56
  -9  -1 -10    7.44    1.88
  -9  -1 -10   12.64    2.90
   9   1 -10   13.12    2.54
  -9   1  10   13.97    2.19
  -9   1  10    8.49    2.47
   9  -1  10   10.60    2.45
  -9   1  10   14.21    3.07
  -9  -1 -10   14.41    2.74
   9  -1  10   14.71    2.29
  -9  -1  10    7.65    2.42
   9   1  10   14.83    2.43
  -9   1 -10   14.21    2.51
  -9  -1  10   10.33    2.63
  -9   1 -10    8.58    1.86
   9   1  10   14.44    3.04
   9  -1 -10   15.64    2.88
  -9  -1  10   14.01    2.30
  11  -1  10    1.19    1.49
  11   1 -10    1.96    1.29
 -11   1  10    2.04    1.57
 -11  -1 -10    1.28    1.01
 -11   1  10    2.22    1.50
 -11  -1 -10    0.54    1.38
 -11  -1 -10    3.59    1.54
  11   1  10    4.19    1.90
 -11  -1  10    0.80    1.32
 -11  -1  10    3.86    2.07
  11   1  10    1.61    1.13
 -11   1 -10    2.18    1.35
  11  -1 -10    2.78    1.43
 -11   1 -10    1.69    0.97
  13  -1  10    0.37    1.24
 -13  -1 -10   -0.24    1.46
 -13   1  10   -0.21    1.08
 -13  -1 -10    0.61    1.13
 -13   1  10   -0.03    1.15
  13   1 -10    0.56    1.22
 -13  -1 -10   -0.76    0.90
 -13   1 -10    1.09    1.76
 -13  -1  10   -0.96    1.12
 -13  -1  10    0.07    1.30
 -13   1 -10    0.45    0.84
  13   1  10   -0.64    1.16
  13  -1 -10   -0.17    1.13
  15  -1  10    0.60    1.15
 -15   1  10    0.37    1.28
 -15  -1 -10    0.28    0.95
  15   1 -10    1.15    1.40
 -15   1  10    2.36    1.60
 -15  -1 -10    3.41    2.24
 -15  -1  10   -0.19    1.26
 -15   1 -10    0.07    1.70
 -15   1 -10    0.42    0.88
  15   1  10   -0.66    1.26
  15  -1 -10    0.32    1.30
 -15  -1  10   -0.06    1.43
 -17   1  10    3.34    1.87
  17   1 -10   -0.73    1.18
  17  -1  10    0.25    1.32
 -17  -1 -10   -0.98    2.07
 -17  -1 -10    1.46    1.23
  17   1  10    1.21    1.71
 -17  -1  10    0.78    1.74
  17  -1 -10   -1.40    1.31
 -17   1 -10    2.10    2.47
 -17   1 -10    1.43    1.00
   0   2 -10   65.23    4.19
   0  -2 -10   65.79    4.88
   0  -2  10   72.41    4.49
   0  -2 -10   73.54    4.50
   0  -2  10   67.80    4.43
   0   2 -10   68.64    4.90
   0  -2  10   73.37    5.48
   0   2 -10   67.34    5.26
   0  -2 -10   70.52    5.61
   0   2  10   63.83    4.39
   0   2  10   76.55    4.70
   0   2  10   68.77    5.27
   2   2 -10   62.95    4.76
  -2   2  10   63.64    5.15
  -2  -2 -10   66.72    4.13
   2  -2  10   57.57    4.11
  -2  -2 -10   52.34    5.76
   2   2 -10   64.01    5.14
  -2   2  10   61.20    4.28
   2   2 -10   55.63    4.07
  -2   2  10   59.94    4.09
  -2  -2 -10   62.54    4.61
   2  -2  10   59.93    4.10
  -2  -2  10   55.35    5.97
   2   2  10   64.94    4.34
   2   2  10   58.87    4.13
   2  -2 -10   73.26    4.63
  -2   2 -10   60.67    4.57
   2  -2 -10   73.96    7.30
  -2   2 -10   64.75    5.02
  -2  -2  10   63.22    4.31
  -2  -2  10   59.46    4.18
   2  -2 -10   75.28    5.31
   2   2  10   67.41    5.22
  -4   2  10   56.54    5.03
   4   2 -10   57.19    5.09
   4  -2  10   52.60    3.79
   4   2 -10   55.24    6.21
  -4  -2 -10   51.79    5.02
  -4   2  10   50.60    5.76
   4  -2  10   53.10    3.84
  -4   2  10   48.64    5.02
  -4  -2 -10   43.01    5.10
  -4   2  10   53.98    4.97
   4  -2  10   53.35    5.63
  -4  -2  10   59.02    6.48
   4   2  10   57.48    4.00
   4  -2 -10   55.52    6.12
  -4   2 -10   54.25    5.26
  -4  -2  10   42.06    7.22
  -4   2 -10   58.93    4.73
  -4  -2  10   54.28    4.00
   4   2  10   56.68    4.07
   4  -2 -10   49.75    4.78
  -4  -2  10   58.03    5.14
  -6  -2 -10    1.32    1.20
  -6   2  10    1.35    1.24
   6   2 -10    1.18    1.54
   6  -2  10    0.81    1.42
   6  -2  10    0.32    0.90
  -6  -2 -10    1.52    1.31
  -6   2  10    0.18    0.77
  -6   2  10    1.55    1.50
  -6   2  10    2.34    1.19
   6   2 -10    0.92    1.05
  -6  -2  10    0.75    1.07
  -6  -2  10    1.55    1.43
  -6   2 -10    1.71    1.31
  -6   2 -10    0.54    0.95
   6  -2 -10    0.58    0.95
   6   2  10    1.00    1.16
  -6  -2  10   -0.12    0.73
  -6  -2  10    1.83    1.07
   6   2  10   -0.18    1.34
   6   2  10   -0.06    0.77
   8  -2  10   21.50    2.83
   8  -2  10   13.21    2.88
   8   2 -10   21.18    3.18
  -8   2  10   18.25    2.68
  -8  -2 -10   25.64    3.90
  -8   2  10   23.27    4.17
  -8   2  10   23.91    3.83
  -8  -2 -10   20.85    3.24
   8   2  10   23.66    3.99
  -8  -2  10   25.06    3.35
  -8   2 -10   27.54    3.51
  -8   2 -10   21.99    3.26
  -8  -2  10   24.73    3.19
  -8  -2  10   21.59    3.61
   8   2  10   17.20    2.77
  -8  -2  10   23.71    4.08
   8  -2 -10   26.35    3.65
 -10  -2 -10   21.00    3.50
  10   2 -10   21.15    3.25
  10  -2  10   15.30    2.78
 -10   2  10   23.85    4.06
  10  -2  10   18.83    2.60
 -10   2  10   22.94    3.87
 -10  -2 -10   19.59    3.10
 -10  -2  10   18.86    2.66
  10   2  10   24.45    3.95
 -10   2 -10   22.67    3.18
  10   2  10   22.49    3.09
 -10  -2  10   23.00    3.77
  10  -2 -10   21.85    3.48
 -10  -2  10   23.65    4.26
 -10   2 -10   20.78    3.01
 -12  -2 -10   31.06    4.12
 -12  -2 -10   36.52    4.24
 -12   2  10   26.27    4.40
 -12   2  10   37.24    5.10
  12   2 -10   32.41    4.19
  12  -2 -10   35.46    4.46
 -12  -2  10   39.51    5.13
 -12   2 -10   39.62    3.76
 -12  -2  10   33.92    5.22
 -12   2 -10   32.06    3.64
  12   2  10   28.25    3.59
  12   2  10   35.25    4.76
  14   2 -10   29.40    4.20
 -14   2  10   36.09    5.00
 -14   2  10   29.39    4.81
 -14  -2 -10   34.87    4.03
 -14  -2 -10   37.04    4.22
 -14  -2  10   26.85    4.61
 -14  -2  10   28.29    4.54
  14  -2 -10   32.21    4.28
 -14   2 -10   38.49    3.68
  14   2  10   38.91    4.77
 -14  -2  10   35.64    5.02
  16  -2  10    1.86    1.57
  16   2 -10    1.85    1.52
 -16  -2 -10    2.07    1.38
 -16   2  10    5.63    2.12
 -16   2 -10    2.57    2.37
 -16  -2  10   -0.31    1.45
  16   2  10    3.12    2.16
  16  -2 -10    3.82    1.94
 -16  -2  10    2.11    1.66
 -16   2 -10    2.79    1.20
  -1  -3 -10   21.53    3.04
   1   3 -10   25.11    4.08
  -1  -3 -10   19.24    3.75
  -1  -3 -10   22.49    3.64
  -1   3  10   16.24    2.67
   1  -3  10   16.51    2.71
   1  -3  10   25.29    3.26
   1   3 -10   14.81    2.70
  -1   3  10   21.15    3.86
   1   3 -10   20.61    2.94
  -1   3  10   14.96    2.60
   1  -3 -10   17.37    3.33
  -1  -3  10   24.35    3.37
  -1  -3  10   29.66    4.58
   1   3  10   17.12    2.76
  -1   3 -10   16.65    3.17
   1   3  10   15.99    2.78
   1   3  10   20.72    3.81
  -1   3 -10   22.24    3.48
   1  -3 -10   21.85    3.13
  -1  -3  10   29.72    3.78
  -3   3  10    1.47    1.03
   3   3 -10    0.71    1.37
   3   3 -10    3.01    1.79
  -3  -3 -10    5.26    2.04
   3   3 -10    4.85    1.61
  -3  -3 -10    1.82    1.30
  -3   3  10    3.28    1.84
  -3  -3 -10    3.23    1.63
  -3   3  10    3.39    1.60
   3  -3  10    0.73    1.08
   3  -3  10    2.69    1.36
  -3   3  10    3.77    1.42
  -3   3 -10    4.42    1.85
   3   3  10    1.37    1.16
  -3  -3  10    3.63    1.46
  -3  -3  10    2.59    1.25
   3  -3 -10    1.21    1.34
   3   3  10    4.19    1.68
  -3   3 -10    1.63    1.28
  -3  -3  10    3.99    2.06
   3  -3 -10    3.37    1.77
  -5  -3 -10   34.14    4.69
   5  -3  10   42.61    5.21
   5   3 -10   25.44    3.64
   5   3 -10   28.20    4.37
  -5   3  10   33.90    4.11
  -5   3  10   28.09    4.24
  -5   3  10   31.43    3.62
  -5  -3 -10   27.42    3.86
   5  -3  10   34.54    3.80
  -5   3  10   39.38    4.87
  -5  -3  10   25.34    4.33
  -5  -3  10   32.39    3.98
  -5  -3  10   26.43    3.53
   5   3  10   24.62    3.39
  -5   3 -10   32.57    4.38
   5  -3 -10   34.13    4.08
   5   3  10   34.31    3.93
  -5   3 -10   33.37    4.11
   7  -3  10   -0.61    1.22
  -7  -3 -10    1.70    1.35
   7  -3  10    0.32    0.94
  -7   3  10    0.92    1.40
  -7   3  10   -0.13    0.86
   7   3 -10    0.97    1.10
  -7   3  10   -0.09    1.16
  -7  -3 -10   -0.26    0.94
   7   3  10    2.90    1.48
  -7  -3  10    1.90    1.63
  -7  -3  10    1.96    1.17
   7   3  10   -0.08    0.91
  -7  -3  10    0.85    0.98
  -7   3 -10    2.30    1.33
  -7  -3  10   -0.14    1.12
  -7   3 -10    1.06    1.17
  -7  -3  10   -0.57    1.09
   7  -3 -10    0.46    1.14
  -9  -3 -10    5.91    2.07
  -9   3  10    7.35    1.66
   9   3 -10    3.13    1.52
  -9   3  10    7.01    2.31
  -9   3  10    9.44    2.92
  -9  -3 -10    5.91    2.04
   9  -3  10    4.77    2.10
   9  -3  10    4.06    1.50
   9   3  10    7.36    2.38
  -9   3 -10    7.87    2.20
  -9  -3  10    8.44    2.73
   9  -3 -10    7.76    2.23
   9   3  10    7.79    2.10
  -9  -3  10    8.21    2.49
  -9  -3  10    5.11    2.36
  -9   3 -10    4.93    1.74
  -9  -3  10    6.23    1.66
 -11   3  10    6.90    2.50
 -11  -3 -10    7.40    2.46
  11  -3  10    2.26    1.76
  11   3 -10    7.09    2.21
 -11   3  10    6.91    2.50
 -11  -3 -10    5.33    2.11
 -11  -3  10    3.55    2.09
  11  -3 -10   10.74    2.72
  11   3  10    6.37    1.95
 -11  -3  10    9.04    2.01
 -11   3 -10    7.14    2.01
  11   3  10    8.73    2.73
 -11   3 -10    3.82    1.48
 -11  -3  10   11.87    3.06
 -13  -3 -10    0.37    1.16
 -13   3  10    2.14    1.80
  13  -3  10   -0.52    1.21
  13   3 -10    0.53    1.33
 -13  -3 -10    1.69    1.49
 -13   3  10    0.35    1.57
  13   3  10    2.47    1.56
  13   3  10    3.58    2.02
 -13   3 -10    2.08    1.31
 -13  -3  10    4.96    2.55
 -13  -3  10    0.83    1.80
  13  -3 -10    1.44    1.66
 -13  -3  10    2.56    1.90
  15   3 -10    2.52    1.68
  15  -3  10    1.85    1.75
 -15  -3 -10    4.90    2.08
 -15   3  10    3.04    2.12
 -15  -3 -10    4.77    1.86
  15  -3 -10    1.68    1.72
 -15   3 -10    4.50    1.49
 -15  -3  10    1.63    1.85
  15   3  10    3.40    2.11
   0   4 -10    6.95    2.16
   0  -4 -10    9.97    2.28
   0  -4 -10    7.87    2.56
   0   4  10    9.38    2.41
   0  -4  10    9.43    2.26
   0   4 -10    9.98    2.79
   0   4  10   10.79    3.18
   0  -4  10   12.44    2.44
   0   4  10   11.33    2.49
  -2  -4 -10    0.94    1.19
   2  -4  10    0.85    1.14
   2   4 -10   -1.10    1.20
  -2   4  10    0.22    0.85
  -2  -4 -10    0.69    1.10
   2   4 -10    0.56    1.17
   2   4 -10    1.34    1.43
   2  -4  10    1.15    1.28
  -2   4  10    0.44    1.18
  -2   4  10    0.09    0.88
  -2  -4 -10    0.00    1.36
  -2   4 -10    3.46    1.72
   2   4  10    0.23    1.04
  -2  -4  10    2.24    1.44
   2   4  10    0.06    0.89
   2  -4 -10    0.82    1.08
  -2   4 -10    0.31    1.06
   2  -4 -10    0.19    1.24
  -2  -4  10    0.92    1.00
  -4   4  10    5.04    1.73
   4  -4  10    2.07    1.51
   4  -4  10    3.53    1.62
  -4  -4 -10    6.13    2.22
  -4  -4 -10    4.25    2.12
   4   4 -10    6.72    2.56
  -4   4  10    3.74    1.46
  -4   4  10    5.82    2.41
  -4   4  10    6.81    2.29
   4   4 -10    2.57    1.30
  -4  -4  10    2.02    1.65
  -4   4 -10    1.18    1.37
  -4   4 -10    4.63    1.77
   4  -4 -10    4.40    1.73
  -4  -4  10    1.77    1.28
   4   4  10    7.30    2.14
  -4  -4  10    4.47    1.57
  -4  -4  10    4.40    2.23
   4   4  10    5.02    1.92
  -6   4  10   18.48    3.91
   6   4 -10   21.35    3.63
  -6  -4 -10   18.11    3.76
  -6   4  10   24.31    4.09
   6  -4  10   15.93    3.47
   6   4 -10   24.79    5.94
   6  -4  10   23.69    3.30
  -6  -4 -10   14.54    3.32
  -6   4  10   19.83    2.98
   6   4  10   19.96    3.42
  -6   4 -10   27.86    4.04
  -6  -4  10   24.04    3.50
  -6  -4  10   23.52    4.46
   6  -4 -10   24.37    3.69
  -6  -4  10   18.11    3.93
   6   4  10   20.63    3.24
  -6   4 -10   20.67    3.79
  -6  -4  10   21.70    3.53
   8  -4  10    5.66    1.81
  -8   4  10    9.10    2.02
   8  -4  10    8.35    2.75
   8   4 -10    6.07    1.96
  -8   4  10    7.63    2.40
  -8  -4 -10    5.06    2.06
  -8  -4 -10   11.44    3.03
  -8   4  10    7.84    2.65
  -8  -4  10   10.22    2.36
  -8  -4  10   11.36    2.88
  -8  -4  10    7.53    2.57
  -8  -4  10    7.10    2.38
   8  -4 -10   13.65    2.95
   8   4  10   14.75    3.00
  -8   4 -10   10.23    2.48
   8   4  10   10.01    2.45
  -8   4 -10    9.68    2.65
  10   4 -10    8.24    2.44
  10  -4  10    5.91    2.32
  10  -4  10   11.23    2.45
 -10  -4 -10    9.29    2.77
 -10   4  10    5.05    2.26
 -10  -4 -10    5.62    2.15
 -10   4  10    6.97    2.63
 -10  -4  10    8.23    3.31
 -10  -4  10    3.51    2.15
 -10  -4  10    4.96    1.78
  10  -4 -10    7.18    2.17
 -10   4 -10    6.05    2.11
 -10   4 -10    7.90    2.20
 -10  -4  10    1.97    1.89
  10   4  10    4.22    1.87
  12  -4  10   -0.09    1.62
 -12  -4 -10    1.04    1.69
 -12  -4 -10    1.04    1.58
 -12   4  10    2.52    1.85
  12   4 -10    0.34    1.27
 -12   4  10    1.19    1.57
 -12   4 -10   -0.88    0.96
  12  -4 -10    0.80    1.49
 -12  -4  10   -0.75    1.26
  12   4  10   -0.08    1.22
 -12  -4  10    1.17    1.63
 -12   4 -10   -1.30    1.07
  14   4 -10   -0.12    1.43
  14  -4  10    1.21    1.80
 -14  -4 -10    2.09    1.52
 -14   4  10    0.72    1.64
 -14   4 -10    0.44    1.05
  14  -4 -10    2.99    1.81
 -14  -4  10   -0.40    1.39
  14   4  10    0.57    1.77
  14   4  10   -0.72    1.32
  -1   5  10    0.50    1.15
   1  -5  10   -0.66    1.10
  -1  -5 -10   -0.34    1.51
   1  -5  10   -0.03    1.11
   1   5 -10    1.66    1.64
  -1   5  10   -0.79    1.42
  -1   5  10    1.24    1.27
   1   5 -10    0.41    1.45
  -1  -5 -10    0.41    1.19
  -1  -5  10   -1.35    1.16
   1   5  10    1.67    1.27
  -1   5 -10   -0.49    1.15
  -1  -5  10   -0.44    0.91
  -1   5 -10    1.34    1.60
   1   5  10   -0.66    1.00
   1  -5 -10    0.86    1.66
   1  -5 -10    0.92    1.32
   3  -5  10    2.02    1.54
  -3  -5 -10   -0.75    1.32
   3  -5  10   -0.71    1.10
   3   5 -10    0.10    1.47
  -3  -5 -10    0.71    1.69
   3   5 -10   -0.03    1.22
  -3   5  10   -0.01    1.52
  -3   5  10    0.29    1.06
  -3   5  10    0.19    1.15
  -3  -5  10   -0.53    0.90
   3   5  10   -0.61    1.00
  -3   5 -10    0.79    1.42
  -3   5 -10   -0.83    1.21
  -3  -5  10    1.36    1.49
   3  -5 -10   -0.27    1.18
   3   5  10   -0.68    1.06
   5   5 -10    0.03    1.57
   5  -5  10    1.41    1.50
  -5  -5 -10    1.00    1.62
  -5   5  10    0.55    1.05
  -5   5  10   -0.17    1.32
  -5  -5 -10    0.21    1.35
  -5   5  10    0.91    1.63
   5   5 -10   -0.62    1.06
  -5  -5  10    0.85    1.69
  -5   5 -10   -0.91    1.31
   5  -5 -10    1.47    1.43
  -5  -5  10    0.49    1.36
  -5  -5  10    0.63    0.89
   5   5  10    1.83    1.45
   5   5  10   -0.39    1.32
  -5   5 -10    1.76    1.48
   7   5 -10   -0.26    1.28
  -7  -5 -10    0.05    1.65
  -7   5  10    3.40    1.55
  -7   5  10    1.47    1.78
  -7   5  10   -0.28    1.77
   7  -5  10    1.68    1.56
  -7  -5 -10    1.65    2.11
  -7  -5  10    2.14    1.19
  -7  -5  10    3.59    1.72
  -7  -5  10    5.68    2.70
   7  -5 -10    0.58    1.30
   7   5  10    1.84    1.58
   7   5  10   -0.40    0.96
  -7   5 -10    1.78    1.56
  -7   5 -10    2.54    1.81
   9  -5  10    3.23    2.36
   9  -5  10    5.44    2.03
  -9   5  10    2.68    2.10
  -9   5  10    1.79    1.71
  -9  -5 -10    4.42    2.32
   9   5 -10    6.19    2.35
  -9  -5 -10    2.81    1.77
  -9   5 -10    6.18    2.24
  -9  -5  10    5.83    2.65
   9  -5 -10    7.44    2.32
  -9  -5  10    5.80    1.92
  -9   5 -10    6.36    2.24
   9   5  10    5.41    1.96
  11  -5  10    1.40    1.52
 -11   5  10    2.34    2.00
  11   5 -10   -0.52    1.18
  11  -5  10   -0.73    1.85
 -11  -5 -10    2.50    1.81
  11   5  10    1.30    1.38
 -11   5 -10    1.55    1.72
  11  -5 -10    2.90    1.93
 -11   5 -10    0.96    1.14
 -11  -5  10    3.95    2.51
 -13   5  10    0.92    1.86
 -13  -5 -10   -0.16    1.47
  13  -5  10   -0.55    2.16
  13   5 -10    0.04    1.51
  13   5  10    0.00    1.37
  13  -5 -10    2.29    1.76
 -13   5 -10   -0.19    1.02
 -13  -5  10   -0.52    1.70
   0   6  10    5.19    2.29
   0   6 -10    0.69    1.85
   0   6 -10    1.18    1.80
   0   6 -10    2.63    1.53
   0  -6  10    1.71    1.39
   0  -6  10   -1.01    1.35
   0  -6 -10    2.63    2.05
   0  -6 -10    1.47    1.74
   0   6  10    0.63    1.29
   2  -6  10   10.89    3.03
  -2  -6 -10    6.17    2.73
   2   6 -10    7.74    3.13
  -2   6  10    7.04    3.06
   2  -6  10    8.34    2.58
  -2   6  10   10.52    2.64
  -2   6  10   10.49    2.81
   2  -6 -10    7.89    2.58
   2   6  10    8.95    2.65
  -2   6 -10    5.95    2.64
  -2  -6  10    6.51    2.47
  -2  -6  10   12.64    2.84
  -2   6 -10    4.00    2.17
   2   6  10    6.58    2.35
   4  -6  10   16.41    3.23
   4   6 -10   18.11    4.21
   4   6 -10   36.16    5.13
  -4   6  10   33.49    5.79
   4  -6  10   18.95    3.57
  -4   6  10   21.86    3.51
  -4  -6 -10   15.91    4.13
   4   6  10   23.61    4.15
  -4  -6  10   28.42    4.50
   4   6  10   22.12    3.80
  -4   6 -10   13.93    3.53
   4  -6 -10   17.73    3.55
  -4  -6  10   24.81    3.97
  -4   6 -10   23.46    4.06
  -6  -6 -10   36.09    5.77
   6  -6  10   40.87    5.00
  -6   6  10   36.00    4.24
  -6  -6 -10   24.49    5.06
  -6   6  10   34.11    5.76
   6   6 -10   39.91    5.47
  -6   6  10   31.52    5.34
  -6  -6  10   36.13    8.79
   6  -6 -10   40.22    5.36
  -6  -6  10   32.00    4.61
  -6  -6  10   35.04    4.74
   6   6  10   40.77    5.47
   6   6  10   35.96    4.86
  -6   6 -10   38.41    5.13
  -8  -6 -10   10.45    3.14
   8   6 -10   13.80    3.54
   8  -6  10   16.44    3.21
  -8   6  10   14.04    3.72
  -8   6 -10   15.30    3.25
  -8  -6  10   14.33    2.91
   8   6  10   15.44    3.43
   8   6  10   13.92    3.21
   8  -6 -10   17.21    3.59
  -8  -6  10   10.76    3.45
  10  -6  10    7.36    2.36
 -10  -6 -10    3.77    2.44
  10   6 -10    2.23    2.03
 -10   6  10    9.82    3.24
  10   6  10    3.85    2.10
 -10   6 -10    3.74    1.97
  10  -6 -10    4.65    2.22
   1  -7  10   -0.30    1.59
   1  -7  10   -0.47    1.42
  -1   7  10   -1.05    1.29
  -1   7  10    0.57    1.49
   1   7 -10    0.19    1.31
   1  -7 -10    2.71    2.00
  -1  -7  10    2.42    2.10
   1   7  10   -0.63    1.41
   1   7  10   -0.13    1.67
  -1   7 -10   -1.32    1.78
  -1  -7  10    0.73    1.42
   3  -7  10    2.33    1.83
  -3   7  10    0.70    1.45
   3  -7  10   -0.95    1.45
   3   7 -10    0.84    1.52
   3  -7 -10    0.81    1.61
   3   7  10   -0.65    1.32
   3   7  10    2.17    2.05
  -3   7 -10    2.03    1.96
  -3  -7  10   -0.32    1.53
  -3  -7  10    0.35    1.71
   5   7 -10    1.56    2.10
   5  -7  10    2.44    1.93
  -5   7  10    1.11    1.65
   5  -7  10    0.72    1.69
   5   7  10    2.55    1.76
   5   7  10    2.03    1.98
   5  -7 -10    2.61    2.15
  -5   7 -10   -1.26    1.26
  -5  -7  10    1.89    1.53
  -5  -7  10    3.51    2.29
   1   0  11   80.71    5.00
  -1   0  11   94.54    6.36
  -1   0 -11   82.54    6.08
   1   0 -11   76.33    4.88
   1   0  11   88.60    9.58
   1   0 -11   79.10    5.58
   1   0 -11   89.67    6.31
  -1   0  11   83.97    5.16
  -1   0  11   79.70    4.89
   1   0  11   78.05    4.92
  -1   0 -11   88.84    4.90
  -1   0 -11   95.44    5.90
   3   0 -11    2.88    1.29
   3   0  11    9.39    2.01
   3   0  11    2.64    1.35
  -3   0 -11    4.33    1.75
  -3   0  11    4.71    1.66
  -3   0  11    3.46    1.40
   3   0 -11    4.85    1.94
  -3   0 -11    4.21    1.71
  -3   0  11    4.15    1.68
  -5   0  11    1.47    1.43
  -5   0  11   -0.16    0.83
  -5   0  11   -0.34    0.56
  -5   0 -11   -0.50    0.88
   5   0  11   -1.14    0.77
   5   0  11    0.38    0.81
   5   0 -11    0.34    0.87
  -5   0  11   -0.16    1.19
   5   0  11    1.59    1.56
   5   0 -11    0.50    1.28
  -5   0 -11    0.58    1.07
   7   0  11    0.16    1.42
  -7   0  11    0.38    0.90
  -7   0  11    0.36    0.83
  -7   0  11   -0.62    1.17
  -7   0 -11    0.66    1.05
   7   0  11    0.41    0.88
  -7   0 -11    0.04    1.02
  -7   0  11    0.50    1.43
   7   0 -11    0.45    0.96
   9   0  11    0.95    1.58
  -9   0  11    0.41    1.48
  -9   0 -11    0.31    0.91
  -9   0  11    1.64    1.33
   9   0  11    0.04    0.77
  -9   0 -11   -0.14    1.05
   9   0 -11    1.06    1.11
  -9   0  11   -0.21    0.81
  11   0  11   55.04    3.81
 -11   0 -11   46.94    5.95
 -11   0  11   52.32    6.02
  11   0 -11   62.58    6.19
  11   0  11   42.54    5.06
 -11   0  11   47.67    6.12
 -11   0 -11   41.85    4.47
 -11   0 -11   50.98    5.10
 -13   0 -11   16.50    2.72
  13   0 -11   17.93    3.39
  13   0  11   17.19    3.39
 -13   0 -11   16.88    2.89
 -13   0 -11   24.01    4.84
 -13   0  11   14.05    3.63
 -13   0  11   22.58    4.05
  15   0  11    0.03    1.56
  15   0 -11   -0.11    1.28
 -15   0 -11    1.00    1.19
 -15   0 -11    2.98    2.25
 -15   0  11    1.31    1.58
  17   0 -11    2.48    1.93
  17   0  11    2.10    1.75
 -17   0  11   -0.56    1.47
 -17   0 -11    6.86    3.35
 -17   0 -11    3.58    1.48
   0   1  11   21.36    3.92
   0   1 -11   18.76    3.00
   0   1 -11   25.09    4.03
   0   1  11   21.38    3.10
   0  -1 -11   20.42    3.75
   0   1 -11   20.48    2.79
   0  -1 -11   22.45    3.33
   0  -1 -11   21.05    2.99
   0  -1  11   23.27    3.24
   0  -1  11   20.82    3.04
   0  -1  11   19.50    3.74
   0   1  11   21.01    3.21
   2   1 -11    3.35    1.26
  -2   1  11    4.35    1.51
   2  -1  11    4.72    1.50
   2   1 -11    3.89    1.71
  -2  -1 -11    4.56    1.44
   2   1 -11    7.32    2.02
  -2  -1 -11    4.54    1.92
   2  -1  11    6.29    1.76
  -2  -1 -11    7.68    2.18
  -2   1  11    4.71    1.50
  -2   1  11    6.37    2.36
  -2   1 -11    3.28    1.42
   2   1  11    5.23    1.68
  -2   1 -11    4.28    1.62
   2  -1 -11    1.70    1.49
   2  -1 -11    6.39    1.83
   2   1  11    4.84    1.49
  -2  -1  11    4.08    1.73
  -2  -1  11    5.10    1.71
   2  -1 -11    5.65    1.69
  -2  -1  11    6.87    1.95
  -4   1  11   -0.57    0.57
   4  -1  11    0.60    0.97
  -4   1  11   -0.58    1.12
  -4  -1 -11   -0.03    1.12
  -4   1  11    0.45    0.85
   4   1 -11    0.31    0.82
   4  -1  11   -0.12    0.81
  -4  -1 -11   -0.37    0.96
  -4   1  11    0.14    1.11
   4   1 -11    1.08    1.23
   4  -1  11   -0.52    1.12
   4   1  11   -0.57    0.79
  -4  -1  11   -0.11    0.78
  -4   1 -11   -0.06    0.88
  -4  -1  11   -0.15    0.79
  -4   1 -11    0.93    1.02
   4  -1 -11    0.59    1.04
  -4  -1  11   -0.07    1.21
   4   1  11   -0.42    0.71
   4  -1 -11   -0.48    1.21
   6   1 -11    1.17    1.34
   6  -1  11    0.18    1.29
   6   1 -11    2.42    1.08
   6  -1  11    1.52    1.06
  -6   1  11    0.56    0.96
  -6   1  11    0.57    0.86
  -6   1  11    1.96    1.52
  -6   1  11    1.28    1.45
  -6  -1 -11    0.00    0.94
  -6  -1 -11    1.67    1.51
   6  -1 -11    1.12    1.12
  -6  -1  11    0.66    1.42
  -6  -1  11    0.57    0.99
  -6   1 -11    1.44    1.09
  -6  -1  11    1.43    1.59
  -6   1 -11    0.73    1.14
   6   1  11    2.31    1.86
  -6  -1  11    3.26    1.37
   6   1  11    0.53    0.88
   8  -1  11    2.24    1.05
  -8   1  11    0.56    1.36
  -8  -1 -11    2.95    1.52
   8   1 -11   -0.73    0.85
  -8  -1 -11    1.85    1.32
  -8   1  11    2.39    1.81
  -8   1  11    2.66    1.20
   8  -1  11    3.53    1.95
   8  -1 -11    2.38    1.43
  -8  -1  11    2.92    2.05
  -8  -1  11    1.85    1.22
  -8  -1  11    3.45    2.04
  -8   1 -11    0.38    0.98
   8   1  11    3.00    1.79
   8   1  11    1.58    1.22
  -8   1 -11    2.95    1.47
 -10   1  11    5.81    1.48
 -10  -1 -11    1.07    1.25
  10   1 -11    3.26    1.59
  10  -1  11    3.59    1.51
 -10   1  11    7.94    2.84
  10  -1  11    4.58    2.05
 -10   1  11    6.21    2.18
 -10  -1 -11    2.46    1.57
 -10   1 -11    5.67    1.92
  10  -1 -11    2.69    1.62
 -10  -1  11    6.03    1.59
  10   1  11    2.65    1.85
  10   1  11    5.07    1.61
 -10   1 -11    1.78    1.22
 -10  -1  11    4.22    1.94
 -10  -1  11    7.86    2.76
  12   1 -11    0.99    1.26
  12  -1  11    1.66    1.46
 -12   1  11   -1.24    1.10
 -12   1  11    1.25    1.60
 -12  -1 -11   -0.77    1.12
 -12  -1 -11    1.10    0.96
 -12   1 -11   -0.56    0.94
  12   1  11   -0.55    0.84
 -12  -1  11    1.08    1.35
  12   1  11   -0.14    1.51
 -12   1 -11    0.69    1.02
  12  -1 -11    0.95    1.36
 -12  -1  11    0.20    1.40
 -14  -1 -11   -0.44    1.18
 -14   1  11    0.59    1.67
  14  -1  11    0.48    1.44
 -14   1  11   -0.06    1.30
  14   1 -11   -0.12    1.09
 -14  -1 -11   -0.40    1.07
 -14  -1  11    0.44    1.54
  14   1  11   -0.62    1.44
 -14  -1  11   -1.11    1.22
 -14   1 -11   -0.61    1.74
  14  -1 -11   -0.80    0.99
 -14   1 -11    0.22    1.03
  16   1 -11    0.24    1.57
  16  -1  11   -0.18    1.39
 -16   1  11    1.46    1.60
 -16  -1 -11   -0.53    0.95
 -16  -1 -11    1.80    2.19
 -16   1 -11    1.98    1.05
  16  -1 -11   -0.32    1.33
  16   1  11    0.21    1.58
 -16  -1  11    0.75    1.56
 -16   1 -11    1.37    2.09
   1   2 -11   54.21    5.54
  -1  -2 -11   36.50    5.03
  -1   2  11   46.92    5.63
  -1  -2 -11   42.15    4.21
  -1   2  11   37.19    4.03
  -1  -2 -11   36.80    4.48
  -1   2  11   40.92    4.56
   1   2 -11   41.18    5.31
   1  -2  11   45.47    4.53
   1  -2  11   40.36    4.26
   1   2 -11   44.23    4.51
   1   2  11   42.65    4.60
  -1   2 -11   41.06    5.17
  -1   2 -11   39.68    4.62
  -1  -2  11   39.64    4.25
   1   2  11   41.18    6.08
   1  -2 -11   39.22    4.24
  -1   2 -11   43.34    5.30
   1  -2 -11   50.44    5.47
   1  -2 -11   38.76    5.26
   1   2  11   31.92    3.75
  -1  -2  11   34.83    5.01
  -1  -2  11   37.75    4.16
  -3   2  11   48.33    5.72
   3   2 -11   50.66    4.77
  -3  -2 -11   52.77    5.51
   3  -2  11   45.27    4.50
   3   2 -11   47.18    5.70
  -3   2  11   36.77    4.06
   3  -2  11   46.50    4.61
  -3  -2 -11   49.94    5.99
  -3   2  11   45.73    4.71
  -3   2 -11   46.78    5.14
  -3  -2  11   42.10    5.64
   3   2  11   43.93    4.52
   3  -2 -11   56.77    5.18
  -3  -2  11   46.71    4.63
   3   2  11   58.51    5.17
  -3  -2  11   37.28    4.12
   3  -2 -11   40.68    5.28
  -3   2 -11   47.05    5.68
   5  -2  11    0.66    1.18
   5  -2  11   -0.81    1.38
  -5   2  11    2.46    1.65
  -5   2  11    0.59    1.17
  -5   2  11    0.99    1.00
   5   2 -11   -1.24    0.99
  -5   2  11   -0.10    1.00
   5   2 -11   -0.15    0.83
  -5  -2 -11    0.39    1.06
  -5  -2 -11   -0.47    1.02
  -5  -2  11    0.15    0.99
  -5   2 -11    0.40    0.94
   5   2  11   -0.92    0.75
  -5  -2  11   -0.77    0.78
   5  -2 -11    0.31    1.25
  -5  -2  11    0.81    1.31
   5   2  11    0.39    0.98
  -5   2 -11   -0.30    1.00
   5  -2 -11   -0.93    0.75
   7   2 -11   12.18    2.64
  -7  -2 -11   10.54    2.38
  -7  -2 -11   13.33    3.02
  -7   2  11   13.32    3.12
  -7   2  11   16.77    3.81
   7  -2  11   13.62    2.46
   7  -2  11   11.70    3.05
  -7   2  11    8.17    1.99
  -7   2 -11    9.71    2.31
  -7  -2  11   12.14    2.39
  -7  -2  11    6.44    2.32
   7  -2 -11   13.47    2.70
   7   2  11   16.20    2.80
  -7   2 -11   12.31    2.85
  -7  -2  11   12.09    2.81
  -7  -2  11   12.51    2.57
   7   2  11    9.92    2.69
  -9   2  11   23.40    2.95
   9   2 -11   25.03    3.67
   9  -2  11   25.88    4.01
  -9  -2 -11   30.89    4.55
   9  -2  11   22.27    2.95
  -9  -2 -11   18.55    3.16
  -9   2  11   21.09    3.72
  -9   2  11   22.11    4.42
   9   2  11   21.32    3.13
   9  -2 -11   20.82    3.37
  -9   2 -11   21.91    3.42
  -9  -2  11   18.43    3.93
  -9  -2  11   21.91    3.07
  -9  -2  11   25.40    4.09
   9   2  11   20.22    3.87
 -11  -2 -11   18.70    3.44
 -11   2  11   23.90    4.32
  11  -2  11   24.53    3.66
 -11  -2 -11   15.72    2.93
  11  -2  11   18.81    3.28
 -11   2  11   23.92    4.14
  11   2 -11   28.50    3.96
 -11  -2  11   18.14    2.64
  11   2  11   18.62    3.71
 -11   2 -11   20.22    3.16
 -11  -2  11   19.94    4.33
  11   2  11   20.81    3.09
 -11  -2  11   26.17    4.38
  11  -2 -11   27.33    4.08
 -11   2 -11   20.15    3.15
  13  -2  11   16.92    3.12
 -13  -2 -11   28.89    4.09
 -13   2  11   28.57    4.80
 -13  -2 -11   20.71    3.39
  13   2 -11   28.32    4.17
 -13   2  11   20.12    4.22
 -13  -2  11   35.09    5.01
  13   2  11   30.87    3.80
  13   2  11   30.14    4.67
 -13   2 -11   27.30    3.39
  13  -2 -11   30.19    4.24
 -13  -2  11   29.88    4.68
 -13  -2  11   23.37    4.58
  15   2 -11    5.97    2.23
 -15  -2 -11    1.97    1.56
 -15   2  11    7.17    2.58
  15  -2  11    3.37    1.81
 -15  -2  11    5.62    2.59
 -15   2 -11    4.34    1.62
  15   2  11    4.45    2.27
  15  -2 -11    4.22    2.01
 -15  -2  11    5.28    2.29
 -15   2 -11    4.98    2.91
   0   3  11   15.72    2.74
   0   3 -11   14.46    3.08
   0   3  11   10.69    2.93
   0  -3 -11   18.57    3.74
   0  -3 -11   11.24    2.70
   0  -3  11   13.61    2.64
   0   3  11   17.49    3.05
   0   3 -11   16.55    2.74
   0  -3 -11   15.18    2.70
   0  -3  11   17.00    2.97
   0   3 -11   10.30    2.49
  -2  -3 -11    7.07    2.12
  -2   3  11    1.66    1.73
   2   3 -11    4.18    1.72
  -2   3  11    4.72    1.54
  -2  -3 -11    3.00    1.71
  -2   3  11    4.10    1.46
   2  -3  11    1.50    1.23
   2   3 -11    2.75    1.77
   2  -3  11    5.37    1.70
   2   3 -11    1.70    1.11
  -2  -3 -11    2.24    1.23
  -2  -3  11    3.60    1.49
  -2   3 -11    3.59    1.72
   2   3  11    5.53    1.85
  -2  -3  11    5.75    2.42
  -2  -3  11    4.67    1.75
   2  -3 -11    2.85    1.82
   2   3  11    6.96    1.98
  -2   3 -11    5.09    1.86
   2  -3 -11    2.45    1.45
  -4   3  11    1.96    1.29
   4  -3  11    2.64    1.39
  -4  -3 -11    3.62    1.71
  -4   3  11    1.75    1.20
  -4   3  11    3.97    3.32
   4  -3  11    0.01    1.04
  -4   3  11    1.35    1.58
   4   3 -11    1.23    1.46
   4   3 -11    0.11    1.05
  -4  -3 -11    2.36    1.62
   4  -3 -11    2.19    1.50
  -4  -3  11    2.84    1.38
   4   3  11    1.78    1.31
   4   3  11    0.81    1.28
   4  -3 -11    4.76    2.07
  -4   3 -11    1.03    1.19
  -4  -3  11    0.92    1.70
  -4  -3  11    2.65    1.52
  -4   3 -11    4.13    1.90
  -6   3  11    0.43    1.13
  -6   3  11   -0.49    0.73
  -6   3  11   -0.06    1.31
   6  -3  11    3.99    2.11
  -6   3  11    2.04    1.79
   6  -3  11    2.10    1.21
  -6  -3 -11    1.97    1.68
   6   3 -11   -0.18    0.97
   6   3 -11    1.95    1.69
  -6  -3 -11    2.76    1.55
   6   3  11    1.92    1.47
  -6  -3  11    1.64    1.28
  -6  -3  11    1.71    1.99
   6   3  11    0.43    0.93
  -6  -3  11    3.10    1.48
  -6   3 -11    1.05    1.27
   6  -3 -11    1.73    1.35
  -6   3 -11    1.85    1.33
   8   3 -11    4.21    1.76
  -8   3  11    5.40    1.69
  -8  -3 -11    3.20    1.97
  -8   3  11    6.61    2.29
   8  -3  11    5.54    2.30
  -8  -3 -11    4.66    1.80
  -8   3  11    2.31    1.78
   8  -3  11    6.48    1.77
  -8  -3  11    8.81    2.63
  -8  -3  11    4.22    1.56
  -8   3 -11    3.39    1.71
  -8   3 -11    5.39    2.01
   8  -3 -11    5.55    2.07
  -8  -3  11    5.15    2.59
  -8  -3  11    5.93    2.50
   8   3  11    2.85    1.49
  10   3 -11    7.47    2.35
  10  -3  11   11.40    2.33
 -10   3  11    6.57    2.39
 -10  -3 -11    8.45    2.42
 -10   3  11   11.22    3.37
 -10  -3 -11   11.66    3.01
  10  -3  11    5.44    2.19
 -10  -3  11    6.86    1.95
  10  -3 -11   11.00    2.70
 -10  -3  11   13.69    3.59
  10   3  11    8.62    2.34
 -10   3 -11    8.83    2.33
 -10  -3  11    9.64    2.92
 -10   3 -11   13.41    2.69
 -10  -3  11    3.10    2.06
  10   3  11   10.97    2.95
 -12  -3 -11    1.34    1.38
  12  -3  11    1.08    1.60
  12   3 -11   -0.01    1.09
 -12   3  11    1.03    1.79
 -12   3  11    3.93    2.34
 -12  -3 -11    1.29    1.53
 -12   3 -11    0.52    1.11
 -12  -3  11    0.01    1.72
 -12   3 -11   -0.02    1.28
 -12  -3  11    2.15    1.98
  12  -3 -11    0.99    1.65
  12   3  11    1.22    1.28
  12   3  11    0.40    1.49
 -14  -3 -11    4.61    1.95
 -14   3  11    4.52    2.28
  14  -3  11    2.19    1.76
  14   3 -11    6.33    2.31
 -14  -3  11    4.36    2.35
  14  -3 -11    4.62    2.09
  14   3  11    8.26    2.95
 -14   3 -11    8.18    2.00
  14   3  11    7.69    2.35
  -1   4  11    2.31    1.44
  -1  -4 -11    2.05    1.47
   1  -4  11    4.20    1.73
  -1   4  11    2.94    2.02
   1   4 -11    3.35    2.02
   1  -4  11    2.00    1.65
   1   4 -11    1.91    1.55
  -1   4  11    0.63    1.22
  -1  -4 -11    0.34    1.26
  -1  -4 -11    0.42    1.46
   1   4 -11   -0.24    1.10
  -1   4 -11    0.88    1.43
   1   4  11    1.86    1.41
  -1  -4  11    1.72    1.36
  -1  -4  11   -0.46    1.06
   1  -4 -11    3.87    2.19
   1   4  11    1.56    1.29
  -1   4 -11    0.33    1.41
   1  -4 -11    1.59    1.39
   3   4 -11    5.12    2.27
  -3   4  11    4.69    2.46
  -3  -4 -11    3.10    1.84
  -3   4  11    0.77    1.12
   3  -4  11    0.19    1.16
  -3  -4 -11    0.66    1.57
   3  -4  11    3.62    1.74
   3   4 -11    1.03    1.30
  -3   4  11    1.96    1.21
   3   4  11    1.19    1.25
  -3  -4  11    0.84    1.14
   3  -4 -11    1.76    1.90
  -3   4 -11    2.48    1.88
   3  -4 -11    3.95    1.82
  -3  -4  11   -0.08    1.32
  -3   4 -11    3.75    2.05
   3   4  11    1.45    1.46
   5  -4  11   26.93    3.90
  -5  -4 -11   24.48    4.46
   5   4 -11   26.67    3.94
  -5   4  11   22.35    4.26
  -5  -4 -11   33.50    4.71
  -5   4  11   26.09    4.47
  -5   4  11   19.60    3.16
  -5   4  11   28.45    3.70
   5   4 -11   24.99    4.61
  -5   4 -11   34.16    4.74
  -5  -4  11   16.87    3.67
   5   4  11   29.15    4.04
  -5  -4  11   30.68    4.10
   5  -4 -11   27.48    4.19
  -5   4 -11   32.81    4.94
   5   4  11   24.32    3.76
  -5  -4  11   27.16    4.82
  -5  -4  11   26.95    3.83
  -7   4  11    9.55    2.94
  -7   4  11   17.38    4.00
  -7  -4 -11   11.43    3.01
   7  -4  11    9.58    2.38
   7  -4  11   10.81    3.39
  -7  -4 -11   13.02    3.39
   7   4 -11   12.72    2.84
  -7   4  11   10.29    2.17
  -7  -4  11    7.54    2.09
  -7  -4  11    7.15    2.64
  -7  -4  11    9.91    2.87
  -7   4 -11    9.13    2.59
   7  -4 -11    7.86    2.48
  -7   4 -11    9.44    2.59
  -7  -4  11   20.49    3.49
   7   4  11   13.25    2.77
   7   4  11    8.55    2.39
   9  -4  11    0.24    2.11
   9   4 -11    3.21    1.70
   9  -4  11    5.13    1.82
  -9  -4 -11    0.60    1.47
  -9  -4 -11    2.41    1.93
  -9   4  11    4.12    1.97
  -9   4  11    1.57    2.03
  -9  -4  11    1.39    1.62
   9   4  11    2.90    1.66
  -9  -4  11    2.00    1.52
   9  -4 -11    0.80    1.33
  -9   4 -11    0.94    1.56
  -9   4 -11    1.30    1.28
  -9  -4  11   -0.08    1.39
  -9  -4  11    4.11    2.27
 -11  -4 -11    0.56    1.74
  11  -4  11   -1.52    1.80
 -11  -4 -11    1.26    1.60
 -11   4  11    2.53    1.88
  11  -4  11    1.70    1.40
  11   4 -11    1.96    1.69
 -11   4  11    0.70    2.10
 -11  -4  11   -0.66    1.72
 -11   4 -11    1.60    1.57
 -11  -4  11    2.59    2.00
 -11  -4  11   -1.04    1.43
 -11  -4  11    1.45    1.26
  11  -4 -11    1.20    1.52
  11   4  11    0.25    1.29
 -11   4 -11    2.00    1.57
  13  -4  11   -1.36    1.73
  13   4 -11   -0.38    1.08
 -13  -4 -11    1.02    1.80
 -13   4  11    0.50    1.55
 -13   4 -11    0.47    1.01
  13   4  11    0.23    1.49
 -13  -4  11   -1.80    1.48
  13  -4 -11   -0.18    1.38
   0   5  11    8.74    2.56
   0   5  11    5.33    2.02
   0   5 -11   12.39    3.03
   0  -5 -11    1.68    1.66
   0   5 -11    7.04    2.79
   0  -5  11    6.19    2.47
   0  -5  11    7.05    2.30
   0  -5 -11    9.79    3.26
   2  -5  11   -0.65    0.98
  -2   5  11    0.53    1.61
  -2   5  11    1.02    1.32
   2  -5  11    0.93    1.48
  -2   5  11    0.34    1.16
  -2  -5 -11   -0.85    1.28
   2   5 -11    1.24    1.70
   2  -5 -11   -1.17    1.20
  -2  -5  11    1.03    1.35
  -2   5 -11   -0.09    1.00
  -2   5 -11    0.34    1.47
  -2  -5  11    0.19    1.53
   2   5  11    1.04    1.60
  -2   5 -11   -0.19    1.37
   2   5  11   -0.05    1.20
  -4   5  11    1.23    1.61
   4   5 -11    2.96    1.97
  -4   5  11   -0.21    1.05
   4   5 -11   -0.17    1.05
   4  -5  11   -0.34    1.14
  -4  -5 -11    0.86    1.55
  -4  -5 -11   -0.64    1.40
  -4   5  11    0.74    1.14
   4  -5  11    0.53    1.58
  -4  -5  11   -1.57    1.38
  -4   5 -11   -0.33    1.30
  -4   5 -11   -0.26    1.38
   4   5  11   -0.11    1.22
   4   5  11    0.64    1.30
   4  -5 -11   -0.32    1.13
  -4  -5  11    0.43    1.12
   6   5 -11    1.36    1.62
  -6  -5 -11   -0.98    1.34
  -6   5  11    0.64    1.33
  -6   5  11    0.01    1.54
  -6  -5 -11    1.42    1.96
   6  -5  11    1.18    1.41
  -6   5  11    0.77    1.71
   6   5  11    1.56    1.45
  -6   5 -11    0.63    1.28
  -6  -5  11    1.39    1.74
   6   5  11    0.54    1.16
  -6  -5  11    0.71    1.34
  -6   5 -11   -0.96    1.48
  -6  -5  11   -0.26    0.97
   6  -5 -11   -0.62    1.09
  -8   5  11    2.27    2.03
  -8   5  11    3.73    1.67
  -8  -5 -11    3.14    2.32
  -8  -5 -11    3.46    2.42
   8  -5  11    4.14    1.99
  -8   5  11    0.47    1.72
   8   5 -11    4.85    2.39
   8   5  11    1.71    1.59
  -8   5 -11    3.32    1.62
   8   5  11    4.52    1.91
   8  -5 -11    3.41    1.96
  -8   5 -11    4.09    2.13
  -8  -5  11    2.92    1.52
  -8  -5  11    2.88    2.08
 -10   5  11   -0.09    1.58
  10  -5  11    1.28    1.98
 -10  -5 -11   -1.67    1.34
  10  -5  11    1.13    1.42
  10   5 -11    0.50    1.70
  10   5  11    1.32    1.55
  10  -5 -11    0.71    1.42
 -10  -5  11    0.19    1.01
 -10   5 -11   -0.79    1.23
  12   5 -11   -1.42    1.15
 -12   5  11    1.23    1.82
 -12  -5 -11    0.90    1.54
  12  -5  11    0.66    1.78
  12  -5  11    2.25    2.47
 -12   5 -11    0.66    1.17
  12  -5 -11   -0.95    1.47
 -12  -5  11   -0.09    2.18
  12   5  11   -0.26    1.57
  -1  -6 -11    0.25    1.96
   1  -6  11    0.17    1.38
  -1   6  11    2.14    1.71
   1   6 -11    0.30    1.83
   1  -6  11    1.89    1.77
  -1   6  11   -0.71    1.01
  -1   6 -11   -0.76    1.47
  -1   6 -11    0.62    1.19
   1   6  11   -0.61    1.23
   1  -6 -11   -0.43    1.47
   1   6  11   -0.57    1.26
  -1  -6  11    0.26    1.36
  -1  -6  11    1.44    1.67
  -1   6 -11   -1.78    1.43
   3   6 -11   10.88    3.70
  -3   6  11   12.41    3.05
   3  -6  11   10.92    2.87
  -3  -6 -11    2.83    2.36
  -3   6  11   12.51    3.79
   3  -6  11   10.74    2.82
   3   6  11   18.42    3.78
  -3  -6  11   11.09    3.06
   3   6  11   12.40    3.21
  -3  -6  11   12.68    2.94
   3  -6 -11    9.36    2.93
  -3   6 -11    5.26    2.45
  -5   6  11   28.97    5.43
   5  -6  11   27.95    4.42
   5   6 -11   20.88    4.16
  -5  -6 -11   32.67    5.23
  -5   6  11   27.33    4.00
  -5   6 -11   21.07    4.13
   5   6  11   20.69    4.01
  -5  -6  11   17.57    3.43
   5   6  11   23.32    4.11
   5  -6 -11   24.74    4.38
  -5  -6  11   21.65    4.02
   7  -6  11   15.84    3.43
  -7  -6 -11   19.47    4.45
  -7   6  11   22.60    4.70
  -7   6  11   27.64    3.78
   7   6 -11   38.35    5.74
   7  -6 -11   18.22    3.76
   7   6  11   21.96    4.23
   7   6  11   20.68    4.01
  -7  -6  11   17.84    3.57
  -7   6 -11   19.85    3.80
   9   6 -11   15.22    3.94
   9  -6  11   14.35    3.27
  -9  -6 -11   15.26    4.02
  -9   6  11   11.27    3.49
   9   6  11   11.60    3.04
  -9   6 -11   13.39    2.94
   9  -6 -11    9.81    3.12
   9   6  11   11.81    3.22
  -9  -6  11   13.18    2.94
   0  -7 -11    8.33    3.51
   0   7  11    2.86    2.08
   0  -7  11   -0.67    1.50
   0   7 -11    2.03    1.70
   0   7  11    1.73    1.77
   0  -7  11    2.02    2.12
   2  -7  11    0.67    1.70
   2   7 -11    2.93    1.96
   2  -7  11    3.75    2.34
  -2   7  11    1.12    1.55
   2  -7 -11    0.24    1.80
  -2   7 -11    1.73    1.79
   2   7  11   -0.55    1.49
   2   7  11    0.33    1.78
  -2  -7  11    0.97    2.03
  -2  -7  11    0.92    1.52
   0   0  12   50.83    4.99
   0   0 -12   42.35    4.28
   0   0  12   46.04    4.79
   0   0 -12   42.47    5.72
   0   0 -12   49.45    5.47
  -2   0 -12   28.12    4.02
   2   0  12   33.25    4.11
  -2   0  12   29.45    4.72
   2   0  12   27.06    3.58
   2   0 -12   28.69    3.71
   2   0 -12   28.25    4.63
  -2   0  12   29.07    3.84
  -2   0 -12   21.07    3.73
   2   0 -12   21.81    3.57
  -2   0  12   24.19    3.47
   4   0 -12    8.42    2.07
  -4   0 -12    9.53    2.60
   4   0 -12    9.86    2.97
   4   0  12   12.67    2.56
  -4   0 -12    7.82    2.26
  -4   0  12    6.33    1.99
  -4   0  12   10.47    3.13
   4   0  12    6.94    1.79
  -4   0  12    8.43    2.14
  -6   0  12    1.35    1.31
  -6   0  12    0.90    1.23
  -6   0  12   -0.49    0.77
  -6   0 -12   -0.43    0.95
   6   0  12   -0.63    1.60
  -6   0  12    0.10    1.45
  -6   0 -12    1.74    1.37
   6   0  12   -0.86    0.68
   6   0 -12    0.43    1.18
  -8   0  12    1.53    1.35
   8   0 -12   -0.03    1.08
   8   0  12    1.44    1.14
   8   0  12   -1.61    1.36
  -8   0 -12    1.27    1.37
  -8   0  12    0.40    1.02
  -8   0 -12    0.29    1.23
  -8   0  12    0.96    1.66
  10   0  12   18.65    2.83
 -10   0  12   16.98    3.80
 -10   0  12   23.39    3.20
 -10   0 -12   26.52    3.85
  10   0 -12   20.03    3.55
 -10   0  12   22.54    3.96
 -10   0 -12   20.17    3.33
  10   0  12   25.89    4.26
  12   0 -12   49.60    5.61
 -12   0 -12   37.24    6.05
 -12   0  12   39.84    6.08
  12   0  12   40.41    5.46
 -12   0 -12   41.15    4.62
 -12   0 -12   36.20    4.36
  12   0  12   32.58    4.55
 -12   0  12   29.96    4.68
 -14   0 -12   10.92    2.42
 -14   0 -12    6.23    3.07
 -14   0  12    6.78    2.62
  14   0  12    7.60    2.53
  14   0 -12   12.95    3.09
 -16   0 -12    0.20    1.89
  16   0  12    4.32    2.08
 -16   0 -12    3.57    1.57
  16   0 -12    0.08    1.65
 -16   0  12    3.69    2.28
  -1   1  12   11.88    3.23
   1   1 -12   15.38    2.94
  -1   1  12   14.80    2.80
  -1  -1 -12   14.69    2.50
   1  -1  12   17.99    3.04
  -1  -1 -12   23.50    4.30
   1   1 -12   19.62    2.90
  -1   1  12   19.80    3.24
   1   1 -12   16.71    3.47
  -1  -1 -12   18.38    3.34
   1  -1  12   14.02    2.75
   1   1  12   14.01    2.56
   1  -1 -12   17.79    3.84
   1   1  12   12.98    2.58
   1  -1 -12   15.75    3.10
   1  -1 -12   19.45    2.96
  -1  -1  12   18.05    3.77
  -1  -1  12   18.99    3.12
  -1   1 -12   13.90    2.82
  -1  -1  12   16.84    2.84
  -1   1 -12   14.93    3.13
   3  -1  12    1.63    1.15
  -3   1  12    0.11    1.02
   3   1 -12    0.51    1.17
  -3  -1 -12    1.59    1.43
  -3   1  12    1.57    1.63
  -3  -1 -12    1.56    1.44
   3  -1  12    1.66    1.22
  -3   1  12    0.36    0.90
   3   1 -12    1.12    1.04
   3   1  12   -0.75    0.77
   3   1  12    3.48    1.44
  -3   1 -12    3.19    1.48
   3  -1 -12    3.39    1.50
  -3   1 -12    0.96    1.10
   3  -1 -12    2.79    1.91
  -3  -1  12    2.69    1.82
  -3  -1  12    1.55    1.13
  -3  -1  12    0.83    1.07
   5  -1  12    1.42    2.07
  -5   1  12   -0.22    0.91
  -5   1  12    1.81    0.98
   5  -1  12   -0.80    0.80
   5  -1  12    1.67    1.20
   5   1 -12    1.24    1.53
  -5   1  12    0.83    1.39
  -5  -1 -12    1.56    1.27
  -5  -1 -12    1.40    1.44
  -5   1  12   -0.16    1.43
   5   1 -12    0.85    1.01
   5   1  12    0.91    1.18
  -5   1 -12    0.98    1.14
   5   1  12    0.78    1.24
   5  -1 -12   -0.80    1.06
   5  -1 -12    1.67    1.45
  -5  -1  12    0.83    1.09
  -5  -1  12    4.00    1.59
  -5  -1  12    0.98    1.56
  -5   1 -12    1.52    1.35
  -7   1  12   -0.17    1.38
  -7   1  12   -0.21    1.41
  -7   1  12   -0.22    0.87
   7  -1  12    1.10    1.85
   7  -1  12   -0.26    0.93
  -7  -1 -12    1.30    1.06
   7   1 -12   -0.96    0.94
  -7  -1 -12    1.02    1.42
  -7   1  12    0.21    0.87
  -7  -1  12   -0.21    1.42
   7  -1 -12   -0.20    1.00
  -7   1 -12    0.86    1.08
   7   1  12    0.21    0.89
   7   1  12    0.34    1.69
  -7  -1  12    0.86    1.64
  -7   1 -12    1.49    1.36
  -7  -1  12    0.23    1.03
  -7  -1  12   -0.28    0.92
   9  -1  12    1.88    1.90
  -9   1  12    2.56    1.81
   9  -1  12    0.33    0.97
   9   1 -12    1.24    1.22
  -9   1  12    0.86    0.95
  -9   1  12    0.30    1.43
  -9  -1 -12    2.01    1.56
  -9  -1 -12    1.57    1.24
  -9  -1  12   -1.85    1.15
   9  -1 -12    0.93    1.23
   9   1  12    1.68    1.15
  -9  -1  12   -0.26    1.49
   9   1  12    1.08    1.74
  -9   1 -12    1.10    1.31
  -9   1 -12    0.19    0.95
  -9  -1  12    2.27    1.33
  11  -1  12    3.77    2.07
  11   1 -12   10.26    2.68
 -11   1  12   10.92    3.35
 -11   1  12   10.46    2.93
 -11  -1 -12    6.24    2.04
 -11  -1 -12   10.83    2.61
  11  -1  12    7.19    1.89
 -11  -1  12    6.54    2.72
 -11   1 -12    8.74    2.32
  11   1  12    5.85    1.89
 -11  -1  12    4.01    2.18
 -11   1 -12    6.60    2.00
  11  -1 -12    8.01    2.59
  11   1  12    7.39    2.60
 -11  -1  12   13.54    2.63
  13   1 -12   -0.71    1.17
 -13  -1 -12    0.93    1.16
 -13   1  12   -0.66    1.32
  13  -1  12   -0.26    1.47
 -13  -1 -12   -0.71    1.12
 -13   1  12   -0.09    1.51
  13   1  12    1.05    1.95
 -13  -1  12   -0.54    1.43
  13  -1 -12    0.17    1.43
 -13   1 -12   -0.48    0.93
 -13   1 -12   -0.37    1.25
 -13  -1  12   -0.14    1.43
 -13   1 -12   -0.28    1.08
 -15  -1 -12   -0.91    1.04
  15   1 -12   -0.87    1.19
 -15   1  12    0.35    1.24
  15  -1  12    0.73    1.61
  15   1  12    0.46    1.99
 -15   1 -12    1.65    2.21
 -15   1 -12   -0.19    1.05
  15  -1 -12    1.44    1.58
 -15  -1  12    1.27    1.95
   0  -2 -12   47.33    4.81
   0   2 -12   56.57    5.03
   0   2 -12   54.37    6.19
   0  -2 -12   57.46    5.98
   0  -2  12   53.02    5.19
   0  -2  12   57.42    5.24
   0   2  12   64.06    5.89
   0  -2 -12   58.78    6.93
   0   2  12   52.45    5.06
   0   2 -12   53.68    5.64
  -2  -2 -12   42.69    5.81
   2   2 -12   30.82    4.71
   2  -2  12   41.90    4.48
   2   2 -12   41.63    4.95
   2   2 -12   40.80    4.72
  -2   2  12   28.52    3.93
   2  -2  12   39.61    4.38
  -2   2  12   39.31    4.57
  -2   2  12   30.28    4.96
  -2  -2 -12   35.77    4.57
   2  -2 -12   45.22    6.21
  -2   2 -12   28.40    4.33
  -2  -2  12   37.51    4.29
   2  -2 -12   37.95    4.57
   2   2  12   38.94    4.49
  -2  -2  12   29.45    3.82
   2   2  12   41.66    4.81
  -2  -2  12   33.84    4.81
  -2   2 -12   31.79    4.27
  -4   2  12   -0.34    1.45
  -4  -2 -12    0.74    1.47
   4  -2  12    0.38    0.98
  -4   2  12   -0.94    0.82
  -4  -2 -12   -0.31    1.24
   4   2 -12   -0.05    1.42
  -4   2  12    0.99    0.96
   4  -2  12    1.84    1.23
   4   2 -12    1.29    1.36
   4   2  12    1.59    1.15
   4  -2 -12    2.16    2.01
  -4  -2  12    2.29    1.33
   4   2  12    1.19    1.21
  -4   2 -12    1.20    1.41
   4  -2 -12    1.30    1.13
  -4  -2  12   -0.24    1.40
  -4   2 -12   -1.29    0.88
  -4  -2  12    0.70    1.17
  -6   2  12    3.79    1.65
   6  -2  12    5.54    1.85
   6   2 -12    7.26    2.05
  -6  -2 -12    6.07    2.35
  -6  -2 -12    2.86    1.67
  -6   2  12    2.92    2.02
  -6   2  12    1.50    1.14
   6   2 -12    3.06    2.38
   6  -2  12    3.91    2.14
  -6   2  12    1.82    1.78
  -6   2 -12    4.98    1.83
  -6  -2  12    4.87    2.23
   6  -2 -12    2.11    1.55
  -6  -2  12    3.06    1.54
   6   2  12    3.18    1.68
  -6   2 -12    0.43    1.29
   6   2  12    3.64    1.60
  -6  -2  12    4.74    1.63
  -8   2  12    8.06    2.67
  -8  -2 -12   15.51    3.50
   8  -2  12   15.41    3.46
   8  -2  12   16.91    2.98
  -8   2  12   14.38    2.64
  -8  -2 -12   12.34    2.93
   8   2 -12    7.85    2.27
  -8   2  12   17.39    4.14
   8   2  12   13.44    2.65
  -8   2 -12   15.18    3.24
  -8  -2  12   12.98    3.63
   8  -2 -12   18.81    3.44
  -8   2 -12   18.75    3.18
  -8  -2  12   15.10    3.39
  -8  -2  12   16.94    2.82
 -10  -2 -12   18.94    3.42
 -10   2  12   25.79    4.61
  10  -2  12   23.73    4.14
  10   2 -12   23.10    3.97
 -10  -2 -12   22.77    4.01
 -10   2  12   25.15    4.56
  10  -2  12   27.19    3.49
 -10  -2  12   23.95    4.75
 -10  -2  12   25.64    4.54
  10  -2 -12   19.86    3.70
 -10  -2  12   21.50    3.14
 -10   2 -12   22.19    3.59
  10   2  12   23.30    4.47
 -10   2 -12   23.90    3.66
  10   2  12   21.51    3.28
 -12  -2 -12   21.94    3.84
  12  -2  12   10.78    2.72
 -12  -2 -12   21.70    3.75
  12   2 -12   22.50    3.78
 -12   2  12   23.44    4.54
 -12   2  12   20.74    4.48
  12  -2 -12   20.83    3.81
 -12   2 -12   25.89    3.71
 -12  -2  12   18.42    4.08
  12   2  12   28.81    4.83
 -12   2 -12   26.58    3.66
  12   2  12   23.50    3.52
 -12  -2  12   25.69    5.06
  14  -2  12   -1.30    1.85
 -14   2  12    0.64    1.64
 -14  -2 -12    3.74    1.80
 -14  -2 -12    1.33    1.69
  14   2 -12    2.28    1.80
  14  -2 -12    4.46    2.29
 -14  -2  12    3.78    1.93
  14   2  12    2.34    1.83
 -14   2 -12    3.77    1.61
 -14  -2  12    3.84    1.76
   1  -3  12   -0.02    1.10
   1  -3  12    0.80    1.28
   1   3 -12    2.63    1.46
   1   3 -12    2.43    1.73
  -1  -3 -12    1.70    1.34
  -1  -3 -12    1.26    1.58
  -1   3  12   -0.42    1.23
  -1  -3 -12    2.13    1.52
  -1   3  12    3.35    1.57
  -1   3  12    2.04    1.46
   1   3 -12    0.98    1.46
  -1   3 -12    1.17    1.27
  -1   3 -12    1.29    1.28
   1  -3 -12    1.55    1.25
  -1  -3  12    1.73    1.32
   1  -3 -12    2.56    1.85
   1   3  12    1.07    1.10
  -1  -3  12    2.76    1.58
   1   3  12   -0.25    0.83
  -3  -3 -12    1.04    1.32
  -3   3  12    2.98    1.39
  -3   3  12    0.28    1.03
  -3  -3 -12    0.68    1.56
  -3   3  12    2.46    1.86
   3  -3  12    2.50    1.54
   3   3 -12    0.62    1.17
   3  -3  12    0.71    1.14
   3   3 -12    2.07    1.75
   3   3  12    1.58    1.09
   3  -3 -12    1.63    1.82
  -3  -3  12    2.02    1.32
   3   3  12   -0.17    1.11
   3  -3 -12    1.75    1.53
  -3  -3  12    2.16    1.96
  -3   3 -12    2.28    1.61
  -3   3 -12    4.01    2.03
  -3  -3  12    2.42    1.45
  -5   3  12    9.28    2.27
  -5   3  12   12.40    3.38
   5   3 -12   10.63    2.93
  -5   3  12    7.01    1.94
  -5  -3 -12    7.10    2.22
   5  -3  12   11.57    2.47
   5   3 -12    6.43    2.07
  -5  -3 -12    9.59    2.86
   5   3  12    9.46    2.45
   5  -3 -12    8.38    2.25
  -5  -3  12    9.00    2.19
  -5  -3  12    6.59    2.62
  -5   3 -12    7.33    2.28
   5   3  12    5.23    1.91
  -5   3 -12   10.09    2.73
  -5  -3  12    7.46    2.19
   7  -3  12    9.98    2.98
   7   3 -12    5.32    1.92
  -7   3  12    2.24    1.96
  -7  -3 -12    5.63    2.33
   7  -3  12    6.20    2.01
  -7   3  12    7.36    2.65
  -7   3  12    6.68    1.99
  -7  -3 -12    4.71    2.10
   7   3  12    6.41    1.99
   7   3  12    5.79    1.96
  -7  -3  12   10.81    2.52
  -7   3 -12   11.99    2.99
   7  -3 -12    6.40    2.19
  -7  -3  12    6.80    3.09
  -7  -3  12    5.22    1.84
  -7   3 -12    5.21    1.95
   9  -3  12    3.92    2.27
  -9  -3 -12    4.20    1.95
  -9  -3 -12    5.21    2.29
  -9   3  12    8.52    3.02
  -9   3  12    6.37    2.50
   9  -3  12    6.59    1.83
  -9   3  12    4.48    1.61
   9   3 -12    2.60    1.60
  -9  -3  12    9.59    2.71
  -9  -3  12    4.79    2.38
  -9   3 -12    4.87    1.90
   9  -3 -12    3.97    1.86
  -9  -3  12    5.23    1.79
  -9  -3  12    5.36    2.59
  -9   3 -12    6.75    2.50
   9   3  12    7.23    2.09
 -11  -3 -12    3.24    1.95
  11  -3  12    4.30    2.29
 -11   3  12   -0.76    1.51
 -11   3  12   -0.41    1.63
 -11  -3 -12    2.83    1.66
  11  -3  12    2.25    1.47
  11   3 -12    1.51    1.54
 -11  -3  12    0.82    1.95
 -11  -3  12    0.41    1.83
 -11  -3  12    2.04    2.22
 -11  -3  12    1.11    1.28
 -11   3 -12    1.17    1.27
  11  -3 -12    3.01    1.93
  11   3  12    2.97    1.87
 -11   3 -12    1.79    1.57
  13  -3  12    2.89    2.28
 -13   3  12    9.02    3.16
  13   3 -12    7.24    2.68
 -13  -3 -12    2.96    1.68
  13  -3 -12    6.50    2.60
  13   3  12    6.00    2.36
  13   3  12    5.55    2.47
 -13  -3  12    8.37    3.07
 -13   3 -12    6.37    2.03
   0   4 -12    0.28    1.47
   0   4 -12   -0.07    1.23
   0  -4  12   -0.03    1.15
   0   4  12   -0.57    0.97
   0  -4 -12    0.06    1.20
   0  -4 -12    0.74    1.51
   0   4  12    1.91    1.50
   0  -4  12    0.41    1.37
  -2  -4 -12    6.98    2.39
   2   4 -12    4.04    2.05
  -2   4  12    2.79    1.54
  -2   4  12    5.77    2.39
   2   4 -12    3.36    1.79
   2  -4  12    3.92    1.81
  -2   4  12    5.34    1.98
  -2  -4 -12    6.62    2.85
   2  -4  12    5.21    2.03
   2  -4 -12    0.98    1.52
  -2   4 -12    5.29    2.31
   2  -4 -12    2.06    1.61
  -2  -4  12    3.15    1.54
   2   4  12    4.21    1.77
  -2   4 -12    1.40    1.58
   2   4  12    2.88    1.70
  -2  -4  12    5.87    2.17
   4   4 -12   21.51    4.55
  -4   4  12   22.14    3.45
  -4   4  12   27.11    5.07
   4  -4  12   36.69    4.73
  -4   4  12   19.52    3.36
   4  -4  12   18.71    3.31
  -4  -4 -12   21.49    4.43
  -4  -4 -12   27.11    4.47
   4   4 -12   26.12    4.04
   4   4  12   17.63    3.27
   4  -4 -12   25.55    4.04
  -4  -4  12   20.50    3.48
  -4   4 -12   14.93    3.24
  -4   4 -12   19.52    4.05
   4   4  12   19.26    3.45
  -4  -4  12   21.09    3.59
   6  -4  12   23.41    3.67
  -6   4  12   16.08    3.82
  -6  -4 -12   18.62    3.60
  -6   4  12   15.50    2.89
   6   4 -12   26.94    4.13
  -6  -4 -12   22.78    4.68
  -6  -4  12   16.56    3.00
  -6   4 -12   31.51    4.68
   6  -4 -12   20.67    3.79
   6   4  12   22.27    3.74
   6   4  12   17.17    3.31
  -6  -4  12   26.97    4.05
  -6   4 -12   18.19    3.72
  -6  -4  12   22.68    4.82
  -8   4  12    3.78    1.55
  -8   4  12    3.79    2.49
  -8   4  12    1.17    2.20
   8   4 -12    2.81    1.50
  -8  -4 -12    1.60    1.80
  -8  -4 -12    2.59    2.12
   8  -4  12    5.19    1.95
  -8   4 -12    2.62    1.91
  -8  -4  12    2.10    1.91
  -8  -4  12    3.67    2.35
   8  -4 -12    1.31    1.50
   8   4  12    5.61    2.22
  -8   4 -12    4.69    1.96
  -8  -4  12    5.83    2.08
  10   4 -12   -0.59    1.27
 -10  -4 -12   -0.18    1.39
  10  -4  12    0.57    1.78
  10  -4  12    0.67    1.44
 -10   4  12    0.32    1.52
 -10   4 -12    1.34    1.76
 -10   4 -12    0.25    1.25
 -10  -4  12    0.38    1.96
  10   4  12    1.34    1.59
 -10  -4  12    3.59    1.69
  10  -4 -12    2.07    1.73
 -10  -4  12   -0.08    1.53
  12  -4  12    0.39    1.76
 -12  -4 -12    3.54    1.93
 -12   4  12    0.57    1.80
  12   4 -12    0.45    1.54
  12  -4 -12   -0.06    1.53
  12   4  12   -0.56    1.40
 -12  -4  12    1.89    2.14
 -12   4 -12    0.36    1.15
  -1  -5 -12    5.08    2.77
   1  -5  12    2.55    1.75
  -1   5  12    7.87    2.36
   1  -5  12    6.82    2.52
  -1   5  12    5.20    2.10
   1   5 -12    8.02    2.81
   1  -5 -12   10.06    3.35
   1   5  12    2.26    1.79
  -1  -5  12    2.79    1.65
   1   5  12    6.68    2.35
  -1   5 -12    6.91    2.86
   1  -5 -12    4.45    2.02
  -1  -5  12    6.57    2.21
  -1   5 -12    8.52    3.17
  -3  -5 -12    0.38    2.91
   3  -5  12    0.31    1.31
   3  -5  12    0.32    1.39
  -3   5  12    1.80    2.10
   3   5 -12    0.69    2.01
  -3  -5 -12    0.12    1.52
  -3   5  12    1.50    1.47
  -3   5  12   -0.23    1.14
  -3   5 -12    0.87    1.50
  -3   5 -12   -1.57    1.52
  -3  -5  12   -0.65    1.08
   3  -5 -12   -1.08    1.48
   3   5  12   -0.89    1.16
   3   5  12   -1.15    1.01
  -3  -5  12    0.62    1.68
   5   5 -12    0.24    1.67
  -5  -5 -12   -0.33    1.82
  -5  -5 -12   -0.01    1.56
  -5   5  12    1.99    1.29
  -5   5  12   -0.72    1.60
   5  -5  12   -0.98    1.32
   5  -5 -12   -0.12    1.53
  -5  -5  12    0.00    1.13
  -5   5 -12    0.50    1.44
  -5   5 -12    2.15    1.86
  -5  -5  12   -0.46    1.55
   5   5  12   -0.83    1.14
   5   5  12    1.35    1.39
   7   5 -12    1.31    1.83
  -7   5  12    0.70    1.22
   7  -5  12    1.35    1.37
  -7   5  12   -0.22    1.73
  -7   5  12    1.31    2.06
  -7  -5 -12   -0.21    1.58
   7   5  12    0.01    1.43
  -7  -5  12   -0.07    1.25
  -7  -5  12    0.89    2.09
   7  -5 -12    0.31    1.68
  -7   5 -12    0.59    1.22
   7   5  12    0.66    1.67
  -7  -5  12    1.62    2.13
  -9   5  12    0.24    1.90
   9   5 -12    0.35    1.76
   9  -5  12    1.27    1.53
  -9  -5 -12   -0.22    1.68
   9  -5 -12    0.43    1.62
   9   5  12   -0.67    1.26
  -9  -5  12   -0.01    1.32
 -11   5  12    3.03    2.48
  11  -5  12    3.47    2.08
 -11  -5 -12    2.38    1.95
  11   5 -12    2.95    2.02
 -11   5 -12    1.31    1.56
  11   5  12    8.35    2.79
 -11  -5  12    2.88    1.68
  11  -5 -12    6.92    2.81
   0   6 -12    5.22    3.06
   0  -6  12    0.92    1.54
   0   6  12    4.38    2.34
   0  -6  12    1.66    1.88
   0  -6 -12    4.53    2.37
   0   6 -12    2.37    1.74
   0   6  12    2.11    1.58
  -2   6  12    0.49    1.56
   2  -6  12    1.52    1.74
  -2   6  12    1.11    1.51
  -2  -6 -12    1.96    2.55
   2  -6  12    1.36    1.52
  -2  -6  12    0.03    1.23
   2   6  12    1.32    1.71
   2   6  12    2.55    1.88
   2  -6 -12    0.66    1.94
  -2  -6  12    1.32    1.78
  -2   6 -12    0.76    1.85
   4  -6  12   18.27    3.74
  -4   6  12    9.39    2.61
   4  -6  12    8.96    2.86
   4   6 -12    8.44    3.75
  -4  -6  12    6.25    2.25
  -4   6 -12   11.51    3.46
   4  -6 -12    7.92    2.81
   4   6  12    9.49    3.05
   4   6  12   11.71    3.04
  -4  -6  12    6.44    2.62
   6  -6  12    7.82    2.66
   6   6 -12   17.00    3.81
  -6  -6 -12   11.05    3.51
  -6   6  12   11.03    2.78
  -6   6 -12   11.28    3.39
  -6  -6  12   10.86    3.07
   6   6  12   11.09    3.25
  -6  -6  12   10.51    2.77
   6   6  12    8.55    2.76
   6  -6 -12   13.66    3.57
  -1   0 -13    9.56    2.76
   1   0  13    7.89    2.14
  -1   0  13    8.37    2.24
  -1   0 -13    5.07    2.20
   1   0  13    8.21    2.15
   1   0 -13   10.05    2.42
   1   0 -13   17.20    3.71
  -1   0  13   11.63    2.54
   1   0 -13    9.83    2.67
  -3   0 -13   26.27    4.26
   3   0 -13   24.00    3.71
  -3   0  13   29.28    5.16
  -3   0 -13   20.16    3.80
  -3   0  13   21.88    3.52
   3   0  13   28.12    3.86
  -3   0  13   26.79    3.73
   3   0  13   20.73    3.21
   5   0  13    6.29    1.89
  -5   0 -13    5.59    2.13
   5   0 -13    9.80    2.62
  -5   0  13    4.54    1.78
   5   0 -13    4.87    2.32
   5   0  13    3.75    1.67
  -5   0  13    3.13    1.95
  -5   0 -13    4.91    2.03
  -5   0  13    4.73    1.70
   7   0  13    4.65    1.87
   7   0  13    5.19    2.96
  -7   0  13    3.60    1.85
  -7   0 -13    3.45    1.78
  -7   0  13    0.91    1.23
   7   0 -13    2.00    1.54
  -7   0 -13    4.25    2.04
  -7   0  13    1.89    1.97
  -7   0  13    5.56    1.86
  -9   0 -13   13.74    3.06
  -9   0  13   17.22    3.73
  -9   0  13   15.54    3.96
  -9   0 -13   17.41    3.37
   9   0 -13   19.91    3.57
   9   0  13   11.42    3.14
   9   0  13   16.73    2.84
  -9   0  13   18.05    3.06
  11   0  13   10.03    2.35
 -11   0 -13    8.57    2.37
 -11   0  13   12.71    3.48
 -11   0 -13   10.87    2.66
  11   0 -13   10.85    2.84
  11   0  13    4.74    2.39
 -11   0  13    2.78    2.18
 -13   0 -13   16.89    3.17
 -13   0 -13   14.17    2.87
  13   0  13   10.10    2.99
  13   0 -13   17.77    3.65
 -13   0  13   14.36    3.75
 -15   0  13    5.33    2.70
  15   0 -13   14.26    3.59
  15   0  13    7.45    2.84
 -15   0 -13    9.11    2.35
   0   1 -13   14.48    3.34
   0  -1  13   17.12    3.15
   0  -1 -13   16.36    3.39
   0   1  13   19.80    3.22
   0   1 -13   12.94    3.21
   0   1  13   16.34    3.10
   0  -1 -13   15.68    2.70
   0   1 -13   14.56    3.04
   0  -1  13   14.23    2.82
   0  -1 -13   13.97    3.45
   2  -1  13   -0.71    1.17
  -2  -1 -13    0.21    1.29
   2  -1  13   -0.01    1.12
  -2  -1 -13    2.87    1.84
   2   1 -13   -0.53    1.73
   2   1 -13    4.26    1.68
  -2   1  13    0.81    1.51
  -2   1  13    1.06    1.26
  -2   1  13    3.62    1.60
   2   1 -13    3.14    1.94
   2  -1 -13    0.52    1.61
  -2   1 -13    0.00    1.00
  -2  -1  13    2.34    1.50
   2   1  13    0.98    1.21
  -2   1 -13    2.20    1.41
   2   1  13    2.34    1.47
  -2  -1  13    0.86    1.20
   2  -1 -13    1.87    1.32
  -2  -1  13    2.14    2.68
   4  -1  13   -1.34    0.97
  -4   1  13   -0.17    1.05
   4  -1  13   -0.37    0.88
  -4   1  13    0.55    1.55
  -4   1  13   -0.02    0.99
   4   1 -13   -1.01    0.83
  -4  -1 -13    0.68    1.51
   4   1 -13    0.25    1.33
  -4  -1 -13    0.23    1.33
   4   1  13    0.21    0.90
  -4   1 -13   -0.01    1.02
  -4  -1  13    0.99    1.02
   4   1  13    0.36    1.12
   4  -1 -13    0.92    1.58
   4  -1 -13    1.03    1.23
  -4  -1  13    0.47    1.30
  -4   1 -13    0.58    1.21
  -4  -1  13   -0.32    1.02
  -6   1  13   -0.77    1.31
   6  -1  13    0.08    0.97
   6   1 -13    0.60    1.22
  -6   1  13   -0.12    0.91
  -6  -1 -13    0.18    1.51
  -6  -1 -13    0.61    1.35
  -6   1  13    0.50    0.94
  -6  -1  13   -0.60    0.86
   6   1  13    0.53    0.97
  -6   1 -13   -0.21    1.06
   6  -1 -13    2.19    1.28
  -6  -1  13   -0.33    1.34
  -6   1 -13    1.01    1.36
  -6  -1  13   -0.61    1.05
   8  -1  13   -0.27    1.63
   8   1 -13   -1.27    1.06
  -8   1  13   -0.39    1.44
   8  -1  13    0.74    0.97
  -8   1  13    0.82    1.11
  -8  -1 -13    0.62    1.40
  -8  -1 -13   -0.82    1.10
  -8   1  13   -0.25    1.42
  -8   1 -13    0.99    1.26
  -8   1 -13   -0.54    1.15
  -8  -1  13    0.10    1.16
   8  -1 -13    0.40    1.30
  -8  -1  13   -0.45    1.55
  -8  -1  13    1.08    1.82
   8   1  13   -1.00    0.80
 -10   1  13    5.50    1.78
  10   1 -13    5.34    2.12
 -10  -1 -13    5.83    2.26
  10  -1  13    1.69    1.89
  10  -1  13    2.67    1.42
 -10   1  13    3.05    2.18
 -10  -1 -13    4.53    1.91
 -10   1  13    5.79    2.62
 -10  -1  13    2.54    1.43
  10   1  13    0.55    1.87
 -10  -1  13    3.77    2.21
 -10  -1  13    5.72    2.70
  10   1  13    3.90    1.73
 -10   1 -13    4.52    2.04
 -10   1 -13    5.80    2.02
  10  -1 -13    1.90    1.53
 -12   1  13    2.36    2.40
  12  -1  13    3.57    2.36
  12   1 -13    0.89    1.58
 -12  -1 -13    4.23    1.88
 -12  -1 -13    2.82    1.92
 -12   1  13    0.26    1.78
 -12   1 -13    4.52    1.89
  12  -1 -13    2.38    1.72
 -12  -1  13    4.17    2.70
  12   1  13    2.90    1.59
 -12   1 -13    1.54    1.50
 -12  -1  13    2.30    1.92
  12   1  13    4.45    2.30
  14  -1  13    4.48    2.42
 -14  -1 -13    0.10    1.42
 -14   1  13    0.77    1.58
  14   1 -13    1.74    2.00
 -14   1 -13    4.00    1.75
 -14   1 -13    2.48    2.49
 -14  -1  13    1.62    1.97
  14   1  13    1.09    2.07
  14  -1 -13    5.04    2.46
  -1   2  13   50.36    5.50
   1   2 -13   50.60    5.10
  -1  -2 -13   41.55    5.84
   1  -2  13   52.50    5.40
  -1  -2 -13   42.84    5.56
   1   2 -13   22.68    4.11
  -1   2  13   46.05    4.84
   1  -2  13   39.34    4.55
   1   2 -13   37.03    4.98
  -1  -2  13   33.99    4.25
   1  -2 -13   42.60    6.03
  -1   2 -13   38.32    4.97
  -1   2 -13   42.15    5.85
  -1  -2  13   46.84    5.09
   1   2  13   39.27    4.47
   1  -2 -13   39.24    4.63
   1   2  13   36.75    4.50
  -3   2  13    0.85    1.27
  -3   2  13   -0.48    1.54
  -3   2  13   -0.77    0.95
  -3  -2 -13    1.09    1.49
   3  -2  13    2.94    1.69
   3  -2  13    1.73    1.41
   3   2 -13   -0.84    1.10
   3   2 -13    1.50    1.40
  -3  -2 -13    1.91    1.64
  -3   2 -13    0.17    1.30
  -3  -2  13   -1.00    1.16
  -3  -2  13    0.47    1.06
  -3   2 -13    1.73    1.63
   3  -2 -13    0.25    1.29
   3  -2 -13    1.89    1.95
  -3  -2  13    0.43    1.57
   3   2  13   -0.10    0.80
   3   2  13   -0.14    1.15
   5   2 -13    2.30    1.48
  -5   2  13    3.05    2.25
  -5   2  13    4.63    1.87
  -5   2  13    1.47    1.27
   5   2 -13    2.96    2.02
   5  -2  13    5.44    1.83
  -5  -2 -13    3.77    2.10
  -5  -2 -13    2.97    1.70
  -5  -2  13    2.60    1.98
  -5   2 -13    2.82    1.75
   5   2  13    2.14    1.63
   5   2  13    3.03    1.52
  -5  -2  13   -0.32    1.25
  -5  -2  13    4.00    1.80
   5  -2 -13    3.28    1.86
  -5   2 -13    3.72    1.69
  -7   2  13    3.57    1.53
   7   2 -13    4.46    2.00
  -7  -2 -13    3.02    1.92
  -7   2  13    9.07    2.93
  -7   2  13    4.27    2.38
  -7  -2 -13    5.13    2.17
   7  -2  13    4.63    1.79
  -7  -2  13    4.22    2.34
  -7  -2  13    5.75    2.00
  -7   2 -13    6.55    2.30
  -7  -2  13    5.06    1.92
   7   2  13    6.23    2.09
  -7   2 -13    4.84    2.07
   7  -2 -13    7.78    2.41
   9  -2  13   10.90    2.46
  -9  -2 -13   11.83    3.09
   9  -2  13    7.63    2.74
  -9   2  13   11.30    3.15
   9   2 -13   10.19    2.73
  -9   2  13    7.00    2.77
  -9  -2 -13   13.73    2.96
  -9   2  13   12.94    2.45
   9  -2 -13   14.50    3.20
  -9  -2  13   11.34    3.29
  -9  -2  13   14.18    3.76
  -9   2 -13   11.60    2.81
  -9   2 -13   16.00    3.14
  -9  -2  13   13.38    2.72
   9   2  13   12.79    2.76
  11  -2  13   13.69    3.38
  11  -2  13   27.05    3.77
 -11  -2 -13   22.01    4.12
 -11   2  13   18.86    4.16
 -11  -2 -13   20.36    3.65
 -11   2  13   18.94    4.33
  11   2 -13   25.78    4.33
 -11  -2  13   21.62    3.22
 -11  -2  13   26.06    5.10
 -11   2 -13   21.08    3.51
  11   2  13   26.12    4.88
  11  -2 -13   19.47    3.70
  11   2  13   18.58    3.26
 -11   2 -13   23.10    3.67
 -11  -2  13   19.52    4.43
  13  -2  13   -0.67    1.67
 -13  -2 -13   -1.52    1.20
 -13   2  13    2.18    1.86
  13   2 -13   -0.32    1.29
  13   2  13   -0.25    1.78
 -13  -2  13   -0.54    1.47
  13   2  13    0.00    1.22
  13  -2 -13    1.53    1.65
 -13   2 -13    0.16    1.09
   0  -3  13    1.19    1.37
   0   3 -13    4.48    2.13
   0  -3 -13    3.04    2.07
   0  -3 -13    1.63    1.54
   0  -3  13    1.31    1.32
   0   3 -13    1.48    1.61
   0   3  13    0.73    1.24
   0   3  13    0.84    1.35
   2   3 -13    2.42    1.55
   2  -3  13    2.10    1.51
  -2  -3 -13    5.20    2.39
  -2   3  13    1.09    1.86
   2  -3  13    1.68    1.60
   2   3 -13   -0.48    1.38
  -2   3  13    4.85    2.15
  -2   3  13    1.53    1.33
  -2  -3 -13   -0.99    1.40
  -2   3 -13    4.49    2.00
  -2  -3  13    4.91    1.93
  -2   3 -13    0.93    1.39
   2  -3 -13    1.70    1.87
   2  -3 -13    1.13    1.52
   2   3  13   -0.12    1.12
   2   3  13    1.83    1.66
  -2  -3  13    3.35    1.88
  -4   3  13   12.88    2.86
   4  -3  13   11.30    2.55
   4   3 -13    7.43    2.82
  -4  -3 -13   12.41    3.14
   4   3 -13    7.70    2.12
  -4  -3 -13    7.90    2.87
  -4   3  13    8.77    2.33
  -4   3  13    8.86    2.99
   4  -3  13   11.98    2.70
   4  -3 -13    7.46    2.40
  -4   3 -13   15.52    3.29
   4   3  13   13.75    2.98
  -4   3 -13   14.52    3.31
  -4  -3  13    5.83    2.00
   4   3  13    9.36    2.36
  -4  -3  13   11.37    2.82
   6   3 -13   23.04    3.99
  -6   3  13   28.29    5.09
  -6  -3 -13   24.17    4.70
  -6   3  13   15.17    2.89
  -6  -3 -13   21.88    4.05
   6  -3  13   15.76    2.91
   6   3  13   19.06    3.31
  -6   3 -13   13.92    3.28
  -6  -3  13   22.33    3.69
  -6  -3  13   19.08    3.48
  -6  -3  13   24.24    4.74
   6   3  13    7.63    2.33
   6  -3 -13   17.94    3.57
  -6   3 -13   19.95    3.87
   8  -3  13    5.72    1.93
  -8  -3 -13    2.09    1.72
  -8   3  13    1.64    1.45
  -8  -3 -13    4.33    2.22
  -8   3  13    3.66    2.22
   8   3 -13    6.31    2.25
  -8   3  13    6.10    2.92
  -8   3 -13    6.69    2.05
  -8  -3  13    4.77    2.72
  -8   3 -13    6.47    2.34
   8  -3 -13    7.87    2.45
   8   3  13    6.73    2.31
  -8  -3  13    5.13    1.92
 -10  -3 -13    0.41    1.28
  10  -3  13   -0.45    2.01
 -10   3  13   -0.16    1.71
  10   3 -13   -1.22    1.22
  10  -3  13    2.25    1.59
 -10   3  13    0.05    1.96
  10  -3 -13   -0.04    1.43
 -10  -3  13    0.65    1.93
 -10   3 -13   -1.18    0.97
 -10  -3  13    1.16    1.41
  10   3  13    0.42    1.42
 -10   3 -13    0.70    1.44
 -12  -3 -13    5.53    2.26
  12  -3  13    5.93    2.69
 -12   3  13    4.30    2.82
  12   3 -13    5.15    2.31
 -12  -3  13    0.05    1.73
  12  -3 -13    6.54    2.56
  12   3  13    6.07    2.19
 -12   3 -13    5.63    2.17
 -12  -3  13    3.61    2.28
  -1   4  13    0.79    1.24
   1   4 -13    1.08    1.60
   1   4 -13   -0.17    1.57
   1  -4  13   -0.51    1.20
  -1  -4 -13    1.51    2.12
  -1   4  13   -0.11    1.18
   1  -4  13    2.20    1.53
  -1   4 -13    0.15    1.27
  -1  -4  13    1.89    1.71
  -1  -4  13    0.50    1.26
   1  -4 -13    1.37    1.49
  -1   4 -13    0.44    1.68
   1   4  13    0.77    1.42
   1  -4 -13    1.48    1.82
   1   4  13    2.39    1.51
   3  -4  13   20.85    3.69
  -3   4  13   22.72    3.64
  -3   4  13   18.09    4.13
  -3   4  13   14.24    2.99
   3   4 -13   22.03    3.88
   3  -4  13   22.11    3.76
  -3  -4 -13   22.71    4.13
  -3  -4 -13   10.94    3.33
   3   4 -13   13.79    3.67
  -3   4 -13   19.66    4.09
   3   4  13   19.81    3.46
  -3   4 -13   19.70    3.87
   3  -4 -13   29.52    4.61
  -3  -4  13   28.18    4.38
   3   4  13   26.38    4.15
  -3  -4  13   13.27    2.91
   5   4 -13    9.49    3.81
   5  -4  13   13.58    3.09
  -5  -4 -13   19.26    4.00
  -5  -4 -13   14.66    3.68
  -5   4  13   14.09    2.84
   5   4 -13   17.32    3.51
  -5   4  13   13.37    3.94
   5   4  13   13.85    3.23
  -5  -4  13   12.19    3.03
  -5   4 -13   18.95    3.95
  -5   4 -13   13.18    3.50
  -5  -4  13   13.08    2.91
   5   4  13   10.11    2.69
   5  -4 -13   11.60    2.97
  -7   4  13    8.38    3.22
  -7  -4 -13    6.53    2.93
  -7  -4 -13   10.44    2.80
  -7   4  13    6.13    2.09
   7   4 -13    7.82    2.57
   7  -4  13    3.14    1.87
  -7  -4  13    3.73    1.68
  -7  -4  13   13.78    3.13
  -7   4 -13    7.50    2.78
   7   4  13    5.33    2.10
  -7  -4  13    3.33    2.67
   7   4  13    6.67    2.39
  -7  -4  13    7.72    3.35
  -7   4 -13    5.49    2.37
   7  -4 -13    9.26    2.78
  -9   4  13   -0.29    1.76
  -9  -4 -13    1.11    1.66
   9   4 -13    1.71    1.47
   9  -4  13    3.66    2.03
  -9  -4  13    3.37    2.45
   9   4  13    2.94    1.60
   9  -4 -13    0.14    1.52
  -9  -4  13    2.85    1.61
  -9   4 -13    1.05    1.65
  -9  -4  13    3.37    2.71
 -11   4  13    1.39    1.91
 -11  -4 -13    1.31    1.65
  11  -4  13    3.95    2.82
  11   4 -13   -0.82    1.45
  11  -4  13   -1.48    1.30
 -11  -4  13    0.94    1.52
 -11   4 -13    0.97    1.70
  11  -4 -13   -0.42    1.49
  11   4  13   -0.81    1.37
   0   5 -13    1.57    1.96
   0   5  13    3.06    1.82
   0  -5 -13    7.35    3.12
   0   5 -13    9.06    3.24
   0  -5  13    7.72    2.62
   0  -5 -13    3.08    3.02
   0   5  13    5.75    2.08
   0  -5  13    2.66    1.55
   2   5 -13    0.62    1.75
   2  -5  13    4.98    2.25
  -2  -5 -13    2.39    2.14
  -2   5  13    2.65    1.88
   2  -5  13    2.44    2.17
  -2   5  13    3.67    1.78
  -2  -5  13    3.81    1.88
  -2   5 -13    2.17    2.70
  -2   5 -13    1.40    2.01
   2   5  13    2.03    1.63
  -2  -5  13    5.60    2.33
   2   5  13    1.85    1.75
   2  -5 -13    3.16    2.13
  -4   5  13    1.56    2.08
   4   5 -13    1.09    1.97
   4  -5  13    1.18    1.80
   4  -5  13    1.37    1.51
  -4  -5 -13    1.54    2.08
  -4   5  13    0.93    1.35
   4  -5 -13    1.68    1.84
  -4  -5  13    0.31    1.67
   4   5  13    0.33    1.43
  -4   5 -13   -2.11    1.36
   4   5  13    1.84    1.79
  -4  -5  13    0.68    1.47
   6  -5  13    2.13    1.83
  -6   5  13    0.14    1.38
  -6  -5 -13    3.68    2.27
   6   5 -13    1.05    1.65
   6   5  13   -0.25    1.44
   6  -5 -13   -0.73    1.28
  -6  -5  13   -1.36    1.04
  -6  -5  13    1.36    1.92
   6   5  13    2.18    1.76
  -6   5 -13   -0.02    1.55
  -8   5  13    0.31    1.56
  -8  -5 -13    2.10    1.77
   8   5 -13   -0.49    1.56
   8  -5  13    1.23    1.66
   8   5  13   -0.35    1.65
  -8  -5  13   -1.04    1.16
  -8   5 -13    0.73    1.50
   8  -5 -13    0.40    1.67
   8   5  13   -0.31    1.52
   1  -6  13    0.73    1.75
  -1   6  13    5.50    2.38
   1  -6  13    9.12    3.10
  -1   6  13    1.76    1.89
  -1   6 -13    3.25    2.64
   1   6  13    6.67    2.59
   1   6  13    1.62    1.63
  -1  -6  13    2.52    1.97
  -1  -6  13    6.67    2.77
   1  -6 -13    5.00    2.51
  -3   6  13    0.15    1.34
   3  -6  13    0.71    1.66
   3  -6  13    1.42    2.08
  -3   6 -13    1.23    2.19
   3   6  13    0.87    1.66
   3   6  13    1.11    1.94
  -3  -6  13   -0.30    1.80
   3  -6 -13    2.41    1.95
  -3  -6  13    1.78    1.91
   0   0 -14    5.27    2.32
   0   0  14    5.26    1.88
   0   0  14    5.24    1.96
   0   0 -14    2.38    1.80
   2   0 -14   13.18    3.66
   2   0 -14    9.34    2.37
  -2   0 -14   10.44    2.99
   2   0  14    9.15    2.45
  -2   0  14    5.50    1.97
  -2   0 -14    5.51    2.18
  -2   0  14    7.74    2.25
   2   0  14    7.03    2.18
  -4   0  14   33.16    4.44
   4   0  14   42.79    5.02
  -4   0 -14   27.27    4.58
   4   0  14   20.65    3.31
  -4   0  14   22.58    4.59
  -4   0  14   20.34    3.54
   4   0 -14   32.84    4.44
   4   0 -14   31.50    5.38
  -4   0 -14   25.83    4.47
  -6   0 -14   14.48    3.45
  -6   0 -14   16.29    3.52
  -6   0  14   20.02    3.42
   6   0 -14   21.17    3.98
  -6   0  14   17.10    4.49
  -6   0  14   15.50    3.00
   6   0  14   22.55    3.61
  -8   0 -14   18.97    3.61
  -8   0 -14   20.18    3.97
   8   0  14   17.95    3.17
  -8   0  14   20.34    4.72
   8   0 -14   24.28    4.12
  -8   0  14   20.51    3.36
 -10   0  14    8.20    2.23
  10   0 -14    7.83    2.60
 -10   0 -14    8.74    2.67
 -10   0  14    5.66    2.57
 -10   0 -14    7.35    2.61
 -10   0  14    6.67    3.03
  10   0  14    3.27    1.53
  10   0  14    7.77    3.01
  12   0 -14   10.72    3.18
  12   0  14    2.49    2.21
  12   0  14    3.97    1.81
 -12   0 -14    6.77    2.28
 -12   0  14    3.97    2.60
  14   0  14    9.64    3.08
  14   0 -14   11.69    3.47
 -14   0 -14   13.68    2.94
 -14   0  14    9.76    3.41
   1   1 -14    5.57    2.11
   1   1 -14    4.47    2.18
   1  -1  14    3.75    1.83
  -1  -1 -14    3.74    2.04
  -1   1  14    5.54    2.06
  -1  -1 -14    3.92    2.10
  -1   1  14    3.10    1.73
   1  -1  14    6.26    2.28
   1   1 -14    4.81    2.05
  -1  -1  14    3.88    1.92
   1  -1 -14    2.85    2.24
   1   1  14    4.50    1.90
  -1   1 -14    7.31    2.60
   1   1  14    4.05    1.91
  -1   1 -14    3.88    1.63
  -1  -1  14    4.72    2.10
   1  -1 -14    2.53    1.68
  -3  -1 -14    8.25    2.61
  -3  -1 -14    4.67    2.28
  -3   1  14   10.01    2.26
  -3   1  14    9.42    3.18
   3  -1  14    9.72    2.48
   3   1 -14    8.64    2.30
  -3   1  14    6.37    2.18
   3  -1  14    7.80    2.38
   3   1 -14    5.31    2.43
   3   1  14    9.11    2.31
  -3  -1  14    4.38    2.06
  -3   1 -14    3.42    1.96
  -3   1 -14    3.76    1.97
   3   1  14    4.79    1.85
   3  -1 -14    9.01    2.49
   3  -1 -14    8.30    2.90
  -3  -1  14    5.18    1.89
   5   1 -14    0.09    1.43
  -5  -1 -14    1.46    1.49
  -5  -1 -14    0.35    1.55
   5  -1  14   -0.48    1.19
   5   1 -14    0.12    1.22
   5  -1  14    2.00    1.45
  -5   1  14    0.02    1.82
  -5   1  14   -0.49    1.16
  -5   1  14    1.26    1.19
   5   1  14    2.38    1.61
   5   1  14    1.20    1.42
  -5   1 -14   -0.30    1.02
  -5  -1  14   -0.78    1.23
   5  -1 -14   -0.07    1.34
  -5   1 -14    0.79    1.38
  -5  -1  14    2.38    1.48
  -5  -1  14    0.62    1.30
  -7  -1 -14    0.76    1.40
  -7   1  14    1.09    1.27
   7  -1  14    0.60    1.19
  -7   1  14   -0.06    2.07
   7   1 -14   -0.09    1.24
  -7  -1 -14    1.22    1.57
  -7  -1  14   -0.09    1.21
  -7   1 -14    1.79    1.71
  -7  -1  14   -1.03    1.60
  -7  -1  14    0.03    1.27
   7  -1 -14    0.11    1.28
   7   1  14    0.65    1.06
  -7   1 -14   -0.05    1.22
   9  -1  14    0.59    2.02
   9   1 -14    0.08    1.35
  -9   1  14    0.28    1.84
   9  -1  14   -0.33    1.12
  -9   1  14   -1.12    1.42
  -9  -1 -14    0.91    1.57
  -9   1  14    0.24    1.02
  -9  -1 -14    1.68    1.48
   9  -1 -14    0.23    1.34
  -9  -1  14    0.50    1.19
  -9  -1  14    1.65    2.11
  -9   1 -14    2.18    1.71
   9   1  14    0.82    1.15
  -9   1 -14    0.52    1.27
  11  -1  14    0.68    2.15
 -11  -1 -14   -0.29    1.14
 -11   1  14    0.08    1.81
  11   1 -14    3.23    2.01
  11  -1  14    2.77    1.47
 -11  -1  14    2.52    2.14
 -11   1 -14    0.15    1.18
 -11   1 -14    3.26    2.04
  11  -1 -14    0.59    1.55
 -11  -1  14    0.08    1.15
  11   1  14    1.67    1.46
  11   1  14    1.27    2.21
  13  -1  14    1.24    2.48
 -13   1  14    5.69    2.75
 -13  -1 -14    5.49    2.25
  13   1 -14    6.46    2.35
  13  -1 -14    3.96    2.14
 -13  -1  14    3.47    2.75
 -13   1 -14    7.76    2.51
  13   1  14    1.74    1.62
  13   1  14    7.48    3.15
   0   2 -14   26.26    4.16
   0   2  14   16.26    3.35
   0  -2 -14   19.58    4.17
   0   2 -14   19.76    4.14
   0  -2  14   16.22    3.14
   0   2  14   20.37    3.62
   0  -2  14   25.58    3.99
   0  -2 -14   18.86    4.43
   2  -2  14    0.58    1.41
  -2   2  14    0.98    1.36
  -2  -2 -14    5.26    2.67
   2  -2  14    3.55    1.81
  -2  -2 -14    4.14    2.05
   2   2 -14    2.16    1.64
  -2   2  14    1.45    1.41
   2   2 -14    0.95    1.40
   2  -2 -14    2.16    2.12
   2   2  14    1.36    1.42
  -2  -2  14    4.38    1.88
  -2   2 -14    1.46    1.64
   2  -2 -14    4.11    1.76
  -2  -2  14    3.47    1.89
  -2   2 -14    0.00    1.46
   2   2  14    4.38    1.76
   4   2 -14    0.96    1.73
  -4  -2 -14   -1.65    1.43
  -4   2  14    1.19    1.40
  -4   2  14    3.82    1.78
   4   2 -14    4.74    1.96
  -4   2  14    5.11    2.69
   4  -2  14    2.61    1.74
   4  -2  14    2.95    1.76
  -4  -2 -14    4.89    2.40
  -4  -2  14    4.27    1.80
  -4   2 -14    2.58    1.58
   4   2  14    5.96    2.10
   4   2  14    1.33    1.27
  -4   2 -14    2.11    1.70
   4  -2 -14    7.87    2.44
  -4  -2  14    0.83    1.58
  -6  -2 -14    5.80    2.63
  -6   2  14    6.14    2.89
  -6   2  14    7.46    2.84
  -6   2  14    8.29    2.32
  -6  -2 -14    4.04    2.26
   6  -2  14    8.95    2.44
   6   2 -14    6.26    2.24
  -6  -2  14    7.22    2.23
  -6  -2  14    5.09    2.54
  -6  -2  14    4.69    2.05
  -6   2 -14   10.00    2.69
   6   2  14    5.01    2.04
   6   2  14    6.02    2.10
   6  -2 -14    5.91    2.35
  -6   2 -14   13.53    3.48
  -8   2  14   10.44    2.48
  -8   2  14   12.43    5.62
   8  -2  14    9.03    2.42
   8   2 -14    6.26    2.50
  -8   2  14   11.76    3.61
  -8  -2 -14    8.32    2.95
  -8  -2 -14    7.59    2.81
  -8  -2  14    5.72    3.19
  -8   2 -14    7.76    2.45
  -8  -2  14    7.97    2.30
   8   2  14    6.28    2.05
  -8   2 -14    6.13    2.50
   8  -2 -14   12.01    3.19
  10   2 -14   16.46    3.52
  10  -2  14   11.48    3.56
  10  -2  14   14.06    2.92
 -10  -2 -14   18.93    3.93
 -10   2  14   11.89    3.37
 -10  -2  14    7.90    3.02
  10   2  14   13.33    2.87
 -10   2 -14   18.30    3.69
 -10  -2  14   13.03    2.79
 -10   2 -14   14.72    3.13
  10  -2 -14   17.13    3.67
 -12   2  14    0.82    1.85
  12  -2  14    0.53    1.45
  12   2 -14    0.93    1.61
  12  -2  14    0.40    2.35
 -12  -2 -14    2.12    1.64
 -12  -2  14   -0.78    1.94
  12  -2 -14    1.58    1.77
 -12   2 -14    0.72    1.47
  12   2  14   -1.05    1.22
  -1   3  14    8.45    2.39
   1  -3  14    6.64    2.30
   1   3 -14    3.98    2.26
   1  -3  14    6.12    2.12
  -1  -3 -14    4.75    2.61
  -1   3  14   10.70    2.87
   1   3 -14   12.57    3.19
   1  -3 -14    4.00    2.01
  -1   3 -14    5.36    2.39
   1  -3 -14    6.04    3.04
   1   3  14    8.17    2.43
  -1  -3  14    4.06    1.99
   1   3  14    7.00    2.30
  -1   3 -14    4.84    1.97
  -1  -3  14    7.32    2.22
  -3   3  14    5.77    2.73
   3   3 -14    5.75    2.16
  -3  -3 -14    6.53    2.76
   3   3 -14    5.77    2.63
  -3   3  14    2.57    1.48
  -3   3  14   10.08    2.62
  -3  -3 -14    5.84    2.73
   3  -3  14    5.40    2.07
   3  -3  14    6.38    2.11
   3  -3 -14    6.70    2.38
  -3  -3  14    4.49    1.94
   3  -3 -14    7.29    3.24
   3   3  14    5.90    2.21
   3   3  14    3.40    1.97
  -3   3 -14    4.02    2.12
  -3   3 -14    4.48    2.06
  -3  -3  14    3.47    1.79
   5   3 -14   23.25    4.08
  -5  -3 -14   14.09    3.84
  -5   3  14   13.84    2.97
  -5   3  14   14.76    3.08
  -5   3  14   15.65    4.09
  -5  -3 -14    9.76    3.22
   5   3 -14   17.75    4.98
   5  -3  14   17.02    3.30
  -5  -3  14   13.67    2.97
  -5   3 -14   14.67    3.46
   5   3  14   11.99    2.89
  -5   3 -14   18.27    3.69
   5  -3 -14   10.90    3.00
  -5  -3  14   10.43    2.87
   5   3  14   10.91    2.63
   7  -3  14   14.02    2.93
  -7  -3 -14   11.14    3.36
  -7   3  14   18.48    4.58
  -7   3  14   12.13    2.80
  -7  -3 -14    9.11    2.94
   7   3 -14   12.60    3.06
   7   3  14    7.56    2.46
  -7  -3  14   17.73    4.43
   7  -3 -14   16.19    3.61
  -7   3 -14    7.51    2.83
  -7  -3  14   11.99    3.00
  -7  -3  14    9.62    2.45
  -7   3 -14   16.94    3.51
   7   3  14   10.24    2.77
  -9   3  14    1.20    1.99
   9   3 -14    0.84    1.58
   9  -3  14   -0.56    1.18
  -9   3  14    0.28    1.06
  -9  -3 -14    1.47    1.83
  -9  -3  14   -1.12    1.04
  -9   3 -14    1.32    1.59
   9  -3 -14   -1.43    1.29
   9   3  14   -0.54    1.29
  -9  -3  14    2.18    2.52
  11  -3  14    8.73    2.51
 -11   3  14    3.14    2.36
  11  -3  14    1.90    2.62
 -11  -3 -14    7.04    2.70
  11   3 -14    6.07    2.62
  11  -3 -14    2.00    1.98
  11   3  14    6.64    2.39
 -11  -3  14    5.13    1.92
 -11   3 -14    8.71    2.59
   0   4  14    2.93    1.80
   0   4 -14    4.51    2.54
   0   4  14    2.25    1.63
   0   4 -14    2.17    1.97
   0  -4 -14    1.84    2.07
   0  -4  14    1.18    1.44
   0  -4  14    1.90    1.97
   2  -4  14   16.78    3.32
   2   4 -14   10.90    3.51
  -2   4  14   14.67    3.14
  -2  -4 -14   11.26    3.65
   2  -4  14   12.16    3.00
  -2   4  14    7.83    2.36
  -2   4 -14    8.46    2.95
   2   4  14    9.98    3.01
   2  -4 -14   17.49    6.47
  -2  -4  14   10.26    2.67
   2  -4 -14   14.03    3.25
  -2   4 -14   10.90    3.17
  -2  -4  14   16.74    3.51
   2   4  14    9.32    2.71
  -4   4  14   16.21    3.32
  -4  -4 -14   11.60    3.67
   4  -4  14   18.59    3.75
   4  -4  14   15.10    3.26
   4   4 -14   11.56    3.56
   4   4 -14   14.89    3.38
  -4   4  14   13.72    2.89
  -4   4  14   19.92    4.63
  -4  -4 -14   18.71    3.82
   4  -4 -14   14.35    3.39
  -4  -4  14   20.54    3.78
   4   4  14   14.94    3.29
   4   4  14   21.96    4.16
  -4   4 -14   15.81    3.51
  -4  -4  14   13.21    3.31
   6   4 -14    5.89    2.52
  -6   4  14    5.13    2.85
  -6   4  14    1.81    1.60
  -6  -4 -14    3.24    2.23
   6  -4  14    4.47    2.09
  -6  -4  14    5.08    2.33
   6   4  14    4.94    2.31
  -6   4 -14    6.13    2.50
   6  -4 -14    4.03    2.15
  -6  -4  14    1.97    1.60
   6   4  14    2.69    1.90
  -8   4  14    7.17    2.19
   8   4 -14   10.37    3.02
  -8  -4 -14    5.02    2.19
   8  -4  14    7.44    2.37
   8  -4 -14    5.27    2.57
  -8   4 -14    4.56    2.22
  -8  -4  14    2.37    1.86
   8   4  14   13.08    3.25
 -10  -4 -14    0.83    1.66
  10   4 -14    4.15    2.32
 -10   4  14    0.85    2.42
  10  -4  14    1.01    1.62
  10  -4 -14    0.74    1.69
  10   4  14    3.92    2.22
 -10  -4  14    0.42    1.29
 -10   4 -14    2.91    1.93
   1  -5  14   -0.14    1.87
   1  -5  14    1.41    1.91
  -1   5  14    0.63    1.65
  -1   5  14    1.06    1.84
  -1  -5  14    2.43    1.99
   1  -5 -14    2.34    2.74
   1   5  14    1.43    1.66
  -1  -5  14    1.43    1.66
   1   5  14    1.51    1.93
  -1   5 -14    4.08    2.24
   3  -5  14    2.04    1.60
  -3   5  14    2.70    1.71
   3  -5  14    3.39    2.14
  -3   5  14    3.13    2.03
  -3  -5  14    0.04    1.77
   3   5  14    2.35    1.69
   3  -5 -14    1.39    1.99
  -3   5 -14    3.28    2.27
  -3  -5  14    5.38    2.31
   3   5  14   -0.10    1.42
  -5  -5 -14    2.78    2.39
  -5   5  14    4.71    1.35
   5  -5  14    2.19    1.85
   5   5  14    0.46    1.57
   5   5  14    0.24    1.59
  -5   5 -14   -0.08    1.76
   5  -5 -14   -0.49    1.59
  -5  -5  14   -1.37    1.51
  -5  -5  14    0.47    1.50
  -7  -5 -14    0.46    1.77
   7  -5  14   -0.24    1.60
  -7   5 -14    0.68    1.67
  -1   0  15    4.97    2.32
   1   0 -15    4.03    2.24
  -1   0  15    4.41    1.94
  -1   0 -15    6.70    2.65
   1   0  15    6.96    2.39
   1   0  15    4.95    1.98
  -1   0 -15   10.86    3.23
   3   0  15   11.40    2.76
  -3   0 -15    3.56    2.11
  -3   0 -15   10.01    3.05
   3   0  15    6.66    2.20
   3   0 -15    8.50    2.62
  -3   0  15   11.88    2.87
   3   0 -15   12.46    3.69
  -3   0  15   11.36    2.93
  -5   0 -15   32.41    4.90
  -5   0  15   32.41    5.91
   5   0  15   33.70    4.63
  -5   0  15   20.29    3.46
  -5   0  15   30.93    4.35
   5   0  15   25.40    3.79
   5   0 -15   29.07    4.35
   7   0 -15   21.67    3.93
   7   0  15   24.35    3.78
  -7   0 -15   36.77    5.26
  -7   0  15   27.16    4.12
  -7   0  15   40.20    7.19
  -7   0 -15   28.85    4.86
  -9   0 -15   10.42    2.82
  -9   0  15   16.36    4.38
  -9   0  15    6.92    2.20
   9   0  15    9.86    2.55
   9   0 -15    7.56    2.67
 -11   0 -15    5.75    2.14
  11   0 -15    4.94    2.35
  11   0  15    6.94    2.21
 -11   0  15    3.84    2.82
   0   1  15    3.16    1.85
   0  -1 -15   -0.37    1.60
   0   1 -15    0.78    1.56
   0  -1  15    1.35    1.39
   0   1  15   -0.35    1.14
   0  -1  15   -0.61    1.38
   0  -1 -15   -1.15    1.39
   0   1 -15   -0.07    1.20
  -2   1  15    5.00    2.13
   2  -1  15    7.08    2.40
  -2  -1 -15    1.21    1.93
   2   1 -15    0.59    1.64
  -2   1  15    1.67    1.66
  -2  -1 -15    1.98    2.02
   2   1 -15    3.43    2.02
   2  -1  15    1.68    1.52
   2  -1 -15    0.78    1.81
   2   1  15    3.69    1.74
  -2   1 -15    2.56    2.06
  -2  -1  15    1.27    1.55
   2   1  15    4.66    2.02
  -2   1 -15    6.09    2.52
   2  -1 -15    3.72    2.00
  -2  -1  15    3.32    1.78
  -4  -1 -15    0.89    1.80
  -4  -1 -15    1.65    1.93
   4   1 -15    4.63    1.98
   4   1 -15    1.84    2.11
  -4   1  15    3.18    2.39
  -4   1  15    2.64    1.76
   4  -1  15    2.27    1.81
  -4   1  15    1.95    1.54
   4  -1  15    3.29    1.76
   4  -1 -15   -0.15    1.97
  -4   1 -15    2.28    2.00
   4  -1 -15    3.04    1.87
  -4  -1  15    3.14    1.77
  -4   1 -15    4.17    2.35
   4   1  15    2.63    1.59
  -4  -1  15    1.30    1.49
   4   1  15    2.13    1.46
  -6  -1 -15    0.20    1.60
   6   1 -15    1.03    1.48
   6  -1  15    1.23    1.45
  -6  -1 -15   -0.26    1.63
  -6   1  15   -0.25    1.36
  -6   1  15   -0.97    1.05
  -6   1  15   -1.10    1.93
  -6  -1  15    1.97    1.50
  -6   1 -15    0.51    1.41
  -6   1 -15    0.93    1.52
  -6  -1  15    0.83    1.53
  -6  -1  15   -0.67    2.01
   6  -1 -15    0.17    1.51
   6   1  15    0.15    1.14
  -8  -1 -15    0.14    1.41
   8   1 -15    1.50    1.56
  -8   1  15   -1.11    1.91
   8  -1  15   -0.31    1.14
  -8   1  15   -0.27    1.23
  -8   1 -15    0.54    1.93
  -8  -1  15    0.44    1.31
  -8  -1  15   -0.82    1.82
  -8   1 -15    1.01    1.54
   8  -1 -15    1.33    1.55
   8   1  15   -0.28    1.18
  10   1 -15   -0.73    1.44
 -10   1  15    1.25    1.54
 -10   1  15    0.86    2.04
  10  -1  15   -0.07    1.21
 -10  -1 -15   -0.97    1.33
  10  -1 -15   -0.17    1.36
 -10  -1  15    0.40    1.26
 -10   1 -15   -0.62    1.06
  10   1  15   -1.03    1.09
 -12  -1 -15    0.67    1.61
  12   1 -15    4.12    2.17
 -12   1  15    2.53    2.08
  12  -1  15    6.42    3.18
  12  -1  15    4.78    2.04
 -12   1 -15    4.44    2.01
  12   1  15    2.45    1.84
 -12  -1  15    1.29    2.40
  12  -1 -15    2.97    2.02
  -1   2  15   -0.45    1.29
   1  -2  15    2.23    1.65
  -1  -2 -15    0.47    1.68
   1  -2  15    2.27    1.63
   1   2 -15    0.06    1.61
  -1   2  15    0.42    1.32
  -1  -2 -15    0.40    1.86
   1   2  15    1.02    1.33
  -1   2 -15   -0.55    1.41
  -1   2 -15   -0.65    1.37
   1  -2 -15    1.07    1.84
  -1  -2  15    1.67    1.60
  -1  -2  15   -1.56    1.36
   1   2  15    0.22    1.06
   3  -2  15    5.49    2.32
   3   2 -15    1.41    2.16
  -3   2  15    7.33    2.34
  -3  -2 -15    1.60    1.89
   3   2 -15    4.08    2.00
   3  -2  15    4.08    2.02
  -3   2  15    5.22    2.13
  -3  -2 -15    4.99    2.36
   3  -2 -15    7.65    3.37
  -3  -2  15    7.00    2.31
  -3   2 -15    1.23    1.57
   3   2  15    4.87    2.00
  -3   2 -15    4.31    2.41
  -3  -2  15    5.38    2.39
   3  -2 -15    1.69    1.69
   3   2  15    3.87    1.69
  -5  -2 -15    1.82    1.75
  -5  -2 -15    4.75    2.21
  -5   2  15    4.14    2.62
   5  -2  15    2.38    1.90
   5   2 -15    4.03    2.20
  -5   2  15    0.38    1.53
  -5   2  15    3.18    1.86
  -5   2 -15    3.38    2.28
  -5   2 -15    1.43    1.49
  -5  -2  15    4.75    2.32
   5  -2 -15    5.29    2.13
   5   2  15    5.58    2.07
   5   2  15    4.54    2.07
  -5  -2  15    4.16    2.08
   7  -2  15    3.09    1.74
   7   2 -15    5.01    2.19
  -7   2  15    9.24    2.72
  -7  -2 -15    8.27    2.77
  -7   2  15    8.50    3.43
  -7   2 -15    5.40    2.45
  -7  -2  15    5.08    2.16
  -7  -2  15    6.65    2.86
   7   2  15    9.37    2.36
   7  -2 -15    3.40    2.05
  -9   2  15    9.32    2.41
   9   2 -15    6.44    2.92
  -9  -2 -15    2.64    1.80
   9  -2  15    6.41    2.12
  -9  -2  15    3.42    1.72
   9   2  15    2.93    1.77
  -9   2 -15    8.37    2.76
   9  -2 -15    7.14    2.66
 -11  -2 -15   -0.04    1.48
  11   2 -15    0.03    1.81
 -11   2  15    2.03    2.16
  11  -2  15    1.39    1.63
 -11  -2  15    0.22    1.37
 -11   2 -15    0.86    1.55
  11   2  15    1.15    1.65
  11  -2 -15    0.36    1.53
   0   3 -15   12.00    3.53
   0  -3 -15   11.56    3.46
   0   3 -15   13.10    3.51
   0  -3  15   10.34    2.98
   0   3  15    9.26    2.58
   0   3  15   15.27    3.53
   0  -3  15   12.77    3.20
  -2  -3 -15    1.14    1.92
  -2  -3 -15    0.73    1.79
   2   3 -15   -0.07    1.63
  -2   3  15    0.52    1.21
  -2   3  15   -0.41    1.26
   2  -3  15    2.42    1.82
   2  -3  15    0.24    1.35
   2   3  15   -0.39    1.29
  -2   3 -15    1.12    1.79
   2   3  15    0.17    1.24
   2  -3 -15    0.28    1.50
  -2  -3  15    0.24    1.39
  -2  -3  15   -1.82    1.38
   2  -3 -15    0.83    2.13
  -2   3 -15    0.46    1.64
  -4   3  15   12.54    2.73
   4  -3  15   10.21    2.70
  -4  -3 -15    9.79    3.13
   4   3 -15    8.80    2.61
   4  -3  15    6.82    2.39
  -4   3  15   20.23    6.88
  -4  -3 -15   12.94    3.92
  -4   3  15   10.18    2.63
   4   3 -15   10.03    3.38
   4   3  15    8.55    2.70
  -4  -3  15    9.15    2.50
   4  -3 -15    7.55    2.69
   4   3  15   10.17    2.93
  -4  -3  15    9.88    2.95
  -4   3 -15   12.59    3.27
   6   3 -15    6.64    2.43
   6  -3  15    8.91    2.57
  -6   3  15    3.84    1.86
  -6  -3 -15   10.76    3.50
  -6   3  15    6.55    3.23
   6   3  15   12.01    3.17
  -6  -3  15    7.19    2.52
  -6   3 -15    8.33    2.82
   6   3  15    8.12    2.48
  -6  -3  15    4.21    1.98
   6  -3 -15    9.05    2.80
   8   3 -15    0.24    1.78
  -8  -3 -15    1.52    1.91
  -8   3  15    0.10    1.40
   8  -3  15   -0.70    1.25
   8  -3 -15   -0.24    1.68
  -8  -3  15    1.44    1.57
  -8   3 -15   -0.40    1.15
   8   3  15    0.75    1.47
 -10   3  15    4.84    2.50
  10   3 -15    5.54    2.62
  10  -3  15    7.43    2.32
 -10  -3 -15    3.95    2.44
 -10  -3  15    1.44    1.43
  10   3  15    8.71    2.70
 -10   3 -15    8.16    2.72
  10  -3 -15    5.43    2.60
  -1  -4 -15    9.02    4.11
   1  -4  15   11.72    2.97
  -1   4  15    9.25    2.70
   1  -4  15   15.11    3.41
  -1   4  15   16.51    3.68
   1   4  15   16.82    3.52
   1  -4 -15   11.73    4.00
  -1   4 -15   13.23    3.66
  -1  -4  15   12.83    3.39
   1   4  15   14.02    3.36
  -1  -4  15    6.35    2.25
  -3   4  15    6.32    2.28
  -3   4  15   16.25    3.49
   3  -4  15   12.14    3.23
  -3  -4 -15    3.75    2.62
   3  -4  15   10.56    3.22
   3   4 -15   18.15    4.48
   3   4  15   10.59    3.01
   3  -4 -15    4.33    2.28
  -3   4 -15    8.83    3.06
  -3  -4  15    7.60    2.68
  -3  -4  15    8.19    3.00
   3   4  15   10.14    2.75
   5  -4  15    5.24    2.37
  -5   4  15    8.35    2.55
   5   4 -15    0.52    1.94
  -5  -4 -15    3.96    2.74
  -5  -4  15    2.46    1.81
   5   4  15    3.40    2.25
  -5   4 -15    5.66    2.70
  -5  -4  15    2.43    2.21
   5   4  15    1.07    1.61
   5  -4 -15    5.48    2.70
  -7   4  15    3.75    1.97
  -7  -4 -15    2.33    2.23
   7  -4  15    2.54    1.82
   7   4 -15    5.21    2.62
   7  -4 -15    3.28    2.37
   7   4  15    7.73    2.63
  -7   4 -15    5.53    2.54
  -7  -4  15    4.98    2.41
   7   4  15    2.98    2.07
   0  -5  15   -0.31    1.33
   0   5  15    0.82    1.67
   0   5  15   -0.39    1.70
   0  -5  15    2.88    2.27
  -2   5  15    1.24    1.51
  -2   5  15    0.71    1.71
   2  -5  15    1.03    1.82
   2  -5  15    3.10    2.25
   2   5  15    1.98    1.97
  -2  -5  15    9.02    3.17
  -2   5 -15    1.04    1.77
  -2  -5  15    1.20    1.75
   2   5  15    1.68    1.86
   0   0 -16    8.73    4.61
   0   0  16    9.75    2.72
   0   0 -16    4.88    2.58
   0   0  16    2.82    1.94
   2   0 -16    8.21    3.06
  -2   0  16    5.51    2.27
   2   0  16    5.78    2.36
   2   0  16    4.90    2.12
  -2   0 -16    4.84    2.64
  -2   0  16    4.70    2.14
  -2   0 -16    5.11    2.55
  -4   0 -16   11.58    3.56
  -4   0 -16   11.95    3.26
   4   0 -16   17.40    5.28
  -4   0  16   11.75    3.09
  -4   0  16   15.13    3.33
   4   0  16   15.11    3.34
   4   0  16   12.22    3.07
   4   0 -16   17.25    3.76
  -6   0  16   40.27    5.23
  -6   0 -16   30.17    5.06
   6   0 -16   38.50    5.31
  -6   0  16   33.42    6.11
  -6   0  16   37.61    4.94
   6   0  16   29.09    4.34
   8   0  16   15.06    3.08
  -8   0 -16   18.84    4.19
   8   0 -16   23.01    4.55
  -8   0  16   10.68    2.59
 -10   0  16    9.29    2.47
 -10   0 -16    9.90    2.90
  10   0  16    8.23    2.57
   1  -1  16    0.56    1.61
  -1  -1 -16   -1.64    1.56
   1   1 -16   -0.35    1.54
  -1   1  16    1.67    1.88
  -1  -1 -16    1.19    2.02
   1  -1  16    0.13    1.50
  -1   1  16   -0.01    1.58
  -1  -1  16   -1.14    1.24
  -1  -1  16    2.05    1.86
  -1   1 -16    0.60    1.82
  -1   1 -16    0.63    1.70
   1   1  16   -0.59    1.40
   1  -1 -16    2.60    2.17
   1   1  16    0.60    1.42
  -3   1  16   -2.63    1.23
   3   1 -16    1.47    2.24
  -3   1  16    0.73    1.52
   3  -1  16   -0.37    1.35
  -3  -1 -16    1.36    2.08
  -3  -1 -16   -0.92    1.67
   3  -1  16    1.45    1.84
   3  -1 -16   -0.83    1.64
   3   1  16    0.04    1.38
  -3  -1  16   -0.82    1.19
   3   1  16   -0.83    0.99
  -3   1 -16    2.73    2.12
   3  -1 -16   -0.40    1.58
  -3  -1  16    0.64    1.63
  -3   1 -16   -0.08    1.57
   5   1 -16    0.03    1.36
  -5  -1 -16   -0.05    1.65
  -5   1  16    0.88    1.43
   5  -1  16    2.00    1.75
  -5   1  16    0.84    1.49
   5  -1  16   -0.27    1.53
   5   1  16   -0.11    1.31
  -5   1 -16   -0.42    1.35
  -5  -1  16    2.42    1.91
   5   1  16    1.15    1.39
   5  -1 -16   -1.05    1.50
  -5  -1  16   -2.03    0.96
  -7  -1 -16   -0.40    1.63
  -7   1  16    0.30    1.25
   7  -1  16    1.42    1.51
   7   1 -16   -0.45    1.45
  -7   1  16    2.13    2.27
   7  -1 -16   -1.06    1.55
  -7  -1  16   -0.40    1.52
  -7  -1  16    1.60    2.46
  -7   1 -16    0.17    1.31
   7   1  16   -0.02    1.54
  -9   1  16    1.26    1.57
   9   1 -16    0.58    1.71
  -9  -1 -16    2.02    2.08
   9  -1  16   -0.50    1.33
   9  -1 -16   -1.75    1.48
  -9  -1  16   -0.18    1.28
  -9   1 -16    0.30    1.45
   9   1  16   -1.75    1.13
   0  -2  16    5.79    2.43
   0   2  16    1.69    1.65
   0   2 -16    3.28    2.51
   0   2  16   10.08    3.11
   0  -2  16    2.93    1.93
   0  -2 -16    5.42    3.08
   0   2 -16    0.35    2.00
  -2   2  16    1.82    1.53
  -2  -2 -16    1.96    1.87
  -2   2  16    2.43    1.94
  -2  -2 -16    2.63    2.29
   2  -2  16    1.80    1.92
   2   2 -16    2.29    2.37
   2  -2  16    0.33    1.75
  -2   2 -16    2.92    1.95
   2   2  16    0.90    1.51
  -2  -2  16    0.76    1.47
  -2  -2  16    4.18    2.15
   2   2  16    1.40    1.57
   2  -2 -16    0.13    1.75
  -2   2 -16    1.92    2.42
   4   2 -16   10.47    3.07
   4  -2  16   10.96    2.93
   4  -2  16    8.61    2.76
  -4   2  16    5.96    2.36
  -4  -2 -16    8.37    3.15
  -4   2  16    6.80    2.48
   4   2 -16   12.85    4.04
   4  -2 -16    9.96    2.85
  -4  -2  16    6.35    2.70
   4   2  16    8.89    2.67
  -4   2 -16    6.77    2.63
   4   2  16    3.97    2.07
  -4  -2  16    6.22    2.33
   6  -2  16    3.09    2.01
  -6  -2 -16    4.01    2.16
   6   2 -16    5.42    2.47
  -6   2  16   10.87    3.06
  -6   2  16    6.30    3.08
  -6  -2  16    9.38    2.92
   6  -2 -16    7.47    2.76
  -6   2 -16    5.53    2.47
   6   2  16    4.90    2.19
  -6  -2  16    8.43    2.72
   6   2  16   10.70    2.79
   8  -2  16    9.24    2.67
  -8   2  16    9.24    2.61
   8   2 -16    4.58    2.60
  -8  -2 -16    7.84    2.90
   8   2  16    3.54    2.11
  -8   2 -16    3.88    2.17
  -8  -2  16    5.80    2.13
   8  -2 -16    4.51    2.57
   1  -3  16    2.51    1.84
  -1   3  16    2.04    1.74
  -1   3  16    1.48    1.50
   1  -3  16    1.24    1.82
   1   3  16    2.19    1.74
  -1  -3  16    2.24    1.57
  -1   3 -16    2.93    2.06
  -1  -3  16    5.91    2.63
   1   3  16    1.09    1.79
   1  -3 -16    0.50    2.03
  -3   3  16    3.90    2.13
   3   3 -16    0.99    2.15
  -3  -3 -16   -0.17    1.92
   3  -3  16   -0.73    1.36
  -3   3  16    2.56    1.70
   3  -3  16    1.85    2.10
  -3   3 -16    0.51    1.42
  -3  -3  16    3.43    1.96
   3   3  16    3.38    2.02
   3   3  16    0.43    1.52
   3  -3 -16    4.94    2.37
  -3  -3  16   -0.45    1.66
   5  -3  16    3.49    2.01
   5   3 -16    5.16    2.42
  -5   3  16    0.66    1.48
  -5  -3 -16    2.78    2.29
   5  -3 -16    3.01    2.21
   5   3  16    1.94    1.76
   5   3  16    1.50    1.83
  -5  -3  16    1.72    1.63
  -5   3 -16    0.93    1.79
  -5  -3  16    4.08    2.26
   7  -3  16    0.45    1.43
  -7  -3 -16   -1.48    1.54
   7   3 -16    1.96    2.10
  -7   3  16   -0.47    1.37
  -7  -3  16    0.87    1.47
   7   3  16   -0.02    1.36
   7   3  16    0.04    1.82
   7  -3 -16    0.95    1.88
  -7   3 -16    3.95    2.19
   0  -4  16   38.29    5.48
   0   4  16   24.74    4.39
   0  -4  16   29.39    4.68
   0   4  16   30.85    5.10
   2  -4  16   13.27    3.67
   2  -4  16    4.28    2.40
  -2   4  16    6.62    2.48
  -2   4  16    9.58    3.00
   2   4  16    6.41    2.45
   2   4  16    6.14    2.51
  -2  -4  16    2.59    1.92
  -2   4 -16    7.85    3.02
  -2  -4  16    7.74    2.82
  -4   4  16    3.37    2.04
  -4  -4 -16    8.56    3.26
   4  -4  16    5.35    2.38
   4  -4  16    2.07    2.06
   4   4  16    5.69    2.47
  -4  -4  16    2.57    1.84
   4  -4 -16    3.53    2.37
  -4   4 -16    3.90    2.37
   4   4  16    3.43    2.24
  -4  -4  16    2.75    2.39
   1   0  17    2.37    2.06
   1   0  17    3.20    1.97
  -1   0  17    6.02    2.47
  -1   0 -17    1.80    2.20
  -1   0  17    4.75    2.10
   1   0 -17    3.14    2.69
   3   0 -17    3.99    2.55
   3   0  17    4.18    2.20
  -3   0  17    7.71    2.84
   3   0  17    2.19    2.11
  -3   0  17    5.86    2.55
  -3   0 -17    7.41    3.06
  -5   0 -17   13.10    3.54
  -5   0  17   17.84    3.76
  -5   0  17   14.20    3.19
   5   0  17   20.98    4.00
   5   0  17   20.14    3.75
   5   0 -17   13.92    3.34
  -7   0  17   23.74    4.11
   7   0  17   22.18    4.01
  -7   0 -17   21.99    4.63
   7   0 -17   19.92    4.03
   0   1  17    0.00    1.65
   0  -1  17   -0.14    1.74
   0   1  17    0.51    1.64
   0  -1  17    0.27    1.38
   2  -1  17    1.75    1.98
   2  -1  17    0.23    1.61
   2   1 -17   -0.64    2.17
  -2  -1 -17    0.75    2.27
  -2   1  17   -0.03    1.51
  -2   1  17   -0.20    1.98
  -2  -1  17    1.21    1.70
  -2   1 -17    0.38    1.62
   2   1  17    2.28    2.03
   2  -1 -17    0.31    1.84
  -2  -1  17   -0.07    1.39
   2   1  17    0.73    1.45
  -4  -1 -17    0.50    2.01
  -4   1  17    0.12    1.36
  -4   1  17    2.29    1.90
   4  -1  17    0.86    1.71
   4  -1  17   -1.32    1.37
   4   1  17    1.06    1.59
  -4  -1  17   -0.49    1.37
   4   1  17    1.93    1.81
   4  -1 -17   -1.24    1.70
  -4  -1  17    0.44    1.76
  -4   1 -17    0.58    1.62
  -6   1  17    0.50    1.49
  -6  -1 -17    4.39    2.56
   6   1 -17    2.62    2.02
   6  -1  17    1.54    1.97
   6  -1 -17   -0.52    1.94
  -6   1 -17    2.12    1.89
  -6  -1  17    0.38    1.35
   6   1  17   -0.12    2.70
   6   1  17    0.94    1.53
  -6  -1  17   -0.47    1.89
  -1   2  17   -0.03    1.56
   1  -2  17    0.27    1.85
   1  -2  17    0.49    1.62
  -1   2  17    0.53    1.67
   1   2  17    0.48    1.66
  -1  -2  17   -1.24    1.53
  -1   2 -17   -1.81    1.72
  -1  -2  17   -0.04    1.81
   1   2  17   -0.51    1.34
  -3   2  17    4.85    2.39
   3  -2  17    3.38    1.95
  -3   2  17    3.24    2.30
   3  -2  17    1.74    1.86
  -3  -2 -17    6.09    2.91
   3   2  17    5.62    2.31
  -3  -2  17    6.00    2.75
  -3  -2  17    3.99    2.22
  -3   2 -17    1.20    2.19
   3   2  17    5.29    2.43
  -5  -2 -17    6.99    2.96
   5  -2  17    9.42    3.04
  -5   2  17    7.50    2.76
  -5   2 -17    3.34    2.34
  -5  -2  17    2.82    1.96
   5   2  17    3.56    2.10
  -5  -2  17    6.00    2.71
   5  -2 -17    5.51    2.29
   5   2  17    4.82    2.20
   0  -3  17    2.58    2.38
   0   3  17    0.27    1.60
   0  -3  17   -0.92    1.60
   0   3  17   -0.07    1.58
  -2   3  17    0.46    1.86
   2  -3  17   -0.45    1.67
  -2   3  17    0.27    1.45
   2  -3  17    0.79    1.85
   2   3  17    2.51    2.01
  -2  -3  17   -0.55    1.55
  -2   3 -17    1.25    1.98
  -2  -3  17    0.73    1.79
   2   3  17    0.37    1.36
   0   0  18    5.82    2.42
   0   0  18    4.92    2.41
  -2   0  18    7.62    2.85
  -2   0  18    4.49    2.21
   2   0  18   10.60    3.35
   2   0  18    2.88    2.34
  -2   0 -18    5.91    2.84
   1  -1  18   -0.49    1.68
   1  -1  18    1.37    1.99
  -1   1  18    0.97    1.85
  -1   1  18   -1.34    1.90
  -1  -1  18   -0.80    1.42
   1   1  18   -0.20    1.89
  -1  -1  18   -1.44    1.72
   1   1  18   -0.74    1.59
  -1   1 -18   -1.01    1.89
  -3  -1 -18    0.87    2.24
  -3   1 -18   -0.66    1.90
   0   0   0    0.00    0.00
;
_shelx_hkl_checksum              61347
_shelx_fab_file
;
    2    0    0     62.57      0.00
    4    0    0      5.45      0.00
    6    0    0     13.05      0.00
    8    0    0     14.00      0.00
   10    0    0     -0.29      0.00
   12    0    0      1.15      0.00
   14    0    0     -0.34      0.00
   16    0    0     -1.69      0.00
   18    0    0      2.42      0.00
   20    0    0     -1.51      0.00
    0    2    0     -1.11      0.00
    2    2    0     -5.98      0.00
    4    2    0     -8.96      0.00
    6    2    0     -3.56      0.00
    8    2    0     -0.30      0.00
   10    2    0      0.54      0.00
   12    2    0      2.09      0.00
   14    2    0      1.28      0.00
   16    2    0      0.27      0.00
   18    2    0      0.47      0.00
   20    2    0     -0.04      0.00
    0    4    0      4.94      0.00
    2    4    0      3.32      0.00
    4    4    0      1.49      0.00
    6    4    0      1.25      0.00
    8    4    0      0.48      0.00
   10    4    0     -0.21      0.00
   12    4    0      0.10      0.00
   14    4    0      0.34      0.00
   16    4    0      0.75      0.00
   18    4    0      1.13      0.00
    0    6    0      0.75      0.00
    2    6    0      0.56      0.00
    4    6    0     -0.28      0.00
    6    6    0     -0.69      0.00
    8    6    0      0.43      0.00
   10    6    0      0.86      0.00
   12    6    0     -0.70      0.00
   14    6    0     -1.79      0.00
   16    6    0     -1.24      0.00
    0    8    0      1.44      0.00
    2    8    0      1.26      0.00
    4    8    0      0.84      0.00
    6    8    0      0.32      0.00
    8    8    0     -0.16      0.00
    3    0    1      1.08      0.00
    5    0    1     10.19      0.00
    7    0    1    -10.36      0.00
    9    0    1     -3.38      0.00
   11    0    1     -0.20      0.00
   13    0    1     -3.50      0.00
   15    0    1      1.00      0.00
   17    0    1     -1.05      0.00
   19    0    1     -1.34      0.00
   21    0    1      2.60      0.00
    0    1    1      7.59      0.00
    2    1    1      3.77      0.00
    4    1    1     -0.22      0.00
    6    1    1      0.71      0.00
    8    1    1      0.25      0.00
   10    1    1     -1.99      0.00
   12    1    1     -1.75      0.00
   14    1    1      0.01      0.00
   16    1    1      1.72      0.00
   18    1    1      2.48      0.00
   20    1    1      1.44      0.00
    1    2    1     -5.77      0.00
    3    2    1      2.23      0.00
    5    2    1      2.52      0.00
    7    2    1     -0.93      0.00
    9    2    1     -0.52      0.00
   11    2    1     -0.85      0.00
   13    2    1     -1.21      0.00
   15    2    1     -0.14      0.00
   17    2    1     -0.45      0.00
   19    2    1     -0.35      0.00
   21    2    1      0.19      0.00
    0    3    1     -4.28      0.00
    2    3    1     -3.35      0.00
    4    3    1     -1.88      0.00
    6    3    1     -0.89      0.00
    8    3    1      0.26      0.00
   10    3    1      1.05      0.00
   12    3    1      0.89      0.00
   14    3    1      0.48      0.00
   16    3    1      0.31      0.00
   18    3    1      0.35      0.00
   20    3    1      0.30      0.00
    1    4    1     -2.71      0.00
    3    4    1     -0.81      0.00
    5    4    1     -0.46      0.00
    7    4    1     -0.77      0.00
    9    4    1     -0.32      0.00
   11    4    1     -0.32      0.00
   13    4    1     -0.48      0.00
   15    4    1     -0.50      0.00
   17    4    1     -0.78      0.00
   19    4    1     -0.56      0.00
    0    5    1     -0.36      0.00
    2    5    1      0.10      0.00
    4    5    1      0.51      0.00
    6    5    1     -0.19      0.00
    8    5    1     -1.26      0.00
   10    5    1     -1.45      0.00
   12    5    1     -0.80      0.00
   14    5    1     -0.41      0.00
   16    5    1     -0.53      0.00
   18    5    1     -0.37      0.00
    1    6    1     -0.34      0.00
    3    6    1     -0.21      0.00
    5    6    1      0.37      0.00
    7    6    1     -0.01      0.00
    9    6    1     -1.14      0.00
   11    6    1     -0.76      0.00
   13    6    1      0.58      0.00
   15    6    1      0.80      0.00
    0    7    1      0.91      0.00
    2    7    1      0.75      0.00
    4    7    1      0.46      0.00
    6    7    1      0.18      0.00
    8    7    1     -0.14      0.00
   10    7    1     -0.29      0.00
   12    7    1     -0.13      0.00
    1    8    1     -0.86      0.00
    3    8    1     -0.51      0.00
    5    8    1     -0.23      0.00
    7    8    1     -0.00      0.00
    9    8    1      0.27      0.00
    0    0    2      5.27      0.00
    2    0    2    -24.34      0.00
    4    0    2    -42.88      0.00
    6    0    2    -11.87      0.00
    8    0    2      2.37      0.00
   10    0    2     -1.32      0.00
   12    0    2      4.73      0.00
   14    0    2      3.29      0.00
   16    0    2      0.01      0.00
   18    0    2      2.46      0.00
   20    0    2     -0.47      0.00
    1    1    2      1.90      0.00
    3    1    2      6.67      0.00
    5    1    2      3.39      0.00
    7    1    2     -1.59      0.00
    9    1    2      0.19      0.00
   11    1    2      1.72      0.00
   13    1    2      0.39      0.00
   15    1    2     -0.68      0.00
   17    1    2     -1.64      0.00
   19    1    2     -1.39      0.00
   21    1    2     -0.21      0.00
    0    2    2     18.21      0.00
    2    2    2     10.90      0.00
    4    2    2      3.00      0.00
    6    2    2      3.89      0.00
    8    2    2      2.97      0.00
   10    2    2      0.21      0.00
   12    2    2      0.17      0.00
   14    2    2     -0.22      0.00
   16    2    2     -0.06      0.00
   18    2    2      0.69      0.00
   20    2    2     -0.24      0.00
    1    3    2      2.31      0.00
    3    3    2      0.94      0.00
    5    3    2      0.40      0.00
    7    3    2      0.02      0.00
    9    3    2     -0.80      0.00
   11    3    2     -0.73      0.00
   13    3    2     -0.07      0.00
   15    3    2      0.11      0.00
   17    3    2     -0.22      0.00
   19    3    2     -0.55      0.00
    0    4    2      0.69      0.00
    2    4    2     -0.27      0.00
    4    4    2     -0.93      0.00
    6    4    2      0.05      0.00
    8    4    2      0.77      0.00
   10    4    2      0.88      0.00
   12    4    2      0.84      0.00
   14    4    2      0.53      0.00
   16    4    2      0.42      0.00
   18    4    2      0.19      0.00
    1    5    2      1.32      0.00
    3    5    2     -0.01      0.00
    5    5    2     -0.50      0.00
    7    5    2      0.24      0.00
    9    5    2      0.76      0.00
   11    5    2      0.31      0.00
   13    5    2     -0.23      0.00
   15    5    2      0.13      0.00
   17    5    2      0.59      0.00
    0    6    2     -0.32      0.00
    2    6    2      0.10      0.00
    4    6    2      0.34      0.00
    6    6    2      0.20      0.00
    8    6    2      0.91      0.00
   10    6    2      1.59      0.00
   12    6    2      1.09      0.00
   14    6    2      0.44      0.00
   16    6    2      0.41      0.00
    1    7    2     -0.09      0.00
    3    7    2     -0.15      0.00
    5    7    2     -0.22      0.00
    7    7    2     -0.02      0.00
    9    7    2      0.22      0.00
   11    7    2     -0.05      0.00
   13    7    2     -0.44      0.00
    0    8    2      0.16      0.00
    2    8    2     -0.16      0.00
    4    8    2     -0.31      0.00
    6    8    2      0.11      0.00
    8    8    2      0.13      0.00
    1    0    3     20.08      0.00
    3    0    3     39.46      0.00
    5    0    3     21.24      0.00
    7    0    3     -2.63      0.00
    9    0    3      0.85      0.00
   11    0    3      0.29      0.00
   13    0    3     -3.67      0.00
   15    0    3      0.13      0.00
   17    0    3     -1.27      0.00
   19    0    3     -1.62      0.00
   21    0    3      0.86      0.00
    0    1    3     -8.64      0.00
    2    1    3    -10.74      0.00
    4    1    3     -7.69      0.00
    6    1    3      1.47      0.00
    8    1    3      3.11      0.00
   10    1    3      0.02      0.00
   12    1    3      0.12      0.00
   14    1    3      0.05      0.00
   16    1    3     -0.64      0.00
   18    1    3     -0.46      0.00
   20    1    3     -0.76      0.00
    1    2    3     -9.82      0.00
    3    2    3     -1.34      0.00
    5    2    3     -1.16      0.00
    7    2    3     -4.04      0.00
    9    2    3     -1.50      0.00
   11    2    3     -0.02      0.00
   13    2    3     -0.20      0.00
   15    2    3      0.22      0.00
   17    2    3     -0.51      0.00
   19    2    3     -0.19      0.00
   21    2    3      0.75      0.00
    0    3    3      0.85      0.00
    2    3    3      1.27      0.00
    4    3    3      1.13      0.00
    6    3    3      0.17      0.00
    8    3    3     -0.11      0.00
   10    3    3     -0.21      0.00
   12    3    3     -0.72      0.00
   14    3    3     -0.81      0.00
   16    3    3     -0.31      0.00
   18    3    3      0.44      0.00
   20    3    3      0.56      0.00
    1    4    3     -0.95      0.00
    3    4    3     -0.09      0.00
    5    4    3     -0.10      0.00
    7    4    3     -0.67      0.00
    9    4    3     -0.81      0.00
   11    4    3     -0.63      0.00
   13    4    3     -0.31      0.00
   15    4    3     -0.19      0.00
   17    4    3     -0.16      0.00
   19    4    3      0.23      0.00
    0    5    3     -2.17      0.00
    2    5    3     -1.14      0.00
    4    5    3      0.41      0.00
    6    5    3      0.95      0.00
    8    5    3      1.00      0.00
   10    5    3      1.13      0.00
   12    5    3      1.30      0.00
   14    5    3      0.93      0.00
   16    5    3     -0.04      0.00
    1    6    3     -0.02      0.00
    3    6    3     -0.65      0.00
    5    6    3     -0.60      0.00
    7    6    3     -0.49      0.00
    9    6    3     -1.00      0.00
   11    6    3     -1.14      0.00
   13    6    3     -0.65      0.00
   15    6    3     -0.24      0.00
    0    7    3     -1.30      0.00
    2    7    3     -0.95      0.00
    4    7    3     -0.28      0.00
    6    7    3     -0.03      0.00
    8    7    3     -0.19      0.00
   10    7    3      0.02      0.00
   12    7    3      0.67      0.00
    1    8    3     -0.04      0.00
    3    8    3      0.36      0.00
    5    8    3     -0.33      0.00
    7    8    3     -0.94      0.00
    9    8    3     -0.35      0.00
    0    0    4      6.80      0.00
    2    0    4     -4.12      0.00
    4    0    4     -5.08      0.00
    6    0    4     11.43      0.00
    8    0    4      7.84      0.00
   10    0    4     -2.55      0.00
   12    0    4     -0.43      0.00
   14    0    4     -0.85      0.00
   16    0    4     -1.02      0.00
   18    0    4      1.85      0.00
   20    0    4     -0.45      0.00
    1    1    4      0.58      0.00
    3    1    4      0.86      0.00
    5    1    4     -4.22      0.00
    7    1    4     -5.80      0.00
    9    1    4     -0.92      0.00
   11    1    4      0.77      0.00
   13    1    4      0.09      0.00
   15    1    4      1.01      0.00
   17    1    4      1.04      0.00
   19    1    4      0.77      0.00
   21    1    4      0.57      0.00
    0    2    4     -2.87      0.00
    2    2    4     -6.43      0.00
    4    2    4     -6.42      0.00
    6    2    4      0.59      0.00
    8    2    4      2.16      0.00
   10    2    4      0.12      0.00
   12    2    4      0.55      0.00
   14    2    4      0.43      0.00
   16    2    4      0.39      0.00
   18    2    4      0.76      0.00
   20    2    4     -0.30      0.00
    1    3    4     -0.15      0.00
    3    3    4     -0.11      0.00
    5    3    4      0.50      0.00
    7    3    4      0.97      0.00
    9    3    4      0.94      0.00
   11    3    4      0.78      0.00
   13    3    4      0.45      0.00
   15    3    4      0.05      0.00
   17    3    4     -0.43      0.00
   19    3    4     -0.82      0.00
    0    4    4      2.16      0.00
    2    4    4      1.90      0.00
    4    4    4      1.43      0.00
    6    4    4      1.01      0.00
    8    4    4      0.50      0.00
   10    4    4      0.09      0.00
   12    4    4     -0.11      0.00
   14    4    4     -0.09      0.00
   16    4    4      0.03      0.00
   18    4    4     -0.08      0.00
    1    5    4      0.96      0.00
    3    5    4     -0.23      0.00
    5    5    4     -0.97      0.00
    7    5    4     -1.20      0.00
    9    5    4     -1.23      0.00
   11    5    4     -0.99      0.00
   13    5    4     -0.77      0.00
   15    5    4     -0.26      0.00
   17    5    4      0.27      0.00
    0    6    4      0.73      0.00
    2    6    4      0.84      0.00
    4    6    4      0.62      0.00
    6    6    4      0.13      0.00
    8    6    4      0.12      0.00
   10    6    4      0.26      0.00
   12    6    4     -0.00      0.00
   14    6    4     -0.37      0.00
    1    7    4      0.98      0.00
    3    7    4      0.32      0.00
    5    7    4      0.03      0.00
    7    7    4      0.28      0.00
    9    7    4      0.39      0.00
   11    7    4     -0.04      0.00
    0    8    4      0.50      0.00
    2    8    4      0.06      0.00
    4    8    4      0.31      0.00
    6    8    4      1.42      0.00
    8    8    4      1.08      0.00
    1    0    5    -12.47      0.00
    3    0    5     -5.91      0.00
    5    0    5    -13.73      0.00
    7    0    5    -15.56      0.00
    9    0    5     -2.72      0.00
   11    0    5      1.58      0.00
   13    0    5      0.34      0.00
   15    0    5      1.50      0.00
   17    0    5     -0.63      0.00
   19    0    5     -0.36      0.00
   21    0    5      1.73      0.00
    0    1    5     10.39      0.00
    2    1    5      8.91      0.00
    4    1    5      7.99      0.00
    6    1    5      6.75      0.00
    8    1    5      1.16      0.00
   10    1    5     -2.34      0.00
   12    1    5     -1.09      0.00
   14    1    5     -0.44      0.00
   16    1    5     -0.18      0.00
   18    1    5      0.41      0.00
   20    1    5      0.06      0.00
    1    2    5      6.45      0.00
    3    2    5      6.95      0.00
    5    2    5      1.29      0.00
    7    2    5     -2.44      0.00
    9    2    5     -0.01      0.00
   11    2    5      0.74      0.00
   13    2    5     -0.13      0.00
   15    2    5     -0.22      0.00
   17    2    5     -1.06      0.00
   19    2    5     -0.78      0.00
    0    3    5     -1.87      0.00
    2    3    5     -1.80      0.00
    4    3    5     -1.56      0.00
    6    3    5     -1.26      0.00
    8    3    5     -0.95      0.00
   10    3    5     -0.36      0.00
   12    3    5      0.58      0.00
   14    3    5      1.06      0.00
   16    3    5      0.92      0.00
   18    3    5      0.90      0.00
    1    4    5     -0.51      0.00
    3    4    5     -0.99      0.00
    5    4    5     -1.08      0.00
    7    4    5     -0.53      0.00
    9    4    5     -0.07      0.00
   11    4    5     -0.16      0.00
   13    4    5     -0.37      0.00
   15    4    5     -0.27      0.00
   17    4    5      0.12      0.00
    0    5    5     -0.37      0.00
    2    5    5      0.22      0.00
    4    5    5      0.74      0.00
    6    5    5      0.43      0.00
    8    5    5      0.05      0.00
   10    5    5     -0.35      0.00
   12    5    5     -0.44      0.00
   14    5    5     -0.17      0.00
   16    5    5     -0.37      0.00
    1    6    5     -0.94      0.00
    3    6    5     -0.33      0.00
    5    6    5      0.30      0.00
    7    6    5      0.39      0.00
    9    6    5      0.25      0.00
   11    6    5      0.37      0.00
   13    6    5      0.51      0.00
   15    6    5      0.48      0.00
    0    7    5      0.36      0.00
    2    7    5      0.54      0.00
    4    7    5      0.50      0.00
    6    7    5      0.02      0.00
    8    7    5     -0.30      0.00
   10    7    5     -0.42      0.00
   12    7    5     -0.34      0.00
    1    8    5     -0.15      0.00
    3    8    5      0.18      0.00
    5    8    5     -0.76      0.00
    7    8    5     -1.21      0.00
    0    0    6     -0.19      0.00
    2    0    6     -2.85      0.00
    4    0    6      1.14      0.00
    6    0    6      9.81      0.00
    8    0    6      5.74      0.00
   10    0    6     -0.28      0.00
   12    0    6      1.04      0.00
   14    0    6      0.72      0.00
   16    0    6      0.45      0.00
   18    0    6      1.09      0.00
   20    0    6     -0.96      0.00
    1    1    6     -5.24      0.00
    3    1    6     -3.44      0.00
    5    1    6     -2.18      0.00
    7    1    6      0.07      0.00
    9    1    6      1.93      0.00
   11    1    6      0.83      0.00
   13    1    6     -0.26      0.00
   15    1    6     -0.38      0.00
   17    1    6     -0.78      0.00
   19    1    6     -0.23      0.00
    0    2    6      1.48      0.00
    2    2    6      0.72      0.00
    4    2    6      1.96      0.00
    6    2    6      3.98      0.00
    8    2    6      1.32      0.00
   10    2    6     -1.48      0.00
   12    2    6     -1.00      0.00
   14    2    6     -0.34      0.00
   16    2    6      0.63      0.00
   18    2    6      1.30      0.00
   20    2    6      0.33      0.00
    1    3    6     -0.04      0.00
    3    3    6      0.01      0.00
    5    3    6     -0.15      0.00
    7    3    6     -0.06      0.00
    9    3    6     -0.01      0.00
   11    3    6     -0.77      0.00
   13    3    6     -1.42      0.00
   15    3    6     -1.07      0.00
   17    3    6     -0.60      0.00
   19    3    6     -0.41      0.00
    0    4    6     -1.84      0.00
    2    4    6     -1.13      0.00
    4    4    6      0.06      0.00
    6    4    6      0.41      0.00
    8    4    6      0.25      0.00
   10    4    6      0.58      0.00
   12    4    6      1.15      0.00
   14    4    6      1.05      0.00
   16    4    6      0.24      0.00
   18    4    6     -0.42      0.00
    1    5    6      0.56      0.00
    3    5    6     -0.31      0.00
    5    5    6     -0.23      0.00
    7    5    6      0.45      0.00
    9    5    6      0.79      0.00
   11    5    6      0.59      0.00
   13    5    6     -0.22      0.00
   15    5    6     -0.44      0.00
    0    6    6      0.42      0.00
    2    6    6      0.05      0.00
    4    6    6     -0.41      0.00
    6    6    6     -0.34      0.00
    8    6    6     -0.13      0.00
   10    6    6     -0.21      0.00
   12    6    6     -0.26      0.00
   14    6    6     -0.13      0.00
    1    7    6     -0.93      0.00
    3    7    6     -0.77      0.00
    5    7    6     -0.32      0.00
    7    7    6     -0.25      0.00
    9    7    6     -0.25      0.00
   11    7    6      0.28      0.00
    0    8    6     -0.09      0.00
    2    8    6     -0.50      0.00
    4    8    6     -0.33      0.00
    6    8    6      0.58      0.00
    1    0    7      7.82      0.00
    3    0    7      6.79      0.00
    5    0    7     -0.73      0.00
    7    0    7     -3.13      0.00
    9    0    7      1.40      0.00
   11    0    7      0.92      0.00
   13    0    7     -1.42      0.00
   15    0    7     -1.14      0.00
   17    0    7     -1.66      0.00
   19    0    7     -0.88      0.00
    0    1    7     -4.27      0.00
    2    1    7     -4.70      0.00
    4    1    7     -4.51      0.00
    6    1    7     -2.96      0.00
    8    1    7     -0.97      0.00
   10    1    7      0.97      0.00
   12    1    7      1.43      0.00
   14    1    7      0.65      0.00
   16    1    7      0.38      0.00
   18    1    7     -0.28      0.00
   20    1    7     -0.97      0.00
    1    2    7     -4.60      0.00
    3    2    7     -3.59      0.00
    5    2    7     -3.54      0.00
    7    2    7     -2.31      0.00
    9    2    7     -0.12      0.00
   11    2    7      0.23      0.00
   13    2    7     -0.07      0.00
   15    2    7     -0.32      0.00
   17    2    7     -0.84      0.00
   19    2    7     -0.24      0.00
    0    3    7      2.99      0.00
    2    3    7      2.59      0.00
    4    3    7      1.88      0.00
    6    3    7      1.08      0.00
    8    3    7      0.26      0.00
   10    3    7      0.30      0.00
   12    3    7      0.78      0.00
   14    3    7      0.55      0.00
   16    3    7      0.04      0.00
   18    3    7     -0.19      0.00
    1    4    7      0.70      0.00
    3    4    7      0.01      0.00
    5    4    7     -0.42      0.00
    7    4    7     -0.22      0.00
    9    4    7     -0.21      0.00
   11    4    7     -0.70      0.00
   13    4    7     -0.86      0.00
   15    4    7     -0.32      0.00
   17    4    7      0.25      0.00
    0    5    7     -0.64      0.00
    2    5    7     -0.02      0.00
    4    5    7      0.50      0.00
    6    5    7      0.02      0.00
    8    5    7     -0.33      0.00
   10    5    7      0.09      0.00
   12    5    7      1.26      0.00
   14    5    7      2.02      0.00
   16    5    7      1.10      0.00
    1    6    7      0.15      0.00
    3    6    7      0.02      0.00
    5    6    7     -0.40      0.00
    7    6    7     -0.54      0.00
    9    6    7     -0.17      0.00
   11    6    7      0.03      0.00
   13    6    7     -0.03      0.00
    0    7    7      0.27      0.00
    2    7    7      0.31      0.00
    4    7    7      0.24      0.00
    6    7    7      0.46      0.00
    8    7    7      1.00      0.00
   10    7    7      0.63      0.00
    1    8    7      0.08      0.00
    3    8    7      0.56      0.00
    5    8    7      0.08      0.00
    0    0    8      0.78      0.00
    2    0    8      0.19      0.00
    4    0    8      1.87      0.00
    6    0    8      3.06      0.00
    8    0    8     -1.64      0.00
   10    0    8     -4.10      0.00
   12    0    8     -1.00      0.00
   14    0    8      0.66      0.00
   16    0    8      1.14      0.00
   18    0    8      1.78      0.00
    1    1    8      3.76      0.00
    3    1    8      3.70      0.00
    5    1    8      2.63      0.00
    7    1    8      0.47      0.00
    9    1    8     -1.45      0.00
   11    1    8     -1.49      0.00
   13    1    8     -0.42      0.00
   15    1    8     -0.29      0.00
   17    1    8     -0.18      0.00
   19    1    8      0.79      0.00
    0    2    8      2.01      0.00
    2    2    8      1.10      0.00
    4    2    8     -0.07      0.00
    6    2    8      0.01      0.00
    8    2    8      0.84      0.00
   10    2    8      1.61      0.00
   12    2    8      1.60      0.00
   14    2    8      1.00      0.00
   16    2    8      0.52      0.00
   18    2    8     -0.19      0.00
    1    3    8     -1.65      0.00
    3    3    8     -0.87      0.00
    5    3    8     -0.07      0.00
    7    3    8      0.40      0.00
    9    3    8      0.14      0.00
   11    3    8     -0.47      0.00
   13    3    8     -0.39      0.00
   15    3    8     -0.01      0.00
   17    3    8      0.18      0.00
    0    4    8      1.78      0.00
    2    4    8      1.57      0.00
    4    4    8      1.05      0.00
    6    4    8      0.38      0.00
    8    4    8     -0.11      0.00
   10    4    8     -0.16      0.00
   12    4    8     -0.20      0.00
   14    4    8     -0.45      0.00
   16    4    8     -0.41      0.00
    1    5    8     -1.09      0.00
    3    5    8     -1.15      0.00
    5    5    8     -0.63      0.00
    7    5    8     -0.03      0.00
    9    5    8     -0.09      0.00
   11    5    8     -0.93      0.00
   13    5    8     -1.99      0.00
   15    5    8     -1.79      0.00
    0    6    8     -0.21      0.00
    2    6    8      0.14      0.00
    4    6    8      0.89      0.00
    6    6    8      1.10      0.00
    8    6    8      0.39      0.00
   10    6    8     -0.13      0.00
   12    6    8     -0.02      0.00
    1    7    8      0.03      0.00
    3    7    8     -0.41      0.00
    5    7    8     -0.67      0.00
    7    7    8     -1.01      0.00
    9    7    8     -0.99      0.00
    0    8    8      0.55      0.00
    2    8    8      0.10      0.00
    1    0    9     -5.89      0.00
    3    0    9     -5.13      0.00
    5    0    9     -4.74      0.00
    7    0    9     -1.12      0.00
    9    0    9      3.00      0.00
   11    0    9      1.78      0.00
   13    0    9     -0.46      0.00
   15    0    9     -0.27      0.00
   17    0    9     -0.60      0.00
   19    0    9     -0.87      0.00
    0    1    9      1.87      0.00
    2    1    9      1.72      0.00
    4    1    9      1.21      0.00
    6    1    9      0.74      0.00
    8    1    9      0.72      0.00
   10    1    9      0.28      0.00
   12    1    9     -0.51      0.00
   14    1    9      0.02      0.00
   16    1    9      1.14      0.00
   18    1    9      0.69      0.00
    1    2    9     -1.00      0.00
    3    2    9      0.85      0.00
    5    2    9      2.09      0.00
    7    2    9      0.81      0.00
    9    2    9     -1.26      0.00
   11    2    9     -1.71      0.00
   13    2    9     -1.19      0.00
   15    2    9     -0.63      0.00
   17    2    9      0.22      0.00
    0    3    9     -0.95      0.00
    2    3    9     -1.21      0.00
    4    3    9     -1.59      0.00
    6    3    9     -1.53      0.00
    8    3    9     -0.71      0.00
   10    3    9      0.39      0.00
   12    3    9      0.66      0.00
   14    3    9      0.40      0.00
   16    3    9      0.42      0.00
    1    4    9     -1.93      0.00
    3    4    9     -1.10      0.00
    5    4    9     -0.34      0.00
    7    4    9     -0.14      0.00
    9    4    9     -0.26      0.00
   11    4    9     -0.03      0.00
   13    4    9      0.57      0.00
   15    4    9      0.56      0.00
    0    5    9      2.28      0.00
    2    5    9      1.82      0.00
    4    5    9      0.89      0.00
    6    5    9      0.26      0.00
    8    5    9      0.02      0.00
   10    5    9      0.02      0.00
   12    5    9      0.39      0.00
   14    5    9      0.68      0.00
    1    6    9      0.08      0.00
    3    6    9     -0.36      0.00
    5    6    9     -0.67      0.00
    7    6    9     -0.15      0.00
    9    6    9      0.47      0.00
   11    6    9      0.25      0.00
    0    7    9      0.07      0.00
    2    7    9      0.64      0.00
    4    7    9      1.24      0.00
    6    7    9      1.02      0.00
    8    7    9      0.58      0.00
    0    0   10      2.09      0.00
    2    0   10      1.68      0.00
    4    0   10      1.66      0.00
    6    0   10      1.34      0.00
    8    0   10     -0.36      0.00
   10    0   10      0.04      0.00
   12    0   10      1.90      0.00
   14    0   10      1.06      0.00
   16    0   10     -0.49      0.00
   18    0   10     -0.22      0.00
    1    1   10     -1.07      0.00
    3    1   10     -1.14      0.00
    5    1   10     -0.52      0.00
    7    1   10      0.07      0.00
    9    1   10      0.21      0.00
   11    1   10      0.48      0.00
   13    1   10      0.19      0.00
   15    1   10     -0.99      0.00
   17    1   10     -1.26      0.00
    0    2   10      3.86      0.00
    2    2   10      2.60      0.00
    4    2   10     -0.07      0.00
    6    2   10     -1.24      0.00
    8    2   10     -0.22      0.00
   10    2   10      0.26      0.00
   12    2   10      0.02      0.00
   14    2   10      0.30      0.00
   16    2   10      0.03      0.00
    1    3   10      0.39      0.00
    3    3   10      0.48      0.00
    5    3   10      0.64      0.00
    7    3   10      0.54      0.00
    9    3   10      0.00      0.00
   11    3   10     -0.26      0.00
   13    3   10     -0.12      0.00
   15    3   10     -0.38      0.00
    0    4   10      0.67      0.00
    2    4   10      0.33      0.00
    4    4   10     -0.09      0.00
    6    4   10      0.14      0.00
    8    4   10      0.90      0.00
   10    4   10      1.20      0.00
   12    4   10      0.48      0.00
   14    4   10     -0.18      0.00
    1    5   10     -1.14      0.00
    3    5   10     -0.31      0.00
    5    5   10     -0.10      0.00
    7    5   10     -0.46      0.00
    9    5   10     -0.36      0.00
   11    5   10      0.11      0.00
   13    5   10      0.33      0.00
    0    6   10      0.08      0.00
    2    6   10     -0.07      0.00
    4    6   10     -0.22      0.00
    6    6   10     -0.32      0.00
    8    6   10     -0.50      0.00
   10    6   10     -0.24      0.00
    1    7   10     -0.01      0.00
    3    7   10     -1.01      0.00
    5    7   10     -1.11      0.00
    1    0   11      1.06      0.00
    3    0   11      1.42      0.00
    5    0   11      0.82      0.00
    7    0   11      0.30      0.00
    9    0   11     -0.40      0.00
   11    0   11     -2.11      0.00
   13    0   11     -2.18      0.00
   15    0   11     -0.18      0.00
   17    0   11      0.60      0.00
    0    1   11     -2.84      0.00
    2    1   11     -2.43      0.00
    4    1   11     -1.93      0.00
    6    1   11     -1.42      0.00
    8    1   11     -0.31      0.00
   10    1   11      0.55      0.00
   12    1   11      0.38      0.00
   14    1   11      0.23      0.00
   16    1   11      0.32      0.00
    1    2   11     -3.50      0.00
    3    2   11     -1.96      0.00
    5    2   11     -0.06      0.00
    7    2   11      0.21      0.00
    9    2   11     -0.00      0.00
   11    2   11      0.37      0.00
   13    2   11     -0.05      0.00
   15    2   11     -0.38      0.00
    0    3   11      1.27      0.00
    2    3   11      1.50      0.00
    4    3   11      1.60      0.00
    6    3   11      0.92      0.00
    8    3   11      0.10      0.00
   10    3   11     -0.32      0.00
   12    3   11     -0.51      0.00
   14    3   11     -0.30      0.00
    1    4   11     -0.38      0.00
    3    4   11     -0.19      0.00
    5    4   11     -0.19      0.00
    7    4   11     -0.64      0.00
    9    4   11     -1.16      0.00
   11    4   11     -0.90      0.00
   13    4   11     -0.08      0.00
    0    5   11     -0.41      0.00
    2    5   11     -0.67      0.00
    4    5   11     -0.48      0.00
    6    5   11      0.48      0.00
    8    5   11      0.86      0.00
   10    5   11      0.37      0.00
   12    5   11     -0.17      0.00
    1    6   11     -0.53      0.00
    3    6   11      0.22      0.00
    5    6   11      0.49      0.00
    7    6   11      0.20      0.00
    9    6   11     -0.21      0.00
    0    7   11     -0.84      0.00
    2    7   11     -0.20      0.00
    0    0   12      1.05      0.00
    2    0   12      0.60      0.00
    4    0   12      0.27      0.00
    6    0   12      0.20      0.00
    8    0   12     -0.10      0.00
   10    0   12      0.41      0.00
   12    0   12      1.35      0.00
   14    0   12      0.90      0.00
   16    0   12      0.02      0.00
    1    1   12      1.23      0.00
    3    1   12      1.37      0.00
    5    1   12      1.46      0.00
    7    1   12      0.68      0.00
    9    1   12     -0.55      0.00
   11    1   12     -0.59      0.00
   13    1   12      0.34      0.00
   15    1   12      0.66      0.00
    0    2   12      0.33      0.00
    2    2   12      0.30      0.00
    4    2   12     -0.02      0.00
    6    2   12      0.16      0.00
    8    2   12      0.84      0.00
   10    2   12      0.72      0.00
   12    2   12      0.66      0.00
   14    2   12      0.95      0.00
    1    3   12     -0.14      0.00
    3    3   12     -1.17      0.00
    5    3   12     -1.45      0.00
    7    3   12     -0.56      0.00
    9    3   12      0.21      0.00
   11    3   12      0.32      0.00
   13    3   12      0.20      0.00
    0    4   12      0.86      0.00
    2    4   12      0.84      0.00
    4    4   12      0.69      0.00
    6    4   12      0.43      0.00
    8    4   12      0.36      0.00
   10    4   12      0.35      0.00
   12    4   12     -0.00      0.00
    1    5   12      0.61      0.00
    3    5   12      0.32      0.00
    5    5   12     -0.46      0.00
    7    5   12     -0.67      0.00
    9    5   12     -0.09      0.00
   11    5   12      0.22      0.00
    0    6   12      1.03      0.00
    2    6   12      0.47      0.00
    4    6   12     -0.22      0.00
    6    6   12     -0.10      0.00
    1    0   13     -1.57      0.00
    3    0   13     -1.91      0.00
    5    0   13     -2.00      0.00
    7    0   13     -1.06      0.00
    9    0   13      0.00      0.00
   11    0   13     -0.16      0.00
   13    0   13     -0.61      0.00
   15    0   13     -0.25      0.00
    0    1   13      3.13      0.00
    2    1   13      2.54      0.00
    4    1   13      1.23      0.00
    6    1   13      0.18      0.00
    8    1   13      0.08      0.00
   10    1   13     -0.02      0.00
   12    1   13     -0.80      0.00
   14    1   13     -1.07      0.00
    1    2   13      1.23      0.00
    3    2   13      0.73      0.00
    5    2   13     -0.01      0.00
    7    2   13     -0.92      0.00
    9    2   13     -1.13      0.00
   11    2   13     -0.83      0.00
   13    2   13     -0.98      0.00
    0    3   13     -2.01      0.00
    2    3   13     -1.09      0.00
    4    3   13      0.24      0.00
    6    3   13      0.30      0.00
    8    3   13     -0.21      0.00
   10    3   13     -0.02      0.00
   12    3   13      0.41      0.00
    1    4   13     -0.31      0.00
    3    4   13     -0.51      0.00
    5    4   13     -0.48      0.00
    7    4   13     -0.25      0.00
    9    4   13     -0.20      0.00
   11    4   13     -0.24      0.00
    0    5   13      0.34      0.00
    2    5   13      0.57      0.00
    4    5   13      1.11      0.00
    6    5   13      0.98      0.00
    8    5   13     -0.13      0.00
    1    6   13     -0.60      0.00
    3    6   13     -0.18      0.00
    0    0   14     -1.34      0.00
    2    0   14     -0.36      0.00
    4    0   14      1.22      0.00
    6    0   14      1.53      0.00
    8    0   14      0.69      0.00
   10    0   14      0.23      0.00
   12    0   14      0.39      0.00
   14    0   14      0.14      0.00
    1    1   14     -2.53      0.00
    3    1   14     -2.10      0.00
    5    1   14     -1.16      0.00
    7    1   14     -0.33      0.00
    9    1   14      0.09      0.00
   11    1   14      0.63      0.00
   13    1   14      0.92      0.00
    0    2   14     -0.33      0.00
    2    2   14     -0.04      0.00
    4    2   14      0.62      0.00
    6    2   14      1.03      0.00
    8    2   14      0.69      0.00
   10    2   14     -0.04      0.00
   12    2   14     -0.05      0.00
    1    3   14      0.61      0.00
    3    3   14     -0.20      0.00
    5    3   14     -0.29      0.00
    7    3   14      0.51      0.00
    9    3   14      0.68      0.00
   11    3   14     -0.04      0.00
    0    4   14     -0.45      0.00
    2    4   14     -0.20      0.00
    4    4   14      0.24      0.00
    6    4   14      0.45      0.00
    8    4   14      0.48      0.00
   10    4   14      0.57      0.00
    1    5   14     -0.68      0.00
    3    5   14     -1.15      0.00
    5    5   14     -1.40      0.00
    7    5   14     -0.52      0.00
    1    0   15      1.80      0.00
    3    0   15      0.46      0.00
    5    0   15     -0.34      0.00
    7    0   15     -0.23      0.00
    9    0   15     -0.21      0.00
   11    0   15     -0.40      0.00
    0    1   15     -1.58      0.00
    2    1   15     -0.93      0.00
    4    1   15     -0.11      0.00
    6    1   15      0.03      0.00
    8    1   15      0.10      0.00
   10    1   15      0.11      0.00
   12    1   15     -0.17      0.00
    1    2   15     -0.01      0.00
    3    2   15     -0.92      0.00
    5    2   15     -1.65      0.00
    7    2   15     -1.05      0.00
    9    2   15      0.33      0.00
   11    2   15      0.87      0.00
    0    3   15      1.39      0.00
    2    3   15      1.48      0.00
    4    3   15      1.21      0.00
    6    3   15     -0.02      0.00
    8    3   15     -1.13      0.00
   10    3   15     -0.86      0.00
    1    4   15     -0.01      0.00
    3    4   15     -0.28      0.00
    5    4   15     -0.51      0.00
    7    4   15     -0.46      0.00
    0    5   15      0.05      0.00
    2    5   15      0.19      0.00
    0    0   16      0.79      0.00
    2    0   16      0.87      0.00
    4    0   16      0.56      0.00
    6    0   16     -0.19      0.00
    8    0   16     -0.29      0.00
   10    0   16      0.18      0.00
    1    1   16      2.12      0.00
    3    1   16      0.99      0.00
    5    1   16      0.48      0.00
    7    1   16      0.24      0.00
    9    1   16     -0.32      0.00
    0    2   16     -1.49      0.00
    2    2   16     -0.57      0.00
    4    2   16      1.13      0.00
    6    2   16      1.57      0.00
    8    2   16      0.38      0.00
    1    3   16     -0.75      0.00
    3    3   16     -0.89      0.00
    5    3   16     -0.52      0.00
    7    3   16      0.45      0.00
    0    4   16      0.42      0.00
    2    4   16      0.46      0.00
    4    4   16      0.51      0.00
    1    0   17     -2.13      0.00
    3    0   17     -1.45      0.00
    5    0   17     -0.32      0.00
    7    0   17      0.29      0.00
    0    1   17      0.73      0.00
    2    1   17      1.02      0.00
    4    1   17      0.76      0.00
    6    1   17     -0.05      0.00
    1    2   17      1.67      0.00
    3    2   17      0.15      0.00
    5    2   17     -1.07      0.00
    0    3   17     -1.32      0.00
    2    3   17     -0.92      0.00
    0    0   18      0.41      0.00
    2    0   18      0.30      0.00
    1    1   18     -2.19      0.00
    3    1   18     -1.92      0.00
   22    0    0     -2.55      0.00
   10    8    0     -0.40      0.00
    1    0    1    -60.33      0.00
    0    9    1     -0.28      0.00
   18    5    3     -0.32      0.00
   13    7    4     -0.47      0.00
   17    3   10     -0.52      0.00
    7    7   10     -0.30      0.00
   17    2   11      0.18      0.00
   16    3   11      0.18      0.00
    4    7   11      0.53      0.00
   16    2   12      0.19      0.00
   15    3   12      0.11      0.00
    8    6   12      0.34      0.00
    5    6   13      0.06      0.00
    8    1   17      0.08      0.00
    4    3   17     -0.12      0.00
    4    0   18      0.06      0.00
    0    0    0      0.00      0.00
loop_
  _platon_squeeze_void_nr
  _platon_squeeze_void_average_x
  _platon_squeeze_void_average_y
  _platon_squeeze_void_average_z
  _platon_squeeze_void_volume
  _platon_squeeze_void_count_electrons
  _platon_squeeze_void_content
   1  0.500 -0.023 -0.000       198        56 ' '
   2 -0.000 -0.033  0.500       198        56 ' '
loop_
  _platon_missing_refln_index_h
  _platon_missing_refln_index_k
  _platon_missing_refln_index_l
  _platon_missing_refln_theta
    1    0    1     1.963
_platon_squeeze_void_probe_radius                  1.20
_platon_squeeze_details
)
TITL b19209    I m m a      R = 0.10
CELL   16.1880    6.6240   13.5200     90.00     90.00     90.00
SPGR Imma
Q101 0.473 0.751 0.234 !       1.78 eA-3
C102 0.500 0.234 0.203 !       1.53 eA-3
C103 0.500 0.500 0.000 !       1.16 eA-3
Q104 0.635 0.500-0.000 !       0.81 eA-3
Q105 0.580 0.035 0.094 !       0.79 eA-3
Q106 0.685 0.761 0.375 !       0.64 eA-3
Q107 0.400 0.689 0.235 !       0.54 eA-3
Q108 0.366 0.753 0.031 !       0.52 eA-3
Q109 0.410 0.338 0.062 !       0.50 eA-3
)
;
_shelx_fab_checksum              45371
loop_
_space_group_symop_operation_xyz
'x, y, z'
'-x, -y+1/2, z'
'-x, y+1/2, -z'
'x, -y, -z'
'x+1/2, y+1/2, z+1/2'
'-x+1/2, -y+1, z+1/2'
'-x+1/2, y+1, -z+1/2'
'x+1/2, -y+1/2, -z+1/2'
'-x, -y, -z'
'x, y-1/2, -z'
'x, -y-1/2, z'
'-x, y, z'
'-x+1/2, -y+1/2, -z+1/2'
'x+1/2, y, -z+1/2'
'x+1/2, -y, z+1/2'
'-x+1/2, y+1/2, z+1/2'
loop_
_atom_site_label
_atom_site_type_symbol
_atom_site_fract_x
_atom_site_fract_y
_atom_site_fract_z
_atom_site_U_iso_or_equiv
_atom_site_adp_type
_atom_site_occupancy
_atom_site_site_symmetry_order
_atom_site_calc_flag
_atom_site_refinement_flags_posn
_atom_site_refinement_flags_adp
_atom_site_refinement_flags_occupancy
_atom_site_disorder_assembly
_atom_site_disorder_group
Al1 Al 0.500000 0.500000 0.500000 0.0137(4) Uani 1 4 d S T P . .
O1 O 0.500000 0.250000 0.5590(2) 0.0165(6) Uani 1 4 d S T P . .
H1 H 0.500000 0.250000 0.612896 0.05(2) Uiso 1 4 d R . P . .
O2 O 0.58411(8) 0.5811(2) 0.59034(11) 0.0251(5) Uani 1 1 d . . . . .
C1 C 0.61096(17) 0.750000 0.6163(2) 0.0207(6) Uani 1 2 d S T P . .
C2 C 0.68311(18) 0.750000 0.6860(2) 0.0263(7) Uani 1 2 d S T P . .
C3 C 0.7160(3) 0.9292(7) 0.7189(5) 0.0459(17) Uani 0.601(9) 1 d . . P . .
H3 H 0.691956 1.053527 0.698808 0.055 Uiso 0.601(9) 1 calc R U P . .
C3' C 0.6796(10) 0.856(3) 0.7730(14) 0.051(2) Uani 0.191(7) 1 d . . P . .
H3' H 0.630089 0.922241 0.791980 0.061 Uiso 0.191(7) 1 calc R U P . .
C3" C 0.7513(10) 0.865(2) 0.6668(13) 0.051(2) Uani 0.208(7) 1 d . . P . .
H3" H 0.751210 0.953154 0.611342 0.061 Uiso 0.208(7) 1 calc R U P . .
O1X O 0.6538(13) 1.250000 0.7022(17) 0.084(10) Uani 0.214(14) 2 d S T P A 1
O2X O 0.698(3) 1.250000 0.638(4) -0.01(2) Uani 0.025(11) 2 d S TU P B 2
O3X O 0.7388(14) 1.158(4) 0.559(3) 0.41(3) Uani 0.380(8) 1 d . . P C 3
loop_
_atom_site_aniso_label
_atom_site_aniso_U_11
_atom_site_aniso_U_22
_atom_site_aniso_U_33
_atom_site_aniso_U_23
_atom_site_aniso_U_13
_atom_site_aniso_U_12
Al1 0.0119(5) 0.0150(6) 0.0142(6) -0.0012(4) 0.000 0.000
O1 0.0192(13) 0.0159(14) 0.0144(14) 0.000 0.000 0.000
O2 0.0259(8) 0.0189(9) 0.0306(9) 0.0019(6) -0.0128(6) -0.0034(6)
C1 0.0180(12) 0.0225(14) 0.0216(14) 0.000 -0.0061(10) 0.000
C2 0.0253(14) 0.0182(15) 0.0354(17) 0.000 -0.0162(13) 0.000
C3 0.050(3) 0.014(2) 0.073(4) -0.0004(19) -0.045(3) -0.0001(18)
C3' 0.044(4) 0.046(6) 0.062(5) -0.005(3) -0.034(3) -0.003(3)
C3" 0.044(4) 0.046(6) 0.062(5) -0.005(3) -0.034(3) -0.003(3)
O1X 0.087(16) 0.056(12) 0.110(19) 0.000 -0.071(15) 0.000
O2X -0.01(2) -0.01(2) -0.01(2) 0.000 0.001(5) 0.000
O3X 0.31(3) 0.31(5) 0.61(7) 0.02(3) -0.29(4) -0.17(2)
loop_
_atom_type_symbol
_atom_type_description
_atom_type_scat_dispersion_real
_atom_type_scat_dispersion_imag
_atom_type_scat_source
C C 0.0033 0.0016 'International Tables Vol C Tables 4.2.6.8 and 6.1.1.4'
H H 0.0000 0.0000 'International Tables Vol C Tables 4.2.6.8 and 6.1.1.4'
O O 0.0106 0.0060 'International Tables Vol C Tables 4.2.6.8 and 6.1.1.4'
Al Al 0.0645 0.0514 'International Tables Vol C Tables 4.2.6.8 and 6.1.1.4'
loop_
_geom_angle_atom_site_label_1
_geom_angle_atom_site_label_2
_geom_angle_atom_site_label_3
_geom_angle
_geom_angle_site_symmetry_1
_geom_angle_site_symmetry_3
O1 Al1 O1 180.0 . 9_666
O1 Al1 O2 91.39(8) . 9_666
O1 Al1 O2 88.61(8) 9_666 9_666
O1 Al1 O2 88.61(8) . 12_655
O1 Al1 O2 91.39(8) 9_666 12_655
O2 Al1 O2 88.84(10) 9_666 12_655
O1 Al1 O2 88.61(8) . .
O1 Al1 O2 91.39(8) 9_666 .
O2 Al1 O2 180.0 9_666 .
O2 Al1 O2 91.16(10) 12_655 .
O1 Al1 O2 91.39(8) . 4_566
O1 Al1 O2 88.61(8) 9_666 4_566
O2 Al1 O2 91.16(10) 9_666 4_566
O2 Al1 O2 180.0 12_655 4_566
O2 Al1 O2 88.84(10) . 4_566
Al1 O1 Al1 128.56(16) 2_655 .
Al1 O1 H1 115.7 2_655 .
Al1 O1 H1 115.7 . .
C1 O2 Al1 132.83(15) . .
O2 C1 O2 127.0(3) 11_575 .
O2 C1 C2 116.52(13) 11_575 .
O2 C1 C2 116.52(13) . .
C3' C2 C3' 61.5(16) . 11_575
C3' C2 C3 45.3(8) . .
C3' C2 C3 100.4(8) 11_575 .
C3' C2 C3 100.4(8) . 11_575
C3' C2 C3 45.3(8) 11_575 11_575
C3 C2 C3 119.5(4) . 11_575
C3' C2 C3" 84.9(11) . .
C3' C2 C3" 118.8(9) 11_575 .
C3 C2 C3" 42.8(7) . .
C3 C2 C3" 103.4(8) 11_575 .
C3' C2 C3" 118.8(9) . 11_575
C3' C2 C3" 84.9(11) 11_575 11_575
C3 C2 C3" 103.4(8) . 11_575
C3 C2 C3" 42.8(7) 11_575 11_575
C3" C2 C3" 67.9(15) . 11_575
C3' C2 C1 120.5(7) . .
C3' C2 C1 120.5(7) 11_575 .
C3 C2 C1 120.3(2) . .
C3 C2 C1 120.3(2) 11_575 .
C3" C2 C1 120.6(6) . .
C3" C2 C1 120.6(6) 11_575 .
C2 C3 C3 120.2(2) . 7_646
C2 C3 H3 119.9 . .
C3 C3 H3 119.9 7_646 .
C2 C3' C3" 119.6(15) . 7_646
C2 C3' C3" 87.2(10) . 13_666
C3" C3' C3" 49.2(11) 7_646 13_666
C2 C3' H3' 120.2 . .
C3" C3' H3' 120.2 7_646 .
C3" C3' H3' 134.2 13_666 .
C2 C3" C3' 121.1(15) . 7_646
C2 C3" C3' 88.0(10) . 13_666
C3' C3" C3' 44.0(11) 7_646 13_666
C2 C3" H3" 119.5 . .
C3' C3" H3" 119.5 7_646 .
C3' C3" H3" 139.9 13_666 .
loop_
_geom_bond_atom_site_label_1
_geom_bond_atom_site_label_2
_geom_bond_distance
_geom_bond_site_symmetry_2
Al1 O1 1.8382(13) .
Al1 O1 1.8382(14) 9_666
Al1 O2 1.9063(14) 9_666
Al1 O2 1.9063(14) 12_655
Al1 O2 1.9063(14) .
Al1 O2 1.9063(14) 4_566
O1 H1 0.7286 .
O2 C1 1.2507(19) .
C1 C2 1.501(4) .
C2 C3' 1.370(17) .
C2 C3' 1.370(17) 11_575
C2 C3 1.374(4) .
C2 C3 1.374(4) 11_575
C2 C3" 1.366(16) .
C2 C3" 1.366(16) 11_575
C3 C3 1.387(7) 7_646
C3 H3 0.9500 .
C3' C3" 1.384(18) 7_646
C3' C3" 2.01(2) 13_666
C3' H3' 0.9500 .
C3" H3" 0.9500 .
O3X O3X 1.22(5) 11_585
loop_
_geom_torsion_atom_site_label_1
_geom_torsion_atom_site_label_2
_geom_torsion_atom_site_label_3
_geom_torsion_atom_site_label_4
_geom_torsion
_geom_torsion_site_symmetry_1
_geom_torsion_site_symmetry_4
O2 Al1 O1 Al1 45.60(5) 9_666 2_655
O2 Al1 O1 Al1 134.40(5) 12_655 2_655
O2 Al1 O1 Al1 -134.40(5) . 2_655
O2 Al1 O1 Al1 -45.60(5) 4_566 2_655
Al1 O2 C1 O2 3.9(5) . 11_575
Al1 O2 C1 C2 -176.11(18) . .
O2 C1 C2 C3' 53.6(10) 11_575 .
O2 C1 C2 C3' -126.4(10) . .
O2 C1 C2 C3' 126.4(10) 11_575 11_575
O2 C1 C2 C3' -53.6(10) . 11_575
O2 C1 C2 C3 0.5(6) 11_575 .
O2 C1 C2 C3 -179.5(4) . .
O2 C1 C2 C3 179.5(4) 11_575 11_575
O2 C1 C2 C3 -0.5(6) . 11_575
O2 C1 C2 C3" -49.6(10) 11_575 .
O2 C1 C2 C3" 130.5(10) . .
O2 C1 C2 C3" -130.5(10) 11_575 11_575
O2 C1 C2 C3" 49.6(10) . 11_575
C3' C2 C3 C3 77.3(12) . 7_646
C3' C2 C3 C3 47.0(14) 11_575 7_646
C3 C2 C3 C3 2.8(15) 11_575 7_646
C3" C2 C3 C3 -74.5(11) . 7_646
C3" C2 C3 C3 -40.1(15) 11_575 7_646
C1 C2 C3 C3 -178.2(7) . 7_646
C3' C2 C3' C3" 73.9(19) 11_575 7_646
C3 C2 C3' C3" -71.7(17) . 7_646
C3 C2 C3' C3" 49.8(19) 11_575 7_646
C3" C2 C3' C3" -52.9(16) . 7_646
C3" C2 C3' C3" 8(3) 11_575 7_646
C1 C2 C3' C3" -175.6(13) . 7_646
C3' C2 C3' C3" 35.1(10) 11_575 13_666
C3 C2 C3' C3" -110.5(10) . 13_666
C3 C2 C3' C3" 11.0(9) 11_575 13_666
C3" C2 C3' C3" -91.7(10) . 13_666
C3" C2 C3' C3" -30.4(15) 11_575 13_666
C1 C2 C3' C3" 145.6(6) . 13_666
C3' C2 C3" C3' 61.9(16) . 7_646
C3' C2 C3" C3' 8(3) 11_575 7_646
C3 C2 C3" C3' 81.6(19) . 7_646
C3 C2 C3" C3' -38(2) 11_575 7_646
C3" C2 C3" C3' -62(2) 11_575 7_646
C1 C2 C3" C3' -175.5(14) . 7_646
C3' C2 C3" C3' 92.6(10) . 13_666
C3' C2 C3" C3' 39.2(16) 11_575 13_666
C3 C2 C3" C3' 112.3(11) . 13_666
C3 C2 C3" C3' -6.9(10) 11_575 13_666
C3" C2 C3" C3' -31.4(11) 11_575 13_666
C1 C2 C3" C3' -144.8(6) . 13_666
