#------------------------------------------------------------------------------
#$Date: 2019-11-03 10:56:03 +0200 (Sun, 03 Nov 2019) $
#$Revision: 221197 $
#$URL: file:///home/coder/svn-repositories/cod/cif/4/12/80/4128066.cif $
#------------------------------------------------------------------------------
#
# This file is available in the Crystallography Open Database (COD),
# http://www.crystallography.net/
#
# All data on this site have been placed in the public domain by the
# contributors.
#
data_4128066
loop_
_publ_author_name
'Castillo-Blas, Celia'
'L\'opez-Salas, Nieves'
'Guti\'errez, Mar\'ia C'
'Puente-Orench, In\'es'
'Guti\'errez-Puebla, Enrique'
'Ferrer, M. Luisa'
'Monge, M \'Angeles'
'G\'andara, Felipe'
_publ_section_title
;
 Encoding Metal-Cation Arrangements in Metal-Organic Frameworks for
 Programming the Composition of Electrocatalytically Active Multimetal
 Oxides.
;
_journal_issue                   4
_journal_name_full               'Journal of the American Chemical Society'
_journal_page_first              1766
_journal_page_last               1774
_journal_paper_doi               10.1021/jacs.8b12860
_journal_volume                  141
_journal_year                    2019
_chemical_formula_moiety
'C17 H8 Ca0.07 Co0.27 F6 Mn0.43 O4 Zn0.23, O0.38'
_chemical_formula_sum            'C17 H8 Ca0.07 Co0.27 F6 Mn0.43 O4.38 Zn0.23'
_chemical_formula_weight         453.68
_space_group_crystal_system      hexagonal
_space_group_IT_number           179
_space_group_name_Hall           'P 65 2 (0 0 1)'
_space_group_name_H-M_alt        'P 65 2 2'
_symmetry_space_group_name_Hall  'P 65 2 (0 0 1)'
_symmetry_space_group_name_H-M   'P 65 2 2'
_atom_sites_solution_hydrogens   geom
_atom_sites_solution_primary     dual
_audit_creation_date             2018-05-16
_audit_creation_method
;
Olex2 1.2
(compiled 2018.04.26 svn.r3504 for OlexSys, GUI svn.r5492)
;
_cell_angle_alpha                90
_cell_angle_beta                 90
_cell_angle_gamma                120
_cell_formula_units_Z            12
_cell_length_a                   21.2716(12)
_cell_length_b                   21.2716(12)
_cell_length_c                   15.1756(11)
_cell_measurement_reflns_used    9800
_cell_measurement_temperature    250
_cell_measurement_theta_max      65.662
_cell_measurement_theta_min      2.398
_cell_volume                     5946.7(6)
_computing_cell_refinement       'SAINT v8.37A (Bruker, 2015)'
_computing_data_reduction        'SAINT v8.37A (Bruker, 2015)'
_computing_molecular_graphics    'Olex2 (Dolomanov et al., 2009)'
_computing_publication_material  'Olex2 (Dolomanov et al., 2009)'
_computing_structure_refinement  'XL (Sheldrick, 2008)'
_computing_structure_solution    'XT (Sheldrick, 2015)'
_diffrn_ambient_temperature      250
_diffrn_measured_fraction_theta_full 0.996
_diffrn_measured_fraction_theta_max 0.996
_diffrn_measurement_device_type  'Vantec 500'
_diffrn_measurement_method       '\f and \w scans'
_diffrn_radiation_type           CuK\a
_diffrn_radiation_wavelength     1.54178
_diffrn_reflns_av_R_equivalents  0.0798
_diffrn_reflns_av_unetI/netI     0.0425
_diffrn_reflns_Laue_measured_fraction_full 0.996
_diffrn_reflns_Laue_measured_fraction_max 0.996
_diffrn_reflns_limit_h_max       25
_diffrn_reflns_limit_h_min       -25
_diffrn_reflns_limit_k_max       25
_diffrn_reflns_limit_k_min       -24
_diffrn_reflns_limit_l_max       17
_diffrn_reflns_limit_l_min       -17
_diffrn_reflns_number            27460
_diffrn_reflns_point_group_measured_fraction_full 0.995
_diffrn_reflns_point_group_measured_fraction_max 0.995
_diffrn_reflns_theta_full        65.861
_diffrn_reflns_theta_max         65.861
_diffrn_reflns_theta_min         2.398
_diffrn_standards_number         0
_exptl_absorpt_coefficient_mu    5.474
_exptl_absorpt_correction_T_max  1.0000
_exptl_absorpt_correction_T_min  0.5651
_exptl_absorpt_correction_type   multi-scan
_exptl_absorpt_process_details
'SADABS-2016/2 (Bruker,2016/2) was used for absorption correction. wR2(int) was 0.1656 before and 0.1061 after correction. The Ratio of minimum to maximum transmission is 0.5651. The \l/2 correction factor is Not present.'
_exptl_crystal_colour            blue
_exptl_crystal_colour_primary    blue
_exptl_crystal_density_diffrn    1.520
_exptl_crystal_description       needle
_exptl_crystal_F_000             2704
_exptl_crystal_size_max          0.14
_exptl_crystal_size_mid          0.06
_exptl_crystal_size_min          0.06
_refine_diff_density_max         0.885
_refine_diff_density_min         -0.773
_refine_diff_density_rms         0.186
_refine_ls_abs_structure_details
;
 Flack x determined using 1163 quotients [(I+)-(I-)]/[(I+)+(I-)]
 (Parsons, Flack and Wagner, Acta Cryst. B69 (2013) 249-259).
;
_refine_ls_abs_structure_Flack   -0.026(9)
_refine_ls_extinction_method     none
_refine_ls_goodness_of_fit_ref   1.618
_refine_ls_hydrogen_treatment    constr
_refine_ls_matrix_type           full
_refine_ls_number_parameters     263
_refine_ls_number_reflns         3440
_refine_ls_number_restraints     0
_refine_ls_restrained_S_all      1.618
_refine_ls_R_factor_all          0.0850
_refine_ls_R_factor_gt           0.0774
_refine_ls_shift/su_max          0.000
_refine_ls_shift/su_mean         0.000
_refine_ls_structure_factor_coef Fsqd
_refine_ls_weighting_details
'w=1/[\s^2^(Fo^2^)+(0.1000P)^2^] where P=(Fo^2^+2Fc^2^)/3'
_refine_ls_weighting_scheme      calc
_refine_ls_wR_factor_gt          0.2006
_refine_ls_wR_factor_ref         0.2064
_reflns_Friedel_coverage         0.698
_reflns_Friedel_fraction_full    0.994
_reflns_Friedel_fraction_max     0.994
_reflns_number_gt                3120
_reflns_number_total             3440
_reflns_threshold_expression     'I > 2\s(I)'
_iucr_refine_instructions_details
;

    1444.res created by SHELXL-2014/7

TITL 1444_a.res in P6(5)22
REM Old TITL 1444 in P6(5)22
REM SHELXT solution in P6(5)22
REM R1 0.152, Rweak 0.025, Alpha 0.007, Orientation as input
REM Flack x = 0.094 ( 0.013 ) from Parsons' quotients
REM Formula found by SHELXT: C34 O6 F14 Mn Zn
CELL 1.54178 21.2716 21.2716 15.1756 90 90 120
ZERR 12 0.0012 0.0012 0.0011 0 0 0
LATT -1
SYMM -Y,+X-Y,0.667+Z
SYMM +Y-X,-X,0.333+Z
SYMM -X,-Y,0.5+Z
SYMM +Y,-X+Y,0.167+Z
SYMM -Y+X,+X,0.833+Z
SYMM +Y,+X,0.667-Z
SYMM -Y+X,-Y,-Z
SYMM -X,-X+Y,0.333-Z
SYMM -Y,-X,0.167-Z
SYMM +Y-X,+Y,0.5-Z
SYMM +X,+X-Y,0.833-Z
SFAC C H Ca Co F Mn O Zn
UNIT 204 96 0.8 3.21 72 5.2 52.5 2.79
EADP Zn01 Co01
EADP Mn02 Ca02
EXYZ Mn02 Ca02
 
L.S. 20
PLAN  20
SIZE 0.06 0.06 0.14
TEMP -23.15
BOND $H
list 4
fmap 2 53
ACTA
REM <olex2.extras>
REM <HklSrc "%.\\1444.hkl">
REM </olex2.extras>
 
WGHT    0.100000
FVAR       0.31833   0.46495   0.86739
PART 1
ZN01  8    0.282576    0.717424    0.083333    20.50000    0.02074    0.02074 =
         0.02874    0.00300    0.00300    0.01195
MN02  6    0.324757    0.649514    0.250000    30.50000    0.01676    0.02145 =
         0.02773    0.00000   -0.00290    0.01073
PART 0
O003  7   -0.255301    0.374570    0.520352    11.00000    0.02327    0.01802 =
         0.03558    0.00008   -0.00101    0.00790
F004  5   -0.093655    0.704059    0.316371    11.00000    0.04163    0.07129 =
         0.09685    0.03085    0.01241    0.03684
O005  7   -0.266891    0.424364    0.644903    11.00000    0.03797    0.02388 =
         0.03097    0.00491    0.00933    0.01146
O006  7    0.230008    0.655541    0.274867    11.00000    0.02115    0.03776 =
         0.05267   -0.00366    0.00733    0.01758
F007  5    0.047444    0.737725    0.571835    11.00000    0.04878    0.06300 =
         0.06940   -0.02222    0.00053    0.00394
O008  7    0.203604    0.701213    0.157504    11.00000    0.03186    0.06109 =
         0.03874    0.00022    0.01429    0.02564
F009  5    0.083496    0.824830    0.478515    11.00000    0.05794    0.03143 =
         0.12474   -0.01983    0.04365   -0.01515
F00A  5   -0.015417    0.812466    0.356701    11.00000    0.06227    0.04146 =
         0.13922    0.03556    0.05187    0.03446
F00B  5   -0.011718    0.793769    0.555684    11.00000    0.06383    0.03459 =
         0.12610   -0.02489    0.04639    0.00455
F00C  5   -0.110656    0.748262    0.434499    11.00000    0.05462    0.06941 =
         0.14352    0.03454    0.05097    0.04534
C00D  1   -0.186524    0.502973    0.535990    11.00000    0.01819    0.02451 =
         0.03808   -0.00554   -0.00509    0.00786
C00E  1    0.194839    0.679927    0.236877    11.00000    0.01513    0.02604 =
         0.05435   -0.01452    0.00092    0.00818
C00F  1    0.101846    0.718498    0.249055    11.00000    0.03149    0.04106 =
         0.05363    0.00959    0.01370    0.02367
AFIX  43
H00F  2    0.112880    0.735475    0.190752    11.00000   -1.20000
AFIX   0
C00G  1   -0.240935    0.429954    0.570066    11.00000    0.02348    0.02072 =
         0.04237   -0.00296   -0.00866    0.01142
C00H  1   -0.164279    0.564681    0.586898    11.00000    0.02654    0.02716 =
         0.04472   -0.00237    0.01275    0.00757
AFIX  43
H00H  2   -0.186136    0.560532    0.642056    11.00000   -1.20000
AFIX   0
C00I  1   -0.079238    0.639609    0.475466    11.00000    0.01892    0.02083 =
         0.04821   -0.00011    0.01016    0.00571
C00J  1   -0.104130    0.577388    0.425284    11.00000    0.02716    0.02830 =
         0.03860   -0.00124    0.00525    0.00990
AFIX  43
H00J  2   -0.083657    0.581355    0.369231    11.00000   -1.20000
AFIX   0
C00K  1   -0.111371    0.631308    0.558745    11.00000    0.03668    0.02385 =
         0.04878   -0.01399    0.00643    0.00735
AFIX  43
H00K  2   -0.096293    0.672000    0.595381    11.00000   -1.20000
AFIX   0
C00L  1    0.033677    0.702515    0.381522    11.00000    0.01655    0.02565 =
         0.04669    0.00037    0.00654    0.00461
C00M  1    0.136533    0.684395    0.287650    11.00000    0.01898    0.03096 =
         0.04961    0.00194    0.00645    0.01433
C00N  1    0.118844    0.659200    0.373411    11.00000    0.02342    0.03612 =
         0.05270    0.00559    0.00502    0.01723
AFIX  43
H00N  2    0.142224    0.636776    0.400702    11.00000   -1.20000
AFIX   0
C00O  1    0.067427    0.666940    0.418322    11.00000    0.02828    0.03918 =
         0.04759    0.00200    0.01076    0.01472
AFIX  43
H00O  2    0.054481    0.647770    0.475532    11.00000   -1.20000
AFIX   0
C00P  1   -0.156641    0.510812    0.452776    11.00000    0.02716    0.02879 =
         0.03565   -0.00475   -0.00031    0.01214
AFIX  43
H00P  2   -0.172609    0.470308    0.415585    11.00000   -1.20000
AFIX   0
C00Q  1    0.051608    0.727287    0.296156    11.00000    0.02350    0.04323 =
         0.07364    0.01894    0.01679    0.01974
AFIX  43
H00Q  2    0.028953    0.750718    0.269574    11.00000   -1.20000
AFIX   0
C00R  1    0.025187    0.767236    0.513186    11.00000    0.03152    0.03314 =
         0.08525   -0.01830    0.02072   -0.00951
C00S  1   -0.059746    0.744984    0.385379    11.00000    0.03565    0.03548 =
         0.11020    0.02126    0.03449    0.02446
C00T  1   -0.020404    0.712793    0.438287    11.00000    0.02514    0.02493 =
         0.06240   -0.00053    0.01781    0.00705
 
O1    7    0.000000    0.457563    0.166667    10.12500    0.30634
PART 2
CO01  4    0.283202    0.716798    0.083333   -20.50000    0.02074    0.02074 =
         0.02874    0.00300    0.00300    0.01195
CA02  3    0.324757    0.649514    0.250000   -30.50000    0.01676    0.02145 =
         0.02773    0.00000   -0.00290    0.01073
 
PART 0
O0AA  7   -0.022937    0.487426    0.200005    10.25000    0.16558
HKLF 4
 
REM  1444_a.res in P6(5)22
REM R1 =  0.0774 for    3120 Fo > 4sig(Fo)  and  0.0850 for all    3440 data
REM    263 parameters refined using      0 restraints
 
END  
     
WGHT      0.1765      4.4631 

REM Highest difference peak  0.885,  deepest hole -0.773,  1-sigma level  0.186
Q1    1  -0.0497  0.4955  0.2394  11.00000  0.05    0.88
Q2    1   0.3175  0.7735  0.0844  11.00000  0.05    0.82
Q3    1  -0.0498  0.4627  0.1124  11.00000  0.05    0.79
Q4    1  -0.0382  0.4803  0.1559  11.00000  0.05    0.78
Q5    1   0.0348  0.4949  0.2330  11.00000  0.05    0.76
Q6    1   0.2516  0.6601  0.0829  11.00000  0.05    0.76
Q7    1   0.3769  0.6658  0.2432  11.00000  0.05    0.72
Q8    1   0.0001  0.5002  0.2799  11.00000  0.05    0.69
Q9    1   0.2997  0.5995  0.2500  10.50000  0.05    0.68
Q10   1  -0.0027  0.4666  0.2155  11.00000  0.05    0.67
Q11   1   0.2349  0.7153  0.0801  11.00000  0.05    0.55
Q12   1  -0.0880  0.4634  0.2064  11.00000  0.05    0.55
Q13   1  -0.0266  0.9734  0.3333  10.50000  0.05    0.54
Q14   1  -0.0122  0.4396  0.2907  11.00000  0.05    0.52
Q15   1  -0.0094  0.5653  0.5000  11.00000  0.05    0.51
Q16   1   0.3536  0.7073  0.2500  10.50000  0.05    0.50
Q17   1   0.0766  0.5383  0.4167  10.50000  0.05    0.49
Q18   1  -0.0206  0.9589  0.2500  10.50000  0.05    0.49
Q19   1  -0.0251  0.5037  0.3702  11.00000  0.05    0.48
Q20   1   0.0117  0.9773  0.2937  11.00000  0.05    0.48

  REM The information below was added by Olex2.
  REM
  REM R1 = 0.0774 for 3120 Fo > 4sig(Fo) and 0.0850 for all 27498 data
  REM n/a parameters refined using n/a restraints
  REM Highest difference peak 0.88, deepest hole -0.77
  REM Mean Shift 0, Max Shift 0.000.

  REM +++ Tabular Listing of Refinement Information +++
  REM R1_all = 0.0850
  REM R1_gt = 0.0774
  REM wR_ref = 0.2064
  REM GOOF = 1.618
  REM Shift_max = 0.000
  REM Shift_mean = 0
  REM Reflections_all = 27498
  REM Reflections_gt = 3120
  REM Parameters = n/a
  REM Hole = -0.77
  REM Peak = 0.88
  REM Flack = -0.026(9)

  
;
_cod_data_source_file            Zn0.24Mn0.37Co0.31Ca0.08(hfipbb).cif
_cod_data_source_block           1444
_cod_original_cell_volume        5946.7(8)
_cod_database_code               4128066
_shelx_shelxl_version_number     2014/7
_shelx_space_group_comment
;
The symmetry employed for this shelxl refinement is uniquely defined
by the following loop, which should always be used as a source of
symmetry information in preference to the above space-group names.
They are only intended as comments.
;
_shelx_estimated_absorpt_t_max   0.735
_shelx_estimated_absorpt_t_min   0.515
_olex2_refinement_description
;
1. Fixed Uiso
 At 1.2 times of:
  All C(H) groups
2. Shared sites
{Mn02, Ca02}
3. Uiso/Uaniso restraints and constraints
Uanis(Zn01) = Uanis(Co01)
Uanis(Mn02) = Uanis(Ca02)
4. Others
 Sof(Co01)=0.5*(1-FVAR(2))
 Sof(Zn01)=0.5*FVAR(2)
 Sof(Ca02)=0.5*(1-FVAR(3))
 Sof(Mn02)=0.5*FVAR(3)
 Fixed Sof: O1(0.125) O0AA(0.25)
5.a Aromatic/amide H refined with riding coordinates:
 C00F(H00F), C00H(H00H), C00J(H00J), C00K(H00K), C00N(H00N), C00O(H00O),
 C00P(H00P), C00Q(H00Q)
;
_olex2_submission_special_instructions 'No special instructions were received'
loop_
_space_group_symop_operation_xyz
'x, y, z'
'-y, x-y, z+2/3'
'-x+y, -x, z+1/3'
'-x, -y, z+1/2'
'y, -x+y, z+1/6'
'x-y, x, z+5/6'
'y, x, -z+2/3'
'x-y, -y, -z'
'-x, -x+y, -z+1/3'
'-y, -x, -z+1/6'
'-x+y, y, -z+1/2'
'x, x-y, -z+5/6'
loop_
_atom_site_label
_atom_site_type_symbol
_atom_site_fract_x
_atom_site_fract_y
_atom_site_fract_z
_atom_site_U_iso_or_equiv
_atom_site_adp_type
_atom_site_occupancy
_atom_site_site_symmetry_order
_atom_site_calc_flag
_atom_site_refinement_flags_posn
_atom_site_refinement_flags_adp
_atom_site_refinement_flags_occupancy
_atom_site_disorder_assembly
_atom_site_disorder_group
Zn01 Zn 0.2826(3) 0.7174(3) 0.0833 0.0227(5) Uani 0.46(2) 2 d S T P A 1
Mn02 Mn 0.32476(4) 0.64951(9) 0.2500 0.0215(6) Uani 0.87(4) 2 d S T P B 1
O003 O -0.2553(3) 0.3746(3) 0.5204(4) 0.0267(12) Uani 1 1 d . . . . .
F004 F -0.0937(4) 0.7041(4) 0.3164(5) 0.066(2) Uani 1 1 d . . . . .
O005 O -0.2669(3) 0.4244(3) 0.6449(4) 0.0327(14) Uani 1 1 d . . . . .
O006 O 0.2300(3) 0.6555(3) 0.2749(4) 0.0359(15) Uani 1 1 d . . . . .
F007 F 0.0474(4) 0.7377(4) 0.5718(5) 0.071(2) Uani 1 1 d . . . . .
O008 O 0.2036(4) 0.7012(4) 0.1575(4) 0.0428(17) Uani 1 1 d . . . . .
F009 F 0.0835(4) 0.8248(4) 0.4785(6) 0.088(3) Uani 1 1 d . . . . .
F00A F -0.0154(4) 0.8125(4) 0.3567(6) 0.077(3) Uani 1 1 d . . . . .
F00B F -0.0117(4) 0.7938(3) 0.5557(6) 0.084(3) Uani 1 1 d . . . . .
F00C F -0.1107(4) 0.7483(4) 0.4345(6) 0.083(3) Uani 1 1 d . . . . .
C00D C -0.1865(4) 0.5030(4) 0.5360(6) 0.0282(18) Uani 1 1 d . . . . .
C00E C 0.1948(4) 0.6799(5) 0.2369(6) 0.033(2) Uani 1 1 d . . . . .
C00F C 0.1018(5) 0.7185(5) 0.2491(7) 0.040(2) Uani 1 1 d . . . . .
H00F H 0.1129 0.7355 0.1908 0.048 Uiso 1 1 calc R . . . .
C00G C -0.2409(4) 0.4300(4) 0.5701(6) 0.0287(18) Uani 1 1 d . . . . .
C00H C -0.1643(5) 0.5647(5) 0.5869(7) 0.035(2) Uani 1 1 d . . . . .
H00H H -0.1861 0.5605 0.6421 0.042 Uiso 1 1 calc R . . . .
C00I C -0.0792(4) 0.6396(4) 0.4755(6) 0.0312(19) Uani 1 1 d . . . . .
C00J C -0.1041(5) 0.5774(5) 0.4253(6) 0.0331(19) Uani 1 1 d . . . . .
H00J H -0.0837 0.5814 0.3692 0.040 Uiso 1 1 calc R . . . .
C00K C -0.1114(5) 0.6313(5) 0.5587(6) 0.040(2) Uani 1 1 d . . . . .
H00K H -0.0963 0.6720 0.5954 0.048 Uiso 1 1 calc R . . . .
C00L C 0.0337(4) 0.7025(5) 0.3815(6) 0.032(2) Uani 1 1 d . . . . .
C00M C 0.1365(4) 0.6844(5) 0.2877(6) 0.0324(19) Uani 1 1 d . . . . .
C00N C 0.1188(5) 0.6592(5) 0.3734(6) 0.036(2) Uani 1 1 d . . . . .
H00N H 0.1422 0.6368 0.4007 0.044 Uiso 1 1 calc R . . . .
C00O C 0.0674(5) 0.6669(5) 0.4183(7) 0.039(2) Uani 1 1 d . . . . .
H00O H 0.0545 0.6478 0.4755 0.047 Uiso 1 1 calc R . . . .
C00P C -0.1566(5) 0.5108(5) 0.4528(6) 0.0314(19) Uani 1 1 d . . . . .
H00P H -0.1726 0.4703 0.4156 0.038 Uiso 1 1 calc R . . . .
C00Q C 0.0516(5) 0.7273(6) 0.2962(8) 0.045(3) Uani 1 1 d . . . . .
H00Q H 0.0290 0.7507 0.2696 0.055 Uiso 1 1 calc R . . . .
C00R C 0.0252(6) 0.7672(6) 0.5132(10) 0.061(4) Uani 1 1 d . . . . .
C00S C -0.0597(6) 0.7450(6) 0.3854(10) 0.057(4) Uani 1 1 d . . . . .
C00T C -0.0204(5) 0.7128(5) 0.4383(7) 0.040(2) Uani 1 1 d . . . . .
O1 O 0.0000 0.458(10) 0.1667 0.31(11) Uiso 0.25 2 d S T P . .
Co01 Co 0.2832(3) 0.7168(3) 0.0833 0.0227(5) Uani 0.54(2) 2 d S T P A 2
Ca02 Ca 0.32476(4) 0.64951(9) 0.2500 0.0215(6) Uani 0.13(4) 2 d S T P A 2
O0AA O -0.023(5) 0.487(4) 0.200(5) 0.17(3) Uiso 0.25 1 d . . . . .
loop_
_atom_site_aniso_label
_atom_site_aniso_U_11
_atom_site_aniso_U_22
_atom_site_aniso_U_33
_atom_site_aniso_U_23
_atom_site_aniso_U_13
_atom_site_aniso_U_12
Zn01 0.0207(7) 0.0207(7) 0.0287(9) 0.0030(6) 0.0030(6) 0.0120(7)
Mn02 0.0168(7) 0.0215(9) 0.0277(11) 0.000 -0.0029(6) 0.0107(5)
O003 0.023(3) 0.018(3) 0.036(3) 0.000(2) -0.001(2) 0.008(2)
F004 0.042(4) 0.071(5) 0.097(6) 0.031(4) 0.012(4) 0.037(4)
O005 0.038(3) 0.024(3) 0.031(3) 0.005(2) 0.009(3) 0.011(3)
O006 0.021(3) 0.038(3) 0.053(4) -0.004(3) 0.007(3) 0.018(3)
F007 0.049(4) 0.063(5) 0.069(5) -0.022(4) 0.001(4) 0.004(3)
O008 0.032(3) 0.061(5) 0.039(4) 0.000(3) 0.014(3) 0.026(3)
F009 0.058(5) 0.031(4) 0.125(7) -0.020(4) 0.044(5) -0.015(3)
F00A 0.062(5) 0.041(4) 0.139(7) 0.036(4) 0.052(5) 0.034(4)
F00B 0.064(4) 0.035(3) 0.126(7) -0.025(4) 0.046(5) 0.005(3)
F00C 0.055(4) 0.069(5) 0.144(8) 0.035(5) 0.051(5) 0.045(4)
C00D 0.018(4) 0.025(4) 0.038(5) -0.006(3) -0.005(3) 0.008(3)
C00E 0.015(4) 0.026(4) 0.054(6) -0.015(4) 0.001(3) 0.008(3)
C00F 0.031(5) 0.041(5) 0.054(6) 0.010(5) 0.014(4) 0.024(4)
C00G 0.023(4) 0.021(4) 0.042(5) -0.003(3) -0.009(4) 0.011(3)
C00H 0.027(4) 0.027(4) 0.045(5) -0.002(4) 0.013(4) 0.008(3)
C00I 0.019(4) 0.021(4) 0.048(5) 0.000(4) 0.010(4) 0.006(3)
C00J 0.027(4) 0.028(4) 0.039(5) -0.001(4) 0.005(4) 0.010(3)
C00K 0.037(5) 0.024(4) 0.049(6) -0.014(4) 0.006(4) 0.007(4)
C00L 0.017(4) 0.026(4) 0.047(5) 0.000(4) 0.007(3) 0.005(3)
C00M 0.019(4) 0.031(4) 0.050(5) 0.002(4) 0.006(4) 0.014(4)
C00N 0.023(4) 0.036(5) 0.053(6) 0.006(4) 0.005(4) 0.017(4)
C00O 0.028(4) 0.039(5) 0.048(6) 0.002(4) 0.011(4) 0.015(4)
C00P 0.027(4) 0.029(4) 0.036(5) -0.005(4) 0.000(3) 0.012(4)
C00Q 0.024(5) 0.043(6) 0.074(7) 0.019(5) 0.017(4) 0.020(4)
C00R 0.032(5) 0.033(6) 0.085(9) -0.018(6) 0.021(6) -0.010(5)
C00S 0.036(6) 0.035(5) 0.110(11) 0.021(6) 0.034(6) 0.024(5)
C00T 0.025(4) 0.025(4) 0.062(6) -0.001(4) 0.018(4) 0.007(4)
Co01 0.0207(7) 0.0207(7) 0.0287(9) 0.0030(6) 0.0030(6) 0.0120(7)
Ca02 0.0168(7) 0.0215(9) 0.0277(11) 0.000 -0.0029(6) 0.0107(5)
loop_
_atom_type_symbol
_atom_type_description
_atom_type_scat_dispersion_real
_atom_type_scat_dispersion_imag
_atom_type_scat_source
C C 0.0181 0.0091 'International Tables Vol C Tables 4.2.6.8 and 6.1.1.4'
H H 0.0000 0.0000 'International Tables Vol C Tables 4.2.6.8 and 6.1.1.4'
Ca Ca 0.3641 1.2855 'International Tables Vol C Tables 4.2.6.8 and 6.1.1.4'
Co Co -2.3653 3.6143 'International Tables Vol C Tables 4.2.6.8 and 6.1.1.4'
F F 0.0727 0.0534 'International Tables Vol C Tables 4.2.6.8 and 6.1.1.4'
Mn Mn -0.5299 2.8052 'International Tables Vol C Tables 4.2.6.8 and 6.1.1.4'
O O 0.0492 0.0322 'International Tables Vol C Tables 4.2.6.8 and 6.1.1.4'
Zn Zn -1.5491 0.6778 'International Tables Vol C Tables 4.2.6.8 and 6.1.1.4'
loop_
_geom_angle_atom_site_label_1
_geom_angle_atom_site_label_2
_geom_angle_atom_site_label_3
_geom_angle
_geom_angle_site_symmetry_1
_geom_angle_site_symmetry_3
O003 Zn01 O003 106.2(6) 4_564 7_565
O008 Zn01 O003 114.8(3) . 7_565
O008 Zn01 O003 114.8(3) 10_665 4_564
O008 Zn01 O003 108.0(3) 10_665 7_565
O008 Zn01 O003 108.0(3) . 4_564
O008 Zn01 O008 105.3(7) 10_665 .
O003 Mn02 O003 83.8(3) 6_664 7_565
O005 Mn02 O003 88.8(2) 4_564 7_565
O005 Mn02 O003 164.8(2) 8_666 7_565
O005 Mn02 O003 164.8(2) 4_564 6_664
O005 Mn02 O003 88.8(2) 8_666 6_664
O005 Mn02 O005 101.2(3) 8_666 4_564
O006 Mn02 O003 79.8(2) . 6_664
O006 Mn02 O003 95.7(2) 11 6_664
O006 Mn02 O003 95.7(2) . 7_565
O006 Mn02 O003 79.8(2) 11 7_565
O006 Mn02 O005 96.0(3) . 8_666
O006 Mn02 O005 87.8(2) 11 8_666
O006 Mn02 O005 96.0(3) 11 4_564
O006 Mn02 O005 87.8(2) . 4_564
O006 Mn02 O006 174.0(4) 11 .
Zn01 O003 Mn02 96.7(2) 4_565 5_455
C00G O003 Zn01 115.7(5) . 4_565
C00G O003 Mn02 123.7(5) . 5_455
C00G O003 Co01 115.5(5) . 4_565
C00G O003 Ca02 123.7(5) . 5_455
Co01 O003 Ca02 96.5(2) 4_565 5_455
C00G O005 Mn02 144.6(6) . 4_565
C00G O005 Ca02 144.6(6) . 4_565
C00E O006 Mn02 137.0(6) . .
C00E O006 Ca02 137.0(6) . .
C00E O008 Zn01 125.8(6) . .
C00E O008 Co01 125.4(6) . .
C00H C00D C00G 120.9(8) . .
C00P C00D C00G 120.8(8) . .
C00P C00D C00H 118.4(8) . .
O006 C00E O008 125.3(8) . .
O006 C00E C00M 118.4(9) . .
O006 C00E Ca02 27.3(4) . .
O008 C00E C00M 116.3(8) . .
O008 C00E Ca02 98.4(5) . .
C00M C00E Ca02 145.0(7) . .
C00M C00F H00F 119.9 . .
C00Q C00F H00F 119.9 . .
C00Q C00F C00M 120.1(10) . .
O003 C00G C00D 116.8(8) . .
O003 C00G Ca02 101.4(5) . 4_565
O005 C00G O003 123.5(7) . .
O005 C00G C00D 119.6(7) . .
O005 C00G Ca02 22.5(4) . 4_565
C00D C00G Ca02 140.8(6) . 4_565
C00D C00H H00H 119.2 . .
C00K C00H C00D 121.5(9) . .
C00K C00H H00H 119.2 . .
C00J C00I C00K 116.5(8) . .
C00J C00I C00T 119.7(8) . .
C00K C00I C00T 123.8(8) . .
C00I C00J H00J 118.3 . .
C00P C00J C00I 123.4(9) . .
C00P C00J H00J 118.3 . .
C00H C00K C00I 120.6(8) . .
C00H C00K H00K 119.7 . .
C00I C00K H00K 119.7 . .
C00O C00L C00T 118.5(9) . .
C00Q C00L C00O 117.7(9) . .
C00Q C00L C00T 123.8(9) . .
C00F C00M C00E 119.0(9) . .
C00N C00M C00E 122.0(8) . .
C00N C00M C00F 118.9(8) . .
C00M C00N H00N 120.0 . .
C00O C00N C00M 120.0(9) . .
C00O C00N H00N 120.0 . .
C00L C00O H00O 119.1 . .
C00N C00O C00L 121.7(9) . .
C00N C00O H00O 119.1 . .
C00D C00P H00P 120.2 . .
C00J C00P C00D 119.6(8) . .
C00J C00P H00P 120.2 . .
C00F C00Q C00L 121.5(10) . .
C00F C00Q H00Q 119.3 . .
C00L C00Q H00Q 119.3 . .
F007 C00R F009 108.3(11) . .
F007 C00R F00B 107.7(11) . .
F007 C00R C00T 112.2(9) . .
F009 C00R C00T 109.8(11) . .
F00B C00R F009 105.9(9) . .
F00B C00R C00T 112.6(10) . .
F004 C00S F00A 108.0(11) . .
F004 C00S F00C 106.6(10) . .
F004 C00S C00T 111.0(8) . .
F00A C00S F00C 106.2(9) . .
F00A C00S C00T 113.4(9) . .
F00C C00S C00T 111.3(10) . .
C00I C00T C00L 110.5(7) . .
C00I C00T C00R 111.9(9) . .
C00I C00T C00S 107.0(7) . .
C00L C00T C00R 106.3(8) . .
C00L C00T C00S 112.4(9) . .
C00S C00T C00R 108.8(10) . .
O0AA O1 O0AA 74(10) . 9
O003 Co01 O003 107.3(7) 4_564 7_565
O003 Co01 Ca02 87.5(4) 7_565 2_664
O003 Co01 Ca02 46.3(2) 7_565 .
O003 Co01 Ca02 87.5(4) 4_564 .
O003 Co01 Ca02 46.3(2) 4_564 2_664
O008 Co01 O003 108.0(3) . 4_564
O008 Co01 O003 114.8(3) . 7_565
O008 Co01 O003 108.0(3) 10_665 7_565
O008 Co01 O003 114.8(3) 10_665 4_564
O008 Co01 O008 104.2(7) 10_665 .
O008 Co01 Ca02 83.0(2) 10_665 2_664
O008 Co01 Ca02 83.0(2) . .
O008 Co01 Ca02 152.0(2) . 2_664
O008 Co01 Ca02 152.0(2) 10_665 .
Ca02 Co01 Ca02 103.5(3) 2_664 .
O003 Ca02 O003 83.8(3) 6_664 7_565
O003 Ca02 C00E 83.7(2) 6_664 .
O003 Ca02 C00E 81.1(2) 6_664 11
O003 Ca02 C00E 81.1(2) 7_565 .
O003 Ca02 C00E 83.7(2) 7_565 11
O003 Ca02 C00G 77.23(19) 6_664 8_666
O003 Ca02 C00G 153.4(2) 6_664 4_564
O003 Ca02 C00G 153.4(2) 7_565 8_666
O003 Ca02 C00G 77.24(19) 7_565 4_564
O003 Ca02 Co01 37.23(14) 6_664 3_565
O003 Ca02 Co01 37.23(14) 7_565 .
O003 Ca02 Co01 103.11(18) 6_664 .
O003 Ca02 Co01 103.11(18) 7_565 3_565
O005 Ca02 O003 88.8(2) 4_564 7_565
O005 Ca02 O003 164.8(2) 4_564 6_664
O005 Ca02 O003 164.8(2) 8_666 7_565
O005 Ca02 O003 88.8(2) 8_666 6_664
O005 Ca02 O005 101.2(3) 8_666 4_564
O005 Ca02 C00E 82.1(2) 4_564 .
O005 Ca02 C00E 111.4(3) 8_666 .
O005 Ca02 C00E 111.4(2) 4_564 11
O005 Ca02 C00E 82.1(2) 8_666 11
O005 Ca02 C00G 12.8(2) 4_564 4_564
O005 Ca02 C00G 113.6(2) 8_666 4_564
O005 Ca02 C00G 12.8(2) 8_666 8_666
O005 Ca02 C00G 113.6(2) 4_564 8_666
O005 Ca02 Co01 63.86(18) 4_564 .
O005 Ca02 Co01 63.86(19) 8_666 3_565
O005 Ca02 Co01 157.90(17) 8_666 .
O005 Ca02 Co01 157.90(17) 4_564 3_565
O006 Ca02 O003 95.7(2) 11 6_664
O006 Ca02 O003 95.7(2) . 7_565
O006 Ca02 O003 79.8(2) 11 7_565
O006 Ca02 O003 79.8(2) . 6_664
O006 Ca02 O005 87.8(2) . 4_564
O006 Ca02 O005 96.0(3) 11 4_564
O006 Ca02 O005 96.0(3) . 8_666
O006 Ca02 O005 87.8(2) 11 8_666
O006 Ca02 O006 174.0(4) 11 .
O006 Ca02 C00E 160.8(3) . 11
O006 Ca02 C00E 160.8(3) 11 .
O006 Ca02 C00E 15.7(3) 11 11
O006 Ca02 C00E 15.7(3) . .
O006 Ca02 C00G 99.1(2) 11 4_564
O006 Ca02 C00G 83.7(2) 11 8_666
O006 Ca02 C00G 99.1(2) . 8_666
O006 Ca02 C00G 83.7(2) . 4_564
O006 Ca02 Co01 109.0(2) 11 .
O006 Ca02 Co01 68.5(2) . .
O006 Ca02 Co01 68.5(2) 11 3_565
O006 Ca02 Co01 109.0(2) . 3_565
C00E Ca02 C00E 159.5(3) 11 .
C00E Ca02 C00G 114.7(2) . 8_666
C00E Ca02 C00G 75.1(2) 11 8_666
C00E Ca02 C00G 114.7(2) 11 4_564
C00E Ca02 C00G 75.1(2) . 4_564
C00E Ca02 Co01 52.9(2) 11 3_565
C00E Ca02 Co01 52.9(2) . .
C00E Ca02 Co01 117.8(2) 11 .
C00E Ca02 Co01 117.8(2) . 3_565
C00G Ca02 C00G 126.2(3) 8_666 4_564
C00G Ca02 Co01 167.11(19) 4_564 3_565
C00G Ca02 Co01 51.05(18) 4_564 .
C00G Ca02 Co01 51.05(18) 8_666 3_565
C00G Ca02 Co01 167.11(19) 8_666 .
Co01 Ca02 Co01 135.00(14) 3_565 .
O1 O0AA O0AA 53(9) . 9
loop_
_geom_bond_atom_site_label_1
_geom_bond_atom_site_label_2
_geom_bond_distance
_geom_bond_site_symmetry_2
Zn01 O003 1.986(9) 7_565
Zn01 O003 1.986(9) 4_564
Zn01 O008 1.905(9) .
Zn01 O008 1.905(9) 10_665
Mn02 O003 2.356(5) 7_565
Mn02 O003 2.356(5) 6_664
Mn02 O005 2.143(5) 8_666
Mn02 O005 2.143(6) 4_564
Mn02 O006 2.116(5) .
Mn02 O006 2.116(5) 11
O003 Zn01 1.986(9) 4_565
O003 Mn02 2.356(5) 5_455
O003 C00G 1.300(10) .
O003 Co01 1.972(9) 4_565
O003 Ca02 2.356(5) 5_455
F004 C00S 1.322(16) .
O005 Mn02 2.143(5) 4_565
O005 C00G 1.242(10) .
O005 Ca02 2.143(5) 4_565
O006 C00E 1.245(11) .
O006 Ca02 2.116(5) .
F007 C00R 1.307(17) .
O008 C00E 1.267(12) .
O008 Co01 1.919(10) .
F009 C00R 1.340(12) .
F00A C00S 1.336(12) .
F00B C00R 1.339(14) .
F00C C00S 1.345(12) .
C00D C00G 1.491(11) .
C00D C00H 1.387(12) .
C00D C00P 1.386(12) .
C00E C00M 1.503(11) .
C00E Ca02 3.144(8) .
C00F H00F 0.9400 .
C00F C00M 1.396(13) .
C00F C00Q 1.374(13) .
C00G Ca02 3.237(9) 4_565
C00H H00H 0.9400 .
C00H C00K 1.365(13) .
C00I C00J 1.382(12) .
C00I C00K 1.405(13) .
C00I C00T 1.536(12) .
C00J H00J 0.9400 .
C00J C00P 1.358(12) .
C00K H00K 0.9400 .
C00L C00O 1.394(14) .
C00L C00Q 1.379(14) .
C00L C00T 1.538(12) .
C00M C00N 1.386(14) .
C00N H00N 0.9400 .
C00N C00O 1.367(13) .
C00O H00O 0.9400 .
C00P H00P 0.9400 .
C00Q H00Q 0.9400 .
C00R C00T 1.565(15) .
C00S C00T 1.545(16) .
O1 O0AA 1.10(18) 9
O1 O0AA 1.10(18) .
Co01 O003 1.972(9) 4_564
Co01 O003 1.972(9) 7_565
Co01 O008 1.919(10) 10_665
Co01 Ca02 3.239(8) 2_664
Co01 Ca02 3.239(8) .
Ca02 O003 2.356(5) 7_565
Ca02 O003 2.356(5) 6_664
Ca02 O005 2.143(6) 4_564
Ca02 O005 2.143(5) 8_666
Ca02 O006 2.116(5) 11
Ca02 C00E 3.144(8) 11
Ca02 C00G 3.237(9) 8_666
Ca02 C00G 3.237(9) 4_564
Ca02 Co01 3.239(8) 3_565
O0AA O0AA 1.32(16) 9
loop_
_refln_index_h
_refln_index_k
_refln_index_l
_refln_F_squared_meas
_refln_F_squared_sigma
0 1 0 3080.89 205.28
1 -1 0 3072.09 205.18
1 -1 0 3278.27 205.18
1 0 0 2622.74 205.08
1 0 0 2914.61 205.08
1 0 0 2786.32 205.58
-1 1 0 2912.61 205.08
-1 1 0 3001.2 205.18
-1 1 0 3126.19 205.08
0 -1 0 2614.54 204.98
0 -1 0 3129.19 205.18
0 -1 0 2949 205.28
0 1 0 2897.81 205.08
0 1 0 3354.76 205.28
-1 0 0 2631.04 205.48
-1 0 0 3084.29 205.08
2 -1 0 1736.03 140.19
1 -2 0 2198.28 139.39
1 1 0 2274.37 139.69
-1 2 0 2077.49 139.39
-2 1 0 2165.38 140.19
-1 -1 0 2009.7 139.59
-1 -1 0 1729.03 140.09
1 1 0 1930.21 140.19
2 -1 0 2204.68 139.59
-1 2 0 2051.29 139.69
-2 1 0 2036.6 139.39
1 -2 0 1794.72 139.39
1 -2 0 1877.21 139.69
-1 2 0 2096.39 139.39
-2 0 0 5228.38 400.46
2 -2 0 5985.3 400.76
-2 2 0 6091.19 400.56
0 2 0 6310.47 400.56
2 0 0 5351.96 400.56
-1 3 0 4888.71 320.57
-1 3 0 5040.2 321.07
2 -3 0 4669.73 320.27
-3 2 0 4991.2 320.67
1 2 0 5158.98 320.97
-3 1 0 4474.35 320.47
-1 3 0 5164.98 320.57
1 2 0 4329.77 321.37
2 1 0 4870.31 320.67
2 1 0 3890.11 321.67
2 -3 0 4507.45 320.37
3 -1 0 4071.49 321.87
-2 3 0 4441.36 320.47
-2 3 0 4480.65 320.77
3 -2 0 4492.55 321.67
1 2 0 4661.73 320.47
-3 2 0 4606.54 320.47
-3 3 0 8339.47 612.14
0 3 0 8242.28 612.04
0 3 0 9999 612.84
3 0 0 8898.71 612.24
0 3 0 9058.99 612.64
-3 0 0 8680.93 612.14
-3 3 0 9143.29 612.44
3 0 0 8475.65 614.04
3 -4 0 181.08 13.5
-1 4 0 180.28 14.7
1 3 0 161.88 15.3
-1 4 0 176.58 13.3
-4 3 0 163.78 13.4
-3 4 0 161.58 13.3
1 3 0 176.78 14.5
-1 4 0 187.48 13.8
-3 -1 0 179.98 13.1
3 1 0 150.78 17.4
3 -4 0 156.18 12.9
4 -1 0 167.38 13.4
-4 1 0 155.48 13
1 3 0 166.08 12.9
-4 3 0 165.18 13.3
-3 4 0 159.48 14.3
1 -4 0 164.68 14.1
-4 4 0 5750.92 394.46
0 4 0 6079.59 395.06
0 4 0 5177.88 394.06
-4 0 0 5745.42 394.16
4 -4 0 6303.47 395.36
4 0 0 5266.27 396.66
4 0 0 5591.94 394.26
0 4 0 6037.4 394.96
-4 4 0 5304.47 394.16
-5 3 0 38 5.5
-2 5 0 46.7 8.2
-5 3 0 48.5 7.5
2 -5 0 30.7 5.9
2 3 0 36.2 5.4
2 3 0 46.7 7.6
3 -5 0 35.2 5.1
2 3 0 40 10.2
-3 5 0 38.6 5.5
-3 5 0 35.9 7.4
-2 5 0 27.6 5.2
-5 2 0 33.6 5.5
-2 5 0 43.2 5.9
3 2 0 35.6 11.1
5 -2 0 43.4 13.3
3 2 0 39.8 7.1
5 -3 0 29.1 10.8
-1 5 0 4987.7 327.97
1 4 0 4988.7 328.57
-4 -1 0 4761.12 327.67
-4 5 0 4471.45 327.97
-5 1 0 4655.93 327.57
4 1 0 4753.82 327.87
-4 5 0 4458.05 327.57
-1 5 0 4535.35 327.57
1 4 0 4810.42 329.07
5 -1 0 4541.05 330.77
-5 4 0 4913.41 327.87
5 -1 0 5010 327.77
-5 4 0 4628.94 327.57
-1 5 0 4664.23 328.47
5 -4 0 5230.48 329.87
4 1 0 4607.14 330.57
1 4 0 4373.26 327.47
0 5 0 7111.19 486.65
-5 5 0 6958.7 485.65
5 0 0 6913.91 485.85
5 -5 0 7515.95 487.15
0 5 0 6826.32 485.55
0 5 0 8037.9 486.85
-5 0 0 6301.07 485.55
-5 5 0 7130.49 486.05
5 0 0 6349.16 488.85
3 3 0 3598.04 263.17
-6 3 0 3560.14 260.67
-3 6 0 3826.22 260.77
-3 6 0 3906.41 261.77
6 -3 0 3891.31 264.47
3 3 0 3765.52 261.37
4 2 0 1747.73 124.09
4 -6 0 1744.23 120.09
-4 6 0 1760.12 120.49
-6 2 0 1733.73 120.39
2 4 0 1618.54 122.29
-2 6 0 1726.23 121.49
-2 6 0 1699.53 120.29
-4 6 0 1779.32 121.29
4 2 0 1686.43 120.79
2 4 0 1653.33 120.19
-2 6 0 1636.44 120.09
6 -2 0 1757.12 120.39
2 4 0 1789.22 121.39
-6 4 0 1711.13 120.29
-6 4 0 1818.82 120.69
6 -4 0 1863.01 123.99
6 -2 0 1569.94 124.19
5 1 0 269.87 30
5 1 0 326.17 25.4
-5 -1 0 335.77 24.5
5 -6 0 364.06 26.2
6 -5 0 354.26 29.7
1 5 0 360.46 27.1
1 5 0 382.16 28.1
-6 5 0 306.47 25
6 -1 0 341.87 25.1
6 -1 0 304.37 31.1
-1 6 0 334.07 26.6
-5 6 0 309.87 25.7
-6 1 0 269.87 24.3
1 5 0 320.07 24.6
-1 6 0 336.97 24.7
-1 6 0 366.76 25.7
-6 5 0 308.67 24.4
-5 6 0 285.07 24.7
0 6 0 826.62 65.69
-6 0 0 933.51 65.99
0 6 0 979.7 67.59
6 0 0 881.21 66.19
6 0 0 907.51 71.49
-6 6 0 877.21 66.39
-6 6 0 890.71 65.89
0 6 0 1045.3 67.59
6 -6 0 1047.2 68.59
3 4 0 398.96 30
4 3 0 404.46 31.2
-3 7 0 390.46 30.1
-7 3 0 398.86 30.4
4 3 0 405.26 35.4
7 -4 0 419.36 36.4
7 -3 0 425.26 37.2
-4 7 0 386.96 31.4
3 4 0 393.66 35.1
-7 4 0 407.16 30.3
-4 7 0 421.96 30.5
-3 7 0 408.36 32.3
5 2 0 49.99 16.2
7 -5 0 52.69 15.4
-7 5 0 62.19 8
-7 5 0 65.39 9.5
-5 7 0 41.9 7.8
-5 7 0 58.79 11.2
7 -2 0 49 17.8
2 5 0 71.19 12.9
7 -2 0 59.79 9.1
-2 7 0 57.29 8.2
2 5 0 47 7.7
5 2 0 50.99 9.5
2 5 0 57.59 13.4
-7 2 0 66.79 8.5
-2 7 0 52.09 11.2
7 -1 0 332.37 36
-6 7 0 322.67 28.4
-1 7 0 377.46 31.2
-7 6 0 381.16 28.8
-6 -1 0 380.86 28.3
-7 6 0 352.06 27.8
7 -6 0 362.56 32.5
1 6 0 400.96 31.4
-1 7 0 374.56 28.9
6 1 0 340.07 28.5
-7 1 0 372.46 28.2
-1 7 0 375.96 28.1
-6 7 0 371.56 28
6 -7 0 382.86 29.1
7 -1 0 380.66 28.6
6 1 0 358.06 36.5
1 6 0 382.56 30.2
1 6 0 384.46 28.2
0 7 0 707.33 51.29
0 7 0 703.33 53.49
7 0 0 709.93 59.59
-7 7 0 641.74 51.69
-7 0 0 704.83 51.29
0 7 0 732.23 53.09
7 0 0 742.73 52.09
-7 7 0 709.73 51.29
7 -7 0 749.33 53.59
8 -4 0 2163.88 141.49
4 4 0 1864.21 134.89
-8 4 0 1918.41 134.99
4 4 0 1935.51 135.99
-4 8 0 1885.81 134.99
-4 8 0 1836.52 136.29
4 4 0 1903.11 139.19
-5 8 0 378.16 29.1
-3 8 0 380.76 28.9
8 -3 0 423.36 38.7
5 3 0 362.66 30.2
-5 8 0 376.86 31.2
3 5 0 345.67 30.8
8 -3 0 393.76 29.1
3 5 0 363.16 35
3 5 0 340.87 28.3
-8 5 0 366.06 28.8
8 -5 0 398.66 36.9
5 3 0 377.36 35.6
-8 3 0 371.56 28.5
-3 8 0 354.16 31.4
2 6 0 26 13
-6 8 0 22.1 10.1
-8 6 0 17.6 7.4
6 2 0 15.2 16.5
8 -6 0 19.7 13.7
-8 6 0 15.9 7.4
6 2 0 29.8 9.6
-2 8 0 26.3 12.4
8 -2 0 26.5 9.2
-6 -2 0 15.6 5.7
2 6 0 28.2 7.8
8 -2 0 14.3 18.8
-8 2 0 25.5 7
2 6 0 30.5 11.5
-2 8 0 18.9 6.7
-8 6 0 15.7 8.1
-6 8 0 18.9 7.2
-8 7 0 343.57 26.6
8 -1 0 341.57 26.7
-1 8 0 329.47 29
-7 8 0 325.37 27
-7 8 0 330.87 25.8
7 1 0 351.06 26.6
-8 7 0 354.06 26.3
8 -7 0 294.67 28.8
-1 8 0 291.77 25.2
-8 7 0 278.37 25.9
7 1 0 357.46 39.8
1 7 0 326.37 28.8
-8 1 0 328.17 25.6
1 7 0 320.17 29.1
-7 -1 0 321.77 26.2
1 7 0 313.17 25.8
-8 1 0 304.67 25.8
8 -1 0 347.67 37.1
0 8 0 2075.39 136.89
-8 8 0 1981.9 134.49
-8 0 0 1937.21 134.49
8 0 0 2122.79 143.19
8 0 0 1902.11 135.09
-8 0 0 1724.73 134.49
0 8 0 1848.02 134.29
-8 8 0 1752.52 134.69
-4 9 0 6.5 8.2
9 -5 0 11 19.5
-9 4 0 -0.6 7.2
-4 9 0 4 9.2
5 4 0 10.2 17.2
9 -4 0 10 7.8
5 4 0 0.9 10
-5 9 0 2.4 11
-5 9 0 28.6 9.8
4 5 0 -4.6 11.1
-5 -4 0 8.5 5.1
5 4 0 8.2 8.3
-9 5 0 7.2 7.5
-9 5 0 5.5 7.9
-4 9 0 13.8 11.3
-9 4 0 4.7 7.4
4 5 0 14.2 17
4 5 0 2.7 7.1
-5 9 0 0.4 7.5
9 -4 0 17.3 20.8
-6 9 0 201.68 18.7
-3 9 0 177.88 19.7
3 6 0 169.58 22.4
9 -6 0 195.48 27.8
-6 9 0 188.38 21.1
3 6 0 175.58 17.4
-3 9 0 175.38 17.9
-9 3 0 161.38 17.1
3 6 0 190.58 25.9
-9 6 0 185.98 18.2
-6 9 0 192.08 19.1
6 3 0 172.48 31.3
-6 -3 0 199.78 18
-3 9 0 179.88 22.4
9 -3 0 177.98 17.8
9 -3 0 202.48 33.2
-9 6 0 170.08 18
6 3 0 204.88 19.5
9 -7 0 30.4 13.4
2 7 0 27.3 13.1
-7 9 0 29.8 11.6
-7 9 0 26.1 9
9 -2 0 16.9 24.8
-7 9 0 27.7 8.7
-2 9 0 28.9 7.9
-9 7 0 29.3 9
2 7 0 33.7 14.6
-9 2 0 31.2 8.3
-9 2 0 19.9 7.5
-2 9 0 29.6 13.6
7 2 0 20.3 19.8
7 2 0 21 10.2
2 7 0 17.8 8
9 -2 0 26.2 9
-7 -2 0 37.6 8.4
-9 7 0 42.1 9.6
-2 9 0 14.6 9.3
-9 7 0 21.4 9.1
-9 8 0 0.2 7.9
9 -1 0 -14.3 24.1
-8 9 0 2.3 7.8
8 1 0 7.4 20.7
9 -1 0 6.2 8.4
-8 9 0 4.6 9.4
1 8 0 -3.5 8.4
-9 8 0 13.6 8.9
-8 -1 0 23.1 8.2
-9 1 0 8.9 7.4
-1 9 0 7.1 7.3
-8 9 0 -0.5 6.6
1 8 0 2.3 14.5
-9 8 0 2.6 8.4
-8 9 0 2.4 6.9
-1 9 0 8.2 13.8
8 1 0 11.6 9.6
-9 1 0 2.5 8.8
1 8 0 2.7 6.8
-9 9 0 8.8 8.1
-9 9 0 4.5 7.9
9 0 0 2.1 22.8
0 9 0 17.8 7.4
-9 0 0 15.3 8.9
0 9 0 27.2 17
9 0 0 29.5 9.8
-9 9 0 32.5 10.6
-9 0 0 31.4 9
5 5 0 4020 277.67
-5 10 0 3682.33 279.07
10 -5 0 4400.36 285.17
5 5 0 4189.08 283.17
5 5 0 3610.04 278.77
-10 5 0 3832.82 278.07
-5 10 0 4181.18 278.67
-5 10 0 4053.69 277.77
-10 5 0 3907.01 277.57
-4 10 0 358.36 33.6
4 6 0 397.86 39
6 4 0 410.96 42.9
-10 6 0 404.36 31.4
6 4 0 389.06 30.9
10 -6 0 341.17 37.4
-6 -4 0 408.66 31
-10 6 0 410.96 32.3
-6 10 0 375.36 34.1
4 6 0 339.47 33.4
4 6 0 409.66 31.5
-4 10 0 368.86 30.5
-10 4 0 358.36 30.6
-4 10 0 426.16 33.1
-10 4 0 379.96 31.4
-6 10 0 386.86 31.5
6 4 0 344.77 33.1
-6 10 0 425.06 32.7
-3 10 0 69.39 10.6
-7 10 0 62.39 13.3
3 7 0 80.39 18
3 7 0 40.7 13.9
-3 10 0 63.49 15.8
-10 3 0 39.5 10.1
10 -3 0 53.09 10
-7 10 0 61.69 10.7
-10 7 0 54.29 10.3
-3 10 0 77.69 16.1
-10 3 0 84.19 12.3
-7 -3 0 77.79 13
-7 10 0 91.99 15.1
7 3 0 78.49 24.9
10 -3 0 71.59 27.8
3 7 0 48.3 10.1
-10 3 0 58.19 11.2
7 3 0 64.69 13.1
-8 10 0 90.49 13.7
-8 10 0 112.79 15.7
-2 10 0 93.19 18.2
8 2 0 118.29 14.4
-10 8 0 105.59 13.6
-2 10 0 84.19 12.3
10 -2 0 122.69 29.2
2 8 0 128.39 19.8
8 2 0 105.49 26.7
-10 2 0 100.59 14.1
-10 2 0 105.89 14
2 8 0 81.69 12.6
-2 10 0 93.49 16.7
-10 9 0 424.06 39.2
-9 10 0 474.35 39.3
-10 1 0 517.05 40
-1 10 0 474.15 41.1
10 -1 0 563.94 56.69
-10 1 0 530.95 39.9
-9 10 0 513.25 40.2
-9 -1 0 562.34 40.2
9 1 0 533.75 52.79
1 9 0 542.75 44.8
-9 10 0 544.95 40.2
-1 10 0 492.65 43.2
-10 9 0 570.14 41.4
-10 10 0 127.29 14.8
-10 10 0 176.58 16.7
-5 11 0 15.1 10.3
-6 11 0 15.1 7
-11 6 0 22 8.4
6 5 0 11.7 18.5
-6 11 0 9.6 11.1
-11 5 0 1.7 5.3
-11 5 0 33.3 10.5
-5 11 0 10 6.6
-11 5 0 14.7 8.2
11 -5 0 11.6 19.9
-5 -6 0 21.2 7.6
5 6 0 18.4 12.7
6 5 0 7.5 11.9
11 -6 0 4.6 18.8
11 -5 0 -10.2 7.6
6 5 0 10 7
-6 -5 0 31.7 10.3
5 6 0 15.4 7.5
-11 6 0 35.2 10.7
5 6 0 5.8 14.2
-7 11 0 889.91 69.99
7 4 0 1104.99 79.19
-11 7 0 1171.88 70.69
4 7 0 930.41 70.19
7 4 0 1032.4 70.29
7 4 0 857.01 71.19
-4 11 0 831.12 71.89
-8 11 0 282.47 25.6
-11 3 0 220.48 22.5
8 3 0 222.18 33.4
-8 -3 0 251.97 22.9
-11 8 0 273.47 23.3
3 8 0 197.78 25.6
-11 3 0 226.98 21.9
-11 3 0 194.88 21.4
-3 11 0 250.57 25
2 9 0 369.36 35.4
-9 11 0 455.75 33.2
9 2 0 335.47 42.4
-11 0 0 562.44 43.4
-11 11 0 548.65 44
-5 -7 0 158.48 15.9
-9 -3 0 168.88 19.7
-9 12 0 184.68 21.6
-3 12 0 169.08 22.7
-12 9 0 190.58 20.2
-12 3 0 136.29 18.6
-10 12 0 56.49 13.7
-12 10 0 77.39 15.4
-10 -2 0 60.09 12.3
-2 12 0 43 15.6
-10 12 0 38.3 13
-12 2 0 43.6 11.5
-11 12 0 93.29 18.8
-12 11 0 144.49 18.6
-11 12 0 124.69 20.2
-1 12 0 75.89 16.3
-12 1 0 99.69 17
-11 -1 0 120.39 18.9
-12 12 0 386.16 32
-6 13 0 1388.16 95.19
-7 13 0 1324.77 94.69
-7 -6 0 1388.26 94.69
-6 -7 0 1076.69 93.09
-13 7 0 1283.67 93.89
-13 6 0 1305.27 94.09
-13 5 0 2582.94 207.68
-13 5 0 3066.39 209.38
-5 13 0 3098.59 209.68
-8 13 0 2987.3 209.28
-8 -5 0 3130.79 209.08
-13 8 0 2933.31 208.88
-9 -4 0 193.78 24.3
-9 13 0 245.88 25
-13 4 0 167.78 24.1
-4 13 0 214.18 25.8
-13 9 0 239.38 23
-13 4 0 172.28 21.1
-13 10 0 1131.59 81.49
-10 -3 0 1131.19 81.09
-13 3 0 1049.79 80.69
-3 13 0 1123.89 82.39
-10 13 0 1082.69 81.59
-13 11 0 335.67 29.6
-13 2 0 264.87 27.3
-11 -2 0 280.07 26.8
-2 13 0 235.18 28.7
-11 13 0 302.57 28.7
-11 13 0 237.68 27.6
-1 13 0 78.69 17.8
-12 -1 0 125.09 18.4
-13 1 0 121.69 18.5
-12 13 0 82.59 18.1
-12 13 0 130.89 21.8
-13 13 0 2324.07 173.88
-13 0 0 2568.14 173.48
-7 14 0 394.46 36.1
-7 -7 0 337.07 33.9
-14 7 0 392.36 33.8
-14 8 0 808.42 64.39
-6 14 0 852.21 66.09
-8 14 0 876.11 66.79
-14 6 0 849.52 65.39
-8 -6 0 870.21 64.89
-14 5 0 136.79 21.8
-9 14 0 200.78 27.7
-9 -5 0 142.49 21.6
-14 9 0 146.79 21.1
-5 14 0 177.88 25.2
-10 -4 0 1313.47 87.19
-14 4 0 1016.5 84.99
-10 14 0 1164.48 86.99
-4 14 0 1209.48 87.59
-14 10 0 1158.88 86.39
-3 14 0 40 17.9
-11 14 0 37.7 15.5
-11 -3 0 29 12.8
-14 3 0 17.3 11.6
-14 11 0 45.6 14.5
-12 14 0 224.58 28
-2 14 0 263.07 32
-12 14 0 243.28 29.5
-14 2 0 277.17 26.8
-12 -2 0 295.07 27.4
-13 14 0 -4.5 12.8
-14 1 0 12 13.4
-13 14 0 26.9 15.7
-14 13 0 35.3 15
-13 -1 0 0.3 12
-14 0 0 63.69 16.3
-14 14 0 99.99 21.1
-7 15 0 652.73 51.99
-8 15 0 647.44 51.79
-8 -7 0 549.65 50.29
-15 7 0 607.74 49.99
-15 8 0 635.94 51.19
-9 -6 0 1650.63 112.49
-9 15 0 1545.25 112.99
-15 9 0 1541.15 112.19
-15 6 0 1613.84 113.09
-6 15 0 1572.54 113.39
-15 6 0 1339.87 110.59
-10 15 0 233.28 28.7
-5 15 0 228.68 32.4
-10 -5 0 182.18 25.5
-15 10 0 206.38 27.3
-15 4 0 193.18 26.9
-11 -4 0 229.28 29
-4 15 0 244.78 33.2
-11 15 0 263.57 31.7
-15 11 0 243.28 27.4
-15 3 0 19.8 13.7
-12 -3 0 3.7 13.2
-15 12 0 47.7 15.6
-12 15 0 21.2 16.4
-3 15 0 17.4 16.8
-15 2 0 364.46 33.4
-13 -2 0 370.36 32.5
-13 15 0 282.17 34.5
-2 15 0 294.97 34.3
15 -1 0 45.2 8.2
-1 -14 0 64.99 12.9
-14 -1 0 83.19 16.2
-14 15 0 84.19 18
0 -15 0 11.7 7.2
-15 15 0 43.5 18.3
-15 0 0 9.9 15.2
15 0 0 15.2 8.2
15 -15 0 6 6.8
-8 16 0 1249.68 89.49
-16 8 0 1293.67 89.19
-8 -8 0 997.1 86.99
-7 16 0 258.27 34.6
-9 16 0 279.57 35
-16 9 0 226.68 28.2
-16 7 0 223.28 30.9
-16 6 0 26.1 12.6
-6 16 0 69.99 19.8
-10 -6 0 25.8 15.6
-16 6 0 29.2 15.2
-16 11 0 119.49 17.2
16 -5 0 129.99 12.9
-16 12 0 38.8 16.4
16 -4 0 4.4 6
-4 16 0 36.8 19.6
-16 4 0 1.8 13.4
16 -12 0 -1.7 5.6
-12 16 0 29.5 19.1
-12 -4 0 10.9 16.1
-4 -12 0 9.5 6.7
16 -3 0 188.28 19.5
-3 -13 0 215.68 23.2
16 -13 0 156.28 18.2
-16 3 0 183.48 25.1
-13 -3 0 216.98 25.6
3 13 0 162.18 22.8
-13 16 0 198.98 30
2 -16 0 126.69 14.3
-14 16 0 87.19 20
-16 14 0 90.99 17.2
14 -16 0 99.79 13.5
1 -16 0 186.48 23.3
-1 -15 0 145.69 28.5
16 -15 0 123.29 20.2
-16 1 0 153.88 26.7
-15 -1 0 146.09 26.3
16 -1 0 143.29 20.8
-16 15 0 182.78 29.3
15 -16 0 134.99 19.4
15 1 0 148.89 19.6
-16 0 0 241.88 31.7
0 -16 0 280.57 32
16 0 0 257.97 27.3
16 -16 0 254.37 26.2
-8 17 0 67.69 14.4
-17 8 0 80.69 20.2
17 -8 0 57.99 12.1
17 -9 0 57.59 11.5
-17 9 0 91.19 20.2
-9 17 0 57.89 13.4
-9 -8 0 27.7 13.6
-17 10 0 46.9 18.6
-17 7 0 4.8 6.2
-7 17 0 59.69 21.3
17 -7 0 13.8 10.2
-10 -7 0 14.5 15.4
-7 -10 0 4.6 7.5
-7 17 0 17.1 12.2
17 -10 0 2.7 9.7
-17 7 0 37.5 18.1
-17 10 0 25.4 14.4
-10 17 0 24.5 11.9
-11 -6 0 342.87 38.2
-6 17 0 430.16 43.6
-11 17 0 408.86 43.3
-17 11 0 386.86 40
-6 -11 0 348.27 34.7
17 -11 0 351.16 32.4
17 -6 0 364.16 32.6
-17 11 0 427.66 40.1
-17 12 0 657.23 55.59
17 -12 0 715.53 51.19
-5 17 0 678.63 57.39
-5 -12 0 703.43 54.29
-17 12 0 644.14 55.39
5 12 0 566.94 52.19
-12 17 0 692.23 57.59
-12 -5 0 686.83 55.69
17 -5 0 688.23 51.09
-4 -13 0 56.19 12.9
-13 17 0 93.69 21.2
17 -13 0 44.8 12.4
-13 -4 0 80.09 18.8
13 -17 0 48.2 9.2
17 -4 0 61.39 12.4
-17 4 0 57.19 17.2
17 -14 0 13.9 12.2
-14 17 0 -6.6 15.2
3 14 0 36.6 15
-17 14 0 54.89 18.7
-3 -14 0 13 6
-14 -3 0 27.5 16.2
17 -3 0 32.3 11.4
14 -17 0 11.2 10
14 3 0 22.9 9.4
3 -17 0 21.6 7.3
-17 3 0 12.8 15.1
-3 -14 0 23.5 12.4
-17 15 0 557.14 51.59
15 -17 0 544.35 44.5
-15 -2 0 521.25 48.9
17 -2 0 563.04 45.2
15 2 0 567.44 43.9
-2 -15 0 635.64 49.99
2 15 0 591.24 47.4
17 -15 0 528.15 44.6
-17 15 0 522.65 50.59
-17 2 0 481.85 48.5
2 -17 0 650.13 47.4
17 -16 0 15 11.8
-16 -1 0 -6.5 16.3
-17 1 0 10.2 16.6
1 -17 0 3.1 8
-17 16 0 -7.8 13.6
-1 -16 0 13.5 12.1
1 16 0 29.7 14.9
17 -1 0 15.4 12.2
16 1 0 19.9 12
-1 -16 0 11.8 8.7
16 -17 0 2.2 11.7
1 -17 0 5.3 11.5
0 17 0 705.53 55.79
0 -17 0 769.42 56.59
0 -17 0 596.04 50.89
17 -17 0 675.83 52.39
17 0 0 679.63 52.19
-9 18 0 338.67 34.5
-9 18 0 370.16 39.9
18 -9 0 305.27 32.2
-18 9 0 306.77 36.8
-9 -9 0 286.17 32.6
-8 -10 0 519.05 44.2
18 -10 0 571.34 42.9
-18 10 0 480.25 48.5
-8 18 0 476.35 44.9
18 -8 0 556.44 43.2
-18 8 0 453.55 47.3
-18 10 0 501.95 46.1
-10 18 0 468.45 44.6
-10 18 0 601.94 52.59
-10 -8 0 472.35 42.4
-8 18 0 601.24 52.29
-7 -11 0 43.7 12.2
18 -11 0 71.09 14.9
-11 -7 0 36.6 15
7 11 0 28.3 14.7
18 -7 0 69.99 14.4
-18 11 0 69.29 19.1
18 -6 0 10.2 13.1
-18 12 0 49.6 18.6
-12 18 0 65.49 22.9
-6 18 0 33 14.8
-12 18 0 39.1 14.4
-6 18 0 54.09 23.1
18 -12 0 8.2 13.4
-12 -6 0 6.6 17
-13 18 0 66.69 22.2
5 -18 0 16 5.2
18 -13 0 44.6 13.8
-13 -5 0 30.6 18.1
5 13 0 42.2 15.4
-18 13 0 67.19 19.5
-13 18 0 32.2 14.2
18 -5 0 31.1 12.4
-5 18 0 15.5 13.2
5 -18 0 17.3 6.7
-18 5 0 23 11.3
13 -18 0 30.8 11.3
-5 18 0 58.79 21.8
-5 -13 0 29.8 12
-18 14 0 63.09 19.7
-14 -4 0 52.79 17.3
-14 18 0 12.5 15.9
18 -4 0 71.59 13.7
14 4 0 53.19 11.8
-18 4 0 42.2 15.1
4 14 0 62.59 15.2
4 -18 0 25.7 8
4 -18 0 40.9 9.1
18 -14 0 37.2 13.2
-4 -14 0 64.19 13.6
14 -18 0 45 12.9
18 -15 0 -6.7 12.3
-18 15 0 39.9 19.5
15 -18 0 -0.6 12
3 -18 0 1.5 8.1
3 15 0 16.6 14
3 -18 0 12.2 10.9
15 3 0 21 11.2
18 -3 0 5.3 11.9
-3 -15 0 -5.1 11.4
-18 3 0 7.7 13.4
-3 -15 0 0.9 9.9
-15 -3 0 4.4 16.9
18 -16 0 46 12.7
16 2 0 65.99 13.4
-16 -2 0 49.3 17.9
-2 -16 0 36.2 12.3
16 -18 0 40.1 13.1
-2 -16 0 39.1 11.2
-18 2 0 20.2 14.3
2 16 0 72.09 16.3
2 -18 0 38.1 10.4
18 -2 0 40.2 12
2 -18 0 21.4 12.3
1 -18 0 12.4 10.4
-17 -1 0 14.3 13.6
1 -18 0 21.2 12
-1 18 0 54.09 15.9
17 1 0 17.9 12
18 -17 0 13.9 12.3
-1 -17 0 17.4 10.7
-1 -17 0 18.7 12.5
-18 1 0 5.5 11.5
18 -1 0 21.6 11.6
17 -18 0 22.8 12.7
18 -18 0 113.69 15.1
18 0 0 122.99 21.7
-18 18 0 69.89 18.8
0 -18 0 103.99 18.1
0 -18 0 88.49 14.6
-9 19 0 72.99 23.4
19 -10 0 14.1 14.3
-19 9 0 43.8 18.9
-19 10 0 19.3 18.5
19 -9 0 7.2 12.9
-10 19 0 67.99 23.3
-19 9 0 6.6 16.9
11 -19 0 69.79 12.9
-19 8 0 51.99 17.5
8 11 0 86.99 17.1
19 -8 0 102.09 15.2
-8 -11 0 81.69 13.6
-11 -8 0 85.09 13.9
8 -19 0 97.19 16.4
19 -11 0 144.09 24
-12 19 0 313.17 33.1
-7 19 0 336.37 35.5
-7 -12 0 285.47 32.7
7 -19 0 219.08 24.6
12 -19 0 241.68 28.4
-12 19 0 336.27 41.2
-12 -7 0 251.67 30
-19 12 0 280.97 35.4
19 -12 0 277.57 30.8
7 12 0 229.88 30.9
-7 19 0 325.57 41.4
19 -7 0 278.87 30.5
-6 -13 0 98.89 14.7
19 -13 0 116.29 16
6 13 0 110.89 17.5
-6 19 0 66.49 20
-13 -6 0 70.19 11.9
6 -19 0 81.59 13.8
6 -19 0 94.59 16.7
-13 19 0 161.98 34
13 -19 0 79.89 14.6
19 -5 0 10.9 12.2
19 -14 0 21.3 12.5
14 5 0 29.5 11.3
5 -19 0 9.5 7.8
-19 14 0 35.2 18.5
5 14 0 14.3 13.6
-14 -5 0 9.9 6.5
-5 19 0 23.9 14.9
14 -19 0 15.2 12.6
-14 19 0 38.4 14.5
-14 -5 0 8.2 13.5
5 -19 0 3.5 9.4
-5 -14 0 8.5 11.3
19 -4 0 283.87 28.7
-15 -4 0 217.38 30.1
4 -19 0 306.27 31.5
4 15 0 292.47 32.5
-19 15 0 241.78 33.7
4 -19 0 267.57 26.4
15 4 0 321.77 29.3
-4 -15 0 333.97 34.3
19 -15 0 335.87 30.2
15 -19 0 278.97 29.6
3 -19 0 52.89 11.4
3 -19 0 50.29 12.4
-3 -16 0 56.49 12.7
19 -16 0 73.19 13.6
16 3 0 62.59 13.2
-16 -3 0 26.5 12
16 -19 0 54.29 13.4
19 -3 0 86.89 13.3
2 17 0 40.5 14.3
2 -19 0 20.9 10.4
-2 -17 0 23.5 11.6
17 2 0 31.7 11.7
19 -2 0 22.5 11.2
19 -17 0 27.1 11.9
17 -19 0 36.1 12.6
2 -19 0 23.8 11.6
-1 -18 0 428.46 39.2
1 -19 0 345.07 32.6
18 -19 0 404.26 35
1 18 0 444.86 38.5
18 1 0 400.06 34.6
1 -19 0 423.66 38.3
19 -18 0 397.96 34.3
19 -1 0 374.26 33.9
-1 -18 0 345.07 32.9
-19 18 0 398.86 42.2
-1 19 0 463.45 38.5
0 19 0 37 13.9
19 0 0 16.9 10.7
0 -19 0 14.1 8.1
0 -19 0 4.6 10.4
19 -19 0 15.4 11.3
-10 -10 0 708.63 52.69
20 -10 0 691.73 51.19
-10 20 0 617.24 58.89
-20 10 0 627.54 56.69
-10 20 0 607.64 52.79
10 10 0 578.54 52.19
10 -20 0 637.04 49.8
11 9 0 173.28 26.8
-11 20 0 298.77 39.4
20 -9 0 247.58 27.6
9 11 0 189.88 31.2
11 -20 0 238.08 26.5
-20 9 0 209.38 35
-11 -9 0 256.57 31.3
20 -11 0 258.07 29
-9 -11 0 254.77 30.6
9 -20 0 230.88 25.5
-9 20 0 286.67 38.5
8 -20 0 17.5 11.4
-8 -12 0 11.7 11.1
-20 12 0 17 17.7
20 -12 0 25 13.8
-20 8 0 -5.9 15.3
-8 20 0 22.4 18
12 -20 0 7 12.1
8 12 0 1.7 14.1
-12 -8 0 11.1 11.2
20 -8 0 27.1 13.2
-12 20 0 37.8 21.3
7 -20 0 15.8 10.7
-7 -13 0 12.1 10.5
7 -20 0 11.6 4.5
-13 20 0 -7.3 13.7
7 13 0 15.3 14.1
20 -13 0 28.8 13.2
13 -20 0 20.8 12.3
-13 -7 0 19.5 10.7
20 -7 0 32.3 12.8
-20 13 0 24.8 16.7
20 -6 0 36.2 13.1
14 -20 0 37.9 12.7
20 -14 0 14.3 12.7
6 -20 0 38.7 11.1
6 -20 0 27.6 7.6
-20 14 0 2.2 15.9
-6 -14 0 22.7 10.6
-14 -6 0 14.1 9.3
6 14 0 40 14.7
14 6 0 48.3 12.1
-5 -15 0 127.39 25
-15 -5 0 95.49 17.1
-5 20 0 126.19 27.6
20 -15 0 147.09 23.5
15 -20 0 169.88 22.7
-5 -15 0 116.09 23.9
15 5 0 173.68 22.7
5 15 0 160.38 25.9
5 -20 0 154.98 22.9
5 -20 0 125.59 19.5
-15 20 0 128.79 27.1
20 -5 0 126.99 22.7
16 -20 0 -5.6 11.6
20 -16 0 5.7 11.8
4 -20 0 10.9 10.3
-4 -16 0 -5.5 9.9
16 4 0 6 12
4 16 0 14.4 13.2
4 -20 0 -1.7 9.7
-16 20 0 -6.9 11.4
-16 -4 0 -1.6 3.1
-4 20 0 17.4 12.4
20 -4 0 2.9 11.1
17 -20 0 96.99 14.1
-3 -17 0 94.79 13.5
3 -20 0 69.79 12.4
3 17 0 112.29 23.7
20 -17 0 101.49 14.2
20 -3 0 86.09 13.5
3 -20 0 64.59 11.7
17 3 0 77.79 13.5
-3 20 0 125.49 22.4
-2 -18 0 1.3 9.6
20 -18 0 -0.5 10.9
18 -20 0 10.2 11
18 2 0 6.4 11.1
2 -20 0 -1.9 10.1
2 -20 0 2.1 7.3
20 -2 0 4.8 10.3
-2 20 0 27.2 13.9
2 18 0 16.8 13
19 1 0 286.97 27.6
1 -20 0 309.87 31.3
19 -20 0 275.57 28.1
-1 20 0 333.27 30.8
1 19 0 319.97 32.1
20 -1 0 264.07 27.7
-1 -19 0 294.27 31.5
20 -19 0 285.57 28.2
20 -20 0 261.07 25.1
20 0 0 232.38 25.6
0 -20 0 258.37 27
0 20 0 291.77 28.4
-21 10 0 38.2 18.7
11 10 0 -4.8 13.9
11 -21 0 8.5 11.5
-11 -10 0 0 10.8
21 -10 0 -1.3 12.5
10 -21 0 -3.9 11.1
-11 21 0 -14.4 11.4
21 -11 0 -11 12.3
-10 -11 0 -2.4 10.8
10 11 0 -10.8 13.9
9 -21 0 10.3 10.9
12 -21 0 4.4 11.8
-21 9 0 2.7 15.1
21 -12 0 1.6 12.5
21 -9 0 1.6 12.3
-13 -8 0 9.1 10.5
21 -13 0 22.5 12.5
8 13 0 23.7 15.1
8 -21 0 12.2 10.7
-8 -13 0 29.1 10.8
21 -8 0 19.5 11.5
13 -21 0 27.5 12.2
21 -14 0 273.97 28.4
14 7 0 273.87 26.8
-7 -14 0 248.88 29.2
7 -21 0 222.68 25.3
7 14 0 258.57 30
14 -21 0 235.38 26.8
-14 21 0 319.47 33.7
-14 -7 0 215.58 28.9
21 -7 0 265.97 27.2
-7 21 0 291.47 33.1
21 -6 0 7.1 11.5
6 15 0 7.1 13
15 6 0 4.2 11.1
-15 21 0 33.3 14.7
-6 21 0 32.6 14.1
15 -21 0 7.2 11.2
21 -15 0 15.7 11.9
5 -21 0 137.19 17.9
16 5 0 211.18 23.2
21 -16 0 186.38 22.1
-5 21 0 115.79 19.6
-16 21 0 116.79 25.1
5 16 0 182.88 24.9
-5 -16 0 145.19 23
5 -21 0 166.38 21.4
21 -5 0 175.08 22.7
16 -21 0 203.38 22.1
-5 -16 0 172.08 24.2
-4 -17 0 33.9 9.6
17 4 0 41.4 11.5
-4 21 0 34.3 11.6
-4 -17 0 21.4 13
4 17 0 51.09 13.3
21 -4 0 28.4 11.7
4 -21 0 15.9 7.6
17 -21 0 36.9 11.1
4 -21 0 15.8 8.6
21 -17 0 36.4 11.4
18 3 0 185.08 21.6
3 18 0 190.08 23.8
18 -21 0 182.68 21.2
21 -3 0 154.08 21.1
3 -21 0 140.59 22.4
-3 21 0 158.98 22.6
21 -18 0 191.88 22
-3 -18 0 157.38 25.4
-3 -18 0 173.28 24.4
-2 -19 0 100.69 21.3
21 -2 0 98.89 13.5
21 -19 0 107.09 18.2
-2 -19 0 100.49 22
19 -21 0 99.39 18.3
-21 19 0 119.29 24.6
19 2 0 94.79 13.1
-2 21 0 134.49 22.5
21 -20 0 7.6 9.3
21 -1 0 11.4 9.5
1 -21 0 5.4 7.9
20 1 0 4.3 9.2
-1 -20 0 2.2 7.8
-1 21 0 17.1 11.7
-1 -20 0 0 11.1
1 20 0 20.1 11.6
20 -21 0 5 9.1
0 -21 0 244.48 23.3
0 -21 0 227.68 25
21 0 0 243.78 23.2
0 21 0 280.67 25.2
21 -21 0 228.48 21.1
22 -11 0 255.77 26.7
11 11 0 206.98 28.5
-22 11 0 268.07 34.9
-11 -11 0 252.27 29.5
11 -22 0 237.98 24.7
-11 22 0 280.17 31.8
22 -12 0 13.8 11.2
12 -22 0 10.7 10.2
-22 10 0 10.5 14.1
22 -10 0 10.6 11.3
-13 -9 0 48.5 10.8
-9 -13 0 33.3 10.7
22 -9 0 71.09 12.6
9 13 0 29 13.6
13 -22 0 47.1 11.3
9 -22 0 41.8 10
22 -13 0 69.59 12.4
14 -22 0 5.7 10.6
7 -22 0 10.7 7.1
7 15 0 32.3 13.3
15 7 0 15.6 10.7
15 -22 0 22 10.4
-7 -15 0 17.8 9.1
-15 22 0 50.09 14
22 -7 0 29.5 10.5
-15 -7 0 12.8 7.2
22 -15 0 36.2 11.4
-7 22 0 51.29 14
22 -16 0 81.09 12.1
16 6 0 79.89 12.5
-16 22 0 49.1 12.6
16 -22 0 66.29 11.3
22 -6 0 81.89 11.9
-6 -16 0 52.59 10.2
-6 22 0 37.3 13.1
22 -5 0 0.4 9.9
17 5 0 5.7 10.2
5 -22 0 1.8 3.7
17 -22 0 2.9 9.3
5 -22 0 4.7 4.6
-5 -17 0 5.6 8.3
-5 -17 0 -5.1 6.8
22 -17 0 8.5 10
5 17 0 11.4 11.8
-4 -18 0 18.8 9.7
18 4 0 43.3 10.4
18 -22 0 34.1 9.2
4 18 0 56.29 12.8
22 -18 0 43.3 10.3
22 -4 0 35 10.2
-4 -18 0 28.8 9
-22 18 0 57.09 16.5
-3 -19 0 1.4 7.5
-3 -19 0 -5.3 9
19 3 0 -8.3 8.5
-22 19 0 12.5 13.8
22 -3 0 -5.1 8.9
22 -19 0 1.6 9
3 -22 0 0.1 4.9
3 19 0 12.1 11.4
-3 22 0 -5.3 7.6
19 -22 0 -0.8 7.2
2 -22 0 83.99 12
-2 -20 0 113.79 17.5
-2 22 0 91.49 15.2
22 -20 0 113.89 14.4
22 -2 0 108.39 15.9
20 2 0 101.69 15.7
20 -22 0 69.39 11
-2 -20 0 88.09 16.3
21 1 0 108.49 13.5
22 -1 0 113.99 14.9
1 21 0 127.29 17.6
1 -22 0 105.49 18
-1 -21 0 96.79 13.8
-1 -21 0 82.19 14.1
-12 -11 0 69.29 10.8
11 12 0 55.39 13
11 -23 0 47.2 8.2
23 -12 0 87.79 11.9
-23 12 0 110.29 27.3
-23 11 0 76.69 16
23 -11 0 100.59 17
-11 -12 0 69.09 10.3
12 -23 0 54.59 8.7
12 11 0 41.7 10.2
23 -13 0 15.2 10.2
-10 -13 0 3.8 8.4
23 -10 0 12.5 9.8
-23 13 0 38.7 15.9
-13 -10 0 4.9 8.2
10 13 0 -2 11.8
-10 23 0 34.8 12.4
13 10 0 9.8 7.4
10 -23 0 2.8 5.1
13 -23 0 9.4 6.9
-14 23 0 38.4 12.6
14 -23 0 1.4 6.8
-14 -9 0 2.1 7.6
9 14 0 -0.1 11.4
-9 23 0 32.1 12.5
23 -14 0 13.4 9.9
23 -9 0 1.7 9.7
-23 14 0 38.8 15.9
-9 -14 0 0.5 8.2
14 9 0 3.3 8
15 8 0 16.5 8.3
-8 23 0 38.3 12.3
23 -15 0 19.5 9.8
-15 23 0 29.3 12.3
23 -8 0 18.1 9.8
-8 -15 0 11.5 8.4
15 -23 0 3.1 6.9
8 15 0 17.3 11
23 -16 0 41.4 10
-7 23 0 14.7 10.8
-7 -16 0 19.1 8.2
7 16 0 35.9 11.4
16 7 0 23.9 8.7
16 -23 0 20.4 7
-16 23 0 27.2 12
23 -7 0 31.6 10
23 -17 0 1.7 8.9
17 6 0 3.9 8.5
-6 -17 0 -2.8 7.3
6 17 0 10 10.1
23 -6 0 -3.1 8.9
17 -23 0 -1.3 5.1
23 -5 0 40 9.5
-5 -18 0 28.4 8.2
18 5 0 32 8.8
5 18 0 52.69 11.4
23 -18 0 51.09 9.6
-4 -19 0 7.2 6.9
23 -19 0 16.1 7.5
-23 19 0 6.5 11.7
19 4 0 14.3 6.9
23 -4 0 22.7 8.3
3 -23 0 77.69 16.6
20 3 0 43 8.1
23 -3 0 71.79 12
-24 12 0 0.8 12.3
24 -12 0 11.7 8.3
-12 -12 0 3.6 7.1
11 13 0 -3.3 6.9
-13 -11 0 1.1 6.3
-11 -13 0 4.7 6.9
13 11 0 0.7 3.6
24 -13 0 11.6 8.5
-13 24 0 23.5 11.2
-24 13 0 11.1 13.4
24 -11 0 7.6 8.5
-10 -14 0 -0.6 6.8
-10 24 0 18.3 10.7
24 -10 0 0.8 8.3
14 10 0 -2.5 4.2
24 -14 0 5.2 8.4
-14 -10 0 -4.7 4.1
-24 14 0 12.2 13.4
10 14 0 -2.8 8.8
-24 15 0 24.3 13.8
15 9 0 -1.1 4.2
24 -15 0 7.3 8.3
9 15 0 -5.6 9
-15 24 0 20.9 10.9
-9 -15 0 0.4 6.6
24 -9 0 8.9 8.2
-9 24 0 17 10.1
-16 24 0 -1.6 9.7
16 8 0 -4.5 3.8
8 16 0 8.1 9.2
-8 -16 0 1.9 6.7
24 -8 0 -1 7.9
24 -16 0 4.8 7.9
-24 16 0 19.3 13.1
-7 -17 0 4 6.5
24 -17 0 4 7.5
-24 17 0 21.9 13.4
7 17 0 5.3 9.4
17 7 0 -5.4 3.3
24 -7 0 -5 7.6
24 -6 0 23.8 7.9
-24 18 0 42.3 13
6 18 0 33.2 9.6
-6 -18 0 27.5 6.8
24 -18 0 40.7 6.8
25 -13 0 20.3 7.2
25 -12 0 7.9 6.9
-13 25 0 14.6 9.6
-12 25 0 20.2 9.5
-11 -14 0 66.79 9.6
-14 25 0 81.39 16.9
25 -14 0 99.29 11.9
-25 14 0 56.19 12.5
-11 25 0 80.69 16.3
25 -11 0 96.49 12.5
-15 25 0 3.4 8.4
0 0 -1 2.4 2.2
0 0 -1 2.9 1.4
0 0 -1 2 0.6
0 0 1 0.6 1.3
0 0 1 0.6 2.2
0 0 1 1.5 0.6
-1 1 -1 31.8 2.7
1 0 1 32.4 3.6
1 -1 1 35 2.8
1 0 1 28.5 4
-1 1 1 32.8 3
-1 0 1 32.8 2.8
0 -1 1 35.7 4.6
-1 1 -1 32.3 3.7
-1 1 1 32.9 2.5
0 1 1 27 2.9
1 -1 1 29.2 4.6
0 -1 -1 29 3
-1 0 1 32.5 4.9
0 1 -1 32.5 2.6
0 1 -1 33.5 4.1
-1 0 -1 30.4 4.4
0 1 1 29.2 3
-1 0 1 31.4 3.2
0 -1 -1 32 3.1
0 -1 1 24.4 3.6
1 -1 -1 26.1 3
1 0 -1 40 4.9
0 -1 1 31.4 2.5
1 0 -1 30.3 3.1
-1 1 1 27.1 4
0 1 -1 30.9 4.4
1 -1 -1 29.2 3.9
-1 0 -1 30.6 2.9
1 -1 1 22.9 3.9
0 1 1 29.9 3.5
1 0 -1 33.8 2.8
-1 2 -1 1743.33 111.29
-2 1 1 1600.34 110.59
1 1 1 1675.63 110.79
-1 2 -1 1572.14 110.49
-2 1 -1 1341.37 110.99
-1 2 1 1699.53 110.59
2 -1 1 1399.26 111.09
-1 2 1 1582.54 110.69
1 1 1 1640.24 111.29
2 -1 1 1371.76 110.49
2 -1 -1 1620.64 110.39
1 1 -1 1738.53 111.69
1 -2 1 1415.66 110.99
-1 2 1 1725.83 110.69
-1 2 -1 1630.64 111.09
1 1 -1 1691.63 110.89
2 -1 -1 1713.93 111.49
1 -2 1 1548.15 111.09
2 -1 1 1461.55 110.99
-1 -1 -1 1467.45 110.69
-2 1 1 1651.63 111.39
-2 1 -1 1607.24 110.59
-1 -1 -1 1509.15 111.29
-1 -1 1 1777.82 111.89
2 -1 -1 1473.55 110.59
-2 1 -1 1767.92 110.99
1 -2 1 1500.95 110.49
1 -2 -1 1530.45 110.59
2 -1 -1 1811.42 110.49
0 2 -1 71.49 5.1
0 2 1 60.19 5.7
-2 0 -1 59.89 5.6
2 -2 -1 54.49 5.3
-2 2 1 65.29 6.6
-2 0 -1 58.09 8.1
2 0 -1 59.59 5.5
0 -2 -1 53.39 5.5
-2 0 1 61.29 5.4
2 -2 1 60.39 6.4
0 -2 1 64.89 6.6
0 2 1 54.79 6.4
-2 2 -1 64.59 6.7
2 -2 1 57.19 5.2
2 0 -1 48.7 5.2
-2 0 1 65.99 8
2 0 -1 74.89 8.7
2 0 1 49.4 5.2
2 0 1 76.69 7.6
2 -2 -1 66.39 6.4
0 2 -1 64.99 6.6
0 2 1 58.29 6
2 -2 1 63.59 6.4
0 -2 -1 54.29 6.3
0 -2 1 66.19 7.3
-2 2 1 53.79 5.4
-2 2 1 56.29 5.2
-2 2 -1 60.39 5.2
-1 3 -1 1300.67 87.09
1 2 1 1309.87 87.39
-3 2 -1 1311.37 87.09
-3 2 -1 1360.56 87.69
1 2 1 1206.68 87.09
-1 3 -1 1342.97 87.89
3 -1 1 1298.17 88.49
-3 1 1 1224.28 87.09
2 1 -1 1320.47 87.49
2 1 -1 1212.38 88.69
-1 3 -1 1175.88 87.79
-2 3 1 1301.17 87.29
1 2 1 1236.08 88.29
-2 3 1 1055.69 86.69
3 -2 -1 1183.68 88.09
-2 3 1 1201.28 87.19
2 1 1 1240.88 90.69
3 -1 -1 1280.77 89.09
1 2 -1 1299.77 89.19
-1 3 1 1279.67 89.39
-3 1 -1 1291.17 89.29
2 -3 -1 1147.59 89.29
-3 2 1 1425.46 89.19
-2 -1 1 1372.36 89.19
-1 3 1 1143.79 89.19
-1 3 1 1272.57 89.59
-2 3 -1 1265.77 89.89
2 -3 -1 1289.67 88.89
2 1 1 1333.77 89.49
3 -2 1 1313.97 90.09
1 2 -1 1304.87 89.79
-3 2 1 1310.97 89.29
-2 3 -1 1252.57 89.19
3 -1 -1 1205.88 90.79
1 2 -1 1353.06 90.59
3 -3 -1 78.19 8.1
-3 0 -1 100.59 8
0 -3 -1 91.29 9.5
-3 3 1 89.69 8.1
0 3 -1 104.29 10.9
0 3 1 97.99 8
3 0 -1 97.09 8.2
3 -3 1 100.69 9.1
3 0 1 82.49 11.9
0 3 1 100.79 8.9
-3 3 1 89.69 8.3
0 3 -1 94.79 7.7
3 0 -1 84.59 12
-3 3 -1 95.39 8.9
0 3 -1 91.39 9.7
-3 0 1 94.79 8
3 0 1 88.49 8.4
-3 3 -1 92.89 7.8
-3 3 1 85.19 8.8
0 3 1 67.29 9.9
2 -4 1 536.05 42.2
4 -2 -1 649.34 41.9
3 1 -1 270.97 25.7
1 -4 -1 269.27 22
1 3 1 301.97 22.3
-1 4 -1 310.27 23.5
-3 4 1 306.37 22.3
-3 4 1 281.07 21.3
4 -3 -1 299.47 24.5
-4 3 -1 321.37 22.9
3 1 -1 327.77 22.7
-1 4 -1 295.47 23.6
4 -1 1 287.97 25.4
-3 4 1 322.67 22.8
1 3 1 264.97 24.1
-4 3 -1 306.67 22.2
-1 4 -1 318.67 22.2
-4 1 1 321.47 22.2
3 -4 1 341.57 22.9
1 3 1 319.57 23
3 1 1 284.37 26.9
-3 -1 1 362.76 23.8
3 1 1 323.57 24
-1 4 1 345.47 24.8
1 3 -1 352.36 26.4
4 -1 -1 283.37 27.1
1 3 -1 333.07 25
3 -4 -1 345.47 23
-1 4 1 300.17 23.8
1 3 -1 323.47 23.5
-1 4 1 324.97 23.8
-3 4 -1 316.67 24.6
-4 3 1 307.07 23.6
-4 1 -1 309.67 23.6
4 -3 1 341.37 25.5
4 -1 -1 332.77 23.6
-3 4 -1 319.37 23.6
-4 3 1 347.97 23.7
4 -4 -1 789.72 51.39
-4 0 1 748.23 50.49
-4 4 -1 754.42 50.49
0 4 1 774.42 51.29
4 0 1 749.33 50.79
-4 4 1 701.73 50.39
0 4 -1 683.23 51.49
0 4 -1 687.83 50.19
4 0 1 651.73 53.39
4 0 -1 606.14 53.69
-4 4 1 734.73 50.49
0 4 -1 740.93 51.89
-4 4 -1 676.03 50.89
4 -4 1 723.03 51.29
0 4 1 665.13 51.19
4 0 -1 742.33 50.59
0 4 1 707.53 50.49
-4 0 -1 699.33 50.39
-2 5 -1 495.95 38.8
-5 3 -1 550.64 37.7
-3 5 1 554.64 37.7
-2 5 -1 491.65 37.3
-5 2 1 504.05 37.5
2 3 1 515.35 38.1
-2 5 -1 541.35 38.4
5 -2 1 546.55 40.9
3 2 -1 537.75 38.2
2 3 1 535.05 37.6
2 3 1 502.95 40.4
3 2 -1 505.25 41.6
-5 3 -1 570.94 38.2
-3 5 1 571.94 38.4
5 -3 -1 428.96 40.7
-2 5 1 681.03 47.5
-5 2 -1 660.23 47.4
3 2 1 671.73 50.99
5 -2 -1 686.93 47.2
2 3 -1 672.93 49.9
-3 5 -1 670.93 48.5
-3 5 -1 688.83 47.4
2 3 -1 626.94 48.2
5 -2 -1 549.65 51.09
2 3 -1 650.53 47.2
5 -3 1 730.23 50.29
3 2 1 669.53 47.8
-5 3 1 671.43 47.4
-2 5 1 714.43 48.4
-4 5 1 465.75 34.5
-1 5 -1 499.35 33.8
5 -4 -1 445.66 36.6
4 -5 1 496.75 34.5
5 -1 1 434.96 37.8
4 1 -1 466.15 34.2
1 4 1 525.45 34.9
-5 4 -1 456.05 33.8
5 -1 1 458.45 34.1
-5 4 -1 484.05 34.7
-1 5 -1 459.85 35.3
-5 1 1 472.25 34
1 4 1 478.75 33.9
-4 5 1 452.45 33.9
-1 5 -1 499.35 35.1
1 4 1 459.55 35.9
4 1 -1 414.46 37.6
4 1 1 416.76 32.6
4 1 1 396.46 36.3
1 4 -1 455.75 33.6
-5 1 -1 444.26 32.4
-5 4 1 441.46 32.2
1 4 -1 416.16 31.9
-1 5 1 483.15 32.7
5 -4 1 463.05 34.3
-4 -1 1 459.05 32.3
-4 5 -1 444.66 32.3
1 4 -1 463.05 34.7
-1 5 1 459.85 32.3
-1 5 1 467.55 33.3
-4 5 -1 413.16 33.1
5 -1 -1 442.86 32.2
-5 4 1 464.75 32.4
5 0 -1 589.44 53.29
5 -5 1 736.83 50.69
0 5 1 690.53 50.39
-5 5 -1 695.63 49.9
0 5 -1 725.23 51.09
0 5 -1 704.03 50.79
5 0 1 733.43 49.9
-5 0 1 681.63 49.2
-5 0 -1 707.33 49.3
-5 5 1 690.73 49.3
0 5 1 671.03 49.2
0 5 1 696.73 50.59
5 -5 -1 752.02 50.69
5 0 -1 685.53 49.4
5 0 1 674.53 53.49
0 5 -1 658.63 49
-5 5 1 683.93 49.3
-5 5 -1 681.73 49.2
-6 3 -1 285.97 22.4
-6 3 1 302.97 22.3
3 3 1 306.47 23.6
3 3 -1 314.57 24
-3 6 1 287.07 23.8
-3 6 -1 290.97 22.1
6 -3 1 288.97 27
3 3 -1 283.07 27
-3 6 -1 297.27 24.1
3 3 1 287.57 22.5
3 3 1 292.37 27.4
-3 6 1 298.67 22.5
4 2 -1 304.47 24
-6 2 1 290.27 22.7
2 4 1 266.87 22.6
-2 6 -1 302.37 22.7
-2 6 -1 291.27 24.7
4 -6 1 338.27 23.2
-4 6 1 297.17 23.6
-6 4 -1 301.37 22.7
-6 4 -1 317.67 23.8
2 4 1 318.77 26.7
-4 6 1 297.87 22.9
2 4 1 287.57 23.9
-2 6 -1 317.27 24.1
6 -2 1 261.97 27.9
4 2 -1 296.77 29.5
2 4 -1 445.46 30.7
-6 4 1 425.66 30.8
-2 6 1 438.06 32.5
2 4 -1 447.76 34.8
6 -4 1 442.56 34.2
2 4 -1 462.95 32.5
-4 6 -1 415.96 32.3
4 2 1 421.86 31.4
4 2 1 398.96 36.3
-4 6 -1 432.96 30.8
6 -2 -1 348.97 37.5
6 -2 -1 374.86 30.7
-6 2 -1 426.36 30.8
-2 6 1 390.06 30.9
-5 6 1 83.69 10.5
6 -1 1 98.09 10.8
1 5 1 85.79 9.8
5 -6 1 98.89 12.1
-6 5 -1 97.29 10.4
5 1 -1 87.49 17.2
-5 6 1 74.69 10.5
6 -1 1 107.29 18.9
5 1 -1 80.69 10.3
-1 6 -1 77.19 12.7
-6 1 1 92.49 9.5
6 -5 -1 87.79 14.2
1 5 1 81.99 12.5
-1 6 -1 96.49 12.4
-6 5 -1 106.09 11.7
1 5 1 101.39 14.7
-1 6 -1 97.59 9.9
-5 -1 1 134.69 11.9
1 5 -1 158.48 16.7
-1 6 1 116.79 14.9
-6 1 -1 131.09 11.9
5 1 1 103.49 19.1
6 -1 -1 110.99 20.7
-5 6 -1 125.29 11.9
-1 6 1 115.29 12
-1 6 1 151.98 13.2
6 -5 1 148.59 17.4
1 5 -1 129.59 15.6
-5 6 -1 137.89 13.9
6 -1 -1 137.39 12.3
-6 5 1 133.19 12.5
-6 5 1 140.99 12.5
1 5 -1 127.09 11.6
5 1 1 123.09 12.6
5 -6 -1 123.69 11.2
0 6 1 162.58 16.1
6 0 1 105.99 20.4
6 0 -1 114.69 12.9
6 -6 1 134.29 16.1
-6 6 -1 133.29 12.7
0 6 1 120.69 11.9
6 0 1 134.39 13.1
0 6 1 123.39 14.9
0 6 -1 128.59 15.5
-6 6 1 139.59 12.7
-6 6 -1 137.09 14
-6 0 -1 110.69 12.2
0 6 -1 127.59 12.1
-6 0 1 119.59 11.9
0 6 -1 159.28 16.3
-6 6 1 123.69 12.4
6 0 -1 101.99 20.8
6 -6 -1 141.29 15.7
4 3 -1 772.22 57.49
3 4 1 687.43 58.99
-3 7 -1 804.22 56.19
-7 3 1 814.42 56.49
7 -3 1 796.02 61.09
4 -7 1 776.72 55.89
3 4 1 823.92 57.29
-4 7 1 834.72 56.59
7 -4 -1 662.23 61.09
3 4 1 853.31 56.49
-7 4 -1 776.92 56.19
-3 7 -1 793.22 57.89
-4 7 1 800.12 57.29
4 3 -1 801.72 61.59
-4 7 -1 1052.99 74.29
4 3 1 1010.6 78.29
-7 4 1 1076.29 74.39
3 4 -1 1068.69 77.79
-7 3 -1 1033.3 74.39
-3 7 1 1068.19 74.49
-4 7 -1 1097.39 76.09
-3 7 1 1012.7 75.49
3 4 -1 1055.99 74.19
3 4 -1 1007.7 75.59
4 3 1 1009.5 74.99
7 -4 1 1184.08 79.19
7 -3 -1 1005.7 74.09
5 -7 1 676.23 45.9
-7 5 -1 654.53 46.4
-2 7 -1 620.94 46.3
7 -2 1 695.03 46.4
2 5 1 629.44 47.1
5 2 -1 609.54 46.7
-5 7 1 595.24 46.7
-7 2 1 628.54 45.6
2 5 1 674.63 49.3
7 -5 -1 602.04 50.89
5 2 -1 549.65 50.79
2 5 1 649.43 45.7
7 -2 1 655.83 52.69
-7 5 -1 648.24 45.8
-5 7 1 676.83 46.2
-2 7 -1 575.34 45.3
-2 7 -1 580.14 47.4
5 2 1 607.64 48
-7 2 -1 587.94 42.6
7 -2 -1 572.54 42.4
5 2 1 597.64 43.4
2 5 -1 615.54 46.1
-7 5 1 585.84 42.4
7 -2 -1 478.45 50.19
2 5 -1 587.14 44.2
-7 5 1 560.64 42.3
-2 7 1 636.84 44.4
-2 7 1 613.44 42.8
2 5 -1 592.34 42.2
-5 7 -1 566.84 42.2
7 -5 1 609.64 47.2
-5 7 -1 539.35 43.5
1 6 1 131.69 13.6
1 6 1 169.68 17.8
-6 7 1 158.78 14.2
7 -1 1 157.68 15.6
6 -7 1 170.08 15.5
7 -6 -1 143.79 18.9
-1 7 -1 147.99 13.7
6 1 -1 140.49 15.2
-7 6 -1 153.78 15.5
6 1 -1 125.59 25.7
-7 1 1 142.19 13.7
-7 6 -1 140.29 13.6
-6 7 1 142.19 14.8
-1 7 -1 139.99 16
7 -1 1 115.99 22.8
1 6 1 127.29 16.5
-1 7 -1 136.69 18.3
-1 7 1 170.68 15.7
-6 7 -1 184.28 17.3
-1 7 1 171.78 15.7
-7 6 1 186.68 15.8
-7 6 1 172.08 16
-6 7 -1 182.58 15.7
7 -1 -1 172.78 16.4
7 -1 -1 146.29 26.6
6 1 1 155.88 25.8
1 6 -1 183.58 15.8
1 6 -1 186.08 20.4
1 6 -1 182.78 18.9
6 1 1 190.48 17.5
-1 7 1 193.58 18.4
-6 -1 1 193.98 16.3
7 -6 1 209.28 21.9
-7 1 -1 176.58 15.6
0 7 -1 319.27 25.9
0 7 -1 345.87 29.5
7 -7 1 315.07 28.8
-7 0 1 336.97 26.4
0 7 1 362.76 26.8
0 7 1 371.06 28.5
-7 7 1 322.77 26.7
0 7 1 391.16 29.1
-7 7 1 354.66 26.6
7 0 1 324.77 35
-7 7 -1 353.06 27.9
7 0 1 369.26 27.4
7 0 -1 357.86 27.5
-7 0 -1 278.17 26.1
-7 7 -1 372.56 26.9
7 0 -1 284.97 36.4
-7 0 -1 344.17 26.6
0 7 -1 357.56 30
8 -4 1 303.67 32.4
-8 4 -1 274.77 23
8 -4 -1 263.77 32.5
-4 8 -1 285.97 25.1
-4 8 1 286.97 23.2
-4 8 1 286.67 25.3
-8 4 1 301.17 23.5
4 4 1 297.37 25.1
4 4 -1 289.77 25.3
8 -4 -1 259.67 22.3
4 4 -1 287.67 31.4
-4 8 1 247.48 23.7
4 4 1 317.17 29.8
-4 8 -1 297.27 22.8
4 4 1 306.77 23.1
4 4 -1 301.37 23.2
3 5 1 75.29 14
3 5 1 104.59 12.5
-5 8 1 81.09 12.6
-3 8 -1 109.59 17.1
-8 5 -1 110.99 13.1
5 3 -1 128.39 14.4
8 -3 1 93.19 20.2
-8 3 1 113.79 13
8 -5 -1 108.09 21.4
-3 8 -1 104.49 12.4
8 -3 1 120.29 13.5
-5 8 1 100.59 15.5
5 3 -1 117.89 21.2
-5 8 1 112.19 12.8
3 5 1 105.49 20.3
3 5 -1 173.68 15.3
8 -5 1 156.98 22.8
-5 8 -1 162.88 18
8 -3 -1 156.38 27.5
8 -3 -1 144.29 14.5
-3 8 1 173.38 15.2
-3 8 1 154.48 17.3
3 5 -1 163.48 18.1
5 3 1 160.28 17.5
-8 5 1 158.28 14.7
5 3 1 161.48 23.1
-8 5 1 136.89 14.8
-8 3 -1 165.38 15
3 5 -1 179.98 23.3
-5 8 -1 174.88 15.7
-3 8 1 129.19 16.2
-6 8 1 173.58 17
-6 8 1 180.88 16.7
-6 8 1 128.79 15.2
2 6 1 169.08 19.1
-8 6 -1 155.68 15.8
6 2 -1 174.78 17.8
8 -2 1 176.88 16.4
-8 6 -1 170.38 16
-8 2 1 157.98 15.1
2 6 1 185.48 15.7
8 -2 1 130.29 25.5
-2 8 -1 164.78 19.4
-2 8 -1 152.38 14.7
6 2 -1 158.18 26.5
2 6 1 188.28 21.3
8 -6 -1 157.68 23
-2 8 -1 124.89 14.8
-2 8 1 262.47 22.3
-6 8 -1 300.47 22.6
-2 8 1 299.17 24.9
2 6 -1 269.67 25.2
-8 6 1 264.27 22.1
8 -2 -1 251.57 22.2
2 6 -1 287.97 22
-8 2 -1 311.77 23.2
8 -2 -1 222.78 36.7
-6 -2 1 252.57 22.1
8 -6 1 272.37 28.8
-6 8 -1 304.67 25.4
6 2 1 260.07 31.2
6 2 1 277.97 23.4
-8 6 1 245.18 22.6
-8 6 1 273.17 22.2
2 6 -1 303.37 27.7
1 7 1 82.99 12.6
-1 8 -1 98.69 17
-8 1 1 77.79 11.4
-1 8 -1 54.89 10.6
8 -1 1 78.49 20.7
-7 -1 -1 94.29 12.8
-7 8 1 69.09 11.8
-8 7 -1 57.59 11.3
-7 8 1 93.99 13.3
7 1 -1 76.29 12.5
7 1 -1 74.89 21.8
-8 1 1 82.79 10.9
1 7 1 88.69 15.2
1 7 1 93.49 16.3
-8 7 -1 99.69 14.5
8 -1 1 93.09 12.9
-8 7 -1 81.39 11.2
-1 8 -1 78.89 10.4
-8 7 1 116.19 14
-8 1 -1 127.89 13.7
-1 8 1 105.09 18.6
-7 8 -1 134.89 14.4
8 -7 1 133.99 18.8
1 7 -1 120.89 13.4
-7 -1 1 123.89 14
1 7 -1 127.99 18.6
-8 7 1 116.89 13.5
-1 8 1 121.89 14.6
7 1 1 127.59 15.2
7 1 1 125.19 24.8
-7 -1 1 146.79 14.4
1 7 -1 135.99 19.2
-7 8 -1 129.49 16.3
-8 7 1 121.69 13.5
8 -1 -1 128.79 14.2
-8 1 -1 130.79 14
8 -1 -1 122.59 26
0 8 1 89.09 12.4
8 0 -1 72.19 24.5
8 0 1 77.09 13.5
-8 8 1 99.29 12.7
-8 8 1 103.49 12.9
0 8 -1 92.89 17.2
-8 8 -1 84.89 14.8
-8 0 1 100.39 14.2
-8 0 1 88.09 12.6
8 0 -1 89.69 14.3
-8 0 -1 96.79 12.6
0 8 -1 94.69 12.4
-8 8 1 80.69 11.6
-8 8 -1 93.89 12.2
-8 0 -1 102.19 13
8 0 1 75.09 22.7
0 8 1 103.09 17.3
-4 9 -1 311.17 30
5 4 -1 360.96 36.4
-9 4 1 363.76 28.5
-4 9 -1 325.27 30.6
5 4 -1 364.46 30.4
9 -5 -1 406.26 40.3
9 -4 1 373.06 37.4
-9 5 -1 365.26 28.7
4 5 1 368.06 36
5 4 -1 363.16 27.7
4 5 1 385.46 28.8
-5 9 1 359.96 29.6
-5 9 1 344.57 28.3
-4 9 -1 357.06 27.6
-9 5 -1 351.16 29.2
-9 4 1 301.07 27.8
4 5 1 355.36 30.5
-5 9 1 325.47 29.2
5 4 1 574.04 42.6
-4 9 1 551.14 41.3
-5 -4 1 457.85 41
-5 9 -1 573.24 41.1
-9 4 -1 543.65 42.6
-4 9 1 592.64 42.9
-9 5 1 564.14 41.5
9 -4 -1 588.54 53.79
-4 9 1 562.44 43.6
4 5 -1 539.25 46.8
-5 9 -1 506.25 42.7
5 4 1 574.34 41.4
4 5 -1 541.45 40.7
9 -5 1 610.94 49.1
-5 9 -1 557.14 44.4
4 5 -1 510.15 43.2
-9 5 1 518.85 41.5
-9 4 -1 585.54 41.3
5 4 1 574.14 48.2
3 6 1 309.87 28.6
-3 9 -1 257.57 26.7
-3 9 -1 279.37 27.7
9 -6 -1 290.97 31.8
-9 6 -1 285.07 24.2
9 -3 1 328.07 25.6
-9 3 1 302.37 24.3
6 3 -1 278.87 35.5
-6 9 1 313.27 26.1
-6 9 1 324.67 25.8
6 3 -1 291.07 26.5
-9 6 -1 261.27 25.3
9 -3 1 330.47 38
3 6 1 290.07 30.5
3 6 1 302.27 24.6
-3 9 -1 295.47 24.4
-6 9 1 302.77 26.7
-6 -3 -1 275.47 24.4
-3 9 1 137.79 20
-9 3 -1 113.39 13.6
-6 9 -1 147.19 16.1
-6 -3 1 152.18 15.9
-6 9 -1 134.59 17.4
6 3 1 166.28 30.1
3 6 -1 152.78 21
-9 6 1 160.88 16.2
-3 9 1 178.78 19.3
-6 9 -1 147.19 18.1
9 -3 -1 132.49 28.1
-9 6 1 144.69 15.2
-3 9 1 138.09 15.5
3 6 -1 137.89 15.5
6 3 1 163.98 19
-9 3 -1 167.48 15.7
9 -3 -1 122.49 13.9
9 -6 1 206.98 26.9
3 6 -1 155.08 23.2
9 -2 1 810.52 56.49
-9 7 -1 750.12 55.69
-9 7 -1 723.93 56.19
-9 2 1 844.92 55.99
-7 9 1 837.92 56.29
7 2 -1 709.03 65.29
2 7 1 865.11 59.19
-2 9 -1 735.73 55.59
-7 -2 -1 741.43 56.09
7 2 -1 786.42 56.99
9 -2 1 777.72 64.59
-2 9 -1 773.62 59.59
-2 9 -1 699.93 57.19
2 7 1 769.42 59.09
2 7 1 863.31 56.49
-9 7 -1 721.73 57.19
-9 2 1 678.63 55.49
-7 9 1 719.93 56.49
-7 9 1 773.82 57.19
2 7 -1 790.02 54.49
-7 9 -1 652.83 54.99
7 2 1 718.93 61.99
2 7 -1 748.53 58.49
-9 2 -1 796.62 54.59
2 7 -1 761.92 57.39
9 -2 -1 733.63 67.89
-2 9 1 731.33 55.29
7 2 1 782.82 55.59
-2 9 1 730.23 54.39
-7 -2 1 743.43 54.89
-7 9 -1 734.83 55.89
9 -7 1 673.93 58.29
-2 9 1 819.62 57.79
-9 2 -1 747.73 54.89
-7 9 -1 767.52 54.59
-9 7 1 742.43 54.39
-9 7 1 764.12 55.29
9 -1 1 215.08 33.6
8 1 -1 235.08 21.9
1 8 1 239.28 24.8
-1 9 -1 234.88 25.7
-8 9 1 201.88 20
-9 1 1 257.57 21.7
1 8 1 218.38 20.5
-9 8 -1 224.08 20.9
-1 9 -1 238.98 20.7
-9 8 -1 223.68 22.1
8 1 -1 239.38 39.1
-8 9 1 228.28 21.6
-8 9 1 240.48 21.2
9 -1 1 232.58 21.3
-9 8 -1 238.88 22.1
-9 1 1 215.98 20.6
-8 -1 -1 240.48 21.1
-9 1 -1 198.38 18.9
1 8 -1 204.28 26.1
9 -1 -1 170.18 33.6
-9 8 1 211.58 19.6
-8 -1 1 214.48 19.1
-8 9 -1 195.08 18.7
-8 9 -1 185.28 20.5
8 1 1 204.08 19.9
8 1 1 183.18 30.5
-1 9 1 187.28 19.2
-1 9 1 209.18 23.2
-9 8 1 193.08 18.7
-9 1 -1 211.78 18.9
1 8 -1 188.98 18.2
9 -1 -1 160.28 17.5
0 9 -1 6.2 14.6
9 0 1 1.1 19.1
-9 9 1 -1.8 5.8
0 9 -1 7.4 6.6
9 0 -1 8.8 7.5
-9 9 1 1.8 8.4
0 9 1 4.8 7.9
-9 0 1 8.8 8.4
9 0 1 13.7 10.4
-9 9 1 -4.5 6.4
0 9 1 7 13.7
-9 0 -1 15.4 9.4
-9 9 -1 -2.8 7.2
-9 0 1 2.8 7.9
9 0 -1 -20.3 22.4
-9 9 -1 1.3 9.7
-9 9 -1 0.1 9.4
-10 5 1 1811.82 125.39
5 5 -1 1763.32 124.99
-5 10 -1 1718.13 127.59
-5 10 -1 1665.13 125.09
5 5 1 1842.02 130.69
-5 -5 1 1676.33 125.49
-5 10 1 1781.82 125.49
5 5 -1 1666.13 126.79
-5 10 -1 1839.32 126.79
10 -5 -1 1877.01 132.99
-10 5 -1 1799.02 126.19
5 5 1 1682.03 126.49
-5 10 1 1670.63 126.59
-10 5 -1 1911.51 125.49
-5 10 1 1851.91 126.39
5 5 -1 1917.21 131.79
-10 5 1 1653.53 125.59
5 5 1 1829.22 125.49
-10 4 1 152.28 17.1
-10 4 1 159.48 17.6
10 -4 1 196.78 32.2
4 6 1 178.18 25.2
-10 6 -1 163.58 18.5
-6 10 1 145.89 19.3
-4 10 -1 165.68 23.3
4 6 1 124.99 22.4
6 4 -1 172.28 32.7
-6 10 1 187.98 19.4
-6 -4 -1 169.18 17
10 -4 1 143.59 17.2
6 4 -1 160.78 21.5
4 6 1 165.88 19.1
6 4 -1 170.48 17.3
-4 10 -1 154.18 16.8
-4 10 -1 149.49 20.9
-10 6 -1 173.68 18.8
-6 10 1 210.68 21.7
-10 6 1 141.09 17.4
6 4 1 133.79 18.9
6 4 1 176.78 18.5
-6 10 -1 141.89 15.7
-4 10 1 134.69 20.4
-6 10 -1 186.38 20
4 6 -1 143.09 20.5
-4 10 1 195.38 21.4
10 -4 -1 137.29 29.7
-10 4 -1 144.69 16.6
-10 4 -1 147.69 19.8
-4 10 1 146.99 18
4 6 -1 145.59 26.2
-6 10 -1 138.89 22
-10 4 -1 127.39 14.7
10 -6 1 179.58 25.9
-6 -4 1 174.28 17.3
-10 6 1 174.38 17.6
4 6 -1 156.18 16.6
6 4 1 167.48 28.2
-10 3 1 985.1 74.19
-7 10 1 1102.89 76.09
-10 3 1 907.11 74.69
-7 10 1 1073.59 74.89
3 7 1 1059.19 76.99
10 -3 1 1208.58 85.39
-3 10 -1 927.51 73.99
7 3 -1 1103.89 84.79
10 -3 1 955.8 74.69
-10 7 -1 1061.29 75.59
-10 3 1 1062.69 74.79
-3 10 -1 1009.6 77.49
3 7 1 1138.29 75.29
-7 -3 -1 1059.99 75.29
-10 7 -1 914.41 74.19
-3 10 -1 1065.29 76.49
3 7 -1 1098.59 84.89
10 -3 -1 1320.27 97.29
-3 10 1 1184.48 87.69
-7 -3 1 1255.97 85.99
-3 10 1 1237.08 86.49
3 7 -1 1206.98 88.09
-10 7 1 1207.38 85.99
-10 3 -1 1190.28 85.19
-7 10 -1 1041.9 84.79
-10 7 1 1205.18 85.19
-10 3 -1 1236.78 86.59
7 3 1 1145.49 93.09
-3 10 1 1204.88 85.49
-7 10 -1 1215.18 86.49
7 3 1 1151.88 86.39
-7 10 -1 1174.08 87.49
-10 3 -1 1217.68 85.59
-2 10 -1 641.54 51.09
-2 10 -1 604.54 52.69
2 8 1 692.03 52.19
8 2 -1 679.03 61.49
-8 10 1 715.63 50.49
10 -2 1 754.82 60.89
-8 -2 -1 706.63 49.7
-10 2 1 687.23 49.5
-10 8 -1 652.43 50.29
-10 8 -1 567.04 48.4
2 8 1 638.34 49.4
-8 10 1 665.23 49.4
-10 2 1 610.84 48.9
-10 8 1 768.42 56.29
-10 8 1 816.82 57.39
8 2 1 718.93 57.29
-2 10 1 790.32 59.39
-2 10 1 699.13 56.29
-8 -2 1 803.62 56.99
-2 10 1 787.72 57.49
10 -2 -1 759.52 69.09
-8 10 -1 797.92 57.49
-8 10 -1 628.74 55.49
2 8 -1 788.62 60.09
-10 2 -1 813.62 56.59
8 2 1 800.92 66.69
-10 2 -1 778.12 56.69
-9 -1 -1 148.59 16.5
9 1 -1 106.79 29.6
1 9 1 133.79 21.5
-9 10 1 130.79 16.4
-1 10 -1 155.58 23.2
-10 9 -1 142.89 17.6
-10 1 1 105.39 14.3
-1 10 -1 97.29 18.4
10 -1 1 151.88 28.6
-9 10 1 141.89 17.3
1 9 1 102.19 13.9
-10 1 1 141.19 17.4
-9 10 1 113.19 15.9
9 1 1 87.69 26.7
-9 10 -1 42.1 8.8
-9 10 -1 76.59 13.5
-1 10 1 82.99 15.8
-9 10 -1 66.09 14
-1 10 1 58.39 11.4
-10 1 -1 56.59 10.3
-10 1 -1 87.79 13.7
1 9 -1 77.99 17.2
10 -1 -1 57.09 25.4
-10 9 1 68.79 11.4
9 1 1 57.69 11.7
-1 10 1 71.59 10.9
-9 -1 1 93.49 14
-10 10 1 411.16 30.5
0 10 1 356.76 34
10 0 -1 432.16 46.6
-10 10 -1 370.36 30.4
-6 11 1 262.77 24.7
-11 5 1 283.87 23.9
6 5 -1 222.78 25.8
-6 -5 -1 342.77 26.2
5 6 1 281.07 27.2
6 5 -1 218.48 33.5
-5 11 -1 261.97 26.9
5 6 1 266.37 24.1
-11 5 1 335.97 26.7
-11 6 1 273.17 22.3
-6 11 -1 169.38 22.5
-6 -5 1 273.77 22.3
-11 5 -1 216.48 19.2
5 6 -1 190.98 22.4
6 5 1 217.98 22.3
-5 11 1 220.98 21.1
-11 6 1 191.68 20.2
6 5 1 203.98 20.2
-11 5 -1 220.18 20.7
4 7 1 328.67 33.5
-11 4 1 441.36 32.5
-4 11 -1 324.47 34.4
-4 11 -1 418.26 35
-11 4 1 358.76 30.7
7 4 -1 355.26 40.8
-11 7 -1 427.06 33.2
-11 4 1 389.06 31.3
4 7 1 363.36 31.5
-7 11 1 381.66 31.6
-7 -4 -1 461.95 32.6
-11 7 1 303.97 28.8
-7 11 -1 403.96 32.1
-11 7 1 404.06 30.5
7 4 1 315.47 38.8
-11 4 -1 295.87 28.7
4 7 -1 320.77 32.3
-11 4 -1 383.66 31.3
-11 4 -1 333.17 29.4
-4 11 1 417.06 31.9
-7 -4 1 393.56 31.5
7 4 1 305.47 30.4
7 4 1 344.07 29.3
11 -3 1 155.78 28.4
8 3 -1 186.88 33.3
-8 11 1 196.48 19.8
-11 3 1 261.47 22.1
3 8 1 216.98 23
-3 11 -1 213.18 23.6
-11 3 1 203.48 19.2
3 8 1 176.18 19.6
-3 11 -1 267.47 25.3
3 8 -1 239.28 23.4
-3 11 1 204.98 18.9
-11 3 -1 191.48 18.6
8 3 1 203.28 20.7
-2 11 -1 657.23 55.09
2 9 1 729.53 54.69
-11 9 1 505.95 41.4
-11 2 -1 522.15 41.3
-11 2 -1 621.24 43
0 11 -1 161.88 21.1
-11 0 1 234.68 22.3
-11 11 1 167.68 20.3
-6 12 -1 435.06 37.2
-6 -6 -1 349.17 34.1
-6 12 1 451.95 36.2
-12 6 1 407.66 34.5
-12 6 -1 448.86 36.6
-6 -6 1 426.36 35.1
-7 12 1 437.46 35.5
-12 5 1 365.76 32.4
-5 -7 1 327.07 32
-12 7 -1 386.66 33.3
-7 -5 -1 423.16 34.1
-5 12 -1 392.06 35.5
-8 12 1 354.86 32
-12 4 1 310.87 30.3
-12 4 1 286.87 28
-4 12 -1 349.47 34.2
-12 8 -1 349.57 30.1
-8 -4 -1 366.26 30.7
-8 12 -1 229.48 26.4
-4 12 1 238.28 25.6
-8 -4 1 200.58 22.5
-12 4 -1 216.08 25.6
-12 8 1 231.58 22.3
-12 4 -1 170.28 21.8
-12 3 1 439.56 38.5
-3 12 -1 463.85 43.2
-9 -3 -1 541.65 39.7
-9 12 1 512.65 40.5
-12 9 -1 499.35 40.1
-9 -3 1 447.56 35.8
-9 12 -1 444.36 36.9
-3 12 1 450.35 36.7
-12 3 -1 411.36 35.3
-12 3 -1 366.26 36.6
-12 9 1 461.75 35.9
-12 2 1 242.88 24.5
-10 -2 -1 292.47 26.5
-2 12 -1 240.48 28.2
-12 10 -1 268.47 26.1
-10 12 1 237.58 25.7
-10 12 1 282.87 26.5
-10 -2 1 412.26 33.1
-12 10 1 437.76 34.7
-2 12 1 389.16 35.2
-10 12 -1 384.56 33.9
-12 2 -1 380.26 32.2
-10 12 -1 327.07 33.8
-11 -1 -1 561.04 44.1
-12 11 -1 616.64 45.8
-11 12 1 515.55 44.3
-11 12 1 548.75 43.9
-1 12 -1 499.75 46
-12 1 1 563.64 43.4
-1 12 1 301.47 31.9
-11 12 -1 291.57 30.9
-12 11 1 388.16 31.3
-11 12 -1 359.06 31.7
-12 1 -1 361.56 30.1
-11 -1 1 365.56 30.5
-12 12 -1 1138.99 83.69
-12 0 1 1159.18 82.09
-12 0 -1 1104.59 82.19
-12 12 1 1080.19 82.49
-13 7 -1 47.4 13.7
-13 6 1 48.5 12.9
-7 -6 -1 24.3 12.4
-6 13 -1 57.89 15.9
-7 13 1 54.69 15.3
-6 -7 1 22.4 11.1
-13 7 1 54.19 13.7
-6 13 1 53.79 14.3
-7 13 -1 73.99 17.5
-7 -6 1 27.7 12.6
-13 6 -1 48 14.1
-5 13 -1 745.23 56.69
-13 5 1 667.73 53.59
-8 13 1 684.83 53.69
-13 5 1 597.24 51.79
-13 8 -1 695.73 53.39
-8 -5 -1 737.73 53.49
-13 5 -1 546.55 49.2
-13 5 -1 639.44 51.59
-13 8 1 655.13 51.29
-8 13 -1 699.43 53.39
-8 -5 1 689.43 51.09
-5 13 1 692.33 52.69
-4 13 -1 153.88 24.2
-9 -4 -1 140.19 19.5
-13 4 1 98.89 18
-9 13 1 179.48 23.7
-13 9 -1 153.68 20
-13 4 1 111.19 19.6
-13 4 -1 80.29 16.7
-13 4 -1 85.99 19.4
-9 13 -1 155.88 24.3
-13 9 1 128.79 18.4
-4 13 1 131.09 21
-9 -4 1 126.69 20.7
-10 -3 -1 336.87 30.6
-3 13 -1 352.86 35.8
-13 10 -1 383.66 32.8
-10 13 1 339.77 31.8
-13 3 1 281.97 29.5
-3 13 1 352.76 33.1
-10 -3 1 318.77 30.8
-13 3 -1 281.27 28.6
-13 10 1 338.57 31.3
-10 13 -1 327.77 32.9
-11 13 1 588.14 53.29
-11 13 1 752.62 55.69
-13 2 1 690.73 53.69
-2 13 -1 635.94 55.79
-13 11 -1 798.52 56.29
-11 -2 -1 747.63 54.09
-2 13 1 549.15 45.7
-11 -2 1 611.44 44.9
-13 11 1 616.64 45.6
-11 13 -1 552.74 46.6
-13 2 -1 556.84 44.2
-11 13 -1 473.85 44.6
-12 -1 -1 180.38 21
-12 13 1 132.19 21.3
-12 13 1 193.58 24.1
-13 1 1 174.38 21.5
-1 13 -1 139.79 25.5
-13 12 -1 213.38 23.8
-12 13 -1 158.18 24.3
-13 1 -1 220.08 22.7
-12 -1 1 225.78 23.4
-12 13 -1 249.58 26.7
-1 13 1 158.38 24.1
-13 13 -1 44.8 15.7
-13 0 -1 49.1 13.3
-13 13 1 60.29 16.6
-13 0 1 45.4 13.6
-14 7 1 120.79 19.5
-7 14 1 131.19 23.9
-7 14 -1 135.59 24
-14 7 -1 111.29 20.6
-14 6 1 691.23 52.29
-14 8 -1 650.93 51.69
-6 -8 1 536.85 50.39
-8 -6 -1 656.73 52.29
-8 14 1 671.33 52.19
-6 14 -1 709.13 55.49
-6 14 1 637.14 51.29
-8 -6 1 618.14 50.09
-14 6 -1 609.34 50.49
-8 14 -1 654.23 52.29
-14 8 1 556.54 48.4
-14 5 1 85.09 16.9
-14 5 1 108.09 19.3
-9 -5 -1 129.49 20.6
-9 14 1 150.38 22.2
-9 -5 1 146.89 23.5
-14 5 -1 100.29 20.5
-14 5 -1 139.79 22.7
-5 14 1 165.58 23.6
-14 9 1 157.08 20.6
-4 14 -1 1682.13 120.09
-10 14 1 1718.03 119.29
-10 -4 -1 1745.23 118.49
-14 4 1 1488.25 117.29
-14 10 -1 1574.24 118.59
-10 14 -1 1479.95 108.59
-14 4 -1 1427.46 107.39
-10 -4 1 1520.95 107.89
-4 14 1 1543.65 109.19
-14 10 1 1462.25 107.89
-14 11 -1 257.97 27.5
-14 3 1 223.78 25.6
-11 -3 -1 257.77 27.8
-11 14 1 285.17 30.8
-3 14 -1 236.58 30.2
-11 14 -1 320.97 32.1
-14 11 1 320.67 30.2
-11 -3 1 298.87 29.3
-3 14 1 300.67 31.3
-14 3 -1 266.97 28.4
-2 14 -1 118.29 24.3
-12 14 1 135.29 24.3
-12 -2 -1 131.49 20
-14 2 1 122.49 20.3
-12 14 1 112.99 21.4
-2 14 1 166.38 24.7
-12 14 -1 159.08 24.2
-12 14 -1 166.68 26.5
-14 2 -1 179.48 22.7
-12 -2 1 190.78 23.2
-14 12 1 227.98 24.9
-1 14 -1 107.19 22.9
-13 14 1 120.79 23.5
-13 -1 -1 159.98 21.2
-13 14 1 174.28 22.7
-14 1 1 168.08 22.2
-14 13 1 164.98 23.2
-14 1 -1 119.29 23
-13 14 -1 129.09 24.6
-13 -1 1 142.19 23.6
-14 14 1 41.4 15.7
-14 0 1 10.4 13.1
-14 0 -1 26.8 14.8
0 -14 1 7.5 3.7
14 0 1 -4 4
-15 7 1 181.28 22.8
-8 -7 -1 123.69 20.6
-7 -8 1 130.69 22.1
-7 15 1 201.48 28.4
-8 -7 1 131.49 22
-15 8 1 160.78 22.7
-15 7 -1 167.08 24.1
-9 -6 -1 26.1 13.7
-6 15 -1 78.39 19.7
-15 9 -1 70.49 16.1
-9 15 1 47.6 16.2
-15 6 1 46.7 15.4
-15 9 1 64.39 15.9
-9 -6 1 42 16.3
-15 6 -1 33.9 13.8
-15 6 -1 48.8 16.7
-6 15 1 60.59 17.2
-15 10 -1 235.48 26
-10 15 1 223.58 27.7
-15 5 1 152.68 24.2
-5 15 -1 254.17 33.5
-10 -5 -1 198.28 27.2
-5 15 1 200.08 28.9
-10 -5 1 157.38 22.9
-15 10 1 179.08 22.8
-15 5 -1 112.19 22.2
-15 5 -1 110.09 20.3
-11 15 1 288.77 33.4
-11 -4 -1 260.47 28.1
-4 15 -1 305.17 35.3
-15 11 -1 268.77 28.9
-15 4 1 198.98 27.8
-11 15 -1 363.26 36.8
-15 11 1 313.57 31.6
-4 15 1 311.27 35.4
-11 -4 1 310.07 32.7
-15 4 -1 253.97 30.6
-12 -3 -1 242.98 27.9
-3 15 -1 252.57 32.2
-12 15 1 285.07 33.7
-15 12 -1 302.67 29.8
-15 3 1 230.98 28.9
-3 15 1 255.17 30.8
-12 -3 1 249.48 28.5
-15 12 1 303.57 30.1
-12 15 -1 287.77 34.2
-15 3 -1 238.08 27.4
-15 13 -1 1182.28 81.29
-13 15 1 947.21 79.49
-13 -2 -1 1139.09 78.99
-15 2 1 1062.99 78.49
-2 15 -1 930.11 79.69
-2 15 1 823.42 65.29
-13 15 -1 857.51 65.79
-14 15 1 51.29 16.9
-14 -1 -1 58.09 15.5
15 -14 -1 30.6 7.9
15 -1 1 26.2 8.1
-15 1 1 33 14.2
-1 -14 1 26.9 7.5
14 1 1 54.99 8.6
-14 15 -1 61.59 16.5
14 -15 -1 38.1 8.7
-15 1 -1 72.79 16.1
-14 -1 1 92.99 16.7
1 -15 1 68.09 13.4
15 0 1 652.03 49.5
-15 0 1 700.93 54.69
-15 0 -1 637.34 53.39
-15 15 1 628.54 55.49
15 -15 -1 684.13 49.9
-15 15 -1 616.04 55.59
0 -15 1 711.23 52.89
-8 16 -1 58.19 19.7
-16 8 -1 44.4 17.9
-8 16 1 34 17.2
-16 8 1 40.9 17.6
-9 16 1 385.26 39.5
-16 7 1 335.97 36.4
-7 16 -1 386.26 39.2
-16 9 -1 329.57 34.8
-7 16 1 358.56 35.5
-16 9 1 325.17 32.7
-16 7 -1 329.67 35.4
-9 -7 1 260.27 32.6
-16 6 1 76.89 15.7
-16 6 1 117.69 22.6
-16 10 1 206.28 25.6
-16 6 -1 148.59 24.6
-6 16 1 222.88 28.8
-16 6 -1 139.39 21.7
-10 -6 1 165.98 25.7
16 -5 1 273.37 22.8
16 -11 -1 288.97 22.7
5 11 -1 199.08 21.5
-5 -11 -1 251.37 20.9
16 -4 1 1169.68 91.09
-4 16 -1 1422.36 98.99
16 -12 -1 1121.09 91.09
-12 16 1 1401.66 96.79
-16 4 1 1346.57 95.29
-16 12 -1 1439.06 96.59
-4 -12 1 1149.78 92.09
4 12 -1 1086.39 92.39
-16 4 -1 1380.86 95.69
-4 16 1 1416.46 96.99
-13 -3 -1 21.5 14.7
-16 13 -1 41.4 16.9
16 -3 1 10.1 8.9
-16 13 -1 -10.1 14.2
-3 16 -1 32.6 20
-16 3 1 8.7 14.7
-3 -13 1 6.6 8.6
-13 16 1 15.9 17.9
16 -13 -1 1.6 8.7
-3 -13 -1 5.5 5.3
-3 -13 -1 14.4 7.7
-3 16 1 13.1 17.6
3 13 -1 8.8 12.2
13 -16 -1 0.5 7
-13 16 -1 31 18
-16 3 -1 33.4 15.6
-13 -3 1 29.1 16.4
3 -16 1 19.1 5.1
-16 13 1 18.4 14.1
16 -3 -1 6.2 6.6
-14 16 1 273.87 29.2
-16 14 -1 225.18 30.2
2 -16 -1 254.47 20.9
-16 14 1 305.67 32.8
-2 -14 -1 321.37 29.2
2 -16 1 304.17 27.9
-16 2 -1 240.38 29.8
2 14 -1 283.37 29.8
-14 -2 1 289.47 32.9
16 -2 -1 233.98 24.3
14 2 1 299.47 25.8
14 -16 -1 284.07 26.1
15 1 -1 333.97 29.1
1 -16 -1 304.67 30.7
1 -16 -1 329.87 29.2
-1 -15 1 415.66 36.7
16 -15 -1 375.06 32
-15 -1 -1 347.07 36.6
-16 15 -1 374.96 38.5
16 -1 1 408.36 32.4
-16 1 1 384.96 36.7
-15 -1 1 507.05 44.9
1 15 -1 544.95 45.1
-16 15 1 523.85 46.6
-1 -15 -1 605.74 44.4
-1 -15 -1 449.76 40.3
15 1 1 516.05 41.7
1 -16 1 612.64 45.9
15 -16 -1 515.15 41.7
16 -1 -1 500.85 40.4
-16 1 -1 475.75 45.7
0 -16 -1 254.77 25.8
-16 0 -1 226.38 29.7
16 0 -1 247.58 26
16 -16 -1 263.07 27.6
16 -16 1 224.18 24.8
0 -16 -1 324.17 31.5
0 -16 1 290.77 32.6
0 16 -1 290.27 30.4
16 0 1 277.37 27.3
-16 0 1 222.38 31.4
-17 8 1 212.28 27
-8 17 -1 174.98 26.5
-9 -8 -1 167.18 21.3
-9 17 1 171.28 24.9
17 -8 1 193.18 21.2
17 -9 -1 195.18 21.2
17 -9 1 174.78 20.1
17 -8 -1 201.08 21.1
-9 -8 1 149.69 24.6
-17 8 -1 218.18 29.9
-8 17 1 183.48 27
-8 -9 -1 176.68 23.6
-17 9 1 246.08 27.8
-9 17 -1 170.48 26
-7 17 -1 108.69 23.3
17 -10 -1 144.09 19.3
-10 17 1 133.49 22.3
-10 -7 -1 90.99 15.9
-17 10 -1 144.49 28.4
17 -7 1 147.29 18.9
-10 -7 -1 111.29 20.9
-17 7 1 129.59 23.6
-7 -10 1 88.59 16
17 -10 1 121.09 16.9
-7 17 1 113.99 23.3
-10 -7 1 125.49 25.8
17 -7 -1 134.09 19
-10 17 -1 120.39 23
-17 10 1 174.78 25.6
-17 7 -1 166.78 28.4
-17 10 1 136.09 25
-7 -10 -1 131.99 22.4
-11 -6 -1 20.2 6.4
-11 -6 -1 59.19 17.7
-17 6 1 31.4 16.3
-6 17 -1 20.2 12.2
-6 -11 1 35.9 9.2
17 -6 1 66.49 12.1
-11 17 1 38.9 12.4
17 -11 -1 58.39 12.4
17 -6 -1 63.59 11.6
-17 11 1 83.29 19.4
-6 -11 -1 43.4 10.9
11 -17 -1 21.5 7.8
-6 17 1 81.79 21.7
-17 6 -1 35.5 12.7
-17 6 -1 23.6 17
17 -11 1 47 10.1
-11 17 -1 19.2 11.8
-11 -6 1 60.19 19.3
6 11 -1 41.7 13.6
5 12 1 16.7 12.7
-12 17 1 73.79 21.9
-12 -5 -1 31.9 17
-17 5 1 18 13.3
17 -5 1 42.7 12.4
17 -12 -1 37 12
-5 -12 1 41.2 11.9
-5 17 -1 85.09 23.2
-17 12 1 71.09 20.3
-12 -5 1 27.2 17.2
-5 17 1 58.49 22
-12 17 -1 75.39 21.4
-17 13 -1 54.89 19.6
-17 4 1 11.1 15.5
-13 17 1 43.4 21.4
-4 17 -1 39.3 19.5
-13 -4 -1 8.3 16.7
17 -4 1 17.5 11.4
4 13 1 14.2 14.1
17 -13 1 19.2 10.1
-17 4 -1 16.6 15.4
4 -17 1 23.6 6.9
-4 -13 -1 19.3 9.6
-4 -13 -1 13.9 10.8
13 -17 -1 15.1 10.2
-4 17 1 25.4 18
4 13 -1 21.1 13.9
17 -4 -1 14.7 10.1
-13 17 -1 29.9 18.6
-13 -4 1 15.2 16.4
-14 17 1 -16.3 14.4
-14 -3 -1 1.2 3.8
3 -17 -1 4.4 9
-14 -3 -1 6.6 16
3 -17 -1 10.8 4.7
17 -14 -1 4 12
17 -3 1 22.6 12.3
-17 3 1 12.8 14.6
-3 -14 1 11.7 11.7
14 3 -1 8.5 7.9
-3 17 -1 1.4 11.8
3 -17 1 70.79 12.1
-14 -3 1 52.49 16.8
-3 -14 -1 67.49 13.6
-17 3 -1 56.79 16.5
17 -3 -1 53.29 12.3
14 -17 -1 75.29 13.5
-3 -14 -1 47.7 11.6
17 -14 1 45.4 11.8
3 14 -1 58.89 15
-17 15 -1 70.79 21.1
-15 -2 -1 40.4 17.9
15 -17 1 25.7 9.3
17 -2 1 66.69 13.2
-17 2 1 40.9 17.5
-2 -15 1 48.4 12.9
17 -15 -1 50.89 12.7
15 2 -1 47.6 11.3
2 -17 -1 29 8
2 -17 -1 57.69 12.1
15 2 1 41.6 11.8
-15 -2 1 29 16.2
-2 -15 -1 25.8 11.7
15 -17 -1 46.3 13.1
2 15 -1 57.69 15.4
17 -2 -1 31.3 11.5
-17 15 1 76.69 21.4
-17 2 -1 29.9 17.4
2 -17 1 28.2 12.4
17 -15 1 21.4 11.7
-2 -15 -1 45.3 13
16 1 -1 541.25 43.2
17 -1 1 540.25 42.8
1 -17 -1 616.24 46.4
16 -17 1 508.05 42.7
-1 17 -1 575.64 47
-16 -1 -1 427.46 46.9
17 -16 -1 551.04 43.3
-1 -16 1 599.84 47.6
-17 16 -1 475.95 49.8
1 -17 -1 514.35 43
16 1 1 757.42 55.19
17 -1 -1 762.92 55.19
-17 16 1 660.13 60.49
-17 1 -1 616.14 58.99
1 16 -1 780.72 58.49
-1 -16 -1 724.63 54.99
17 -16 1 740.23 55.19
16 -17 -1 739.83 55.19
1 -17 1 786.82 59.19
-16 -1 1 662.03 59.19
17 -17 -1 188.98 24.5
0 -17 1 181.58 30.2
17 0 1 222.08 24.4
-17 0 1 172.48 28.7
17 0 -1 206.68 23.9
0 -17 -1 220.98 32.6
0 -17 -1 161.68 24.6
-17 0 -1 142.69 26.1
0 17 -1 233.78 29.7
17 -17 1 175.68 24.2
-18 9 1 151.98 29.1
18 -9 -1 138.19 23
-9 -9 1 129.29 20.3
9 -18 -1 123.89 19.5
-18 9 -1 174.68 29.1
-9 -9 -1 127.89 26.6
-18 9 1 134.59 29.2
-18 9 -1 125.29 30.4
18 -9 1 105.29 16.5
-8 -10 1 153.08 24.6
8 -18 -1 152.28 21.4
-18 8 1 178.98 30.5
18 -8 1 186.28 26
-18 10 -1 234.88 31.7
18 -10 -1 166.18 25.9
-10 18 1 236.28 28
-10 -8 -1 177.88 26.9
-18 10 -1 224.88 31
-18 8 -1 233.48 33.4
-8 -10 -1 227.98 31.4
10 -18 -1 189.08 24.1
-18 10 1 263.97 32.7
-18 10 1 248.48 31
-8 18 1 284.67 30.2
18 -8 -1 216.38 27
-8 18 1 298.97 38.9
18 -10 1 198.98 26.7
-11 18 1 397.96 42.4
-7 -11 1 324.07 32.9
-7 18 -1 296.87 35.1
18 -7 1 308.77 31.6
-11 18 1 334.57 33.6
18 -11 -1 323.27 31
-11 -7 -1 301.77 33.3
7 -18 -1 258.87 28.2
-18 11 -1 353.66 37.5
-11 18 -1 382.36 36.8
-7 18 1 310.27 33.6
-7 -11 -1 341.07 34.7
18 -7 -1 325.37 32.4
11 -18 -1 277.37 30.1
-11 -7 1 248.78 33
-18 11 1 386.76 37.4
-18 11 1 301.17 35.3
-7 18 1 367.06 41.3
18 -11 1 332.17 31.8
7 11 -1 291.47 33.4
18 -6 1 92.19 14.8
-12 -6 -1 50.49 11
18 -12 -1 90.19 14.8
-6 -12 1 58.39 12.5
-12 18 1 90.59 22.5
6 -18 -1 70.39 12.2
-12 -6 -1 36.6 16.7
6 12 1 66.29 15.8
18 -12 1 33.4 13.1
-6 -12 -1 25.6 11.5
6 12 -1 36 15.4
-12 -6 1 27.8 16.4
-18 12 1 67.79 19.8
12 -18 -1 26.1 12.1
18 -6 -1 39.9 13.3
-6 18 1 51.49 14.9
-6 18 1 59.69 23.5
5 13 1 299.17 33.5
-13 18 1 265.57 32.8
18 -5 1 362.56 31.5
-13 -5 -1 308.67 35.9
-13 18 1 338.77 42.1
-5 18 -1 341.97 38
-5 -13 1 373.56 36.1
-18 13 -1 397.66 39
-13 -5 -1 308.77 32
5 -18 -1 320.67 30.2
18 -13 -1 359.66 32.1
-18 5 -1 269.07 31.1
5 13 -1 305.87 33.6
18 -5 -1 346.97 31.3
-18 13 1 354.06 38.2
-5 18 1 278.27 38.7
18 -13 1 318.17 31.8
13 -18 -1 302.27 30.8
-13 -5 1 312.27 35.4
5 -18 1 342.07 31.3
-5 -13 -1 329.67 35.7
-13 18 -1 364.36 42
4 14 1 24.4 14.5
-14 -4 -1 18.9 17.1
-14 18 1 1.1 11.5
18 -4 1 25.8 12.2
4 -18 -1 14.4 11.3
-14 -4 -1 9.7 7.8
14 4 -1 15.6 9.8
-18 4 1 7.8 10.9
14 -18 1 14.3 8.4
18 -14 -1 16.6 12.4
-18 14 -1 55.89 20.6
-4 18 -1 -0.8 11.6
-4 -14 1 15.8 12
4 -18 -1 11.7 4.6
18 -14 1 60.79 14.1
-18 4 -1 62.79 16.8
18 -4 -1 60.19 13.6
4 -18 1 43.4 12.1
-4 -14 -1 35.3 13.2
-18 14 1 77.79 20.5
-14 -4 1 53.39 17.9
14 -18 -1 69.99 13.9
4 14 -1 62.19 15.9
-4 -14 -1 58.89 13.9
18 -15 -1 455.85 37.6
3 15 1 467.65 40.5
-18 15 -1 393.96 43.4
15 -18 1 420.56 35.9
-3 -15 1 494.15 42.2
3 -18 -1 455.05 37.2
3 -18 -1 397.66 36.4
18 -3 1 483.75 37.3
15 3 -1 447.86 36.9
-15 -3 -1 369.76 41.4
-3 -15 -1 707.73 53.49
-3 -15 -1 588.14 48.9
18 -15 1 592.94 49.1
18 -3 -1 629.04 48.6
-15 -3 1 519.05 52.39
-18 15 1 677.03 56.09
3 15 -1 621.04 51.29
15 3 1 652.73 48.4
-18 15 1 566.24 54.19
15 -18 -1 607.74 48.6
3 -18 1 658.23 52.19
-16 -2 -1 89.69 20.4
-2 -16 1 128.19 16.9
18 -16 -1 146.89 17.2
2 16 1 162.28 25.9
-2 18 -1 162.78 24.1
2 -18 -1 124.69 21.2
16 -18 1 111.39 16.2
18 -2 1 138.19 22.4
2 -18 -1 143.29 24.6
16 2 -1 154.88 21.8
18 -2 -1 87.79 13.8
-16 -2 1 66.29 18.5
2 -18 1 67.69 13.8
-2 -16 -1 91.89 15
16 2 1 140.79 21.2
-2 -16 -1 92.19 15
-18 2 -1 74.69 17.8
16 -18 -1 119.69 15.3
18 -16 1 112.99 15.1
-1 -17 1 68.49 13
-17 -1 -1 48.4 15.1
1 -18 -1 68.79 13.7
17 -18 1 88.89 14.2
1 -18 -1 58.79 13.3
18 -17 -1 75.89 13.5
18 -17 1 52.29 13.3
-1 -17 -1 40.1 12.7
-18 1 -1 31.2 13.3
18 -1 -1 78.89 13.2
-17 -1 1 38.9 14.8
17 -18 -1 63.49 13.3
1 -18 1 43.1 12.5
-1 -17 -1 60.79 13.2
17 1 1 57.99 12.5
18 0 1 667.43 50.69
0 -18 1 655.53 53.59
0 18 -1 703.93 54.09
18 -18 -1 654.63 51.09
0 -18 -1 602.94 50.89
0 18 1 707.33 53.49
18 -18 1 641.84 50.99
18 0 -1 633.74 50.89
10 9 -1 39.3 15.8
-10 19 1 101.39 25
19 -10 -1 60.29 14.6
9 -19 -1 48.9 12.8
-19 10 -1 94.09 22.4
-9 -10 1 31.6 11.9
-19 9 1 39 17.8
19 -9 1 61.99 14.1
-10 -9 -1 52.09 12.9
9 10 -1 80.79 18.3
-10 -9 1 78.29 13.6
10 -19 -1 79.09 14.7
19 -9 -1 129.99 16.7
-9 -10 -1 92.79 14.5
19 -10 1 132.19 17.3
-19 10 1 145.19 28.3
-19 9 -1 90.49 22.1
-19 11 -1 477.55 45.5
-8 -11 1 393.86 39.7
19 -8 1 428.76 38
8 -19 -1 379.16 36.1
-11 -8 -1 422.06 39.5
-19 11 -1 381.86 40.9
8 11 1 328.37 38.5
-8 19 -1 462.35 43
19 -11 -1 422.86 37
-11 19 1 442.06 47.9
-11 19 1 449.95 41.5
-11 19 -1 406.56 38
19 -11 1 363.76 34.9
19 -8 -1 389.16 34.7
-8 -11 -1 356.46 37.6
-19 11 1 408.46 40.1
-8 19 1 385.36 39
8 11 -1 331.47 37.2
11 -19 -1 338.67 33.9
-11 19 -1 441.66 46.3
-19 11 1 319.77 39.7
-11 -8 1 298.47 34.1
-8 19 1 401.26 44.5
-12 19 1 346.47 35.5
19 -7 1 330.17 34.2
-7 -12 1 348.57 35.2
19 -12 -1 324.37 33.4
-12 -7 -1 322.27 35.7
-7 19 -1 356.56 36.8
7 -19 -1 296.87 31.9
-19 12 -1 317.67 36.8
-12 19 1 379.46 43.8
-7 19 -1 404.96 44.5
12 -19 -1 263.87 28.9
-19 12 1 239.58 33
7 12 -1 238.98 31.2
-7 19 1 317.07 34.6
19 -12 1 284.87 30.6
-12 19 -1 337.77 40.8
-7 19 1 262.87 39
19 -7 -1 262.37 30.3
-7 -12 -1 254.27 32.2
-13 -6 -1 39.2 11.7
-6 19 -1 64.99 19.6
6 13 1 52.99 15
19 -13 -1 67.89 13.9
6 -19 -1 39.3 12.6
-13 19 1 57.99 22.9
-6 -13 1 56.99 12.4
13 -19 1 40.4 9.4
19 -6 -1 43.4 13.5
-19 13 1 71.19 21.3
-13 -6 1 6 13.4
-13 19 -1 47 20.5
-6 -13 -1 12.4 10.4
-6 -13 -1 31.6 11.9
19 -13 1 27.7 13.5
-6 19 1 4.9 15.4
6 -19 1 26.3 9.5
13 -19 -1 32.7 12.7
6 13 -1 32.2 14.7
19 -14 -1 43.5 13.2
5 14 1 41.8 14.7
5 -19 -1 29 12.2
14 5 -1 32.5 10.8
-14 -5 -1 20.2 10.7
-19 14 -1 72.09 20.9
-14 19 1 61.79 15.8
14 -19 1 23.9 10.4
-14 -5 -1 16.4 11.9
-5 -14 1 35.7 12.3
19 -5 1 26.3 12.3
-5 19 -1 48.4 15.5
-5 19 1 15.5 14.2
-5 -14 -1 8.2 11.6
19 -14 1 10.7 13
14 -19 -1 9.9 12.2
5 14 -1 14.9 14.5
-14 19 -1 -14.7 11.6
-19 5 -1 16.2 8.7
-14 19 -1 32.6 14.5
-19 14 1 35 18.8
19 -5 -1 9 12.2
-14 -5 1 6.4 13.6
5 -19 1 9.5 10.4
-4 -15 1 31.1 11.4
-4 19 -1 12.1 9.7
19 -4 1 37.7 11.8
15 4 -1 34.1 11.3
-15 19 1 31.4 13.3
4 -19 -1 28.3 7.9
15 -19 1 41.5 11.8
-19 15 -1 31 17.8
4 -19 -1 47.8 13
19 -15 -1 43.3 12.6
-15 -4 -1 23.4 13.1
4 15 1 47.1 14.4
-15 -4 -1 29.1 9.6
4 -19 1 12.6 11.7
19 -4 -1 32.7 12.1
-19 4 -1 12.1 7.1
15 -19 -1 16.4 12.1
-4 -15 -1 17.7 11.3
-15 -4 1 12 14.3
19 -15 1 27.2 13
15 4 1 35.2 12.5
-19 15 1 23.5 17.6
4 15 -1 39.5 14.8
3 16 1 436.96 38
-3 19 -1 387.16 36.7
-16 -3 -1 339.97 33.6
3 -19 -1 392.26 35.7
-3 -16 1 437.66 39.6
3 -19 -1 408.36 37.6
16 -19 1 442.06 35.6
19 -16 -1 440.16 36.1
19 -3 1 419.46 35.1
16 3 -1 441.86 36
3 16 -1 574.14 48.6
3 -19 1 635.04 49.2
-19 16 1 622.24 53.69
16 3 1 542.65 45.6
19 -3 -1 538.05 45.6
19 -16 1 557.84 46.2
16 -19 -1 555.34 46
-3 -16 -1 607.04 49.8
19 -2 1 142.79 21.8
-2 -17 1 121.79 27.1
2 17 1 173.98 26.9
-2 19 -1 174.68 25.8
17 2 -1 164.38 23.3
2 -19 -1 165.48 26.7
2 -19 -1 148.29 21.9
19 -17 -1 142.79 21.9
17 -19 1 135.09 22.1
-2 -17 -1 99.09 14.3
2 -19 1 62.09 13.2
19 -17 1 97.79 14
-2 -17 -1 69.59 13.7
19 -2 -1 80.79 13.2
18 1 -1 13.2 11.4
1 -19 -1 5.3 11.4
19 -1 1 9 10
19 -18 -1 15.3 11.5
-1 -18 1 5.5 10.6
-1 19 -1 38.6 14.6
1 18 1 23.6 13.7
1 -19 -1 12 10.4
18 -19 1 17 11.6
1 18 -1 23.2 14.4
19 -1 -1 3.4 10.7
19 -18 1 1.9 11.3
1 -19 1 -3.5 10.3
-1 -18 -1 4.7 11
1 -19 1 2.1 4.5
18 -19 -1 6.8 11.4
-1 -18 -1 11.2 11.1
18 1 1 10.7 10.9
19 0 1 76.99 12.3
0 -19 -1 34.2 11.6
19 -19 -1 70.89 12.8
0 -19 -1 57.49 12.3
19 0 -1 56.49 12.3
19 -19 1 61.09 12.5
0 -19 1 59.09 11.9
20 -10 1 119.29 16.9
10 10 -1 99.59 18.8
20 -10 -1 111.29 16.7
10 -20 -1 139.29 23.1
-10 -10 -1 102.79 15.3
-10 20 1 171.48 33.3
9 11 1 12.9 15.1
-11 -9 -1 30.6 11.8
-9 -11 1 25.7 11.4
-20 9 1 62.69 18.9
20 -11 -1 50.89 13.9
-20 11 -1 19 15
11 9 -1 15.5 15.7
20 -9 1 47.5 13.7
-11 20 1 51.79 22.3
9 -20 -1 45.4 12.8
-20 11 1 12.8 14.9
-20 9 -1 54.19 18.9
20 -11 1 37.4 14
20 -9 -1 39.6 13.6
-9 20 1 40.8 20.3
11 -20 -1 31.8 12.6
-11 -9 1 17.9 11.7
-9 -11 -1 23 11.2
9 -20 1 51.09 10
9 11 -1 22.2 14.9
20 -8 1 154.18 24.1
8 12 1 132.19 19.3
-20 12 -1 124.79 26.8
20 -12 -1 142.79 23.8
-8 20 -1 162.28 28.9
12 -20 1 82.39 15.5
-12 20 1 100.19 23.6
-8 -12 1 131.69 26.8
-12 -8 -1 127.09 27
8 -20 -1 138.29 21.9
-8 -12 -1 169.08 26.9
-12 -8 1 141.69 25.5
12 -20 -1 158.28 23.3
20 -8 -1 140.19 23.5
20 -12 1 157.78 25.6
-12 20 -1 194.78 33
8 -20 1 128.79 18.2
8 12 -1 141.29 28.1
-7 -13 1 74.99 12.8
13 -20 1 56.89 11.2
-13 -7 -1 90.69 13.7
20 -7 1 126.59 15.4
-20 13 -1 76.99 18.8
7 13 1 115.69 17.6
13 -20 -1 90.89 14.8
7 -20 1 115.39 21.2
20 -13 1 133.99 16.8
-20 13 1 65.09 19.4
20 -7 -1 127.49 16.1
-7 -13 -1 103.19 14.9
7 13 -1 109.29 18
6 -20 -1 171.28 22.8
6 14 1 148.49 26.2
-6 -14 1 167.98 27.2
20 -14 -1 168.68 24.8
20 -6 1 163.98 24.7
-14 -6 -1 151.08 26.4
14 6 -1 148.29 20.9
14 -20 1 148.19 20.4
-14 20 1 224.88 30.4
-6 20 -1 204.38 31.2
14 -20 -1 110.89 15.9
6 -20 1 117.79 24.2
6 14 -1 119.09 25.7
-6 -14 -1 116.49 15.8
20 -14 1 135.69 23
20 -6 -1 140.39 17.2
5 15 1 628.74 50.49
-15 -5 -1 610.94 50.39
-20 15 -1 691.73 56.79
5 -20 -1 621.84 49
15 5 -1 582.24 48.2
15 -20 1 603.04 48.1
20 -15 -1 643.64 49.6
20 -5 1 633.44 49.3
-5 -15 1 645.54 51.39
15 -20 -1 703.93 53.69
15 5 1 738.33 53.69
20 -15 1 737.73 54.49
-20 15 1 734.53 59.29
5 15 -1 671.63 55.79
-5 -15 -1 741.03 56.49
20 -5 -1 702.73 53.99
-5 -15 -1 652.23 56.39
5 -20 1 625.94 55.59
4 -20 -1 193.88 24.2
-16 -4 -1 197.78 23.9
20 -4 1 178.38 24
20 -16 -1 217.28 24.8
-4 -16 1 201.68 27.5
16 4 -1 190.48 23.8
16 -20 1 199.88 23.4
4 -20 -1 194.58 22.5
4 16 1 215.58 26.6
20 -16 1 150.28 23.6
-4 -16 -1 141.89 28.5
4 16 -1 175.18 26.2
16 4 1 175.38 22.5
4 -20 1 141.79 27.6
16 -20 -1 167.18 23.1
-4 -16 -1 150.68 27.1
20 -4 -1 150.98 23.7
-3 20 -1 25 11.7
3 -20 -1 22.1 11.8
-3 -17 1 10.3 9.9
17 3 -1 16.7 11
20 -3 1 8.5 10.5
3 -20 -1 18.3 9.1
3 17 1 20.5 13
17 -20 1 16.4 11.1
20 -17 -1 23.4 11.6
-3 -17 -1 15.6 14.8
3 17 -1 39.1 13.8
3 -20 1 15.3 10.9
20 -17 1 22.6 11.6
17 -20 -1 21.1 11.6
-3 -17 -1 15.3 10.6
20 -3 -1 18.2 11.7
17 3 1 23.5 11.6
-2 20 -1 409.26 37.3
2 18 1 453.15 38.3
18 2 -1 434.46 35.4
-2 -18 1 430.06 37.7
20 -18 -1 453.55 35.3
-20 18 -1 414.16 42.7
18 -20 1 398.76 34.8
2 -20 -1 411.16 37
2 -20 -1 391.96 35.2
20 -2 1 396.96 34.7
-2 -18 -1 391.06 38.2
20 -18 1 382.46 34.1
-20 18 1 401.56 41.3
2 18 -1 402.26 37.6
18 -20 -1 380.06 34.2
2 -20 1 390.96 37.3
20 -2 -1 371.76 34.3
-2 -18 -1 415.06 37.8
18 2 1 377.36 34.2
-2 20 1 463.15 38.1
1 -20 -1 113.09 19
-20 19 -1 85.99 18.6
1 -20 -1 133.59 22.4
20 -19 -1 148.59 20.4
20 -1 1 115.29 19.1
-1 -19 1 109.89 22.5
19 -20 1 131.59 18.9
19 1 -1 132.09 19.8
1 19 1 171.08 24.5
19 -20 -1 88.69 12.6
-1 -19 -1 54.29 11.4
20 -19 1 76.69 12.4
-20 19 1 105.79 25.8
19 1 1 104.99 18.4
1 -20 1 54.49 11.3
20 -1 -1 62.89 12.1
20 0 1 5.1 9.4
20 0 -1 16.1 10.2
0 -20 -1 24.7 13.5
0 20 1 25.7 12.4
20 -20 -1 15.5 9.9
20 -20 1 9 9.4
0 -20 1 3.6 8.8
0 20 -1 32.7 12.9
0 -20 -1 7.3 8.8
-11 -10 -1 43.7 11.5
21 -11 -1 78.69 13.9
11 10 -1 45.7 15.7
10 -21 -1 43.5 12.7
-10 -11 1 46.2 11.6
10 11 1 23.8 14.2
-21 10 -1 65.39 19.1
-10 -11 -1 59.79 12.3
21 -10 -1 83.59 14.3
-11 -10 1 35.1 11.7
21 -11 1 69.49 14.3
11 -21 -1 53.59 13.1
10 11 -1 51.59 16
-12 21 1 358.96 36.6
9 -21 -1 353.26 33.6
9 12 1 337.47 36.5
21 -9 1 388.96 34.2
21 -12 -1 397.66 34.3
-9 -12 1 363.66 36.5
-9 21 -1 398.46 39.1
-21 12 -1 423.66 42.5
12 9 -1 320.47 35.3
-12 -9 -1 388.46 36.9
-9 21 1 346.07 35.1
21 -12 1 296.77 30.9
-9 -12 -1 302.77 33.1
21 -9 -1 285.17 30.6
-12 -9 1 255.47 31.9
-12 21 -1 364.76 35.9
9 12 -1 237.98 32.4
12 -21 -1 282.67 29.6
21 -13 -1 123.89 14.8
13 8 -1 107.99 17.2
8 13 1 81.39 16.5
-8 -13 1 91.69 13.7
21 -8 1 107.59 14.3
13 8 -1 67.99 13.7
13 -21 1 83.29 14.5
-13 -8 -1 91.09 13.6
8 -21 -1 111.59 14.6
-8 -13 -1 108.39 14.1
21 -13 1 138.69 22.7
8 -21 1 111.69 16.6
21 -8 -1 144.29 16.1
-13 -8 1 116.59 21.8
8 13 -1 84.79 16.7
13 -21 -1 87.39 14.5
21 -7 1 147.89 21.9
14 -21 1 100.39 16.6
7 14 1 127.49 24.7
14 7 -1 124.39 18.5
-7 -14 1 146.29 24.6
21 -14 -1 138.99 22.4
-14 -7 -1 128.09 25.3
7 -21 -1 154.78 21.8
-7 -14 -1 70.59 12.3
7 -21 1 93.79 19.8
14 -21 -1 87.09 13.8
14 7 1 106.39 13.9
21 -7 -1 76.39 13.6
7 14 -1 98.69 17
21 -14 1 91.49 14.8
15 -21 1 33.6 9.7
-15 -6 -1 33 10.3
21 -6 1 63.99 13.1
15 6 -1 33.5 11.1
-6 -15 1 26.4 9.9
6 15 1 55.79 14.1
6 -21 -1 51.09 12.5
-6 21 -1 47.2 14.7
15 -21 -1 133.59 21.1
-6 -15 -1 106.39 14.3
6 15 -1 103.59 17.3
15 6 1 132.49 15.7
21 -6 -1 126.69 21.8
-15 21 -1 126.79 24.9
-6 21 1 126.89 26.5
21 -15 1 114.39 15.6
5 16 1 52.49 13.8
-5 21 -1 23.8 12.4
5 -21 -1 36.7 11.3
21 -16 -1 59.19 12
-16 21 1 38.6 12.9
16 5 -1 33.1 10.6
-5 -16 1 40 10.3
16 -21 1 29.9 9.5
-16 -5 -1 26 8.9
21 -5 1 39.3 11.7
-5 -16 -1 14 13.3
21 -5 -1 27.9 11.7
5 -21 1 21.3 9.4
16 -21 -1 20.3 10.8
5 16 -1 40 13.7
-16 21 -1 10.7 12.4
16 5 1 36.7 12
-5 -16 -1 19.2 10
21 -16 1 34.9 11.8
4 -21 -1 194.08 23
17 -21 1 185.88 20.7
-4 -17 1 151.98 23.3
21 -17 -1 215.88 22.7
17 4 -1 178.88 22
4 17 1 230.08 26.4
-4 -17 1 213.38 24.6
21 -4 1 196.58 22.1
17 -21 -1 187.18 22
-4 21 1 202.08 25.3
4 17 -1 196.58 25.6
21 -17 1 181.98 23
21 -4 -1 192.18 23.8
-4 -17 -1 200.38 26.6
4 -21 1 178.38 25.9
-4 -17 -1 171.98 26.5
17 4 1 200.38 23.5
21 -3 1 81.49 11.8
-3 -18 1 50.99 10.3
3 -21 -1 73.89 11.9
-3 21 -1 46.2 11.4
18 -21 1 55.79 10
3 18 1 104.29 21.3
18 3 -1 65.89 11.1
3 -21 -1 71.49 15.2
21 -18 1 155.98 21.4
3 18 -1 188.08 24
3 -21 1 146.79 24.8
-21 18 1 207.88 27.9
18 -21 -1 147.59 20.8
18 3 1 154.48 21.7
21 -3 -1 137.79 21.9
-3 -18 -1 164.18 25
-3 21 1 191.08 24.9
-3 -18 -1 129.29 25.4
2 19 1 25.7 12.2
2 -21 -1 10.6 6.7
19 2 -1 10.7 9.4
19 -21 1 8.2 7.5
-2 -19 1 8.6 8.4
2 -21 -1 1.6 8.4
21 -2 1 1.2 9.6
-21 19 -1 22.7 15.1
-2 21 -1 9.7 10
21 -19 -1 13.5 10
19 2 1 1 9.5
19 -21 -1 4.7 9.6
2 -21 1 0.8 8.6
2 19 -1 27 12.3
-21 19 1 30.9 15.3
-2 -19 -1 -1 11.9
21 -2 -1 9.5 10.4
-2 -19 -1 7.7 8.6
21 -19 1 7.8 9.9
-2 21 1 13.1 11.9
21 -20 -1 80.79 11.4
21 -1 1 76.29 11.4
-1 21 -1 94.49 18.4
1 -21 -1 69.39 13.9
1 -21 -1 104.79 21.5
20 1 -1 55.49 11
20 1 1 83.69 12.2
-1 21 1 124.39 21.3
21 -1 -1 90.09 13
-1 -20 -1 92.89 15.1
1 20 -1 113.79 20.8
-1 -20 -1 98.19 18.7
1 -21 1 95.19 19.1
20 -21 -1 102.19 16.1
0 -21 -1 106.29 14.6
21 0 -1 115.29 16.3
0 -21 1 99.19 18.9
0 -21 -1 113.99 19.8
0 21 1 150.38 20.4
0 21 -1 139.09 19.3
0 -21 1 114.99 18.1
21 0 1 126.39 17
21 -21 -1 131.39 16.1
22 -11 1 234.18 25.4
-11 22 1 220.18 28.2
-22 11 -1 230.18 34
11 11 -1 178.38 27.6
-22 11 1 238.38 31.4
11 -22 -1 226.78 24.9
-11 -11 1 217.38 28.1
-11 22 -1 252.57 29.1
22 -11 -1 232.08 24.5
-11 -11 -1 224.78 28.2
12 10 -1 32.9 14.1
10 -22 -1 44.9 11.8
-22 10 1 40.9 15.8
22 -10 1 64.59 12.7
22 -12 -1 49.2 11.9
-10 -12 1 27.6 10.4
-12 -10 -1 31.8 10.5
10 12 1 31.4 13.4
-22 10 -1 12.7 14.7
22 -10 -1 18.5 11.3
22 -12 1 12.2 11.8
-12 -10 1 2.9 9.3
12 -22 -1 20.8 10.8
10 12 -1 10.3 13.5
-10 -12 -1 17.2 9.8
-9 22 -1 319.77 33.9
22 -13 -1 282.57 27
9 13 1 244.98 29.7
-13 -9 -1 272.37 30.5
-9 -13 1 281.97 29.5
-13 22 1 324.27 32.9
-22 13 -1 332.67 37.1
13 9 -1 222.48 26.6
9 -22 -1 271.07 27.5
22 -9 1 278.97 28.7
-13 -9 1 238.48 27.2
9 13 -1 229.88 28
-22 13 1 287.47 33.5
13 -22 -1 250.67 26.1
-13 22 -1 267.47 30.3
22 -9 -1 248.38 26.9
-9 -13 -1 230.28 29
-9 22 1 286.57 31.7
22 -13 1 258.47 27.3
22 -8 1 16.1 11.1
8 14 1 0.5 12.9
-14 -8 -1 12.9 9.6
8 -22 -1 8.1 11
-8 -14 1 9.3 9.2
14 8 -1 0.4 8.1
14 -22 1 0.6 5.2
22 -14 -1 22.6 10.9
-8 -14 -1 12.3 9.6
8 -22 1 11.6 4.7
22 -8 -1 7.7 11.2
-14 -8 1 4 5.6
14 8 1 19.7 10.1
22 -14 1 23.2 11.4
14 -22 -1 19.5 10.5
8 14 -1 21.2 12.8
22 -7 1 112.19 19.3
-15 22 1 137.89 24
7 -22 -1 123.39 19.9
-15 -7 -1 124.29 22.6
15 7 -1 102.19 17.3
22 -15 -1 137.99 19.5
-7 22 -1 164.88 26.3
-7 -15 1 114.89 21.7
7 15 1 106.79 21.4
-7 -15 -1 85.39 12.4
7 15 -1 100.19 22.2
15 7 1 118.49 13.9
7 -22 1 81.19 15.7
22 -15 1 92.39 13.6
22 -7 -1 85.59 13.5
-7 22 1 121.29 24.9
15 -22 -1 109.29 19.2
-6 -16 1 155.98 23.3
22 -16 -1 161.68 21.4
22 -6 1 154.28 20.6
-6 22 -1 123.59 25.5
-16 22 1 138.69 24.8
-16 -6 -1 164.88 20.4
16 6 -1 146.29 18.3
6 -22 -1 147.49 20
6 16 1 174.68 23.5
16 -22 -1 175.48 21.3
6 16 -1 184.68 24.4
6 -22 1 148.29 20.2
22 -16 1 174.08 21.7
22 -6 -1 164.78 20.5
16 6 1 196.18 22.8
-6 -16 -1 165.48 23.1
5 -22 -1 40.2 10.3
22 -5 1 52.79 10.5
22 -17 -1 60.59 11
-17 22 1 18.5 10.1
-5 -17 1 32 9
17 5 -1 32.9 9.1
5 -22 1 88.99 16.7
17 -22 -1 106.79 16.9
22 -17 1 97.69 12.7
17 5 1 77.79 12.5
22 -5 -1 67.69 12.1
-5 -17 -1 82.09 11.6
-5 -17 -1 77.89 18.4
5 17 -1 120.49 20.4
-5 22 1 67.69 11.8
4 -22 -1 49.4 9
4 18 1 93.29 20.1
22 -4 1 66.89 10.8
18 4 -1 56.89 9.5
22 -18 -1 79.79 11.5
-4 -18 1 58.89 9.7
-4 -18 -1 94.39 19.8
-4 22 1 54.59 10.7
4 -22 1 39.2 8.7
-4 -18 -1 62.69 11.7
22 -4 -1 59.09 11
18 -22 -1 92.29 15.3
22 -18 1 92.49 16.2
18 4 1 64.99 11.4
-3 -19 1 36.8 8.1
19 3 -1 73.29 12.5
-3 -19 1 57.39 9.2
3 -22 1 47.6 8.8
-3 -19 -1 33.3 8.9
22 -3 -1 61.19 10.5
-22 19 1 63.59 15.3
-3 -19 -1 37.3 11.2
19 -22 -1 60.09 9.6
19 3 1 42.2 9.9
22 -19 1 54.99 9.3
-3 22 1 65.39 12
22 -20 -1 41.3 9.1
22 -2 1 32.8 8.7
-2 -20 1 39.2 8
20 2 -1 25.4 6.9
2 -22 -1 47.5 11.8
22 -2 -1 66.09 10.1
20 -22 -1 81.19 13.7
-2 -20 -1 75.39 16.2
2 -22 1 81.89 16.3
20 2 1 73.09 11.1
2 20 -1 108.99 18.2
-2 22 1 88.29 17.2
-1 -21 1 37.7 7.5
22 -21 -1 46.2 7.8
22 -1 1 57.59 9.4
1 -22 -1 58.99 10.7
22 -1 -1 19.2 5.8
21 -22 -1 29.3 6.2
21 1 1 30 8.5
1 21 -1 44.7 9.6
-1 22 1 42.7 9.6
1 -22 1 26.2 5.8
1 -22 1 39.2 9.7
-1 -21 -1 40.3 8.9
-11 -12 1 134.89 21.9
23 -12 -1 143.79 19.5
-23 12 -1 145.69 28.6
23 -11 1 156.58 19.3
12 11 -1 106.39 20.3
-23 11 1 97.99 24.9
-12 23 1 166.48 24.9
-12 -11 -1 128.19 22.1
11 -23 -1 139.59 18.1
23 -12 1 155.68 19.8
-12 23 -1 192.58 26.1
-23 11 -1 132.49 27
-23 12 1 163.68 28.6
12 -23 -1 142.29 18.9
-11 23 1 166.88 23.6
23 -11 -1 153.58 19.8
11 12 -1 109.79 22.1
-11 -12 -1 161.98 23.1
-12 -11 1 150.48 22.3
-10 23 -1 302.37 31.7
-13 -10 -1 300.97 29.2
10 13 1 257.47 28.1
23 -10 1 304.87 27.5
10 -23 -1 269.57 26.1
-13 23 1 286.67 30.9
23 -13 -1 296.67 27
-23 13 -1 306.47 33.1
-10 -13 1 282.47 28.2
-23 13 1 256.17 30.2
23 -10 -1 246.88 23.9
-10 23 1 228.58 26.5
-13 23 -1 250.67 27.5
10 13 -1 208.58 25.1
-13 -10 1 191.28 22.2
-10 -13 -1 231.48 26
13 -23 -1 242.28 23.1
13 10 1 249.78 23.1
23 -13 1 254.97 23.9
9 14 1 51.59 12.6
-9 -14 1 60.39 9.9
9 -23 -1 66.89 11
-14 -9 -1 44.8 9.9
23 -9 1 83.79 11.8
14 -23 -1 30.2 9.8
23 -14 1 36.3 10.6
14 9 1 36.5 10.1
-9 23 1 54.29 12.7
-9 -14 -1 25.1 8.9
9 14 -1 35.8 11.5
23 -9 -1 38.6 10.4
-15 -8 -1 170.88 22.1
23 -8 1 184.38 20.9
23 -15 -1 191.38 20.8
8 -23 -1 168.18 19.3
8 15 1 166.28 21.5
-8 23 -1 207.68 26.4
-23 15 -1 234.88 29.2
-8 -15 1 166.28 22.2
-15 23 1 176.48 25.8
15 8 1 226.18 22.8
23 -15 1 237.48 22.4
-15 23 -1 212.98 27.8
23 -8 -1 218.88 22.9
-23 15 1 259.77 29.6
-8 -15 -1 208.08 23.9
-8 23 1 177.98 25
15 -23 -1 199.78 21.9
8 15 -1 219.08 24.7
-7 -16 1 16.1 8.1
7 -23 -1 23.3 7.3
-7 23 -1 25 11.5
23 -7 1 35 9.9
23 -16 -1 33.4 9.7
7 16 1 24.5 11.1
-16 23 1 45.7 12.3
23 -16 1 33.4 9.7
-7 -16 -1 20.2 8.4
16 7 1 34.7 10
7 16 -1 28.8 11
-16 23 -1 30.2 11.6
23 -7 -1 31.3 9.8
16 -23 -1 22.8 9.1
-23 17 -1 259.37 29.2
6 17 1 218.68 24.2
23 -6 1 193.28 21.4
-6 -17 1 216.38 23.4
23 -17 -1 224.08 22.2
17 6 1 178.98 19.3
6 17 -1 179.28 22
23 -17 1 177.78 19.1
23 -6 -1 162.18 20.2
-23 17 1 194.48 26.5
-6 -17 -1 169.08 22.2
17 -23 -1 173.38 19.1
5 18 1 91.19 17.8
-5 -18 1 55.49 9.1
23 -5 1 80.59 10.2
18 -23 -1 17.5 7.7
23 -5 -1 17.7 9.3
-5 -18 -1 22.3 8
23 -18 1 24 8
18 5 1 21.2 8.8
-23 19 -1 37.4 12.6
-4 -19 1 35.3 7.3
-23 19 1 51.69 13.6
23 -4 -1 79.59 13.3
19 4 1 85.59 13.4
-4 -19 -1 79.19 15.6
19 -23 -1 74.99 10.5
3 -23 -1 70.89 16.5
23 -3 1 52.89 8.6
3 20 1 78.69 14.8
-3 -20 1 63.49 13.1
23 -20 -1 63.69 10.9
23 -3 -1 25.8 5.7
20 3 1 29.3 7.2
-3 -20 -1 18.9 5.2
-12 24 1 260.87 26.3
12 -24 -1 198.68 19
-24 12 1 208.18 26.6
-12 24 -1 247.78 25.4
-12 -12 1 232.68 21
-24 12 -1 198.98 25.7
12 12 1 245.58 20
-12 -12 -1 260.67 22.9
-13 -11 -1 15.5 7.2
11 -24 -1 8.3 5
-11 -13 1 8.4 6.8
-13 24 1 29 11
24 -11 1 13.7 8.5
24 -13 -1 23.2 8.6
-24 13 -1 19.1 13.5
24 -13 1 13.3 8.6
11 13 -1 1.6 9.3
-11 -13 -1 6.2 7.3
13 -24 -1 7.5 5.8
-11 24 1 20.1 10.7
-24 13 1 21 13.4
13 11 1 15.4 7.6
24 -11 -1 16.9 8.4
24 -14 -1 103.09 15.3
-10 24 -1 120.79 19.8
-24 14 -1 118.49 23.3
-14 -10 -1 89.19 15.7
-10 -14 1 83.69 16.8
-14 24 1 112.39 21
24 -10 1 69.69 11.3
-10 24 1 99.69 19.8
14 10 1 82.29 12.7
24 -14 1 63.19 10
-10 -14 -1 95.29 17.6
-24 14 1 102.09 22.1
14 -24 -1 56.99 10.6
24 -10 -1 67.29 10.4
10 14 -1 61.69 12.2
24 -9 1 178.68 17.7
-15 -9 -1 120.39 14.7
-9 -15 1 147.69 18.6
-15 24 1 151.28 20.8
9 15 1 113.59 16.7
-9 24 -1 168.18 22.3
24 -15 -1 172.98 17.1
-24 15 1 184.98 24.9
9 15 -1 155.48 19.1
-15 24 -1 145.99 21.5
24 -15 1 179.48 17.6
-9 24 1 122.39 20
-9 -15 -1 149.39 18.7
15 9 1 174.78 17
24 -9 -1 167.38 17.6
-16 24 1 12.9 10.7
24 -16 -1 26.9 8.7
-24 16 -1 42.4 13.8
8 16 1 18 9.2
24 -8 1 23.8 8.3
-8 -16 1 15 6.9
16 -24 -1 2.2 4.2
16 8 1 7.7 7.4
-8 -16 -1 5.2 6.5
24 -16 1 9.3 7.2
-24 16 1 28.1 13.1
8 16 -1 20.8 9.6
-16 24 -1 4.8 10.1
24 -8 -1 13.6 8.6
-7 -17 1 138.39 17.2
24 -7 1 141.59 16.5
7 17 1 133.89 17
-24 17 -1 163.58 24
24 -17 -1 163.08 16.7
-7 -17 -1 182.18 19.1
24 -17 1 148.29 15.3
24 -7 -1 190.88 18
-24 17 1 188.28 24
17 7 1 174.08 17
7 17 -1 182.68 19.8
6 18 1 8.8 8.3
-24 18 -1 25.4 12.8
-6 -18 1 11.4 5.9
24 -18 -1 12.3 7.3
6 -24 -1 5.3 6.8
24 -6 1 9.1 7.7
18 6 1 7.1 5.4
-6 -18 -1 10 6.2
24 -6 -1 16.4 7
6 18 -1 29.4 9.1
-24 18 1 18.7 12.2
-13 25 1 38.2 10.4
25 -12 1 53.59 8
-12 25 -1 73.39 16.4
25 -13 -1 60.59 8.5
25 -12 -1 20.6 7
-12 -13 -1 13.4 4.9
25 -13 1 19.6 6.3
-12 25 1 22.3 9.1
-13 25 -1 32.2 10
-11 25 -1 57.99 10.9
25 -11 1 66.39 10.5
25 -14 -1 73.39 11.2
-14 25 1 50.89 10.5
-11 25 1 60.59 10.1
25 -14 1 83.29 9.6
-14 25 -1 92.79 16.8
-25 14 1 52.79 11.9
-11 -14 -1 78.29 12.4
25 -11 -1 81.19 11.8
0 0 2 -1.4 4
0 0 2 -2.2 2.7
0 0 -2 0.5 1.1
0 0 -2 2.4 2.8
0 0 2 0.7 1.2
0 0 -2 2.8 4.1
1 0 -2 1976.8 125.69
1 -1 -2 1643.14 124.29
-1 1 -2 1886.81 124.89
1 0 2 1687.43 124.29
-1 0 2 1671.33 124.49
-1 1 2 1914.01 124.29
0 1 -2 1871.71 125.59
1 -1 2 1792.02 124.19
1 0 -2 1920.41 124.49
0 1 2 1923.71 124.39
0 1 -2 1997.6 124.89
0 1 2 1614.64 125.29
-1 0 2 1900.21 124.19
0 -1 -2 1531.05 124.29
1 0 -2 1524.25 124.19
-1 1 2 1590.64 125.19
-1 1 2 1905.71 124.39
-1 1 -2 1931.61 124.19
1 -1 -2 1832.12 125.19
2 -1 -2 5882.71 361.96
1 1 2 4810.62 360.76
-1 2 2 5419.36 360.66
2 -1 2 5001.6 361.36
-1 2 -2 5022 360.46
-1 2 2 5414.76 360.76
-2 1 -2 5029 360.56
1 1 2 5275.97 360.66
1 1 -2 5356.86 361.96
-1 2 -2 5246.98 361.76
-2 1 -2 5481.75 361.26
-1 2 -2 5166.18 361.26
1 1 -2 4865.71 361.06
1 1 2 4915.31 361.26
-2 1 2 5347.77 360.66
-2 2 -2 2147.29 134.59
0 2 2 2031 134.89
-2 2 2 1800.52 134.69
2 0 2 1834.42 135.59
-2 0 2 1970.8 134.59
0 2 -2 1930.11 135.99
0 2 -2 1957.4 135.39
-2 2 2 1931.31 134.29
2 0 -2 2135.19 136.39
0 2 -2 1963.4 134.39
-2 0 2 1669.13 134.59
0 2 2 1962.9 134.89
2 0 -2 1998.8 134.79
-2 2 -2 1883.91 135.29
2 -2 -2 1966 135.39
0 2 2 1903.21 135.09
-1 3 -2 2228.48 164.88
3 -2 -2 2619.24 166.48
1 2 2 2372.06 165.98
-1 3 -2 2485.85 166.48
-3 1 2 2357.86 165.08
-2 3 2 2225.78 165.18
-1 3 -2 2363.76 165.98
2 1 -2 2305.87 165.48
1 2 2 2402.86 165.28
1 2 2 2225.58 165.28
-3 2 -2 2399.96 165.08
2 1 -2 2462.05 166.98
3 -1 2 2402.36 166.28
-2 3 2 2416.86 165.08
-3 2 -2 2464.35 165.88
1 -3 2 1094.69 82.69
-1 3 2 1254.17 83.49
2 -3 -2 1225.38 82.79
0 3 2 4883.61 323.47
0 3 2 4610.24 323.07
3 0 -2 4516.15 324.67
3 -3 2 4737.43 323.77
-3 3 -2 4706.33 323.67
3 0 2 4125.29 323.97
-3 3 -2 5077.39 322.87
3 0 -2 4352.36 322.97
0 3 -2 4547.35 323.77
-3 0 -2 4511.25 322.97
3 -3 -2 5060.39 323.57
0 3 -2 4621.64 322.67
0 3 -2 4873.51 324.37
0 3 2 5254.67 323.27
-3 3 2 4640.94 322.97
-3 3 2 4184.08 322.57
-3 0 2 4610.24 322.77
2 2 -2 2881.21 217.08
-4 2 -2 3359.06 216.18
-2 4 2 3048.99 215.08
2 2 2 3065.99 215.48
-2 4 -2 3177.68 216.58
4 -2 -2 3038.6 214.88
-4 2 -2 3180.78 215.38
-2 4 -2 3185.18 215.18
-2 4 2 3127.79 215.58
-2 4 -2 2967 216.28
4 -2 -2 3424.46 217.38
2 2 2 3092.59 216.78
-2 4 2 3058.49 215.58
2 2 -2 3036.6 215.98
4 -2 2 3127.99 216.58
-4 2 2 2965.1 215.28
2 2 2 3072.89 215.68
-4 3 -2 2904.81 185.88
3 1 -2 2593.54 187.88
-1 4 -2 2709.93 185.58
-1 4 -2 2867.11 187.28
-4 3 -2 2733.03 186.58
-4 1 2 2642.44 185.78
3 1 -2 2540.15 186.18
1 3 2 2674.83 186.98
1 3 2 2560.84 185.88
1 3 2 2754.32 186.28
4 -1 2 2496.55 187.18
-3 4 2 2731.23 185.98
-3 4 2 2800.92 185.88
-1 4 -2 2479.35 186.78
-1 4 2 2832.52 176.08
4 -3 2 2717.73 176.88
1 3 -2 2616.54 177.48
-3 4 -2 2593.24 175.48
3 1 2 2581.84 175.98
3 1 2 2256.07 176.98
-4 3 2 2385.16 175.58
-3 4 -2 2437.36 176.48
-1 4 2 2585.34 175.78
-3 -1 2 2717.63 175.58
4 -1 -2 2407.16 177.68
4 -1 -2 2430.06 175.38
1 3 -2 2382.86 175.28
-4 1 -2 2450.65 175.58
1 3 -2 2544.55 176.48
3 -4 -2 2522.05 175.48
-1 4 2 2550.14 175.78
4 0 2 424.16 30.2
0 4 -2 408.26 31.8
-4 4 -2 412.06 30.6
0 4 2 404.76 29.9
-4 4 2 411.86 29.8
4 0 -2 362.96 33.1
4 0 -2 402.06 29.8
-4 0 2 402.76 29.5
-4 0 -2 413.66 29.9
-4 4 2 393.26 29.2
0 4 -2 420.36 29.3
4 0 2 409.16 32.5
0 4 2 412.06 30.5
0 4 -2 384.76 31.1
4 -4 -2 478.65 30.9
0 4 2 358.56 30.7
4 -4 2 443.16 31.1
-4 4 -2 438.26 29.7
5 -2 2 2938.41 209.68
-3 5 2 3163.08 208.28
2 3 2 2779.32 209.58
5 -3 -2 3410.66 210.38
-2 5 -2 3014.6 209.18
2 3 2 3051.29 208.18
-2 5 -2 2985.7 209.18
-5 3 -2 3223.48 208.08
-3 5 2 3076.49 208.28
-2 5 -2 2893.31 207.78
-5 3 -2 3170.88 208.78
3 2 -2 2652.73 210.08
2 3 2 2940.11 208.38
5 -3 -2 2856.81 207.38
3 2 -2 2724.43 208.48
-5 2 2 3061.59 207.98
3 2 2 2673.03 181.38
5 -2 -2 2735.43 183.78
-2 5 2 2229.18 180.48
3 2 2 2625.94 183.28
-3 5 -2 2505.95 182.08
2 3 -2 2585.74 180.78
-2 5 2 2735.13 181.48
-5 2 -2 2695.73 180.98
5 -3 2 2616.64 182.48
5 -2 -2 2629.74 180.68
-3 5 -2 2769.42 180.88
2 3 -2 2487.85 183.08
-2 5 2 2619.54 181.18
2 3 -2 2550.64 181.88
-5 3 2 2626.24 180.98
-1 5 -2 1823.62 130.59
4 1 -2 1822.72 129.69
4 1 -2 1656.23 131.79
1 4 2 1830.02 129.39
-4 5 2 1859.11 129.49
5 -1 2 1747.93 131.39
-5 1 2 1882.81 129.19
5 -4 -2 2072.89 130.99
-1 5 -2 1939.71 130.79
-1 5 -2 1916.31 128.99
-5 4 -2 1761.92 129.89
-5 4 -2 1986.6 129.29
-4 5 2 1656.23 129.09
1 4 2 1755.82 130.59
4 -5 2 1934.81 130.19
1 4 2 2016.8 129.99
-1 5 2 1614.34 103.79
-4 5 -2 1507.35 104.09
-1 5 2 1518.75 103.09
-5 4 2 1423.46 102.89
-5 4 2 1482.65 102.49
-1 5 2 1274.57 103.09
1 4 -2 1487.05 102.69
4 -5 -2 1391.16 102.49
4 1 2 1413.56 105.59
-4 5 -2 1466.35 102.89
-4 -1 2 1559.84 102.89
4 1 2 1508.55 103.39
5 -1 -2 1464.65 102.89
5 -1 -2 1359.76 105.99
-5 1 -2 1320.67 102.79
1 4 -2 1453.25 104.09
1 4 -2 1589.74 105.39
5 -4 2 1692.63 104.79
-5 5 2 5816.02 412.66
-5 5 2 5940.01 413.06
0 5 2 5410.96 413.66
-5 0 2 5874.01 412.86
5 0 2 6295.27 413.46
-5 5 -2 5936.61 413.76
0 5 -2 5917.51 414.26
0 5 2 5900.91 413.06
0 5 -2 5930.41 412.66
0 5 2 6707.23 413.86
0 5 -2 6250.27 414.76
5 0 2 5658.63 415.36
-5 0 -2 5811.42 412.96
5 0 -2 6043.6 413.16
-5 5 -2 5947.4 412.86
3 3 2 797.32 53.49
3 3 2 800.12 52.99
3 3 -2 672.83 55.49
6 -3 -2 757.62 56.39
-3 6 2 742.73 52.89
-3 6 -2 691.53 52.29
6 -3 2 740.13 55.29
-3 6 -2 733.53 54.19
-6 3 2 725.53 52.49
-6 3 -2 737.93 52.69
6 -3 -2 722.63 51.99
3 3 -2 731.93 53.89
3 3 2 737.43 56.09
-3 6 2 749.42 53.29
-6 2 2 2666.13 182.18
-2 6 -2 2519.25 183.38
2 4 2 2662.73 182.28
2 4 2 2599.14 182.78
4 2 -2 2503.85 182.78
-4 6 2 2663.13 182.48
-2 6 -2 2656.63 181.88
-6 4 -2 2921.21 182.38
-2 6 -2 2501.55 183.48
2 4 2 2374.16 183.98
-4 6 2 2607.14 182.38
-6 4 -2 2629.84 182.88
4 2 -2 2471.25 185.28
6 -2 2 2581.04 184.78
6 -4 -2 2907.51 184.98
-6 4 2 2198.18 155.88
-6 2 -2 2188.78 155.88
6 -4 2 2540.35 158.28
-2 6 2 2404.66 156.78
4 2 2 2258.97 156.38
6 -2 -2 2411.26 155.78
-4 6 -2 2132.39 155.68
2 4 -2 2175.48 158.28
-4 6 -2 2087.89 156.98
2 4 -2 2174.28 155.68
4 2 2 2130.69 158.88
2 4 -2 2256.17 157.18
6 -2 -2 2091.49 159.28
-2 6 2 2278.07 156.08
-5 6 2 1585.54 112.59
1 5 2 1685.53 113.59
-6 5 -2 1612.14 113.39
5 -6 2 1710.33 113.69
-5 6 2 1690.73 112.79
5 1 -2 1447.16 116.29
-1 6 -2 1641.54 114.19
1 5 2 1446.26 114.09
-6 1 2 1568.94 112.39
6 -1 2 1539.65 115.69
-1 6 -2 1668.83 114.29
5 1 -2 1365.26 112.89
1 5 2 1607.64 112.69
-6 5 -2 1652.73 112.59
6 -1 2 1787.52 113.39
-1 6 -2 1718.43 112.49
1 5 -2 1404.16 97.79
1 5 -2 1303.47 99.39
1 5 -2 1408.76 100.59
-5 -1 2 1439.86 97.99
-6 5 2 1337.37 97.59
-1 6 2 1506.25 99.19
5 1 2 1342.37 101.69
-5 6 -2 1473.75 97.99
-1 6 2 1304.97 98.19
6 -1 -2 1394.56 98.09
5 1 2 1377.66 98.49
-6 1 -2 1382.56 97.99
-1 6 2 1472.25 98.39
-5 6 -2 1412.56 99.29
6 -1 -2 1208.28 101.99
-6 5 2 1395.06 98.09
6 -5 2 1591.94 100.29
0 6 2 127.99 15
-6 6 2 125.19 12.2
6 0 -2 144.09 23.2
6 0 2 107.29 19.5
0 6 2 151.48 16.8
0 6 -2 140.09 12.5
-6 6 2 132.59 13.2
0 6 2 146.09 13
6 -6 -2 135.59 13.7
6 0 2 133.69 14.2
-6 6 -2 151.08 15.2
0 6 -2 150.38 17.7
6 0 -2 127.79 13.6
-6 0 2 143.19 13.2
-6 0 -2 130.69 13.4
0 6 -2 126.79 16.3
6 -6 2 159.68 16.8
-6 6 -2 162.78 13.7
-4 7 2 1445.26 109.39
-7 4 -2 1705.53 109.09
7 -4 -2 1635.64 113.19
-3 7 -2 1545.95 108.69
-7 4 -2 1675.53 109.89
-3 7 -2 1499.05 110.09
3 4 2 1560.24 109.59
7 -4 -2 1456.55 108.19
-4 7 2 1633.44 109.29
4 3 -2 1375.26 112.09
3 4 2 1575.74 109.09
-7 3 2 1669.13 109.09
-3 7 -2 1585.04 110.69
7 -3 2 1528.75 112.29
3 4 2 1444.26 111.59
4 3 -2 1491.45 109.79
7 -4 2 1855.51 118.29
-4 7 -2 1684.53 114.39
3 4 -2 1591.34 117.59
3 4 -2 1627.54 114.29
-4 7 -2 1693.43 116.39
-3 7 2 1617.14 114.69
-3 7 2 1711.83 115.39
4 3 2 1766.22 114.99
7 -3 -2 1454.55 119.09
4 3 2 1632.64 115.09
-7 4 2 1691.53 114.59
-7 3 -2 1652.63 114.49
3 4 -2 1475.75 115.59
7 -3 -2 1558.14 113.99
4 3 2 1487.65 117.69
-7 5 -2 3456.85 249.58
5 -7 2 3559.74 249.48
2 5 2 3874.31 249.97
-5 7 2 3925.61 249.38
-2 7 -2 3547.25 248.68
-2 7 -2 3492.65 250.57
-7 2 2 3166.38 248.68
2 5 2 3550.14 251.17
-2 7 -2 3584.24 250.17
7 -2 2 3564.04 249.38
-7 5 -2 4098.79 249.28
2 5 2 3621.14 249.08
5 2 -2 3539.35 249.78
7 -5 -2 3700.33 251.67
-5 7 2 3353.86 249.18
5 2 -2 3360.16 252.67
7 -2 2 3486.45 252.37
5 2 2 3048.69 222.08
-2 7 2 3334.57 219.48
-7 2 -2 3261.57 218.48
7 -2 -2 2654.03 218.08
7 -5 2 3346.97 220.88
-5 7 -2 3271.07 218.28
-5 7 -2 3048.79 219.58
2 5 -2 3170.98 218.08
5 2 2 3347.47 219.18
2 5 -2 2897.41 219.58
-2 7 2 3121.09 218.58
-7 5 2 3077.29 218.38
2 5 -2 3230.08 221.28
-6 7 2 68.39 10.1
1 6 2 82.29 13.7
6 -7 2 82.59 13.3
7 -6 -2 74.29 14
7 -1 2 94.19 13.9
6 1 -2 79.59 12.3
-1 7 -2 77.99 14.2
-1 7 -2 81.39 14.3
-7 6 -2 104.69 11.5
6 1 -2 94.29 20.1
-6 7 2 103.19 12.3
-7 6 -2 79.69 12.2
1 6 2 73.49 13.6
-7 1 2 80.49 11.4
1 6 2 82.39 11.9
7 -1 2 91.29 18.7
-1 7 -2 77.49 10.9
-6 -1 2 29.8 7.3
-6 7 -2 27.6 6.9
6 1 2 24.6 14.3
-1 7 2 39.7 10.3
1 6 -2 26.3 11
-7 6 2 22.8 6.2
1 6 -2 33.5 12.7
-6 -1 2 22.6 5.8
-7 6 2 23.1 5.4
-7 1 -2 18 5.7
-6 7 -2 33.5 10.5
7 -6 2 26.9 10.7
6 1 2 32.8 9.2
7 -1 -2 40.1 18.8
-1 7 2 12.2 5.9
-7 1 -2 28.4 7.5
-1 7 2 26.2 7.7
-7 6 2 34.2 7.5
7 -1 -2 28.4 7.5
1 6 -2 25.1 6.5
7 0 2 191.68 26.9
0 7 -2 240.18 22.5
-7 0 2 204.58 18.5
0 7 -2 220.08 18
0 7 2 180.28 19.3
0 7 2 225.48 19.2
-7 7 2 181.08 17.2
0 7 -2 229.98 23.8
7 0 -2 205.98 19.1
-7 0 -2 189.88 18.9
0 7 2 227.88 21.3
-7 7 2 235.88 18.9
-7 7 -2 232.48 20
-7 0 -2 224.28 18.6
-7 7 -2 231.98 18.4
-7 0 2 236.28 18.5
7 0 -2 157.18 29.5
7 0 2 259.37 21.2
7 -7 2 242.28 21.4
-4 8 -2 1408.86 106.29
-4 8 2 1454.15 107.39
4 4 -2 1383.06 110.19
4 4 -2 1522.85 106.29
8 -4 -2 1489.35 112.69
8 -4 2 1497.05 110.69
-4 8 2 1702.43 107.19
-4 8 -2 1602.54 108.89
4 4 2 1648.64 111.19
4 4 -2 1391.06 107.69
-8 4 -2 1573.64 106.59
-8 4 2 1552.54 106.59
4 4 2 1655.13 106.89
4 4 2 1588.44 107.49
-4 8 2 1239.48 107.29
3 5 2 530.95 43.5
-3 8 -2 538.45 38.3
3 5 2 526.15 38.8
-5 8 2 496.45 39.2
3 5 2 547.85 40.5
5 3 -2 492.25 45.8
-8 3 2 521.45 38.4
-3 8 -2 490.25 39.5
8 -3 2 501.05 44.5
-5 8 2 451.85 39.3
-8 5 -2 553.34 39.9
-8 5 -2 574.24 39.2
8 -5 -2 486.95 45.1
5 3 -2 491.15 40.4
-3 8 -2 524.85 41.9
-5 8 2 564.24 39.5
-3 8 2 570.74 44.3
-8 5 2 566.84 43
-8 3 -2 623.24 43.7
3 5 -2 563.84 47.4
5 3 2 618.44 44.3
3 5 -2 582.64 45.9
5 3 2 585.54 48.8
5 3 2 627.84 43.7
-5 8 -2 614.54 43.2
-5 8 -2 583.84 45.2
8 -5 2 599.74 48.7
-3 8 2 593.94 43.5
3 5 -2 606.14 43.1
-3 8 2 511.85 44
-2 8 -2 157.08 14.9
-8 6 -2 154.88 17.6
2 6 2 175.08 19.9
-8 6 -2 164.88 16.1
-6 8 2 150.68 16.4
-2 8 -2 159.08 20.8
6 2 -2 138.09 27.8
-2 8 -2 154.68 17.1
2 6 2 167.68 16
6 2 -2 163.08 18.8
8 -2 2 121.09 24
2 6 2 175.48 21
-6 8 2 175.78 17
8 -6 -2 130.79 19.9
-6 8 2 136.29 15.7
-8 2 2 156.98 16
8 -2 2 182.28 18.3
-8 2 -2 148.39 15.4
-6 8 -2 190.98 19.3
-8 2 -2 154.88 15.7
2 6 -2 182.48 15.4
2 6 -2 165.88 19.9
-6 -2 2 154.18 15.9
-8 6 2 175.28 16.2
8 -2 -2 111.19 26.4
-2 8 2 187.98 19.8
2 6 -2 190.58 23
6 2 2 187.08 18.6
-2 8 2 170.58 16
8 -2 -2 139.09 14.1
-8 6 2 139.39 16
8 -6 2 180.38 23.8
-6 8 -2 172.68 15.7
-2 8 2 140.79 15.3
7 1 -2 816.22 56.59
8 -1 2 763.62 56.39
-8 7 -2 830.72 55.39
-8 1 2 677.73 55.49
-1 8 -2 774.12 57.29
7 1 -2 727.03 65.49
-8 1 2 816.92 55.59
-7 8 2 632.64 55.59
-8 7 -2 788.82 56.69
1 7 2 644.14 56.69
8 -1 2 791.82 63.69
-1 8 -2 767.02 58.39
-1 8 -2 752.42 55.19
1 7 2 892.61 56.09
-7 -1 -2 810.52 56.19
-1 8 2 727.53 54.09
-7 -1 2 756.02 52.29
8 -7 2 707.73 55.29
-8 7 2 762.42 52.59
-1 8 2 709.93 52.29
7 1 2 679.13 58.69
-7 -1 2 623.24 52.49
1 7 -2 762.42 56.49
-7 8 -2 766.62 54.29
-7 8 -2 738.63 52.19
1 7 -2 748.63 55.89
-8 1 -2 666.53 52.59
7 1 2 747.63 53.29
1 7 -2 680.43 51.59
-8 1 -2 697.23 52.19
-8 0 2 -4.1 7.3
0 8 2 1.2 7.4
0 8 -2 -4.1 9.8
0 8 -2 3.1 12.9
8 0 -2 8.3 7.5
-8 0 2 1.7 8
-8 8 2 7.4 8.2
-8 8 2 14.7 6.1
8 0 2 -1.5 10.1
-8 8 2 0.5 8.2
-8 0 -2 -0.5 8.4
-8 8 -2 7.9 8.1
8 0 2 -12.8 18
0 8 -2 2.6 6.1
-8 8 -2 5.3 10.3
-8 8 2 -5.3 4.9
0 8 2 5.9 12
-8 8 -2 -13.7 8.9
8 -8 2 16.3 8.6
8 0 -2 -27.5 20.3
-5 9 2 152.68 17.1
-5 9 2 131.49 15.9
5 4 -2 142.79 19.2
-4 9 -2 148.39 21.9
-9 4 2 131.59 15
-9 5 -2 146.79 14.9
-9 4 2 121.19 14.8
4 5 2 128.49 23.4
4 5 2 124.19 17.1
-9 5 -2 107.49 17.1
-4 -5 2 119.29 13.6
5 4 -2 141.79 14.6
5 4 -2 123.59 23.7
9 -5 -2 114.79 24.3
9 -4 2 130.49 24.5
-4 9 -2 132.99 14.3
4 5 2 137.19 16.7
-5 9 2 140.99 17.7
-9 5 2 112.49 15.6
9 -4 -2 171.28 30.2
-9 4 -2 167.08 16.3
5 4 2 142.19 17
-9 4 -2 111.59 13.4
-5 9 -2 150.88 19.8
5 4 2 159.88 16.7
-5 -4 2 135.29 15.2
-4 9 2 139.69 17.9
-4 9 2 152.78 17.9
-5 9 -2 94.79 18.3
5 4 2 135.39 23.2
-9 5 2 130.89 14.7
-5 9 -2 148.79 14.6
4 5 -2 125.59 19.4
9 -5 2 152.98 26.6
-9 4 -2 114.29 17.4
4 5 -2 145.79 24.8
4 5 -2 155.58 14.5
-4 9 2 158.88 16.9
3 6 2 1071.49 69.69
-6 -3 -2 786.92 68.79
6 3 -2 974.7 77.29
-9 3 2 941.11 68.89
-9 6 -2 1030.3 69.29
-6 9 2 1087.69 69.89
-9 6 -2 908.61 69.59
9 -3 2 1028.9 77.09
-3 9 -2 933.51 68.39
6 3 -2 946.31 70.79
3 6 2 839.72 70.09
-3 9 -2 907.91 70.89
9 -3 2 1035.8 69.69
3 6 2 963.3 72.89
-3 9 -2 1010 72.29
-6 9 2 887.41 69.89
3 6 -2 1078.49 78.29
-6 -3 2 1029.8 73.99
-3 9 2 962.3 74.39
6 3 2 992.9 78.89
-6 9 -2 1073.29 75.39
9 -6 2 1172.98 78.99
-6 9 -2 862.21 74.29
3 6 -2 1079.99 72.69
9 -3 -2 865.81 81.89
-9 3 -2 1068.89 73.49
-9 6 2 1065.59 73.09
-3 9 2 985.2 73.09
6 3 2 1011.7 74.09
-9 3 -2 1060.99 73.09
-9 3 -2 1023.8 74.29
6 3 2 1065.99 73.39
-6 9 -2 998.2 72.69
-3 9 2 987.5 74.19
3 6 -2 951 75.19
7 2 -2 2615.24 218.98
-7 9 2 2892.71 218.98
-7 -2 -2 3174.18 218.88
9 -2 2 3185.88 224.18
-9 2 2 2863.31 218.28
-9 7 -2 2716.03 219.28
-9 7 -2 3192.78 219.28
2 7 2 3486.05 218.78
-2 9 -2 3097.99 220.88
-2 9 -2 3042.5 219.78
7 2 -2 3081.69 224.98
9 -2 2 3336.97 219.18
2 7 2 3584.54 220.58
-7 9 2 3460.65 218.78
-9 7 -2 3211.78 218.38
-9 2 2 3113.79 218.18
-7 -2 2 2756.62 194.78
-7 9 -2 2538.25 194.88
2 7 -2 2716.83 196.38
2 7 -2 2864.11 197.68
-9 2 -2 2776.42 194.08
9 -2 -2 2435.76 202.58
2 7 -2 2646.04 193.58
-9 7 2 2848.92 193.98
-2 9 2 2658.63 194.78
-7 9 -2 2886.71 193.98
-7 9 -2 2925.41 195.88
-9 2 -2 3074.09 194.68
-2 9 2 2722.03 194.08
7 2 2 2916.21 199.98
-2 9 2 2937.61 195.68
-9 7 2 2388.86 194.48
7 2 2 3094.99 195.28
-8 -1 -2 564.74 40.9
-8 9 2 502.55 41
1 8 2 586.84 43.2
1 8 2 601.54 41.1
-1 9 -2 519.05 43.1
-1 9 -2 584.84 44.8
-8 9 2 577.14 40.9
-9 1 2 514.25 40.5
-9 1 2 541.15 40.4
-9 8 -2 443.16 41.8
9 -1 2 494.15 49.1
-9 8 -2 458.05 39.4
8 1 -2 527.75 52.99
-8 9 2 536.35 41.3
9 -1 2 553.94 41.4
-9 8 -2 516.35 41.3
9 -1 -2 466.65 58.59
-9 8 2 602.34 43.6
-8 -1 2 600.14 44.3
-9 8 2 582.44 45.1
-1 9 2 604.14 46.6
-8 9 -2 516.05 45.2
-1 9 2 551.84 43.6
-8 9 -2 546.55 43
-8 9 -2 606.64 45.7
-9 1 -2 639.44 44.1
-9 1 -2 637.94 44.2
8 1 2 548.85 53.49
1 8 -2 547.95 47.2
8 1 2 621.04 45.1
0 9 2 307.27 25.7
-9 9 -2 272.77 27
-9 9 2 323.27 27
9 0 2 330.67 38.7
-9 9 2 303.07 25.9
9 0 2 291.17 26.4
-9 9 -2 233.38 25.1
9 0 -2 235.08 40.8
0 9 2 309.77 28.6
-9 0 2 304.07 26.5
-9 0 -2 321.87 25.6
0 9 -2 251.07 29.5
-9 9 2 318.57 25.8
-9 0 2 244.78 23.5
-5 10 -2 716.53 55.29
5 5 2 640.74 52.49
10 -5 2 772.42 59.49
-10 5 -2 744.53 53.19
5 5 2 746.23 51.59
5 5 2 733.93 58.29
-5 -5 2 732.73 52.39
-5 10 2 723.13 52.09
-5 10 2 661.33 52.59
5 5 -2 650.73 58.29
5 5 -2 667.43 53.49
-10 5 2 665.43 50.99
-10 5 -2 610.14 50.29
-10 5 -2 731.03 51.39
-10 5 2 648.84 51.79
-5 10 -2 641.34 53.59
-6 10 2 136.29 18
-6 -4 -2 115.39 14.8
4 6 2 130.09 16.1
-6 10 2 133.09 18.3
-10 4 2 126.69 15.5
6 4 -2 115.99 13.2
6 4 -2 93.49 22.6
-10 4 2 117.79 15.8
-4 -6 2 126.69 14.2
-10 6 -2 122.59 18.2
4 6 2 122.99 18.6
4 6 2 103.69 20.6
-4 10 -2 148.39 23.9
-4 10 -2 91.89 20.1
6 4 -2 139.49 18.1
10 -4 2 153.98 26.4
-10 6 -2 115.49 15.2
10 -4 2 121.69 15.4
-10 6 2 171.48 17.8
4 6 -2 133.29 20.5
10 -6 2 158.18 24
-10 6 2 140.99 16
10 -4 -2 103.59 26.9
-4 10 2 103.59 16.2
-10 4 -2 155.68 17.2
-4 10 2 168.88 21.5
-6 10 -2 131.09 20.2
-4 10 2 138.19 16.9
-6 -4 2 163.68 17.6
4 6 -2 128.99 25.1
6 4 2 163.48 18.8
6 4 2 155.98 25.2
4 6 -2 123.49 14.2
-10 4 -2 166.28 19.9
-6 10 -2 163.48 22.3
6 4 2 157.88 16.8
-10 4 -2 167.58 17.1
-3 10 -2 509.15 42.6
-10 3 2 484.15 38.6
10 -3 2 558.74 49.9
3 7 2 505.15 41.8
-10 3 2 448.86 38.9
-3 10 -2 503.95 43.8
-7 10 2 538.55 42
3 7 2 550.74 40.3
-7 10 2 574.34 39.8
7 3 -2 486.15 51.49
-10 3 2 482.65 39
-10 7 -2 493.15 40.9
10 -3 2 475.05 39.7
-7 -3 -2 539.25 39.9
7 3 2 578.34 45
-10 3 -2 488.25 42.9
-10 3 -2 643.04 45.6
10 -3 -2 463.45 55.09
-7 10 -2 537.85 45.3
-7 -3 2 604.14 44.5
7 3 2 636.14 53.59
-3 10 2 588.54 44
-7 10 -2 580.64 45.5
-10 3 -2 630.84 44.3
3 7 -2 578.54 46.6
-3 10 2 573.44 45
-10 7 2 574.54 43.6
7 3 2 588.84 43.8
-10 7 2 531.45 44.2
10 -2 2 762.12 62.99
-8 10 2 614.54 54.09
-2 10 -2 729.93 56.89
2 8 2 750.52 56.59
-10 2 2 709.13 53.99
-8 10 2 762.72 54.69
-10 2 2 756.12 54.49
8 2 -2 727.93 65.49
2 8 2 719.53 54.29
-8 10 2 753.92 55.89
-10 8 -2 705.13 55.99
-2 10 -2 761.02 58.09
-8 -2 -2 816.52 55.19
-2 10 2 761.72 55.89
-10 2 -2 685.03 55.19
-8 -2 2 851.11 56.79
8 2 2 814.62 65.89
2 8 -2 790.42 59.69
-10 2 -2 843.32 56.29
-10 8 2 780.72 55.79
-8 10 -2 766.82 57.09
-2 10 2 794.72 56.89
8 2 2 726.33 56.59
10 -2 -2 581.34 68.29
-8 10 -2 639.24 56.49
-10 8 2 727.53 56.49
-10 1 2 340.77 27.9
1 9 2 275.87 26.6
9 1 -2 273.57 44.2
-9 10 2 336.97 28.1
-1 10 -2 296.27 30.4
-9 10 2 332.37 29.1
-1 10 -2 344.07 31.5
-9 10 2 309.37 27.2
10 -1 2 300.57 35.8
-10 9 -2 327.07 29.6
-9 -1 -2 373.56 29
-1 10 2 301.17 26.6
-9 -1 2 347.87 27.3
-9 10 -2 302.27 28.7
-10 9 2 250.37 24.8
9 1 2 313.77 36.4
-1 10 2 268.97 25.2
-10 1 -2 350.76 26.9
-10 9 2 346.07 27.6
1 9 -2 247.58 29.1
-9 10 -2 306.87 28.3
-10 10 -2 34.4 14
0 10 2 0.7 6.3
-10 10 2 19.8 10.4
0 10 -2 8 12.3
-10 0 2 43 11.5
10 0 2 29 19.6
10 0 2 3 8.5
0 10 -2 16.2 12.5
0 10 2 8.6 12.6
-10 0 2 1.3 6.4
-10 10 2 41.9 11.1
10 0 -2 -10 22
-10 10 2 5.5 7.4
5 6 2 489.15 37.2
-6 11 2 525.45 39.9
-5 -6 2 527.55 39
-6 -5 -2 445.56 36.9
-5 11 -2 501.65 41.9
5 6 2 445.96 38.5
-11 5 2 485.25 37.6
-5 11 -2 386.46 39.7
-11 5 2 366.66 35.6
-11 6 -2 502.65 39.2
-6 -5 2 563.64 40.1
-11 5 -2 509.15 38.3
-11 5 -2 563.54 41.3
-11 6 2 524.35 39.6
6 5 2 422.46 37.9
-11 6 2 405.06 37.4
-5 11 2 540.35 40.7
-5 11 2 440.66 38
6 5 2 442.56 39.3
-6 11 -2 542.85 41.9
4 7 2 619.54 52.89
-4 -7 2 664.83 51.29
4 7 2 577.04 50.69
-7 11 2 629.44 50.99
-4 11 -2 784.02 54.69
-11 4 2 733.83 51.79
-7 11 2 789.82 53.19
-11 4 2 638.44 50.19
-11 4 -2 859.61 62.09
-7 11 -2 842.22 64.59
-7 -4 2 871.21 62.69
-4 11 2 912.51 63.29
-11 7 2 832.22 62.49
7 4 2 715.83 61.29
-8 11 2 26.7 8.9
11 -3 2 29.2 16.5
-3 11 -2 46.9 13.6
11 -3 2 4.5 9.2
3 8 2 35.5 9
8 3 -2 12.8 19.6
3 8 2 32.8 11
8 3 2 33.7 15.7
3 8 -2 28.6 13.7
11 -3 -2 -13.2 22.5
-11 3 -2 23 7.9
-11 8 2 31 8.1
8 3 2 56.29 9.6
8 3 2 38.8 10.2
-3 11 2 37.5 8.5
-11 2 2 224.28 19.8
-11 2 -2 642.44 45.6
-9 11 -2 598.34 47.8
-9 -2 2 595.74 45.9
-9 11 -2 516.95 46.5
-11 9 2 608.74 46.3
-2 11 2 577.14 46.2
-11 1 2 654.63 48.2
-10 11 2 598.44 48.4
-10 11 2 655.73 49.9
-10 -1 -2 645.24 48.2
-1 11 -2 560.44 50.89
-11 10 -2 637.54 50.39
-10 -1 2 662.73 49.5
-11 10 2 662.03 49.8
-10 11 -2 622.74 51.19
-1 11 2 577.64 49.3
-11 1 -2 680.43 49.8
-11 0 -2 15.6 10.2
-11 11 2 27.1 11.9
-11 11 2 7.9 10.5
-11 11 -2 9.7 12.8
0 11 -2 -8.4 12.6
-11 0 2 13 10.4
-12 6 -2 10.4 9.1
-6 -6 2 13.2 11.2
-12 6 -2 30.7 14.4
-6 12 2 17.7 12.7
-6 12 -2 7.3 14.7
-12 6 2 30.7 11.9
-6 12 2 9.8 7.5
-6 -6 -2 -3.9 8.3
6 6 2 -0.6 7.3
6 6 2 17.5 11.5
-5 12 -2 444.46 41.2
-5 -7 2 440.76 38.4
-12 5 2 441.86 37.5
-12 7 -2 473.55 39
-7 12 2 511.45 40.5
-7 -5 -2 459.05 38.5
-12 5 -2 313.37 29.9
-7 12 -2 385.16 36.2
-12 5 -2 382.66 33.4
-7 -5 2 359.16 32.8
-5 12 2 375.86 32.9
-12 7 2 368.96 31.6
-4 12 -2 196.78 28.5
-12 8 -2 219.48 22.9
-8 12 2 209.78 25.4
-12 4 2 171.48 19.4
-4 -8 2 151.28 18.4
-12 4 2 191.18 21.3
-8 -4 -2 207.38 21.3
-8 12 -2 204.28 26.9
-12 8 2 200.48 22.1
-12 4 -2 208.38 26.2
-4 12 2 185.98 23
-12 4 -2 181.38 20.2
-8 -4 2 178.88 21.6
-3 12 -2 339.97 36.5
-9 -3 -2 385.76 32.2
-12 9 -2 344.47 32.1
-9 12 2 373.86 32.8
-12 3 2 327.17 31.1
-3 12 2 413.36 34.9
-9 12 -2 408.56 35.9
-12 3 -2 400.56 33.1
-12 3 -2 345.97 34.7
-12 9 2 429.86 34.5
-9 -3 2 400.36 35.1
-10 -2 -2 173.78 19.9
-10 12 2 174.48 22.4
-10 12 2 137.29 19.3
-12 10 -2 172.28 21.7
-2 12 -2 154.88 24.7
-12 2 2 146.09 19.3
-10 12 -2 77.09 17
-10 -2 2 85.69 14.5
-2 12 2 82.99 16.1
-12 10 2 98.89 17.6
-12 2 -2 65.59 13.2
-10 12 -2 48.1 14.4
-12 11 -2 607.44 46.5
-11 12 2 520.25 44.8
-11 12 2 550.14 46.3
-11 -1 -2 581.54 45.5
-1 12 -2 505.65 46.8
-12 1 2 624.14 45.8
-12 11 2 570.44 43.7
-11 12 -2 514.55 43
-1 12 2 421.46 41.5
-11 -1 2 560.64 41.9
-12 1 -2 519.25 41.4
-12 0 2 93.49 15.5
-12 12 2 60.69 15.1
-12 0 -2 105.19 16.3
-12 12 -2 93.19 19.7
-12 12 2 110.09 21.1
-13 7 -2 41.1 15.4
-6 13 -2 60.79 17.4
-7 13 2 24.3 13.5
-7 -6 -2 16 11.4
-6 -7 2 9 11.7
-13 6 2 28.9 13.4
-13 6 -2 40.8 14.7
-7 -6 2 34.5 13.4
-6 13 2 54.99 14.6
-13 7 2 37.1 13.1
-13 6 -2 26 11.6
-7 13 -2 56.69 17
-8 13 2 198.98 23.9
-5 13 -2 209.98 27.5
-8 -5 -2 184.08 22.1
-13 5 2 171.48 23.4
-13 8 -2 194.78 23.2
-5 -8 2 144.09 21.2
-13 5 -2 147.29 20.2
-13 8 2 191.78 22.4
-8 -5 2 178.28 24.2
-8 13 -2 220.88 26.6
-13 5 -2 190.08 24.1
-5 13 2 192.18 23.8
-13 4 2 777.82 68.19
-9 -4 -2 1027.4 69.79
-13 4 2 823.02 67.59
-13 9 -2 951.2 69.79
-9 13 2 925.61 69.59
-4 13 -2 1033 73.09
-9 -4 2 1083.99 80.49
-9 13 -2 1093.79 81.69
-13 4 -2 1077.89 81.59
-4 13 2 1113.29 80.99
-13 4 -2 1041.6 79.59
-13 9 2 1133.29 81.29
-10 -3 -2 365.26 33
-13 3 2 304.17 30.8
-13 10 -2 381.26 33
-3 13 -2 364.36 38.1
-10 13 2 352.16 35
-3 13 2 385.16 36.4
-13 3 -2 407.56 34.9
-10 -3 2 441.26 36.9
-13 3 -2 356.06 37.2
-10 13 -2 451.55 37.9
-13 10 2 446.06 36.4
-13 2 2 39.7 13.2
-11 13 2 38 12.9
-2 13 -2 34.1 16.9
-11 13 2 51.79 16.4
-11 -2 -2 40.3 12.8
-11 13 -2 24.5 14.7
-13 11 2 56.79 15.9
-11 -2 2 43 12.7
-11 13 -2 24.4 14.6
-2 13 2 33.5 14.4
-13 2 -2 37 13.1
-13 12 -2 174.48 23.1
-12 13 2 125.39 23.2
-12 13 2 148.49 21.2
-13 1 2 141.99 20.8
-12 -1 -2 157.38 22.4
-1 13 -2 108.19 25.2
-12 13 -2 36.4 13.4
-12 -1 2 66.69 15.3
-13 12 2 97.09 19
-13 1 -2 58.69 13.6
-12 13 -2 53.39 16.1
-13 0 -2 -5 12.6
-13 13 -2 25.1 15.3
-13 13 2 -5.5 11.3
0 13 -2 -4.6 9.8
-13 13 2 24.7 15.9
-13 0 2 5.8 13.3
-7 -7 2 13.2 13
-14 7 2 25.2 14.6
-14 7 -2 38.8 15.9
-7 -7 -2 11.1 10.7
-7 14 2 32.9 15.4
-7 14 -2 51.19 17.5
-14 6 2 329.17 31.3
-8 -6 -2 281.17 30.5
-8 14 2 313.97 31.4
-6 -8 2 291.47 30.2
-14 8 -2 339.07 31.2
-6 14 2 326.87 33.6
-14 6 -2 370.36 34.1
-14 8 2 310.57 30.2
-8 -6 2 321.47 31
-14 6 -2 259.27 29.1
-14 5 2 142.39 20.2
-5 14 -2 228.38 29.9
-9 -5 -2 199.68 25.8
-14 9 -2 216.98 26.1
-9 14 2 193.38 25.2
-14 5 2 156.78 23.9
-14 5 -2 140.19 21.1
-5 14 2 179.48 24.6
-14 9 2 181.28 23
-9 -5 2 177.68 25.1
-9 14 -2 229.28 30
-14 5 -2 182.58 25.5
-14 4 2 177.28 25.4
-10 14 2 246.38 29.8
-14 10 -2 240.98 26.5
-4 14 -2 255.27 34
-10 -4 -2 242.48 27.7
-14 4 -2 200.78 28.5
-14 10 2 236.98 26.1
-4 14 2 242.38 29.1
-10 14 -2 258.07 29.4
-14 4 -2 205.68 24.5
-10 -4 2 233.18 26
-14 11 -2 719.63 56.89
-14 3 2 646.54 53.99
-11 -3 -2 755.52 55.99
-11 14 2 700.33 56.69
-3 14 -2 673.33 57.69
-11 14 -2 547.35 46.7
-14 3 -2 541.25 45.3
-11 -3 2 558.04 45.2
-14 11 2 575.24 46
-3 14 2 525.25 45.8
-12 14 2 120.69 21.8
-12 14 2 150.38 25.7
-12 -2 -2 147.49 21.5
-14 2 2 144.49 23.5
-2 14 -2 150.68 28.9
-14 2 -2 114.69 17.4
-12 -2 2 130.59 22.5
-12 14 -2 107.19 23.8
-12 14 -2 92.59 18.5
-2 14 2 78.39 17.3
-13 14 2 8.6 14.6
-14 13 -2 47.7 16.4
-1 14 -2 -1.9 14.7
-14 1 2 22.7 14.7
-13 -1 -2 33.3 14.8
-13 14 2 26 14.6
-13 14 -2 46.8 17.7
-14 1 -2 23.1 13
-14 13 2 38.3 15.8
-13 14 -2 9 12.8
-13 -1 2 32.5 14
0 -14 2 71.09 12.6
-14 14 -2 125.99 25.7
-14 14 2 123.39 24.9
-14 0 -2 92.09 18
-14 0 2 92.49 17.5
-15 8 -2 647.34 50.49
-8 15 2 657.23 51.69
-7 -8 2 510.45 48.3
-7 15 -2 719.63 53.79
-15 7 2 610.44 49.4
-8 -7 -2 522.55 49
-8 15 -2 782.82 59.09
-7 15 2 660.33 56.49
-8 -7 2 669.43 56.79
-15 7 -2 722.73 58.09
-15 8 2 701.43 56.79
-15 9 -2 239.28 26.5
-15 6 2 200.08 25.2
-9 -6 -2 188.38 27
-9 15 2 219.58 27.7
-15 6 -2 207.38 27.3
-6 15 2 278.17 30.1
-15 6 -2 244.08 30.1
-9 -6 2 246.08 30.2
-9 15 -2 300.27 32.5
-15 9 2 275.47 28.3
-15 5 2 768.92 69.29
-10 -5 -2 1014.2 72.39
-10 15 2 932.91 72.29
-15 10 -2 926.51 71.29
-5 15 -2 1027.9 75.69
-5 15 2 1094.49 81.79
-15 10 2 1113.29 81.29
-10 -5 2 1130.39 80.59
-10 15 -2 1208.48 83.59
-15 5 -2 909.31 80.49
-15 5 -2 973.3 79.49
-11 15 2 423.06 39.6
-15 4 2 368.36 37.7
-15 11 -2 433.96 38.8
-4 15 -2 457.45 42.8
-11 -4 -2 430.86 39.7
-11 -4 2 653.03 50.39
-15 4 -2 568.94 50.09
-4 15 2 578.34 52.29
-15 11 2 625.64 50.59
-11 15 -2 653.93 52.59
-15 12 -2 475.05 41
-12 -3 -2 406.26 39.5
-3 15 -2 423.16 43.6
-15 3 2 397.46 38.8
-12 15 2 408.16 39.8
-12 -3 2 473.05 40.6
-3 15 2 447.26 43
-12 15 -2 433.26 43.8
-15 12 2 542.75 43.6
-15 3 -2 424.76 39.6
15 -13 -2 120.99 13.4
15 -2 2 102.39 12.9
-2 -13 2 142.69 15.7
-13 15 2 94.69 19.9
-13 15 -2 132.69 20.7
2 -15 2 158.78 15.4
13 -15 -2 136.89 14.6
-2 15 2 137.39 23
15 -1 2 228.98 22.8
15 -14 -2 248.18 23.5
-15 14 -2 308.07 33.7
-1 -14 2 304.87 27.4
-14 15 2 233.68 28.4
1 -15 -2 200.88 21.4
-15 1 2 272.47 29
-14 -1 -2 280.87 28.9
14 -15 -2 211.18 21.7
-14 -1 2 231.88 29.2
-14 15 -2 180.58 28.3
-15 14 2 250.97 28.7
1 -15 2 238.98 24.4
14 1 2 224.38 20.7
-1 -14 -2 185.18 19.7
-15 1 -2 222.88 26.5
15 -15 -2 119.49 21.2
-15 15 -2 149.99 27.5
-15 15 2 163.98 27.9
-15 0 2 153.48 27
0 -15 2 177.38 26
15 0 2 167.78 19.8
-15 0 -2 127.39 23.6
0 -15 -2 142.49 19.2
-8 -8 2 58.59 16.8
-16 8 2 83.79 18.5
-16 8 -2 85.29 19.5
-8 16 2 137.49 27.5
-9 16 2 640.64 51.39
-9 -7 -2 501.35 49.4
-16 9 -2 672.03 52.29
-16 7 2 611.04 50.09
-7 -9 -2 253.67 21.7
16 -10 -2 79.19 9.7
-16 10 -2 46 14.7
-6 -10 -2 85.29 11.8
-6 -10 -2 53.39 9.7
16 -5 2 58.29 11.3
-16 5 2 89.39 18.2
-16 11 -2 92.99 17
-16 5 2 133.29 19.9
16 -11 -2 96.39 12.1
5 11 -2 139.19 18.9
-16 11 2 132.59 22.2
-5 -11 -2 139.89 15.8
-16 5 -2 200.38 26.4
-5 -11 -2 157.88 15.2
11 -16 -2 136.79 14.9
-12 16 2 658.83 51.79
-12 -4 -2 644.54 48.5
-4 -12 2 505.15 43.3
-4 16 -2 619.94 53.39
16 -12 -2 520.75 42.5
16 -4 2 506.85 42.4
-16 4 2 559.54 47.6
4 12 -2 570.64 48.2
12 -16 -2 623.74 46.2
-4 -12 -2 595.94 46.2
-16 12 2 744.93 53.09
-16 4 -2 635.44 51.49
-16 12 2 553.64 50.09
-4 16 2 664.53 54.49
-13 -3 -2 223.68 28
16 -3 2 218.18 22.5
-3 16 -2 265.57 34.7
-13 16 2 230.48 33
-3 -13 2 271.87 26.2
-16 13 -2 182.48 31
3 -16 -2 190.98 20.4
-16 3 2 207.68 26.5
16 -13 -2 194.68 22.7
-3 -13 -2 158.68 19.1
-16 13 2 200.28 27.3
-13 16 -2 150.48 28.1
-3 -13 -2 148.89 19
-13 -3 2 186.88 27.7
3 13 -2 139.19 23.3
3 -16 2 189.68 21.9
13 -16 -2 152.68 19.6
-16 13 2 161.28 28.6
-16 3 -2 146.09 23.6
-3 16 2 129.39 26.9
16 -14 -2 208.98 25.3
16 -2 2 241.28 24.3
-2 -14 2 260.17 30.1
-16 2 2 223.88 30.4
-16 14 -2 266.97 33
-14 -2 -2 221.58 30.5
2 -16 -2 216.68 23.2
2 -16 2 362.66 32.4
14 -16 -2 302.37 28.7
2 14 -2 321.57 31.6
-14 -2 2 314.87 32.4
-16 14 2 326.77 36.2
-2 -14 -2 274.97 27.6
-16 2 -2 303.37 33.4
-2 -14 -2 313.97 28.5
-16 14 2 246.78 33.9
-1 -15 2 58.89 13
16 -15 -2 66.59 13.4
-16 15 -2 87.09 20.6
16 -1 2 73.89 13
-15 -1 -2 59.39 18.6
1 -16 -2 52.69 12.4
-16 1 2 67.29 18.4
15 -16 -2 50.69 12.6
-1 -15 -2 47.6 12.8
1 15 -2 45.2 13.8
-16 1 -2 41.4 17
1 -16 2 36.1 11.8
-16 15 2 51.79 19.4
-1 -15 -2 35.6 9.2
16 -1 -2 20.8 7.7
-15 -1 2 50.29 17.9
-16 15 2 27.6 15.9
15 1 2 48.2 11.4
-16 0 2 8.1 15.8
-16 16 -2 -14.7 11.3
16 0 -2 -1.7 8
-16 0 -2 -14.4 16.1
0 -16 -2 11.1 8.1
16 0 2 24.2 12.1
0 -16 -2 15.8 11.8
16 -16 -2 1.7 11.2
0 16 -2 9.3 13.5
0 -16 2 4.8 11.3
-9 17 2 608.74 54.79
-8 17 -2 614.54 56.39
8 -17 -2 719.13 52.09
-17 8 2 792.22 59.19
-9 -8 -2 807.02 55.09
-17 9 -2 791.22 59.89
17 -8 2 618.14 51.79
17 -9 -2 719.23 52.49
17 -8 -2 550.34 42
-17 9 2 567.54 47.9
-8 17 2 621.04 49.7
-8 17 2 481.75 46.2
-9 -8 2 510.25 46.9
-9 17 -2 488.75 46.4
-8 -9 -2 611.94 45.9
-17 8 -2 626.74 50.49
9 -17 -2 547.45 41.9
8 9 -2 515.05 44.6
17 -7 2 150.68 18.7
-17 7 2 131.69 27
-7 17 -2 143.49 27.6
-17 10 -2 166.08 31.5
7 -17 -2 119.59 18.2
17 -10 -2 141.69 20.3
-10 17 2 215.08 32.6
-10 17 2 194.48 27
-10 -7 -2 153.18 23.7
-17 10 -2 188.48 26.8
17 -7 -2 235.78 23.9
7 10 -2 241.38 28.3
-17 7 -2 259.47 33.6
-10 -7 2 260.67 32
10 -17 -2 226.68 24.3
-10 17 -2 227.78 29.4
-17 10 2 324.87 34
-17 10 2 269.57 33.3
-7 -10 -2 298.57 28.9
-7 17 2 305.27 33.8
-7 17 2 216.58 29
-17 11 -2 828.12 71.69
17 -6 2 974.9 66.29
-6 -11 2 810.42 66.29
6 -17 -2 847.22 65.29
17 -11 -2 1003.8 66.49
-11 -6 -2 924.31 67.39
-17 11 -2 958.4 71.09
-11 -6 -2 769.12 69.99
-11 17 2 998.3 73.39
-17 11 2 1036.5 77.89
6 11 -2 1036.8 75.59
-17 11 2 902.11 76.49
-6 17 2 1013 79.49
17 -6 -2 888.71 72.39
11 -17 -2 1031.5 72.89
-11 17 -2 1154.88 81.69
-12 17 2 418.36 41.5
-12 -5 -2 363.56 35.1
-12 -5 -2 387.96 41
-5 17 -2 457.85 45.6
-17 12 -2 435.66 41.9
-17 12 -2 479.95 44.4
-5 -12 2 400.46 36.7
5 -17 -2 343.67 33.4
17 -12 -2 405.86 35.4
17 -5 2 417.26 35.4
-5 17 2 305.07 38.2
-17 5 -2 269.67 32.3
-17 12 2 365.56 36.8
-12 -5 2 311.67 34.5
-5 -12 -2 328.27 31.8
12 -17 -2 290.87 28.5
17 -5 -2 246.68 25.5
-12 17 -2 340.67 37.6
5 12 -2 281.67 31.6
-5 -12 -2 285.57 29
5 -17 2 280.27 27.5
17 -13 -2 241.08 26
-4 -13 2 233.58 29.4
4 -17 -2 217.48 25.1
-4 17 -2 235.98 35.5
-13 17 2 259.37 35.9
-13 -4 -2 243.98 31.9
-13 -4 -2 242.88 25.3
17 -4 2 238.78 25.7
-13 17 -2 268.87 34.8
-17 4 -2 226.28 30.7
4 -17 2 285.57 30.2
17 -4 -2 250.07 23.7
-4 17 2 191.68 31.9
-4 -13 -2 267.27 27.2
-4 -13 -2 297.87 30.5
-17 13 2 308.67 35
4 13 -2 232.08 29.6
-13 -4 2 241.88 32.1
13 -17 -2 235.18 26.8
-14 -3 -2 239.78 32.9
-3 -14 2 262.77 31.9
17 -3 2 277.17 28
3 -17 -2 232.78 25.5
-14 -3 -2 222.98 26.2
-17 3 2 228.78 29.7
-17 14 -2 322.37 34.9
17 -14 -2 256.27 27.4
14 -17 -2 239.78 27
17 -3 -2 254.27 24.5
3 14 -2 256.27 31.2
-3 -14 -2 245.78 27.1
-3 -14 -2 263.87 31.7
-17 14 2 284.77 34.6
-14 -3 2 257.27 32.8
3 -17 2 272.27 32.4
-17 3 -2 238.98 31.5
-15 -2 -2 63.89 18.4
-17 15 -2 76.09 19.5
2 -17 -2 45.6 12.3
17 -15 -2 68.59 13.6
-17 2 2 48.7 16.3
17 -2 2 65.49 12.8
-15 -2 -2 39.9 9
15 2 -2 31.5 8
-2 -15 2 43.5 12.1
-15 -2 2 57.79 19
15 -17 -2 82.89 14.1
-17 15 2 80.69 22
2 15 -2 76.09 16.6
-2 -15 -2 53.59 12.7
2 -17 2 65.79 13.7
15 2 2 76.99 12.9
17 -15 2 45.4 9.9
17 -2 -2 72.19 12.4
-2 -15 -2 75.49 14.5
-17 2 -2 39.1 16.7
16 1 -2 93.69 12.8
-16 -1 -2 91.29 19.1
-1 -16 2 92.39 14.6
1 -17 -2 123.29 19.3
-1 17 -2 142.29 23.4
17 -16 -2 126.99 21.5
1 -17 -2 116.59 20.2
-17 1 2 80.29 19.3
17 -1 -2 73.89 12.4
-16 -1 2 56.89 17.7
16 1 2 127.29 19.9
-17 1 -2 72.19 17.9
17 -16 2 73.79 11.1
-17 17 2 26.6 16.9
17 -17 -2 24.1 12
0 -17 -2 13.1 10.7
17 -17 2 18.9 8.9
-17 0 2 15.6 14.3
17 0 -2 17.3 10.2
17 0 2 29.9 11.7
0 -17 -2 26 12.7
-17 0 -2 26.4 16.3
0 -17 2 18.8 12
-17 17 -2 -1.9 15.6
0 17 -2 49.5 15.3
9 -18 2 73.99 12.3
-18 9 -2 158.38 28.3
9 9 -2 68.69 17.3
18 -9 2 121.89 16.4
9 -18 -2 102.39 15.1
-18 9 2 110.09 22.9
-18 9 -2 106.19 21
18 -9 -2 124.69 16.3
-18 9 2 126.99 30.1
-9 18 2 163.98 29.9
-18 10 -2 534.95 52.49
-10 18 2 628.44 54.19
-8 18 -2 687.53 54.39
-18 8 2 506.05 49.99
-8 18 -2 598.24 51.79
-10 -8 -2 586.44 48.8
18 -8 2 635.74 46.5
-8 -10 2 550.04 44.7
-10 18 2 491.25 47.3
8 -18 -2 552.84 44.5
18 -10 -2 579.54 46.1
-18 10 -2 556.44 51.29
10 8 -2 499.15 46.5
-18 10 2 593.04 53.19
10 -18 -2 628.24 49
18 -10 2 672.23 48.8
-8 18 2 552.44 50.89
-8 18 2 670.03 56.99
18 -8 -2 655.43 49.1
-18 10 2 609.54 53.89
-8 -10 -2 664.93 52.39
-10 18 -2 626.34 54.49
-18 8 -2 577.94 54.39
8 10 -2 648.94 52.49
7 -18 -2 143.79 22
18 -7 2 165.18 24.6
-7 -11 2 158.08 25.2
11 7 -2 121.39 22.9
-18 11 -2 219.98 30.9
-11 -7 -2 157.18 28
18 -11 -2 164.58 24.2
-11 18 2 218.18 36.1
-7 -11 -2 181.28 29.1
7 11 -2 146.39 27.9
7 -18 2 175.68 21.8
-11 -7 2 160.48 25.8
-18 11 2 197.78 29.2
-7 18 2 185.88 31.8
18 -11 2 178.98 23.5
-7 18 2 215.38 27.3
11 -18 -2 174.68 23.8
18 -7 -2 170.88 23.7
-6 18 -2 168.18 29.6
6 -18 -2 130.09 22.3
-6 -12 2 149.29 27.6
-12 -6 -2 134.79 28.1
18 -6 2 156.68 24.3
18 -12 -2 150.88 24.5
-18 12 -2 207.88 31
-12 18 2 191.98 27.2
-12 18 2 156.28 31.5
12 -18 -2 162.68 23.5
18 -6 -2 158.48 24.2
18 -12 2 172.78 23.8
-6 18 2 165.38 26.1
6 12 -2 161.18 26.9
-12 -6 2 162.88 26.8
-6 -12 -2 167.38 28.9
6 -18 2 208.28 25.3
-12 18 -2 164.28 28.1
-6 18 2 192.68 34.7
-18 12 2 220.48 29.3
-13 18 2 62.19 22.2
5 -18 -2 62.89 13.4
-5 18 -2 91.09 23
18 -13 -2 77.59 14.5
-5 -13 2 44.1 12.8
-13 -5 -2 26.2 11.2
-13 -5 -2 26.3 16.4
5 13 2 47.9 14.9
-18 13 -2 84.89 20.1
-5 18 -2 54.29 16.3
18 -5 2 52.89 12.7
-13 18 -2 90.99 16.7
-5 18 2 71.99 14.7
-5 -13 -2 103.89 15
-18 13 2 139.89 26.8
-5 -13 -2 89.69 17
13 -18 -2 122.19 15.4
18 -13 2 79.99 14.1
18 -5 -2 79.69 14
-13 -5 2 86.99 20.5
5 -18 2 80.89 13.8
-5 18 2 45.3 19.4
-14 -4 -2 72.99 12.7
-14 18 2 80.69 15.1
4 -18 -2 75.89 12.9
-4 -14 2 52.49 12.9
-14 -4 -2 72.89 18.3
4 -18 2 60.19 13.3
-18 4 -2 59.19 16.8
-14 -4 2 47.3 17.6
18 -14 2 62.69 13.1
-4 -14 -2 56.29 12.9
14 -18 -2 68.39 13.5
18 -4 -2 82.29 13.8
-4 -14 -2 62.59 14.1
-15 -3 -2 104.99 21.7
-3 -15 2 132.59 27.1
18 -15 -2 124.89 22.6
3 15 2 157.48 24.6
-18 15 -2 152.58 28
3 -18 -2 135.79 20.8
18 -3 2 141.79 21.8
-15 -3 -2 128.69 24.9
-15 -3 2 49.3 17.2
-3 -15 -2 83.49 13.9
-18 15 2 67.39 21.4
-3 -15 -2 84.79 14.3
18 -3 -2 76.49 13.3
15 -18 -2 72.89 13.3
18 -15 2 91.49 13.6
3 -18 2 58.39 13.1
-18 3 -2 40.2 15.5
-2 18 -2 143.49 23.3
-16 -2 -2 136.59 24.3
18 -2 2 182.78 23.3
-2 -16 2 158.38 26.6
2 -18 -2 157.08 20.9
18 -16 -2 156.58 23.6
2 -18 -2 160.08 22.8
-16 -2 -2 166.68 24.7
16 2 -2 129.69 19.9
-16 -2 2 89.89 19.7
2 -18 2 113.89 16
18 -16 2 118.29 20.5
16 -18 -2 122.79 22.1
-18 2 -2 84.09 18.5
-2 -16 -2 153.18 29.4
16 2 2 143.39 21.6
-2 -16 -2 123.09 16.2
18 -2 -2 113.59 20.7
2 16 -2 167.88 27.3
18 -1 2 65.09 12.8
17 -18 2 33.8 9.4
17 1 -2 34.3 10.8
-1 -17 2 38.2 11.7
-1 18 -2 53.49 14.4
1 -18 -2 28.8 10.7
1 -18 -2 55.69 12.9
-17 -1 -2 30.9 12.4
18 -17 -2 50.29 12.6
18 -17 2 27.7 11.1
1 -18 2 33.2 12.1
17 -18 -2 34.7 12.4
-17 -1 2 4.4 10.9
-1 -17 -2 30 12.5
18 -1 -2 28.7 11.2
1 17 -2 48.2 14.9
-1 -17 -2 21.9 11.7
-18 1 -2 31.4 11.8
17 1 2 52.09 12.4
18 0 2 104.69 13.4
0 -18 2 78.39 13.2
-18 18 2 91.49 19.8
-18 18 -2 45 17.2
0 -18 -2 55.99 12.7
18 0 -2 87.69 12.8
0 -18 -2 78.99 13.2
18 -18 2 70.29 12
-10 -9 -2 89.09 14.1
-10 19 2 153.78 30.5
9 -19 -2 88.39 14.5
-9 -10 2 83.19 13.4
-19 10 -2 90.09 21
10 9 -2 89.99 17.9
10 -19 2 89.19 12.5
19 -10 -2 130.29 16.3
-19 9 2 59.89 19.4
19 -9 2 123.49 16.3
-19 10 2 85.19 22.4
-19 9 -2 136.39 33.4
-9 -10 -2 70.39 13.8
9 -19 2 97.29 15.2
-9 19 2 155.58 34.2
9 10 -2 84.99 18.5
10 -19 -2 91.39 14.7
-19 9 -2 48.1 18.3
19 -10 2 91.49 16.1
19 -9 -2 116.59 16.4
-11 -8 -2 156.98 29.5
-19 11 -2 178.38 29.8
-11 19 2 203.88 35.9
11 8 -2 116.39 26.7
8 -19 -2 160.98 23.7
19 -11 -2 155.48 24.6
-8 -11 2 147.09 26.6
19 -8 2 179.68 26
-19 11 -2 226.68 32.7
8 -19 2 170.58 22.3
-19 11 2 188.28 28.8
11 -19 -2 161.18 23.1
19 -8 -2 165.78 24.2
-8 19 2 190.58 36.4
8 11 -2 142.99 29.1
-8 -11 -2 170.48 28
19 -11 2 130.79 18.9
-12 -7 -2 180.68 28.7
-12 19 2 197.48 33.1
7 12 2 121.99 26.8
19 -12 -2 164.78 26.1
-19 12 -2 206.08 31.1
-7 -12 2 169.38 28.7
19 -7 2 179.58 26.1
-7 19 -2 251.97 36.1
-12 19 2 226.38 28.8
7 -19 -2 173.88 24
-7 19 -2 248.18 34.1
-7 -12 -2 100.69 14.7
-7 19 2 63.89 21.5
7 12 -2 103.09 18.4
-19 12 2 102.49 22.9
12 -19 -2 102.29 14.6
19 -12 2 81.69 15.7
19 -7 -2 94.39 15.2
7 -19 2 120.29 23.8
-6 -13 2 0.5 11.2
19 -13 -2 4.8 12.6
6 -19 -2 1.1 11.7
-6 19 -2 15.4 16
-6 19 -2 30 15.6
-13 -6 -2 0.6 8.7
13 6 -2 -1.7 4.8
6 13 2 -3.2 13.8
19 -6 2 11.7 12.3
-13 -6 -2 -1.6 10.5
-13 19 2 10.8 20.5
13 6 -2 -5.8 10.1
-19 13 -2 39.8 18
19 -13 2 12.3 13.5
-13 -6 2 7.8 13
13 -19 -2 23.4 12.5
-13 19 -2 37.4 18.2
-6 -13 -2 10.2 11.9
6 -19 2 19 11.5
-6 -13 -2 4.7 13.8
-19 13 2 45.5 21
19 -6 -2 25.7 13.5
6 13 -2 30.5 15.8
-19 14 -2 39.2 18.2
-5 19 -2 37.9 15.6
-5 -14 2 17.3 11.4
19 -14 -2 33.5 13.1
5 14 2 20.9 14.1
-5 19 -2 0 11.2
14 5 -2 4.5 6.6
-14 -5 -2 18.4 11
19 -5 2 26.5 12.7
-14 -5 -2 0.3 9.1
5 -19 -2 18.6 11.5
-14 -5 2 15 13.9
19 -14 2 21.4 12.9
-5 19 2 31.2 14.4
-5 -14 -2 26.3 16
14 -19 -2 26.6 12.1
-5 -14 -2 18.8 11.6
19 -5 -2 18.4 13.2
5 -19 2 18.5 11.5
-14 19 -2 42.3 14.2
5 14 -2 32.9 14.9
-19 14 2 33.3 20.4
19 -15 -2 56.89 13.1
19 -4 2 55.59 12.6
-15 19 2 34.3 13.1
4 15 2 53.29 14.9
-15 -4 -2 16.9 9.9
15 4 -2 15.9 9.3
-4 19 -2 25.6 13.4
-15 -4 -2 33.2 11.2
-4 -15 2 27.1 11.2
-19 15 -2 24.2 13.9
4 -19 -2 42.5 12.1
-19 15 2 6.3 15.8
15 4 2 50.49 12.3
-15 -4 2 7.4 11.8
4 -19 2 32.6 12.2
4 15 -2 42.4 14.9
15 -19 -2 37.8 12.4
-4 -15 -2 18.1 16
19 -15 2 28.3 12.8
19 -4 -2 42.2 13.2
-4 -15 -2 29.6 12.5
-16 19 2 98.59 15
-3 19 -2 131.29 18.7
3 -19 -2 133.29 15.9
16 3 2 265.37 27.1
19 -3 -2 269.37 29
-3 -16 -2 268.67 35
3 -19 2 253.17 32.7
16 -19 -2 242.78 27.9
-3 -16 -2 296.77 32.6
19 -16 2 259.37 27.7
3 16 -2 305.57 32.1
-3 -16 -2 252.57 27.4
19 -17 -2 20.7 12
17 -19 2 10.4 7.4
19 -2 2 19.2 10.9
2 -19 -2 20.5 8.4
2 -19 -2 16.6 11.7
17 2 -2 18 10.4
2 17 2 41.9 14.6
-17 -2 -2 9.5 7.1
-2 19 -2 38.3 12.5
-2 -17 2 10.3 10.3
17 2 2 38.2 11.8
19 -17 2 23.3 11.6
19 -2 -2 43 12.5
-2 -17 -2 28.1 11.4
17 -19 -2 45.6 12.6
-2 -17 -2 28 11.8
2 -19 2 31.7 11.5
19 -18 -2 24.2 11.7
18 -19 2 23.1 8.4
19 -1 2 48.9 11.2
-1 19 -2 35 13
-19 18 -2 50.29 18.1
18 1 -2 21.3 10.1
1 18 2 55.39 14.7
-1 -18 2 21.5 10.9
1 -19 -2 24.7 9.8
1 -19 -2 36.2 12.2
19 -1 -2 8.6 10.4
1 18 -2 37.7 14.4
-1 -18 -2 9.3 10.9
-1 -18 -2 6.7 10.3
18 -19 -2 18.9 11.3
1 -19 2 9.8 10.4
19 -18 2 10.6 10.5
18 1 2 27.7 10.7
19 -19 2 7.6 7.8
0 19 2 29.1 13.8
0 19 -2 26.7 14
19 0 -2 7.2 9.7
0 -19 -2 5.2 10.5
19 0 2 12.2 10
19 -19 -2 13.2 10.8
0 -19 -2 14.1 9.4
0 -19 2 6 10
-20 10 2 433.96 45
-10 -10 2 423.26 39.7
-10 20 -2 464.25 45.9
-10 20 -2 493.35 44.1
-10 -10 -2 435.56 41.1
-20 10 -2 386.46 45.1
20 -10 -2 418.76 38.2
20 -10 2 449.95 38.8
-10 20 2 351.56 44.6
10 -20 -2 439.96 37.4
-10 20 2 462.85 41.8
10 10 -2 409.96 40.6
-9 20 -2 366.66 41
-9 -11 2 349.67 35.4
20 -9 2 364.56 33.3
-11 20 2 279.57 39.3
-11 20 2 384.06 37.8
-20 11 -2 390.46 41.9
-11 -9 -2 363.96 36.8
9 -20 -2 342.67 32.5
11 9 -2 339.67 36.1
-9 20 -2 386.06 37.8
-20 9 2 297.87 38.4
20 -11 -2 362.26 33.9
9 -20 2 261.57 28.5
20 -11 2 317.27 32
11 -20 -2 290.17 29.8
-9 20 2 336.87 35.1
-20 9 -2 282.77 38.5
-11 20 -2 360.86 39.2
9 11 -2 272.47 33.5
20 -9 -2 294.07 31.3
-11 -9 2 271.47 29.9
-9 -11 -2 311.47 34.2
20 -12 -2 262.07 27.2
20 -8 2 273.07 27.7
-8 20 -2 188.88 30.4
-12 -8 -2 258.17 31.3
8 -20 -2 263.07 26.4
8 12 2 213.08 28.9
-8 -12 2 253.57 30.5
12 8 -2 205.98 30.6
8 12 -2 360.56 37.8
20 -8 -2 357.86 34.6
-12 20 -2 426.16 40.8
-8 20 2 421.76 39.1
8 -20 2 346.77 35.6
-8 -12 -2 403.26 38.2
20 -12 2 401.56 36.5
12 -20 -2 352.66 34.4
-7 20 -2 272.87 34
7 -20 -2 213.38 25.5
13 7 -2 183.98 27.1
-13 -7 -2 213.98 29.4
7 13 2 185.88 28.2
-7 -13 2 220.18 29.1
20 -13 -2 203.38 26.5
20 -7 2 219.68 27.1
7 13 -2 191.88 30.4
-7 20 2 255.17 31.7
-7 -13 -2 214.18 30
7 -20 2 202.68 28.4
20 -13 2 213.38 27.4
20 -7 -2 206.08 26.3
13 -20 -2 209.08 25.5
-20 14 -2 -8.3 11.5
20 -14 -2 34.8 12.8
6 14 2 16.9 13.7
-14 -6 -2 13 10.9
20 -6 2 16.9 12.5
14 6 -2 8.3 9
-6 -14 2 13.1 10.5
6 -20 -2 16 11.3
14 6 -2 7 6.8
14 -20 -2 5.6 11.4
-6 20 2 35.2 14.7
6 14 -2 4.8 14.9
20 -14 2 3.6 12.5
-5 20 -2 230.08 33.5
-15 -5 -2 277.07 30.9
-5 -15 2 282.67 30.7
-15 20 2 307.57 32.8
5 15 2 270.27 30.4
20 -5 2 260.97 28
20 -15 -2 268.97 27.2
5 -20 -2 296.37 27.3
15 5 -2 208.48 23.9
5 -20 2 424.16 38
-5 -15 -2 371.56 39.3
-5 -15 -2 425.86 39.4
15 5 2 385.46 34.4
20 -5 -2 392.26 35.9
15 -20 -2 382.06 34.5
5 15 -2 410.86 38.2
20 -15 2 402.36 35.8
4 -20 -2 6.6 3.9
4 16 2 17.4 13.4
-16 20 2 11 12.1
20 -16 -2 13.8 11.5
-4 20 -2 -13.6 10.4
4 -20 -2 10.7 11.5
16 4 -2 6 8.8
-16 -4 -2 12.9 10
20 -4 2 10.4 11.2
-4 -16 2 6 10.1
-4 -16 -2 9.9 14.9
-4 -16 -2 6.9 11.1
20 -4 -2 8.5 12.3
4 16 -2 31.5 14.2
16 4 2 21.6 10.9
4 -20 2 2.5 10.4
20 -16 2 17 11.6
16 -20 -2 15.4 11.4
17 3 -2 57.59 11.1
20 -3 2 80.09 12.2
3 -20 -2 84.09 13.3
3 17 2 106.79 22.6
3 -20 -2 54.09 12.2
-3 -17 2 90.49 12.4
17 -20 -2 151.68 22.1
20 -17 2 154.08 22.1
-3 -17 -2 175.28 27.4
20 -3 -2 149.59 23.9
3 17 -2 204.78 26.2
3 -20 2 135.89 26.3
-3 -17 -2 152.88 29.2
17 3 2 151.78 22.4
2 -20 -2 22.4 11.4
-2 20 -2 29.9 11.6
20 -18 -2 32.2 11.3
-2 -18 2 17.8 9.3
18 2 -2 10.5 9.2
20 -2 2 10.5 9.9
2 18 2 32.8 13.2
20 -2 -2 12 11.2
2 18 -2 46.3 14.2
2 -20 2 1.8 9.4
-2 -18 -2 25.1 15.1
20 -18 2 13.4 10.1
18 -20 -2 16.7 10.6
-2 -18 -2 19.4 10.9
18 2 2 13.4 10.3
1 19 2 30.2 12.7
20 -1 2 18.9 9.3
20 -19 -2 18.3 10.4
-1 20 -2 25 11.7
1 -20 -2 -5 9.9
19 1 -2 5.1 8.8
-1 -19 2 11 9
1 -20 -2 5.4 6.9
-20 19 -2 13.4 14.2
1 -20 -2 27.7 14.9
19 1 2 11.5 9.8
-1 -19 -2 7.7 8.7
-1 20 2 29.8 13
1 -20 2 5.1 9.2
-20 19 2 23.9 16
1 19 -2 44.9 14.2
-1 -19 -2 25.8 13.7
20 -1 -2 9.5 9.5
19 -20 -2 19 10.3
0 -20 -2 34.5 8
20 0 2 43.4 10.1
20 0 -2 44.8 9.5
0 -20 2 35.5 9.4
0 -20 -2 59.09 14.4
10 -21 -2 47.8 12.2
21 -10 2 60.09 14.3
-10 -11 2 28.8 10.9
-11 -10 -2 46.1 11.6
11 10 -2 28.8 15.3
21 -11 -2 57.99 13.2
21 -11 2 66.19 14.3
21 -10 -2 66.19 13.5
10 11 -2 45 15.6
10 -21 2 76.09 15.3
11 -21 -2 50.09 12.4
-10 -11 -2 43.8 11.4
-21 10 -2 73.89 18.6
-11 -10 2 30.8 11
12 9 -2 105.59 18.5
21 -9 2 147.19 22.6
-9 -12 2 116.29 25.3
21 -12 -2 150.48 21.8
9 -21 -2 163.98 21.5
-21 9 2 110.59 27.6
9 12 2 107.59 17.6
-12 -9 -2 152.18 25.2
12 -21 -2 92.19 14
9 -21 2 94.89 19.3
9 12 -2 81.79 16.6
21 -12 2 90.69 15.3
21 -9 -2 117.79 15.1
-21 9 -2 73.09 17.5
-9 -12 -2 107.29 13.9
8 13 2 115.89 24.2
21 -13 -2 135.49 22.1
-8 -13 2 127.69 25.5
13 8 -2 108.69 18.3
21 -8 2 130.19 22.4
8 -21 -2 146.59 21.3
-13 -8 -2 158.38 25.1
21 -8 -2 104.19 15.1
8 13 -2 65.49 15.5
-8 -13 -2 78.39 13.2
21 -13 2 89.69 14.7
13 -21 -2 82.69 13.7
-7 -14 2 47.8 11.1
21 -7 2 80.69 13.3
-14 -7 -2 39.1 11.1
14 7 -2 42.5 11.7
7 14 2 63.79 14.7
7 -21 -2 62.09 12.2
14 -21 -2 38.2 11.7
-7 -14 -2 28.8 12.6
-7 -14 -2 47.3 11.2
21 -7 -2 58.19 13.1
21 -14 2 58.19 13.2
7 14 -2 54.29 14.9
21 -6 2 54.49 12.6
-15 -6 -2 44.5 11
21 -15 -2 70.09 12.5
6 -21 -2 54.49 12.2
-6 21 -2 62.99 15
6 15 2 67.59 14.5
-6 -15 2 50.89 11.1
15 -21 -2 75.09 12.6
15 6 2 90.29 13.2
21 -15 2 61.09 12.9
-6 21 2 62.69 14.6
6 15 -2 79.19 14.9
6 -21 2 36.3 11.2
-6 -15 -2 47.4 14.4
-15 21 -2 60.39 14.8
21 -6 -2 77.29 13.2
-6 -15 -2 57.49 11.8
5 16 2 168.18 23.4
5 -21 -2 157.08 21
-16 21 2 104.69 23.7
-16 -5 -2 167.48 24.3
16 5 -2 105.09 15.8
21 -5 2 152.88 20.9
21 -16 -2 158.98 20.4
-5 -16 2 162.48 23.6
-5 21 -2 111.99 17.5
16 5 2 125.19 20.9
16 -21 -2 129.49 19.6
-5 -16 -2 124.29 24.9
21 -16 2 130.59 20.9
5 16 -2 147.29 23.7
-5 -16 -2 106.59 24.4
21 -5 -2 124.69 21.5
17 4 -2 103.59 15.8
21 -4 2 132.99 20.5
4 -21 -2 147.69 20.7
-4 -17 2 155.48 22.9
21 -17 -2 125.09 19.9
4 17 2 164.78 23.8
4 -21 2 158.28 23.9
21 -4 -2 168.18 21.9
21 -17 2 169.08 21.2
4 17 -2 209.38 26.2
17 -21 -2 173.28 21.6
17 4 2 155.68 22
-4 -17 -2 163.08 25.2
-4 -17 -2 136.19 25.9
3 -21 -2 115.69 14.4
21 -3 2 120.19 14
-3 -18 2 100.39 21.2
21 -18 -2 122.09 18.7
3 18 2 136.09 21.5
18 3 -2 89.89 14.3
-3 -18 -2 111.89 23.6
21 -18 2 94.69 17
18 3 2 131.99 18.5
-3 -18 -2 106.89 22.9
21 -3 -2 114.89 19.4
18 -21 -2 119.19 18.4
2 -21 -2 253.87 29
-2 -19 2 222.68 25.5
-21 19 -2 184.78 27.8
21 -19 -2 242.68 23.7
21 -2 2 239.28 23.5
2 -21 -2 217.48 23
2 19 2 255.27 26
-21 19 2 207.98 29.2
2 -21 2 238.38 25.5
19 -21 -2 238.58 23.1
-2 -19 -2 224.28 25.1
-2 21 2 272.37 27.1
21 -2 -2 197.88 22.3
19 2 2 231.98 22.8
-2 -19 -2 210.58 25.9
21 -1 2 6.1 8.8
21 -20 -2 13.5 9
1 -21 -2 13.3 11.8
-1 -20 2 10.6 7.9
20 1 -2 4.2 5.3
1 20 2 18.6 11.4
-1 21 -2 0.5 7.1
-1 -20 -2 7.6 6
-1 -20 -2 20.8 11.7
-1 21 2 25.3 11.6
1 -21 2 8.2 8
20 1 2 8.6 8.7
21 -1 -2 9.1 7.3
20 -21 -2 15.5 8.8
0 -21 -2 142.29 20.6
0 -21 2 142.39 19.6
21 0 2 137.79 17.6
21 -21 -2 152.18 17.2
0 21 2 172.58 20.7
-11 -11 -2 261.67 29.9
22 -11 2 270.37 28
22 -11 -2 271.97 27.2
11 11 -2 247.48 29.5
-22 11 2 299.57 35.5
-22 11 -2 270.87 35.3
-11 22 2 286.07 31.4
-11 22 -2 272.87 31.3
-11 -11 2 234.18 28.7
11 -22 -2 259.47 26.7
-10 -12 2 7 9.5
-22 12 -2 37.4 16.7
10 -22 -2 4.5 10.5
-12 -10 -2 -0.1 9.3
22 -12 -2 0.9 10.5
10 12 2 -11.8 9.5
12 10 -2 -6.1 12.8
22 -10 2 3.3 11.5
-22 10 2 12.4 15
10 -22 2 15.2 5.2
-12 -10 2 11 7.4
-10 -12 -2 14.6 9.1
22 -10 -2 24 11.3
22 -12 2 24.3 11.9
12 -22 -2 15.1 10.3
10 12 -2 14.8 12.9
-22 10 -2 14.4 14
-9 -13 2 66.79 11.4
22 -9 2 102.99 13.9
9 13 2 61.99 14.5
-13 -9 -2 53.59 11.3
9 -22 -2 81.99 12.7
22 -13 -2 80.19 12.5
13 9 -2 58.19 14.6
13 -22 -2 40.6 11.1
9 -22 2 27.3 7.6
9 13 -2 53.69 14
22 -13 2 42.2 12.1
22 -9 -2 54.29 11.9
-9 -13 -2 44.5 10.1
14 8 -2 62.69 11.9
22 -8 2 83.39 12.8
-14 -8 -2 65.09 11.2
22 -14 -2 95.99 12.6
8 -22 -2 60.29 12
-8 -14 2 41.9 10.6
8 14 2 70.19 14.6
-8 -14 -2 59.89 11.1
22 -14 2 90.89 13
14 8 2 60.19 11.4
8 -22 2 51.29 9.9
22 -8 -2 73.19 12.6
14 -22 -2 85.29 12
-7 22 -2 33 13.4
-15 22 2 33.2 13.1
7 -22 -2 0.4 10.4
22 -15 -2 15.6 10.2
-7 -15 2 3.9 8.8
7 15 2 3.4 11.7
-15 -7 -2 1.6 9.1
22 -7 2 -2.4 9.9
-7 22 2 30.5 13
15 7 2 23.4 10.6
15 -22 -2 18.8 10
7 15 -2 24.2 11.8
-7 -15 -2 5.6 9.2
22 -15 2 12.1 10.8
22 -7 -2 7.6 10.9
7 -22 2 7.5 7.6
22 -6 2 16 10.2
-6 -16 2 15 8.6
6 -22 -2 15 10.2
-16 22 2 26.6 12.8
-6 22 -2 28 12.8
22 -16 -2 30.8 10.4
6 16 2 23.7 11.8
22 -16 2 34.2 10.6
-16 22 -2 18 11.2
16 6 2 40.2 11.1
-6 -16 -2 26.3 11.6
6 16 -2 55.19 12.4
22 -6 -2 34.7 10.9
16 -22 -2 34.9 10
-6 -16 -2 31.9 9.9
6 -22 2 13.9 8.5
5 17 2 25.9 11.7
22 -5 2 6.8 9.5
22 -17 -2 23 9.9
-5 -17 2 6.9 8.1
5 -22 -2 3.8 10
22 -5 -2 14.7 10
22 -17 2 9.3 9.3
-5 -17 -2 8 11.2
-5 -17 -2 14.4 9
17 5 2 14.5 10
5 17 -2 26.9 11.7
17 -22 -2 19.5 9.4
5 -22 2 7.5 8.6
-5 22 2 18.1 10.2
22 -4 2 25.5 10.3
-22 18 -2 45.8 15.1
4 -22 -2 37.4 13.2
-4 -18 2 16.2 7.8
4 -22 -2 21.9 9.4
22 -18 -2 27.7 9.8
22 -18 2 10.3 6.3
-4 -18 -2 9.8 8.4
-4 -18 -2 5.1 10.9
22 -4 -2 12.8 9.3
4 -22 2 9 8
18 -22 -2 14.5 8.7
18 4 2 10.1 9.8
-4 22 2 24.5 11.6
-22 19 -2 146.59 24.3
22 -19 -2 203.28 19
22 -3 2 171.18 19.9
3 19 2 192.28 22.2
3 -22 -2 196.38 25.1
-3 -19 2 161.58 19.8
3 -22 -2 141.39 17.9
22 -3 -2 128.19 16.3
-3 -19 -2 113.39 19.3
-3 -19 -2 129.99 19
3 -22 2 136.59 20
19 -22 -2 134.29 16.9
19 3 2 128.89 17.1
-3 22 2 151.88 20.3
-22 19 2 90.79 20.6
22 -20 -2 7.5 8.3
2 20 2 16.6 10.5
22 -2 2 3.1 8.5
2 -22 -2 10.9 10.6
-2 -20 2 7.1 6.8
20 2 2 -0.4 8.2
2 20 -2 17.3 10.1
20 -22 -2 5.8 7.6
-2 22 2 12.5 10.1
22 -2 -2 2.5 4.4
2 -22 2 2.6 7.3
-2 -20 -2 4.2 4.7
-2 -20 -2 3.6 9.3
22 -1 2 197.48 19.4
1 -22 -2 204.88 21.6
1 21 2 216.28 21.6
-1 -21 2 190.48 19.4
22 -21 -2 194.08 18.6
1 -22 2 168.78 17.2
21 1 2 185.28 17.9
21 -22 -2 179.88 16.4
-1 -21 -2 156.78 18.4
-1 22 2 168.38 18.2
-23 11 2 41.3 14.3
23 -12 -2 68.39 10.9
-11 -12 2 45.5 8.9
-12 -11 -2 42.3 9.6
12 11 -2 58.29 13
-11 -12 -2 90.79 18.7
23 -12 2 104.99 17.9
11 12 -2 67.49 13.6
-23 11 -2 66.89 15.5
23 -11 -2 94.89 16.4
12 -23 -2 98.89 17
-12 -11 2 62.89 12.7
-10 -13 2 161.68 23.2
-23 13 -2 212.18 29.4
10 -23 -2 198.08 20.6
-13 -10 -2 179.88 23.3
-10 23 -2 226.28 28
23 -10 2 193.58 22.4
-13 23 2 211.68 26.5
23 -13 -2 177.68 21.8
-10 -13 -2 111.39 20.9
-10 23 2 138.89 22
23 -13 2 128.49 19.4
-23 13 2 158.88 25.9
13 -23 -2 133.99 17.7
23 -10 -2 119.69 19
10 13 -2 113.69 21
23 -9 2 118.89 18.3
-9 -14 2 106.49 19.8
-14 23 2 161.98 23.9
23 -14 -2 121.89 18.7
-14 -9 -2 121.09 20.7
9 -23 -2 100.59 17.9
23 -9 -2 51.29 10.6
9 -23 2 45.4 8.6
14 -23 -2 57.79 10.1
23 -14 2 65.49 11.1
9 14 -2 37.4 12
14 9 2 59.49 10.1
-9 -14 -2 46.1 9.5
8 15 2 7.1 10.8
-8 23 -2 40 12.5
-15 23 2 34.3 12.1
8 -23 -2 21 9.6
23 -15 -2 24.9 9.5
-8 -15 2 7.7 7.8
23 -8 2 21.9 9.8
-15 -8 -2 21 8.5
23 -8 -2 10.7 9.5
23 -15 2 11.5 9.5
-8 23 2 13.6 11.3
15 -23 -2 6.6 8.7
8 15 -2 21.1 10.9
-15 23 -2 28.7 12.2
15 8 2 20.7 9.5
-8 -15 -2 4.8 8.1
-16 23 2 72.49 13.4
-7 23 -2 82.29 19.4
23 -16 -2 88.49 11.6
23 -7 2 86.99 11.6
7 16 2 75.09 13.2
7 -23 -2 76.49 11.2
7 -23 2 66.09 12
-16 23 -2 53.39 12.4
23 -16 2 57.49 10.1
16 7 2 89.39 11.6
16 -23 -2 57.29 10.3
23 -7 -2 77.79 11
-7 -16 -2 56.69 9.8
7 16 -2 99.19 18.1
-6 -17 2 0.4 7
6 17 2 16.6 10.7
6 -23 -2 5 8.1
-23 17 -2 28.4 14.6
23 -17 -2 12 8.7
23 -6 2 -1.3 8.7
23 -6 -2 15.5 8.7
6 17 -2 34.6 10.9
17 -23 -2 14.8 8.3
17 6 2 19.8 9.1
23 -17 2 10.6 6.2
-6 -17 -2 10.3 8
-23 17 2 41.4 14.5
6 -23 2 13.5 5.7
23 -5 2 152.48 18.1
5 -23 -2 132.99 15
-5 -18 2 138.39 19.2
-23 18 -2 174.08 24.8
5 -23 -2 193.78 22.7
5 18 2 170.38 20.2
23 -18 -2 180.08 18
-23 18 2 157.58 23.7
23 -5 -2 154.88 17.4
5 18 -2 191.28 20.8
-5 -18 -2 154.68 20.3
18 5 2 168.18 18.1
18 -23 -2 171.98 17.7
5 -23 2 143.69 17.3
4 -23 -2 12.4 9.9
23 -19 -2 14 8
23 -4 2 2.2 7.8
4 19 2 7.8 9.8
4 -23 -2 3.1 3
-4 -19 2 3.8 6.4
-23 19 -2 -6 10.3
23 -4 -2 6.4 5
19 -23 -2 14.4 6.9
-4 -19 -2 6.2 5.8
19 4 2 5.4 8
4 19 -2 22.8 9.8
4 -23 2 10 4.8
-23 19 2 -7.4 10.3
-4 23 2 -2.4 5.3
-4 -19 -2 5 5
-12 -12 -2 45.2 8.4
12 12 -2 37.5 10
-24 12 2 30.4 12.7
-24 12 -2 45.1 13.1
24 -12 2 53.09 9.1
24 -12 -2 64.89 9.7
12 -24 -2 40.6 8.7
-13 -11 -2 87.69 17.8
24 -13 -2 99.09 15.5
-13 24 2 122.59 20.5
-24 13 -2 94.49 22.3
11 -24 -2 102.19 14.5
24 -11 2 101.79 15.3
13 -24 -2 91.69 13.1
24 -13 2 93.29 14.1
11 13 -2 54.89 11.4
-24 13 2 66.59 14.6
24 -11 -2 93.89 14.3
-11 -13 -2 58.69 9.3
13 11 2 85.99 13.1
10 -24 -2 10.7 7.3
14 10 -2 2.8 4.5
-24 14 -2 25.6 13.9
-10 -14 2 4.5 4.9
-14 -10 -2 10.8 7.1
24 -10 2 15.1 8.3
-14 24 2 32.7 10.7
24 -14 -2 12.1 8.4
10 14 -2 19.6 9.4
-24 14 2 32.5 13.5
24 -14 2 13.4 7.8
24 -10 -2 20.8 8.5
14 10 2 23.8 8.2
14 -24 -2 18.7 7.6
-10 24 2 20 10.2
-10 -14 -2 16.6 7.3
-9 24 -2 36.2 11
24 -9 2 24.9 8.6
-9 -15 2 17.7 6.4
-15 24 2 34.6 10.6
9 -24 -2 16.1 6.4
24 -15 -2 24.4 8.3
-15 -9 -2 21.9 6.7
-24 15 -2 45.5 14.2
-24 15 2 26.3 13.5
24 -9 -2 12.9 7.9
15 -24 -2 8.4 7.2
-15 24 -2 26 11
-9 -15 -2 4.9 7
15 9 2 7.1 8.4
24 -15 2 8.6 6.2
-9 24 2 -0.4 9.1
9 15 -2 9.4 9.6
24 -8 2 43.6 8.4
-16 24 2 28.6 10
-8 -16 2 28.6 6.5
-8 24 -2 12.2 8
8 -24 -2 18.9 4.9
8 16 -2 71.89 15.1
16 -24 -2 42 7.8
16 8 2 40.4 9.1
24 -8 -2 48.1 8.7
-8 -16 -2 41 8.5
-24 16 2 59.79 14.1
-24 17 -2 87.39 21.7
24 -17 -2 94.49 13.6
-7 -17 2 73.09 13.5
24 -7 2 79.39 13.6
7 17 -2 110.79 15.9
-7 -17 -2 82.09 15.6
-24 17 2 107.89 20.6
17 -24 -2 83.89 10.8
24 -7 -2 80.69 12
17 7 2 97.09 13.9
6 18 2 2.1 6.2
-24 18 -2 -1.2 11
-6 -18 2 2.5 5
-24 18 2 11 12.4
6 18 -2 15.7 8.3
-6 -18 -2 8.5 5.3
-13 25 2 1 9.6
-12 25 -2 21 10.1
-13 25 -2 20.1 10.1
-12 25 2 -0.3 8.5
0 0 3 1.7 1.7
0 0 3 -4.5 2.7
0 0 -3 2.3 3.8
0 0 -3 2 6.1
1 -1 3 -0.9 3.1
1 -1 3 4.9 1.6
0 1 -3 10.1 4.9
0 1 -3 7.3 6.6
0 1 3 3 2.7
-1 1 3 0.3 2.2
-1 0 -3 1.1 4
0 1 3 -1 2.7
-1 1 3 -5.1 2.6
0 -1 3 0.1 2.7
1 -1 3 -0.4 1.3
1 -1 -3 2.8 6
1 0 -3 1.2 6.7
1 0 -3 6.3 3.7
1 0 3 -2.7 2.9
1 0 -3 0.7 1.5
1 -1 -3 -0.3 1.5
-1 1 -3 7.2 5
1 0 3 1.1 2.4
-1 0 3 5 2.8
0 -1 -3 2.1 1.5
1 0 3 3.7 1.7
-2 1 3 86.59 6.9
-1 2 3 73.39 7.3
-2 1 -3 70.59 8.3
2 -1 -3 77.29 10.5
-1 2 -3 77.79 8.7
-1 2 3 72.29 6.9
-1 2 -3 78.79 11.3
2 -1 -3 82.49 6.3
1 1 -3 83.39 9
-2 1 3 79.39 6.4
1 1 -3 69.49 5.9
1 1 -3 71.39 10.9
1 1 3 75.09 9.8
1 1 3 84.69 7.6
1 1 3 78.69 7.3
0 2 -3 462.35 33.9
-2 2 -3 413.06 30.5
2 0 3 410.86 32.4
0 2 3 434.66 31
-2 2 3 390.16 30.8
-2 2 3 443.36 30.3
0 2 3 436.46 31.1
0 2 -3 448.66 32.4
-2 0 3 436.76 30.6
2 0 -3 419.36 31.3
0 2 3 439.86 32
2 0 -3 466.95 33.9
-2 2 -3 457.85 31.9
2 -2 -3 437.86 32.7
1 2 3 271.37 20.1
-1 3 -3 272.87 23.4
-2 3 3 277.27 19.8
2 1 -3 257.87 20.7
1 2 3 248.28 21.1
3 -1 3 248.98 21.4
-2 3 3 267.47 19.3
-3 2 -3 258.97 19.3
2 1 -3 251.97 22.6
-1 3 -3 255.67 21.3
-3 2 -3 279.77 20.7
3 -2 -3 280.57 22.4
-1 3 -3 262.87 18.9
1 2 3 276.87 19.9
-3 1 3 269.07 19.5
2 1 3 320.47 22
-1 3 3 288.67 21.9
-3 1 -3 292.27 21.7
1 2 -3 277.17 21.1
3 -1 -3 294.07 21.3
3 -2 3 287.77 23.7
-1 3 3 306.37 22.1
-2 3 -3 287.57 23.1
-2 -1 3 298.77 21.4
3 -1 -3 302.77 24.9
-2 3 -3 300.67 21.3
1 2 -3 301.27 23.2
2 1 3 314.17 22.5
-3 2 3 283.67 21.9
2 -3 -3 312.27 23.2
1 2 -3 310.07 24.9
2 1 3 311.27 24
-3 0 3 1453.15 102.99
3 0 -3 1517.95 105.69
0 3 -3 1504.65 104.49
-3 3 3 1477.95 103.29
0 3 3 1621.04 103.59
3 0 -3 1481.75 103.49
0 3 -3 1383.66 102.69
0 3 -3 1456.75 105.29
3 -3 -3 1487.35 104.29
0 3 3 1493.75 103.99
-3 3 -3 1384.96 104.09
3 0 3 1425.56 104.69
0 3 3 1567.44 103.49
-3 3 -3 1494.25 103.09
2 2 3 249.78 19.7
4 -2 -3 294.87 23.7
4 -2 3 280.17 22.2
2 2 -3 244.68 23.1
2 2 -3 244.88 20.9
2 2 3 262.57 20.3
-2 4 -3 278.57 23.5
-4 2 -3 290.77 21.2
-2 4 3 269.07 20
-2 4 3 234.08 19.5
2 2 3 260.37 22.1
-4 2 -3 249.97 19.4
-2 4 -3 250.67 21.7
-4 2 3 257.67 19.5
-2 4 -3 247.78 18.9
-4 3 -3 1292.07 92.59
-3 4 3 1223.08 91.29
-4 3 -3 1314.67 91.49
1 3 3 1280.17 91.79
4 -1 3 1386.76 93.59
4 -3 -3 1506.15 93.69
1 3 3 1319.97 91.99
-1 4 -3 1342.77 93.99
-3 4 3 1249.77 91.69
-4 1 3 1326.27 91.59
1 3 3 1322.67 92.79
-1 4 -3 1307.37 93.19
-1 4 -3 1258.67 91.09
3 1 -3 1320.67 94.59
3 1 -3 1231.48 92.09
1 3 -3 1442.06 113.89
1 3 -3 1493.05 112.49
4 -3 3 1763.62 114.79
-1 4 3 1675.93 113.29
3 -4 -3 1556.84 113.39
-3 4 -3 1764.72 112.79
-4 3 3 1665.53 112.99
3 1 3 1643.74 113.39
-1 4 3 1646.94 113.19
-3 4 -3 1642.64 114.19
4 -1 -3 1554.24 112.69
4 -1 -3 1688.93 115.79
-4 1 -3 1671.33 112.99
-1 4 3 1570.84 113.29
-3 -1 3 1672.13 112.69
3 1 3 1512.65 114.39
1 3 -3 1585.54 115.19
0 4 3 798.32 55.19
-4 4 -3 716.63 55.89
4 -4 3 796.72 56.59
0 4 3 807.72 55.89
0 4 3 835.52 55.49
-4 0 3 797.92 54.69
4 0 3 765.72 57.19
-4 4 -3 875.41 54.89
0 4 -3 720.83 54.39
-4 4 3 751.42 54.99
4 0 -3 673.93 54.99
4 -4 -3 828.62 56.09
0 4 -3 795.22 57.79
4 0 3 832.92 55.59
0 4 -3 695.03 56.49
4 0 -3 735.93 57.99
-5 2 3 315.17 22.7
3 2 -3 300.37 27.5
-3 5 3 279.27 22.7
5 -2 3 332.87 25.8
-5 3 -3 300.97 22.8
2 3 3 292.87 22.8
-5 3 -3 304.67 23.9
-2 5 -3 278.97 24.9
-3 5 3 322.77 23.3
2 3 3 316.67 23.3
3 2 -3 288.27 24
2 3 3 333.47 25.7
-2 5 -3 270.87 22
-2 5 -3 288.07 25.4
5 -2 -3 70.09 6.6
-2 5 3 64.89 9.3
-5 2 -3 76.99 8.6
3 2 3 68.99 9.3
-2 5 3 83.49 9.1
3 2 3 65.59 13.3
5 -2 -3 100.89 15.9
-2 5 3 84.19 10
5 -3 3 78.59 12.9
2 3 -3 86.39 14.1
-3 5 -3 68.39 11.3
3 2 3 69.79 9.2
2 3 -3 66.09 7.4
2 3 -3 80.69 11.1
-5 3 3 86.09 9
-3 5 -3 70.79 8
1 4 3 301.07 26.1
-1 5 -3 313.77 26.2
-1 5 -3 343.57 28.1
-5 4 -3 355.76 24.3
5 -1 3 308.87 27.6
-5 4 -3 330.17 25.4
-5 1 3 345.27 24.1
1 4 3 311.37 24.6
1 4 3 326.87 24.3
-4 5 3 332.17 24.6
4 1 -3 287.97 28.3
-1 5 -3 300.37 23.3
-4 5 3 299.47 23.4
-4 5 -3 351.16 25.3
5 -1 -3 296.27 25.1
4 1 3 367.46 26.6
1 4 -3 324.37 28.8
-5 4 3 358.86 25.7
5 -4 3 382.36 28.2
-4 5 -3 319.77 26.9
-4 -1 3 352.46 25.2
4 1 3 313.67 28.9
1 4 -3 340.57 24.8
-1 5 3 338.67 26.2
1 4 -3 316.47 27.6
5 -1 -3 352.46 30.1
-1 5 3 343.37 26.2
-1 5 3 375.86 26.1
-5 1 -3 352.36 25.6
4 -5 -3 322.67 25.6
0 5 -3 2916.41 215.28
0 5 3 3166.78 216.38
-5 5 -3 3178.38 216.78
-5 5 -3 3559.64 215.78
0 5 -3 3148.19 218.08
5 0 3 3326.07 216.38
-5 0 3 3242.68 215.58
0 5 -3 3111.69 217.28
5 -5 -3 3213.78 216.48
5 0 3 2670.43 217.78
0 5 3 3122.59 215.88
5 0 -3 2729.73 215.78
5 0 -3 3012.1 218.98
0 5 3 2901.91 216.58
-5 5 3 3261.67 215.88
-3 6 3 35.5 7.1
3 3 3 30.8 6.4
6 -3 -3 22.5 3.4
3 3 -3 26.4 9.4
-6 3 -3 26.2 5.8
3 3 -3 29.5 5.3
3 3 3 32 8.2
6 -3 -3 59.29 13.2
-6 3 3 41.5 6.5
3 3 3 41.5 11.6
-3 6 3 30.6 7.4
6 -3 3 24.2 10.2
-3 6 3 23.9 4.2
-3 6 -3 23.1 5.1
-3 6 -3 36.7 10.9
3 3 -3 40.9 12.5
2 4 3 3957.8 312.97
-6 4 -3 5125.39 311.57
2 4 3 4523.45 311.57
4 2 -3 4201.08 311.97
-2 6 -3 4849.71 313.47
-2 6 -3 4364.06 312.87
-2 6 -3 3930.01 310.87
-6 2 3 4674.43 311.37
2 4 3 4873.51 312.07
-4 6 3 4522.45 311.37
4 2 -3 3985.4 314.07
-4 6 3 4957.1 311.77
-6 4 -3 4575.44 312.27
6 -2 3 4290.87 313.57
-4 6 -3 4849.61 343.77
4 2 3 4695.63 344.77
4 2 3 5174.28 342.67
4 2 3 4992.3 342.97
-6 4 3 4874.71 342.37
-6 2 -3 4425.46 342.27
2 4 -3 4458.15 341.87
-4 6 -3 4992.9 342.17
-2 6 3 4971 342.87
2 4 -3 5034.5 345.27
2 4 -3 4635.04 343.47
6 -2 -3 5180.38 346.07
-2 6 3 5204.48 342.77
6 -4 3 5657.33 344.77
-1 6 -3 1419.96 100.69
-6 5 -3 1363.66 99.19
6 -1 3 1571.14 98.99
5 1 -3 1298.57 102.29
-6 1 3 1532.85 98.09
5 -6 3 1569.04 99.99
-5 6 3 1425.16 98.29
6 -5 -3 1448.36 99.99
-6 5 -3 1560.24 98.29
1 5 3 1502.95 99.09
1 5 3 1253.67 99.69
6 -1 3 1300.37 100.99
5 1 -3 1222.98 98.39
1 5 3 1386.16 98.29
-1 6 -3 1296.07 99.79
-1 6 -3 1191.28 97.49
5 1 3 1680.83 113.19
-6 1 -3 1700.83 112.69
-5 -1 3 1636.44 112.39
-6 5 3 1600.54 112.49
-1 6 3 1708.33 112.99
1 5 -3 1525.55 115.19
6 -1 -3 1634.04 117.09
-5 6 -3 1596.54 113.79
-5 6 -3 1578.44 112.29
5 1 3 1575.74 115.79
6 -1 -3 1439.26 112.29
-1 6 3 1705.23 113.39
1 5 -3 1494.65 113.99
0 6 -3 744.83 59.59
6 0 -3 711.63 64.79
6 0 3 792.92 64.09
6 0 3 894.01 61.29
-6 6 -3 945.51 60.49
0 6 -3 856.71 62.49
-6 0 3 948.41 60.39
-6 6 -3 856.31 61.69
-6 6 3 893.41 60.69
0 6 3 914.01 60.79
0 6 3 722.03 61.19
0 6 -3 816.62 63.09
0 6 3 883.71 61.69
3 4 3 772.12 63.69
3 4 3 783.12 60.99
7 -4 -3 964.4 65.39
-7 3 3 849.32 60.39
-3 7 -3 708.73 59.69
-7 4 -3 870.31 61.59
4 3 -3 823.42 64.59
-7 4 -3 929.51 60.69
4 3 -3 796.12 61.69
-4 7 3 798.52 60.59
3 4 3 893.51 60.89
7 -3 3 879.41 64.09
-4 7 3 862.61 60.79
-3 7 -3 857.51 62.69
-3 7 -3 895.51 62.99
3 4 -3 1011.3 74.89
4 3 3 1007.3 77.19
-3 7 3 1070.69 73.79
4 3 3 1119.99 73.89
-7 3 -3 1129.49 73.69
4 3 3 1057.99 74.19
-4 7 -3 901.81 72.79
7 -3 -3 1132.99 78.99
-3 7 3 1028.6 73.99
-4 7 -3 1089.79 75.69
7 -4 3 1117.29 76.79
-7 4 3 1023.5 73.29
3 4 -3 915.81 72.69
3 4 -3 903.71 76.69
2 5 3 755.82 61.19
5 2 -3 741.93 63.09
-7 5 -3 685.93 59.99
2 5 3 790.02 58.59
-7 2 3 929.31 58.69
-2 7 -3 830.02 61.09
-5 7 3 681.83 58.79
7 -5 -3 836.02 61.69
5 2 -3 783.82 59.39
5 -7 3 887.71 60.19
2 5 3 911.31 59.89
-7 5 -3 896.91 59.99
-2 7 -3 718.93 59.59
-5 7 3 917.81 59.29
7 -2 3 822.52 62.69
-2 7 -3 871.41 60.89
2 5 -3 748.63 56.39
-7 5 3 648.84 54.79
2 5 -3 821.02 59.49
5 2 3 713.53 58.49
-7 2 -3 898.91 55.09
7 -2 -3 765.22 60.29
2 5 -3 689.13 53.89
-7 5 3 793.32 54.59
-2 7 3 795.22 55.69
-2 7 3 756.22 54.89
-5 7 -3 763.22 54.19
-5 -2 3 718.53 54.99
5 2 3 776.42 55.49
-5 7 -3 764.62 56.49
-7 2 -3 762.42 55.09
1 6 3 4444.06 294.47
1 6 3 3589.54 295.37
1 6 3 4534.55 295.27
7 -1 3 4696.83 295.07
-6 -1 -3 3687.73 294.77
-6 7 3 4226.88 294.37
-1 7 -3 4058.79 296.27
7 -1 3 4368.76 298.07
-1 7 -3 4344.17 296.17
-7 1 3 4632.94 294.27
-7 6 -3 4393.76 295.37
6 1 -3 3829.42 298.47
-1 7 3 4272.67 283.07
-7 1 -3 4208.88 283.57
-7 6 3 3987.2 282.67
-6 -1 3 4314.87 282.57
6 1 3 3892.71 286.37
-7 6 3 3666.63 283.07
-1 7 3 4441.46 283.87
1 6 -3 4020.2 284.47
-6 7 -3 3985.7 282.47
6 1 3 4439.76 283.57
-6 -1 3 3428.76 282.97
1 6 -3 4414.46 286.07
7 -1 -3 3556.04 287.17
-7 1 -3 4011.4 282.67
-6 7 -3 4386.26 284.37
-7 7 -3 630.74 56.49
0 7 -3 822.02 59.09
-7 0 -3 840.72 56.69
7 0 -3 648.04 62.39
-7 7 3 855.01 55.59
-7 7 -3 766.42 56.49
-7 0 3 788.72 54.79
7 0 3 665.33 59.79
-7 7 -3 804.92 54.89
0 7 3 813.42 55.19
-7 7 3 693.43 55.29
0 7 3 803.52 56.89
0 7 -3 772.12 58.29
-7 0 3 706.63 55.29
4 4 -3 311.87 25.9
-8 4 -3 391.26 27.6
-4 8 3 345.77 27.6
-8 4 -3 305.97 29.5
-4 -4 3 343.87 27.8
4 4 -3 317.67 29.6
-8 4 3 337.17 28
4 4 3 351.66 28.4
8 -4 3 361.76 33.4
-4 8 -3 351.46 30.5
-4 8 3 373.66 27.9
-4 8 3 331.27 28.6
8 -4 -3 349.07 35.1
4 4 3 342.67 33.8
4 4 3 389.46 28.1
-8 4 3 373.76 26.9
-4 8 -3 281.77 25.7
4 4 -3 343.57 33.3
3 5 3 925.21 70.39
-3 8 -3 940.91 69.19
5 3 -3 886.71 67.99
3 5 3 1010.4 67.79
5 3 -3 842.82 71.59
-3 8 -3 940.21 68.59
-3 8 -3 836.42 68.49
3 5 3 991.1 66.99
-8 5 -3 1041.1 68.29
-5 8 3 907.01 67.59
8 -3 3 1009.5 72.59
-8 5 -3 807.52 68.39
8 -5 -3 933.01 70.79
3 5 -3 436.06 36.8
-5 8 -3 441.66 37
3 5 -3 529.05 44.2
-3 8 3 541.25 38.6
-8 5 3 524.25 38.1
-3 8 3 486.15 39
-8 5 3 481.55 38.6
5 3 3 599.74 39.1
-3 8 3 530.55 39.2
-5 8 -3 531.75 41
-8 3 -3 457.35 39.5
-8 3 -3 499.35 38.3
5 3 3 577.74 39.9
3 5 -3 482.95 40.1
-8 3 -3 501.65 38
-5 -3 3 502.85 38.5
8 -5 3 583.84 43.1
5 3 3 494.05 43.3
8 -3 -3 484.05 46.3
2 6 3 1328.67 102.69
6 2 -3 1250.77 101.09
-6 8 3 1450.55 101.29
-2 8 -3 1478.55 102.89
6 2 -3 1445.76 106.79
-6 -2 -3 1391.96 101.19
-2 8 -3 1386.36 102.49
8 -2 3 1451.85 105.39
-8 6 -3 1254.37 102.09
2 6 3 1589.54 101.79
-8 6 -3 1513.05 101.59
-8 2 3 1542.55 100.29
-2 8 -3 1368.46 102.19
-2 8 3 1903.11 132.09
-6 8 -3 1680.53 132.19
-2 8 3 1998.3 131.39
-6 -2 3 1848.42 131.59
2 6 -3 2026.6 135.49
-8 6 3 1871.51 131.79
-8 2 -3 2011.3 131.19
-2 8 3 1583.74 131.39
8 -6 3 2131.99 134.89
6 2 3 2152.68 132.19
-6 8 -3 1913.51 132.79
2 6 -3 1859.61 132.99
-6 8 -3 1597.54 130.39
-8 6 3 1948.61 130.99
6 2 3 1686.43 135.19
8 -2 -3 1647.04 137.19
-1 8 -3 1598.14 112.49
-7 8 3 1448.56 111.39
-7 8 3 1304.27 110.69
7 1 -3 1293.67 116.19
-8 7 -3 1348.97 112.39
-1 8 -3 1494.65 113.09
8 -1 3 1813.12 112.19
1 7 3 1766.02 111.19
-8 7 -3 1576.14 110.59
-8 1 3 1778.82 110.79
1 7 3 1728.13 112.59
-7 8 3 1686.33 110.99
-8 1 3 1508.35 111.19
8 -1 3 1456.25 115.49
-7 -1 -3 1723.43 111.89
-8 7 -3 1547.65 111.89
-1 8 -3 1564.94 113.19
-8 7 3 1140.39 92.79
-1 8 3 1433.26 94.09
-1 8 3 1419.06 92.89
8 -7 3 1432.36 95.39
7 1 3 1374.96 93.39
1 7 -3 1256.07 94.99
-8 7 3 1283.17 92.19
-7 8 -3 1235.58 93.69
-8 1 -3 1401.06 93.29
-7 -1 3 1230.58 91.89
-7 -1 3 1230.08 92.79
1 7 -3 1374.16 96.59
-8 1 -3 1338.67 92.49
-7 8 -3 1179.38 91.69
7 1 3 1186.68 97.19
-8 0 -3 2722.63 172.38
-8 8 3 2721.83 171.68
0 8 3 2654.03 171.68
0 8 3 2612.04 172.98
-8 0 3 2377.76 170.88
-8 8 3 2310.27 171.88
8 0 3 2347.27 176.38
0 8 -3 2328.47 172.28
-8 8 -3 2462.55 172.58
0 8 -3 2488.75 173.88
-8 8 -3 2238.38 172.88
-8 0 3 2372.66 171.78
-8 8 3 2147.29 171.58
4 5 3 4118.29 263.67
5 4 -3 3390.36 264.37
-4 -5 3 3778.72 263.67
5 4 -3 3641.74 267.87
-4 9 -3 3416.46 264.77
-9 4 3 3465.85 263.57
-9 5 -3 3716.03 264.97
4 5 3 3795.82 266.97
-4 9 -3 3672.23 265.37
-9 4 3 4191.98 263.37
-9 5 -3 4064.59 263.37
-5 9 3 3493.75 264.07
9 -4 3 3958 267.87
4 5 3 4192.38 264.57
-9 4 -3 4473.25 293.37
-4 9 3 3864.81 293.87
5 4 3 4774.32 293.67
-9 4 -3 4557.04 293.27
5 4 3 4292.87 293.97
-9 4 -3 4445.16 294.97
4 5 -3 4259.37 297.57
-4 9 3 4324.97 293.37
-9 5 3 3736.83 293.47
-5 9 -3 4296.57 295.17
9 -4 -3 4015.1 298.57
5 4 3 3731.83 296.57
-9 5 3 4420.66 293.07
4 5 -3 3705.63 294.47
-5 -4 3 4240.38 293.67
6 3 -3 1438.26 110.19
-6 9 3 1386.76 104.79
-9 3 3 1323.07 103.99
9 -3 3 1613.64 109.99
3 6 3 1463.45 104.19
3 6 3 1585.84 105.39
-9 6 -3 1515.75 103.79
-9 3 3 1537.25 103.79
-3 9 -3 1620.24 107.59
-9 6 -3 1325.07 105.69
-9 6 -3 1596.54 105.19
-3 9 -3 1458.25 106.19
-3 -6 3 1253.37 103.59
-6 -3 -3 1439.26 104.89
6 3 3 1365.36 98.19
-6 -3 3 1301.77 97.69
-3 9 3 1412.46 97.69
-3 9 3 1240.48 98.19
9 -6 3 1517.05 101.69
3 6 -3 1264.77 101.39
6 3 3 1389.46 103.19
-9 3 -3 1534.25 98.19
-9 6 3 1263.37 97.79
-9 6 3 1285.47 96.89
3 6 -3 1336.27 99.59
6 3 3 1493.35 97.79
-9 3 -3 1332.37 97.09
-6 9 -3 1159.88 98.69
-6 9 -3 1495.65 99.99
-9 3 -3 1532.35 99.69
-9 7 -3 3115.19 258.97
-7 -2 -3 3747.12 258.47
9 -2 3 4053.49 258.67
2 7 3 4073.79 258.17
-9 2 3 3655.63 257.97
-7 9 3 3415.46 258.47
-9 7 -3 3544.25 258.47
-2 9 -3 3648.93 259.37
9 -2 3 3788.02 263.27
-7 9 3 4077.99 258.27
2 7 3 3691.13 259.07
-2 9 -3 3813.72 260.27
7 2 -3 3409.36 263.87
-9 2 -3 4307.37 279.97
-2 9 3 3892.01 279.87
-7 -2 3 4264.57 280.67
-9 7 3 3970.1 280.67
2 7 -3 3832.42 283.27
-9 2 -3 3659.93 280.67
2 7 -3 3887.41 281.97
-7 9 -3 4183.48 281.67
-9 7 3 4156.18 279.77
-7 9 -3 4000.7 281.27
7 2 3 4027.3 285.17
7 2 3 4557.14 281.17
-2 9 3 3488.75 280.27
-9 1 3 950.6 67.09
1 8 3 911.21 66.49
9 -1 3 1034.3 67.89
1 8 3 807.82 67.49
9 -1 3 919.11 73.59
-1 9 -3 883.51 70.09
-8 9 3 1055.69 67.39
-8 9 3 829.32 66.79
-8 -1 -3 1069.69 68.29
8 1 -3 795.32 74.99
-9 8 -3 941.11 67.79
-1 9 -3 953.9 68.69
-9 1 3 769.82 65.59
-8 9 3 921.81 67.69
-9 8 -3 864.41 69.39
-1 9 3 759.32 65.19
-1 9 3 870.21 65.29
-9 8 3 957.7 65.29
-9 8 3 836.52 65.89
-8 9 -3 1010.1 67.59
1 8 -3 844.62 68.39
-8 9 -3 904.81 66.89
-8 9 -3 851.71 66.99
8 1 3 922.61 73.39
8 1 3 952.9 66.49
-8 -1 3 967.1 66.09
-9 9 3 371.46 31
-9 9 -3 326.67 32.2
0 9 3 407.76 31.6
-9 0 3 428.16 32.4
9 0 3 352.86 31.6
0 9 -3 403.56 33.7
9 0 3 378.26 39.6
-9 9 -3 417.46 35.9
-9 9 3 367.46 32.2
-9 9 3 403.86 32.8
0 9 -3 369.76 35.4
-5 10 3 7.4 10.3
10 -5 3 29.4 15.3
-5 10 -3 16.5 13.8
-10 5 3 16.6 9.9
5 5 3 10.2 11.4
-5 10 -3 -10.2 13.3
5 5 -3 11.8 15.4
-10 5 3 9 7.9
-5 10 3 18.1 11.6
-5 10 -3 0.8 8.5
-10 5 -3 15.4 13.1
10 -5 -3 -15.4 15.6
5 5 3 11 9.9
5 5 -3 1 4.8
5 5 3 18.3 12.6
-10 5 -3 12.1 6.8
-5 -5 3 16.1 10.3
5 5 -3 15.4 10.6
-4 10 -3 82.29 17.9
10 -4 3 76.49 12.9
4 6 3 83.99 15.8
4 6 3 89.99 13.4
-10 4 3 74.49 14.4
-10 6 -3 56.79 15.5
-6 10 3 81.79 16.9
6 4 -3 59.59 21.4
-6 10 3 97.39 14.8
-6 -4 -3 69.19 14.1
-4 -6 3 103.69 15.6
10 -4 3 79.29 18.3
-4 10 -3 93.29 18.7
-4 10 3 118.19 20.2
-10 4 -3 144.89 15.9
-10 4 -3 128.29 19.7
6 4 3 141.99 22.1
-10 4 -3 87.59 13.1
-6 10 -3 115.39 20.2
-10 6 3 101.39 13.7
6 4 3 122.09 17.1
10 -6 3 101.99 20.6
-10 6 3 112.79 16.4
-6 10 -3 127.89 19.1
-6 -4 3 125.49 16.2
4 6 -3 75.19 15.7
-4 10 3 125.69 16.9
6 4 3 149.39 16.5
4 6 -3 87.79 20.4
-10 3 3 725.63 51.39
3 7 3 744.43 51.59
-10 7 -3 635.24 53.09
3 7 3 623.44 51.89
10 -3 3 671.63 58.59
-7 10 3 724.83 53.49
7 3 -3 560.14 58.59
-3 10 -3 714.53 54.59
-7 10 3 767.82 51.39
-7 -3 -3 732.43 52.09
-10 3 3 646.04 51.49
10 -3 3 664.03 51.49
-3 10 -3 676.73 54.49
-3 -7 3 628.34 50.39
-10 7 3 468.15 38.7
-3 10 3 496.05 39.6
-7 -3 3 533.75 38.9
-7 10 -3 482.25 39.9
-3 10 3 512.85 37.8
7 3 3 507.45 37.6
-7 10 -3 450.05 40.4
-10 7 3 400.76 36.3
7 3 3 510.85 38.9
7 3 3 489.75 45.3
-10 2 3 129.59 16.4
10 -2 3 167.38 27.4
-2 10 -3 116.59 18.6
8 2 -3 69.09 22.5
-2 10 -3 94.39 20.7
10 -2 3 85.59 14.9
-10 2 3 95.89 12.4
-10 8 -3 107.89 18.2
2 8 3 100.49 13.7
-8 10 3 99.39 15.2
-8 -2 -3 131.59 17.2
-8 10 3 116.29 18.8
-8 10 3 120.19 15
-10 8 3 107.39 13.8
-8 10 -3 107.49 16.6
8 2 3 145.49 24.5
-10 2 -3 139.39 17.7
-10 2 -3 174.18 18
-8 -2 3 161.88 18
-8 10 -3 129.19 22.5
-10 8 3 149.29 18.4
-2 10 3 164.18 21.3
-8 10 -3 114.79 17.2
8 2 3 140.59 16.8
-2 10 3 133.69 15.3
-9 10 3 428.76 35.1
1 9 3 486.65 35.4
9 1 3 375.56 38.1
-1 10 3 386.26 30.4
-10 10 3 1786.22 131.59
-10 10 -3 1801.62 132.59
-10 0 3 1842.62 131.09
-10 0 -3 2053.39 131.69
0 10 -3 1801.02 132.39
-10 10 3 1757.42 131.29
-5 11 -3 182.68 21.6
5 6 3 166.58 18.6
5 6 3 215.88 17.9
-6 11 3 157.58 18
6 5 3 212.78 18.6
-5 11 3 185.58 17.8
-6 11 -3 133.69 20.3
6 5 3 197.18 19.1
-4 11 -3 87.69 17.2
4 7 3 101.59 13.9
-7 11 3 83.49 13.5
7 4 3 92.89 13.9
-11 3 3 236.08 22.1
-8 11 3 256.47 25.1
-3 11 -3 215.28 27.5
-3 -8 3 179.08 20.1
-11 3 3 204.88 22.7
-11 8 -3 219.58 25.2
-8 -3 -3 262.17 23.6
-2 11 -3 319.57 33.1
-11 2 3 323.27 29
-9 11 3 332.97 32.6
-9 -2 -3 373.66 31.2
-11 9 -3 314.77 32.8
-9 11 3 315.17 30
-2 11 3 316.67 30.3
-11 2 -3 359.66 29.3
-9 11 -3 273.07 30
-9 11 -3 298.37 31.7
-11 2 -3 254.97 28.3
-9 -2 3 321.77 28.6
-11 9 3 329.77 29
-10 11 3 305.87 29.3
-10 -1 -3 307.07 27.7
-11 10 -3 293.77 31.6
-10 11 3 301.97 31.3
-11 1 3 294.67 27.4
-1 11 -3 260.97 32.5
1 10 -3 208.88 24
-10 11 -3 228.78 26.7
-10 11 -3 220.38 26.6
-10 -1 3 270.97 25.1
-1 11 3 273.57 26.3
-11 10 3 205.18 22.9
-11 10 3 293.57 25.8
-11 1 -3 269.87 24.7
-11 0 -3 128.79 18.2
-11 11 3 126.79 21.4
0 11 -3 91.59 18.4
-11 0 3 110.79 20.2
-11 11 -3 126.09 21.3
-11 11 3 110.99 21.2
-6 12 -3 49.8 17.7
-12 6 -3 81.09 17
-6 -6 3 43.7 14.2
-12 6 3 51.89 14.6
-6 12 3 62.89 15.1
-5 -7 3 54.59 13.5
-5 12 -3 67.19 19
-12 7 -3 65.09 16.3
-12 5 3 64.79 14
-7 -5 -3 42.2 12.6
-7 12 3 75.69 16.6
-7 -5 3 43.7 13.3
-12 5 -3 62.49 16.8
-12 7 3 59.59 14.9
-12 5 -3 44.6 11.6
-5 12 3 51.99 14.8
-7 12 -3 68.09 17.6
-4 -8 3 365.36 35.3
-8 -4 -3 439.66 36.5
-12 8 -3 447.66 37.7
-12 4 3 417.96 36.6
-8 12 3 445.06 38.7
-4 12 -3 457.65 40.3
-12 4 3 409.26 34.4
-12 8 3 364.16 32.4
-4 12 3 375.86 34.9
-8 12 -3 359.36 34.8
-8 -4 3 350.86 32.2
-12 4 -3 391.96 34.9
-12 4 -3 333.77 30.9
-3 -9 3 66.59 12.1
-9 12 3 102.49 20.2
-9 12 3 69.49 14.3
-12 3 3 60.39 13.5
-12 3 3 91.29 15.1
-3 12 -3 94.39 19.9
-9 -3 -3 114.09 19.6
-12 9 -3 103.99 19.6
-3 12 3 83.29 17.3
-12 3 -3 74.59 14.2
-12 3 -3 60.19 15.7
-9 12 -3 91.59 19
-9 -3 3 94.79 16.2
-12 9 3 99.09 17.4
-10 -2 -3 130.49 21.1
-10 12 3 117.29 20.5
-12 2 3 104.39 18.3
-12 10 -3 129.29 23.6
-10 12 3 119.39 23.9
-2 12 -3 117.59 22.7
-10 12 -3 97.89 18.5
-2 12 3 125.39 21.9
-12 2 -3 105.99 17.9
-12 10 3 125.09 19.8
-10 12 -3 109.39 23.9
-10 -2 3 101.59 18.2
-11 12 3 1084.59 83.69
-11 12 3 1136.19 84.19
-1 12 -3 1127.59 86.09
-11 -1 -3 1169.18 83.59
-12 1 3 1184.08 83.49
-12 11 -3 1101.59 84.99
-11 12 -3 1103.99 85.49
-12 11 3 1249.88 85.79
-1 12 3 1033.2 83.79
-11 -1 3 1182.68 84.29
-12 1 -3 1161.28 84.09
-12 12 3 739.03 56.09
-12 0 -3 707.03 54.79
0 12 -3 586.44 55.69
-12 12 -3 717.43 57.29
-12 0 3 730.23 55.29
-7 13 3 101.19 21.2
-6 -7 3 99.09 18.4
-6 13 -3 122.39 22
-13 6 3 106.69 18.3
-13 7 -3 118.79 21.6
-7 -6 3 84.79 16.4
-13 7 3 81.49 16.5
-13 6 -3 99.99 21.6
-7 13 -3 134.59 22.8
-6 13 3 90.79 17.7
-13 8 -3 121.99 22.8
-8 13 3 91.99 17.6
-5 -8 3 61.39 15.2
-8 -5 -3 61.19 14.6
-5 13 -3 88.99 20.9
-13 5 3 87.29 17.4
-8 -5 3 62.99 16.2
-8 13 -3 114.89 21.5
-13 5 -3 54.99 13.4
-13 8 3 79.59 16.1
-13 5 -3 93.19 20.5
-5 13 3 84.49 17
-13 4 3 326.57 30.7
-13 4 3 266.67 29.5
-9 13 3 361.46 33.1
-9 -4 -3 403.56 33.5
-4 -9 3 278.07 29
-4 13 -3 339.67 36.2
-13 9 -3 396.86 34.7
-13 4 -3 290.97 30.6
-13 9 3 341.17 30.9
-9 13 -3 340.27 33.5
-9 -4 3 321.07 31.9
-13 4 -3 300.97 33.8
-4 13 3 325.27 31.7
-13 3 3 210.08 25.4
-10 13 3 235.08 27.3
-13 10 -3 232.68 26.8
-10 -3 -3 225.98 25.3
-3 13 -3 194.38 29.5
-3 13 3 215.38 25.7
-10 -3 3 212.28 24.5
-13 10 3 235.78 27.8
-10 13 -3 245.38 30.2
-13 3 -3 203.48 23.6
-13 3 -3 185.88 24.8
-11 -2 -3 298.47 28.4
-2 13 -3 254.67 34.1
-11 13 3 303.17 30.7
-13 2 3 263.67 27.5
-11 13 3 236.98 27.2
-13 11 -3 290.27 30.2
-2 13 3 309.07 31.8
-11 -2 3 369.66 33.3
-13 11 3 387.36 33.3
-11 13 -3 293.37 32.1
-13 2 -3 367.16 32.5
-11 13 -3 303.87 33.5
-12 13 3 158.78 24.5
-13 12 -3 169.08 24
-12 -1 -3 145.19 23.5
-1 13 -3 124.29 27.6
-13 1 3 149.69 21.9
-12 13 3 140.59 25.1
-13 12 3 183.78 23.2
-12 13 -3 139.29 25.3
-13 1 -3 132.19 22.6
-12 -1 3 140.59 21.2
-12 13 -3 107.29 21.3
-13 13 -3 538.95 46.6
-13 13 3 442.06 44.7
-13 0 -3 550.74 44.7
-13 13 3 573.84 46.1
-13 0 3 618.44 46.6
-14 7 3 313.87 30.2
-14 7 -3 327.07 33.7
-7 -7 3 265.47 30
-7 14 3 276.37 30.9
-7 14 -3 303.77 34.5
-6 -8 3 104.79 20.1
-14 8 -3 148.09 23.5
-14 6 3 142.59 23.8
-8 -6 -3 100.39 21.7
-6 14 -3 167.48 27.8
-8 14 3 169.68 26
-8 -6 3 147.89 23
-6 14 3 168.08 24.9
-14 8 3 163.08 25.3
-8 14 -3 192.78 30.8
-14 6 -3 171.38 25.5
-5 14 -3 358.16 36.5
-14 5 3 240.18 27.2
-5 -9 3 255.67 28.6
-14 9 -3 328.97 31.6
-9 -5 -3 305.97 31.8
-14 5 3 308.87 29.3
-9 14 3 349.47 34.2
-5 14 3 286.77 33.2
-14 5 -3 278.47 30.1
-14 9 3 310.57 30.7
-9 -5 3 296.77 30.2
-14 5 -3 318.87 34.7
-9 14 -3 322.77 33.9
-10 14 3 350.46 35
-4 14 -3 386.16 40.4
-14 4 3 302.47 31.4
-10 -4 -3 362.36 35.1
-14 10 -3 365.66 34.5
-14 4 -3 271.07 34.5
-10 -4 3 343.77 32.1
-14 4 -3 309.87 32.6
-10 14 -3 386.86 37.5
-4 14 3 351.36 34.9
-14 10 3 351.86 34.7
-11 -3 -3 123.29 24.1
-14 11 -3 171.48 26
-14 3 3 85.59 16.9
-3 14 -3 118.29 24.3
-11 14 3 141.19 26.9
-11 -3 3 76.89 16.1
-14 3 -3 63.49 15.7
-11 14 -3 85.39 20.4
-14 11 3 111.29 20.5
-3 14 3 79.09 18.4
-12 14 3 560.84 50.49
-14 2 3 633.64 51.09
-12 -2 -3 653.23 51.79
-14 12 -3 648.54 53.49
-2 14 -3 608.64 54.79
-12 14 3 642.34 51.99
-12 14 -3 529.75 49.9
-12 14 -3 518.95 49.99
-12 -2 3 719.23 51.19
-14 12 3 681.63 51.09
-2 14 3 574.64 50.09
-14 2 -3 645.14 49.2
-1 14 -3 573.64 51.69
-13 14 3 506.65 49.4
-14 1 3 661.53 49.2
-14 13 -3 625.34 50.79
-13 14 3 622.04 50.69
-13 -1 -3 603.34 49
-13 14 -3 339.77 30.8
-14 14 3 292.37 30.9
-14 0 -3 282.57 29.2
-14 0 3 290.37 31.5
0 -14 -3 240.48 22.8
0 -14 3 263.77 25.3
-14 14 -3 276.37 31.2
-15 7 3 460.85 41.6
-7 15 -3 530.45 47.2
-7 -8 3 375.56 40.1
-15 8 -3 500.35 43.4
-8 15 3 426.76 40.8
-8 15 -3 525.55 44.7
-8 -7 3 411.56 40.3
-15 8 3 439.16 40.5
-15 7 -3 471.55 43.8
-7 15 3 455.05 41.3
-15 6 3 72.59 18.1
-6 15 -3 99.39 24.1
-9 15 3 83.09 18.2
-9 -6 -3 45.2 14.8
-6 -9 3 46.7 13.9
-15 9 3 66.89 17.3
-6 15 3 70.89 17.7
-9 15 -3 85.69 20.9
-9 -6 3 60.49 17.7
-15 6 -3 61.09 18.5
-15 5 3 43.1 14.1
-10 -5 -3 65.09 16.5
-15 5 3 40.8 12.5
-15 10 3 86.59 19.2
-10 -5 3 61.99 16.3
-5 15 3 75.59 19.2
-15 5 -3 38.4 18.2
-11 -4 -3 0.4 3.8
15 -11 -3 -4.5 5.8
-15 4 3 -3.2 13.8
4 -15 -3 -5 3.5
-11 15 3 15.1 17.8
-11 -4 -3 4.4 16.2
-4 15 -3 24.3 20.6
-15 11 3 43.1 16.8
-15 4 -3 20.8 15.1
-4 15 3 54.69 18.5
-11 -4 3 30.6 14.5
-15 4 -3 11.3 15.3
-11 15 -3 53.09 18.3
-12 -3 -3 28.1 16.8
-12 15 3 43.8 18.9
-15 3 3 21.6 15.5
-3 15 -3 36.4 19.7
-15 12 -3 62.99 17.3
12 -15 -3 13.2 6.1
-3 15 3 46 16.3
-3 -12 -3 23.9 6.9
-15 3 -3 31.9 15.3
-12 -3 3 48.6 15.6
-12 15 -3 46 17.4
-2 -13 3 74.99 14.8
-13 15 3 53.89 17.8
-2 15 -3 61.99 20.3
-15 13 -3 82.49 20
-15 2 3 49.3 17.2
2 -15 -3 49.1 9.3
-13 -2 -3 60.99 18.4
-13 -2 3 128.39 25.5
-13 15 -3 94.29 21.9
-15 13 3 135.29 24.7
-15 2 -3 125.49 20.5
-2 -13 -3 133.49 16
13 -15 -3 89.69 15.1
2 -15 3 131.79 18.8
15 -1 3 416.96 34.3
15 -14 -3 413.66 34.8
-15 14 -3 477.25 41.5
1 -15 -3 435.86 35.4
-14 -1 -3 432.66 39.4
-15 1 3 484.75 41.5
-14 15 3 385.96 39.9
14 -15 -3 466.15 36.8
-15 1 -3 424.66 40.8
-15 14 3 449.76 42.5
-1 -14 -3 512.35 37.4
-14 -1 3 488.55 41.6
-14 15 -3 367.76 41.7
1 -15 3 513.05 40.4
14 1 3 470.55 36.2
-15 0 -3 55.39 17
0 -15 3 71.89 13.2
15 0 3 62.99 11.8
15 -15 -3 50.89 12.2
-15 15 3 68.89 19.5
0 -15 -3 66.49 13.1
-15 0 3 60.89 16.8
-15 15 -3 66.59 19.5
-8 -8 3 94.69 17.7
8 8 -3 46.2 10.4
-8 -8 -3 67.59 13.2
-8 16 3 50.39 10.8
8 -16 -3 59.39 8.3
-8 16 -3 34.8 13.3
-9 -7 -3 8.9 6.2
-9 16 3 5.3 8.9
9 7 -3 -4.8 6
-16 9 -3 47.9 17.3
-16 7 3 42.1 17.8
7 -16 -3 9.1 6.7
-9 -7 -3 12.3 11.6
-9 16 3 31.8 17.9
-7 -9 3 15.7 12.2
16 -9 -3 0.4 4.2
7 -16 3 58.69 9.4
-7 16 3 56.79 19.3
-16 7 -3 63.39 19.9
-16 9 3 64.09 19.4
-9 -7 3 27.3 16.8
-10 -6 -3 164.18 25.8
6 -16 -3 125.09 15.1
-16 10 -3 104.29 19.4
-10 -6 -3 148.49 17.7
-16 6 3 135.79 21.9
-16 10 3 93.49 22.6
10 -16 -3 106.29 13.8
6 -16 3 83.69 11.3
6 10 -3 114.19 15.3
-6 -10 -3 76.79 13.1
16 -11 -3 82.59 11.1
-16 5 3 70.69 15.7
-16 5 3 55.39 12.1
-16 11 -3 111.89 25.4
-11 16 3 42.5 10.2
-16 5 -3 138.39 26.4
-5 -11 -3 166.68 19.3
5 -16 3 142.29 18
-16 11 3 195.58 26.9
11 -16 -3 135.39 18.1
-16 11 3 164.58 26.4
-11 -5 3 172.38 25.5
-5 16 3 192.58 30.8
-12 -4 -3 32.8 18.3
-4 16 -3 58.09 21.9
-4 -12 3 16.7 5.8
-12 -4 -3 25 8.4
-16 4 3 13.2 13.3
16 -4 3 18.7 7.4
4 -16 -3 31.4 10.2
16 -12 -3 32.7 9.1
4 -16 3 99.89 18.9
-16 12 3 102.39 20.6
12 -16 -3 78.89 12.6
-12 -4 3 93.49 18.4
4 12 -3 60.19 14.1
-4 16 3 64.79 19.9
-16 4 -3 58.59 16.3
-4 -12 -3 95.89 13.6
-16 13 -3 672.83 64.59
-13 -3 -3 851.01 64.29
16 -13 -3 838.12 58.69
3 -16 -3 794.72 58.69
-3 16 -3 740.93 66.69
16 -3 3 771.42 58.09
-13 -3 -3 824.22 59.89
-3 -13 3 878.01 60.59
-13 16 3 766.12 65.19
-16 13 -3 814.12 65.09
-16 3 3 771.02 62.89
-16 13 3 771.82 59.79
-16 3 -3 628.14 57.19
3 13 -3 697.93 56.19
-13 -3 3 690.73 58.19
-3 -13 -3 796.92 55.09
13 -16 -3 743.63 54.59
-16 13 3 687.03 60.29
3 -16 3 788.72 57.19
-16 14 -3 77.59 19.1
-14 -2 -3 67.19 18.9
-14 -2 -3 38.3 9.3
-14 16 3 12.8 15.6
-2 16 -3 31.8 13.9
16 -2 3 60.99 12.2
-2 -14 3 45.7 11.5
2 -16 -3 63.89 12.5
16 -14 -3 42.4 11.8
-16 14 -3 75.09 20.3
-16 2 3 37.2 16.2
-16 14 3 47.1 16.9
-14 16 -3 -0.6 10.2
-14 -2 3 32.1 16.9
-2 -14 -3 8.4 5.3
2 -16 3 18.5 11.4
-16 2 -3 18.9 15.7
-2 -14 -3 22.3 12.9
-16 14 3 24.1 17.6
14 -16 -3 26.4 12
2 14 -3 17.7 12.8
-16 15 -3 47.8 17.5
-15 -1 -3 59.89 18.5
-15 -1 -3 60.89 11.1
-16 1 3 81.59 19.1
-16 15 -3 83.49 20.8
16 -15 -3 84.69 13.9
16 -1 3 75.59 13.3
-1 -15 3 58.09 13
-16 15 3 68.89 17.5
-16 1 -3 40.9 16.3
1 -16 3 44.9 12.2
-16 15 3 47.6 18.7
15 1 3 59.69 12.4
-1 -15 -3 85.29 14.4
15 -16 -3 60.19 13.2
-15 -1 3 44.2 16.7
1 15 -3 48 13.8
-16 16 3 139.99 25.6
-16 16 -3 98.49 18.9
0 -16 -3 116.39 14.8
17 -9 -3 58.09 10.2
-17 9 -3 63.19 18.9
-17 9 -3 71.09 18.9
-9 17 3 68.69 19.2
8 -17 -3 55.79 12.5
-9 -8 -3 51.69 12.2
-17 8 3 64.69 20.2
-17 8 -3 48.4 18.4
-9 -8 3 26.2 15.5
9 -17 -3 29.3 11
-8 -9 -3 36.8 11.1
-17 9 3 39.1 14.1
-17 9 3 40 17.9
-8 17 3 75.39 20.8
8 9 -3 14.1 15.1
17 -8 -3 18.9 7
-17 7 3 176.18 28.2
17 -10 -3 185.48 20.8
-17 10 -3 257.37 35.3
7 -17 -3 187.98 23.3
-7 17 -3 216.48 31.6
-10 17 3 233.68 27.9
10 7 -3 162.68 24.3
-10 17 3 249.28 33.5
-10 -7 -3 198.98 27.6
-17 7 -3 228.68 30.3
-17 10 3 230.98 30
-17 10 3 242.18 31
7 10 -3 188.68 30.9
-7 17 3 265.67 34.4
-7 -10 -3 242.78 28.6
-10 -7 3 207.98 30.6
-10 17 -3 251.77 32.7
-7 17 3 187.08 26.7
10 -17 -3 225.58 24.6
7 -17 3 205.38 22.6
11 6 -3 374.16 36.1
-11 -6 -3 496.85 39.9
-17 11 -3 480.45 45.9
6 -17 -3 448.26 36.2
17 -6 3 442.46 34.9
-11 -6 -3 389.26 40.3
17 -11 -3 446.36 36.2
-11 17 3 470.85 44.4
-6 17 -3 492.85 46.2
-11 17 3 406.36 39.1
-17 11 -3 478.75 43.2
-6 17 -3 339.97 41.6
-17 11 3 426.56 40.2
6 11 -3 388.06 39
-17 11 3 442.86 42.8
-6 -11 -3 439.86 37.6
-6 17 3 340.47 39.9
-11 -6 3 386.66 40.1
11 -17 -3 386.96 35
6 -17 3 404.66 36
-12 17 3 305.77 37.5
-5 17 -3 306.27 40.1
17 -5 3 278.27 26.6
-12 -5 -3 237.88 33.4
-17 12 -3 309.07 34.3
-12 17 3 230.38 31.5
5 -17 -3 234.48 27.7
-12 -5 -3 272.67 32
17 -12 -3 258.07 27.9
-5 -12 3 276.27 27.9
-17 12 -3 332.17 36
12 -17 -3 174.88 23.9
-17 12 3 198.38 31
5 12 -3 176.68 28.7
-12 -5 3 159.48 26.4
-5 -12 -3 164.28 24.2
-5 17 3 180.38 32.1
-5 -12 -3 135.89 25.2
5 -17 3 208.28 27
-5 -12 -3 198.78 25.6
-4 17 -3 33.1 20.2
17 -13 -3 6.4 11.2
-13 17 3 27 20.4
-4 -13 3 14.1 11.2
-17 13 -3 55.19 20
17 -4 3 9.9 11.3
-13 17 3 8 11.9
-13 -4 -3 5.9 17.7
-13 -4 -3 7.4 10.4
4 -17 -3 10.4 11.9
4 -17 3 12.4 10.7
4 13 -3 11.7 15.7
-4 17 3 -15.2 13.8
-4 -13 -3 10 9.6
-17 13 3 22.1 19.1
-4 -13 -3 4.7 14.6
17 -4 -3 15.3 6.5
-13 17 -3 22.3 17.9
-13 -4 3 9.1 16.7
-4 -13 -3 19.6 12.9
13 -17 -3 14.2 12.1
-14 -3 -3 388.26 43.2
17 -3 3 502.45 38
-17 14 -3 400.66 43.6
3 -17 -3 430.36 37
17 -14 -3 410.06 37.9
-17 14 -3 494.35 46.8
-3 -14 3 476.05 41.5
-14 -3 -3 429.56 40.4
3 14 -3 416.06 39
-3 -14 -3 375.66 35
-17 14 3 454.55 44.5
14 -17 -3 373.86 35.1
-17 14 3 383.56 39.7
-14 -3 3 339.67 37.8
3 -17 3 380.16 39.4
-3 -14 -3 428.86 37
-15 -2 -3 56.39 12.3
2 -17 -3 60.19 13.2
17 -15 -3 60.99 13.1
-17 2 3 30.3 14.7
-2 -15 3 52.79 13
-15 -2 -3 37.9 17.3
17 -2 3 81.99 13.7
-17 15 -3 56.09 19
17 -2 -3 18.3 7.3
15 2 3 51.39 11.4
2 15 -3 58.09 15.8
-2 -15 -3 60.19 13.8
-2 -15 -3 29.7 10.7
15 -17 -3 33.8 12.4
2 -17 3 41.5 12.7
-15 -2 3 34.3 17.4
-17 15 3 25.8 18.1
1 -17 -3 28.4 11.7
17 -1 3 36.1 11.8
-1 17 -3 14.8 10.7
-17 16 -3 58.39 19.3
-1 -16 3 23.9 11.7
-17 1 3 20.5 14.5
-16 -1 -3 30.1 17.3
17 -16 -3 34.5 12.6
-1 -16 -3 82.69 13.7
1 -17 3 63.09 13.2
17 -1 -3 46.3 8.9
-1 -16 -3 45.6 10.5
16 -17 -3 72.09 13.2
-16 -1 3 36.1 16.5
0 -17 -3 46.8 12.8
-17 17 3 54.89 18.2
17 0 -3 21.5 7.9
0 -17 -3 22.7 8.9
17 0 3 48.2 12.2
17 -17 -3 36.7 12.2
0 -17 3 18.2 11.1
-17 17 -3 24.9 16.7
-17 0 3 18.4 12.6
18 -9 -3 22.1 11.9
-18 9 3 22.5 18.9
-18 9 3 42 17.4
9 -18 3 29.6 8.7
-9 -9 -3 21.5 11.8
-18 9 -3 30.3 17.9
9 -18 -3 36.8 12.6
-18 9 -3 26.5 19
18 -9 3 22.3 11.2
-9 18 3 62.99 22
9 9 -3 5.7 15.5
10 8 -3 140.09 28.2
-18 8 3 115.69 20.1
18 -10 -3 167.88 22.5
-18 8 3 120.69 24
-18 10 -3 175.48 30.3
8 -18 -3 154.08 23.5
-10 -8 -3 172.28 28.1
-10 18 3 201.48 30.8
18 -8 3 178.28 23
10 -18 3 175.18 19
8 10 -3 72.09 17.7
-8 -10 -3 77.79 13.7
18 -8 -3 57.09 12.4
10 -18 -3 64.89 13.2
18 -10 3 62.29 11.2
-18 10 3 76.39 21.8
-10 -8 3 44.9 14.4
-18 8 -3 71.59 21.2
-8 18 3 95.29 22.5
-18 8 -3 47.7 18.6
18 -7 3 54.39 13.5
11 7 -3 18.2 15.2
7 -18 -3 34.1 12
18 -11 -3 37.1 12.6
-18 11 -3 48.5 19.4
-11 -7 -3 29.8 12.4
-11 18 3 43.7 19.6
-11 -7 -3 13.8 10.6
-7 -11 3 29.7 9.5
11 -18 -3 102.19 14.6
18 -7 -3 65.39 12.2
18 -11 3 55.99 10.7
-7 -11 -3 65.29 13.1
7 -18 3 65.29 12.5
-11 -7 3 56.79 17.8
7 11 -3 68.19 17.5
-18 11 3 84.49 22.1
-7 -11 -3 48.7 11.8
-18 7 -3 31 14.5
-7 18 3 115.19 23.8
-12 18 3 48.8 22.1
18 -12 -3 2.3 12.1
-18 12 -3 33.1 19.2
-6 18 -3 70.59 24.2
-12 -6 -3 9.6 11.3
-6 18 -3 34.4 16.7
18 -6 3 -0.7 12.4
6 -18 -3 7.2 11.4
6 12 -3 5.1 16.1
-6 -12 -3 2.8 11.1
-12 -6 3 4.6 17.1
6 -18 3 7.1 10.8
-6 18 3 32.3 13.8
-18 12 3 16.3 19.5
-12 18 -3 24.7 14.4
18 -12 3 0.5 7.7
-6 18 3 16.1 19.1
18 -6 -3 11.7 11.4
-18 6 -3 -12.5 12
12 -18 -3 1.1 12.5
-6 -12 -3 -2.1 13.7
-5 18 -3 198.88 34.6
-13 -5 -3 233.78 30.3
18 -5 3 219.38 26.4
5 13 3 179.78 27.8
-13 -5 -3 209.98 27.7
13 5 -3 182.28 24.3
-18 13 -3 240.48 30.2
-5 18 -3 282.97 36.2
5 -18 -3 195.88 25.8
-13 18 3 265.47 32
-13 18 3 212.48 35.3
-5 -13 3 213.18 29.7
18 -13 -3 218.18 25.7
-5 -13 -3 194.98 31.7
-13 18 -3 168.48 28.9
13 -18 -3 227.38 26.1
-18 13 3 247.88 34.7
-5 -13 -3 262.77 31
-13 -5 3 180.98 28.4
-13 18 -3 236.48 33.1
5 -18 3 207.18 30.2
18 -5 -3 230.58 24.8
5 13 -3 250.37 32.2
4 -18 -3 41.3 12.2
-14 -4 -3 47.5 12.2
-14 -4 -3 32.6 15.7
18 -14 -3 45 13.3
-4 18 -3 20.3 14.5
-4 -14 3 39.6 12.4
-14 18 3 57.39 14.9
18 -4 3 55.89 13.4
-18 14 -3 48.3 18.6
-4 -14 -3 15.3 11.4
18 -4 -3 4.1 10.1
-14 18 -3 -1.1 10.4
-18 14 3 26.5 20.5
18 -14 3 0 6.4
4 14 -3 28.2 16.3
14 -18 -3 14.7 12.3
-4 -14 -3 16.1 16.2
4 -18 3 1 11.3
-4 -14 -3 8 12.1
-14 -4 3 11.1 16.5
18 -15 -3 13.2 12.1
18 -3 3 30.8 12.3
15 3 -3 3.1 4
-15 -3 -3 11.7 11
-15 18 3 1.5 10.9
3 -18 -3 12.2 11.6
-15 -3 -3 2.7 14.4
-3 -15 3 8.4 10.5
-18 15 -3 22.4 15.8
-3 -15 -3 12.7 11.8
-3 -15 -3 3 11.5
18 -3 -3 8.1 10
18 -15 3 -5.7 6
-18 15 3 4 16.9
-3 -15 -3 13.3 16.5
3 -18 3 7.5 11.2
15 3 3 24.1 11.2
-15 -3 3 -0.6 14.7
3 15 -3 38.8 15.7
15 -18 -3 16.3 12.7
18 -2 3 29.2 12.1
-16 -2 -3 22.5 14.2
-2 -16 3 11.9 11
18 -16 -3 25.5 12.1
2 -18 -3 20.1 11.4
-2 -16 -3 25 12.2
2 -18 3 12.8 11.5
-16 -2 3 3.8 14.7
-2 -16 -3 26.7 17.5
-2 -16 -3 12.6 10.7
2 16 -3 53.89 16.3
18 -2 -3 18.7 10.3
16 2 3 33 11.8
16 -18 -3 32.3 12.2
1 -18 -3 7.8 6.1
18 -17 -3 16.6 11.4
18 -1 3 21.1 12.2
-1 18 -3 30.5 13.1
-1 -17 3 2.9 10.6
17 1 -3 10.2 7.2
1 -18 -3 21.4 11.9
-18 17 -3 49.2 18.8
18 -1 -3 4.8 9.1
-1 -17 -3 16.9 10.3
17 -18 -3 17.6 11.9
17 1 3 23.6 11.4
1 -18 3 6 10.7
-1 -17 -3 26.5 18.2
-1 -17 -3 0.9 10.8
1 17 -3 49.8 16.2
0 -18 -3 87.39 13.4
18 0 3 112.69 20
-18 18 3 98.29 19.7
0 18 -3 133.79 24.7
0 -18 -3 100.69 20.8
18 -18 -3 113.29 14.4
0 -18 3 87.89 13.2
18 0 -3 62.09 11.4
-19 10 -3 22.2 16.8
19 -10 -3 20.5 13
-10 19 3 36.3 22
-19 9 3 51.29 19.6
-19 10 -3 52.79 19
9 -19 -3 19.9 12.1
10 -19 -3 44.2 12.9
-19 10 3 15.8 17.5
19 -9 -3 46.7 13.5
19 -10 3 42.4 14.4
-9 -10 -3 41.6 12.3
9 10 -3 22.5 15.5
-19 9 -3 26 15.9
-9 19 3 59.09 21.4
-19 9 -3 46.7 18.7
9 -19 3 29 11.1
-11 19 3 55.79 22.8
-19 11 -3 41.6 19.7
-19 8 3 28.2 16.5
11 -19 3 28.5 7.9
-8 -11 3 21.7 10.4
11 8 -3 31.3 16.6
-11 -8 -3 24.8 11.5
19 -11 -3 56.99 13.7
8 -19 -3 44.7 12.5
19 -8 3 36.8 14.2
8 -19 3 21.8 11.6
11 -19 -3 23.7 12.2
19 -8 -3 29.5 13.1
-8 -11 -3 11.8 9.7
-8 -11 -3 20.2 11.5
-19 11 3 37.1 19.9
-8 19 3 40.4 20.4
-19 8 -3 10.3 15.9
19 -11 3 27.1 13.8
8 11 -3 38.1 16.4
-12 19 3 172.78 34.4
-7 -12 3 125.09 27.5
12 -19 3 146.19 18
-19 12 -3 159.98 29.8
19 -7 3 160.18 25.8
-7 19 -3 221.78 34.3
-7 19 -3 186.28 30.9
19 -12 -3 161.28 24.2
7 -19 -3 150.38 22.9
-12 -7 -3 142.39 28.1
12 7 -3 127.79 28.1
-19 12 3 97.09 23.5
-7 19 3 191.78 26.9
12 -19 -3 138.39 22.2
7 -19 3 148.69 26.9
-7 -12 -3 120.69 26.4
-12 19 -3 202.88 29.2
19 -7 -3 143.39 23.5
7 12 -3 133.09 28.2
-7 -12 -3 180.88 28.8
19 -12 3 170.58 23.7
-6 19 -3 349.37 40
6 -19 -3 333.17 31.9
19 -6 3 380.46 33.3
-13 19 3 354.66 37.3
-6 -13 3 362.56 35.9
19 -13 -3 346.87 32.3
-13 -6 -3 368.36 35.7
-19 13 -3 296.97 37.2
6 13 3 296.37 34.1
13 6 -3 329.97 34.3
6 -19 3 341.07 35.1
-6 -13 -3 291.47 35.5
13 -19 -3 301.47 30.4
-6 -13 -3 345.47 35.7
19 -13 3 306.67 30.1
-19 13 3 272.37 37.9
6 13 -3 332.67 36.8
-13 19 -3 324.17 37.2
19 -6 -3 309.87 30.4
-6 19 3 325.07 35.3
-19 14 -3 56.69 19.2
5 14 3 49.9 14.9
14 5 -3 44.5 13.3
19 -5 3 75.19 14.1
-5 19 -3 77.59 16.9
-5 -14 3 46.1 12.6
19 -14 -3 82.69 14.2
-14 -5 -3 62.79 12.7
14 -19 3 70.99 10.5
5 -19 -3 67.99 12.7
14 -19 -3 101.09 14
19 -14 3 68.69 12.2
-5 19 3 73.79 15.4
-14 19 -3 64.79 15.3
19 -5 -3 69.59 13.2
5 -19 3 48.5 12.8
-5 -14 -3 62.29 16.9
-19 14 3 51.59 20.1
-5 -14 -3 82.79 14
19 -4 3 204.88 23.5
-15 19 3 157.78 27.4
4 15 3 192.18 27.4
-4 -15 3 201.28 27.9
4 -19 -3 170.28 22.9
19 -15 -3 183.38 24.5
-15 -4 -3 206.28 28.7
15 4 3 118.39 21
-4 -15 -3 138.89 29
4 -19 3 111.29 15.5
-4 -15 -3 122.99 28.4
15 -19 -3 103.69 14.9
19 -4 -3 99.79 14.8
3 -19 -3 45.7 12.2
3 16 3 36.3 14.3
-3 -16 3 26.2 11.2
19 -3 3 42.7 12
19 -16 -3 37.8 12.1
3 -19 3 35.3 11.8
-3 -16 -3 63.49 13.5
-3 -16 -3 48.1 12.6
16 -19 -3 56.99 12.8
16 3 3 76.69 12.8
19 -3 -3 33.8 11.6
-3 -16 -3 82.19 18.3
2 17 3 22.9 14.2
19 -2 3 5.8 10.6
19 -17 -3 3.9 10.9
2 -19 -3 2.5 10.9
17 2 3 7.4 11.1
-2 -17 -3 6.3 15.9
-2 -17 -3 -0.5 10.4
19 -2 -3 -2 10
19 -17 3 -11.1 5
17 -19 -3 10.4 10.9
-2 -17 -3 4 10.1
2 -19 3 2.1 9.8
1 18 3 150.58 24.4
-1 19 -3 133.29 22.7
1 -19 -3 143.19 16.4
19 -18 -3 116.29 20.5
-1 -18 3 108.99 24.3
1 -19 -3 170.88 31.8
19 -1 3 124.79 20.9
-19 18 -3 151.88 30.5
18 1 3 91.99 12.4
1 -19 3 75.59 11.8
-1 -18 -3 83.89 12.6
19 -1 -3 51.79 10.9
-1 -18 -3 49.5 11.2
0 -19 -3 66.89 11.4
0 -19 -3 52.39 9
19 0 -3 47.8 9.1
0 -19 3 54.99 10.7
-10 20 -3 52.19 17.6
-10 -10 3 9.8 7.5
10 10 -3 7.9 15.5
10 -20 -3 27.4 11.6
-10 -10 -3 25.2 11
-10 20 3 -11.6 15.7
20 -10 3 12 14.2
-20 10 -3 45.5 18
20 -10 -3 22.5 12.9
10 -20 3 14.4 9.2
-20 9 3 69.79 17.8
20 -11 -3 70.69 14.2
11 9 -3 62.99 16.9
-11 -9 -3 47.6 11.9
20 -9 3 74.29 14.5
11 -20 3 40 10.1
9 -20 -3 75.59 13.1
-9 -11 3 45.4 11.2
9 11 -3 84.49 17.9
20 -9 -3 80.39 14.6
-9 -11 -3 66.29 13.4
-20 9 -3 80.69 18.6
11 -20 -3 76.29 13.3
-11 20 -3 124.89 25.8
20 -11 3 88.59 15.8
20 -8 3 69.49 14.7
12 8 -3 67.49 16.7
12 -20 3 81.89 16.7
20 -12 -3 72.89 13.7
-12 -8 -3 38.2 11.9
8 -20 -3 49.5 12.4
20 -8 -3 54.99 13.5
-8 -12 -3 35.5 13.1
20 -12 3 67.89 14.7
-20 8 -3 40.8 15.6
-8 -12 -3 58.79 12.8
8 -20 3 36.3 11.7
12 -20 -3 68.09 12.5
8 12 -3 71.49 16.4
7 -20 -3 262.07 27
-7 20 -3 296.37 36
13 7 -3 230.98 31
-13 -7 -3 267.87 31.9
-20 13 -3 326.17 38.9
20 -7 3 280.77 29.6
7 13 3 202.48 29.1
-7 -13 3 246.18 31.2
20 -13 -3 255.57 28.1
-13 20 -3 336.67 36.8
-7 -13 -3 288.37 33.6
-7 20 3 328.87 34.3
20 -13 3 307.77 29.3
7 13 -3 289.37 33.3
20 -7 -3 269.37 29.9
-7 -13 -3 256.57 32.5
7 -20 3 284.47 34.1
13 -20 -3 276.57 29
20 -6 3 259.37 27.5
6 14 3 234.38 29.7
6 -20 -3 247.38 26
-6 20 -3 249.08 32.9
20 -14 -3 248.28 27.4
-14 20 3 299.97 32.7
-14 -6 -3 290.07 30.9
-6 -14 3 258.97 30.9
14 6 -3 212.08 28.5
20 -6 -3 243.78 26.5
-14 20 -3 261.17 33.5
-6 20 3 249.88 31.3
-6 -14 -3 257.87 32.1
14 -20 -3 231.38 26.3
20 -14 3 237.18 26.2
-6 -14 -3 210.88 31.1
6 14 -3 260.67 31.1
6 -20 3 220.28 31
20 -15 -3 6.2 11.5
20 -5 3 11.2 11.7
5 -20 -3 11.1 11.2
5 15 3 5 13.3
-5 20 -3 12.1 14.5
15 5 3 24.2 11
-5 -15 -3 12.4 14.8
5 15 -3 27.7 14.4
15 -20 -3 15.4 11.2
20 -5 -3 15.8 11.1
-5 -15 -3 16.7 10.9
-15 20 -3 10.6 12.1
20 -15 3 11.9 10.3
5 -20 3 4.4 10.9
4 -20 -3 76.49 13.2
20 -4 3 81.09 13.7
20 -16 -3 74.29 13
4 16 3 79.09 15.5
-4 -16 -3 75.59 16.2
4 -20 3 41.5 11.6
16 -20 -3 71.99 12.1
-4 -16 -3 49.2 12.1
20 -4 -3 55.19 11.7
20 -16 3 40.3 9.3
-3 -17 3 -1.2 9.4
3 17 3 13.3 12.8
20 -3 3 2.7 10.1
3 -20 -3 0.4 10.7
20 -17 -3 9 10.5
17 3 3 8.1 10.7
-3 -17 -3 0.5 10.9
17 -20 -3 12.6 10.4
-3 -17 -3 4.2 14.5
3 -20 3 -0.7 9.6
20 -3 -3 0.9 9.9
3 17 -3 32.3 14.2
20 -18 -3 24.3 10.8
2 -20 -3 38 16.5
20 -2 3 17.1 10
2 -20 -3 15.5 10.6
-20 18 -3 43.7 17.1
-2 -18 3 20.9 10
2 18 3 48.1 13.6
-2 -18 -3 14.7 9.5
20 -2 -3 20.1 9.7
18 -20 -3 28.1 10.4
18 2 3 28 10.6
-20 18 3 54.59 18.4
-2 -18 -3 23.3 14.5
2 -20 3 17.2 9.6
20 -1 3 -1.7 9.1
-20 19 -3 -6.5 12.6
1 -20 -3 -0.5 9.4
-1 -19 3 -2.6 8.6
1 -20 -3 10 14.5
19 1 -3 0.4 4.4
20 -19 -3 8.5 9.9
1 -20 -3 2.2 3.4
1 19 3 19.3 12.1
-1 20 -3 4.4 8.8
19 1 3 5.6 9.6
-1 -19 -3 1.7 13.5
19 -20 -3 3.7 9.6
1 -20 3 -1.7 8.5
-1 -19 -3 5.2 7
-20 19 3 18.2 15.3
-1 20 3 25.9 12.7
20 -1 -3 3.5 7
0 20 -3 131.89 18.6
0 -20 3 119.89 21
0 -20 -3 157.28 24.2
0 20 3 180.08 22.2
20 0 3 117.59 18.7
20 -20 -3 142.79 19.2
10 -21 -3 9.9 11.2
21 -11 -3 8.9 11.7
-21 10 3 44.5 17.8
-21 11 -3 38 16.9
-10 -11 -3 8.8 9.8
21 -10 -3 6.8 11.4
10 11 -3 6.5 14.1
-21 11 3 52.29 18.3
-21 10 -3 31.9 16.3
11 -21 -3 4.5 11
21 -11 3 3.9 12.8
9 12 3 12.8 9.9
21 -12 -3 41.1 11.9
9 -21 -3 31 11.1
-12 -9 -3 26.1 10.4
12 -21 3 28.7 7.2
12 9 -3 33.8 15
-9 -12 3 25.4 10.2
-21 9 3 31.8 15.8
21 -9 3 37.6 13.3
9 -21 3 17.1 9.6
9 12 -3 24.3 14.3
12 -21 -3 33.8 11.5
-21 9 -3 7.3 13.9
-9 -12 -3 26.7 10.4
21 -12 3 33.8 13.2
21 -9 -3 31.5 12.3
13 8 -3 373.26 37
21 -8 3 443.96 35.7
8 13 3 323.67 35.6
21 -13 -3 421.26 35.2
-21 13 -3 430.36 43.8
-8 21 -3 417.46 41.5
-13 -8 -3 411.96 37.7
-8 -13 3 392.66 36.9
-13 21 3 380.16 37.2
8 -21 -3 413.56 34
21 -8 -3 405.66 35.5
-21 13 3 442.26 43.2
13 -21 -3 395.66 34.6
-13 21 -3 433.76 41.1
-8 21 3 355.46 37
-8 -13 -3 423.16 37.9
21 -13 3 419.46 35.6
8 13 -3 378.46 37.1
8 -21 3 390.36 37.8
7 -21 -3 98.39 13.4
7 14 3 70.39 15.3
14 7 -3 90.59 15.5
21 -7 3 116.59 14.9
21 -14 -3 120.49 14.2
-14 -7 -3 95.29 13
-7 -14 3 62.99 12.2
-7 -14 -3 65.19 14.8
14 -21 -3 110.29 13.1
7 14 -3 92.69 15.4
21 -14 3 99.19 13.6
21 -7 -3 88.39 13.8
-7 -14 -3 55.39 12.1
7 -21 3 54.29 12.1
-6 -15 3 47.9 10.7
15 6 -3 39.6 10.6
6 15 3 52.39 14
21 -15 -3 67.09 12
21 -6 3 57.79 12.8
6 -21 -3 49.9 11.4
-15 -6 -3 47.8 11
-6 -15 -3 18.8 13.8
6 15 -3 56.99 13.7
15 -21 -3 52.89 11.1
-6 -15 -3 32.5 11
21 -15 3 33.8 10.5
-6 21 3 41.6 13.6
15 6 3 32.6 11.1
21 -6 -3 27.4 11.6
-15 21 -3 36.8 12.8
6 -21 3 13.8 10.1
21 -5 3 133.29 20.9
-5 -16 3 115.29 22.7
5 -21 -3 115.19 19.4
-16 21 3 105.19 23.2
21 -16 -3 128.69 19.7
5 16 3 113.39 22.5
21 -16 3 117.59 16.4
16 -21 -3 155.28 19.3
5 -21 3 128.29 24.6
16 5 3 152.68 20.8
21 -5 -3 137.59 19.5
-5 -16 -3 172.78 26.2
-5 -16 -3 128.39 24
21 -17 -3 114.19 18.2
21 -4 3 110.19 19.7
4 17 3 114.89 21.9
4 -21 -3 112.79 19
-4 -17 3 112.09 21.1
-4 -17 -3 139.89 24.9
21 -4 -3 95.29 17
17 -21 -3 120.99 18.6
4 -21 3 87.39 13.1
-4 -17 -3 104.39 22.4
17 4 3 119.39 19.5
-3 -18 3 14.6 8.8
21 -3 3 6.1 9.8
3 -21 -3 42.4 15.2
21 -18 -3 26.5 10
-21 18 -3 49.7 16.7
3 18 3 23.1 11.9
3 -21 -3 19.2 10.1
-3 -18 -3 17.1 12.6
-3 -18 -3 12.6 8.9
21 -3 -3 4.5 8
18 -21 -3 14 9.5
18 3 3 6.3 9.7
3 -21 3 9.4 8.8
21 -2 3 47.6 10.3
2 -21 -3 44.4 10
-21 19 -3 51.79 14.8
-2 -19 3 49.1 9.5
-2 -19 -3 56.39 13.1
19 -21 -3 49.6 10.1
19 2 3 49.8 10.3
-2 21 3 59.69 13.1
2 -21 3 28.9 9.3
-21 19 3 41.9 15.3
21 -20 -3 11.7 8.8
1 -21 -3 28 11.9
-1 -20 3 6.5 7.7
1 20 3 34.8 11.4
21 -1 3 16.7 8.8
1 20 -3 29.6 9.4
20 -21 -3 28 8.7
20 1 3 11.6 8.7
-1 21 3 27 11.4
-1 -20 -3 20.6 11.3
1 -21 3 11.1 7.9
21 -1 -3 0.4 4.4
21 0 3 12.3 8.4
0 -21 3 12.9 7.3
0 21 3 32.3 10.8
21 -21 -3 21 8.1
0 -21 -3 24.1 10.4
11 -22 -3 49.9 11.1
-22 11 -3 57.69 16.7
22 -11 3 35.7 12.4
11 -22 3 27.2 7.7
-11 -11 -3 38.1 10.1
11 11 -3 50.49 13.8
22 -11 -3 60.19 12
-12 -10 -3 122.29 22.2
22 -10 3 131.09 21.3
12 -22 3 93.89 13.3
-10 -12 3 86.89 18.9
-22 10 3 99.39 18.5
10 -22 -3 114.29 18.1
12 10 -3 97.29 21.5
22 -12 -3 114.39 19.9
10 -22 3 119.89 19.9
10 12 -3 104.49 21.8
-22 10 -3 100.69 17.9
-10 -12 -3 126.59 22.9
12 -22 -3 134.99 18.5
22 -12 3 138.29 21.4
22 -10 -3 121.79 20.4
13 -22 3 36.4 7.3
22 -13 -3 11.9 10.6
9 -22 -3 9.3 9.9
-22 9 -3 -0.9 11.8
22 -13 3 11.9 11
9 13 -3 9.6 12
-9 -13 -3 10 8.9
9 -22 3 10.4 8.1
22 -9 -3 4.8 10.4
13 -22 -3 9.6 9.7
-14 22 3 223.58 26.1
22 -14 -3 218.98 22.5
8 14 3 164.58 23.9
8 -22 -3 198.98 21.7
-8 22 -3 261.17 30.7
-14 -8 -3 213.68 24.9
-8 -14 3 187.18 24.1
14 8 -3 174.68 24.2
22 -8 3 203.38 23.8
-22 14 3 239.38 31.6
14 8 3 178.78 21.1
-8 -14 -3 184.28 25.4
14 -22 -3 170.28 21.1
22 -14 3 166.48 22
-8 22 3 207.68 27.2
8 -22 3 171.08 24.2
-14 22 -3 193.38 27.3
8 14 -3 177.68 25.2
22 -8 -3 177.98 22.4
22 -15 -3 132.19 18.8
-7 22 -3 157.58 26.9
-7 -15 3 107.39 20.7
15 7 -3 87.69 15.6
7 -22 -3 118.19 18.9
7 15 3 96.59 20
-15 22 3 145.69 22.7
22 -7 3 123.09 18.5
-15 -7 -3 126.69 22.4
7 -22 3 107.19 22.8
-7 -15 -3 141.89 23.2
22 -7 -3 121.89 19.7
22 -15 3 107.99 16.9
15 7 3 140.59 19.7
-15 22 -3 156.98 26.7
7 15 -3 139.79 21.6
15 -22 -3 132.59 18.2
-7 22 3 119.29 22
-7 -15 -3 96.69 20.1
-22 15 3 170.18 27.4
6 16 3 32.9 12.2
22 -16 -3 56.59 10.9
6 -22 -3 59.99 13.6
22 -6 3 51.19 11.2
6 -22 -3 31.2 10.3
-16 22 3 49.9 13
-6 22 -3 52.49 13.9
22 -6 -3 54.79 10.3
16 6 3 64.69 11.1
16 -22 -3 75.89 10.6
-6 -16 -3 49.3 12.5
6 -22 3 37.2 9.6
-6 -16 -3 46.7 10.4
-16 22 -3 48.3 12.2
5 17 3 17 11.1
22 -5 3 16.8 9.8
-5 -17 3 7.8 7.9
22 -17 -3 26.2 9.8
5 -22 -3 16.3 9.6
5 -22 -3 38.1 13.9
5 -22 3 8.2 8.5
17 -22 -3 22.2 9.1
22 -5 -3 18.2 8.1
-5 -17 -3 19.8 9.3
-5 -17 -3 16.6 11.3
17 5 3 30.6 9.9
4 -22 -3 120.29 16.7
-4 -18 3 123.39 19.1
22 -4 3 121.99 18.5
4 18 3 135.49 19.9
-22 18 -3 163.18 27.2
22 -18 -3 147.79 18.5
4 -22 3 118.89 19.5
18 4 3 126.59 18.2
18 -22 -3 120.99 17.2
-4 -18 -3 120.59 20.8
-4 22 3 151.18 20.7
-22 18 3 144.19 23.6
-4 -18 -3 111.49 20.1
-22 19 -3 30.9 12.6
3 19 3 49.3 11.5
-3 -19 3 29.9 7.8
22 -3 3 31.8 9.3
3 -22 -3 40 12.5
3 -22 -3 25.7 8.5
22 -19 -3 45.5 9.5
3 -22 3 33.7 8.6
-22 19 3 26.3 13
19 3 3 44.4 9.2
-3 22 3 49.9 11.6
-3 -19 -3 19.2 5.6
19 -22 -3 42.3 8.8
-3 -19 -3 28.2 10.7
-2 -20 3 10.2 6.9
22 -20 -3 30 8.2
2 -22 -3 28.6 10.8
2 20 3 25.9 10.3
22 -2 3 17 8.6
2 20 -3 6.9 7
-2 -20 -3 5 9.4
20 2 3 -1.5 7.6
-2 22 3 10.2 9.7
2 -22 3 1.1 7.1
20 -22 -3 11.9 7.5
23 -12 -3 30.3 9.6
-12 -11 -3 17.9 8.4
-23 11 3 -2.8 12.4
12 11 -3 21.7 11.2
11 -23 -3 17.8 9
23 -11 3 16.1 9.9
-23 12 -3 30.3 14.5
23 -11 -3 20.1 9.4
-11 -12 -3 15.1 8.6
11 12 -3 10.8 11.2
-11 23 3 41.2 12.3
23 -12 3 29.3 10
12 -23 -3 25.5 9.1
-23 11 -3 14.4 13.9
-23 12 3 33.2 15.3
-13 -10 -3 25.1 8.8
23 -13 -3 33.9 9.8
10 -23 -3 26.1 9.2
23 -10 3 34.2 10.5
13 10 -3 25.2 11
-23 13 -3 49.5 15.8
23 -13 3 15.2 9.2
23 -10 -3 32.5 9.8
10 13 -3 21.8 11.2
13 -23 -3 28.3 9.1
-10 -13 -3 23.1 8.6
10 -23 3 16.7 5.1
-10 23 3 43 12.2
-14 -9 -3 21.5 8.6
23 -9 3 23.7 10
14 9 -3 25.2 9.8
-9 -14 3 15.3 7.4
23 -14 -3 34.1 9.6
9 -23 -3 33.6 9.4
-9 23 3 28 11.5
14 9 3 24.3 9.1
23 -14 3 13.9 7.8
9 -23 3 13.6 6
9 14 -3 23.3 10.8
-9 -14 -3 16.7 8.1
14 -23 -3 19.9 8.7
23 -9 -3 29 9.6
-15 -8 -3 11.3 7.7
23 -15 -3 18.1 8.9
15 8 -3 4.7 4.6
-15 23 3 29.4 11.3
-8 -15 3 5.4 7.1
-8 23 -3 28.5 12.7
8 15 3 -1.7 7.8
23 -8 3 7.7 9.4
8 -23 -3 14.9 8.8
-8 -15 -3 18.1 8.7
15 -23 -3 35.2 8.9
8 -23 3 21.2 6.7
-8 23 3 22.9 10.6
8 15 -3 30 10.8
-15 23 -3 47.3 12.5
15 8 3 26.7 9.2
23 -8 -3 26.2 9.2
7 16 3 -3.9 9.4
-16 23 3 10.9 10.4
7 -23 -3 2.6 8.4
-7 -16 3 1.9 6.7
23 -16 -3 8.6 8.6
-7 23 -3 11.8 11.1
23 -7 3 0.3 9
-16 23 -3 1.5 10.1
16 7 3 17.4 9.3
-7 -16 -3 -0.3 4.6
16 -23 -3 11 8.2
-7 -16 -3 6 7.8
7 16 -3 13.7 10.1
23 -7 -3 3.6 7.9
7 -23 3 7.4 7.3
-23 16 3 27.6 14.7
6 -23 -3 39.8 8.8
23 -17 -3 48.7 9.3
23 -6 3 33.8 9.1
-6 -17 3 19.1 7.3
6 17 3 29.3 10.1
6 -23 -3 23 9.4
17 6 3 31.6 9
6 -23 3 23.3 7.2
-6 -17 -3 25.7 7.9
-6 -17 -3 13.2 6.5
17 -23 -3 48.7 8.7
-6 23 3 8 7.3
23 -6 -3 21.3 5.9
5 18 3 9.7 9.3
5 -23 -3 11.1 7.4
5 -23 -3 16.4 9.1
23 -18 -3 13.6 8
23 -5 3 10.2 7.7
-5 -18 3 2.3 6.5
-23 18 -3 25.4 13.1
-23 18 3 30.1 13.1
18 5 3 13.4 8.4
-5 -18 -3 9.5 6.5
-5 -18 -3 15.3 6.3
-5 23 3 8.7 7.5
5 -23 3 10.5 6.1
18 -23 -3 20.5 7.9
23 -4 3 100.09 13.9
4 19 3 102.09 16.2
4 -23 -3 112.59 15
4 -23 -3 85.99 10.7
-4 -19 3 94.59 15.2
23 -19 -3 119.89 14
-4 23 3 63.39 11.5
-4 -19 -3 64.29 10.4
12 -24 -3 58.69 8.7
-24 12 -3 45.5 12.6
24 -12 -3 52.89 9.1
12 12 -3 47.3 9.9
24 -12 3 42.7 6.9
-12 -12 -3 48.1 8.4
-24 12 3 38.6 12.4
-13 24 3 29.2 10.2
11 -24 -3 14.2 7.8
13 11 -3 10.7 7.7
24 -11 3 17.4 6.8
-24 13 -3 16 12.7
24 -13 -3 20.8 8.3
-13 -11 -3 10.5 7.1
-11 -13 -3 19.2 7.3
24 -11 -3 22.3 8
13 11 3 14.6 7.7
-11 24 3 31.9 10.1
-24 13 3 29.2 13.2
13 -24 -3 22.8 7.7
11 13 -3 15.4 9
-14 24 3 71.69 17
24 -10 3 33.7 8.1
10 -24 -3 46.1 8.4
-24 14 -3 56.79 13.9
24 -14 -3 55.29 9.1
-14 -10 -3 40.9 8.1
-10 24 3 42.2 10.4
10 14 -3 36.1 9.8
24 -10 -3 40.8 8.2
14 -24 -3 47 8.4
-24 14 3 51.69 13.9
-10 -14 -3 40.6 8.1
14 10 3 42.4 8.8
9 -24 -3 6.3 6.8
-15 24 3 22.5 10
24 -9 3 4.2 6.8
-24 15 -3 24.7 12.8
-9 24 -3 14.7 10.6
24 -15 -3 4.9 7.4
-9 -15 3 -0.8 2.5
-24 15 3 17.1 13
-15 24 -3 12.9 11
-9 -15 -3 3.4 6.9
9 15 -3 10.9 9
15 -24 -3 1.5 7
24 -9 -3 3.3 6
9 -24 3 4 2.5
15 9 3 1 7.9
-16 24 3 4.8 8.9
8 -24 -3 15.6 6.5
-8 24 -3 1.3 6.6
-24 16 -3 24.8 12.5
24 -16 -3 15.4 7.6
24 -8 3 9.8 6.6
-24 16 3 23.1 12.4
16 -24 -3 17.6 7
16 8 3 9.5 8.3
8 -24 3 2.7 2.2
24 -8 -3 4.5 4.1
8 16 -3 23.8 8.9
-16 24 -3 -9.1 6.8
-8 -16 -3 5.4 6.5
24 -7 3 87.49 10.3
7 -24 -3 62.79 8.8
7 17 -3 137.99 15.7
-7 -17 -3 120.39 14.6
17 7 3 121.49 14.8
17 -24 -3 115.19 13.2
-24 17 3 121.09 19.9
0 0 -4 3 7.5
0 0 -4 9 4.6
0 0 4 1.7 2
0 1 -4 102.09 13.5
-1 1 -4 97.89 10.1
1 -1 -4 87.79 12.4
1 -1 4 90.29 7
1 0 4 100.39 8.2
-1 1 4 75.59 7.8
0 1 4 95.99 8.6
1 0 -4 96.69 14.5
-1 0 4 95.29 7.3
1 0 -4 104.19 9.5
0 1 -4 107.49 10.1
-1 2 4 14.1 4.1
-2 1 -4 30.9 6.8
2 -1 4 19.9 3.6
-1 2 4 32.8 5.3
-2 1 4 32.8 4.7
1 1 4 19.4 4.4
1 1 -4 25.5 9.4
-1 2 -4 29.4 9.5
2 -1 -4 25.7 8.8
1 1 4 18.7 7
-1 2 -4 22.7 6.8
0 2 4 21.3 5.1
-2 0 4 17 3.2
2 0 4 35.5 8.1
2 -2 -4 20.2 7.6
0 2 4 20.7 4.6
-2 2 4 16.8 3
2 0 -4 18.9 4.8
2 0 4 15 3.7
-2 2 4 17.6 4.1
-2 2 -4 29.2 7.5
0 2 -4 21.5 7.7
0 2 -4 20.2 10.2
2 0 -4 19.7 8.7
-3 1 4 3204.18 227.38
-3 2 -4 3363.86 228.58
1 2 4 2920.91 227.78
1 2 4 3249.67 228.88
-1 3 -4 3572.04 229.08
2 1 -4 3550.74 228.48
2 1 -4 3276.77 230.28
3 -1 4 3260.87 229.28
-1 3 -4 3358.46 230.18
1 2 4 3429.76 227.78
-2 3 4 3223.58 227.68
3 -2 -4 3208.88 229.58
-2 3 4 3064.99 227.28
-3 2 4 3153.08 221.78
-1 3 4 3286.87 222.08
-2 3 -4 3256.07 223.08
2 1 4 3150.18 223.38
2 1 4 3047.5 222.18
1 2 -4 3003.1 224.28
1 2 -4 3325.17 223.08
-1 3 4 3083.89 221.88
3 -2 4 3292.87 223.78
2 1 4 3235.68 221.98
3 -1 -4 3364.16 224.48
0 3 -4 282.07 23.6
0 3 4 300.47 23.4
3 0 -4 305.57 26.6
-3 3 4 279.17 21.6
3 0 4 278.37 24.1
0 3 -4 274.67 25.6
3 0 -4 298.97 22
-3 0 4 277.57 21
0 3 4 311.37 21.9
3 -3 -4 283.27 24.4
-3 3 -4 300.67 23.6
0 3 4 311.97 21.9
-3 3 -4 247.28 20.7
2 2 4 2648.14 193.08
-2 4 4 2584.04 191.38
2 2 4 2778.22 191.78
4 -2 4 2978.6 193.78
2 2 -4 2646.24 192.58
-2 4 4 2898.01 191.88
2 2 -4 2411.86 190.88
-4 2 -4 2757.82 191.38
-4 2 4 2840.52 191.48
2 2 -4 2455.75 194.08
2 2 4 2916.81 192.08
-2 4 -4 2617.44 193.98
4 -2 -4 3142.29 194.58
-2 4 -4 2885.61 193.18
-4 2 -4 2825.92 192.58
1 3 4 251.17 19.3
-4 3 -4 234.88 20.8
-3 4 4 234.28 19
-4 1 4 232.28 18.6
3 1 -4 262.17 24.6
4 -1 4 269.77 23.1
4 -3 -4 252.07 22.4
-1 4 -4 241.48 23.3
-4 3 -4 219.08 18.3
-1 4 -4 222.18 21.2
1 3 4 244.38 21.5
1 3 4 256.87 19.4
3 1 -4 257.27 20.4
3 1 4 348.57 30.3
-4 3 4 406.26 27.7
-1 4 4 384.76 28.3
4 -3 4 373.66 30.5
1 3 -4 358.56 29.5
-3 4 -4 387.46 29.5
-3 -1 4 381.06 27
1 3 -4 367.86 31.5
-1 4 4 378.26 29.1
3 1 4 364.86 27.7
3 -4 -4 370.76 29.4
4 -1 -4 375.36 31.6
3 1 4 386.26 28.6
-3 4 -4 366.46 26.9
-1 4 4 383.06 27.8
0 4 -4 865.41 68.49
4 0 4 951.8 66.09
4 0 -4 929.91 65.79
0 4 4 966.3 66.89
0 4 -4 909.81 67.29
-4 4 -4 898.01 66.79
4 -4 -4 975.4 67.19
4 0 -4 965 69.19
-4 0 4 925.51 65.09
-4 4 -4 825.12 64.99
0 4 4 922.91 65.79
-4 4 4 854.61 65.39
4 -4 4 1072.59 68.39
0 4 4 921.21 65.89
4 0 4 935.51 67.99
5 -3 -4 3006.8 197.28
3 2 -4 2533.55 197.28
5 -2 4 3056.59 197.08
-5 3 -4 2547.34 194.18
-2 5 -4 2859.31 196.28
-5 2 4 2951.9 194.48
-2 5 -4 2932.41 197.28
2 3 4 2907.41 194.78
2 3 4 2582.24 195.98
2 3 4 2838.52 194.98
3 2 -4 2489.85 195.28
-3 5 4 3011.8 194.88
-5 3 -4 3064.99 195.78
-3 5 4 2392.76 194.08
3 2 4 2955.9 210.28
3 2 4 3214.98 208.98
-3 5 -4 2957.2 209.88
5 -2 -4 3244.28 211.78
-2 5 4 3045.9 208.78
-3 5 -4 2552.34 207.78
-5 3 4 3144.49 208.38
2 3 -4 2876.11 209.58
-5 2 -4 3017.8 208.28
3 2 4 3175.18 208.68
-2 5 4 3014.2 208.38
2 3 -4 2574.44 207.58
-2 5 4 3147.49 208.78
2 3 -4 3074.39 211.68
-4 5 4 118.09 12
-5 1 4 130.59 11.6
4 1 -4 114.59 18.4
1 4 4 124.79 15
4 1 -4 108.19 12.6
-5 4 -4 116.89 11
5 -1 4 110.09 16.8
1 4 4 127.09 13.2
-1 5 -4 107.99 15.8
5 -4 -4 127.19 16.5
-5 4 -4 135.09 15
-1 5 -4 134.29 17.7
1 4 4 127.49 12.7
1 4 -4 205.98 20.7
4 1 4 232.18 18.7
4 -5 -4 192.68 18.5
4 1 4 200.28 17.4
5 -1 -4 219.68 23.6
-4 5 -4 226.88 16.8
-1 5 4 212.28 19.1
-1 5 4 243.18 18.9
4 1 4 220.88 22.2
5 -4 4 228.18 21.3
-4 5 -4 225.18 19.8
-1 5 4 209.58 17.9
-5 4 4 203.48 17.5
1 4 -4 218.38 22.3
-4 -1 4 205.58 16.7
0 5 -4 570.24 45.3
0 5 4 623.94 44.1
5 0 -4 497.45 43.1
-5 5 4 616.04 43.5
0 5 4 666.83 43.9
-5 5 -4 562.64 42.9
-5 0 4 582.64 42.9
0 5 -4 629.74 47.3
0 5 4 588.54 44.8
-5 5 -4 631.94 45.1
5 0 4 637.64 44.6
5 -5 4 687.73 46.8
5 0 -4 564.84 48
5 -5 -4 527.75 44.5
5 0 4 603.14 46.5
-6 3 -4 20.2 8
3 3 4 50.69 9.8
3 3 -4 29 12
6 -3 -4 57.79 14.6
3 3 -4 25.8 4.3
3 3 4 37.6 7.3
-3 6 4 40.4 8.2
-3 6 4 31.5 6.2
3 3 -4 36.5 10.3
3 3 4 51.89 12.5
-3 6 -4 21.4 4.4
-3 6 -4 43.1 11.2
-3 -3 4 40.3 7.5
6 -3 4 52.99 12.5
-6 3 4 44.4 7
-6 3 4 18.8 6
-3 6 -4 32.1 8.7
-6 3 -4 41.2 6.9
2 4 4 93.49 12
-2 6 -4 95.09 15.2
-6 2 4 96.09 10.9
2 4 4 92.59 12.4
-6 4 -4 107.79 14.4
-2 -4 4 57.29 8.8
-6 4 -4 61.49 12.6
-4 6 4 94.59 11
6 -4 -4 89.69 16.7
4 2 -4 61.69 10.9
-6 4 -4 88.39 9.7
-2 6 -4 88.59 12.3
4 2 -4 90.69 17.9
-2 6 -4 95.29 17.5
2 4 4 61.09 13
6 -2 4 93.79 16
-4 6 -4 7.1 4.1
6 -2 -4 25.4 13
2 4 -4 21.3 11.8
2 4 -4 12.6 3.3
-4 6 -4 11.8 9.9
4 2 4 26.2 9.1
6 -4 4 21.6 11.9
-2 6 4 24 7.2
-6 4 4 6.5 6.1
-4 6 -4 9.1 6.6
4 2 4 14.9 10.6
-4 -2 4 16.5 5.9
-6 2 -4 0.2 5.4
-2 6 4 12.5 4.8
4 2 4 18.3 6.9
-6 4 4 11.4 5.9
2 4 -4 15.8 10.2
-6 2 -4 10.4 6
-2 6 4 17.3 6.9
6 -1 4 421.86 35
-6 5 -4 364.46 29.2
1 5 4 403.66 32.4
-1 6 -4 331.67 31
6 -5 -4 332.87 31.4
1 5 4 428.86 30.3
-6 5 -4 421.76 32.1
5 1 -4 354.76 35.4
-5 6 4 386.56 30
-6 5 -4 354.76 31.5
-1 6 -4 395.36 33.6
-1 6 -4 441.56 35.6
1 5 4 392.56 30.7
5 -6 4 426.16 32.7
-6 1 4 428.86 29.4
-5 6 -4 424.06 35
6 -1 -4 518.15 41.7
5 1 4 434.56 40.3
-6 5 4 538.25 36
5 1 4 454.75 36.6
-5 -1 4 457.85 36.3
-5 -1 4 485.85 35.2
1 5 -4 475.65 40.1
-1 6 4 517.05 36.8
-5 6 -4 522.85 37.9
-1 6 4 516.25 36.4
1 5 -4 438.96 37.8
-6 5 4 496.75 36.2
-6 0 4 984.6 75.19
-6 6 4 1000.4 74.99
-6 6 -4 1116.69 76.59
6 0 -4 1010.2 79.79
0 6 4 1056.49 75.59
-6 0 4 1096.59 74.49
6 0 4 1094.99 79.49
0 6 -4 1037.3 78.79
0 6 -4 1030.6 76.99
-6 6 -4 936.51 76.49
-6 0 -4 1051.19 75.89
6 -6 4 1141.79 77.49
0 6 4 1160.68 75.39
-6 6 4 1117.39 74.89
-6 6 -4 954.4 74.29
-7 3 4 467.85 31.2
-3 7 -4 337.67 33
-3 7 -4 360.26 33.6
-7 4 -4 382.46 33.3
-4 7 4 435.46 32.4
7 -4 -4 470.55 37.6
3 4 4 402.16 35.6
3 4 4 404.36 31.8
-3 -4 4 389.86 31.7
4 3 -4 369.06 36.7
3 4 4 433.56 31.7
-7 4 -4 410.46 30.8
7 -3 4 466.05 37.4
-7 3 4 361.76 30.8
-4 -3 4 488.45 37.8
-4 7 -4 450.35 39.3
-3 7 4 498.85 38.3
-7 4 4 499.55 37.6
4 3 4 464.65 41.1
-3 7 4 563.64 38.4
4 3 4 532.55 37.4
7 -4 4 557.34 42.2
4 3 4 534.05 38.6
-7 3 -4 492.45 37.1
-7 3 -4 442.06 38.7
7 -3 -4 585.14 45
-4 7 -4 524.95 41.2
3 4 -4 438.26 41.7
3 4 -4 410.56 38.8
-7 4 4 529.85 37.2
-2 7 -4 503.25 40.7
2 5 4 544.95 38.7
-2 7 -4 504.55 39.5
2 5 4 445.46 40.7
5 2 -4 479.85 43.2
-7 2 4 497.95 37
-7 5 -4 483.65 39.9
-7 5 -4 528.15 38.9
-2 7 -4 567.94 42.2
-5 -2 -4 413.16 37.3
-7 5 -4 464.05 36.9
-2 -5 4 447.46 36.9
7 -5 -4 401.56 39.8
7 -2 4 549.85 42.4
2 5 4 549.05 38.1
-5 7 4 563.04 37.8
-5 7 4 541.95 38.6
5 2 4 760.72 51.89
-2 7 4 618.14 50.69
5 2 4 730.13 50.99
-7 5 4 708.13 50.69
-2 7 4 744.83 51.29
7 -2 -4 747.83 57.99
-7 2 -4 597.14 51.39
-7 2 -4 717.53 50.79
-2 7 4 659.73 51.79
2 5 -4 664.03 52.69
5 2 4 710.93 55.99
-5 7 -4 711.23 53.19
-7 5 4 658.83 51.19
2 5 -4 692.83 55.49
-5 -2 4 715.33 51.49
-5 7 -4 769.92 53.29
-7 6 -4 311.87 28.4
-6 7 4 420.46 31.2
-7 1 4 322.37 29.3
-7 6 -4 376.06 31.5
-6 -1 -4 422.16 31.3
-7 6 -4 341.67 32.4
-7 1 4 390.86 29.1
-6 7 4 406.66 29.8
-1 7 -4 354.66 34
1 6 4 423.66 30.8
7 -1 4 402.46 31
-6 7 4 334.97 29.2
6 1 -4 334.37 37.8
-1 7 -4 359.86 31.3
1 6 4 396.96 29.7
6 -7 4 442.56 33.4
7 -1 4 398.46 35.9
-1 7 -4 378.06 33.6
-7 6 4 422.06 31.3
6 1 4 345.87 35.9
1 6 -4 386.86 33.1
6 1 4 410.16 31.9
-7 6 4 423.46 30.7
-6 -1 4 398.66 31.3
-6 -1 4 375.66 29.3
1 6 -4 397.16 36.6
-1 7 4 397.76 31.4
7 -1 -4 339.77 37.5
-6 7 -4 405.76 32.8
0 7 -4 1689.73 123.79
0 7 -4 1856.61 126.89
-7 7 -4 1875.11 124.79
-7 7 -4 1698.83 124.69
7 0 4 1665.23 126.89
7 -7 4 1807.62 125.19
-7 0 4 1489.05 121.99
0 7 -4 1753.02 125.29
0 7 4 1785.52 122.99
7 0 4 1963.7 123.99
-7 7 4 1738.03 122.69
-7 7 4 1698.53 123.39
7 0 -4 1554.74 128.69
-7 0 4 1590.44 123.09
-7 0 -4 1862.31 124.19
-7 7 4 1711.73 123.09
0 7 4 1888.81 123.99
-4 8 4 1367.16 97.09
-4 8 -4 1440.56 98.89
4 4 4 1268.97 99.59
8 -4 -4 1275.97 100.99
-8 4 4 1319.47 96.59
-8 4 -4 1237.18 95.89
-4 -4 4 1293.67 96.59
-8 4 -4 1311.67 98.59
4 4 4 1552.04 96.89
8 -4 4 1528.15 100.89
-8 4 4 1426.96 96.09
4 4 -4 1280.37 100.89
4 4 4 1445.96 97.19
-4 8 -4 1252.07 98.19
-3 -5 4 125.39 15.4
-3 8 -4 99.89 17
-5 -3 -4 95.89 12.6
8 -3 4 118.79 22.3
5 3 -4 78.39 13.6
-3 8 -4 153.58 20.9
3 5 4 112.29 15.2
-8 5 -4 87.19 12.2
-8 5 -4 107.79 17.6
-8 3 4 100.39 13.6
-5 8 4 120.99 16.3
5 3 -4 105.49 21.8
-5 8 4 120.49 15.9
3 5 4 132.29 19.4
-8 3 4 111.39 13.6
3 5 4 126.29 15.7
-5 -3 4 115.79 15.1
-8 3 -4 105.49 13.7
-8 5 4 105.89 12.8
3 5 -4 128.19 21.6
5 3 4 111.39 21.3
3 5 -4 96.69 16.1
-3 8 4 149.19 16.8
8 -3 -4 107.19 22.5
-3 8 4 129.29 16.4
-5 8 -4 83.79 18.3
8 -5 4 137.59 23
-5 8 -4 141.59 20
5 3 4 122.29 14
-8 5 4 141.19 15.2
-8 3 -4 88.69 16.7
5 3 4 110.89 15.8
2 6 4 224.78 21.3
8 -2 4 208.18 21.1
-8 2 4 207.18 19
-6 8 4 263.57 21.4
-2 8 -4 214.58 25.3
-8 2 4 248.38 19.2
-2 8 -4 194.78 24.1
8 -2 4 181.38 27.6
-2 -6 4 217.28 19.8
-6 8 4 176.58 18.5
-2 8 -4 229.88 24.2
6 2 -4 210.48 28.4
-8 2 4 185.68 18.5
-6 -2 -4 230.68 21.7
-8 6 -4 176.68 23.6
-6 8 4 253.97 22.5
-8 6 -4 250.67 23.3
2 6 4 246.08 21.2
8 -2 -4 170.58 27.7
-6 8 -4 190.88 22.5
6 2 4 210.18 20.1
8 -6 4 236.48 24.4
-8 6 4 179.98 18.4
-8 2 -4 163.58 20.7
-8 6 4 199.48 19.7
6 2 4 196.18 28.2
6 2 4 227.38 19.9
-2 8 4 223.28 19.5
-2 8 4 190.98 20.1
-6 8 -4 221.78 23.9
2 6 -4 220.28 28.2
-8 2 -4 151.78 17.7
-6 -2 4 208.68 19.8
2 6 -4 200.18 23
-8 7 -4 297.27 27.9
1 7 4 325.87 25.9
8 -1 4 316.17 27.6
-7 8 4 359.76 27.9
-7 -1 -4 320.97 27.9
-1 8 -4 318.57 28.7
-7 8 4 320.37 26.2
-8 1 4 287.47 26.1
-1 8 -4 275.37 29.6
7 1 -4 243.48 36.6
-8 7 -4 243.28 28.8
-7 8 4 364.16 26.9
-1 8 -4 328.07 30.8
1 7 4 344.77 27.7
8 -1 4 242.68 32.5
1 7 -4 275.67 26.7
-8 7 4 255.27 22.6
-7 8 -4 278.07 25.5
-7 8 -4 245.88 25.8
-1 8 4 245.78 23.7
7 1 4 269.27 24.2
-8 1 -4 271.57 24.5
-1 8 4 311.17 24.5
-7 -1 4 262.07 23.4
1 7 -4 246.28 23.4
1 7 -4 255.87 28.8
-8 7 4 259.17 23.5
8 -7 4 255.97 26.4
-8 7 4 263.27 23.7
7 1 4 218.78 31.9
-7 8 -4 223.88 26
-8 8 -4 292.07 27.1
-8 8 4 297.37 26.5
-8 0 -4 335.57 27.2
-8 8 4 312.97 27
-8 8 4 267.27 24.2
8 0 4 273.87 32.4
-8 8 -4 238.88 27.9
0 8 -4 245.38 28
-8 0 4 290.07 25.6
0 8 -4 260.27 28.3
0 8 4 300.27 25.5
8 0 4 318.07 26.7
-9 4 4 1661.03 121.69
4 5 4 1673.43 122.19
4 5 4 1891.21 121.89
-4 9 -4 1681.43 123.79
-5 9 4 1819.32 121.99
-4 9 -4 1641.44 123.49
9 -4 4 1793.52 126.29
-4 -5 4 1814.32 121.79
-9 5 -4 1759.82 123.69
-5 9 4 1575.74 122.09
5 4 -4 1550.24 126.79
-4 9 4 1804.12 115.19
-9 5 4 1641.34 115.09
-9 5 4 1333.97 113.59
-5 9 -4 1513.55 116.99
-4 9 4 1471.25 115.19
4 5 -4 1509.95 119.19
5 4 4 1681.03 114.79
-5 -4 4 1708.63 115.09
-9 4 -4 1662.43 116.69
9 -5 4 1659.53 118.99
5 4 4 1645.14 115.29
-5 9 -4 1776.62 117.89
6 3 -4 399.26 43.3
-3 9 -4 438.86 37.9
-6 9 4 483.05 35
-3 -6 4 467.35 34
3 6 4 429.06 33.9
3 6 4 406.76 34.7
-3 9 -4 390.66 37.3
-6 -3 -4 436.76 35.1
9 -3 4 462.15 41.1
-9 3 4 443.16 34.7
-9 3 4 354.36 32.8
9 -3 4 497.65 35.8
-9 6 -4 365.56 36.7
-6 9 4 421.26 35.5
-6 9 -4 632.24 46.5
9 -6 4 538.05 47.5
-3 9 4 585.44 43.8
-6 9 -4 558.34 47.6
-9 6 4 479.35 42.3
-9 6 4 625.94 44.6
-3 9 4 549.45 45.5
6 3 4 601.14 43.7
-6 -3 4 623.64 44.4
6 3 4 516.15 48.3
3 6 -4 482.85 47.9
6 3 4 611.84 44.7
-9 3 -4 657.53 46.2
-7 9 4 319.77 27.1
-2 -7 4 333.27 26.7
-2 9 -4 320.17 30.9
9 -2 4 382.26 35.6
-2 9 -4 317.07 31.4
7 2 -4 275.87 35.8
-9 7 -4 331.67 28.5
2 7 4 258.37 26.6
2 7 4 327.47 27.3
-7 -2 -4 351.06 29.5
9 -2 4 378.36 28.7
-9 7 -4 268.27 30.6
-9 2 4 300.07 26.4
-7 9 4 353.86 27.5
-7 9 4 348.57 29.5
-9 2 4 301.97 27.3
7 2 4 344.77 32.2
-7 9 -4 428.36 35.8
7 2 4 380.16 40.5
-7 9 -4 361.06 34.1
-7 -2 4 467.05 35.1
-2 9 4 407.16 33.7
-7 9 -4 415.86 36.6
-9 2 -4 464.95 36
-2 9 4 391.56 35.5
-9 7 4 453.45 34.7
-9 2 -4 486.55 35
7 2 4 433.16 34.5
-8 -1 -4 113.69 20.1
-9 1 4 112.49 16.4
9 -1 4 113.09 15.7
-8 9 4 85.19 13
-8 9 4 135.59 19
9 -1 4 156.28 26.5
1 8 4 114.19 14.6
-9 8 -4 108.19 17.7
-9 8 -4 120.19 20.2
-8 9 4 134.99 17
-1 9 -4 127.19 19.7
-1 9 4 189.48 21.6
8 1 4 190.08 19.3
-9 8 4 211.48 21.8
8 1 4 177.58 27.9
-8 9 -4 146.79 23.6
-9 8 4 199.38 20.8
-8 9 -4 156.38 20
1 8 -4 175.28 21
-1 9 4 174.48 17.7
-8 -1 4 186.48 19.9
-8 9 -4 163.68 22.3
9 0 4 163.38 20.4
9 0 4 208.68 28.9
0 9 4 178.48 19.3
-9 9 -4 247.38 22.3
-9 9 -4 260.77 27.2
-5 10 -4 989 79.09
-5 10 4 1062.79 76.69
5 5 4 959.4 76.09
-5 10 -4 1207.48 80.19
-10 4 4 403.86 32.2
-4 -6 4 447.76 32.9
4 6 4 309.67 30.3
-4 10 -4 335.07 34.7
-6 10 4 315.27 30.6
-4 10 -4 353.86 35.8
-6 -4 -4 449.06 33.2
-6 10 4 399.66 34
-10 6 -4 394.86 34.9
-6 10 -4 261.67 25.6
-4 10 4 230.28 21.9
-6 10 -4 249.38 27.7
-4 10 4 309.07 26.3
6 4 4 225.08 22.8
-7 10 4 67.39 11.1
10 -3 4 73.09 13.1
3 7 4 75.69 12.3
-3 10 -4 77.29 15.8
7 3 -4 68.09 20.8
10 -3 -4 -16.6 28.7
-3 10 4 52.89 9.6
-7 10 -4 66.09 13.5
7 3 4 26.3 16.1
7 3 4 88.19 12.4
2 8 -4 109.99 13.7
10 -1 4 29.9 29.2
10 -1 4 -2 10.9
-10 9 4 67.19 14.2
-9 10 -4 73.69 16.7
-10 9 4 84.59 15.3
-10 1 -4 121.19 17.2
-9 -1 4 80.49 14.2
-1 10 4 85.89 16.9
-9 10 -4 77.39 16.3
1 9 -4 86.59 16.1
-10 10 4 26.6 12.6
-10 10 -4 14.8 15.9
0 10 4 16 8.8
-10 0 -4 39.1 12.9
-10 10 4 31.9 15.4
0 10 -4 22.3 15.7
-10 0 4 29.5 12
-10 10 -4 7.5 10.4
-11 6 -4 122.49 19.6
-6 -5 -4 104.99 16.9
-11 5 4 81.69 17.1
-6 11 4 106.59 17.4
-5 11 -4 116.09 21.2
-5 -6 4 103.29 16.8
-6 11 -4 101.39 21.1
-5 11 4 88.89 19.4
-11 5 -4 125.29 21.1
-6 -5 4 119.09 17.1
-11 6 4 91.79 17.3
-4 -7 4 597.94 42.8
-11 4 4 448.46 39.9
-4 11 -4 571.64 46.3
-7 -4 -4 565.94 44.2
-11 4 4 474.05 41.7
-7 11 4 530.75 43.2
-11 7 -4 505.95 44.2
-7 -4 4 482.65 38.7
-4 11 4 461.05 39.7
-11 7 4 452.95 39.1
-7 11 -4 399.96 42.3
-11 4 -4 564.04 41.6
-3 11 -4 141.09 24.8
-11 3 4 113.39 17.4
-11 8 -4 114.09 21.3
-8 11 4 144.19 21.6
-8 11 4 140.19 17.7
-8 -3 -4 125.79 22.2
-3 -8 4 144.69 18.2
-11 3 4 144.69 18.4
-8 -3 4 156.08 19.8
-11 3 -4 156.78 19.7
-11 3 -4 165.48 22.5
-3 11 4 153.48 21.7
-8 11 -4 110.59 22.8
-11 8 4 146.79 20.4
-11 9 -4 199.28 25
-9 11 4 205.58 24.3
-11 2 4 228.38 24
-2 11 -4 190.28 27.3
-9 11 4 190.58 23.4
-11 2 4 150.58 18.4
-9 -2 -4 228.88 23.7
-11 9 4 160.18 18.9
-9 -2 4 192.88 21.6
-11 2 -4 170.58 23
-11 9 4 186.68 22.6
-9 11 -4 175.68 22.7
-9 11 -4 192.58 25
-2 11 4 179.58 25.2
-11 2 -4 211.18 22
-10 11 4 38.6 14.9
-10 11 4 42.3 15.2
-1 11 -4 39.9 18.7
-11 10 -4 48.2 16.1
-11 1 4 44.7 12.8
-10 -1 -4 72.29 15.8
-10 11 -4 59.89 16.4
-11 1 -4 100.19 15.9
-10 11 -4 67.69 16.8
1 10 -4 48.3 15.4
-1 11 4 64.79 15.8
-11 10 4 63.79 15.3
-11 10 4 75.09 15.6
-10 -1 4 94.69 15.4
-11 0 4 320.67 30.3
-11 11 4 317.47 29.7
-11 11 -4 247.68 27.5
-11 11 -4 297.77 31.5
-11 0 -4 331.27 29.4
0 11 -4 292.97 33.4
-11 11 4 281.57 31.4
-6 -6 4 4.6 11.1
-6 -6 -4 14 7.9
-6 12 4 17.3 14.9
-12 6 -4 6.6 15.7
-6 12 -4 -20.6 15.1
-12 6 4 8.2 12.4
-5 -7 4 263.67 26.8
-7 -5 -4 219.98 25.3
-7 12 4 253.07 27.3
-12 5 4 253.97 27.3
-12 7 -4 254.07 28.2
-5 12 -4 241.18 30.7
-12 7 4 257.27 27.6
-5 12 4 284.07 30.8
-7 -5 4 286.37 27.5
-7 12 -4 242.28 32.7
-12 5 -4 314.07 30.6
-12 8 -4 224.68 28.2
-12 4 4 215.28 25.4
-8 -4 -4 252.17 27.7
-8 12 4 210.58 26.2
-12 4 4 221.18 23.2
-4 -8 4 198.28 23.5
-4 12 -4 197.28 29.8
-12 4 -4 376.96 32.9
-8 -4 4 318.17 29.9
-4 12 4 309.17 31.2
-12 8 4 289.07 29.9
-8 12 -4 280.77 32.6
-3 12 -4 -3.4 16.6
-3 -9 4 14.5 8.6
-12 9 -4 9.4 13.7
-9 12 4 8.9 10.2
-9 12 4 -0.8 15
-12 3 4 -7.7 10.6
-12 3 4 5.3 12
-9 -3 -4 13.3 13.1
-9 -3 4 14 13.5
-9 12 -4 21.1 17
-12 3 -4 11.6 12
-9 12 -4 3.8 10.4
-12 3 -4 20.4 13.9
-12 9 4 26.2 13.7
-3 12 4 23.1 14.1
-10 12 4 126.99 22.8
-12 2 4 110.89 19.3
-12 10 -4 122.09 22.1
-10 -2 -4 110.79 20.4
-10 12 4 130.99 21.7
-2 12 -4 106.29 21.8
-10 12 -4 52.69 17.4
-2 12 4 83.79 17.7
-12 10 4 98.69 18.7
-10 12 -4 73.09 18.9
-10 -2 4 74.59 15.1
-12 2 -4 89.09 16.9
-12 11 -4 622.04 52.69
-1 12 -4 627.14 53.69
-11 12 4 623.64 52.49
-11 -1 -4 615.74 49.5
-12 1 4 608.94 49.1
-11 12 4 598.24 50.59
-1 12 4 602.64 50.79
-11 12 -4 637.84 52.59
1 11 -4 605.84 51.29
-11 12 -4 565.34 51.49
-11 -1 4 714.23 51.19
-12 11 4 535.45 49.8
-12 11 4 732.43 52.19
-12 1 -4 738.63 51.29
-12 12 -4 41.3 17.1
-12 12 4 39 16.3
-12 0 4 41.2 13.9
-12 12 4 50.89 17.2
0 12 -4 24.2 16.4
-12 0 -4 45.8 15.9
-6 -7 4 44.9 15.1
-7 13 4 73.19 16.9
-7 -6 -4 31.6 11.8
-13 7 -4 82.59 18.1
-6 13 -4 89.79 21
-13 6 4 49.99 15.1
-6 13 4 27.1 14.6
-13 7 4 18.5 13.7
-13 6 -4 30.8 17.6
-6 -7 -4 10.3 7.5
-7 13 -4 18.6 17
-7 -6 4 20.9 14
-5 -8 4 163.68 23.4
-5 13 -4 191.28 29.4
-8 -5 -4 177.18 25.5
-13 5 4 180.98 23.8
-8 13 4 214.58 26.2
-13 8 -4 221.58 26
-13 8 4 157.18 23.2
-8 13 -4 169.28 27.1
-5 13 4 181.48 25.2
-8 -5 4 162.18 25.1
-13 5 -4 196.18 26.2
-4 -9 4 295.37 31.1
-13 4 4 330.17 31.3
-9 13 4 369.46 34.5
-9 -4 -4 364.36 33.6
-13 9 -4 366.16 34.2
-4 13 -4 375.36 37.9
-13 4 4 296.47 31.7
-13 9 4 290.77 31.7
-9 13 -4 283.87 34.3
-13 4 -4 301.37 31.7
-4 13 4 296.17 32.8
-9 -4 4 280.07 30.9
-10 13 4 796.42 62.49
-10 -3 -4 786.52 61.59
-13 10 -4 730.23 62.29
-3 13 -4 755.32 63.49
-13 3 4 785.22 59.89
-10 13 -4 919.21 70.99
-3 13 4 903.91 68.79
-10 -3 4 897.51 68.29
-13 3 -4 796.92 69.49
-13 10 4 974.9 70.19
-2 13 -4 56.79 21.4
-11 13 4 57.09 18.9
-11 13 4 59.89 16.5
-11 -2 -4 38.1 15.2
-13 11 -4 54.09 17
-13 2 4 36.6 13.8
-2 13 4 79.49 18.1
-11 13 -4 68.29 18.1
-11 13 -4 58.79 17.8
-13 11 4 104.49 18.7
-11 -2 4 86.69 16.1
-13 2 -4 76.29 15.9
-13 12 -4 361.96 37.4
-12 -1 -4 338.37 34.8
-13 1 4 371.06 34.3
-12 13 4 319.97 35.2
-1 13 -4 314.67 37.8
-12 13 4 349.37 33.6
-12 13 -4 366.66 36.8
-12 -1 4 447.16 37.2
-12 13 -4 312.07 34.7
-13 1 -4 412.56 35.1
-13 0 4 41 15.1
-13 13 4 46.4 17.1
-13 0 -4 35.7 15
-13 13 -4 47.5 18.3
0 13 -4 30.7 15.9
-13 13 4 22.4 15.3
-7 -7 4 6.5 13.7
-14 7 4 20.3 14.5
-7 14 4 14.4 15.1
-7 -7 -4 5.6 8.5
-14 7 -4 18.7 16.2
-7 14 -4 23.4 18
-8 -6 -4 419.66 42.1
-6 -8 4 425.96 41.1
-6 14 -4 527.45 47.2
-14 6 4 509.25 43.8
-14 8 -4 551.94 44.3
-8 14 4 527.85 45
-14 6 -4 465.95 41.5
-8 -6 4 406.86 38.8
-14 8 4 455.05 40.9
-8 14 -4 461.25 42.9
-6 14 4 411.16 40.2
-14 5 4 372.36 37.3
-5 -9 4 336.17 35.9
-9 -5 -4 377.76 36.8
-9 14 4 435.76 41
-5 14 -4 463.95 42.8
-14 9 -4 465.35 38.9
-9 14 -4 665.03 56.59
-5 14 4 662.43 55.79
-14 5 -4 740.13 56.69
-9 -5 4 620.64 53.69
-14 9 4 685.13 54.59
-10 14 4 522.55 44.5
-10 -4 -4 490.55 43.4
-14 10 -4 499.25 44
-14 4 4 425.26 41.1
-4 14 -4 543.45 50.09
-4 14 4 515.35 45.6
-10 -4 4 510.35 43.3
-14 4 -4 437.96 44.3
-14 10 4 545.75 46.2
-10 14 -4 533.65 47.5
-3 14 -4 765.02 64.79
-11 -3 -4 769.72 60.99
-14 3 4 696.63 58.79
-11 14 4 773.42 61.89
-14 11 -4 758.22 61.89
-14 11 4 828.82 62.79
-11 14 -4 711.53 62.49
-11 -3 4 769.92 60.89
-3 14 4 762.12 61.89
-14 2 4 35.9 15.2
-12 14 4 36.4 14.9
-14 12 -4 71.79 19.7
-12 -2 -4 34.9 17.8
-2 14 -4 45.3 20.6
-12 14 4 45.5 18.3
-12 -2 4 38.2 15.4
-12 14 -4 22.4 15.2
-14 12 4 53.19 17.8
-12 14 -4 34.3 16.1
-14 2 -4 26.4 14.5
-2 14 4 27.1 15.1
-13 14 4 273.57 31.7
-14 13 -4 285.17 31.1
-13 -1 -4 257.97 31.2
1 -14 -4 205.08 20.7
-14 1 4 285.27 30.7
-1 14 -4 236.28 32.2
-13 14 4 220.48 30.6
-13 14 -4 213.28 30.2
-1 -13 -4 167.58 18.2
1 -14 4 185.48 19.8
-14 13 4 253.77 28.9
-13 -1 4 235.38 26.8
-14 1 -4 216.18 28.2
-14 0 -4 67.29 17.1
-14 14 -4 81.99 19.3
-14 0 4 68.09 17
14 -14 -4 56.29 9.5
-14 0 -4 66.29 14
-15 8 -4 175.38 29.1
-7 15 -4 198.48 34.1
-8 15 4 145.99 29.3
-15 7 4 134.99 24.3
-7 15 4 60.09 17.8
-15 8 4 48 18.3
-8 15 -4 59.19 20.6
-15 7 -4 62.99 20.3
-15 6 4 61.19 18.6
-9 -6 -4 59.29 17
-6 -9 4 42.1 15.2
-9 15 4 93.69 19.2
-9 15 -4 148.79 28
-6 15 4 132.99 27.5
-9 -6 4 94.69 20.1
-15 6 -4 98.89 22.2
-15 9 4 117.19 21.8
-5 -10 4 142.99 19.3
-10 -5 -4 209.38 27.6
-15 5 4 183.28 22.9
-10 15 -4 376.56 39.8
-10 -5 4 339.57 35.6
-5 15 4 351.66 35.7
-15 10 4 360.46 35.3
-15 5 -4 298.67 36.8
-15 4 4 129.79 20.1
4 -15 -4 90.19 12.4
-11 -4 -4 118.29 15.2
-11 -4 -4 175.58 28.6
-15 11 4 90.49 22.4
-15 4 -4 145.09 24.8
-4 -11 -4 105.79 13.7
4 -15 4 142.79 15.2
-4 15 4 183.88 27.9
-11 -4 4 164.18 26.2
-12 15 4 151.68 27.8
-3 15 -4 152.28 33.3
-15 12 -4 186.38 26
-12 -3 -4 121.79 25
3 -15 -4 129.99 16.6
-12 -3 -4 128.79 19.1
-15 3 4 145.59 25.1
-15 12 4 83.59 21.7
-15 12 4 135.69 24.8
3 -15 4 99.99 17.3
-12 15 -4 87.99 20.4
-12 -3 4 110.39 20.1
-3 15 4 96.99 20.3
-3 -12 -4 86.69 15.1
-3 -12 -4 74.69 14.2
-15 2 4 258.97 30.6
-13 -2 -4 257.57 30.3
-13 15 4 256.47 33.6
-2 -13 4 216.88 23.2
-15 13 -4 256.17 30.9
2 -15 -4 269.07 24.3
-13 -2 -4 275.17 26.4
-2 15 -4 253.67 35
-13 -2 4 237.78 29.6
13 -15 -4 243.78 23.4
-15 13 4 299.67 34.1
-2 -13 -4 276.17 25.4
-15 13 4 196.58 29.7
2 -15 4 280.67 28.1
1 -15 -4 34.5 11.3
-15 14 -4 39.2 18.2
15 -14 -4 17.7 9.9
-14 -1 -4 22.2 9.5
15 -1 4 27.6 8.5
-1 15 -4 18.4 11.8
-14 15 4 25.8 15.7
-14 15 4 -1.4 13.1
-1 -14 4 19.5 9.9
-15 1 4 22.4 16.7
-14 -1 -4 17.7 16.7
1 -15 4 21 11.1
-14 15 -4 7.4 13.8
-15 14 4 -2.2 11.7
-15 14 4 37 19.1
-14 -1 4 13.9 15.2
14 1 4 15.5 9.1
-1 -14 -4 22.7 11.9
14 -15 -4 15.8 10.2
-15 15 4 20.1 17.4
0 -15 -4 51.49 12.8
0 -15 4 23.3 11.2
15 -15 -4 39.2 12
15 0 4 43.9 11.4
-15 0 4 33.9 15.9
-15 15 -4 27 16.5
-8 16 4 50.39 19.3
-8 -8 4 20.8 16.3
-16 8 4 44.9 17.4
-8 16 -4 72.39 23.9
-16 8 -4 51.29 18.3
7 -16 -4 614.34 44.2
-9 16 4 488.75 46.2
9 7 -4 616.94 47.4
-9 16 4 636.74 51.09
-16 9 -4 697.73 53.09
-7 16 -4 468.55 49.9
-9 -7 -4 586.94 45.9
-16 7 4 628.04 49.99
-16 7 -4 700.83 55.79
-9 -7 4 669.23 53.49
-16 9 4 493.15 49.6
7 -16 4 572.34 47.8
9 -16 -4 592.24 46.5
7 9 -4 654.23 50.39
-16 9 4 696.03 53.19
-7 16 4 668.73 53.89
-10 -6 -4 122.09 23.2
-16 6 4 117.09 21.4
6 -16 -4 126.99 18
10 6 -4 116.09 19.6
-16 10 -4 146.49 31.6
10 -16 4 102.39 13.3
-6 16 -4 88.89 18.2
-16 10 4 174.88 27.6
-16 6 -4 141.39 27
10 -16 -4 133.89 19.1
-6 16 4 179.68 30.8
-16 10 4 184.68 27.3
6 -16 4 178.48 21.4
-10 -6 4 148.69 25.6
-16 11 -4 745.73 60.69
-11 -5 -4 751.52 58.69
11 5 -4 675.43 52.79
-11 16 4 648.14 53.29
-5 -11 -4 959.2 62.99
-5 -11 -4 726.83 63.29
-16 11 4 791.42 68.59
-16 11 4 948.91 69.39
11 -16 -4 854.31 62.29
5 -16 4 861.91 64.49
-11 -5 4 869.11 67.79
-11 16 -4 811.72 68.79
-5 16 4 847.32 68.29
5 11 -4 841.12 65.69
-16 4 4 483.55 38.9
12 4 -4 472.85 35.8
-12 16 4 448.56 36.8
-4 -12 4 407.06 34.8
-4 -12 -4 757.02 53.19
-16 12 4 752.52 59.39
-4 -12 -4 723.53 55.59
4 12 -4 692.13 55.19
12 -16 -4 693.73 51.99
4 -16 4 705.03 54.59
-16 12 4 665.23 59.39
-4 16 4 619.04 57.79
-12 -4 4 676.73 57.49
-12 16 -4 604.54 57.19
-13 -3 -4 83.79 20.5
16 -3 4 87.09 15.4
-16 13 -4 156.88 30.9
-13 -3 -4 116.99 24.7
-16 13 -4 120.29 24.6
3 -16 -4 118.69 20.1
16 -13 -4 101.49 17.6
-3 -13 4 109.79 19.9
-13 16 4 99.19 22.5
13 -16 4 97.49 12.7
-16 3 4 78.49 17.9
-3 16 -4 81.19 22.4
3 13 -4 130.99 24.6
-13 -3 4 159.78 25.7
-16 13 4 196.08 28
-3 -13 -4 175.28 30.2
-3 -13 -4 178.88 23.1
-13 16 -4 128.59 24.2
3 -16 4 155.48 26.4
13 -16 -4 154.88 21.8
-14 -2 -4 429.36 43.7
-16 14 -4 441.46 44.5
2 -16 -4 543.35 40.2
-16 14 -4 425.26 49.3
-16 2 4 415.96 43.6
16 -14 -4 526.85 39.9
-2 -14 4 558.74 43.8
-14 -2 -4 547.55 43.4
16 -2 4 493.15 39.1
2 14 -4 416.56 38.4
-2 -14 -4 416.26 36.8
2 -16 4 414.86 39.9
-14 -2 4 378.46 41.3
14 -16 -4 416.46 36.1
-16 14 4 390.96 43.1
-16 14 4 439.46 44.7
-2 -14 -4 491.65 43.7
-16 1 4 -3.8 16
1 -16 -4 -4.1 11.5
-16 15 -4 6.4 17.5
-16 15 -4 4.3 15.1
15 1 -4 6.1 4.3
-1 -15 4 -0.7 11.8
16 -15 -4 -4 11.3
16 -1 4 9.4 12
-15 -1 4 7.2 16.3
15 1 4 12 11.1
15 -16 -4 8.7 12.3
1 15 -4 8.9 11.9
-1 -15 -4 2.5 4.3
-16 15 4 17.1 18.3
-1 -15 -4 10.6 12.1
1 -16 4 15.9 12.1
0 -16 4 32.3 11.8
16 0 4 59.89 12.8
-16 16 4 42.6 16.5
0 -16 -4 57.69 13.2
-16 0 4 29.3 16.5
-16 16 -4 9.1 15.1
0 16 -4 25.2 10.8
16 -16 -4 43.7 12.2
-17 8 4 75.29 20
9 8 -4 56.59 17
8 -17 -4 89.49 14.8
8 -17 -4 87.59 13.5
-9 -8 -4 79.49 13.4
-9 17 4 120.89 22.5
-17 9 -4 97.69 21.4
-17 9 -4 79.99 19.7
-17 8 4 58.89 14.7
-17 9 4 96.39 22.2
-8 -9 -4 80.89 13.6
-9 17 -4 135.99 29.3
9 -17 -4 61.09 11.9
-8 17 4 101.59 21.5
-9 -8 4 71.89 18.1
-17 9 4 116.89 29.3
9 -17 -4 102.89 14.7
8 9 -4 101.59 19.4
-17 8 -4 138.49 28.2
8 -17 4 124.19 22.7
-10 -7 -4 19.1 9.9
10 7 -4 14.5 14.9
-7 17 -4 48 17.5
-10 -7 -4 25.8 11.6
-10 17 4 67.09 20.9
-17 10 -4 45.2 17.9
-17 10 -4 58.99 19.7
17 -10 -4 25.7 8.6
7 -17 -4 31.7 11.5
-17 7 4 7.8 16
-7 17 -4 66.79 22.7
-7 -10 -4 24.1 10.4
-7 17 4 55.69 19.7
7 -17 4 44.2 11.7
-17 10 4 53.59 20.4
7 10 -4 11.9 15.7
-17 7 -4 42.9 20.6
-10 17 -4 57.39 17.1
-10 -7 4 21.8 17
10 -17 -4 29 11.7
11 6 -4 93.29 16.8
6 -17 -4 80.89 12.9
17 -6 4 78.09 12.4
17 -11 -4 61.49 11.2
-6 17 -4 88.19 18.8
-11 -6 -4 85.39 13.7
-11 -6 -4 53.59 13.9
-11 17 -4 297.67 34.5
-6 17 4 205.08 27.1
-6 17 4 232.18 33.9
-17 6 -4 177.78 29.1
-11 -6 4 226.28 31.3
-17 11 4 281.17 31.9
11 -17 -4 239.78 26
6 11 -4 224.78 32.6
6 -17 4 254.27 31.7
-6 -11 -4 280.67 27.6
-6 -11 -4 216.78 27.5
17 -5 4 64.99 11.2
-12 17 4 70.99 21.3
-12 -5 -4 52.59 12.7
-5 -12 4 85.99 17.4
17 -12 -4 66.49 12
-5 17 -4 56.39 17.3
-12 -5 -4 67.89 17.7
5 -17 -4 58.29 13.1
-5 17 -4 90.09 24
12 5 -4 53.69 14.8
-12 -5 4 121.19 22.1
-5 -12 -4 129.59 22.5
-5 -12 -4 145.19 23.5
-5 17 4 119.39 23.4
5 12 -4 158.18 29
-5 -12 -4 130.39 27.5
-17 12 4 178.08 31
12 -17 -4 143.79 22.5
5 -17 4 133.59 26.6
-12 17 -4 94.99 17.5
-4 -13 4 177.28 26
4 -17 -4 182.28 23.1
-17 13 -4 192.18 30.3
-13 17 4 185.88 28.8
-13 17 4 173.08 32.3
-4 17 -4 179.88 32.7
13 -17 4 194.68 19.3
-13 -4 -4 210.18 30
17 -13 -4 203.48 23.2
-13 -4 -4 148.59 27.5
17 -4 4 190.78 22.9
13 4 -4 134.89 23.6
-4 -13 -4 124.59 19.8
-17 13 4 127.79 24.9
-4 -13 -4 106.69 15.6
-4 -13 -4 129.19 23.4
4 -17 4 97.59 15.8
13 -17 -4 126.99 16.1
4 13 -4 139.29 30.8
-13 -4 4 96.79 21.2
-17 14 -4 127.29 25.1
14 3 -4 78.69 17.5
3 -17 -4 129.39 20.3
-14 17 4 74.19 15
17 -14 -4 128.99 21
-3 -14 4 123.09 24.9
-17 14 4 59.29 19.9
-3 -14 -4 34.9 9.2
-3 -14 -4 82.09 18.6
3 -17 4 58.89 13.2
3 14 -4 100.29 19.1
-3 -14 -4 74.79 13.7
14 -17 -4 57.99 13
-14 -3 4 42 17
-2 -15 4 53.99 12.8
2 -17 -4 75.69 13.2
-17 15 -4 65.39 18.5
17 -2 4 78.79 13.7
17 -15 -4 101.19 14.1
15 -17 -4 69.19 13.4
-2 -15 -4 80.99 13.9
2 -17 4 75.09 13.8
15 2 4 79.49 13.2
-17 15 4 48.5 18.7
-15 -2 4 75.59 20
-17 1 4 -3.9 10.7
17 -16 -4 11.7 11.3
-1 -16 4 -1 10.8
1 -17 -4 15.4 12.1
-17 16 -4 -9.9 12.6
-17 16 -4 39.7 18.5
17 -1 4 17.8 12.2
-17 16 4 41.2 18.9
16 -17 -4 18.1 12.4
-16 -1 4 11.1 15.6
-1 -16 -4 20.8 18
16 1 4 30.2 12
1 -17 4 19.6 12.2
1 16 -4 27.3 15
-1 -16 -4 18.7 12.1
-1 -16 -4 10.7 6.2
0 -17 4 0.7 10.6
17 -17 -4 3.6 11.5
0 -17 -4 33.9 18.7
-17 17 4 27.9 17.6
17 0 4 12.3 11.8
0 17 -4 21.6 13.3
0 -17 -4 2.5 11.2
-17 17 -4 2.9 15.7
18 -9 -4 217.98 23.5
-18 9 -4 227.38 33.6
9 -18 -4 215.48 25.9
9 -18 4 222.58 30.7
-18 9 4 265.37 35.1
-9 -9 -4 243.48 32.1
9 9 -4 237.28 31.6
-9 18 4 247.58 35.8
-18 9 4 197.48 32.6
-18 9 -4 227.48 37.7
-9 18 -4 281.87 34.8
18 -9 4 186.38 22.4
18 -8 4 374.86 33.6
18 -10 -4 415.96 35.1
-18 8 4 330.57 40.9
8 -18 -4 424.66 35.7
-18 10 -4 370.66 42
-8 18 -4 464.65 46.1
-10 18 4 449.36 39.1
10 8 -4 409.66 39.9
10 -18 4 424.26 39.1
-18 10 -4 407.16 45.9
-10 -8 -4 460.85 40.1
-10 18 4 399.36 41.5
-8 18 4 392.86 41.6
8 -18 4 374.16 38.2
-18 8 -4 346.87 40.4
-18 10 4 350.36 40.1
10 -18 -4 387.26 33.6
-8 -10 -4 424.66 37.4
-8 18 4 441.46 39.1
18 -8 -4 334.07 31.1
-10 18 -4 460.95 43.1
-18 10 4 389.26 42.5
-8 -10 -4 302.17 33.3
-18 8 -4 314.67 43.4
8 10 -4 399.86 38.7
18 -11 -4 127.79 23
-18 11 -4 160.18 30.2
-11 18 4 161.78 30.1
-11 -7 -4 141.49 28.1
-7 18 -4 202.28 36
18 -7 4 169.48 21.8
7 -18 -4 163.68 23.4
11 -18 4 175.98 28.3
11 7 -4 138.49 27.6
-7 -11 -4 205.18 29.2
-18 11 4 241.98 33.2
18 -7 -4 180.88 20.3
-7 -11 -4 250.77 31.3
-11 -7 4 172.18 26.8
7 -18 4 222.08 31.9
7 11 -4 214.18 30.7
-7 18 4 199.98 34.5
11 -18 -4 226.78 25
18 -6 4 219.48 25.5
-12 -6 -4 217.48 30.8
-6 18 -4 274.07 38.5
18 -12 -4 199.98 24.9
-12 18 4 207.98 35.3
-6 18 -4 202.18 33.4
6 -18 -4 209.88 25.4
12 -18 4 211.38 26.2
-18 12 -4 205.88 31.9
12 6 -4 171.38 29.2
-6 -12 4 206.08 27.3
-12 18 -4 258.27 34.4
-12 18 -4 202.78 33.6
-12 -6 4 167.28 29.9
12 -18 -4 197.78 25.3
-6 -12 -4 251.67 30.9
-6 -12 -4 188.38 30.2
6 -18 4 184.18 30
-18 12 4 176.88 32.7
6 12 -4 212.98 31.8
18 -13 -4 320.57 29.9
13 5 -4 281.87 32.2
-5 18 -4 241.88 39.3
-13 -5 -4 335.47 33.9
5 -18 -4 332.77 30.1
-5 18 -4 283.27 36.4
-18 13 -4 282.67 34.3
13 -18 4 297.87 29.5
-13 18 4 365.26 36.2
-5 -13 4 319.87 33.1
18 -5 4 361.06 30.7
-13 18 4 254.87 36.5
-5 18 4 264.17 31.9
5 -18 4 355.26 34.5
-13 18 -4 235.98 34.4
-18 13 4 342.27 38
-13 -5 4 298.27 32.6
18 -14 -4 137.49 22.9
4 -18 -4 137.89 22.2
14 4 -4 115.69 23.6
-4 18 -4 123.49 20.5
-14 -4 -4 154.18 28
-4 -14 4 126.09 26
18 -4 4 153.88 23.9
-18 14 -4 134.89 25.7
14 -18 4 184.28 21.2
-14 18 4 197.28 29.6
-14 -4 4 139.69 25.6
-4 -14 -4 193.68 31.1
-4 -14 -4 194.18 28.9
-4 -14 -4 177.78 23.7
4 -18 4 178.48 28.3
-18 14 4 128.39 25.6
14 -18 -4 177.28 23.4
18 -15 -4 73.39 13
-15 18 4 67.39 14
18 -3 4 81.19 13.5
-15 -3 -4 66.19 13.1
15 3 -4 58.59 12.5
-3 -15 4 49.6 12.3
-3 -15 -4 169.28 32
15 -18 -4 150.18 22.3
-3 -15 -4 176.18 26.6
-3 -15 -4 154.98 22.7
-15 -3 4 119.39 25.5
3 -18 4 141.09 27.7
15 3 4 177.88 21.8
18 -16 -4 21 11.3
18 -2 4 25.5 11.8
-2 -16 4 5.2 10.4
2 -18 -4 26.8 11.4
-2 -16 -4 17.4 16.8
2 -18 4 4.7 11.3
16 2 4 12.9 11.2
-2 -16 -4 17.9 9.5
18 -2 -4 4.1 5.4
-2 -16 -4 11.6 10.8
-16 -2 4 2.1 11.2
16 -18 -4 15 11.8
2 16 -4 44.9 17
-18 16 4 47.1 19.7
18 -1 4 97.09 15
18 -17 -4 104.79 14.9
-18 17 -4 159.78 33.3
1 -18 -4 107.69 15
1 -18 -4 172.88 35.1
1 -18 4 98.59 15
17 -18 -4 116.09 15
-1 -17 -4 129.09 15.4
1 17 -4 163.58 26.5
17 1 4 122.49 15.7
-1 -17 -4 87.99 18.6
-18 18 4 19.3 17.2
0 -18 -4 1.4 10.2
18 0 4 13.6 11.4
0 18 -4 17.4 12.7
18 0 -4 1.5 4.3
-18 18 -4 -12.8 13.9
0 -18 -4 3.5 4.4
18 -18 -4 3.3 10.7
0 -18 -4 15.3 17.1
0 -18 4 -3.3 9.5
-19 9 4 204.38 33.8
-10 -9 -4 142.69 27.4
10 9 -4 130.59 28.3
-19 10 -4 124.09 25
19 -10 -4 153.08 22.5
-19 10 -4 194.08 35.7
19 -9 4 136.99 23.2
10 -19 4 151.48 28.9
-10 19 4 144.09 32.6
19 -9 4 174.48 19.1
9 -19 -4 141.69 23.2
-9 -10 -4 196.68 29.7
9 -19 4 160.18 29.2
10 -19 -4 168.08 24
9 10 -4 168.68 29.7
-9 19 4 159.98 32.9
-19 9 -4 187.58 35.7
-19 10 4 226.88 34.7
19 -9 -4 167.48 22.3
19 -10 4 164.68 21.7
-9 -10 -4 128.89 21.6
19 -10 4 162.28 19.2
-11 -8 -4 473.05 42.1
8 -19 -4 472.95 38.2
11 -19 4 399.16 41.2
-11 19 4 397.66 46
19 -8 4 496.05 39.4
11 8 -4 430.66 42.3
-11 19 4 478.05 43.2
-8 19 -4 523.15 49.5
-19 11 -4 350.06 43.3
-19 11 -4 464.75 47.8
-8 19 -4 457.75 46.9
19 -11 -4 485.35 38.2
-8 19 4 377.16 44.4
-8 -11 -4 444.96 42
-19 11 4 379.16 44.5
19 -11 4 391.66 37
8 -19 4 502.05 44
8 11 -4 533.25 44.8
-11 19 -4 543.15 47
19 -8 -4 440.36 38.9
-8 19 4 511.05 43.8
-19 11 4 546.05 48.2
-11 19 -4 555.04 48.7
11 -19 -4 518.05 39.7
-19 12 -4 176.18 29.8
-12 -7 -4 171.88 29.3
12 7 -4 141.59 28.4
7 -19 -4 172.38 23.7
-7 -12 4 171.98 26.9
19 -7 4 187.98 25.7
-7 19 -4 211.78 32.7
19 -12 -4 180.48 24.3
-7 19 -4 218.38 32.2
12 -19 4 176.18 25.5
-7 -12 -4 179.98 29.7
19 -7 -4 162.88 23
-12 19 -4 192.28 29
-19 12 4 139.79 28.2
-7 -12 -4 225.48 29.6
7 -19 4 194.88 30.2
7 12 -4 191.68 30.8
-7 19 4 249.68 28.2
-12 19 -4 244.58 31.1
12 -19 -4 197.68 25.1
-6 -13 4 53.49 12.6
-13 -6 -4 74.49 13.1
-19 13 -4 57.19 18.5
19 -13 -4 74.09 13.7
6 -19 -4 68.99 12.6
6 13 4 51.99 14.8
13 6 -4 57.79 16.1
13 -19 4 56.09 11.3
19 -6 4 70.29 15
-6 19 -4 66.49 17.4
-13 19 -4 58.69 15.5
-13 -6 4 7.8 10.8
6 13 -4 43.1 16.1
6 -19 4 20.7 11.2
13 -19 -4 39.6 12.3
19 -6 -4 20.2 10
-6 -13 -4 35.8 16.1
-19 13 4 23.9 18.9
-6 -13 -4 32.9 11.9
-5 -14 4 25.1 11.7
14 -19 4 33.8 9.3
-14 -5 -4 16.9 11
14 5 -4 22.4 14.2
19 -14 -4 37.5 12
19 -5 4 25.5 12.7
-19 14 -4 12.1 13.8
-5 19 -4 45.6 16
5 -19 -4 34.6 11.3
5 14 4 37.7 14.6
-14 -5 4 -2.5 9.7
5 14 -4 37.8 15.7
-5 19 4 14.1 12.9
-14 19 -4 14.7 12.2
5 -19 4 11.7 11.6
-19 14 4 -14.1 14.5
-5 -14 -4 26.3 12.2
14 -19 -4 21.7 11.6
-5 -14 -4 21.2 15.1
19 -5 -4 10.8 9.2
-15 19 4 271.87 31.1
-15 -4 -4 368.36 34.5
19 -4 4 341.27 30.3
19 -15 -4 333.07 29.8
-4 -15 4 311.57 33.6
4 15 4 340.37 32.7
15 4 -4 276.37 29.8
4 -19 -4 327.87 29.2
-4 19 -4 246.68 36.1
15 -19 4 261.47 26.9
15 -19 -4 264.27 29.3
4 15 -4 343.87 35.5
4 -19 4 255.97 33.5
15 4 4 288.07 28.2
-19 15 4 334.07 39.6
-4 -15 -4 307.87 35.3
-4 -15 -4 310.77 33.5
-16 19 4 115.19 16.4
16 3 -4 104.59 16.6
16 -19 4 123.69 14.5
19 -3 4 169.68 22.1
19 -16 -4 161.28 21
3 16 4 168.28 23.9
-3 -16 4 141.19 24.8
3 -19 -4 151.38 19.9
-3 -16 -4 187.68 31
-3 -16 -4 156.58 22.5
16 3 4 198.48 22.8
16 -19 -4 180.08 23
-3 -16 -4 166.18 27.6
3 -19 4 164.48 27.2
2 -19 -4 148.59 33
-2 -17 4 70.59 12.8
19 -17 -4 98.29 14
2 -19 -4 87.49 13.5
19 -2 4 76.19 13.3
-2 -17 -4 21.3 9.5
-2 -17 -4 40.8 11.1
2 -19 4 29 10.6
-2 -17 -4 41.4 16.2
17 -19 -4 50.29 11.6
17 2 4 43.2 11.8
-1 -18 4 1.4 9.4
-19 18 -4 15.6 16.6
19 -1 4 2.5 10.6
19 -18 -4 0.4 10.3
1 -19 -4 -6.7 9.5
-1 19 -4 -8.8 7.2
1 -19 -4 16.6 16.5
-19 18 4 45.1 17.6
-1 -18 -4 29.7 15.7
1 18 -4 43.5 13.7
1 -19 4 11.9 9.4
18 -19 -4 22.7 10.6
18 1 4 15.3 11.1
19 -1 -4 1.8 4.4
-1 -18 -4 5.8 5.6
-1 -18 -4 13.2 9.9
19 -19 -4 43.1 10.7
0 -19 -4 60.59 16
0 -19 -4 52.69 10.7
0 19 -4 42.2 11.1
19 0 4 29.7 10.7
0 -19 4 20.9 9.4
-10 20 -4 512.05 46.7
-20 10 4 457.35 46.6
20 -10 -4 480.25 39.1
10 10 -4 459.35 42.8
10 -20 4 448.96 42.7
10 -20 -4 452.05 38.7
20 -10 4 490.25 40.3
-10 20 4 434.96 41.1
-20 10 -4 432.66 47.2
-10 -10 -4 503.45 42.2
-9 20 -4 543.95 50.19
20 -11 -4 547.05 42.7
20 -9 4 574.84 43.5
-11 -9 -4 523.75 45.4
-20 11 -4 501.35 50.89
11 9 -4 526.85 46.1
-11 20 4 488.15 46.1
11 -20 4 491.55 44.9
9 -20 -4 544.65 42.4
-9 -11 -4 463.15 44
-20 9 -4 483.15 50.49
-9 20 4 539.95 46.8
11 -20 -4 538.45 43.3
20 -9 -4 507.35 43.1
-20 11 4 550.34 51.29
9 -20 4 568.04 46.7
-9 -11 -4 574.14 46.5
9 11 -4 549.25 47.2
-11 20 -4 593.94 50.19
20 -11 4 570.74 43.2
8 -20 -4 343.47 31.9
20 -8 4 362.06 33
20 -12 -4 337.97 31.7
12 8 -4 304.47 35.6
-8 -12 4 336.47 32.6
-20 12 -4 395.36 42.4
-8 20 -4 391.66 41.3
-12 20 4 372.26 36.8
-12 -8 -4 371.26 35.9
12 -20 4 278.27 32.8
8 12 -4 268.47 32.8
-20 12 4 309.77 38.7
-8 -12 -4 292.57 32.7
8 -20 4 268.37 31.4
12 -20 -4 284.17 27.2
20 -12 4 252.07 25.5
20 -8 -4 237.38 26.9
-8 -12 -4 229.48 30.8
-8 20 4 315.87 31
13 -20 4 57.39 10.6
20 -13 -4 94.09 13.5
13 7 -4 64.49 15.5
-7 -13 4 59.29 12
7 13 4 79.69 14.3
-13 -7 -4 73.79 12.2
20 -7 -4 54.49 12.4
-7 -13 -4 70.99 16
13 -20 -4 94.19 13.1
-7 -13 -4 77.19 13.4
7 -20 4 75.99 13.5
20 -14 -4 134.59 21.2
14 6 -4 115.29 17.4
-6 20 -4 166.38 31.5
14 -20 4 141.29 20.1
6 14 4 103.59 16.7
-6 -14 4 85.49 14.3
-14 -6 -4 106.39 14.7
20 -6 4 100.89 16.2
6 -20 -4 136.59 14.9
-6 -14 -4 245.88 30.4
-6 20 4 206.78 29.2
20 -6 -4 154.08 22.7
-6 -14 -4 205.58 28.8
-14 20 -4 197.98 31.7
14 -20 -4 170.58 23
6 14 -4 225.78 29.1
6 -20 4 195.68 28.4
-20 14 4 268.37 35.8
15 5 -4 46.4 13.4
5 15 4 43 13.9
-5 20 -4 68.29 16.1
-15 -5 -4 44.7 11.5
20 -15 -4 65.09 12.5
-5 -15 4 40.6 11.3
20 -5 4 40.8 12.8
5 -20 -4 75.19 11.9
20 -5 -4 23.3 9.7
5 15 -4 56.19 15.3
-5 -15 -4 25 11.8
-15 20 -4 7.3 12
15 5 4 40.6 10.8
5 -20 4 14.8 10.5
15 -20 -4 35.2 11.1
-5 -15 -4 19.2 14.5
4 16 4 42 13.4
4 -20 -4 57.49 11.3
20 -16 -4 58.79 12
-4 -16 4 28.6 10.5
20 -4 4 34.6 11.6
16 4 -4 30.6 9.9
-16 20 4 34.3 12.2
-4 20 -4 22.4 13.1
-4 -16 -4 59.79 15.5
4 -20 4 50.59 11.7
20 -4 -4 37.8 9
16 -20 -4 78.39 12.2
16 4 4 74.49 12
-4 -16 -4 48.1 11.8
3 -20 -4 60.29 12.1
20 -3 4 54.49 12.1
3 17 4 63.99 14.2
20 -17 -4 77.59 12.6
-3 -17 -4 36.3 14.5
-3 -17 -4 7.3 9.6
17 -20 -4 29.2 10.4
3 -20 4 23 9.9
-20 17 4 63.89 18.6
17 3 4 30.6 11.1
2 18 4 129.79 22.5
-2 -18 4 85.29 12.8
20 -2 4 121.29 13.8
20 -18 -4 104.79 18.2
2 -20 -4 102.49 18.4
-20 18 4 111.59 24.8
18 2 4 92.49 12.4
2 -20 4 54.79 11.3
-2 -18 -4 87.19 16.2
18 -20 -4 77.59 12
-1 -19 4 24.8 9.3
20 -19 -4 39.2 10.2
1 -20 -4 52.49 14.7
1 19 4 49.6 12.7
20 -1 4 36.9 10.1
1 -20 -4 34 9.8
19 -20 -4 56.29 10.4
-1 -19 -4 45.1 14.1
1 -20 4 35 9.5
-20 19 4 23.1 14.4
1 19 -4 47.3 11.4
19 1 4 32.4 10.3
-1 20 4 58.49 13.3
20 0 4 11 8.8
0 -20 -4 24.7 12.5
0 20 4 32.2 11.6
0 -20 4 9.3 8.2
20 -20 -4 16.6 9.1
11 -21 4 180.88 25.3
11 10 -4 185.78 27.5
21 -11 -4 177.78 23.9
21 -10 4 189.38 25.8
-21 10 4 213.38 32.1
-11 -10 -4 199.28 26.6
-21 11 -4 204.48 32.1
-11 21 4 232.98 28.7
10 -21 -4 177.88 23.1
21 -11 4 241.48 26.6
-21 10 -4 212.48 32.9
11 -21 -4 234.48 24.9
21 -10 -4 231.28 25.6
-10 21 4 261.77 28.7
10 -21 4 218.68 29
-11 21 -4 278.27 32.3
-10 -11 -4 231.28 29.3
10 11 -4 219.88 29.7
-21 11 4 253.67 32.7
12 -21 4 139.49 22.2
21 -9 4 147.99 23.4
9 -21 -4 135.09 20.5
-9 -12 4 122.89 17.8
-12 -9 -4 140.39 24.6
21 -12 -4 151.68 21.1
-21 9 4 95.39 25.4
12 9 -4 137.79 24.9
9 12 -4 173.48 26
21 -9 -4 154.78 21.3
12 -21 -4 177.68 22.1
-9 21 4 219.08 26
-21 12 4 234.08 33.1
-21 9 -4 121.09 28.8
-9 -12 -4 190.38 26.7
21 -12 4 176.88 21.3
9 -21 4 172.08 26.2
-9 -12 -4 138.29 22.3
13 -21 4 250.17 28.8
-13 -8 -4 307.17 31.6
8 -21 -4 312.57 27.8
-8 21 -4 351.46 37.7
13 8 -4 271.27 31.2
21 -8 4 340.27 30.2
-8 -13 4 288.27 30.3
-21 13 -4 314.67 38.8
-13 21 4 310.27 33.1
21 -13 -4 313.67 29
-8 -13 -4 347.37 33.4
-21 13 4 349.37 38.6
8 -21 4 341.87 32.5
21 -8 -4 263.27 27.6
-8 -13 -4 286.47 31.9
-8 21 4 340.97 33.8
13 -21 -4 315.17 28.8
8 13 -4 306.77 32.9
-13 21 -4 349.27 37.2
14 7 -4 98.19 22.2
-14 -7 -4 126.39 24.6
-7 21 -4 166.38 27.8
21 -14 -4 116.39 20.7
-7 -14 4 107.09 22.7
14 -21 4 130.59 17.2
7 -21 -4 117.09 19.7
21 -7 4 122.89 22
-7 21 4 173.68 26.2
7 14 -4 155.58 25.3
-14 21 -4 174.58 29.7
14 -21 -4 152.48 20.6
-21 14 4 191.88 31.3
21 -7 -4 114.69 18.8
-7 -14 -4 143.09 26.3
-7 -14 -4 112.09 24.3
7 -21 4 124.89 25.3
15 -21 4 68.59 9.7
6 -21 -4 26.9 10.6
15 6 -4 25.9 13
-15 -6 -4 38.6 10.5
6 -21 -4 54.09 14.9
-6 21 -4 55.49 15.4
21 -6 4 24 11.9
21 -15 -4 41.5 11.5
21 -6 -4 19.6 9.5
-6 -15 -4 26.2 13.3
6 15 -4 53.59 13.8
15 -21 -4 35.1 10.2
-6 21 4 24.9 12.5
-6 -15 -4 30.1 10.8
6 -21 4 29.3 10.4
-15 21 -4 26.3 12.4
15 6 4 41.2 11.4
-5 21 -4 184.28 28.9
-5 -16 4 179.98 24.2
21 -5 4 189.28 23
5 16 4 185.88 23.7
16 5 -4 142.19 18.6
5 -21 -4 191.08 20.9
21 -16 -4 183.68 21.5
-16 21 4 154.58 24.9
-5 -16 -4 224.78 28.6
5 16 -4 281.17 29
-21 16 4 266.17 33.1
16 -21 -4 238.98 24.1
16 5 4 228.88 24.9
5 -21 4 200.28 27.7
-5 -16 -4 263.97 29.9
21 -17 -4 315.77 27.9
-4 -17 4 290.77 29.7
-21 17 -4 319.87 35.2
21 -4 4 300.77 28.3
4 -21 -4 299.17 27.5
4 17 4 299.87 29.5
4 -21 4 278.27 28.7
17 4 4 314.67 27
-4 -17 -4 290.97 31
-4 -17 -4 264.17 28.5
-21 17 4 288.97 34.3
17 -21 -4 290.47 26.8
4 17 -4 361.36 31.2
21 -18 -4 27.2 9.7
21 -3 4 23.2 10
3 -21 -4 13.4 9.2
-21 18 -4 37.2 14.8
3 18 4 23.1 11.2
3 -21 -4 37 14.5
-3 -18 4 12.2 8.6
18 -21 -4 33.8 9.3
-3 -18 -4 32.1 12.7
18 3 4 34.6 10.6
3 -21 4 14.8 9.1
-21 18 4 50.29 16.6
-2 -19 4 171.28 22.1
2 19 4 183.38 21.8
21 -2 4 162.78 19.7
21 -19 -4 186.68 19.4
2 -21 -4 164.38 18.7
19 2 4 173.38 20.5
-2 -19 -4 173.88 23.1
2 19 -4 191.98 21.3
-2 21 4 214.18 23.1
2 -21 4 166.28 22.7
19 -21 -4 176.88 20
21 -20 -4 33 8.9
1 20 4 36.8 10.7
21 -1 4 23.9 9
1 -21 -4 44.8 12.3
-1 21 4 41.5 11
20 1 4 12 8.4
-1 -20 -4 25 11.3
1 -21 4 18.1 7.9
20 -21 -4 26.6 8.4
21 -21 -4 268.17 22.9
0 -21 -4 271.47 25.6
0 21 4 284.37 24.8
21 0 4 252.17 23
0 -21 4 270.67 24.7
11 11 -4 105.49 21.9
-22 11 -4 123.79 28.8
22 -11 -4 106.29 18.5
11 -22 4 102.89 19.7
-22 11 4 151.08 28
-11 -11 -4 85.09 12.7
22 -11 4 122.69 19
11 -22 -4 97.49 17.5
10 -22 -4 11.6 9.7
-12 22 4 41.2 12.7
-22 12 -4 30.2 15.9
-22 12 4 41.5 17.1
12 -22 -4 15.8 9.5
-22 10 -4 15.2 13
10 12 -4 16.1 12.1
22 -13 -4 162.48 20.5
13 9 -4 141.69 22.4
13 -22 4 135.39 17.7
-13 22 4 199.18 25.4
-13 -9 -4 161.98 23.4
22 -9 4 159.48 22.2
9 -22 -4 136.59 19.7
13 -22 -4 223.28 22.2
-22 13 4 215.08 29.1
-13 22 -4 253.27 29
-9 22 4 234.88 27.4
-9 -13 -4 220.78 26.6
22 -9 -4 173.78 21.3
9 13 -4 198.38 25.6
9 -22 4 191.68 26.3
-22 14 -4 192.58 29.1
-14 22 4 175.08 23.2
14 8 -4 144.79 21.9
8 -22 -4 138.09 18.7
-8 22 -4 206.68 27.4
22 -14 -4 148.79 19.8
-14 -8 -4 148.99 23.6
-8 -14 4 131.79 20
22 -8 4 141.09 21.5
8 -22 4 191.58 23.8
-8 22 4 193.78 25.9
14 8 4 190.08 21.2
-8 -14 -4 159.18 22.1
-22 14 4 186.08 28.4
8 14 -4 210.38 23.9
14 -22 -4 193.08 21.5
-8 -14 -4 195.68 24.8
22 -8 -4 159.18 19.7
22 -15 -4 44.6 10.2
-15 22 4 53.49 12.9
7 -22 -4 33.7 10.1
-7 -15 4 27.8 8.8
7 15 4 17.4 10
15 7 -4 40.5 11.9
22 -7 4 44.8 10.8
-15 22 -4 101.89 22.9
15 7 4 91.59 12.1
-7 -15 -4 66.49 11.1
7 15 -4 100.79 19
7 -22 4 56.39 10.7
15 -22 -4 67.49 10.8
-7 22 4 61.59 13.3
22 -7 -4 53.29 9.6
-7 -15 -4 53.49 12.6
-16 22 4 145.99 22
22 -6 4 179.18 19.8
-6 22 -4 175.38 26.3
6 -22 -4 154.38 20.9
-6 -16 4 147.39 21
6 -22 -4 143.29 18.7
6 16 4 142.69 20.5
22 -16 -4 169.38 19.6
-22 16 4 196.88 27.3
6 -22 4 189.68 23.5
16 6 4 206.28 21.7
16 -22 -4 196.08 20.9
-6 -16 -4 201.88 24.7
6 16 -4 229.58 24.5
-6 -16 -4 174.58 22.2
22 -5 4 119.49 18.3
-22 17 -4 169.98 26
5 17 4 114.69 19.1
5 -22 -4 116.59 17.2
22 -17 -4 127.19 17.2
5 -22 -4 136.69 22
-5 -17 4 105.29 18.4
17 5 4 122.59 17.4
17 -22 -4 118.29 16.4
-22 17 4 158.78 25.6
-5 -17 -4 117.69 18.7
-5 -17 -4 110.19 18.5
5 -22 4 106.89 20.6
-22 18 -4 37.8 14
4 -22 -4 16.8 8.2
-4 -18 4 12.9 7.2
22 -18 -4 31.9 8.9
4 -22 -4 33.2 12
4 18 4 24.7 10.2
22 -4 4 24.8 9
18 -22 -4 49.2 9.2
18 4 4 43.6 9.8
-22 18 4 53.29 14.9
-4 -18 -4 41.4 11.2
3 -22 -4 211.78 22.6
22 -19 -4 203.78 19
3 -22 -4 180.88 18.5
3 19 4 176.58 20.9
22 -3 4 192.68 19.4
-3 -19 4 174.58 20.5
3 -22 4 184.88 21.5
19 3 4 174.78 19.4
-3 22 4 213.08 21.3
3 19 -4 192.88 19.1
19 -22 -4 189.48 18.5
-3 -19 -4 162.38 20.8
2 -22 -4 31.8 9.6
-2 -20 4 17.3 6.5
2 20 4 30.6 9.4
22 -20 -4 36.4 8.1
22 -2 4 27.4 7.4
2 -22 4 34 7.8
20 -22 -4 49.6 8.2
-2 -20 -4 43.2 9.9
-2 22 4 69.29 14.9
20 2 4 48.2 8.5
12 -23 4 57.59 10.2
23 -11 4 61.39 11.2
-12 -11 -4 68.39 10
11 -23 -4 89.19 14.6
12 11 -4 76.69 12.6
-23 11 4 44.1 13.9
-23 12 -4 86.19 15.9
23 -12 -4 79.59 10.8
11 -23 4 87.69 13.5
-11 -12 -4 78.59 10.6
11 12 -4 85.59 16.8
-23 12 4 79.09 16.6
23 -11 -4 66.09 10.6
12 -23 -4 56.69 10.5
-23 11 -4 88.29 22.5
-11 23 4 104.89 19.2
23 -10 4 50.09 9.1
10 -23 -4 64.89 9.9
-13 -10 -4 57.29 9.7
23 -13 -4 59.29 10.2
13 10 -4 58.59 11.4
-10 23 4 97.79 20.5
10 13 -4 83.39 16.9
13 -23 -4 94.69 14.6
10 -23 4 73.99 15.2
23 -10 -4 57.89 9.7
-10 -13 -4 66.19 10.5
-23 13 4 92.99 22.7
23 -14 -4 27.7 9.2
9 -23 -4 28.1 9
-14 23 4 46.2 11.3
14 9 -4 26.5 10.3
23 -9 4 25.3 8.4
-23 14 -4 44.3 14.4
-14 -9 -4 19.4 8.1
-9 23 4 77.19 17.9
14 9 4 41.7 9.2
9 14 -4 55.49 11.4
23 -9 -4 24.3 7.2
14 -23 -4 45 9.1
-9 -14 -4 35.5 9
9 -23 4 40.1 8.3
-23 14 4 71.69 16
15 8 -4 54.79 12
23 -15 -4 53.19 10
8 -23 -4 71.99 10.1
-15 23 4 90.29 20
23 -8 4 51.49 9.8
15 8 4 106.09 16
-23 15 4 119.59 22.9
8 -23 4 105.39 18.6
-8 -15 -4 113.39 19.3
8 15 -4 121.19 18
15 -23 -4 97.99 15.8
-15 23 -4 137.89 24.1
-7 23 -4 45.3 11.5
-16 23 4 46.5 11
7 -23 -4 46.4 9.5
23 -16 -4 61.29 9.5
23 -7 4 42.8 9.1
16 7 4 28 8.9
-7 -16 -4 15.2 6.2
-16 23 -4 0.6 7.9
16 -23 -4 30.8 8.2
-7 -16 -4 17.4 7.9
7 -23 4 15.1 7.4
23 -17 -4 16.8 8
-23 17 -4 29.4 13.5
23 -6 4 10.2 7
-6 -17 4 1 4.8
6 -23 -4 5.2 8
17 6 4 -5 8.1
-6 -17 -4 2.4 6.5
17 -23 -4 -3.1 7.6
6 -23 4 -2.3 7
-23 17 4 11.3 13.5
6 17 -4 18.3 9.8
-6 -17 -4 1.8 5.9
-6 23 4 -1 8.1
23 -5 4 66.39 10.4
-23 18 -4 101.49 21.6
23 -18 -4 86.99 13.2
-5 -18 4 58.99 10.7
5 -23 -4 73.49 12.1
18 5 4 42 8.7
-23 18 4 38.1 12.9
5 -23 4 28.3 7.3
-5 -18 -4 27.7 7
-5 23 4 35.9 8.8
18 -23 -4 42.6 8.1
-12 24 4 19.4 9.7
-12 -12 -4 6.6 6.7
-24 12 -4 -7.1 9.1
12 -24 -4 5.1 7.3
12 12 -4 7.8 7.8
24 -12 -4 6.2 5
-13 -11 -4 45.1 8.2
-24 13 -4 38.6 12.6
24 -13 -4 46.7 7.4
11 -24 -4 66.19 8.9
13 11 -4 58.99 12.3
-13 24 4 70.89 16.4
-11 -13 -4 41.9 7.9
-11 24 4 47.8 10.4
13 -24 -4 38 8.1
11 13 -4 49.7 9.7
-24 13 4 35.7 12.4
13 11 4 49.7 8.1
14 10 -4 8.5 5.1
24 -14 -4 17.3 6.3
10 -24 -4 18.7 7.5
-24 14 -4 27.4 12.8
-14 24 4 21.5 9.7
-10 -14 -4 29.2 7.3
10 14 -4 36.1 9.3
14 10 4 32.8 7.8
-24 14 4 39.8 13.2
14 -24 -4 33.2 7.9
24 -15 -4 59.59 10.3
-24 15 -4 92.89 21.1
9 -24 -4 51.89 8.7
-15 24 4 56.99 10.8
-9 24 -4 78.09 17.2
15 9 4 101.59 13.8
-9 -15 -4 102.49 15.3
9 15 -4 111.99 14.9
15 -24 -4 105.89 13.5
-24 15 4 111.49 20.1
-15 24 -4 80.79 16.9
8 -24 -4 35.9 7.3
24 -16 -4 33.7 6.5
-8 -16 -4 15.1 5.2
16 -24 -4 24.3 6.7
16 8 4 23.3 7.3
8 -24 4 10 3.1
-24 16 4 38.7 12
0 0 -5 4.7 5
0 1 -5 70.39 12.8
1 0 5 48.8 5.5
1 0 -5 51.19 7.3
0 1 5 46.9 6.2
1 -1 -5 51.69 11.3
0 1 -5 63.19 9.3
-1 1 5 34.6 5.5
1 0 -5 64.79 12.3
-1 1 -5 58.69 9
2 -1 -5 624.24 47
1 1 -5 552.14 43.3
-1 2 -5 641.24 47
-2 1 5 556.84 42.1
1 1 5 634.84 42.7
-1 2 5 586.94 42.5
-1 2 5 581.94 42.5
1 1 -5 596.74 46.9
-2 1 -5 618.44 43.9
-1 2 -5 617.34 44.2
-2 2 5 21.1 4.5
2 -2 -5 38.3 11
2 0 5 24.9 4.9
2 0 -5 32.2 5.8
-2 2 5 25.1 3.9
-2 2 -5 35.1 8.7
0 2 5 34.1 5.8
2 0 5 30.1 9.2
0 2 -5 47.1 13.3
2 0 -5 41.6 12.1
0 2 -5 39.2 8.8
0 2 5 28.2 6.2
2 1 -5 271.47 25.5
2 1 -5 348.77 31
-1 3 -5 385.96 31.5
1 2 5 350.06 25.2
3 -1 5 313.17 28.2
-1 3 -5 382.86 27.5
3 -2 -5 383.46 30.3
-2 3 5 303.87 24.7
1 2 5 332.37 27.8
1 2 5 315.97 25.5
-3 1 5 329.87 24.2
-3 2 -5 377.06 26.9
3 -1 5 304.37 24.3
2 1 5 275.07 23
2 1 5 274.57 22.5
1 2 -5 326.97 25
-2 3 -5 296.17 24.2
-1 3 5 289.47 22.6
3 -2 5 323.57 26.4
3 -1 -5 309.77 27.5
-1 3 5 283.37 22.1
-3 2 5 296.77 21.9
1 2 -5 336.77 29.4
2 1 5 280.07 25.4
0 -3 5 51.19 7.6
-3 3 5 50.59 7.3
0 3 -5 98.19 17
3 0 -5 52.79 6.8
3 -3 5 60.29 7.6
-3 3 -5 40.9 7.5
0 3 -5 66.09 8.1
-3 0 5 61.89 5.5
-2 4 5 736.13 51.29
2 2 5 710.63 53.69
2 2 5 762.02 51.39
4 -2 5 726.83 54.69
2 2 -5 592.04 52.09
-4 2 5 700.73 50.79
2 2 -5 713.33 55.39
-2 4 -5 736.33 53.29
4 -2 -5 750.32 55.49
2 2 5 730.03 51.69
-4 1 5 42.2 6.8
1 3 5 37.7 7.3
-4 3 -5 58.59 10.4
3 1 -5 48.2 8.6
-1 4 -5 67.19 15.1
-1 4 -5 56.59 9.8
1 3 5 52.49 11
3 -4 5 40.6 7.2
4 -3 -5 64.69 13.8
1 3 5 43.4 8.4
-3 4 5 56.89 8.8
3 1 -5 78.99 14.5
4 -1 5 69.39 12.7
-1 -3 5 48.5 8.7
-1 4 -5 65.79 12
-4 3 -5 46.8 9.7
-1 4 5 56.59 10.4
3 1 5 87.59 15.2
1 3 -5 75.29 14.9
3 1 5 60.59 9.8
-3 -1 5 64.89 9
4 -1 -5 86.39 16.1
1 3 -5 87.09 14.2
-3 4 -5 46.2 8.4
-1 4 5 75.29 8.5
-4 1 -5 49.1 8.3
1 3 -5 56.49 8
1 -4 5 41.3 7.7
-1 4 5 75.49 10
3 1 5 64.09 9.3
-3 4 -5 89.49 13.4
-4 3 5 68.69 8.5
-4 3 5 65.19 8.9
0 4 5 1400.26 90.29
-4 4 5 1165.88 89.79
4 0 5 1372.36 92.99
-4 4 5 1149.58 90.29
4 0 5 1337.17 90.59
-4 4 -5 1087.29 90.79
4 -4 -5 1200.98 91.79
4 -4 5 1421.56 93.09
0 4 5 1269.47 91.49
0 4 -5 1350.26 94.19
0 4 -5 1308.57 92.09
4 0 5 1195.78 89.79
4 0 -5 1362.26 94.29
0 4 5 1410.26 90.39
-4 4 -5 1357.16 91.69
0 4 -5 1109.69 90.59
-2 5 -5 2417.96 170.98
-2 -3 5 2441.76 168.38
2 3 5 2180.48 167.78
2 3 5 2495.85 167.78
5 -3 -5 2679.23 171.28
-5 3 -5 2388.66 168.68
-2 5 -5 2505.35 169.68
2 3 5 2397.36 169.68
-5 3 -5 2304.17 168.78
-5 2 5 2347.86 167.18
-2 5 -5 2146.59 168.38
5 -2 5 2597.44 170.68
-3 5 5 2523.45 167.78
3 2 -5 2216.38 170.98
-2 5 5 2476.55 160.88
-3 -2 5 2261.27 161.18
5 -3 5 2486.65 163.38
3 2 5 2438.46 163.18
3 2 5 2400.86 161.08
-5 2 -5 2021.8 161.28
2 3 -5 2382.56 164.38
-5 3 5 2181.18 160.18
-3 5 -5 2080.69 161.38
-5 3 5 2143.69 160.88
2 3 -5 2199.68 161.98
-2 5 5 2001.2 160.88
3 2 5 2443.46 160.68
-3 5 -5 2377.86 162.38
5 -2 -5 2644.94 165.08
-5 4 -5 1028.1 75.39
1 4 5 1104.29 74.19
-5 4 -5 1138.59 75.99
-4 5 5 1052.49 73.99
-1 5 -5 1085.69 76.49
4 1 -5 1074.59 78.59
-1 5 -5 1122.49 78.29
5 -4 -5 998 76.49
1 4 5 1049 75.99
1 4 5 1100.49 74.39
-1 5 -5 1001.4 75.29
-1 -4 5 943.81 74.39
-4 5 5 871.51 73.89
-1 5 5 1245.08 78.69
-4 -1 5 1099.79 78.69
-5 4 5 1120.39 77.79
4 1 5 1170.48 81.59
-5 1 -5 903.31 78.39
1 4 -5 1177.78 83.09
4 1 5 1130.79 78.59
1 4 -5 1148.49 80.49
5 -1 -5 1122.59 83.09
-5 4 5 1059.89 78.39
-1 5 5 1008.7 77.79
-4 5 -5 1227.98 80.29
4 1 5 1101.39 77.89
-1 5 5 949.21 78.59
0 5 5 369.46 29.7
-5 5 5 374.96 29.5
-5 5 -5 368.36 31.4
0 5 -5 464.35 37.7
0 5 -5 394.06 33.8
0 5 -5 367.26 31
0 5 5 370.76 31.3
5 -5 5 459.25 33.9
0 5 5 431.16 30.4
-5 0 5 379.26 30.1
0 -5 5 365.26 29.8
-5 5 5 375.46 30
5 0 5 380.26 34.3
5 0 -5 375.56 35.7
-5 5 -5 371.46 31.9
5 0 5 382.46 30.5
3 3 -5 8.2 12.8
3 3 -5 6.5 3.8
3 3 5 8.5 11.4
-6 3 5 9.8 7.8
-6 3 5 6.3 5.5
-3 6 -5 5.1 11.3
3 -6 5 8.8 4.3
6 -3 5 6.3 13
-3 -3 5 6.6 7.9
-6 3 -5 1.9 9
6 -3 -5 5.6 13.3
-3 6 5 5.5 7.8
-6 3 -5 3.8 4
-3 6 5 -2.5 4.8
3 3 5 5.7 8
-3 6 -5 1.1 9.7
3 3 -5 8.8 8.8
3 3 5 -1.6 7.1
-2 -4 5 282.37 22.8
-4 6 5 264.17 22.4
2 4 5 261.47 25.6
4 2 -5 265.97 30.1
6 -2 5 278.17 27.7
6 -4 -5 248.88 26.4
-2 6 -5 239.28 23.9
-2 6 -5 276.47 28
-6 2 5 236.78 21.5
-6 4 -5 286.67 24
-6 2 5 233.28 20.5
-2 6 -5 279.97 25.2
2 4 5 280.17 23.1
2 4 5 281.27 22.5
-6 4 -5 241.88 24.1
-4 6 -5 218.08 22.4
-2 6 5 261.57 20.7
2 4 -5 233.58 26.2
-4 -2 5 260.47 20.6
-4 6 -5 201.48 21.8
4 2 5 216.18 20.8
6 -4 5 231.98 25.1
-6 4 5 201.38 18.6
-6 2 -5 196.98 20.7
2 4 -5 204.58 22
6 -2 -5 269.67 28.8
-6 4 5 230.98 19.8
4 2 5 203.78 19.1
4 2 5 205.68 25
-1 6 -5 1425.76 107.19
-5 6 5 1604.74 105.89
1 5 5 1518.15 105.89
1 5 5 1440.86 107.39
-1 6 -5 1404.76 109.39
-6 5 -5 1586.74 107.49
6 -1 5 1603.54 109.49
6 -1 5 1691.63 106.99
-1 -5 5 1376.26 106.09
-5 6 5 1480.85 105.99
-6 5 -5 1494.55 107.59
5 1 -5 1464.05 110.99
-1 6 -5 1362.96 107.79
1 5 5 1470.15 106.19
5 -6 5 1562.74 108.39
-6 1 -5 1371.36 108.89
6 -1 -5 1567.04 113.49
1 5 -5 1386.96 108.89
-5 6 -5 1489.05 109.79
1 5 -5 1384.86 110.29
-6 5 5 1589.14 108.89
5 1 5 1648.34 109.19
1 5 -5 1543.15 113.19
-1 6 5 1702.23 109.09
5 1 5 1457.55 108.19
-5 6 -5 1402.76 109.49
-5 6 -5 1673.73 110.69
5 1 5 1583.04 112.19
6 -5 5 1726.93 112.19
-6 5 5 1567.34 108.09
-5 -1 5 1540.15 109.09
-6 0 5 48.2 10.1
0 6 -5 75.89 13.3
0 6 -5 75.59 16
-6 6 5 37.6 8.6
6 0 -5 52.99 18.3
6 -6 5 53.99 14.6
-6 6 -5 50.69 10.8
-6 6 -5 50.09 13
0 6 5 43.7 9.4
-6 6 -5 60.69 14.9
0 -6 5 60.19 10.6
-6 6 5 70.39 11.9
6 0 5 47.5 16.3
0 6 -5 77.39 18.8
0 6 5 44.8 8.8
6 0 5 56.19 12.6
3 4 5 749.23 53.49
-4 7 5 799.82 52.99
4 3 -5 646.34 57.69
7 -4 -5 593.54 55.99
7 -3 5 735.43 57.29
-3 7 -5 703.33 54.49
3 4 5 763.02 52.89
-7 3 5 746.53 52.89
-3 7 -5 700.13 55.49
3 4 5 723.63 56.29
-7 4 -5 694.13 54.59
-3 -4 5 737.73 53.19
4 3 5 952.7 66.09
-4 -3 5 885.61 66.39
7 -3 -5 941.01 71.69
-4 7 -5 888.91 67.79
4 3 5 900.31 66.69
4 3 5 946.61 70.29
-7 4 5 872.01 66.09
-3 7 5 965.8 66.59
3 4 -5 857.01 71.39
-4 7 -5 962.9 68.39
-7 3 -5 887.71 67.89
2 5 5 75.89 12.6
-2 7 -5 43.5 15.3
-7 2 5 44.3 9.4
-5 7 5 66.09 10.6
-2 -5 5 53.79 10.5
-7 2 5 64.09 11.3
-7 5 -5 68.19 14.2
-7 5 -5 68.19 13.6
-2 7 -5 55.89 13.4
5 2 -5 67.89 17.4
2 5 5 83.29 15.4
-5 7 5 64.79 10.6
-2 7 -5 63.59 15.6
7 -2 5 60.49 16.6
2 5 5 66.89 10.5
-5 7 -5 16.3 11.8
-2 7 5 6.2 5.9
5 2 5 24.5 7.9
5 2 5 31.9 10.4
5 2 5 21.5 14.1
7 -5 5 24.9 14
2 5 -5 26.8 8.6
2 5 -5 17.3 10.6
-2 7 5 33.9 8.8
-7 5 5 15.9 6.2
2 5 -5 22.2 16.2
-5 7 -5 20.6 8.5
7 -2 -5 32.1 17.6
-7 2 -5 23.9 11.5
-5 7 -5 11.5 13.5
-5 -2 5 40.8 9.6
-1 7 -5 2091.89 145.89
-7 1 5 1990.6 141.99
-1 7 -5 2075.19 143.39
-7 6 -5 2128.79 143.59
6 1 -5 1871.01 147.09
1 6 5 2064.89 141.79
7 -1 5 2096.99 142.49
-6 7 5 1862.41 141.39
-6 7 5 2129.19 142.09
6 -7 5 2098.29 144.09
-1 7 -5 1827.52 143.79
-7 6 -5 1946.61 143.59
7 -1 5 2013.2 145.69
-1 -6 5 1982.7 141.79
-6 -1 5 2219.88 147.79
1 6 -5 2049.49 147.89
6 1 5 2317.37 148.19
-1 7 5 2227.28 147.59
6 1 5 1834.52 146.59
-7 1 -5 1993.3 147.69
-1 7 5 2032.2 147.59
1 6 -5 2067.39 151.58
7 -1 -5 1981 152.38
-6 7 -5 2319.27 148.89
-7 6 5 2206.18 147.49
-6 7 -5 2365.46 149.59
6 1 5 2177.88 151.28
-6 7 -5 2091.89 148.59
-7 6 5 1722.93 146.29
7 -6 5 1896.21 149.69
0 -7 5 482.45 35.8
0 7 -5 403.66 37.6
0 7 -5 461.95 41.7
-7 7 5 394.26 34.6
0 7 5 380.36 34.9
0 7 5 469.95 35.4
-7 7 -5 475.75 36.6
-7 7 -5 489.75 39.8
-7 0 5 494.25 36.5
7 0 5 521.35 42.5
-7 7 -5 501.25 39.3
0 7 -5 484.65 37.8
7 0 -5 417.16 43
-8 4 -5 2092.29 141.89
4 4 5 1923.61 140.29
-4 8 5 2056.59 140.09
-4 8 5 2105.09 140.99
4 4 -5 1645.64 143.69
-4 8 -5 2024.7 142.29
4 4 5 1651.33 139.29
8 -4 5 2097.89 143.99
-4 -4 5 2146.99 140.49
-4 8 -5 1945.81 141.79
-8 4 5 2110.39 140.09
-8 3 5 337.37 26.8
-5 8 5 297.77 25.6
8 -3 5 346.27 34.5
3 5 5 258.47 24.9
-8 5 -5 299.87 28.9
-3 8 -5 249.58 28.2
5 3 -5 260.57 32.3
-5 8 5 350.56 27.7
3 5 5 282.47 25.6
-3 -5 5 331.07 26.3
-3 8 -5 259.97 28.8
-8 3 -5 296.27 28.4
-5 8 -5 290.67 29
3 5 -5 292.87 32.2
-5 -3 5 321.87 26.6
5 3 5 308.17 31.3
5 3 5 301.07 26.1
-3 8 5 343.57 29.2
-3 8 5 291.27 25.6
8 -5 5 331.97 30.9
-5 8 -5 283.97 30
5 3 5 273.27 24.9
-8 5 5 340.17 26.7
-2 -6 5 2046.5 129.99
-6 8 5 2003.7 129.89
-2 8 -5 1965.4 131.69
-8 6 -5 1974.8 131.29
8 -2 5 1782.92 130.29
2 6 5 1544.15 128.99
-2 8 -5 1629.84 131.59
-8 2 5 1716.23 129.49
-8 6 -5 1909.51 132.09
8 -2 5 1953.9 134.59
6 2 -5 1589.94 134.89
-8 2 5 1857.91 129.49
-6 8 -5 1696.13 127.39
-2 8 5 1622.84 126.19
8 -6 5 1529.95 128.99
-6 8 -5 1939.01 128.89
2 6 -5 1735.93 126.89
-8 6 5 1981.1 126.99
6 2 5 1817.12 126.99
-6 -2 5 2006 127.19
-8 2 -5 1933.41 127.79
-6 8 -5 1940.11 128.79
2 6 -5 1570.84 129.99
-2 8 5 1840.92 127.29
6 2 5 1600.54 129.89
-1 8 -5 341.47 32.9
7 1 -5 406.76 41.3
-8 1 5 401.56 30.4
1 7 5 381.16 30.4
-8 7 5 646.74 47.1
-7 8 -5 586.44 48.3
7 1 5 572.24 52.19
7 1 5 570.24 47.2
1 7 -5 639.24 48.6
-7 8 -5 593.64 49.5
-7 8 -5 660.13 49.4
-8 1 -5 635.54 47.3
-7 -1 5 649.24 47.2
-1 8 5 588.64 47.9
-8 8 -5 75.59 14.2
-8 8 -5 102.69 19.2
8 -8 5 83.89 10.4
8 0 5 82.29 13.4
-8 0 -5 65.39 10.6
8 0 5 118.99 22.6
-5 9 5 601.54 42.8
4 5 5 459.05 41.9
9 -4 5 645.24 48.9
-4 9 5 748.13 56.19
9 -5 5 757.42 60.89
5 4 5 778.92 56.79
-9 3 5 1092.29 74.89
9 -3 5 883.61 74.69
-9 3 5 908.21 73.89
-9 6 -5 1089.29 77.79
-3 -6 5 1155.98 75.09
-6 9 5 1154.18 76.09
-3 9 -5 1075.79 77.59
9 -3 5 918.41 79.29
-6 9 5 951.2 73.89
6 3 5 575.24 41.9
3 6 -5 504.75 46.9
-9 7 -5 161.48 18.8
9 -2 5 189.08 18.6
7 2 -5 140.79 26.9
9 -2 5 229.28 25.2
-7 9 -5 196.48 22.2
-9 1 5 244.28 21
-9 8 5 435.76 34.6
-9 8 5 472.05 36.8
-8 9 -5 428.56 37.2
-8 9 -5 392.06 36.4
1 8 -5 412.06 36.7
-8 -1 5 427.46 34.4
-1 9 5 374.06 34.7
-9 1 -5 363.56 33.8
-9 9 5 2061.89 140.69
-9 0 5 1952.5 139.99
-9 9 5 2007.4 140.19
0 9 -5 2069.79 141.49
-9 9 -5 1869.51 141.89
-9 9 -5 1843.02 140.59
-5 -5 5 363.76 29.4
-10 5 5 356.56 29.7
-5 10 5 337.07 30.6
-10 5 -5 303.27 32.4
-5 10 -5 278.77 34.8
-10 4 5 99.39 11.4
-10 4 -5 133.99 23.9
-4 10 5 127.99 19.9
-6 -4 5 140.19 18.4
-10 6 5 146.29 20.7
-6 10 -5 146.19 22.1
-10 3 5 388.46 35
-3 -7 5 467.05 35.8
-7 10 5 481.55 38.8
-7 10 5 431.36 35.7
-10 3 5 452.35 36.8
-3 10 -5 422.46 41.4
-10 7 -5 395.06 39.1
-7 -3 5 451.65 36.5
-10 7 5 457.15 37
-3 10 5 433.86 37.3
-10 3 -5 454.35 39.9
-7 10 -5 405.06 41.2
-8 10 5 1223.78 86.09
-2 -8 5 1081.99 84.19
-10 8 -5 1079.49 87.49
-2 10 -5 1246.78 87.79
-8 10 5 1200.18 85.09
-10 2 5 1156.48 84.99
2 8 -5 977.6 73.19
-2 10 5 902.81 73.19
-10 2 -5 1027.3 73.89
-10 8 5 1022.6 73.19
-10 8 5 878.91 72.59
-8 -2 5 1026.3 72.79
-8 10 -5 1082.59 75.29
-8 10 -5 949.11 73.89
-9 10 5 374.56 34.5
-10 9 -5 332.37 37.4
-9 10 5 392.36 33.2
-1 10 -5 391.46 38.2
-10 1 5 386.46 34.1
-1 10 5 355.36 34.9
-9 -1 5 405.36 34.2
-10 9 5 401.76 33.7
-10 1 -5 326.27 32.4
1 9 -5 393.56 36.3
-10 9 5 368.16 33.7
-9 10 -5 377.26 37
-9 10 -5 389.06 36.7
0 10 -5 629.94 50.69
-10 10 -5 598.54 51.09
-10 10 -5 571.34 47.7
-10 0 5 599.74 47.2
-10 10 5 559.54 47.4
-10 10 5 587.84 49.4
-5 11 -5 712.23 60.59
-11 5 5 723.03 57.59
-11 6 -5 775.62 60.29
-6 11 5 720.33 57.89
-5 -6 5 824.52 57.39
-5 11 5 768.52 64.49
-11 6 5 874.51 64.29
-6 -5 5 881.31 63.79
-6 11 -5 753.02 66.49
-11 5 -5 969.8 67.09
-4 11 -5 583.84 49.8
-11 7 -5 533.35 49.4
-4 -7 5 657.43 46.3
-7 11 5 567.74 46.6
-11 4 5 505.45 44
-11 4 5 596.34 46.7
-7 -4 5 898.01 63.39
-11 4 -5 966.9 65.69
-7 11 -5 789.92 65.39
-11 7 5 806.32 63.19
-4 11 5 704.33 63.79
-3 11 -5 754.02 57.09
-3 -8 5 681.73 51.09
-11 3 5 587.74 50.39
-11 8 -5 620.34 53.79
-11 3 5 689.53 50.89
-8 11 5 666.13 52.09
-8 11 5 599.84 50.29
-8 11 -5 672.03 59.89
-8 11 -5 822.92 62.79
-3 11 5 702.23 60.69
-11 3 -5 911.11 62.59
-8 -3 5 838.52 60.09
-11 8 5 794.32 60.69
-9 11 5 686.03 56.59
-9 11 5 736.93 57.39
-2 11 -5 838.22 61.29
-11 9 -5 742.53 59.09
-2 -9 5 598.44 54.19
-11 2 5 787.72 56.49
-11 2 -5 685.63 55.99
-11 9 5 709.83 55.29
-9 11 -5 820.02 57.59
-2 11 5 652.43 56.19
2 9 -5 697.13 54.49
-11 9 5 609.84 54.19
-9 -2 5 741.93 54.89
-9 11 -5 718.23 57.09
-11 10 -5 -1.1 16.5
-11 10 -5 4.8 7.9
-10 11 5 -3.6 14.3
-1 -10 5 9.1 7.1
-1 11 -5 5.5 16.4
-11 1 5 4.9 12.2
-11 1 5 10.6 6.3
-10 11 5 -0.3 14
-11 10 5 66.79 15.8
-10 -1 5 66.29 15.8
-1 11 5 44.1 15.6
-10 11 -5 46.4 16.6
-11 1 -5 37.8 11.1
-11 10 5 56.79 16
-10 11 -5 55.99 17.1
1 10 -5 57.29 18.4
0 11 -5 64.59 19.5
-11 11 5 61.09 16.2
-11 0 5 71.09 15.7
-11 11 5 63.39 18.3
-11 11 -5 44.8 13
-11 11 -5 84.79 19.3
-6 12 5 57.89 16.1
-12 6 5 46.5 14.8
-6 12 -5 54.69 19.3
-6 -6 5 43.9 14.1
-12 6 -5 74.59 18.3
-12 5 5 192.88 25.4
-12 7 -5 211.18 29.2
-5 -7 5 211.38 23
-7 12 5 191.18 27
-5 12 -5 186.78 31.5
-7 -5 5 153.58 20.8
-5 12 5 119.19 23
-7 12 -5 188.68 27
-12 7 5 129.39 21.4
-12 5 -5 184.88 25.3
-4 12 -5 387.16 41.9
-12 4 5 370.86 35.7
-4 -8 5 416.76 34.9
-8 12 5 386.16 36.2
-12 8 -5 375.36 37.3
-12 4 5 391.96 33.5
-12 8 5 262.07 27.3
-8 12 -5 237.48 32.7
-8 -4 5 273.57 28.6
-4 12 5 256.97 30.4
-3 12 -5 98.69 22
-9 12 5 69.49 15.7
-12 3 5 84.59 16.4
-12 9 -5 92.69 19.7
-3 -9 5 74.69 15.4
-9 12 5 104.29 20.3
-12 3 -5 44.9 16.1
-9 12 -5 49.1 19.4
-3 12 5 44.5 16.8
-9 -3 5 51.89 14.2
-12 9 5 83.59 17.6
-9 12 -5 33 12.8
-2 12 -5 279.37 35.5
-10 12 5 258.97 30.1
-12 2 5 290.17 30.3
-12 10 -5 272.77 31.9
-10 12 5 305.87 33.8
-12 10 5 197.78 23.2
-12 2 -5 198.38 26
-10 12 -5 236.98 28.9
2 10 -5 193.28 22.9
-10 12 -5 245.38 30.2
-2 12 5 236.88 29.3
-10 -2 5 229.78 25.7
-12 10 5 207.68 26.1
-1 12 -5 639.14 55.79
-11 12 5 602.94 52.59
-12 11 -5 650.63 54.09
-12 1 5 681.93 51.29
-11 12 5 607.94 52.69
-12 11 5 489.65 45.9
-11 12 -5 596.64 50.39
1 11 -5 620.34 49.1
-12 11 5 592.74 48.9
-1 12 5 516.55 46.2
-11 12 -5 543.15 47.6
-11 -1 5 609.14 47
0 12 -5 0 17.5
-12 12 5 -4.4 15
-12 12 -5 5.3 8.7
-12 12 -5 7.5 18
-12 0 5 -14.1 14
-12 12 5 8.8 15
-7 13 5 114.99 26.2
-13 6 5 131.79 24.8
-13 7 -5 170.18 25.3
-6 -7 5 151.38 21.6
-6 13 -5 144.89 27.5
-13 6 -5 240.58 28.5
-7 13 -5 170.88 28.6
-7 -6 5 183.08 25.8
-6 13 5 186.68 28.5
-13 7 5 178.48 24.8
-8 13 5 285.47 33.7
-13 8 -5 315.57 35
-5 -8 5 298.77 30.9
-13 5 5 297.77 30.5
-5 13 -5 314.07 36.1
-13 5 -5 481.95 42.6
-13 8 5 388.86 38.9
-5 13 5 395.56 40.3
-8 -5 5 395.56 36.8
-8 13 -5 410.56 42.3
-13 4 5 278.17 28.3
-4 -9 5 253.87 27
-13 9 -5 313.37 34.1
-9 13 5 299.77 33.8
-4 13 -5 329.47 39.3
-13 4 5 255.07 29.5
-13 4 -5 548.75 46.1
-9 -4 5 488.65 41.4
-4 13 5 440.96 42.4
-13 9 5 442.96 41.8
-9 13 -5 492.25 44.6
-13 10 -5 432.06 37.5
-3 13 -5 431.66 40.1
-10 13 5 337.77 32.2
-10 13 5 389.76 37.1
-13 3 5 370.46 33
-13 3 5 318.57 32.1
-3 -10 5 288.07 30.6
-13 10 5 445.26 41.4
-10 13 -5 485.35 43.4
-3 13 5 457.55 43.1
-10 -3 5 488.55 40.7
-13 3 -5 441.06 41.4
-11 13 5 45.1 18.1
-13 11 -5 57.19 20
-2 13 -5 31.9 21.6
-11 13 5 40.5 16.9
-13 2 5 27 14.2
-2 13 5 13.5 14.8
-13 11 5 12.3 16.9
-13 2 -5 4.4 10.9
-11 13 -5 12.8 16.4
-11 13 -5 15.5 14.9
2 11 -5 14.7 9
-11 -2 5 12.8 15
-13 11 5 13 9.1
-13 12 -5 133.89 25.4
-12 13 5 126.49 25.9
-12 13 5 127.19 23.1
-13 1 5 117.79 24.4
-1 13 -5 101.99 22.7
-12 13 -5 170.28 28.7
1 12 -5 138.99 21.5
-12 13 -5 155.28 22.5
-13 12 5 135.59 22.3
-13 12 5 203.58 28.3
-12 -1 5 177.18 26.7
-13 13 -5 159.58 29.1
-13 13 5 147.19 28.1
0 13 -5 128.69 26.2
-13 13 5 114.49 21.5
-13 0 5 125.79 23.6
-7 14 5 15.8 15.9
-7 14 -5 9 20.1
-14 7 5 8.2 16.5
-7 -7 5 1.8 15.3
-14 7 -5 29 17.4
-14 8 -5 17.2 16
-6 14 -5 8.5 19.2
-6 -8 5 -8.3 14.4
-14 6 5 3.2 14.7
-8 14 5 5.7 16.8
-8 -6 5 -2.8 13.9
-14 6 -5 11.3 17
-14 8 5 12.3 15.2
-6 14 5 8.6 17
-8 14 -5 23.3 18.5
-14 9 -5 71.69 19.1
-5 14 -5 79.89 23.2
-9 14 5 80.79 20.2
-5 -9 5 51.29 15.3
-14 5 5 48.5 15.9
-5 14 5 89.19 19.7
-9 -5 5 115.69 19.3
-14 5 -5 92.59 21.8
-14 9 5 124.79 22.1
-9 14 -5 111.79 24.2
-4 -10 5 20.1 10.7
-4 14 -5 7.5 21.5
-14 4 5 -0.1 10.6
-10 14 5 15.8 18.5
-14 4 5 -0.8 13.2
-14 10 -5 26.3 16.7
-10 14 -5 22.8 18
-4 14 5 17.5 16.5
-14 10 5 31 16.5
-10 -4 5 5.7 13.9
-14 4 -5 16.1 16.7
-11 -3 -5 111.59 13
11 -14 5 76.09 13.8
-14 11 5 368.86 37.5
-11 -3 5 383.06 35.5
-11 14 -5 309.17 35
-3 14 5 376.76 37
-14 3 -5 273.17 32.1
-2 14 -5 49.7 21.8
-12 14 5 60.79 17.7
-14 2 5 43 16.1
2 -14 -5 23.1 6.5
-12 14 5 74.39 21.4
-14 12 -5 86.09 21.2
-12 -2 -5 37.5 7.9
-14 12 5 26.1 17
-2 14 5 -5.4 12.2
-12 14 -5 9.9 14.3
-2 -12 -5 3.1 9.3
-2 -12 -5 7.6 5.6
-14 12 5 2.8 8.8
-12 -2 5 20.3 15.2
-12 14 -5 24.6 15.4
-13 -1 -5 137.19 21.2
-1 14 -5 105.39 23.5
13 -14 5 115.59 13.4
-13 14 5 97.99 21.4
-1 -13 5 80.39 13.1
1 -14 -5 105.39 15.5
-14 1 5 116.39 20.6
-13 14 5 94.89 20.8
-14 13 -5 127.69 25.5
-1 -13 -5 158.18 18.5
-13 -1 5 158.48 25.3
-14 13 5 174.68 27.2
-1 -13 -5 140.49 24
1 -14 5 179.38 20.7
-13 14 -5 175.48 29.2
0 -14 -5 -6.3 14.7
-14 14 -5 18 18.4
-14 0 5 -4.4 15.5
14 -14 -5 4.9 6.8
-14 14 5 13.8 17.5
0 -14 5 14.1 8.9
14 0 -5 3.5 4.4
0 -14 -5 3.3 10.2
0 14 -5 12.2 9.8
8 7 -5 37.3 11.1
-15 7 5 81.49 20.3
-7 -8 5 52.49 16.7
-15 8 5 50.09 18
-8 15 -5 73.89 22
7 8 -5 24.6 10.2
-8 -7 5 35.4 15.8
-15 7 -5 77.49 21.7
-9 -6 -5 1.8 4.6
-6 15 -5 15.1 20.5
6 -15 -5 10.3 6.9
-6 -9 5 -3.9 13.1
-15 9 -5 6.8 16.4
-9 15 5 4.7 16.9
9 6 -5 -8.5 9.2
-15 6 5 7.6 17.4
-15 6 -5 18 18.7
-9 15 -5 24 19.2
-15 9 5 14.9 9.8
-6 15 5 19.6 17
-15 9 5 13.3 16.9
6 -15 5 19.4 6.5
-9 -6 5 -3 16
-10 -5 -5 68.69 14.4
5 -15 -5 50.39 8.4
-15 5 5 65.69 17.3
5 -15 -5 89.79 16.1
-5 15 -5 118.79 27.3
-15 10 -5 99.49 20.6
-5 -10 5 44.2 12.8
10 5 -5 67.49 12.1
-15 10 -5 52.99 18.6
-5 -10 -5 70.09 11.1
15 -10 5 109.29 18.1
-15 10 5 137.09 27.8
-10 -5 5 103.99 19.4
-5 -10 -5 66.69 15.3
-15 11 -5 282.87 30.9
11 -15 5 212.98 20.9
-15 4 5 187.28 23.4
-4 15 -5 276.07 34.7
4 -15 -5 226.18 20.6
-15 11 -5 199.58 36.1
-11 15 5 269.77 32.1
11 4 -5 196.68 22
-4 -11 -5 210.28 27.4
-15 11 5 295.37 34.9
-15 4 -5 212.98 30.2
-15 11 5 283.97 33.9
4 -15 5 283.87 26.7
-4 -11 -5 214.88 22.2
-11 -4 5 243.98 31.7
-4 15 5 249.48 34.1
-11 15 -5 301.67 35.4
-12 -3 -5 305.57 29.2
-12 15 5 266.47 36
12 -15 5 226.08 23.5
-3 15 -5 266.27 38.2
3 -15 -5 255.87 24.1
-15 3 5 228.78 29.9
-15 12 -5 304.57 32.5
-15 12 -5 215.68 34.8
-15 12 5 292.57 34.9
-15 12 5 263.77 33.9
-3 -12 -5 267.07 23.9
-3 -12 -5 220.58 29.5
-12 15 -5 207.08 30.8
-12 -3 5 253.47 29.4
3 -15 5 278.77 28.8
12 -15 -5 212.78 21.3
-3 15 5 196.18 28.9
2 -15 -5 173.68 20.4
-15 2 5 124.49 21.5
-15 13 -5 131.39 22.3
-15 13 -5 153.38 26.8
-2 15 -5 142.89 31.4
-13 -2 -5 171.48 27.6
-13 15 5 140.59 29.6
13 2 -5 110.49 16.3
-2 -13 5 137.49 17.8
-15 13 5 266.77 34.5
-15 13 5 236.48 33
13 -15 -5 202.18 22
2 -15 5 227.58 28.4
-13 -2 5 215.68 31
-2 -13 -5 215.58 31.6
15 -13 5 203.88 21.3
-2 -13 -5 229.18 24.8
15 -1 5 104.49 14.5
-15 1 5 133.89 26.1
-15 14 -5 102.39 19.8
15 -14 -5 143.59 18.3
14 1 -5 108.49 14.7
1 -15 -5 163.58 20.8
-14 15 5 96.69 20.5
-15 14 5 156.18 29.9
1 -15 5 139.29 26.2
14 -15 -5 131.69 20.6
14 1 5 131.19 17.4
-1 -14 -5 145.59 22.4
-15 14 5 182.28 31.5
-1 -14 -5 169.28 31
-14 -1 5 120.89 22.4
-15 15 5 326.17 38.7
0 -15 -5 385.96 33.2
0 -15 -5 448.86 43.7
15 -15 5 378.96 33
-15 0 5 329.17 38.3
15 -15 -5 353.66 32.4
15 0 5 371.66 31.7
0 -15 5 382.76 36.9
8 8 -5 110.89 19.2
-16 8 5 73.29 14.3
-16 8 -5 79.09 19.1
-16 8 5 94.79 20.2
-8 -8 -5 94.99 17.6
-8 -8 5 70.59 19.4
-16 8 -5 93.79 21.5
8 -16 -5 78.89 16.3
-8 16 5 120.99 23.2
8 -16 5 125.29 24.1
8 -16 -5 73.59 12.1
-8 16 -5 82.09 17.8
-7 -9 5 9.8 14.4
9 -16 5 28.4 10.8
-9 16 5 32.5 18.3
-7 16 -5 19.7 17.1
-16 9 -5 43.6 18.4
7 -16 -5 17 9.9
-9 -7 -5 25.9 9.3
9 7 -5 2.6 14.2
-16 7 5 27.8 17.3
-16 9 -5 25.2 17.7
7 -16 -5 25.6 12.3
-7 16 -5 74.49 24.4
9 -16 -5 5.5 6.7
7 9 -5 -4.5 14.8
-7 -9 -5 4.7 5.7
7 -16 5 12.8 10.7
-7 16 5 20.3 18.5
-9 16 -5 10.4 14.6
-9 16 -5 41.6 20.6
-9 -7 5 11.5 16.8
-16 9 5 36.1 15.6
-16 9 5 9.5 17.4
9 -16 -5 16.8 10.1
-16 7 -5 18.3 18.5
-7 -9 -5 4.2 8.6
-6 16 -5 47.6 18.5
-10 16 5 82.29 20.4
-10 -6 -5 56.69 11.8
-16 6 5 34.8 15.6
6 -16 -5 61.79 15
10 -16 5 66.29 12.2
-6 16 -5 94.89 25.8
10 6 -5 45 15.2
6 -16 -5 62.29 11.7
-16 10 -5 99.09 21
-16 10 -5 81.79 20
-10 -6 5 30.6 16.5
-16 10 5 73.59 17.4
-6 16 5 68.39 20.9
6 -16 5 48.2 12.4
10 -16 -5 47.6 11.3
-16 6 -5 41 20.7
-10 16 -5 63.09 20.9
-16 10 5 57.19 19.5
6 10 -5 39.9 16.3
-6 -10 -5 53.69 13.6
11 5 -5 90.69 17.1
-16 11 -5 134.09 25.2
5 -16 -5 73.89 13.1
-5 16 -5 93.89 24.1
-11 -5 -5 83.99 13.9
-16 11 -5 107.69 21.6
-11 16 5 112.19 23.3
11 -16 -5 128.79 19.9
5 11 -5 100.29 18.8
-5 -11 -5 94.19 16.9
-5 -11 -5 139.19 20.7
-11 -5 5 127.99 21.4
-16 5 -5 70.49 19.2
5 -16 5 95.29 14.3
-5 16 5 138.79 28.8
-16 11 5 146.69 24.6
-12 16 5 126.89 27.8
12 4 -5 111.89 21.6
-4 -12 5 65.49 11.2
-4 16 -5 74.29 17.4
16 -12 -5 57.79 9.3
-4 16 5 65.49 19.4
-12 -4 5 84.69 18.7
-16 12 5 114.29 23.4
-4 -12 -5 83.09 13.7
-4 -12 -5 80.69 17
12 -16 -5 77.69 13.3
-12 16 -5 77.69 20
4 -16 5 69.29 13.2
4 12 -5 93.19 18
-3 16 -5 411.16 45.5
16 -13 -5 414.86 35.3
-13 -3 -5 517.45 41.2
3 -16 -5 469.05 36.8
-16 13 -5 431.16 47.8
13 -16 5 474.75 39.6
13 3 -5 391.16 37.5
-13 16 5 410.06 44.3
-3 -13 5 423.76 36.8
-16 13 -5 404.76 43.8
-3 -13 -5 458.35 43.3
-16 13 5 496.35 47.4
3 -16 5 446.86 41.3
-3 -13 -5 486.55 38.1
16 -13 5 383.06 36.5
-16 13 5 435.56 43.2
13 -16 -5 459.15 37.3
3 13 -5 456.85 42.4
-13 -3 5 418.86 42.7
-16 2 5 138.59 26.1
14 -16 5 262.57 29.4
2 -16 -5 192.98 25.1
16 -2 5 198.08 22.5
16 -14 -5 202.68 23.8
-14 -2 -5 256.07 31
14 2 -5 176.68 24.4
-16 14 -5 226.68 37.9
-16 14 -5 198.28 32
-2 -14 5 212.08 29
14 -16 -5 141.59 21.4
-2 -14 -5 146.89 31.7
-14 -2 5 138.29 27.9
2 -16 5 123.89 16.8
-2 -14 -5 125.29 22.4
-16 14 5 112.59 24
14 2 5 163.08 20.3
-1 -15 5 128.69 27.6
16 -1 5 164.88 22
1 -16 -5 210.68 36.3
-16 15 -5 148.99 36.6
1 -16 -5 156.08 22.3
16 -15 -5 135.09 22.4
15 1 -5 120.19 20
-1 -15 -5 154.28 24
-16 15 5 206.88 34.3
1 -16 5 170.88 28.3
-15 -1 5 118.49 23.1
15 1 5 184.18 23
-1 -15 -5 205.58 33.7
15 -16 -5 156.78 23.3
-16 16 -5 122.09 21.9
0 -16 5 151.38 27.7
16 0 5 162.48 23.5
16 -16 -5 163.48 22.8
16 0 -5 101.29 15.7
0 -16 -5 148.69 23.1
-16 16 5 184.68 31.7
8 -17 -5 78.49 13.8
-9 -8 -5 65.09 13.2
-17 8 5 72.99 21
-17 9 -5 100.99 22.6
9 8 -5 74.89 18.2
9 -17 5 65.09 14
-17 8 5 67.09 17.6
-8 17 -5 101.79 19.4
-17 9 -5 102.29 21.3
8 -17 -5 80.89 15.9
-9 17 5 87.19 21.8
-17 8 -5 93.19 22.8
-17 9 5 129.59 32.2
-17 9 5 75.39 20.5
8 -17 5 67.09 14
-8 -9 -5 56.39 13.4
-9 -8 5 59.39 18
-8 17 5 110.39 23
-17 8 -5 76.09 19.7
8 9 -5 92.29 19.3
9 -17 -5 53.59 14.3
-8 -9 -5 68.89 12.2
-17 10 -5 46 18.5
-10 17 5 46 21
7 -17 -5 23.8 12.1
-17 7 5 9 14.9
10 -17 5 28.5 12.5
-7 17 -5 69.49 25.1
-7 17 -5 36.6 17.1
-10 -7 -5 24.1 11.6
10 7 -5 11.8 15.4
-17 10 -5 38.6 19.6
-17 7 -5 -5.2 15.7
-7 -10 -5 16.3 13.6
7 -17 5 15.7 11.9
-17 10 5 34 20.1
7 10 -5 33.9 18.2
10 -17 -5 29.7 12.5
-7 17 5 47.5 20.5
-17 7 -5 25.9 19.1
-10 -7 5 18.9 16.2
-10 17 -5 44.1 15.5
-10 17 -5 70.39 22.6
10 -17 -5 17.2 10.3
-7 -10 -5 23.6 10.5
6 -17 -5 168.48 23.4
-11 17 5 165.78 33
-6 17 -5 150.68 23.9
-6 17 -5 223.08 37.4
-17 11 -5 160.08 27.7
11 6 -5 121.59 28
-11 17 5 212.28 28.3
-11 -6 -5 148.19 28.2
-17 11 -5 207.38 37.3
11 -17 5 177.58 31
6 11 -5 138.59 30.9
-6 -11 -5 125.69 26.2
-6 -11 -5 144.99 22.9
11 -17 -5 129.59 23.4
-6 17 5 119.29 27.3
-6 17 5 162.18 25.2
-11 17 -5 127.09 27.8
-11 -6 5 111.69 22.3
-17 11 5 140.89 27.6
-5 17 -5 5.5 16.5
5 -17 -5 19.9 12.2
-5 17 -5 49.7 22.9
-17 12 -5 39 19.7
-12 17 5 33.3 20.9
12 5 -5 22.6 14.9
17 -5 5 8.6 6.7
12 -17 5 25.9 12.7
-5 -12 5 12.8 6.1
-12 -5 -5 37.5 11.9
17 -12 -5 16.3 10
5 12 -5 32.7 17.5
-5 -12 -5 15.9 8.3
5 -17 5 17.9 12
-12 17 -5 57.09 20.6
-5 -12 -5 46.9 13.6
-5 17 5 35.8 12.7
-17 12 5 27.3 19.7
-5 17 5 0.5 14.5
-5 -12 -5 22.9 15.5
12 -17 -5 25.2 13
-12 -5 5 10.7 16.2
-12 17 -5 12.9 13.4
-13 17 5 48.6 14.6
-17 13 -5 25.6 17.5
-13 -4 -5 22.9 11.5
4 -17 -5 23.2 11.6
-4 17 -5 -8.5 15.3
-4 -13 5 13.6 9.5
17 -13 -5 16.1 11.1
-13 17 5 14.1 19.3
13 4 -5 15.2 14
17 -4 5 13.4 9.9
-4 17 -5 26.4 18.5
13 -17 5 27.2 12.6
-4 -13 -5 67.79 17.9
13 -17 -5 57.49 13.6
4 -17 5 40.4 12.9
-17 13 5 87.69 20.8
-13 -4 5 27.7 17.2
4 13 -5 50.49 18
-4 -13 -5 48.9 13.1
-17 13 5 52.39 19.6
3 -17 -5 171.68 23.7
17 -14 -5 170.48 23.6
-14 17 5 171.48 28
-3 -14 5 159.18 27.7
14 3 -5 153.08 25.7
-17 14 -5 173.38 29.6
17 -3 5 180.48 23.6
14 -17 5 197.58 30
-14 -3 -5 197.48 29.6
3 14 -5 287.47 33.4
3 -17 5 204.08 30.2
14 -17 -5 210.68 25.7
-3 -14 -5 210.38 33.8
-3 -14 -5 209.78 26.4
-14 -3 5 179.48 31.3
-17 14 5 195.28 32.8
17 -14 5 278.97 27.5
-15 17 5 74.19 14.2
-2 -15 5 88.29 14.1
17 -15 -5 121.19 21
17 -2 5 147.89 23
2 -17 -5 127.29 20.6
15 -17 5 136.69 24.4
15 2 -5 111.69 21.7
2 15 -5 133.29 27.2
-2 -15 -5 108.39 19.9
15 -17 -5 116.19 15.2
-2 -15 -5 89.89 14
2 -17 5 85.99 14.7
15 2 5 71.69 13.6
-15 -2 5 53.09 18
17 -16 -5 437.86 36.8
16 -17 5 368.76 38.2
-1 -16 5 429.96 39.5
-17 16 -5 416.06 48.4
17 -1 5 470.25 37
1 -17 -5 432.26 36.7
17 -16 5 307.37 31.9
1 16 -5 270.97 32.5
-17 16 5 323.17 38.9
16 -17 -5 273.97 29.6
16 1 5 302.47 29.8
1 -17 5 280.47 33.1
-1 -16 -5 274.97 28.9
-1 -16 -5 366.66 39.1
17 -17 -5 466.65 37.8
0 -17 5 440.86 40.6
17 0 5 479.25 37.9
0 -17 -5 441.16 37.3
-17 17 5 421.56 43.8
17 -17 5 416.56 39
-9 18 5 50.39 20.1
-9 -9 -5 43.6 11.9
-18 9 -5 57.89 20.2
18 -9 -5 39.9 8.3
-9 -9 -5 51.49 14.2
9 9 -5 66.39 17.6
9 -18 -5 70.29 13.4
9 -18 5 27.5 11.9
-18 9 5 45 18.3
-18 10 -5 63.19 18.5
-10 -8 -5 25.7 9.6
-10 -8 -5 30.3 12.1
-10 18 5 38.3 21.2
-8 18 -5 92.59 25
10 -18 5 29 12.6
18 -10 -5 28.5 9.3
-18 8 5 57.09 16.9
-18 10 -5 41.2 18.5
8 -18 -5 50.89 12.7
-8 18 -5 63.39 18
10 8 -5 42.6 16.9
-10 -8 5 28.4 12.3
10 -18 -5 52.89 13.3
-8 -10 -5 45.5 12.1
8 10 -5 60.39 18.5
-18 8 -5 55.49 19.1
10 -18 -5 23.3 13.5
-8 18 5 48.5 20.6
-10 18 -5 73.49 17.5
-18 10 5 40.8 20.6
8 -18 5 30.8 11.9
-18 8 -5 34.8 17.4
-8 -10 -5 38.1 14.9
11 -18 5 165.48 31.6
18 -11 -5 140.59 19.8
11 7 -5 143.59 28.1
7 -18 -5 175.98 23.9
-11 18 5 163.88 33
-11 -7 -5 152.28 27.8
-18 11 -5 156.88 29.6
11 -18 -5 163.38 22
7 11 -5 165.58 29.1
7 -18 5 110.89 15.7
-11 18 -5 166.88 29.7
-7 18 5 80.39 20.5
-18 11 5 131.59 24.6
-11 -7 5 105.49 19.6
-7 -11 -5 138.69 26.8
11 -18 -5 124.19 21.3
-18 7 -5 98.29 19.6
-6 -12 5 21.2 7.2
-6 18 -5 35 17.7
-18 12 -5 40.6 19.2
12 6 -5 20 15.1
18 -12 -5 17.5 10.8
-12 -6 -5 38 12.1
-6 18 -5 62.79 22.8
6 -18 -5 41.8 12.7
-12 18 5 36.8 20
18 -6 5 20.5 9.6
12 -18 5 34.8 12.8
6 -18 5 12.6 11.7
-18 12 5 56.39 18.1
-6 -12 -5 24.8 15.3
-12 18 -5 47.6 17.1
12 -18 -5 37.1 13
12 -18 -5 22.4 8.4
-6 -12 -5 21 11.3
-18 12 5 12.7 18.3
6 12 -5 5.6 16.7
-12 18 -5 37.1 15.3
-12 -6 5 11.8 16.1
13 -18 5 149.99 29.4
-5 -13 5 150.48 26
13 5 -5 166.48 26.6
5 -18 -5 194.98 23.3
-13 -5 -5 180.38 29.3
18 -5 5 182.38 23.4
-5 18 -5 163.28 26.6
-18 13 -5 181.18 29.7
-5 18 -5 160.08 35.3
18 -13 -5 164.48 23.2
5 13 -5 245.08 32.5
-18 13 5 150.28 28.4
-5 18 5 184.58 28.1
-18 13 5 245.38 36.2
-5 -13 -5 201.28 30.3
-5 -13 -5 183.48 26.9
-13 18 -5 138.99 29.6
5 -18 5 168.48 29.6
-13 -5 5 153.98 28.4
13 -18 -5 198.98 25.2
-4 18 -5 308.77 40.5
14 -18 5 351.16 38.4
-14 18 5 385.76 39.1
4 -18 -5 371.86 33.5
-14 -4 -5 436.86 38.6
18 -14 -5 382.06 33.7
14 4 -5 336.67 35.5
18 -4 5 400.76 34.5
-18 14 -5 446.86 45.3
-4 -14 5 368.26 37.1
4 -18 5 259.27 32.9
-4 -14 -5 270.07 28.2
-4 -14 -5 262.77 34.3
-14 -4 5 195.38 30.5
18 -14 5 303.17 30
14 -18 -5 283.97 28.6
-4 -14 -5 240.98 29.9
-18 14 5 325.87 38.7
3 -18 -5 475.45 40.8
18 -3 5 539.95 41.8
15 3 -5 438.06 42.1
15 -18 5 469.95 44.1
-18 15 -5 551.14 50.99
18 -15 -5 518.15 40.9
-3 -15 5 525.75 43.8
-3 -15 -5 391.46 37.6
3 -18 5 491.45 41.7
-3 -15 -5 465.65 44.1
-18 15 5 465.05 46
-3 -15 -5 453.05 37.6
18 -15 5 421.36 38.6
15 -18 -5 448.06 38.2
15 3 5 456.65 37.3
18 -16 -5 60.29 12.6
-16 18 5 33.8 11.3
16 -18 5 60.19 11.5
-2 -16 5 53.09 11.8
2 -18 -5 59.59 12.4
18 -2 5 86.19 13.6
16 2 -5 42 12.8
16 -18 -5 62.29 13
2 -18 5 53.39 12.3
-2 -16 -5 49.6 12
-2 -16 -5 85.59 18.2
16 2 5 44 12.5
-18 17 -5 50.09 17.3
1 -18 -5 36.1 11.2
-1 -17 5 20.9 10.6
18 -1 5 21.3 11.7
18 -17 -5 31.6 11.8
17 1 -5 15 7.3
-1 -17 -5 47.3 17.1
17 1 5 33.2 12.4
17 -18 -5 33.9 11.7
1 17 -5 48.3 13.7
1 -18 5 18.9 10.6
-18 17 5 64.99 19.1
-1 -17 -5 30 10.8
18 -18 5 198.88 19
18 -18 -5 196.38 23.3
18 0 5 192.58 24.1
0 -18 -5 161.18 21.5
-18 18 5 172.48 29
0 -18 -5 222.68 32.9
0 -18 5 150.68 26.1
10 9 -5 7.9 15.3
-19 9 5 41.1 17.3
-19 10 -5 11.2 12.9
19 -9 5 37.6 15
-19 10 -5 40.3 18.3
-9 19 -5 58.49 20
9 -19 5 17.7 11
9 10 -5 22.5 16.4
-19 10 5 39.1 17.7
-9 -10 -5 17.5 14.2
19 -9 -5 15.6 9.5
-10 19 -5 50.49 19.7
-19 9 -5 22.3 17.6
-19 9 -5 1.4 10.1
10 -19 -5 20.5 12.3
-9 -10 -5 19.9 11.3
19 -8 5 153.08 18.8
8 -19 -5 190.38 22.8
-11 -8 -5 199.78 28.8
-19 8 5 132.89 28.8
-19 11 -5 122.99 25.8
19 -11 -5 160.88 21.2
11 8 -5 159.58 28.1
11 -19 5 178.88 28.5
-8 -11 -5 158.58 27.7
19 -8 -5 119.29 17
-19 8 -5 118.19 21.2
-8 -11 -5 132.79 27.2
8 11 -5 163.38 29.1
8 -19 5 138.99 27.7
-11 19 -5 178.48 27
11 -19 -5 164.58 23
12 -19 5 132.99 27.3
-7 19 -5 120.79 24.1
19 -12 -5 135.79 19.6
19 -7 5 142.19 21
12 7 -5 123.19 25
-12 -7 -5 137.09 26.6
7 -19 -5 139.79 22.3
-7 19 -5 183.88 32.3
-7 -12 5 94.19 17.2
7 12 -5 113.39 18.7
12 -19 -5 86.49 14.1
7 -19 5 69.39 13.8
-7 -12 -5 94.09 17.7
-12 19 -5 148.29 31.1
-7 -12 -5 128.79 27.1
-6 19 -5 30.7 15.8
19 -13 -5 21.4 11.5
-19 13 -5 5.9 12.6
-6 19 -5 11.6 12.1
19 -6 5 8.4 12.5
6 -19 -5 10.6 10.9
6 13 5 -4.5 11.1
13 6 -5 2.4 13.8
13 -19 5 12.8 11.6
-13 -6 -5 16.9 10.6
-6 -13 5 7 9.7
6 -19 -5 32 11.8
6 13 -5 42 16.9
-6 -13 -5 27.1 11.8
13 -19 -5 45.2 12.6
-19 13 5 64.89 18.5
-6 -13 -5 38.8 15.2
-13 19 -5 41.9 15.4
5 -19 -5 64.69 16.8
19 -5 5 51.29 13.1
14 5 -5 36.6 14.5
-14 -5 -5 50.39 12
5 14 5 36.5 13.7
-5 -14 5 31.6 11.5
14 -19 5 28.8 11
-5 19 -5 51.69 17.1
19 -14 -5 53.99 12.5
5 -19 -5 56.49 12.6
14 -19 -5 35.1 11.6
-5 -14 -5 21.8 11
-14 19 -5 18.3 12.7
5 -19 5 17.4 11.3
-5 19 5 25.9 12.9
-5 -14 -5 29.6 15.2
5 14 -5 58.59 17
19 -15 -5 14.5 11.3
4 -19 -5 43.5 11.9
19 -4 5 22.1 12.2
-4 19 -5 35.1 15.5
-4 -15 5 18 11
15 -19 5 18 10.3
15 4 -5 21.6 13.8
15 -19 -5 35.7 11.8
15 4 5 33.8 12.2
4 -19 5 17.6 11
-4 -15 -5 23.9 10.2
-4 -15 -5 43.6 16.1
4 15 -5 59.59 16.6
16 3 -5 308.47 32.8
19 -16 -5 385.96 32.2
-19 16 -5 430.86 43.3
16 -19 5 348.27 34.9
-3 -16 5 365.36 35.6
3 -19 -5 363.56 31.9
19 -3 5 391.36 32.5
3 -19 5 269.57 30.8
-19 16 5 317.77 36.6
16 -19 -5 271.37 26.6
19 -16 5 246.98 23.3
-3 -16 -5 227.68 26.5
16 3 5 284.77 26.9
-3 -16 -5 270.87 32.1
2 -19 -5 161.28 22.5
17 -19 5 197.08 21.2
-2 -17 5 157.88 26.2
19 -2 5 181.38 23.6
-19 17 -5 235.88 33.1
19 -17 -5 187.08 22.4
-2 -17 -5 167.38 21.2
17 2 5 191.68 22.7
2 -19 5 167.98 25.4
19 -17 5 133.59 15.7
17 -19 -5 176.88 22
-2 -17 -5 218.38 29.4
19 -1 5 24.4 10.9
-19 18 -5 26.4 15.8
1 -19 -5 43.5 16.2
1 -19 -5 20.9 9.6
-1 -18 5 13.8 9.1
19 -18 -5 22.1 10.8
-1 -18 -5 41.1 15.2
-19 18 5 54.29 17.1
18 -19 -5 26.3 10.7
1 -19 5 16.1 9.6
18 1 5 26.2 11.5
1 18 -5 34.1 11.1
-1 -18 -5 30.6 10
0 -19 -5 4.6 8.7
0 -19 -5 16.6 14.4
0 -19 5 4.6 8.5
19 -19 -5 11.1 9.7
19 0 5 5.8 10
-10 -10 -5 161.48 24.6
-20 10 -5 211.18 35.3
-10 -10 -5 185.18 27.8
-20 10 5 207.78 31.2
10 -20 -5 197.08 23.3
10 -20 5 165.78 28.1
20 -10 -5 164.88 21.3
10 10 -5 184.88 28
9 -20 -5 124.99 20.5
11 -20 5 107.39 15.1
-20 9 5 123.29 28.8
-11 -9 -5 140.29 25.7
20 -9 5 118.39 16.5
11 9 -5 123.59 24.9
20 -11 -5 103.09 19
-20 9 -5 136.89 31.6
20 -9 -5 94.69 17.3
9 11 -5 123.49 25.4
9 -20 5 120.49 24.7
11 -20 -5 123.79 20.4
-9 -11 -5 77.99 16.1
-9 -11 -5 91.49 14
-20 8 5 29.2 14.7
12 8 -5 39.1 14.8
12 -20 5 32.4 11.4
-12 -8 -5 45.7 10.9
8 -20 -5 55.89 12.1
20 -12 -5 20.7 10.4
20 -8 5 50.29 13.9
20 -8 5 24.7 10.7
-8 -12 -5 27.5 14.5
20 -8 -5 17.3 8.5
12 -20 -5 48.3 11.9
8 12 -5 38.4 14.9
-8 -12 -5 24.5 11.4
-20 8 -5 12.4 14.2
8 -20 5 27.5 11.4
13 7 -5 230.98 28.7
-13 20 5 270.37 31.5
20 -13 -5 235.38 25.2
13 -20 5 241.08 28.5
7 -20 -5 222.68 25
-7 -13 5 195.58 24.6
-7 20 -5 306.57 38.1
20 -7 5 239.78 26.8
-13 -7 -5 256.97 29.2
7 13 -5 196.78 29.9
-7 20 5 237.98 29.7
-7 -13 -5 205.68 29.8
20 -13 5 262.57 21.7
13 -20 -5 190.38 24.5
-20 13 5 221.78 32.2
-13 20 -5 247.18 33.7
-7 -13 -5 173.98 28.4
7 -20 5 192.28 28.2
6 -20 -5 11.8 11.3
14 6 -5 7.6 12.9
-6 -14 5 4.6 9.4
-6 20 -5 34.5 15.5
-14 -6 -5 16.9 10.2
6 14 5 -7.6 11.3
20 -14 -5 5.3 10.9
20 -6 5 6.6 12.3
14 -20 5 5 9.1
6 -20 -5 21.5 10.4
6 14 -5 12.6 14.1
6 -20 5 3 10.2
-6 -14 -5 10.8 10.3
-20 14 5 45.5 18.5
-6 20 5 24.6 13.3
14 -20 -5 2.6 10.5
-14 20 -5 16.6 13.8
-6 -14 -5 10.4 13.6
15 5 -5 265.97 28.4
5 -20 -5 261.47 26.6
-15 20 5 298.17 32.2
-5 20 -5 280.77 35.9
5 -20 -5 339.17 34.5
20 -5 5 305.87 28.8
-5 -15 5 270.77 29.9
5 15 5 236.08 28.6
20 -15 -5 287.47 27.1
15 -20 5 249.38 29.1
-20 15 5 332.07 38.1
5 15 -5 368.36 34.2
15 -20 -5 299.17 28.5
5 -20 5 302.97 32.5
15 5 5 313.97 29
-5 -15 -5 283.57 31.7
-5 -15 -5 280.77 33.2
4 16 5 445.76 38.5
-20 16 -5 506.35 45.3
-4 20 -5 373.56 41.9
16 -20 5 404.86 37
4 -20 -5 440.86 36.6
-4 -16 5 457.75 39.5
16 4 -5 419.76 37.6
20 -4 5 536.45 37.6
20 -16 -5 491.25 36.9
16 4 5 494.55 38
4 -20 5 475.35 40.4
-4 -16 -5 437.26 39.2
16 -20 -5 470.95 37.7
-4 -16 -5 462.35 41.8
-20 16 5 440.76 44.2
3 -20 -5 78.19 12.7
3 17 5 94.79 20.4
17 -20 5 99.29 13
3 -20 -5 157.08 29.1
20 -17 -5 98.89 13.3
-3 -17 -5 78.89 15.7
17 3 5 62.39 12.3
-20 17 5 114.39 27.3
3 -20 5 65.69 11.9
17 -20 -5 90.39 12.2
-20 18 -5 227.98 30.9
2 -20 -5 184.18 21.7
20 -2 5 204.88 22.9
2 18 5 216.28 24
-2 -18 5 196.78 23.8
20 -18 -5 218.98 21.7
18 -20 -5 223.18 22.5
2 -20 5 224.18 25.6
-2 -18 -5 229.58 28.7
2 18 -5 236.58 24.3
-20 18 5 209.48 28
18 2 5 214.28 23
20 -19 -5 168.38 18.8
-1 -19 5 142.59 22.3
1 -20 -5 196.18 26.4
1 19 5 180.78 22
20 -1 5 147.19 19.5
1 -20 -5 128.59 18
-1 -19 -5 133.79 24
19 1 5 121.59 18.2
1 -20 5 108.89 20.7
19 -20 -5 137.39 17.9
0 -20 5 -6.3 7.6
0 -20 -5 10.8 12.4
0 20 5 11 10.3
20 0 5 0.2 8.4
20 -20 -5 7.3 8.2
11 -21 5 228.38 27.5
-21 10 5 237.48 32
10 -21 -5 220.08 23.5
-21 11 -5 259.37 34.2
-11 -10 -5 235.78 27.8
-11 21 5 259.17 29
11 10 -5 211.08 27.1
21 -10 5 186.58 21.4
21 -11 -5 187.48 22
-10 -11 -5 189.38 24
-10 21 5 251.87 27.7
21 -10 -5 188.08 22.4
10 -21 5 238.18 28.6
-21 10 -5 231.08 33.9
-21 11 5 271.27 34.1
11 -21 -5 246.58 24.4
-10 -11 -5 260.47 29.1
10 11 -5 256.07 27.9
12 9 -5 383.16 34.6
-21 12 -5 388.66 41.3
12 -21 5 415.96 35.6
-9 21 -5 440.86 40.3
21 -9 5 346.17 31
21 -12 -5 340.67 31.8
9 -21 -5 391.16 32.7
-12 -9 -5 403.96 34.9
-12 21 5 357.86 35.2
-9 -12 -5 387.36 35.1
12 -21 -5 363.86 31
-9 -12 -5 295.67 32.6
9 -21 5 384.26 34.2
21 -9 -5 299.27 28.7
9 12 -5 368.56 34
-9 21 5 339.97 33.4
-12 21 -5 391.86 37.5
-21 12 5 368.46 39.2
21 -8 5 -2 9.5
-21 13 -5 37.9 16.2
-13 -8 -5 0 9
13 -21 5 4.2 8.7
21 -13 -5 0.6 9.6
8 -21 -5 -3.5 9.3
13 8 -5 1.5 12
-8 21 5 36.1 13
8 13 -5 15.7 12.6
-13 21 -5 40.3 15.3
-21 13 5 38 17.9
21 -14 -5 77.89 12.3
21 -7 5 48.7 12.2
7 -21 -5 93.89 12.4
-14 -7 -5 71.69 11.8
14 7 -5 81.59 14.8
14 -21 -5 35.2 10.6
-7 -14 -5 28.4 10.9
7 -21 5 26.8 10.5
-7 -14 -5 30.6 13.3
14 7 5 41.4 10.8
-21 14 5 61.59 17.5
-7 21 5 46.4 13.3
-14 21 -5 53.29 15.4
7 14 -5 46 13.5
6 -21 -5 83.79 17.6
21 -6 5 106.99 14.4
-15 21 5 144.89 22.1
15 -21 5 116.79 18.1
15 6 -5 96.39 21.5
21 -15 -5 106.29 18.4
6 -21 -5 116.99 13.6
-6 -15 5 96.69 20
15 -21 -5 68.49 11.3
-6 -15 -5 44.1 10.7
6 -21 5 57.59 11.2
-15 21 -5 53.69 13
15 6 5 71.29 11.3
-6 -15 -5 49.9 13.5
5 -21 -5 29 11.9
-16 21 5 33.3 11.6
16 5 -5 14.5 11
-5 21 -5 37.8 14
21 -5 5 14.4 11
21 -16 -5 27 10.2
5 -21 -5 25.6 10
-5 -16 5 12.8 8.6
5 16 5 16.6 10.5
16 -21 -5 13.5 9.1
-5 -16 -5 4 7.7
-21 16 5 38.3 16.1
5 -21 5 4 9.1
-5 -16 -5 9.3 11.8
5 16 -5 32.5 12.3
16 5 5 21 10.5
4 17 5 160.58 22.6
4 -21 -5 168.18 20.7
-21 17 -5 210.38 28.4
21 -17 -5 197.38 21
-4 -17 5 168.38 23.2
4 -21 -5 222.38 26.1
21 -4 5 194.48 22
-21 17 5 173.68 26.8
4 -21 5 131.19 22.1
17 -21 -5 153.48 19.3
17 4 5 157.58 19.4
-4 -17 -5 170.58 23.4
21 -18 -5 55.89 9.9
-3 -18 5 36.6 8.8
3 -21 -5 48.7 9.6
3 -21 -5 58.19 13.8
21 -3 5 32.9 10.4
3 18 5 37 11.1
18 -21 -5 60.69 10.4
-3 -18 -5 78.09 13.6
3 -21 5 51.19 10.4
3 18 -5 98.89 16.2
18 3 5 62.99 11.2
-21 18 5 78.09 16
-2 -19 5 -2.7 7.3
21 -19 -5 8.8 8.3
2 -21 -5 12.9 12
21 -2 5 2.3 8.1
2 19 5 9.8 9.7
2 -21 -5 -1 7.9
-2 -19 -5 7.2 11.1
-2 21 5 18.4 10.5
2 19 -5 3.2 4.1
2 -21 5 1.2 7.5
19 2 5 -9.3 8
19 -21 -5 6.3 8.1
21 -1 5 32 7.2
21 -20 -5 42 8.3
-1 -20 5 38.5 7.9
1 -21 -5 76.09 17.1
1 20 5 48.1 10.3
20 1 5 65.89 11.5
-1 -20 -5 54.69 11.4
-1 21 5 82.99 16
1 -21 5 41.8 8.2
11 -22 5 465.65 37.4
-22 11 -5 410.86 40.5
-11 22 -5 519.15 42.1
22 -11 -5 354.36 32.7
-22 11 5 399.56 40
11 -22 -5 443.86 34
-11 -11 -5 454.05 37
11 11 -5 464.65 36.4
-11 22 5 375.66 36.1
-22 12 -5 28 14.6
-12 22 5 31.6 11.7
-12 -10 -5 8.6 8.7
22 -12 -5 6.5 7.8
-22 10 5 11.2 12.9
12 10 -5 17.2 11.3
10 -22 -5 13.1 9
10 12 -5 21.4 11.6
12 -22 -5 20.1 9.3
10 -22 5 15.5 9.2
-10 22 5 38.2 12.4
-22 12 5 37.7 16
13 -22 5 135.09 19
-13 -9 -5 142.29 21.2
13 9 -5 120.49 19.7
22 -13 -5 107.69 15.9
9 -22 -5 137.89 17.6
-9 22 5 142.49 21.2
-22 13 5 140.19 24.8
13 -22 -5 134.39 17.9
-9 -13 -5 103.19 17.5
-9 -13 -5 136.59 22.8
9 13 -5 126.79 21.1
9 -22 5 105.69 22.2
14 8 -5 115.79 19.4
22 -8 5 86.19 13.3
22 -14 -5 123.99 16.1
14 -22 5 116.99 15.8
-14 22 5 155.28 21.1
8 -22 -5 114.29 17.5
14 -22 -5 75.09 11.1
14 8 5 93.59 16.3
-8 -14 -5 60.49 11.2
8 -22 5 99.59 20.8
-8 -14 -5 77.99 18
-8 22 5 100.99 21.4
15 7 -5 10 11
15 -22 5 11.9 3.8
7 -22 -5 10.3 8.9
22 -15 -5 11.5 8.9
-15 22 5 30.2 11.3
22 -7 5 4.1 7.1
-22 15 -5 41.1 15
7 15 -5 21.2 11
-7 -15 -5 2 9.9
-7 -15 -5 1.2 8.6
15 -22 -5 6.9 8.8
-15 22 -5 15.1 11.9
15 7 5 5.8 8.8
-7 22 5 -12 8.2
-22 15 5 27.9 14.8
7 -22 5 -6.3 8.1
6 -22 -5 177.68 18.8
-6 22 -5 181.58 23.7
-16 22 5 140.09 20.7
22 -6 5 154.18 15.4
22 -16 -5 176.98 18.4
-6 -16 5 126.29 16.2
16 6 -5 139.69 16.8
-6 -16 -5 187.48 20.7
16 -22 -5 221.88 20.4
6 -22 5 205.08 23.9
-6 -16 -5 175.08 22.9
6 16 -5 257.07 23.2
16 6 5 209.58 20.9
-22 16 5 202.18 26.5
22 -5 5 36.7 7.1
-5 -17 5 24.4 6.2
5 -22 -5 12 6.2
5 -22 -5 38.8 9
5 17 5 19.1 8.1
-5 -17 -5 53.29 11.7
5 -22 5 61.69 10
-22 17 5 89.99 21
17 -22 -5 58.69 9.9
17 5 5 76.69 10.5
4 -22 -5 -2.7 7.7
4 -22 -5 6.5 7.2
-22 18 -5 15.1 12.1
22 -4 5 5.5 5
22 -18 -5 15.6 7.6
-4 -18 5 1.6 5.4
4 18 5 0.5 7.8
-22 18 5 27.4 13.1
4 18 -5 28.6 8.8
18 -22 -5 19 8
-4 -18 -5 21 10.2
4 -22 5 8.4 7.6
18 4 5 10.9 8.6
3 -22 -5 120.09 14.2
22 -19 -5 123.59 12.8
3 19 5 99.69 13.7
3 -22 -5 95.39 13
-3 -19 5 100.99 12.8
-3 -19 -5 75.09 15.3
3 -22 5 49 8.3
19 3 5 50.69 8.2
12 -23 5 194.68 19.3
11 -23 -5 187.28 18.4
-23 12 -5 188.38 25.4
-12 -11 -5 199.68 22.6
-12 23 5 175.98 22
12 11 -5 173.28 20.7
12 -23 -5 226.18 20.2
-23 11 -5 173.78 25.3
11 12 -5 212.78 22.2
-11 23 5 209.98 24.4
11 -23 5 243.48 22.5
-23 12 5 184.58 24.9
-11 -12 -5 252.17 24
-13 23 5 156.78 20.2
13 10 -5 166.78 19.1
-23 13 -5 184.68 25.1
-13 -10 -5 186.28 20
10 -23 -5 160.08 16.9
23 -13 -5 117.19 13.9
13 -23 5 120.39 14.5
13 -23 -5 169.98 17.3
-10 -13 -5 164.98 20.5
10 13 -5 166.38 19.3
-23 13 5 157.58 24.9
13 10 5 156.38 17.2
10 -23 5 162.28 20.2
-10 23 5 130.49 19.6
9 -23 -5 40.3 9.2
14 -23 5 29.2 6.4
14 9 -5 45.1 10.7
23 -14 -5 30.4 7.2
-9 -14 -5 42.9 8.9
-9 23 5 39 10.6
14 -23 -5 52.09 9
9 -23 5 44.2 8.8
14 9 5 47 9.3
-23 14 5 65.69 14.9
9 14 -5 71.79 15.1
-23 15 -5 220.88 26.2
15 8 -5 153.28 17.5
23 -15 -5 165.88 16.6
-15 23 5 175.38 21.1
8 -23 -5 191.68 18.3
-15 23 -5 149.99 23.8
15 -23 -5 164.08 17.2
8 -23 5 155.18 19.3
8 15 -5 169.78 19
15 8 5 156.08 17.4
-8 -15 -5 160.18 19.5
-23 15 5 129.79 22.6
-7 23 -5 51.09 10.1
23 -16 -5 42.3 7.3
-16 23 5 35.2 9.8
7 -23 -5 63.59 9.2
-7 -16 -5 17.5 5
7 -23 5 32.1 7.6
-7 -16 -5 19.5 6.1
16 7 5 33.3 8.5
6 -23 -5 62.79 9.2
-23 17 -5 82.09 20.7
23 -17 -5 43.6 6.9
-23 17 5 61.49 13.4
6 -23 5 38.3 8.1
17 -23 -5 54.89 8
17 6 5 39.9 8.7
-6 -17 -5 47.4 10
-12 -12 -5 281.67 23.6
12 -24 -5 251.87 21.7
-12 24 -5 309.37 27.5
12 12 5 243.68 21.6
12 12 -5 245.88 22.9
-24 13 -5 26.7 10.5
13 11 -5 50.89 11.1
-13 24 5 49.4 9.9
11 -24 -5 36.1 7.4
-11 -13 -5 31.2 6.7
11 13 -5 30.6 8.3
13 -24 -5 25.4 7
-11 24 5 13.6 8.5
13 11 5 38.8 7.4
-10 24 -5 185.48 21.1
-14 24 5 113.99 17.8
10 -24 -5 143.49 14.3
-24 14 -5 150.28 21.3
10 14 -5 172.78 17.3
14 10 5 154.48 15.8
-14 24 -5 183.68 21.3
-10 -14 -5 163.28 16.7
14 -24 -5 168.28 15.9
-1 1 -6 1284.97 94.29
0 -1 6 1394.76 95.19
0 1 -6 1092.69 93.89
1 0 -6 1457.95 97.89
1 0 -6 1418.06 95.39
0 1 -6 1406.26 95.09
0 -1 -6 1208.18 94.69
-1 1 -6 1210.88 94.59
0 1 -6 1452.05 97.99
1 -1 6 1385.16 95.19
1 -1 -6 1391.26 95.09
-1 -1 6 941.11 66.19
2 -1 -6 872.51 68.69
1 1 -6 960.5 70.19
1 1 -6 938.21 66.39
1 1 6 843.82 67.19
1 -2 6 929.81 66.39
2 -1 -6 978.5 66.69
-1 2 -6 918.81 66.09
1 -2 -6 925.01 66.39
-1 2 -6 890.31 66.09
1 1 6 863.01 64.79
2 -1 6 912.21 66.29
0 -2 -6 550.64 46.8
-2 2 -6 581.14 47.1
0 2 -6 649.83 47.7
0 -2 6 702.93 47.8
0 2 -6 567.74 47.1
-2 0 6 560.74 46.8
-2 2 -6 704.93 47.7
0 2 -6 664.03 51.39
2 0 -6 711.03 48
2 0 6 638.04 49
2 -2 -6 711.23 50.19
2 0 -6 699.53 52.09
0 2 6 576.94 45.6
2 -2 6 663.13 47.6
3 -2 -6 43.1 13.5
1 2 6 29.6 5.7
-1 3 -6 44.4 10.2
-2 3 6 38.6 8.6
1 2 6 41.7 7.9
-1 3 -6 55.89 11.2
-3 2 -6 48.5 10.1
-3 1 6 45.8 9.8
1 2 6 38 12.1
-1 3 -6 49.7 15.2
-3 2 -6 43.7 10.4
3 -1 6 43.1 12.3
-1 -2 6 48.6 9.7
2 1 -6 53.69 15.5
2 1 -6 42.3 10.5
2 -3 6 44.3 10.4
3 -2 -6 40.7 11.3
3 -2 6 90.79 15.4
1 -3 6 88.39 13.3
2 1 6 75.29 11.3
1 2 -6 114.09 19.9
2 1 6 78.89 15.5
3 -1 -6 109.09 19.1
-2 -1 6 91.09 12.8
1 2 -6 100.79 14.1
-2 3 -6 92.69 13.5
-2 3 -6 82.19 12.9
-3 2 6 94.49 11.9
3 -2 6 85.79 13.4
-1 3 6 69.89 8.8
1 2 -6 68.39 11.6
3 -1 -6 83.09 14
0 3 6 2932.71 207.38
0 3 -6 2976.4 209.68
0 3 -6 2980 206.78
3 0 6 2814.62 207.88
-3 0 6 2736.23 206.38
3 0 -6 3097.69 206.88
-3 0 6 2562.24 205.98
3 -3 -6 3043 208.58
-3 3 -6 3045.9 206.98
-3 3 6 3052.49 206.38
3 -3 6 3081.49 206.98
-3 3 -6 2936.31 206.88
0 -3 6 3073.69 206.78
0 3 -6 2821.52 206.98
3 0 -6 3155.48 210.08
-4 2 6 169.88 16.8
2 -4 6 185.48 19.1
-2 4 6 171.98 15.9
-2 4 -6 168.88 18.2
2 2 -6 186.98 19.4
-4 2 -6 177.58 17.7
2 2 6 129.89 14
4 -2 6 159.78 21.2
-2 -2 6 167.48 17.8
4 -2 -6 183.48 24.8
2 2 6 151.58 15.9
2 2 6 165.88 21
4 -2 -6 161.58 18.9
-2 4 -6 194.28 19.6
2 2 -6 188.58 24.8
-2 4 6 150.48 14.4
-1 4 -6 274.67 25.7
3 1 -6 324.47 26.3
-4 1 6 307.77 24.3
-1 4 -6 326.77 32.7
-1 4 -6 308.17 26.8
-3 4 6 304.07 24.3
1 3 6 247.98 22.9
3 -4 6 318.37 26.5
4 -1 6 312.87 29.2
-4 3 -6 298.87 25.7
-1 -3 6 321.17 25.6
3 1 -6 318.27 30.8
4 -3 -6 318.57 29.6
1 3 6 263.17 26.1
-4 3 -6 332.47 26.5
-4 1 6 235.98 23.7
1 3 6 246.38 22.9
-3 4 -6 388.56 30.8
-4 1 -6 377.56 30.4
4 -1 -6 398.46 30.8
-3 4 -6 389.06 30.8
-3 -1 6 386.76 30.5
1 3 -6 389.76 36
1 -4 6 404.16 30.7
3 1 6 355.96 32.6
-4 3 6 372.46 29.9
-1 4 6 313.97 28.4
-1 4 6 344.97 30.7
3 1 6 350.16 29.6
-3 4 -6 414.66 32.4
4 -3 6 422.46 33.9
1 3 -6 346.47 30.7
4 -1 -6 424.86 37
4 -4 6 144.39 16.8
0 4 -6 137.69 18
-4 0 6 136.69 15.7
-4 0 -6 127.79 15.1
-4 4 -6 151.18 16.2
4 0 6 126.49 21.2
-4 4 -6 155.48 18.6
0 4 6 123.09 16.5
0 4 6 128.19 13.6
4 -4 6 150.58 20.7
4 0 -6 158.48 24.6
0 4 -6 149.49 23.3
4 0 -6 123.09 15.4
4 -4 -6 107.59 17
-4 0 6 120.39 14.4
4 0 6 132.19 15.5
0 4 -6 127.89 17.3
0 -4 6 139.99 16.5
-4 4 6 128.79 15
-4 4 -6 146.29 17
5 -2 6 483.85 39.9
-2 -3 6 469.55 36.4
2 3 6 521.55 39.4
2 3 6 385.26 34.7
-5 3 -6 465.75 37
-2 5 -6 473.45 37.1
-2 5 -6 468.25 37.7
-3 5 6 481.05 36
-3 5 6 398.96 34.1
-5 2 6 504.35 36
3 2 -6 438.26 36.1
3 2 -6 440.16 41
5 -3 -6 489.95 41.2
3 -5 6 490.25 36.7
2 3 -6 377.96 36.3
-2 5 6 332.97 28.5
5 -3 6 380.86 34.1
3 2 6 361.16 33.1
5 -2 -6 424.86 37
-2 5 6 327.97 28.7
-5 3 6 416.06 30
-5 2 -6 368.46 30.8
2 3 -6 354.76 30.6
3 2 6 373.56 29.6
2 -5 6 398.76 30.6
-3 -2 6 412.26 30.6
-3 5 -6 342.07 30.1
-3 5 -6 411.36 32.7
-3 5 -6 357.46 31.4
-5 1 6 610.64 43.3
-5 1 6 543.75 43.1
4 1 -6 566.84 48.9
-5 4 -6 601.84 44.6
1 4 6 496.05 44.8
5 -1 6 658.33 49
4 -5 6 589.04 44.2
-5 4 -6 613.84 45
4 1 -6 510.45 43.1
-1 5 -6 630.04 50.29
-4 5 6 575.54 43.2
-1 5 -6 596.74 45.7
1 4 6 495.25 42.1
-1 -4 6 592.64 44
-1 5 -6 603.14 45.4
-1 5 6 526.35 44.3
5 -1 -6 590.54 51.49
1 4 -6 583.14 51.19
4 1 6 569.74 48.6
-5 4 6 646.64 45.6
1 -5 6 660.33 46.3
4 1 6 583.54 45.5
5 -1 -6 588.74 46
-5 1 -6 595.44 46.1
5 -4 6 707.83 50.69
1 4 -6 578.44 46.2
-4 -1 6 650.53 46
-4 5 -6 588.34 46.5
-4 5 -6 629.84 47.4
-4 5 -6 631.34 47.9
5 0 -6 1407.46 104.19
-5 0 -6 1294.77 99.49
-5 5 6 1437.56 99.39
-5 5 -6 1478.35 100.89
-5 0 6 1384.36 99.59
-5 5 -6 1390.46 100.69
0 5 -6 1321.47 100.09
0 5 -6 1446.46 104.69
0 -5 6 1493.95 99.89
5 0 6 1489.15 103.29
-5 5 -6 1492.15 100.49
5 0 6 1250.67 99.19
-5 0 6 1214.48 98.89
5 -5 6 1471.35 100.29
-3 6 -6 232.58 24.1
-3 6 -6 239.58 23.6
3 3 6 182.98 19.8
-3 6 6 215.38 20.1
3 3 6 219.18 24.8
6 -3 -6 198.98 26.5
-3 -3 6 242.98 22.2
3 3 -6 244.18 28.6
-6 3 6 260.17 21.5
6 -3 6 254.57 28
-6 3 -6 265.97 23.6
3 3 -6 240.48 21.8
3 -6 6 234.58 22.8
-6 2 6 222.18 19.4
-6 4 -6 199.08 21.8
-4 6 6 203.78 18.8
2 4 6 149.49 20
4 2 -6 222.78 28.7
-6 2 6 157.38 17.1
4 2 -6 195.18 19.1
-6 4 -6 213.78 21.8
4 -6 6 214.68 20.1
-2 6 -6 190.38 22.4
-2 -4 6 218.48 20.3
-2 6 -6 199.08 23.4
6 -2 6 183.88 25.7
2 -6 6 79.09 13.8
-6 4 6 93.49 13.6
2 4 -6 78.99 16.4
6 -4 6 87.09 18.6
6 -2 -6 65.39 16.6
-4 -2 6 80.89 13.9
-2 6 6 65.99 10.8
2 4 -6 64.39 18.5
4 2 6 67.79 15
-4 6 -6 75.59 17
4 2 6 84.19 12.7
-4 6 -6 80.19 14
-6 2 -6 76.39 14.8
-4 6 -6 61.49 14.7
-6 5 -6 177.38 21.1
-5 -1 -6 159.78 16.7
-6 1 6 195.98 18.9
-1 6 -6 163.78 24.7
-1 -5 6 177.98 19
-6 1 6 171.58 18.3
6 -1 6 200.28 27.3
-1 6 -6 131.89 20.4
-1 6 -6 171.98 21.1
5 1 -6 168.58 25.5
5 -6 6 165.68 21.2
6 -1 6 176.38 19.1
-5 6 6 207.88 18.5
5 -6 6 197.08 19.6
-6 5 -6 185.28 21.2
6 -1 -6 176.98 26
-5 6 -6 238.58 23.6
-5 -1 6 243.58 22.8
1 5 -6 198.78 28.4
1 5 -6 185.28 22
-6 1 -6 212.58 21.5
-5 6 -6 206.48 22.6
6 -5 6 207.08 26.3
-6 5 6 238.18 20.6
1 -6 6 223.78 21.1
-5 6 -6 221.88 22.6
5 1 6 244.38 26.9
5 1 6 204.18 20.6
-6 6 -6 14.8 12
0 6 -6 5 12.2
-6 6 -6 4.5 13.2
0 6 -6 -6.9 10.5
-6 6 6 22.8 9.5
-6 6 6 -2.8 4.9
-6 0 6 14.6 9.5
0 6 -6 4.2 14.2
6 -6 6 3 10.7
-6 6 -6 5.6 11
-6 0 6 1.2 7.4
6 0 6 3.1 13
0 -6 6 12.4 9.3
6 0 6 -5 9.5
0 6 6 3.7 6.6
6 -6 6 12.2 10.4
-6 0 -6 18.4 9.4
6 0 -6 8.4 14.1
6 0 -6 -7.1 4.7
4 -7 6 654.43 46.2
-7 3 6 660.33 45.8
4 3 -6 538.15 50.79
7 -3 6 632.14 50.59
-7 4 -6 631.34 47.9
4 3 -6 498.45 44.8
-3 -4 6 643.84 46.2
-4 7 6 598.34 45.1
-3 7 -6 568.74 47.9
7 -4 6 591.54 46.4
3 -7 6 544.85 40.9
3 4 -6 527.15 41
-7 4 6 558.04 40.2
-4 -3 6 596.54 40.8
-4 7 -6 405.46 40.9
-4 7 -6 538.55 42.7
-7 3 -6 535.35 42
3 4 -6 443.66 45.4
-4 7 -6 438.46 39.6
-2 7 -6 -2.5 12.2
-7 2 6 15.7 9.5
2 5 6 3.6 7.3
-7 5 -6 -0.6 9.9
2 5 6 2.6 5.7
-2 -5 6 11.2 9.5
5 2 -6 6.8 14.3
5 -7 6 12.9 9.2
5 2 -6 3.9 5.7
7 -2 6 12.9 15.1
-7 5 -6 6.2 12.3
-2 7 -6 -1.7 10.3
-7 2 6 6.4 7.7
-2 7 -6 5.6 13.8
-5 7 6 14.4 9.1
5 -7 6 -8.9 9.4
-5 7 6 -1.4 5.2
7 -5 6 40 15
5 2 6 26.9 8.9
-5 7 -6 27 12.2
2 5 -6 29.2 15.7
2 -7 6 40.9 10.6
-5 -2 6 49.2 11.2
-5 7 -6 34.6 14
-7 5 6 55.69 11.1
2 5 -6 32.7 12.6
5 2 6 30.2 12.3
-5 7 -6 39.1 12.2
-7 2 -6 50.19 12.7
-6 -1 -6 905.51 65.49
6 1 -6 814.32 70.59
7 -1 6 986.8 66.29
-7 6 -6 946.71 67.29
-7 6 -6 834.92 65.59
-6 -1 6 1390.46 96.99
1 6 -6 1276.17 97.79
-7 6 6 1393.26 96.89
-6 7 -6 1448.96 99.19
1 -7 6 1400.56 97.09
-6 7 -6 1255.07 97.89
-7 1 -6 1282.87 97.19
7 0 6 707.63 57.79
-7 0 6 740.63 53.39
4 4 -6 457.25 44.4
4 4 -6 551.84 39.4
-4 8 6 507.15 38.5
-5 8 6 623.64 50.59
-3 8 -6 665.33 53.99
5 -8 6 613.94 50.89
-3 -5 6 741.73 51.69
-8 5 -6 717.23 54.29
-8 3 6 739.13 51.39
3 5 -6 690.63 55.39
-5 8 -6 640.84 55.19
-3 8 6 784.42 57.09
-8 3 -6 786.32 57.99
-5 -3 6 793.42 55.79
3 -8 6 680.33 54.99
-5 8 -6 770.02 58.99
-8 5 6 776.42 55.29
-8 2 6 88.39 14.8
6 -8 6 81.09 13.8
-6 8 6 91.69 14.4
-2 -6 6 103.89 17.3
-8 6 -6 108.19 19.6
-8 2 6 86.09 14.9
-2 8 -6 89.19 18.4
-6 -2 6 74.49 13.1
-8 6 6 86.89 14.7
-6 8 -6 67.09 16.8
-2 8 6 80.19 17
-6 8 -6 53.39 15
2 -8 6 75.59 15.1
-8 2 -6 77.39 15.9
2 6 -6 68.89 15.5
-8 7 -6 564.04 39.8
-7 -1 -6 442.26 37.9
1 7 -6 793.62 61.19
-1 8 6 782.42 60.59
1 -8 6 783.82 59.39
-7 8 -6 897.71 63.69
-7 8 -6 742.53 61.59
-8 1 -6 784.72 60.49
-7 -1 6 822.62 60.19
-8 7 6 819.52 59.79
-8 0 6 512.65 41
8 -8 6 508.95 41.8
-8 8 6 521.45 40.7
-8 8 -6 510.25 43.8
-8 8 6 590.44 43.9
-8 8 -6 506.75 43.7
0 8 6 435.76 40.6
0 -8 6 509.15 40.3
0 8 -6 534.85 43.3
-5 9 6 96.19 18.4
-4 9 -6 96.89 19.3
5 -9 6 70.19 11.1
-9 5 -6 95.99 20.1
-5 9 6 61.59 11.8
-5 -4 6 173.18 18.9
4 -9 6 103.59 14.4
-5 9 -6 124.09 25.4
4 5 -6 121.49 15.6
-4 9 6 144.09 20.2
-9 4 -6 162.08 22.1
-9 5 6 175.98 20.1
-6 9 6 190.78 22.7
-3 9 -6 134.09 24.7
-9 6 -6 156.78 24.6
-9 3 6 195.58 20
-9 3 6 156.08 19.4
-6 9 6 176.58 20.2
-3 -6 6 209.88 21.7
3 -9 6 87.29 13.8
-3 9 6 122.49 19.4
3 6 -6 112.09 17.5
-9 3 -6 135.99 22.6
-6 -3 6 122.39 17.6
-9 6 6 123.99 17.4
-6 9 -6 135.79 21
-6 9 -6 107.09 16.8
-9 2 6 1259.97 90.79
-2 9 -6 1280.57 94.29
-9 7 -6 1247.68 94.09
-9 2 6 1185.18 91.19
-7 9 6 1289.17 92.19
-7 9 6 1251.37 91.19
-2 -7 6 1294.37 91.09
-7 -2 6 1294.47 89.79
-2 9 6 1151.68 89.99
2 7 -6 1186.98 90.19
-7 9 -6 1153.78 91.09
-9 2 -6 1276.57 90.89
-9 7 6 1253.07 89.59
-7 9 -6 1317.77 92.89
8 -9 6 37.9 9.4
-1 -8 6 47.2 11.4
-9 1 6 23 10.1
-8 9 6 46.2 14.8
-9 8 -6 38.4 16.7
-9 8 -6 25 10.2
-8 9 6 50.69 13.7
-1 9 -6 33.2 16.2
-9 1 6 29 11.5
-8 9 -6 38.7 18.4
-9 8 6 49.5 14.8
-8 9 -6 37.7 16.5
9 -8 6 49.6 13.6
-9 1 -6 30.7 13
-8 -1 6 47.2 13.3
-1 9 6 27.7 14.3
1 -9 6 28.2 9.7
1 8 -6 33.2 14.8
-9 8 6 44.9 12.8
0 -9 6 616.94 54.99
-9 0 6 781.22 57.29
9 -9 6 677.73 56.09
-9 9 -6 737.63 59.69
0 9 6 677.93 56.79
-9 9 6 816.12 58.09
-9 9 6 811.42 56.89
0 9 -6 818.12 60.69
-5 -5 6 1645.64 116.59
-10 5 -6 1727.93 119.49
-5 10 -6 1553.24 119.79
-5 10 6 1506.35 116.99
-10 5 6 1694.53 116.79
-10 6 -6 512.45 44.8
-4 10 -6 492.05 45.1
-6 10 6 423.46 39.5
-10 4 6 581.44 42.4
-6 10 6 519.15 42.2
-4 -6 6 534.75 41.1
-6 -4 6 735.33 55.09
-4 10 6 643.94 54.89
-6 10 -6 663.53 58.49
-10 4 -6 765.12 58.29
-10 6 6 734.23 55.09
7 -10 6 10.4 6.6
-7 10 6 8.4 14.1
-10 3 6 3.4 9.9
-10 7 -6 -0.3 14.9
-3 10 -6 -6.3 15.5
-3 -7 6 9.9 11.6
-7 10 6 13.6 11
-10 3 6 12.4 11.6
-10 3 -6 27 14.6
3 7 -6 23.2 12.4
-3 10 6 27.3 14.8
-10 7 6 30.4 12.4
-7 10 -6 25.7 13
-7 10 -6 9.5 17.4
-10 7 6 12.2 11.6
-7 -3 6 20.5 11.3
-10 8 -6 984.1 77.89
-10 2 6 947.61 74.29
-8 10 6 1034.6 74.99
-10 2 6 846.92 73.89
-8 10 6 1048.2 75.79
-2 -8 6 1107.39 74.89
-2 10 -6 1081.69 78.19
-10 2 -6 1221.28 87.19
-2 10 6 1094.19 86.99
-10 8 6 1193.68 85.99
2 8 -6 1195.18 86.89
-8 10 -6 1289.27 89.89
-8 10 -6 1062.29 86.89
-8 -2 6 1226.68 86.39
-10 8 6 1083.59 86.29
-10 1 6 96.49 14.6
-10 9 -6 88.09 15.2
1 9 -6 161.88 26.6
-1 10 6 107.49 23.7
-9 10 -6 129.19 23.7
10 -9 6 169.78 20
-10 9 6 148.49 22.5
-10 1 -6 119.69 19.1
-9 -1 6 143.89 20.1
-10 9 6 140.19 20.6
-9 10 -6 143.49 26.4
0 10 -6 360.16 38.1
-10 10 6 369.66 35.9
-10 10 6 321.97 31.9
-10 10 -6 337.77 33.1
0 10 6 286.57 30.2
-10 0 6 349.67 33.3
-10 10 -6 354.36 37.5
-5 11 -6 70.39 21
-5 -6 6 99.99 16.5
-11 6 -6 121.39 21.7
-11 5 6 89.59 18.6
-6 11 6 77.69 17.8
-5 11 6 144.79 23.9
-11 6 6 174.18 22.8
-11 5 -6 187.18 27
-6 11 -6 236.48 29.9
-6 -5 6 212.58 24.2
-11 7 -6 753.42 61.49
-11 4 6 622.54 56.39
-4 -7 6 831.02 58.19
-11 4 6 827.32 59.49
-7 11 6 755.42 59.19
-4 11 -6 769.22 62.59
-7 11 -6 955.8 80.59
-7 -4 6 1088.99 76.89
-11 7 6 1042.8 77.19
-4 11 6 892.31 77.09
-11 4 -6 1203.68 81.09
-11 8 -6 485.55 45.5
-3 11 -6 530.55 46.7
-11 3 6 452.65 41.7
-3 -8 6 562.44 41.5
-8 11 6 528.05 43.2
-8 11 6 499.35 42
-11 3 6 469.85 41.1
3 8 -6 432.06 38
-8 -3 6 532.25 40.1
-8 11 -6 437.66 39.6
-11 8 6 500.55 39.6
-3 11 6 435.76 40.1
-8 11 -6 495.45 43.2
-11 8 6 387.56 36.9
-11 2 6 19.8 13.1
-9 11 6 32.3 14
-9 11 6 32.5 15.7
-11 2 6 27.5 11.2
-11 9 -6 41.4 19.6
-2 11 -6 24.2 19
-2 -9 6 29.2 11.1
2 9 -6 14.4 15.6
-9 11 -6 12.4 15.9
-11 9 6 17 13.2
-9 -2 6 15 13.3
-2 11 6 14.6 15.6
-9 11 -6 14.8 17.2
-11 2 -6 14.5 13.5
-11 9 6 33.1 14.1
-1 -10 6 160.18 20.7
-10 11 6 195.48 26.5
-11 10 -6 188.78 28.4
-1 11 -6 212.08 30.1
-11 1 6 206.38 26.3
-10 11 6 210.08 26.7
-11 1 -6 204.28 24.5
-11 10 6 215.88 28
-10 11 -6 223.58 28.9
-10 11 -6 218.58 29.6
-1 11 6 188.78 26
-11 10 6 225.68 26.2
-10 -1 6 245.08 26.2
1 10 -6 245.18 31.9
-11 0 6 237.28 28.9
-11 11 -6 248.18 33
-11 11 6 222.38 27
-11 11 6 230.08 30.8
0 11 -6 247.68 33.6
-11 11 -6 197.98 24.4
-6 12 -6 876.61 78.59
-6 -6 6 1099.79 75.69
-12 6 -6 1084.99 79.19
-12 6 6 1025.3 76.29
-6 12 6 954.3 76.39
-7 12 6 956 76.39
-5 -7 6 1039.5 74.69
-12 7 -6 988.7 77.99
-12 5 6 1050.29 76.29
-5 12 -6 948.71 78.69
-5 12 6 1018.6 81.39
-12 7 6 1105.69 81.09
-7 12 -6 985.4 83.19
-7 -5 6 1203.18 81.19
-4 12 -6 566.94 51.39
-12 8 -6 529.15 48.9
-12 4 6 516.75 44
-12 4 6 537.05 46.9
-4 -8 6 616.74 45.7
-8 12 6 585.04 48.8
-8 -4 6 699.83 54.09
-12 8 6 656.23 54.69
-12 4 -6 795.72 58.29
-4 12 6 656.83 56.59
-8 12 -6 627.74 58.99
-12 3 6 256.37 27.8
-3 -9 6 284.37 28.8
-12 9 -6 289.67 33.5
-9 12 6 343.97 32.8
-12 3 6 314.87 31
-9 12 6 290.17 30.8
-3 12 -6 312.67 39.3
-3 12 6 411.16 41.5
-9 12 -6 375.06 39
-12 3 -6 478.35 41.3
-12 9 6 450.05 39.5
-9 -3 6 507.95 40.9
-9 12 -6 467.05 43.2
-10 12 6 -15.7 17.4
-2 -10 6 -1.4 10
-12 2 6 -1.1 14.3
-2 12 -6 -17.4 20
-10 12 6 -0.7 14.9
-12 2 6 19.9 9.1
-12 10 -6 1.2 18.7
-10 12 -6 16.3 17.5
12 -10 6 25.4 8.5
-10 12 -6 -8.1 15
-12 10 6 5.8 14.6
-2 12 6 -3.3 16.7
-10 -2 6 -7.3 14.2
-12 10 6 11.2 12.5
2 10 -6 27.7 13.5
-12 2 -6 14.5 14
-12 1 6 354.66 33.1
-11 12 6 337.27 36.1
-11 12 6 311.47 35.1
-12 11 -6 353.36 38.8
-1 12 -6 306.37 40.1
-1 12 6 344.67 34.4
-11 -1 6 418.76 37.7
-12 11 6 315.87 36.5
-11 12 -6 393.86 38.1
1 11 -6 395.06 37.6
-12 11 6 354.36 35.7
-12 12 6 55.19 18.9
-12 12 -6 88.79 22.4
-12 0 6 58.59 16.7
0 12 -6 59.59 22.8
-12 12 6 54.69 18.2
12 -12 6 74.99 11.6
-13 7 -6 340.47 36.7
-7 13 6 273.67 31.8
-13 6 6 260.57 32
-6 13 -6 251.97 37.5
-6 -7 6 284.77 29
-6 13 6 402.66 40.3
-13 7 6 379.96 38.7
-7 -6 6 445.56 37.8
-7 13 -6 360.76 40.9
-5 13 -6 272.97 36.1
-5 -8 6 283.37 29.2
-8 13 6 278.97 34.3
-13 5 6 267.37 32
-13 8 -6 310.27 33.7
-13 5 -6 337.47 34.6
-5 13 6 224.28 33
-13 8 6 274.97 31.7
-8 13 -6 229.28 33.5
-8 -5 6 274.87 31
-9 13 6 217.98 30.8
-13 9 -6 198.98 28.2
-4 -9 6 175.78 22.2
-13 4 6 171.18 21.1
-4 13 -6 197.28 36
-13 4 6 149.49 24.7
-9 -4 6 317.77 31.5
-13 9 6 291.07 32
-4 13 6 288.67 35.5
-13 4 -6 331.37 35.5
-9 13 -6 308.67 38.3
-10 13 6 -21.4 17.6
-13 3 6 5.2 11.2
10 3 -6 0.4 4.6
-10 13 6 6 13.6
-3 13 -6 -3 19.9
-13 3 6 -8.7 13.9
-3 -10 6 8.6 10.9
3 -13 -6 7 4.1
-13 10 -6 23.4 18.1
-13 10 6 -6.7 14.7
-10 13 -6 -0.7 10.9
-10 -3 6 -1.1 14.8
-3 13 6 -5.4 17.5
-13 3 -6 13.3 17.4
-10 13 -6 17.9 20
-13 2 6 155.78 25.3
-11 13 6 131.19 26.4
-11 13 6 172.18 25.3
-13 11 -6 153.78 27.2
11 -13 6 108.79 14.5
-2 13 -6 146.19 28
-13 11 6 114.39 17.9
-2 13 6 136.29 23.8
-11 -2 6 133.79 23.9
-11 13 -6 105.49 21.8
-11 13 -6 144.29 24.3
-13 2 -6 86.89 19.1
-13 11 6 151.18 24.5
-1 13 -6 103.79 25.2
-13 1 6 83.49 18.1
-13 12 -6 101.99 22.6
-12 13 6 96.89 22.5
-12 13 6 87.69 21.5
-13 12 6 70.59 20.3
-12 13 -6 81.89 22.3
-12 13 -6 41 12.5
-13 12 6 44.3 14.5
-12 -1 6 46.9 16.6
0 -13 -6 202.88 22.2
0 -13 -6 208.58 17.3
13 0 -6 177.68 18
7 -14 6 536.75 41.1
-8 14 6 135.99 23.9
8 -14 6 130.79 15.5
-14 6 6 76.69 19.8
-14 8 -6 140.49 30.1
-6 -8 6 110.39 20.4
-6 14 -6 117.99 26.3
-14 8 6 31.5 18.6
-14 8 6 55.69 13.3
-8 14 -6 36.2 21.6
-6 14 6 35.6 18.1
-14 6 -6 56.19 22.1
-8 -6 6 20.1 16.5
-14 5 6 -1.7 13.8
-9 14 6 2.8 18.6
9 5 -6 2.9 8
-14 9 -6 50.89 19.1
-5 14 -6 16.8 21.3
-14 5 6 2.2 8
-5 -9 6 5.6 12.2
5 -14 -6 12.1 7.4
-9 14 -6 30.8 21.8
-9 -5 6 20.6 16.4
-14 9 6 24.8 16.7
-14 5 -6 31.8 20.4
-5 14 6 33.5 19.3
-14 10 -6 110.49 20.9
-4 14 -6 203.58 36.9
-4 -10 6 147.19 21.4
-10 14 6 168.68 28.7
-14 4 6 148.09 23.3
4 -14 -6 169.78 18.2
10 4 -6 151.48 18.6
-14 4 6 127.69 18.1
-14 10 6 380.56 35.1
-14 4 -6 350.36 39
-4 14 6 344.37 38.9
-10 -4 6 372.76 37.7
-10 14 -6 378.76 41
4 -14 6 307.97 29
-14 10 6 364.66 38.5
3 -14 -6 20.3 9.9
-11 14 6 -2 19.2
-14 3 6 -5.7 13.5
-3 -11 6 14.9 7.6
-11 14 6 -2.5 9.6
11 -14 6 22 8.4
3 -14 -6 -2.9 4.4
-14 11 -6 19.4 19.4
-11 -3 -6 8.4 7.2
11 3 -6 -3.7 9.2
-3 14 -6 13.7 22.3
-11 -3 6 0.1 14.6
-11 14 -6 2.6 9.1
-3 -11 -6 -2.6 10.8
-3 14 6 -2.2 17.9
-14 3 -6 4.2 13.1
-14 11 6 38 14.2
-11 14 -6 15.1 18.2
3 -14 6 15.7 6.3
-14 11 6 8.8 16.1
-12 -2 -6 10.3 9.7
-14 12 -6 11.9 19.8
2 -14 -6 -1.8 5.9
-12 14 6 6.8 15.4
-14 2 6 -2.6 13.9
-12 14 6 -9.9 18.4
12 2 -6 4 9.7
12 -14 6 23 9.7
-2 14 -6 6.4 22.8
-12 -2 6 -6.3 16.1
-12 14 -6 17 13.2
14 -2 -6 5 4
-2 -12 -6 -6.2 12.2
-14 12 6 28.4 14.2
-12 14 -6 -0.7 11.6
-2 -12 -6 0.8 6.2
-14 12 6 3.3 17.8
2 -14 6 9.9 6.6
-14 1 6 143.59 25.8
13 1 -6 133.39 18.4
1 -14 -6 96.69 15.6
-14 13 -6 128.19 27
-13 14 6 115.29 22.7
-1 -13 6 93.99 13.4
-1 14 -6 135.39 29.9
-13 14 6 135.29 27
14 -1 -6 78.69 12.5
-14 13 6 102.99 21.4
-13 -1 6 114.19 20.7
-13 14 -6 95.29 21.1
-14 0 6 25.6 16.3
14 0 -6 27.7 11
0 -14 -6 14.2 15.8
0 -14 6 25.6 9.6
-14 14 -6 43.8 19.9
14 -14 6 39.5 12.4
14 -14 -6 4.4 6.9
0 -14 -6 25.7 11.1
0 14 -6 17.3 13.5
-14 14 6 38.2 13.2
-14 14 6 20.5 19.3
-15 8 -6 145.29 30.3
7 -15 -6 83.29 18.6
-7 15 -6 126.99 27.1
-8 15 6 103.99 21.9
8 -15 6 121.29 24.1
-15 7 6 99.49 20.7
8 7 -6 75.99 16.5
-7 -8 6 61.79 19.5
8 -15 -6 98.49 17.9
-15 8 6 138.59 24.2
-15 8 6 162.18 24
-8 15 -6 136.29 30.3
7 8 -6 116.89 18.2
7 -15 6 141.39 24.6
-7 15 6 144.39 24.7
-8 15 -6 73.39 18.7
-15 7 -6 125.09 25.3
-7 -8 -6 78.99 17
-8 -7 6 126.59 22.1
6 -15 -6 319.37 30.5
-15 9 -6 373.26 37
-6 -9 6 256.17 32.6
-6 15 -6 370.46 41.2
-15 6 6 316.57 35.6
-9 -6 -6 255.57 26.6
9 6 -6 342.17 33
-9 15 6 344.67 39.8
9 -15 6 386.46 34.4
-15 9 -6 250.87 38.8
-15 6 -6 445.56 45.5
-6 -9 -6 388.06 34.9
-15 9 6 398.56 40.8
6 9 -6 395.06 36.1
6 -15 6 430.76 37.7
-9 -6 6 350.16 38.1
-9 15 -6 377.56 42.6
-15 9 6 409.76 41.6
-6 15 6 400.86 42.6
-15 5 6 -11.7 12.4
-10 -5 -6 -1.4 8
-15 10 -6 -8.3 17.2
10 5 -6 -8 12.4
5 -15 -6 -4 12
-10 -5 -6 0.5 4.5
10 -15 6 7.1 11.4
-10 15 6 -8.4 19.2
-15 10 -6 16.7 18.9
-5 -10 6 13.1 10.4
-5 15 -6 2.3 21.2
5 -15 -6 -9.1 6.4
-5 -10 -6 -1.5 12.2
10 -15 -6 1.6 7.3
5 -15 6 8.2 10.5
-10 15 -6 39.4 21.6
-10 -5 6 3.2 15.1
-15 10 6 31.6 15.9
5 10 -6 -9.4 10.2
-15 10 6 18.7 17.5
-5 15 6 19.7 18.4
-15 5 -6 29.6 20.7
-5 -10 -6 12.6 5.8
-11 15 6 14.2 20.1
-4 15 -6 22.8 23.6
4 -15 -6 5.9 13
4 -15 -6 11.3 8.3
-11 -4 -6 19.5 10.5
-15 11 -6 15.5 17.8
-15 11 -6 18.2 19
11 -15 6 21.2 12.1
11 4 -6 12.3 13.3
-4 -11 6 20 7.8
-15 11 6 7.9 17.2
11 -15 -6 -7 5.9
-15 11 6 32.7 17.1
-11 15 -6 21.6 20.3
-4 15 6 9.8 17.8
11 -15 -6 -2.3 6.1
-11 -4 6 -6.5 15.2
-4 -11 -6 6.8 7.5
-4 -11 -6 1.8 13.5
4 11 -6 -9.8 9
15 -11 6 25.5 10.3
4 -15 6 5.1 10.3
-15 4 -6 9.4 13.5
-3 15 -6 64.89 25.1
12 3 -6 49.4 13.6
3 -15 -6 62.99 11.6
12 -15 6 66.79 14.4
-15 3 6 32.2 12.5
-15 12 -6 63.29 20.6
-15 12 -6 92.29 22.9
-12 15 6 53.69 21.5
-12 -3 -6 54.89 12.2
-3 -12 -6 72.09 11.7
-12 15 -6 75.09 18.3
-15 12 6 85.59 20.4
-3 -12 -6 81.89 16.6
3 -15 6 82.49 13.2
-12 -3 6 87.69 20.4
12 -15 -6 53.39 9.9
-2 -13 6 90.79 14.8
-15 2 6 66.99 17.4
13 -15 6 105.89 15.9
13 2 -6 99.59 16.1
-13 15 6 84.89 23.2
-15 13 -6 100.19 23.7
2 -15 -6 111.59 19.2
-15 13 -6 89.59 22
2 -15 -6 94.39 17.3
-2 15 -6 88.39 23.6
-15 13 6 91.19 20.9
13 -15 -6 100.89 15.9
15 -2 -6 67.69 12.7
-2 -13 -6 121.99 19.9
2 -15 6 64.99 12.7
-13 -2 6 87.29 20.1
1 -15 -6 46.1 12.6
-1 -14 6 30.6 10.8
-15 14 -6 45.7 19.6
1 -15 -6 43.1 18
15 -14 -6 28.7 9
-15 1 6 22.6 16.3
14 1 -6 40.6 13.6
-1 15 -6 18.5 11.7
14 -15 6 31.8 12.6
-15 14 -6 29.2 19.7
15 -14 6 41.3 14.4
15 -1 -6 34.7 10.6
1 -15 6 35.4 12
-15 14 6 35.6 18.2
14 1 6 25 8.1
14 -15 -6 50.19 11.9
-1 -14 -6 56.69 13.5
-1 -14 -6 55.99 18.1
-14 -1 6 26.5 17.4
-15 15 -6 57.39 17.9
0 -15 6 69.29 13.5
15 -15 6 99.99 15.7
15 -15 -6 113.89 14.4
-15 0 6 78.79 19.1
0 -15 -6 104.59 20.5
15 0 6 96.19 17
15 0 -6 96.49 20.9
8 -16 -6 191.58 25.4
8 -16 -6 226.98 22.4
-16 8 6 207.68 32.3
-8 -8 -6 204.28 23.5
-8 16 6 198.98 31.6
8 8 -6 185.58 31.3
-16 8 6 235.68 31.6
-8 -8 -6 198.38 25.5
-8 16 -6 148.19 34.8
8 -16 6 202.48 30.7
-8 16 -6 276.87 38.7
-16 8 -6 158.08 37.9
-16 8 -6 228.38 34.8
-8 -8 6 163.68 27
7 -16 -6 313.07 26.6
9 -16 6 310.67 36.2
-16 7 6 296.87 35
7 -16 -6 250.97 30
-7 -9 6 225.68 29.6
-16 9 -6 304.87 35.1
-9 16 6 283.07 38.2
-9 -7 -6 343.17 29.2
-7 16 -6 190.68 41.4
-16 7 6 229.58 30.2
-7 16 -6 363.76 43.4
-16 9 -6 278.77 39.2
9 7 -6 294.07 32.9
-9 -7 -6 262.17 27.1
7 -16 6 268.57 32.8
-7 -9 -6 182.18 22.4
9 -16 -6 253.47 23.6
-7 -9 -6 243.38 28.3
-9 16 -6 307.97 39.2
-16 9 6 267.27 35.4
-16 7 -6 227.08 35.6
-16 7 -6 222.08 28.2
7 9 -6 223.48 33.3
-7 16 6 230.48 32.3
-16 9 6 273.27 34.6
9 -16 -6 212.68 26.2
-9 16 -6 163.88 33.9
-9 -7 6 197.38 28.7
6 -16 -6 4.1 10.9
-6 16 -6 -16 16.6
10 6 -6 3.2 15.5
-6 -10 6 14.6 9.1
-10 -6 -6 7.5 7.4
6 -16 -6 -1.8 13.4
-6 16 -6 48.5 24.7
-10 -6 -6 12.1 10.6
-10 16 6 11.9 20.7
-16 10 -6 39.2 20.7
10 -16 6 0.1 12.1
-16 10 -6 19.5 18.2
-16 6 6 -9.9 13.8
6 -16 6 -6.5 10.7
-16 10 6 45 17
6 10 -6 3.6 16.4
-6 -10 -6 2.6 13.4
-10 16 -6 -11.8 14.4
-16 10 6 34 20.1
16 -10 6 42.5 14.6
-10 16 -6 36.7 20.1
-6 -10 -6 3.3 4.4
-10 -6 6 4.4 16.8
10 -16 -6 13.7 11.5
-6 16 6 -0.6 17.9
-16 6 -6 18.2 20.8
10 -16 -6 2.3 10.1
-5 16 -6 -6.6 17.9
-16 11 -6 37 20.6
-11 -5 -6 3.9 4.8
11 5 -6 9.3 14.7
-11 16 6 9.8 20.5
5 -16 -6 5 11.5
-11 -5 -6 14.5 11.2
-16 11 -6 32 18.6
-5 16 -6 35.6 25.1
11 -16 6 8.2 12.9
-5 -11 -6 18.1 11.8
16 -11 6 31.8 13
11 -16 -6 7.8 10.8
-5 16 6 9 18.2
-16 11 6 37.5 19.7
5 11 -6 1.1 16.7
5 -16 6 -2.7 10.7
-5 -11 -6 0.2 3.9
-11 16 -6 -14.3 12.5
16 -5 -6 7.1 4.8
-11 -5 6 -5 17
-16 5 -6 8 14.1
-5 -11 -6 0.7 14.5
-11 16 -6 29.9 21.7
11 -16 -6 5.4 10.5
12 -16 6 352.76 39.2
12 4 -6 320.27 35.3
-12 16 6 333.77 42.8
-16 12 -6 342.87 38.7
-16 12 -6 358.56 45.7
-4 16 -6 365.06 45.7
4 -16 -6 387.16 32.5
-12 -4 -6 430.86 38.5
-4 -12 -6 436.36 42.9
-16 12 6 467.75 47.4
-16 12 6 423.46 44.9
4 -16 6 483.85 42.1
12 -16 -6 455.95 38.2
4 12 -6 477.25 44.4
-12 -4 6 372.66 43.3
-4 -12 -6 485.15 38.1
-16 13 -6 192.98 37.1
-3 16 -6 104.19 20.7
13 3 -6 160.48 24.1
16 -13 -6 99.29 15.5
3 -16 -6 138.99 26
-13 16 6 123.69 24.2
13 -16 6 170.28 30.3
-3 -13 6 144.19 18.7
-3 16 -6 177.18 31.3
-16 13 -6 136.39 27.4
-3 -13 -6 184.98 24.2
-3 -13 -6 181.58 30.7
-13 -3 6 144.19 26.7
3 -16 6 157.68 29.1
13 -16 -6 178.28 23.2
16 -13 6 200.18 32.8
3 13 -6 134.49 26.4
-16 13 6 160.18 31.4
16 -14 -6 39 10.3
14 2 -6 42.3 14.3
2 -16 -6 42.1 19.1
-16 14 -6 41.3 19.7
14 -16 6 33.4 13.5
-2 16 -6 15.4 12.4
-2 -14 6 15.6 10.6
-16 14 -6 42.1 18.5
-16 2 6 -0.8 8.5
2 -16 -6 30.1 11.9
16 -2 6 7 7.2
14 2 6 48.5 11.1
-16 14 6 45.6 19.8
-2 -14 -6 68.09 17.5
2 14 -6 27.6 11.9
-2 -14 -6 37.8 12.5
14 -16 -6 63.49 13.6
16 -14 6 49.4 16.1
16 -2 -6 37 9.9
-14 -2 6 39.8 17.9
2 -16 6 25 11.6
-15 16 6 111.79 25.7
16 -1 6 143.39 20.4
15 -16 6 139.39 18.6
-1 -15 6 123.49 27.1
1 -16 -6 196.18 36.3
1 -16 -6 155.28 22.2
16 -15 -6 138.79 21.1
15 1 -6 129.09 23.2
-16 15 -6 136.09 34.7
-1 -15 -6 152.78 22.9
15 1 6 146.69 20.6
15 -16 -6 132.29 22.4
-1 -15 -6 174.58 32.1
16 -15 6 94.29 17.1
16 -1 -6 118.89 20
1 -16 6 138.19 26.3
0 -16 -6 63.09 19
16 0 6 65.49 13.4
-16 16 6 64.29 18.1
16 -16 6 44.1 14.3
16 -16 -6 56.59 13.1
16 0 -6 42.8 12.9
0 -16 -6 48.7 13.3
-16 16 -6 44.1 17.9
0 -16 6 32 11.7
-8 -9 6 9.2 10.4
-17 8 6 6.9 16.8
8 -17 -6 -0.8 13.9
-9 -8 -6 -1.8 12.9
-8 17 -6 51.09 22.2
-17 9 -6 7.3 17.9
9 -17 6 -9 11.9
-17 9 -6 13.9 20.1
-9 -8 -6 4.8 10.3
8 -17 -6 5.8 12.5
9 8 -6 -11 15.8
-17 8 6 27.5 16.6
-9 17 6 17.1 20.3
-8 17 -6 8.3 16.7
-9 17 -6 41.6 22.8
-17 8 -6 18.8 20.1
8 9 -6 -5.3 17.2
-17 8 -6 7.3 18.6
8 -17 6 -11.9 11.6
-8 -9 -6 -2.3 14
9 -17 -6 -6 13.1
-17 9 6 7.2 19.8
-8 -9 -6 1.3 10.2
-9 -8 6 0.4 15.4
17 -9 6 13 17.6
-8 17 6 6.7 18.9
-9 17 -6 27.3 17.1
9 -17 -6 2 12.3
-17 9 6 32.9 17.6
-10 -7 -6 0.5 11.1
7 -17 -6 -10.6 13
-17 10 -6 32.4 18.8
-10 -7 -6 3.4 11.8
-7 17 -6 35.2 23.6
10 7 -6 -0.7 15.4
-17 7 6 6.3 13.4
7 -17 -6 9.8 12.3
-10 17 6 16.9 20.2
-7 -10 6 10.3 7.6
10 -17 6 -13 11.6
-7 17 -6 12.9 18.1
-17 10 -6 32.9 20
17 -10 6 13.7 16.2
-17 7 -6 0.3 17
-10 17 -6 15.8 15.9
-10 -7 6 9.9 16.6
-17 10 6 44.9 17.8
7 10 -6 5.9 17.6
10 -17 -6 -0.6 12
7 -17 6 -9.3 10.6
-17 7 -6 5.5 19
10 -17 -6 5.5 13
-17 10 6 15 20
-7 17 6 13.6 18.9
-10 17 -6 47.2 22.2
-7 -10 -6 13.9 14.2
-7 -10 -6 10.1 9.6
-17 11 -6 189.58 32.8
-6 17 -6 197.08 27.1
-11 -6 -6 196.58 29.3
11 -17 6 204.78 32.3
-6 17 -6 254.67 39.4
6 -17 -6 221.58 26.4
-17 11 -6 259.37 39.1
-11 17 6 217.28 35.6
11 6 -6 180.58 29.3
6 -17 6 211.08 28.8
6 11 -6 228.48 33.9
17 -11 6 241.08 39.1
-11 17 -6 257.27 35.1
11 -17 -6 218.28 26.1
-11 17 -6 161.08 34.1
-17 11 6 190.58 32.2
-6 17 6 139.79 29.5
11 -17 -6 157.48 25.2
-6 -11 -6 203.58 29.8
-11 -6 6 140.29 29.4
-6 17 6 220.38 28.1
-6 -11 -6 187.68 22.9
-17 11 6 266.47 37
12 5 -6 112.59 17.7
-17 12 -6 124.79 26.4
5 -17 -6 126.59 22.1
-12 -5 -6 124.89 15.3
-5 17 -6 81.09 20.1
-5 17 -6 166.98 35.1
12 -17 6 82.69 15.4
-12 17 6 91.09 22.3
17 -12 -6 65.69 13
-5 -12 -6 116.89 26.9
-12 17 -6 79.99 17.7
-12 17 -6 132.09 22.7
17 -12 6 114.09 17.8
-5 -12 -6 88.39 16.3
-12 -5 6 67.19 18.8
-5 17 6 146.19 26.2
5 -17 6 108.49 15.1
-17 12 6 124.39 24.6
12 -17 -6 131.89 16.2
-4 17 -6 31.3 17.6
4 -17 -6 52.59 14.4
-17 13 -6 56.19 21.2
17 -13 -6 31.3 9.9
-13 17 6 24.6 15.9
4 -17 -6 59.89 12.3
-4 17 -6 50.89 17.3
-13 -4 -6 58.89 12.7
13 4 -6 51.49 14.9
13 -17 6 45.5 13.5
-13 -4 6 27.7 16.7
-4 -13 -6 35 15.9
-13 17 -6 8.7 12.3
4 -17 6 22 11.4
13 -17 -6 31.8 10.3
-17 13 6 38.1 20.1
-4 -13 -6 48.3 12.8
13 -17 -6 56.39 13.3
17 -13 6 44.8 14.9
4 13 -6 56.39 19.2
17 -3 6 36.5 9.6
-17 14 -6 45 16.7
-3 17 -6 43 16.8
-3 -14 6 35.9 11.1
14 -17 6 55.59 14
14 3 -6 67.29 15.5
3 -17 -6 86.39 18.9
17 -14 -6 58.89 11.6
3 -17 -6 60.79 12.6
3 -17 6 56.69 12.6
-17 14 6 49.8 17.3
14 3 6 62.79 12.4
-14 -3 6 62.49 18.6
17 -14 6 79.89 15.9
17 -3 -6 52.49 11.5
15 -17 6 103.19 15.6
-2 -15 6 87.39 13.7
-2 17 -6 71.79 16.4
17 -15 -6 122.09 19.7
15 2 -6 123.99 22.1
2 -17 -6 118.39 21.1
-15 17 6 79.69 14.5
17 -2 6 115.69 19.7
17 -15 6 100.09 16.2
2 15 -6 130.29 24.9
15 -17 -6 126.79 15.6
15 2 6 141.39 21
-2 -15 -6 148.59 30.5
2 -17 6 74.39 14.3
-2 -15 -6 121.79 21.1
17 -2 -6 87.89 15.3
16 1 -6 47.6 13.4
17 -16 -6 62.69 12.9
-16 17 6 44.9 15.1
-17 16 -6 65.99 18.9
17 -1 6 66.99 13.8
16 -17 6 44.8 13
1 -17 -6 83.09 19.5
-1 -16 6 42 12
1 -17 -6 78.29 13.5
1 -17 6 68.29 13.3
16 1 6 91.59 14.3
17 -1 -6 80.79 16.6
-1 -16 -6 95.79 13.2
17 -16 6 54.99 13.7
-17 17 -6 26.3 15.6
17 0 6 16.7 12.3
17 0 -6 21.7 10.8
0 -17 -6 30.2 17.2
0 -17 -6 16.9 11.1
17 -17 6 16.7 10.9
0 -17 6 2.8 10.1
-17 17 6 46.9 17
17 -17 -6 14 11.7
18 -9 6 -7.8 18
9 9 -6 -4.2 15.7
-9 -9 -6 6.2 14.2
-9 -9 6 4 7.8
9 -18 -6 2.4 12.5
9 -18 6 -4.4 11.4
18 -9 -6 -5.4 4.4
-18 9 -6 9.8 16
-9 -9 -6 7.2 10.8
-9 18 6 6.6 17.9
9 -18 -6 -9.4 12.7
-18 9 6 37.1 17.2
-18 9 -6 16.8 17.7
-18 10 -6 51.39 18.5
-18 10 -6 40.1 19.8
-8 18 -6 73.49 20.1
-8 18 -6 84.69 24.8
-10 -8 -6 36.8 14.2
8 -18 -6 63.09 13.5
-10 -8 -6 31.3 11.7
10 8 -6 35.6 17.2
-18 8 6 42.7 16.9
10 -18 6 23.8 12.2
-10 18 6 46.2 20.1
8 10 -6 50.79 17.2
-8 -10 -6 75.09 16.3
-18 8 -6 26.1 13.5
10 -18 -6 53.09 13.4
-10 18 -6 70.39 17.6
-18 8 -6 43.3 18.6
8 -18 6 57.09 13.1
10 -18 -6 35.5 14.9
-18 10 6 27.2 18.1
-8 -10 -6 41.7 11.9
-8 18 6 38.6 18.4
18 -10 6 44.7 17.9
-7 18 -6 269.97 39.2
-11 -7 -6 219.18 26.7
11 7 -6 241.08 31.3
-11 -7 -6 266.07 30.4
-7 18 -6 291.37 39.3
-18 11 -6 207.28 31.2
-11 18 6 301.67 33.9
-11 18 6 205.28 34.3
11 -18 6 253.17 32.8
7 -18 -6 277.17 28.2
-18 11 -6 285.07 40.3
7 11 -6 271.97 33.9
-18 11 6 194.28 33.3
-11 18 -6 284.47 38.5
-7 -11 -6 240.78 31.9
-7 -11 -6 268.27 31.1
11 -18 -6 296.87 28.9
-11 18 -6 279.27 33.5
-7 18 6 280.77 31.2
11 -18 -6 213.88 29.4
7 -18 6 261.37 32.7
-18 11 6 323.27 38.9
18 -11 6 263.07 38
-18 12 -6 45.9 17.7
-6 18 -6 52.79 18
-6 18 -6 45.2 18.3
18 -12 -6 15.6 8.9
12 6 -6 29.2 14.7
-12 -6 -6 32.6 11.8
-12 18 6 9.9 16.5
12 -18 6 16.4 11.9
6 -18 -6 30.6 12.1
-6 -12 -6 23.7 9.8
18 -12 6 43.9 14.5
-6 -12 -6 33 14.7
-18 12 6 26.4 16.7
-12 18 -6 52.79 16.4
6 -18 6 20.6 11.3
6 12 -6 54.49 17.9
12 -18 -6 53.19 13.3
-12 -6 6 17.6 13.6
-18 13 -6 38.8 17.1
18 -13 -6 52.79 11.1
-5 18 -6 69.59 18.9
-13 -5 -6 63.89 12.8
5 -18 -6 57.29 12.9
13 5 -6 59.19 15.6
13 -18 6 31.4 12.5
-5 18 6 136.79 26.2
-5 -13 -6 93.59 17.4
13 -18 -6 130.69 22.3
5 -18 6 95.79 14.7
-5 -13 -6 110.59 20.2
13 -18 -6 87.79 18.9
5 13 -6 140.59 30.2
18 -13 6 96.89 16.1
-13 18 -6 72.39 16.4
-4 18 -6 135.39 21
18 -4 6 126.59 17.5
18 -14 -6 124.49 19.7
-14 18 6 190.18 29.4
14 4 -6 116.39 24.7
14 -18 6 124.59 17
-4 -14 6 145.39 24
4 -18 -6 159.98 21.5
18 -14 6 99.19 16.1
-4 -14 -6 82.89 15.2
-14 18 -6 84.69 14.4
14 -18 -6 77.29 13.4
15 3 -6 66.29 14.9
18 -3 6 58.79 12
-3 18 -6 58.49 17.3
18 -15 -6 65.79 12
15 -18 6 50.39 13.5
-3 -15 6 57.49 12
-15 18 6 69.29 14.3
15 -18 -6 143.49 22.4
15 3 6 130.39 22
-3 -15 -6 118.39 27.5
3 15 -6 178.68 28
18 -15 6 148.59 30
-3 -15 -6 117.59 21.9
3 -18 6 121.19 16.3
-2 -16 6 16.5 10.5
18 -16 -6 37.8 11.6
-18 16 -6 48.8 17.5
16 -18 6 18.7 10.9
18 -2 6 20.3 11.5
-2 18 -6 1.2 9.5
16 2 -6 23 12.4
-16 18 6 9.7 10.7
2 -18 -6 57.99 19
2 -18 -6 32.2 11.6
16 -18 -6 13.8 11.6
18 -2 -6 6.5 4.9
16 2 6 31.6 12.4
2 -18 6 7.5 10.8
-2 -16 -6 23.6 15.8
2 16 -6 33.4 13.7
-2 -16 -6 13.8 10.9
18 -16 6 14.5 11.7
18 -1 6 176.68 23.1
-18 17 -6 195.18 31.4
17 -18 6 170.38 28
-1 -17 6 176.78 25.3
1 -18 -6 175.38 22.3
18 -17 -6 197.08 22.7
17 1 -6 157.98 21.6
18 -17 6 173.08 27.8
1 -18 6 175.08 26.3
-1 -17 -6 230.18 30.9
-18 17 6 227.18 31.6
-1 -17 -6 175.38 21.7
17 -18 -6 178.58 23.4
17 1 6 175.58 24.1
0 -18 -6 724.53 54.89
0 -18 -6 633.14 48.8
18 -18 6 575.24 51.29
18 -18 -6 638.24 49.2
0 -18 6 654.03 51.09
18 0 6 651.13 49.4
19 -9 6 32.7 16.4
10 9 -6 38.6 15.4
10 -19 6 33.5 11.1
-10 -9 -6 38.2 11.6
-19 9 6 46.4 16.9
-19 10 -6 45.5 18
9 -19 -6 47.2 12.9
-10 -9 -6 37.6 14.2
-19 9 -6 35.1 17.6
9 -19 6 32.6 11.4
10 -19 -6 50.39 12.8
-9 -10 -6 35.8 11.7
-19 10 6 63.49 18.1
-9 -10 -6 44.1 14.8
-10 19 -6 22.6 12.7
19 -10 6 31.7 15.9
9 10 -6 45.1 15.9
8 -19 -6 60.79 12.9
19 -11 -6 27.5 8.2
-11 -8 -6 38.8 12.1
-8 19 -6 20.5 13.1
19 -8 6 59.99 18.8
-19 8 6 41.3 14.8
-11 -8 -6 34.6 10.8
11 8 -6 54.39 15.7
11 -19 6 24.8 11.2
-8 -11 -6 48.5 15.1
-8 -11 -6 46.2 12.2
-19 8 -6 54.49 18.3
8 11 -6 49.4 16.4
11 -19 -6 49.7 13.3
8 -19 6 40.4 11.9
19 -11 6 48.6 15.4
19 -12 -6 118.89 16
-12 -7 -6 90.09 14.5
12 7 -6 142.79 24
12 -19 6 86.89 13.9
-19 7 6 87.39 15.4
-7 -12 -6 163.38 27.2
-12 19 -6 212.48 34.4
7 -19 6 160.38 26.5
-7 -12 -6 171.58 26.6
19 -12 6 139.19 20.2
-19 7 -6 114.89 20.5
12 -19 -6 178.28 23.2
7 12 -6 186.18 29.9
-19 12 6 215.78 33.8
-6 -13 6 77.19 12.3
-19 13 6 305.37 37.3
13 -19 -6 309.47 29.3
6 -19 6 260.17 32
6 13 -6 344.47 34.8
19 -13 6 233.88 37.2
-6 19 6 308.27 33.1
-6 -13 -6 263.77 30.7
-6 -13 -6 282.27 32
-13 19 -6 279.37 36.8
-5 -14 6 8.4 8.4
14 -19 6 0.7 11.1
5 14 6 6.4 11.3
14 5 -6 16 13.6
19 -14 -6 8.9 9.8
5 -19 -6 20.5 11.7
19 -5 6 23.8 8.3
5 -19 -6 21.6 11.5
-5 19 -6 34.1 16.5
-14 19 6 50.09 14.3
14 5 6 9.9 10.7
-5 -14 -6 9.4 13.7
5 14 -6 45.5 15.9
14 -19 -6 16.2 6.8
-5 19 6 9.7 11.6
5 -19 6 9.2 10.5
14 -19 -6 29.6 11.5
-14 19 -6 16.7 12.7
-5 -14 -6 11.7 8.6
19 -14 6 18.6 13.3
19 -15 -6 115.49 17.7
-4 19 -6 110.29 19.4
4 -19 -6 109.49 19.1
15 4 -6 123.99 22.1
19 -4 6 124.59 17.9
15 -19 6 71.89 13.7
15 4 6 230.68 26.4
4 -19 6 235.48 29.9
-4 -15 -6 235.78 29.9
19 -15 6 229.68 31.4
15 -19 -6 259.17 26.3
-19 15 6 294.97 35.4
3 -19 -6 36.6 16.1
16 3 -6 2.7 11.3
-19 16 -6 37.2 17
3 -19 -6 3.8 10.8
-3 19 -6 3.1 12.9
-16 19 6 6.9 10.8
19 -16 -6 2.3 10.2
-3 -16 6 0.9 9.6
16 -19 6 5 9.8
19 -3 6 -5.2 10
16 -19 -6 1.7 10.6
-3 -16 -6 0.5 13.2
3 16 -6 33.1 13.4
19 -16 6 19 10.7
16 3 6 11 11.7
-19 16 6 47.2 17
17 -19 6 56.09 10.4
19 -17 -6 55.89 11.3
17 2 -6 39.1 11.3
-2 -17 6 51.79 10.8
2 -19 -6 74.89 11.6
19 -2 6 43.2 11.5
2 -19 6 14.8 9.8
-19 17 6 55.49 16.8
17 -19 -6 29.9 10.9
-2 -17 -6 46.7 14.9
2 17 -6 37.1 10.6
17 2 6 32.1 11.4
1 -19 -6 115.19 18.6
18 -19 6 145.79 18.6
19 -18 -6 126.49 19.2
-19 18 -6 95.19 25.2
1 -19 -6 165.78 26.8
19 -1 6 112.79 19
-1 -18 -6 93.79 16.6
-19 18 6 89.99 22.7
18 1 6 66.49 12.6
18 -19 -6 83.49 12
19 0 6 0.1 8.9
19 -19 -6 11.5 9.1
0 -19 6 -4.5 7.9
0 -19 -6 11.8 13.2
0 -19 -6 -1.7 8.9
-10 -10 -6 3.2 12
10 10 -6 9.6 13.1
20 -10 6 3.9 12.6
-20 10 -6 5.7 16.6
10 -20 -6 1 11.1
-20 10 6 29.3 16.7
9 -20 -6 77.19 12.9
-20 9 6 65.19 16.5
-11 -9 -6 40.7 12
-20 11 -6 83.39 18.3
20 -9 6 66.89 16.8
11 9 -6 86.39 15.8
-11 -9 -6 46.9 11.2
-9 -11 -6 61.19 11.8
-9 -11 -6 53.49 14.2
9 11 -6 84.29 15.8
11 -20 -6 80.39 13
-20 9 -6 61.89 17.3
9 -20 6 38.4 11.1
20 -11 6 34.5 14.2
20 -12 -6 154.78 19.7
-12 20 6 235.88 29.4
12 -20 6 188.08 27.4
12 8 -6 191.78 26.3
-20 12 -6 237.08 32.3
-12 -8 -6 203.88 27.1
8 -20 -6 214.28 23.6
20 -8 6 195.38 34.7
12 -20 -6 171.58 23
8 -20 6 143.19 26.1
8 12 -6 177.98 26.5
-8 20 6 188.68 25.3
-20 8 -6 112.49 28.5
-8 -12 -6 153.18 25.5
-20 12 6 200.78 32.2
-8 -12 -6 170.88 27.2
20 -12 6 174.38 31.2
7 -20 -6 58.49 11.5
13 7 -6 34.8 13.4
20 -13 -6 40.1 9.6
13 -20 6 28 10.3
-13 -7 -6 34.4 10.4
20 -7 6 35.6 15.9
-7 -13 -6 35 10.4
13 -20 -6 69.29 12.3
-7 -13 -6 44.8 14
20 -13 6 58.79 13.1
7 -20 6 41.4 11.1
-6 20 -6 348.87 38.6
-14 20 6 293.67 32.1
6 -20 -6 286.67 26.8
14 6 -6 276.97 29.6
14 -20 6 247.38 29.6
20 -14 -6 227.08 24.5
14 -20 -6 194.98 23.3
-6 -14 -6 194.98 25.6
14 6 6 183.88 22.7
-6 20 6 177.18 26.7
-6 -14 -6 186.38 25.1
-14 20 -6 171.98 29.3
20 -14 6 240.78 29.1
6 -20 6 205.98 26.6
-20 14 6 220.88 29.3
5 15 6 158.78 21.8
-5 20 -6 230.88 33.5
20 -15 -6 174.58 20.4
15 5 -6 198.68 24.7
-5 -15 6 200.38 22.4
5 -20 -6 193.08 22.6
-15 20 6 208.58 25.2
15 -20 6 191.38 27
5 -20 -6 219.58 22.2
20 -5 6 166.98 18.5
-5 -15 -6 171.98 22.6
5 -20 6 210.18 27.8
15 -20 -6 220.98 23
15 5 6 225.08 23.8
-5 -15 -6 211.48 27.6
20 -15 6 253.37 24.8
-20 15 6 241.78 30.5
16 4 -6 27 11.7
4 -20 -6 33.3 10.8
-4 20 -6 35.6 14.6
20 -16 -6 33.7 9.4
-16 20 6 17.7 10.4
-4 -16 6 9.1 8.7
4 -20 -6 40.7 13
20 -4 6 25.4 8.7
16 -20 6 28.6 8.9
4 16 6 19.7 11.5
-20 16 6 48.4 17.2
4 16 -6 51.89 13.7
-3 -17 6 6 8.7
3 -20 -6 18.2 9.7
17 3 -6 16.6 9.4
20 -3 6 12.3 8.4
17 -20 6 16.4 7.3
3 -20 -6 37.5 14.4
3 17 6 17.2 11.2
20 -17 -6 17.8 9.3
17 -20 -6 72.59 11.5
-20 17 6 96.09 23.1
-3 -17 -6 89.89 15.5
3 -20 6 61.19 11.4
17 3 6 62.89 12.2
3 17 -6 102.79 18.1
20 -2 6 86.09 14.1
20 -18 -6 100.09 16.5
-20 18 -6 106.09 23.1
2 -20 -6 95.39 16.3
2 18 6 104.99 18.9
18 -20 6 80.59 10.6
18 2 6 104.39 17.1
-20 18 6 120.79 23.4
18 -20 -6 110.99 15.9
-2 -18 -6 129.49 21.7
2 -20 6 70.89 11.7
1 19 6 333.97 29.6
-1 -19 6 325.07 30.1
20 -19 -6 342.17 28.2
1 -20 -6 380.26 32.6
1 -20 -6 341.77 28.3
19 -20 -6 337.87 27.7
19 1 6 311.37 27.5
-1 -19 -6 381.96 32.2
1 -20 6 335.67 30
0 20 6 149.09 18.1
20 -20 -6 120.69 14.7
0 -20 -6 153.98 20.7
0 -20 6 121.89 18.2
-11 -10 -6 41.3 10.5
-11 -10 -6 39.4 9.6
10 -21 -6 47.8 10.9
-21 10 6 73.59 17.1
21 -10 6 50.39 12.2
-21 11 -6 75.99 16.6
11 -21 6 37.4 10.4
11 10 -6 56.89 13.3
11 -21 -6 41.4 10.8
-21 11 6 59.79 17.2
10 11 -6 53.59 13
-10 -11 -6 32.6 10.2
-21 10 -6 47.7 15.8
10 -21 6 38.6 10.6
-10 -11 -6 36.5 11.6
-12 -9 -6 13.3 9.3
-21 9 6 11.1 12.8
21 -9 6 23.4 11.8
12 9 -6 10.5 11.3
-21 12 -6 36.4 15.3
9 -21 -6 12.1 9.6
9 12 -6 21.6 12
12 -21 -6 17.8 10.2
-21 12 6 46.7 17
13 8 -6 188.08 25
21 -8 6 218.18 32.2
-21 13 -6 250.37 30.9
-13 21 6 223.28 27.6
8 -21 -6 176.48 22.3
13 -21 6 184.08 26.2
-8 -13 -6 139.79 24.1
-21 13 6 183.08 28
-8 -13 -6 166.38 25.3
8 13 -6 173.08 23.7
8 -21 6 159.58 25.3
-8 21 6 179.58 23.5
13 -21 -6 157.28 21.1
-13 21 -6 224.88 31.1
14 -21 6 49 10.3
14 7 -6 49.99 13.1
21 -7 6 51.49 13.6
21 -14 -6 46 8.8
7 -21 -6 67.39 11.1
7 -21 6 44.4 10.8
-7 -14 -6 56.19 12.6
14 7 6 38.2 10.1
-7 21 6 52.09 12.4
14 -21 -6 62.19 10.9
15 6 -6 2.4 11
15 -21 6 2.3 7.1
21 -6 6 0 3.8
21 -6 6 12 11.6
6 -21 -6 0.4 9
6 -21 -6 -5.2 7
-6 -15 6 0.6 3
21 -15 -6 4.2 7.5
-15 21 6 23.8 11.5
-21 15 6 38.9 15.8
6 15 -6 28 12.1
-15 21 -6 10.3 11.3
-5 21 -6 139.09 25.7
5 -21 -6 108.99 17.3
21 -16 -6 87.69 13.9
-16 21 6 93.89 19.1
16 -21 6 119.99 15.6
16 5 -6 93.89 18.1
-5 -16 6 66.09 12.1
16 5 6 71.69 11.7
-5 -16 -6 93.79 19.4
16 -21 -6 101.89 15.6
5 -21 6 57.29 11
4 -21 -6 14.4 7.8
21 -17 -6 12.1 7.7
-21 17 -6 27.5 13.8
-4 21 -6 1 6.7
17 4 -6 8.9 6.5
-4 -17 6 4.1 5.5
4 -21 -6 2.9 8.7
4 17 6 -0.3 8.1
17 -21 -6 27 9.1
-4 -17 -6 28 11.5
-21 17 6 33.2 14.1
4 17 -6 37.7 9.7
4 -21 6 12.7 8.4
17 4 6 27.2 9.5
-21 18 -6 100.19 21.7
21 -18 -6 105.49 13.8
3 18 6 87.09 14.9
3 -21 -6 120.79 17.5
3 -21 -6 96.39 14.5
-3 -18 6 92.19 14.6
-21 18 6 83.89 20.4
18 -21 -6 78.39 13.6
3 -21 6 54.99 10
18 3 6 64.79 10
-3 -18 -6 92.69 18.8
-2 -19 6 117.69 14.4
2 -21 -6 153.18 15.9
2 -21 -6 157.18 17.1
21 -19 -6 121.29 13.1
2 19 6 115.09 15.4
19 2 6 65.89 9.8
2 -21 6 83.69 17.3
-2 -19 -6 110.39 17.3
19 -21 -6 88.99 12.9
1 20 6 2.6 6.5
-1 -20 6 7.2 3.6
1 -21 6 10 5.8
-1 21 6 17.9 8.3
-11 -11 -6 8.5 8.6
-11 22 6 35.9 11.2
-22 11 -6 25.1 14
11 -22 6 24.9 9
11 11 -6 22.7 10.6
11 -22 -6 20.1 8.9
-22 11 6 35.5 14.4
10 -22 -6 43.8 9.7
12 10 -6 39.1 11.3
-22 12 -6 43.5 14
12 -22 6 26.6 9.1
-12 -10 -6 24.7 9
-10 -12 -6 35.9 7.8
12 -22 -6 46.6 9.8
-10 -12 -6 45.4 9.5
-22 10 -6 34.3 12.8
10 -22 6 27.2 9.3
-22 12 6 48.1 14.9
10 12 -6 53.09 11.7
13 -22 6 128.69 20.3
22 -9 6 121.29 15.1
-22 13 -6 169.58 25.7
13 9 -6 122.09 19.4
9 -22 -6 125.99 17.4
-13 22 6 159.68 21.2
-9 -13 -6 127.29 19.8
9 13 -6 114.49 18.7
-22 13 6 119.09 23.6
13 -22 -6 118.79 16.3
9 -22 6 118.79 21.1
-9 22 6 122.39 21.1
-9 -13 -6 92.69 17.1
-22 14 -6 28.4 13.6
-14 22 6 32.2 11
8 14 -6 15.6 10.2
-8 -14 -6 3.2 7.2
14 8 6 1.4 8.4
-22 14 6 22.9 13.8
-8 22 6 8.9 10.1
8 -22 6 -1.1 8.4
-14 22 -6 28.4 13
-8 -14 -6 0.3 9.3
14 -22 -6 4.5 8.3
-15 22 6 245.28 26.5
-22 15 -6 300.87 29.8
7 -22 -6 278.87 22.8
15 7 -6 245.38 23.9
15 -22 6 221.18 22.1
7 -22 6 270.07 25.4
-15 22 -6 202.28 26.5
-7 -15 -6 236.28 23.6
15 7 6 232.38 22.2
7 15 -6 286.07 24.3
15 -22 -6 251.17 22
-22 15 6 224.78 28.1
16 -22 6 57.59 8.5
22 -16 -6 63.59 8.7
22 -6 6 91.39 11
-16 22 6 82.59 16.1
16 6 6 96.49 15.7
-6 -16 -6 95.89 17.2
6 -22 6 101.49 18.7
-22 16 6 124.29 21.4
16 -22 -6 121.09 15.2
-22 17 -6 17.1 12.6
5 -22 -6 0.5 7.7
17 5 6 -0.2 7.3
5 17 -6 12 7
17 -22 -6 4.7 7.7
5 -22 6 0.7 7.6
-5 -17 -6 2.1 9.2
-22 17 6 10.8 12.6
4 -22 -6 39.4 7.9
-22 18 -6 26.2 9.6
-4 -18 -6 32.6 9.5
18 -22 -6 33.1 7.3
-22 18 6 19.4 10.2
4 -22 6 28.7 7.6
11 -23 -6 30.1 8.2
12 -23 6 29 7.3
12 11 -6 33.3 9.8
-23 12 -6 46 12.7
12 -23 -6 37.3 8.1
-11 23 6 41.3 10.3
11 12 -6 33.9 9.5
-23 12 6 24.7 11.5
11 -23 6 28.1 7.6
-23 11 -6 24.1 10.6
-11 -12 -6 28.5 7.5
13 -23 6 58.79 12
10 -23 -6 37.9 8.8
-23 13 -6 49.2 13.2
13 10 -6 42.5 10.2
-13 23 6 53.89 10.9
10 -23 6 23.7 7.9
10 13 -6 35.9 9.3
13 10 6 29.5 8.3
-23 13 6 32.6 13
-10 -13 -6 28.7 7.4
13 -23 -6 27.4 7.9
-10 23 6 26.1 9.6
-23 14 -6 44.5 13.3
9 -23 -6 21.1 7.8
14 9 -6 25.4 8.9
-14 23 6 32.6 10.3
14 -23 6 35.5 7.5
14 9 6 11.5 7.1
9 -23 6 19.7 7.2
-23 14 6 28.3 12.8
14 -23 -6 18.3 7.4
-9 -14 -6 10 5
-23 15 -6 47.8 12.9
8 -23 -6 53.99 8.7
15 8 -6 35.5 7.6
-15 23 6 43.4 10.2
-8 -15 -6 8.9 3.9
-15 23 -6 15.1 7.9
15 8 6 13 7
15 -23 -6 19.1 7.1
8 -23 6 14.7 6.9
16 7 -6 3.2 2.7
-23 16 -6 18 11.9
-7 23 -6 6.8 4.8
7 -23 -6 2.6 7.1
7 -23 6 3.5 6.4
16 -23 -6 4.7 6.2
7 16 -6 16.5 7.4
-7 -16 -6 1.6 4.2
16 7 6 2 5.3
-23 16 6 11.3 12.3
0 0 -7 4.8 9.9
0 0 7 8.6 10.4
1 0 -7 148.59 19.4
-1 1 -7 131.09 17.7
1 0 7 138.29 17
1 -1 -7 142.19 17.8
-1 0 7 136.29 16.8
0 1 7 119.59 17
0 -1 7 132.19 17.5
0 1 -7 132.69 17.7
-1 1 7 134.89 15.6
-1 0 -7 124.99 17
0 -1 -7 125.29 19.1
1 -1 7 127.89 17.3
1 1 7 -1.9 4.8
1 -2 -7 2.3 11.9
2 -1 7 -4.8 9.4
1 1 7 7.5 10
1 1 -7 2.5 11
-2 1 -7 8.4 11
2 -1 -7 7.7 10.8
1 1 -7 17.6 16.1
-1 -1 7 -0.5 9.6
-1 2 -7 -4.6 6.4
1 -2 7 -1.4 9.5
-2 1 7 5.8 8.4
1 1 7 -2.6 10.2
-1 -1 -7 -0.5 10.3
-1 2 -7 5.3 10.6
2 -1 -7 15.2 13.3
-1 2 7 8.2 5.3
2 0 7 9.5 10.2
0 2 -7 -6.1 6.8
2 -2 -7 12.5 11.1
0 2 -7 20.3 15.2
2 0 -7 21.5 14.4
2 -2 7 9.8 11.6
0 2 -7 16.3 11.9
0 2 7 13.7 6.4
2 0 -7 14.5 11
-2 2 -7 15.1 11.7
-2 2 7 8.3 5.2
0 -2 -7 7.1 10.7
2 0 7 2.6 11.5
-2 2 -7 4.5 6.7
-2 0 -7 9.5 8.5
0 -2 7 14 9.6
-2 0 7 12.2 9.9
-2 -1 -7 327.27 30.8
-3 2 -7 399.56 32.9
1 2 7 361.56 31.4
-2 3 7 388.76 31.6
2 -3 7 405.56 32.6
2 1 -7 409.06 33.5
3 -1 7 373.86 36.2
3 -2 -7 428.46 33.8
-1 -2 7 438.56 33.9
-3 1 7 396.56 31.7
-3 1 7 423.86 32.1
-1 3 -7 380.66 32.8
3 -1 7 408.06 33.1
2 1 -7 403.56 39.6
3 -2 -7 379.86 36.3
2 1 7 345.87 32.9
-3 1 -7 306.57 28.7
-3 2 7 345.17 29.3
-2 3 -7 338.07 30.5
3 -2 7 368.46 31.8
-2 -1 7 380.66 30.6
2 1 7 373.66 31.4
1 -3 7 374.76 30.5
3 -1 -7 354.56 35.6
3 -2 7 356.06 33.1
1 2 -7 361.06 30.8
3 -1 -7 409.16 32.5
1 2 -7 369.66 36
-3 3 -7 9.4 8.5
3 0 -7 21.4 15
0 3 -7 27.3 17.7
3 0 -7 24.3 12.8
0 3 7 5.7 9.3
-3 0 7 19.7 9.5
-3 0 7 18.8 10.3
3 0 7 0.2 6.2
-3 3 7 20.2 9.1
0 3 -7 20.8 11.4
3 -3 7 13.1 11.5
0 -3 7 14.4 9.7
-3 0 -7 6.1 5.9
-3 3 -7 22 10.7
3 0 7 4.2 11.7
0 3 7 12.1 5.8
-2 4 -7 106.79 17.4
2 2 -7 110.69 17.5
-2 4 7 103.69 14.7
4 -2 7 93.89 18.2
-4 2 -7 102.09 12.9
-4 2 7 124.39 16.9
2 2 -7 116.39 21.8
-2 -2 7 120.39 16.7
2 -4 7 119.79 16.8
-4 2 7 76.29 12.1
2 2 7 94.19 16.2
4 -2 7 109.99 17.2
-1 4 -7 168.98 20.5
-4 1 7 183.18 19.2
-3 4 7 189.38 20
-4 3 -7 171.58 19.3
3 1 -7 177.08 20.9
3 -4 7 192.08 20.7
3 1 -7 192.28 26.6
-1 -3 7 192.08 20.1
-4 1 7 180.18 19.1
4 -1 7 146.59 22.3
-3 4 -7 157.08 19.5
4 -1 -7 161.78 19.9
-3 -1 7 160.58 18.5
4 -3 7 136.89 23.3
1 3 -7 138.09 19.2
1 3 -7 132.99 24.4
4 -3 7 143.19 18.8
3 1 7 136.89 20.9
-3 -1 7 152.48 16.5
1 -4 7 139.99 18.3
-4 3 7 147.59 16.7
4 -1 -7 115.09 22
-4 0 7 45.5 11.5
-4 4 -7 55.79 13.7
4 -4 7 55.39 15.9
4 0 -7 58.09 13
-4 0 7 42.7 11.3
-4 4 -7 61.99 13.2
-4 4 7 65.79 13.3
0 4 -7 58.99 19.3
4 0 -7 29.6 15.4
4 -4 7 45.8 12.6
0 -4 7 57.59 12.2
4 0 7 37.3 13.6
0 4 -7 48.6 12.9
5 -2 7 552.54 45.3
3 2 -7 552.04 42.6
-5 2 7 554.24 41.4
3 -5 7 563.64 43.2
3 2 -7 481.15 47
-5 3 -7 545.45 42.6
-3 5 7 523.65 41.1
-2 5 -7 500.75 42.8
-2 -3 7 591.24 42.2
-5 2 7 474.65 40.8
5 -3 7 511.75 47.5
2 3 -7 487.95 49.7
2 -5 7 617.74 46.1
-3 -2 7 652.33 45.5
2 3 -7 549.45 45.5
-3 -2 7 517.35 43.4
-5 2 -7 647.44 46.4
-3 5 -7 601.74 46.1
-5 3 7 634.74 44.5
-2 5 7 573.44 44.1
-1 -4 7 76.79 15.5
-1 5 -7 74.09 14.4
-1 5 -7 62.89 19.3
5 -1 7 53.79 15.9
4 1 -7 53.79 16.8
-4 5 7 83.39 14.1
-5 4 -7 87.69 18.4
-5 1 7 68.69 14.3
-5 1 7 83.09 14.3
4 1 -7 65.49 14
4 -5 7 79.89 16.3
-5 4 -7 56.69 12.7
-4 5 -7 89.59 17.8
4 1 7 51.19 13.6
-5 1 -7 84.99 15
1 4 -7 78.69 14.4
-4 -1 7 82.09 15.3
5 -4 7 61.99 15.9
-5 4 7 77.39 13.9
5 -4 7 68.79 14.2
-1 5 7 69.99 14.7
-4 -1 7 77.79 13.4
5 -1 -7 75.09 17
-4 5 -7 107.19 16.2
1 -5 7 78.19 15.7
1 4 -7 74.79 20.6
-5 0 7 759.22 52.99
-5 5 -7 703.73 53.99
-5 5 -7 722.93 54.09
5 -5 7 710.83 54.19
5 0 -7 728.13 53.99
-5 5 7 710.43 52.19
5 0 7 580.64 55.09
0 5 -7 603.24 53.29
0 -5 7 698.53 52.99
-5 0 7 754.02 52.89
3 3 -7 178.88 25.2
6 -3 7 146.49 22.6
4 2 -7 667.03 53.49
-2 6 -7 650.33 53.59
-6 2 7 711.93 51.79
4 -6 7 725.13 52.99
-4 6 7 684.03 51.59
-6 2 7 584.84 51.59
-2 -4 7 777.22 53.39
-6 4 -7 733.53 53.89
6 -4 7 529.55 44.6
2 4 -7 518.05 46.5
6 -1 7 354.76 33.1
-6 1 -7 555.44 43.6
6 -5 7 587.64 44.3
-5 6 -7 574.94 45.4
-6 5 7 553.04 42.5
-5 6 -7 569.74 44.5
-5 -1 7 472.65 41.9
1 5 -7 526.65 44
-5 -1 7 546.15 43.2
1 -6 7 589.54 44.2
0 6 -7 18.3 13.9
-6 0 7 33.1 10.5
0 -6 7 30.1 12
-6 0 7 12.8 10.3
6 0 7 3.5 12
-6 6 -7 -8.9 10.1
6 0 -7 9.6 11.6
6 -6 7 -9.3 11.8
6 0 -7 -5.7 16.7
-6 6 -7 27.6 13.1
-6 6 -7 15.5 13.5
6 -6 7 23.5 12.7
0 6 -7 -5 14.2
-4 7 7 377.76 31.6
4 3 -7 360.06 33.2
-7 4 -7 393.76 34.7
-7 3 7 395.96 32
-3 -4 7 391.06 32.7
4 -7 7 407.96 33.2
-3 7 -7 377.66 35.4
-4 -3 7 442.36 36.1
3 4 -7 387.76 36.8
-3 7 7 393.76 34.4
-4 7 -7 414.26 39
-7 3 -7 438.66 37.8
-7 4 7 456.05 35.3
3 -7 7 432.66 36.4
-7 5 -7 1117.39 79.69
5 2 -7 1007.1 77.89
-7 2 7 996.8 77.29
5 -7 7 1134.19 78.79
-7 2 7 1077.09 77.09
-2 -5 7 1126.09 78.19
-5 7 7 1015.8 76.79
-2 7 -7 1014.1 79.09
-5 7 -7 1035.1 75.89
-7 2 -7 969 74.39
-5 7 -7 984.2 75.09
-5 -2 7 1037 73.69
-7 5 7 1011.7 73.09
2 5 -7 935.01 74.19
2 -7 7 1039.6 74.29
-7 1 7 75.39 16
-7 6 -7 93.59 16.7
-6 7 7 102.09 15.3
-1 7 -7 110.19 18.3
-7 6 -7 117.49 22.6
6 1 -7 65.89 14.1
-7 1 7 105.19 15.8
-1 -6 7 105.79 18.6
6 -7 7 102.49 20.4
-7 6 7 133.49 16.5
-7 1 -7 123.79 20.3
-6 7 -7 123.19 19.7
7 -6 7 96.69 19.1
1 -7 7 102.39 17.4
1 6 -7 103.89 21.7
-6 7 -7 127.39 24.8
-6 -1 7 105.59 17.5
-7 7 -7 292.37 29.9
7 -7 7 315.77 28.6
-7 0 7 260.97 26.8
-7 7 7 287.77 27.3
0 7 -7 304.47 31.4
-7 0 -7 261.47 28
0 -7 7 297.67 27
-7 7 -7 296.67 30.4
-4 8 -7 159.68 24
-8 4 -7 148.69 22.2
-4 8 7 145.29 18.8
-8 4 7 172.18 18.8
4 -8 7 141.39 19.8
4 4 -7 146.09 22.3
-4 -4 7 150.78 19.3
5 3 -7 161.28 20.9
-3 -5 7 162.08 19.9
-8 3 7 190.78 19.5
-5 8 7 163.38 18.6
-3 8 -7 156.28 24.6
-8 3 7 127.29 17.9
5 -8 7 168.28 20.4
-8 5 -7 176.28 23.5
-5 8 -7 144.79 24.7
3 -8 7 154.78 19.9
-8 3 -7 164.68 22.2
-8 5 7 177.18 19.1
-5 -3 7 157.08 21.2
3 5 -7 127.59 21.4
-5 8 -7 150.78 20.2
-8 2 7 299.57 30.6
-2 -6 7 371.46 31.5
6 -8 7 376.76 32.7
-2 8 -7 298.07 33.5
-6 8 7 337.47 30.2
-8 6 -7 360.26 33.9
-8 2 7 351.46 29.8
-6 8 -7 281.17 32.4
2 -8 7 310.07 29.4
-6 -2 7 306.37 29.2
-2 8 7 328.67 29.6
-8 6 7 320.57 27.2
2 6 -7 288.77 29.7
-6 8 -7 265.27 29.1
-8 2 -7 286.37 29.2
-8 1 7 65.79 14.5
-8 7 -7 80.49 18.1
7 -8 7 59.89 14.7
-1 8 -7 61.79 18.7
-8 1 7 52.29 12.1
-7 8 7 76.99 15
-8 7 -7 73.79 16.1
-1 -7 7 65.79 13.4
-7 8 -7 45.8 19
-8 1 -7 45.2 15.6
-7 -1 7 32.1 12.5
1 -8 7 37.2 12.3
8 -7 7 55.79 16.4
-7 8 -7 40 16.6
-8 7 7 60.39 12.9
-1 8 7 45 14.3
1 7 -7 48.2 15.7
-8 8 7 24.7 11.9
8 -8 7 16.3 14.2
0 -8 7 14.6 11.2
-8 0 7 23.7 11.9
0 8 -7 13.9 16.2
-8 0 7 2.7 9.1
-8 8 -7 13.8 15.8
0 8 7 27.9 14.6
-8 0 -7 26.2 12.5
-8 8 -7 20.9 15.4
-9 5 -7 394.26 36.9
-9 4 7 382.16 31.1
-4 -5 7 375.86 31.4
-5 9 7 344.57 32.9
-4 9 -7 338.97 36
-5 9 7 310.47 29.4
5 -9 7 323.37 31.6
-5 9 -7 290.77 35.8
-5 -4 7 308.27 28.8
4 -9 7 272.67 28.7
4 5 -7 318.87 30.8
-9 4 -7 316.17 33.7
-9 5 7 327.47 29.6
-4 9 7 325.67 30.5
-9 3 7 167.88 21
-9 3 7 237.78 24.3
-6 9 7 232.28 23.5
6 -9 7 194.78 23.5
-6 9 7 229.98 25.4
-3 -6 7 233.78 23.2
-3 9 -7 176.98 30.2
-9 6 -7 209.18 27.5
3 6 -7 264.37 28.2
-6 -3 7 279.47 26.7
-6 9 -7 256.67 28.6
-9 3 -7 280.87 29.1
3 -9 7 237.08 26.2
-9 6 7 282.37 26
-3 9 7 272.97 28.2
-6 9 -7 251.97 34.3
-7 9 7 187.68 24.6
-7 9 7 204.38 22.4
-9 2 7 138.79 22
7 -9 7 171.28 22.5
-2 9 -7 146.69 26.8
-2 -7 7 186.08 23.1
-9 2 7 194.88 22.4
-9 7 -7 170.78 26.1
2 -9 7 145.99 19.4
2 7 -7 158.08 26.4
9 -7 7 191.38 24.5
-9 2 -7 184.58 23.4
-9 7 7 171.38 20.6
-2 9 7 176.98 25.8
-7 9 -7 169.58 30.2
-7 9 -7 160.98 23.4
-7 -2 7 164.28 21.4
8 -9 7 95.29 18.6
-9 8 -7 132.19 23
-9 1 7 98.09 18.6
-9 1 7 89.79 15.8
-1 9 -7 146.49 23.9
-1 -8 7 122.29 20.6
-8 9 7 135.89 22.7
-8 9 7 121.49 18.3
-9 8 -7 133.79 19.8
9 -8 7 139.69 21.3
-9 1 -7 105.09 19.7
-8 9 -7 128.59 28.7
1 8 -7 106.99 23.5
-8 9 -7 139.79 23.5
1 -9 7 115.79 19.3
-1 9 7 122.79 21.4
-8 -1 7 120.39 21.9
-9 8 7 169.38 23.5
-9 8 7 148.89 21.3
0 9 -7 133.89 23.6
-9 0 -7 71.39 15.5
0 -9 7 97.29 16.6
-9 9 -7 110.29 24.3
0 9 7 85.49 17.3
-9 9 7 123.69 22.7
-9 9 7 119.49 21
9 -9 7 98.49 18.6
-9 9 -7 101.99 20.9
-9 0 7 87.99 16.4
-5 -5 7 762.22 57.19
-5 10 7 707.63 57.39
-5 10 -7 676.73 60.09
-10 5 7 745.53 56.39
-10 5 -7 761.62 61.09
-4 -6 7 24.8 13.3
-10 4 7 27.5 12.8
-10 4 7 16.7 6.9
6 -10 7 16.4 8.9
-6 10 7 30.9 15.8
-10 6 -7 12.6 16
-6 10 7 14.3 10.8
-4 10 -7 5.4 16.6
-10 4 -7 9.9 15.8
4 -10 7 10.3 9.9
-6 10 -7 10.4 9
-6 -4 7 17.9 11.4
-10 6 7 23.6 12.5
4 6 -7 17.9 12.6
-6 10 -7 4.3 17.4
-4 10 7 11.8 13.8
-10 3 7 300.37 31.4
-3 -7 7 379.16 31.8
-10 7 -7 341.27 36.3
-7 10 7 358.36 32.2
-10 3 7 351.26 31.7
-3 10 -7 321.57 37.1
-7 10 7 377.26 35.5
-10 7 7 274.07 25.5
-10 3 -7 264.87 28.7
-3 10 7 251.57 29.4
-7 -3 7 260.87 27.3
-7 10 -7 198.98 25.7
3 7 -7 251.37 27.3
-7 10 -7 229.68 34.2
3 -10 7 190.28 22.3
-8 10 7 263.37 25.4
8 -10 7 207.38 23.6
-10 2 7 204.98 23.8
-2 10 -7 223.58 31.6
-10 2 7 218.68 26.5
-8 10 7 284.17 28.7
-10 8 -7 225.68 33.4
-2 -8 7 271.07 25.5
-10 2 -7 261.07 28.8
-8 10 -7 262.47 31.3
-10 8 7 255.87 27.8
2 8 -7 262.27 31.7
10 -8 7 274.17 30.1
-2 10 7 236.98 30.3
-10 8 7 265.67 26.5
-8 -2 7 265.07 28.2
2 -10 7 205.38 24.4
-8 10 -7 259.37 36.1
9 -10 7 79.39 15.3
-1 10 -7 54.79 20.1
-9 10 7 71.59 15.5
-10 1 7 60.09 15.5
-10 9 -7 83.29 21.1
-1 -9 7 48.4 12.5
-10 9 -7 33.2 11.9
-10 1 7 39.2 11
-10 9 7 65.69 15.5
-10 9 7 71.09 19.1
-9 10 -7 52.39 18.5
-9 -1 7 54.39 14.3
-10 1 -7 40.1 14.1
10 -9 7 65.49 16
-1 10 7 45.1 17.2
1 9 -7 37 18.9
-9 10 -7 59.49 20.2
1 -10 7 35.2 12.1
0 -10 7 220.28 25.4
-10 0 7 263.77 29.3
0 10 -7 278.17 35.7
10 -10 7 217.58 25.1
-10 10 -7 239.08 31.9
0 10 7 209.68 25.3
-10 10 7 290.47 27.7
-10 10 7 282.77 32.2
-10 10 -7 284.37 30.4
-11 5 7 681.83 53.29
-6 11 7 610.74 53.09
-5 -6 7 703.33 52.09
-5 11 -7 616.14 58.09
-11 6 -7 672.53 56.19
-6 11 -7 590.04 56.99
-11 6 7 710.43 53.99
-6 -5 7 681.33 52.69
-5 11 7 611.04 53.99
-11 5 -7 752.42 57.19
-7 11 7 498.25 43.6
-4 -7 7 532.85 41.9
-11 7 -7 534.25 46.6
-7 11 7 457.45 40.3
-11 4 7 530.45 42.5
-4 11 -7 463.75 47.1
4 7 -7 217.68 23.2
-11 7 7 246.68 23.9
-11 3 7 68.99 16
-3 11 -7 102.69 25.9
-3 -8 7 85.09 15.8
-11 8 -7 102.09 24
-8 11 7 72.19 16.7
-8 11 7 111.19 19.5
-11 3 7 54.19 14.9
-8 11 -7 47.8 20.5
-11 8 7 77.09 16.2
-8 -3 7 67.39 16
-11 8 7 35.9 14.9
3 8 -7 55.19 15.9
-8 11 -7 43.1 16.4
-3 11 7 43.8 17.7
-11 3 -7 58.49 18.9
-2 11 -7 663.93 56.19
-11 9 -7 608.04 54.69
-9 11 7 665.33 52.59
-9 11 7 602.84 51.09
-11 2 7 578.34 49.9
-9 11 -7 589.24 53.79
-11 9 7 532.45 50.99
2 9 -7 713.43 54.69
-9 -2 7 688.23 51.89
-9 11 -7 663.63 54.49
-11 2 -7 604.64 52.69
-11 9 7 633.94 50.89
11 -9 7 659.73 52.39
-2 11 7 554.24 52.69
-10 11 7 37.9 15.6
-1 -10 7 31.3 11.6
-11 10 -7 18 13.9
-1 11 -7 28 20.3
-10 11 7 48 17.9
-11 1 7 36.9 16.3
-11 10 -7 52.39 22.3
1 -11 7 2.3 6.9
-11 1 -7 10.7 13.8
-10 -1 7 -5.6 13.1
-10 11 -7 16.7 18.3
-11 10 7 -2.2 14
-11 10 7 2.9 14.6
11 -10 7 20.9 10.8
-10 11 -7 1.2 18.7
1 10 -7 -2.9 18.4
-1 11 7 17.2 16.2
11 -11 7 82.59 12.8
0 -11 7 68.19 12.8
-12 6 7 145.49 24
-6 12 7 157.78 25.3
-6 -6 7 177.68 23
-12 6 -7 179.58 29
-12 7 -7 397.96 43
-5 12 -7 381.46 42.2
-7 12 7 406.96 39.2
-12 5 7 392.76 38
-5 -7 7 402.56 36.8
-5 12 7 382.16 39.6
-7 12 -7 338.47 43.6
-12 5 -7 469.65 44.1
-12 7 7 391.46 36.9
-7 -5 7 412.16 36
-12 4 7 102.19 20.6
-12 8 -7 132.49 24
-8 12 7 115.99 25.4
-4 -8 7 120.39 20.4
-4 12 -7 130.29 26.3
-12 4 7 78.29 13.1
-8 12 7 72.29 16
-8 -4 7 138.19 21.6
-12 8 7 123.29 24.6
-4 12 7 113.09 24.9
-8 12 -7 135.29 25.6
-9 12 7 909.11 73.59
-12 3 7 1017.7 74.39
-9 12 7 1116.19 76.99
-12 3 7 835.62 73.59
-12 9 -7 1011.7 78.39
-9 -3 7 1088.99 77.19
-12 3 -7 1058.29 79.39
-3 12 7 885.81 76.89
12 -9 7 936.71 76.49
-12 9 7 971.1 77.09
-9 12 -7 1091.59 81.29
-10 12 7 120.79 22.6
-2 -10 7 118.89 18.4
-2 12 -7 159.78 28.5
-12 2 7 100.49 16.1
-12 2 7 126.79 20.8
10 -12 7 102.49 14.3
-12 10 7 150.48 24.5
-10 12 -7 191.48 29.4
12 -10 7 133.29 19.5
-12 10 7 144.79 24
12 -10 7 111.49 16.6
-10 -2 7 182.18 27.4
-2 12 7 147.19 28.5
-12 2 -7 148.99 23.5
-10 12 -7 192.98 27.7
-11 12 7 219.98 33.3
-1 12 -7 243.18 37.6
-12 11 -7 243.88 35.4
11 1 -7 170.78 19.1
-11 12 7 217.38 29.6
-12 1 7 215.28 29.5
-1 12 7 132.09 21.3
-11 12 -7 203.48 27
1 11 -7 202.48 32.8
-11 12 -7 195.18 32.1
-11 -1 7 169.08 28.2
-12 11 7 170.98 27.9
-12 11 7 161.78 27.9
-12 12 7 309.07 38
-12 0 7 372.26 35.5
-12 12 -7 354.76 39.2
-12 12 7 315.77 35.1
12 0 -7 333.27 29.3
0 12 -7 404.96 42.6
-7 -6 -7 2.3 4.6
-6 -7 7 -1.3 12.8
7 6 -7 -2.4 4.9
-13 6 7 0.3 16.4
-6 13 -7 -18.1 21.5
-7 13 7 -12.1 17
-13 7 -7 13.7 20.7
6 -13 -7 1.2 5.8
-13 6 -7 -0.9 20.9
7 -13 -7 -2.3 5.4
-6 -7 -7 2.8 5.4
-7 13 -7 -17.6 20.4
-13 7 7 -9.6 14.6
-6 13 7 -18.6 17.6
-7 -6 7 2.1 12.8
8 5 -7 87.29 12
-13 8 -7 75.69 16.3
-13 8 7 273.27 26.6
-8 13 -7 279.47 39.4
-13 8 7 274.17 33.5
-5 13 7 261.87 35.9
-8 -5 7 303.17 32.4
-13 5 -7 355.46 37.1
4 -13 -7 62.59 11.2
9 4 -7 87.79 13.3
-13 4 7 64.79 16.2
-4 -9 7 67.79 15.1
-4 13 7 50.89 18.8
-13 9 7 62.79 17.7
-9 13 -7 79.79 22.2
-4 -9 -7 38.3 8.9
-13 4 -7 88.49 22.1
4 -13 7 48.4 9.8
3 -13 -7 12.9 7
-10 -3 -7 1.6 5.9
-13 3 7 9.4 13.2
-13 3 7 13.1 11.2
-3 13 -7 4.1 22
10 3 -7 12.7 9
-13 10 -7 13 19.4
-3 -10 7 8.1 12
-10 13 7 -8.4 18.4
-10 13 7 18.2 13.7
-10 -3 7 13.7 17.1
-13 3 -7 19.3 18.6
-10 13 -7 41.3 19.7
-13 10 7 18.9 16.5
-10 13 -7 6 10.4
-3 -10 -7 22 8.6
-13 10 7 18.8 8.8
13 -10 7 29.1 10.9
-3 13 7 8.3 18.2
-11 13 7 81.29 20.1
-13 2 7 91.89 20
11 -13 7 163.88 25.9
11 2 -7 120.09 19.2
-13 11 -7 122.69 25
2 -13 -7 108.89 14
-11 13 7 104.19 23.2
-2 13 -7 92.39 26
-11 -2 7 84.79 19.5
-11 13 -7 63.19 19.8
13 -2 -7 59.79 11.8
-11 13 -7 91.29 21.4
-2 13 7 75.79 18.1
-13 11 7 80.09 21.1
-2 -11 -7 60.69 12.2
-13 11 7 82.99 15.9
-1 13 -7 49.2 24.9
-13 12 -7 46.9 20.9
12 1 -7 35.1 12.6
12 -13 7 67.09 14.1
-12 13 7 30 18.9
-13 1 7 34.2 16.2
-12 13 7 48.6 21.7
1 12 -7 38.2 14.8
-13 12 7 19.1 19
-12 13 -7 39.6 21.2
13 -12 7 33.1 12.6
-12 -1 7 21.5 17.5
-1 -12 -7 15 10.6
13 -1 -7 44.1 10.2
-12 13 -7 17.9 11.4
-13 12 7 37.9 14.5
0 -13 7 14.7 4.2
0 -13 -7 -0.2 11.1
0 -13 -7 6.4 5.7
13 -13 7 15.5 14
13 0 -7 22 12.1
-13 13 7 21.3 15.9
13 -13 -7 5.2 6.5
0 13 -7 26.1 16.3
-13 0 7 8.3 16.2
-13 13 -7 29.9 21.2
-13 13 7 13.5 18.7
-14 7 7 42.8 19.8
-7 14 -7 68.59 25.8
-7 -7 7 28.1 15.9
-7 -7 -7 40.9 11.3
7 7 -7 30.4 11.4
-7 14 7 43.7 19.2
7 -14 -7 52.99 12.2
-14 7 -7 54.79 21.9
7 -14 7 63.19 11.6
6 -14 -7 269.27 26.7
-8 -6 -7 243.78 24.4
-14 8 -7 276.57 37.8
8 6 -7 283.07 27.4
-6 -8 7 235.38 30.3
-8 14 7 259.57 35.8
-6 14 -7 246.08 37.7
-14 6 7 234.58 30.6
-6 14 7 189.88 31.4
-6 -8 -7 244.18 25.8
-14 8 7 177.48 31.9
-14 8 7 291.37 30.2
8 -14 -7 233.38 24.8
-8 -6 7 225.58 31.4
-14 6 -7 269.57 37.7
-8 14 -7 222.78 38
14 -9 -7 -1 3.8
-5 -9 7 4.4 12.6
-9 14 7 -0.7 19.6
5 -14 -7 9.4 11.7
-14 5 7 -0.3 13.9
-9 -5 -7 0.1 7
9 5 -7 -4.3 12.6
9 -14 7 14.3 11.6
-14 9 -7 25.1 19.6
-9 -5 -7 1.5 4
-5 14 -7 0.1 22
-14 9 -7 -18.9 15.8
5 -14 -7 -6.8 5.6
-9 14 -7 23 22.1
-9 -5 7 -4.5 16.7
9 -14 -7 16.1 10.6
14 -5 -7 6.1 4.5
14 -9 7 29.5 14.1
-5 14 7 0.7 19.4
-5 -9 -7 17.5 12.2
-14 9 7 28.8 15.2
-14 9 7 -6.2 15.8
5 -14 7 16.8 8.2
-14 5 -7 10.8 20.6
-4 14 -7 118.09 28.6
10 4 -7 101.79 16.4
-10 -4 -7 58.59 12.5
-14 4 7 71.39 15.7
-14 10 -7 55.29 19.5
-4 -10 7 75.99 15.6
4 -14 -7 113.09 21
-14 10 -7 92.59 23.1
-10 -4 -7 91.69 15.4
-10 14 7 87.79 21.9
14 -4 -7 53.19 11.3
-14 4 -7 57.39 20
-4 -10 -7 82.79 15.6
-4 14 7 59.09 20.5
-10 14 -7 73.59 24.4
-10 -4 7 69.59 20.4
-14 10 7 70.89 17.3
-14 10 7 53.09 20.4
14 -10 7 87.69 15.7
10 -14 -7 69.59 15.4
-3 14 -7 197.18 32.1
-14 11 -7 193.18 38.6
-14 3 7 212.98 22.3
-3 14 7 300.87 34.7
-14 11 7 290.17 35.4
3 -14 7 356.36 28.4
-11 14 -7 304.17 36.6
14 -3 -7 252.67 25.8
-14 11 7 286.07 35.6
11 -14 -7 248.78 26.2
14 -11 7 370.36 38.3
-3 -11 -7 335.17 32.5
-11 -3 7 303.97 33.7
-14 12 -7 228.98 34.3
-2 14 -7 222.18 36.7
-2 14 -7 117.59 19.5
2 -14 -7 184.08 16.5
-14 2 7 170.98 25
-14 12 -7 143.39 24.1
-12 14 7 141.19 22.7
-12 14 7 175.48 30
-12 -2 7 276.67 32.7
-2 -12 -7 298.07 33.3
-14 12 7 278.07 35.4
2 -14 7 296.57 28.2
14 -12 7 350.56 39.2
-14 12 7 291.07 37.4
14 -2 -7 268.57 27.1
12 -14 -7 245.78 25.2
-13 14 7 56.59 17.9
-14 1 7 42.5 17.9
13 -14 7 44.8 14.7
-14 13 -7 37.8 21.9
-14 13 -7 43.1 19.7
-1 14 -7 48 19.9
1 -14 -7 47.2 10.5
13 1 -7 54.19 14.1
1 -14 -7 59.19 15.1
-13 14 7 39.1 18.1
-14 13 7 140.79 32.2
14 -1 -7 96.39 21
-1 -13 -7 123.59 16.5
-14 13 7 77.59 21.1
13 -14 -7 66.09 14.7
-13 -1 7 61.79 18.3
-13 14 -7 48.6 16.3
14 -13 7 101.99 17.2
-1 -13 -7 91.09 17.9
0 -14 7 7.5 9.3
-14 14 -7 -2.2 15.2
0 -14 -7 -11 15.6
-14 0 7 -10.6 16.7
0 -14 -7 2 11.6
-14 14 7 17.5 16.6
-14 14 -7 -14.3 14.4
14 -14 7 -0.2 13.1
14 0 -7 7.7 12.1
-14 14 7 6.4 16.7
14 -14 -7 3.2 8.3
-14 14 7 -9.4 9.4
-15 8 -7 18.2 19.9
-15 8 -7 -12.8 17.2
7 -15 -7 2.8 12.2
-8 -7 -7 -2.2 4.6
-15 7 7 0.2 16.5
15 -8 -7 1 4.1
-7 -8 7 1 16.4
8 7 -7 -8.1 14.7
-15 7 7 27.6 13.6
-7 15 -7 16 22.1
-8 15 7 -10.3 17.7
8 -15 7 0.2 12.4
7 -15 -7 -7.1 5.1
-8 -7 -7 4.4 12.4
-8 15 -7 13.6 22.3
-8 -7 7 -4.2 16.1
7 8 -7 -18.9 14.7
-15 7 -7 -18 16.6
-7 -8 -7 1.2 3.7
15 -7 -7 3.9 4.7
-15 8 7 -11.8 18.3
8 -15 -7 -2.3 12.3
8 -15 -7 -7.8 5
7 -15 7 -4.4 11.3
-15 8 7 13.4 15.7
-15 7 -7 0.6 20
-7 -8 -7 -5.8 13
-7 15 7 -11.2 19.4
-15 6 7 111.09 22.6
-15 9 -7 165.98 28.4
9 -15 7 133.39 17.8
-9 -6 -7 121.79 23.1
6 -15 -7 98.99 16.5
-15 9 -7 104.99 21.6
-6 15 -7 151.68 31.1
-6 -9 7 93.09 19.7
-9 -6 -7 109.39 18.3
-6 15 -7 85.69 22.6
-15 6 7 85.49 18
9 6 -7 142.19 19.3
-9 15 7 126.39 25.6
15 -9 7 87.89 18.2
-15 9 7 57.29 21.3
-15 9 7 83.09 18.5
6 -15 7 74.59 14.1
-9 -6 7 57.19 18.8
-9 15 -7 37.2 17.7
9 -15 -7 69.19 14.6
-15 6 -7 84.39 26.2
-6 15 7 73.99 22.4
-9 15 -7 100.69 24.9
6 9 -7 40.6 15.9
-6 -9 -7 53.39 15
-5 15 -7 254.37 30.7
10 -15 7 313.57 35.1
-15 10 -7 284.87 37.4
-5 15 -7 266.17 42.4
-10 15 7 232.08 36.7
5 -15 -7 220.38 22.1
-10 -5 -7 261.67 26.6
-10 -5 -7 304.47 28.2
-15 10 -7 191.88 39.4
-5 -10 7 188.78 24.9
5 -15 -7 240.58 29.6
10 5 -7 278.97 29.7
5 -15 7 337.57 33.1
-5 15 7 236.58 36.2
15 -10 7 332.77 40.4
-15 5 -7 266.57 36.8
-15 10 7 283.77 37.8
-10 -5 7 256.77 32.6
10 -15 -7 255.87 28.9
-15 10 7 267.97 33.4
-10 15 -7 321.07 40
-5 -10 -7 290.77 32.4
5 10 -7 277.77 30.9
4 -15 -7 53.19 14.5
-15 11 -7 63.39 22.8
-4 15 -7 67.59 27.1
11 -15 7 29.6 13.5
4 -15 -7 35.8 9.4
-11 -4 -7 29.8 9.3
-4 -11 7 20.9 9.6
-11 -4 -7 38.5 11.3
11 4 -7 49 15.2
-15 11 -7 53.09 19.6
-11 15 7 43.1 22.7
-4 15 -7 -2.8 16.9
-11 -4 7 19.7 18
-4 15 7 24.5 16.6
11 -15 -7 26.4 12.3
-4 -11 -7 32.2 14.7
-4 -11 -7 25.7 8.1
15 -11 7 29.3 15.9
-15 4 -7 8.9 13
-15 11 7 39.9 19.2
15 -4 -7 34.4 10.2
4 11 -7 7.1 10.3
-11 15 -7 46 20.4
-15 11 7 43.8 17.4
4 -15 7 27.1 11.4
-15 12 -7 51.29 22.6
-12 -3 -7 18.9 7.1
-15 12 -7 34 18.9
3 -15 -7 42.7 10.8
-3 15 -7 45.1 24.6
12 -15 7 37.2 13.9
12 3 -7 39.2 14.3
-3 15 -7 -6.9 16.8
-12 15 7 38.9 21.6
15 -12 -7 8.5 5.9
3 -15 7 81.29 14
-3 -12 -7 111.49 18.5
15 -12 7 87.99 17.5
-12 -3 7 80.59 21
-3 -12 -7 127.19 17.9
-15 12 7 142.19 33.6
-15 12 7 75.49 22
12 -15 -7 107.49 19
15 -3 -7 107.29 18.8
13 2 -7 134.99 23
-15 13 -7 118.29 26
-13 15 7 117.99 22.7
-2 15 -7 88.09 19.5
13 -15 7 100.29 16.4
-2 15 -7 154.08 28.1
2 -15 -7 102.89 23
-15 13 -7 109.49 21.6
-2 -13 7 84.59 13.4
-2 -13 -7 213.38 24.1
-2 -13 -7 182.78 31.5
2 -15 7 191.48 28.6
-13 -2 7 149.59 30.5
15 -2 -7 181.78 24.1
-15 13 7 180.08 28.7
15 -13 7 180.98 34.1
13 -15 -7 164.68 22.5
-15 13 7 212.58 34.5
-15 14 -7 125.59 23.4
1 -15 -7 173.28 23.4
-1 -14 7 175.18 24.1
14 1 -7 145.09 24.5
14 -15 7 158.28 19.8
1 -15 -7 188.98 32.9
-14 15 7 183.38 29.5
1 -15 7 80.39 13.5
-1 -14 -7 137.19 21.7
14 -15 -7 66.69 11
15 -1 -7 75.99 14.2
14 -15 -7 93.19 17.5
-1 -14 -7 84.59 18.5
-15 14 7 50.09 16.8
-14 -1 7 74.99 19.5
15 -14 7 87.09 15.7
15 0 -7 58.69 13.9
15 -15 7 60.69 14.2
0 -15 -7 74.29 13.7
-15 15 -7 51.89 17.8
0 -15 7 53.69 12.7
15 -15 -7 40.8 10.1
15 -15 -7 40 9.9
-16 8 7 26 19.8
-16 8 -7 25.5 18.8
-8 16 -7 8.1 17.5
16 -8 -7 11.3 5.7
8 -16 -7 15.2 10.8
-8 16 7 16.3 19.9
-8 -8 -7 28.2 14.3
-8 -8 7 13.3 16
8 -16 7 16.4 12.9
8 -16 -7 29.6 13.6
-16 8 -7 40.4 22.7
-16 8 7 37.5 17
8 8 -7 6.9 16
-8 -8 -7 18.9 8.3
-16 9 -7 38.2 18.6
7 -16 -7 39.7 11.8
-16 7 7 40.3 16
-7 -9 7 16.7 13.5
-16 9 -7 47.6 23.1
-9 -7 -7 39.3 14.6
9 7 -7 25 16.4
7 -16 -7 28.6 14.8
-7 16 -7 28.8 18.8
-7 16 -7 41.5 23.6
-9 16 7 37.1 21.3
9 -16 7 17.6 13.1
-9 -7 -7 29.9 10.3
-16 7 7 18.9 18.4
-9 16 -7 39.1 17.4
-16 7 -7 24.1 18.1
-9 -7 7 28.4 17.9
-16 9 7 54.59 18
-7 -9 -7 47.1 15.2
16 -9 7 47.5 18.9
7 9 -7 33 17.7
9 -16 -7 47 11.4
7 -16 7 52.69 14.1
9 -16 -7 41 13.7
-7 16 7 34.1 19
-9 16 -7 82.99 25.9
-16 7 -7 38.9 23.7
-16 9 7 50.59 21.6
-10 16 7 31.3 22
6 -16 -7 30.2 14.9
-16 10 -7 49.1 20.7
-10 -6 -7 31.3 11
-6 16 -7 59.69 26
-16 6 7 18.8 10.4
-16 10 -7 39.9 18.6
-6 -10 7 21.8 9.3
-10 -6 -7 33.2 14.1
10 -16 7 30.8 14.1
-6 16 -7 20.1 19.7
10 6 -7 23.9 15
6 -16 -7 44.1 12.4
6 -16 7 16.8 11.9
-16 10 7 28.8 18.6
-16 10 7 51.59 18.4
-16 6 -7 20.8 16.9
10 -16 -7 33.6 13
6 10 -7 26.8 18.2
-10 16 -7 31.8 16.9
10 -16 -7 26.1 10.5
-6 -10 -7 36.5 15.6
16 -10 7 27.7 16.9
16 -6 -7 30.4 8.6
-10 16 -7 74.19 23.8
-6 16 7 29.3 19.9
-10 -6 7 18.6 16.2
-16 6 -7 25.7 18.4
-5 16 -7 -1.9 17.6
-5 16 -7 39 24.9
11 5 -7 15.7 14.2
-16 11 -7 38 18.3
-11 -5 -7 18.6 11.2
11 -16 7 10.1 12.5
-11 -5 -7 22 12.5
-16 11 -7 32.3 20.9
5 -16 -7 12.2 13.2
-11 16 7 17.7 19.7
5 -16 -7 28.7 12.2
-5 -11 -7 1.1 4.5
11 -16 -7 6.4 10.1
11 -16 -7 14.4 12.6
-16 5 -7 3.9 11.6
-16 11 7 32.8 17
5 -16 7 2.5 10.9
5 11 -7 3.4 17.9
-11 16 -7 3.1 14.8
-5 16 7 -8.1 13
16 -5 -7 17.1 9.3
-16 11 7 28.9 20.2
16 -11 7 7.5 15.8
-11 16 -7 30.5 20.4
-5 -11 -7 9.6 14.6
-11 -5 7 -2.1 16.6
-12 16 7 147.89 34.1
12 4 -7 186.38 27.7
12 -16 7 171.48 32
-4 16 -7 200.58 26.4
-4 16 -7 211.98 37.9
-16 12 -7 225.68 38.7
-12 -4 -7 170.58 21.5
-16 12 -7 179.78 33.4
4 -16 -7 243.88 24.7
-4 -12 -7 235.18 25.5
-12 -4 7 154.18 28.1
16 -4 -7 196.58 23.6
4 12 -7 203.08 29.8
-16 12 7 184.38 33.1
4 -16 7 220.98 30.2
12 -16 -7 186.48 24.9
16 -12 7 208.88 36.7
-16 12 7 219.68 35.6
12 -16 -7 196.28 23.3
-4 -12 -7 204.08 29.5
13 -16 7 30.9 13.1
-16 13 -7 40.9 21.2
3 -16 -7 65.29 13.1
13 3 -7 49.4 14.9
3 -16 -7 36.4 12.8
-16 13 -7 60.39 19
-3 16 -7 39.6 15.2
-13 16 7 11.3 15.3
-3 16 -7 18.8 18.4
-13 -3 7 30.6 19.1
3 -16 7 27.2 11.6
16 -13 7 41.5 14.9
-3 -13 -7 73.49 13.6
13 -16 -7 39.8 13
-16 13 7 37.2 19.6
3 13 -7 36.4 13.3
13 -16 -7 57.59 12.1
-3 -13 -7 55.59 16.2
16 -3 -7 57.09 12.7
2 -16 -7 69.79 17.8
14 2 -7 69.39 15
14 -16 7 65.89 14.4
-2 -14 7 96.39 20.2
2 -16 -7 108.49 14.9
-2 16 -7 38.8 18.7
-16 14 -7 86.39 20.3
-2 -14 -7 78.99 17.6
-14 -2 7 44.4 16.5
14 2 7 47.8 9.6
16 -14 7 50.59 14.6
-16 14 7 22.7 15.5
14 -16 -7 71.09 12.8
14 -16 -7 55.29 13
16 -2 -7 82.39 14
2 -16 7 61.89 12.9
-16 15 -7 20.1 16.9
1 -16 -7 25.9 18.2
-1 16 -7 -0.4 10.3
15 -16 7 5.5 12.3
16 -15 -7 9.8 9.3
1 -16 -7 17.5 12.2
-1 -15 7 0.6 10.6
15 1 -7 15.4 12.6
-15 16 7 27.6 16
16 -1 -7 64.79 13.2
16 -15 7 64.99 14.2
-15 16 -7 12.3 12.6
15 1 7 31.6 9.2
15 -16 -7 47.7 11.6
15 -16 -7 41.3 10.6
1 -16 7 34.2 12
-1 -15 -7 76.39 13.6
0 -16 7 285.87 30.9
16 -16 -7 243.98 25.5
16 -16 7 239.78 35.8
0 -16 -7 313.37 27.9
-16 16 -7 240.48 36.7
-16 16 7 321.17 36
16 0 -7 235.88 27.6
16 0 7 193.48 22.4
9 8 -7 48.6 17.2
-9 -8 -7 37.2 14.8
-17 9 -7 51.69 19.3
-8 -9 7 15.4 9.4
8 -17 -7 53.89 13.2
8 -17 -7 42.3 14.9
17 -8 7 43.7 19.2
-8 17 -7 58.79 19.9
-17 9 -7 26.7 20.6
-9 -8 -7 30.2 11.1
-8 17 -7 100.49 27.1
9 -17 7 27.1 12.3
-17 8 7 49 17.3
-9 17 7 21.7 20.2
17 -9 7 15.1 17.4
-8 -9 -7 30.1 10.1
9 -17 -7 24.5 13.7
8 -17 7 17.4 11.9
-8 -9 -7 38 14.5
-8 17 7 33.4 21
8 9 -7 41.7 17.4
-9 -8 7 32.2 13.7
-17 8 -7 48.3 19.2
9 -17 -7 50.69 13.8
-17 9 7 33.6 19.2
-17 8 -7 36.6 19.7
-9 17 -7 52.19 18.2
-17 9 7 61.39 18.2
-17 10 -7 83.69 23.8
-17 10 -7 99.29 21
10 -17 7 82.39 15
-10 -7 -7 91.69 16.6
-10 17 7 82.39 23.1
-17 7 7 86.29 17.1
7 -17 -7 121.59 15.6
-7 17 -7 85.79 20.6
-10 -7 -7 76.69 13.1
7 -17 -7 84.69 16.3
-10 17 -7 66.19 18.2
-7 17 7 38 18.4
-17 10 7 62.09 20.9
-10 -7 7 40.7 15.7
-7 -10 -7 83.19 16.2
-17 7 -7 48.5 19.3
-10 17 -7 108.59 25
7 -17 7 59.99 12.7
17 -10 7 76.69 18.3
17 -7 -7 53.79 11.8
-17 7 -7 36.7 15.2
10 -17 -7 57.29 14
-7 -10 -7 45.7 9.7
-11 -6 -7 66.79 15.1
11 6 -7 78.39 16.9
-17 11 -7 68.89 21.6
-11 17 7 44.6 21.1
6 -17 -7 59.69 13.5
-6 17 -7 60.89 19.4
11 -17 7 58.59 14.1
-11 -6 -7 57.89 12.6
-17 11 -7 94.49 20.6
-6 17 -7 107.49 27.7
17 -6 -7 41.2 9.1
-11 17 -7 64.69 17.2
-11 17 -7 57.49 16.5
-6 -11 -7 67.19 15.9
17 -11 7 68.49 17.3
-17 6 -7 31.9 16.9
6 11 -7 70.69 18.7
6 -17 7 57.59 12.6
-17 11 7 38.2 18.8
11 -17 -7 37.1 13.2
-11 -6 7 45.3 17.7
12 -17 7 100.19 16.1
-5 17 -7 115.69 22.4
-12 17 7 58.79 20.4
12 5 -7 120.19 18.1
-12 -5 -7 97.99 21.1
-12 -5 -7 96.99 14.6
5 -17 -7 113.59 15.4
-17 12 -7 96.19 23.7
-5 17 -7 142.19 29.8
5 12 -7 145.49 23
-5 17 7 161.88 27.3
12 -17 -7 126.19 22.1
17 -5 -7 119.39 17.7
12 -17 -7 112.19 22.5
-12 17 -7 119.09 19.2
17 -12 7 133.89 19.6
-12 -5 7 106.39 21.2
-17 12 7 179.68 34.5
5 -17 7 134.19 26.6
-5 -12 -7 118.29 26.7
-17 12 7 79.99 21.7
-4 17 -7 243.28 37.9
-17 13 -7 195.18 26.8
4 -17 -7 199.48 23.9
13 -17 -7 272.97 30.9
17 -4 -7 279.17 29
4 -17 7 332.07 35.1
-17 13 7 359.56 40.3
-4 -13 -7 339.97 35
13 -17 -7 341.37 30.4
17 -13 7 299.27 39.2
4 13 -7 342.67 36.7
17 -3 7 -1.1 5.9
-17 14 -7 28.4 17.3
14 -17 7 -3.5 11.2
3 -17 -7 24.6 15.2
17 -14 -7 -0.4 7.6
14 3 -7 5.1 13
-3 -14 7 0.9 7.3
-3 17 -7 -16.5 17.5
-17 14 -7 3.8 10.6
3 -17 -7 -0.5 12
-3 -14 -7 49.8 12.5
3 14 -7 62.89 15.8
17 -14 7 32.8 14.9
14 -17 -7 56.19 12.7
14 3 7 53.59 11.8
3 -17 7 35.1 12.1
14 -17 -7 36.8 12.6
17 -3 -7 37.8 12
-17 15 -7 58.89 18
15 2 -7 29.4 13.1
-2 17 -7 24.1 15.9
15 -17 7 32.3 12.3
2 -17 -7 64.09 17.7
2 -17 -7 51.99 12.8
17 -15 -7 35.9 10
-15 17 7 51.49 12.9
-2 -15 7 31.3 10.6
17 -15 7 23.3 13.2
2 15 -7 27.7 10.4
2 -17 7 53.19 12.5
15 -17 -7 59.49 12.4
17 -2 -7 53.79 12.6
-2 -15 -7 49.9 12
15 2 7 44.6 11.2
15 -17 -7 42.3 10.5
-17 16 -7 354.06 41.3
-16 17 7 274.17 35.7
1 -17 -7 398.06 31.1
16 -17 7 320.87 36.4
16 1 -7 306.27 31.1
17 -16 -7 306.67 28.9
-1 -16 7 350.76 33.5
17 -16 7 243.68 34.9
-1 -16 -7 289.07 26.8
17 -1 -7 243.88 27
-17 16 7 297.07 34
16 1 7 267.37 25.6
-1 -16 -7 336.97 34.7
1 -17 7 266.67 31.2
16 -17 -7 255.17 26.6
17 -17 7 29.9 12.2
-17 17 -7 38.7 15
17 0 -7 47.4 12
0 -17 -7 49.8 11.7
17 -17 -7 37 10.8
-17 17 7 69.99 17.4
0 -17 -7 58.59 16.9
17 0 7 37 9.6
0 -17 7 32.6 10.7
-9 18 7 34.1 14.6
-9 18 -7 48.7 18.4
-18 9 7 36.3 17.2
-9 -9 -7 8.1 13.8
9 -18 -7 14.7 12.9
18 -9 7 -5.4 15.1
-18 9 -7 3.7 11.9
-18 9 -7 19.1 16.7
9 -18 7 2.1 10.6
9 9 -7 0.5 14.8
-9 18 -7 25.4 17.8
-9 -9 -7 1.9 10.5
9 -18 -7 -8 12.4
18 -8 7 35.8 17.9
-18 10 -7 79.49 19.2
-10 -8 -7 36.8 11.5
-8 18 -7 75.39 19.1
-18 10 -7 12.6 13.5
10 8 -7 43.3 15.7
10 -18 7 22.1 11.6
8 -18 -7 69.79 13.9
-18 8 7 59.59 17.4
-10 -8 -7 55.49 14.9
-10 18 -7 80.29 18.6
-18 8 -7 59.59 19.1
8 -18 7 51.59 12.3
-8 -10 -7 68.49 15.1
10 -18 -7 60.79 14.3
-8 -10 -7 39.1 10.8
18 -10 7 46.2 16.6
8 10 -7 59.79 17.2
10 -18 -7 40.8 14
-11 -7 -7 58.29 14.8
-18 7 7 50.89 15.1
11 -18 7 63.59 13.5
-18 11 -7 27.2 15
7 -18 -7 41 12.9
-7 18 -7 50.69 16.4
11 7 -7 77.39 16.4
-11 -7 -7 48.2 11.7
-7 18 -7 91.99 19.9
-11 18 -7 74.29 17.7
11 -18 -7 38.9 13.6
-11 18 -7 18 12.1
7 -18 7 37.6 11.8
7 11 -7 72.99 18.3
-7 -11 -7 60.99 14.8
18 -11 7 46.7 15.8
-18 7 -7 35.6 17.5
-7 -11 -7 37.3 10.1
-6 18 -7 18.5 18
12 6 -7 -0.9 13.6
6 -18 -7 0.5 11.6
12 -18 7 -11.4 10.8
-12 -6 -7 5 11.6
-12 -6 -7 -1 10.6
-6 18 -7 21 12.5
-12 18 7 21.4 14.4
-18 12 -7 2.9 11.8
-6 -12 -7 14.2 13.9
-6 -12 -7 3.5 7.2
18 -12 7 -17.9 14.1
12 -18 -7 6 12.1
-12 18 -7 10.6 15.4
6 -18 7 -3.7 10.6
-6 18 7 32.3 14.4
18 -6 -7 4.7 5.9
-12 -6 7 -5.1 7.4
12 -18 -7 -3.7 12.3
-18 6 -7 -3.4 14.6
6 12 -7 5.3 16.4
13 -18 7 68.29 13.8
5 -18 -7 91.39 14.3
13 5 -7 82.39 16.2
-5 18 -7 82.69 20.2
-13 18 7 106.59 25.5
5 -18 7 87.49 14
13 -18 -7 73.29 14.7
13 -18 -7 142.79 20.7
18 -5 -7 81.99 13.4
18 -13 7 100.69 17
-13 18 -7 107.89 17
-5 18 7 118.99 25.2
-5 -13 -7 123.79 24.3
14 -18 7 -5.1 10.8
-4 -14 7 4.9 5.3
4 -18 -7 -7.5 11.6
-18 14 -7 34.5 16.9
-4 18 -7 1.5 17.6
18 -14 -7 -2.8 7.3
4 -18 -7 12.7 11.6
-14 18 7 30.8 13.8
14 4 -7 -8.8 12.7
-14 18 -7 7.7 11.5
18 -4 -7 6.9 7.7
18 -14 7 -15.5 14.5
14 4 7 11.5 10.5
-4 -14 -7 21.7 13.9
4 -18 7 -0.1 10.5
14 -18 -7 19.2 11.6
-18 14 7 48.4 17.2
4 14 -7 29 14.9
14 -18 -7 18.9 11.3
18 -15 -7 142.89 18.6
-15 18 7 158.48 26.2
3 -18 -7 194.48 23.2
-3 -15 7 168.38 22.5
-3 18 -7 143.69 34.2
15 -18 7 147.19 27.8
15 3 -7 157.48 23.7
3 -18 7 221.38 29.8
18 -15 7 188.58 34.1
18 -3 -7 192.08 22.5
3 15 -7 259.17 28
15 -18 -7 231.68 24.5
15 3 7 257.47 25.2
-18 15 7 283.57 34.3
-3 -15 -7 271.17 30.6
-16 18 7 19.2 10.7
18 -16 -7 13.4 9.1
2 -18 -7 23.9 11.6
2 -18 -7 40.1 16.4
-2 -16 7 15.8 9.9
-18 16 -7 41.9 16.7
-2 18 -7 20.6 10
16 2 -7 22.1 12
16 -18 7 21.5 11.4
2 -18 7 17.2 10.3
2 16 -7 17.5 7.8
16 2 7 30.3 11
16 -18 -7 39 10.7
-2 -16 -7 44.4 14.9
18 -2 -7 32.9 9.9
18 -16 7 31.9 12.8
-1 -17 7 69.39 11.3
17 -18 7 51.89 12.5
18 -17 -7 84.39 10.9
18 -1 7 49.5 7.9
-1 -17 -7 113.09 18.7
1 -18 7 87.99 12.8
18 -1 -7 96.39 16.3
17 -18 -7 80.89 12.1
17 1 7 95.59 16.4
-18 18 7 306.07 32.7
0 -18 7 409.56 33
18 0 -7 322.97 28.7
18 -18 7 356.26 34.4
18 -18 -7 368.06 28.8
9 -19 -7 -1 11.9
19 -9 7 -12 15.6
-19 10 -7 18.7 16.4
-19 9 7 18.5 16.1
-10 -9 -7 -3.6 12.5
10 9 -7 -3.2 13.4
-10 -9 -7 0.1 10
-10 19 7 28.7 14.1
10 -19 7 -2.3 9.1
10 -19 -7 -3.2 11.7
-10 19 -7 32.7 16.2
9 10 -7 -8.1 13.7
-19 9 -7 19.4 16.4
-9 19 7 36.2 14.6
-9 -10 -7 -0.4 10.1
-19 10 7 28 15.8
9 -19 7 -5.9 9.9
19 -10 7 -11.7 14.3
-9 -10 -7 -0.4 12.9
-19 8 7 56.89 15.2
-11 -8 -7 60.89 12.2
11 8 -7 68.59 15
11 -19 7 63.39 12.3
19 -8 7 65.89 18.1
8 -19 -7 103.39 14.2
-11 -8 -7 74.19 14.7
19 -11 7 42.4 15.8
-19 11 7 128.09 27.7
8 -19 7 84.09 13.3
-8 -11 -7 59.79 11.6
-8 -11 -7 86.89 15.5
8 11 -7 85.79 16.8
-19 8 -7 71.39 18.5
11 -19 -7 103.59 14.6
-12 -7 -7 199.38 25.1
-12 19 7 204.88 29
-19 12 -7 277.97 35.6
12 7 -7 193.18 26.9
19 -7 7 200.38 40.1
12 -19 7 211.18 29.2
-7 19 -7 293.87 40.5
7 -19 -7 226.88 25.6
-7 -12 -7 149.69 24.4
12 -19 -7 229.18 25.5
19 -12 7 168.48 22.3
-19 7 -7 145.79 31.3
7 12 -7 240.98 29.7
-7 -12 -7 177.88 26.2
7 -19 7 190.78 27.2
-19 12 7 232.68 33
-12 19 -7 244.18 32.5
-7 19 7 219.98 29.2
13 -19 7 80.69 13.2
13 6 -7 96.69 21.2
6 -19 7 126.39 25.6
13 -19 -7 142.19 21.4
-6 19 7 154.28 25.9
-6 -13 -7 97.99 18.3
-6 -13 -7 120.29 24.5
-19 13 7 173.18 28.4
-13 19 -7 161.58 28.6
19 -13 7 126.79 18.5
19 -14 -7 9.3 6.6
-14 19 7 50.69 14.6
5 -19 -7 24.3 11.6
14 5 -7 28.9 13.1
-5 19 -7 43.5 18
14 -19 7 14.7 10.4
19 -14 7 45.7 14.1
-14 19 -7 39.9 13.8
5 -19 7 54.09 11.9
14 -19 -7 50.89 12
-5 19 7 30.1 10.8
14 -19 -7 71.79 12.5
14 5 7 38.3 10.9
-4 -15 7 60.09 12.9
15 4 -7 71.09 13.6
-4 19 -7 93.59 17.7
19 -15 -7 46.4 9.2
4 -19 -7 76.09 12.8
15 -19 7 68.49 12.4
15 -19 -7 68.29 12.1
4 -19 7 56.69 12.1
19 -15 7 51.99 12.8
-4 -15 -7 78.39 15.2
15 -19 -7 51.49 11.2
15 4 7 46.9 11.8
-19 16 -7 367.66 37
-3 19 -7 292.97 34
19 -16 -7 282.47 27.4
16 -19 7 361.76 34.7
3 -19 -7 387.56 33.8
-3 -16 7 348.17 30.2
16 3 -7 314.77 31
3 -19 -7 392.46 30.7
-19 16 7 381.26 38
16 -19 -7 389.16 32
3 -19 7 401.96 34.8
19 -16 7 338.17 37.2
-3 -16 -7 419.66 36
3 16 -7 331.87 31.6
16 3 7 371.26 31.7
19 -17 -7 49.3 9.2
17 -19 7 39.7 10.6
17 2 -7 51.69 11.6
-2 -17 7 45.9 9.6
2 -19 -7 72.19 11.1
-2 -17 -7 113.79 23.7
17 -19 -7 72.49 11.4
17 2 7 80.79 11.7
19 -17 7 105.09 21.8
2 -19 7 83.29 12.2
-19 17 7 126.29 23.4
19 -18 -7 50.89 8.2
18 1 -7 58.79 11.1
-1 -18 7 35.9 9
-19 18 -7 39.2 10.7
18 -19 -7 53.79 8.9
-19 18 7 52.29 14.7
-1 -18 -7 71.19 14.6
19 -19 7 103.19 12.3
0 -19 7 87.09 17.4
19 -19 -7 74.19 12.2
0 -19 -7 125.69 21.8
20 -10 7 24.1 15.3
10 10 -7 57.79 13.9
-20 10 -7 55.39 16.9
10 -20 7 31.4 10.6
-20 10 7 67.99 16.9
-10 -10 -7 47.4 12.8
10 -20 -7 55.59 12.1
-10 -10 -7 38.9 10.8
-11 -9 -7 34.1 10.6
-11 -9 -7 35.3 12.1
-20 9 7 32.4 14.6
-11 20 7 64.19 14
11 -20 7 31.4 10.2
20 -9 7 21.4 15.1
-20 11 -7 53.39 16.4
11 9 -7 42 12.8
9 -20 -7 41.3 11.6
9 11 -7 48.4 14.1
-9 -11 -7 35.1 10.3
11 -20 -7 51.69 11.8
20 -11 7 36.1 14.5
-20 9 -7 51.99 17.1
-20 11 7 65.49 16.5
9 -20 7 39.6 10.8
-9 -11 -7 53.39 13.2
-12 -8 -7 45.4 10.4
20 -8 7 84.49 17.6
12 -20 7 43.5 10.5
12 8 -7 62.79 13.7
-20 8 7 42.4 13.5
8 12 -7 45.1 13.9
-20 8 -7 14.5 13.8
-20 12 7 53.09 15.8
8 -20 7 25.4 10.3
-8 -12 -7 14.3 8.9
12 -20 -7 26.8 11.1
20 -12 7 20.1 12.8
-8 -12 -7 35.1 12.6
7 -20 -7 53.79 11.6
20 -7 7 36.3 15.7
13 7 -7 55.29 13.6
13 -20 7 37.7 10.3
7 -20 7 100.19 13.8
13 -20 -7 129.89 19.9
7 13 -7 127.79 22.3
-13 20 -7 151.98 30.4
20 -13 7 74.79 15.3
-7 -13 -7 83.89 18.4
-7 20 7 121.69 23.6
-7 -13 -7 104.09 15.8
6 -20 -7 2.8 10.3
-14 20 7 23.5 12.5
14 6 -7 6.2 11.7
20 -6 7 -14.2 14.5
14 -20 7 -7.7 8.9
-6 20 7 2.7 10.3
-20 14 7 34.5 15.2
6 14 -7 20 12.7
14 -20 -7 17.1 10.4
14 6 7 9.2 10.4
20 -14 7 12.6 11
-14 20 -7 22.3 12.9
-6 -14 -7 4.9 11.9
6 -20 7 -0.1 9.6
15 -20 7 155.18 23.4
15 5 -7 155.88 22
-5 20 -7 223.38 32.7
-15 20 7 151.98 25.4
5 -20 -7 161.78 20.2
15 5 7 176.28 20.9
5 15 -7 219.38 23.2
20 -15 7 162.98 24.7
15 -20 -7 190.88 22.2
-5 -15 -7 184.98 24.2
-20 15 7 200.48 26.8
5 -20 7 200.88 25.4
4 -20 -7 103.59 13.5
4 16 7 85.89 12.8
20 -16 -7 94.49 11.3
-16 20 7 132.99 19.5
-20 16 7 245.68 29.2
4 -20 7 204.88 26.1
-4 -16 -7 228.58 26
20 -16 7 223.98 25.6
16 4 7 209.38 21.8
4 16 -7 197.38 21.6
16 -20 -7 219.38 22
3 -20 -7 14 8.9
3 17 7 -1.8 8.4
-20 17 -7 33.6 14.2
17 3 -7 15.6 9.4
3 -20 -7 15.9 9
17 -20 7 17.4 7.9
17 -20 -7 15.2 8.5
17 3 7 5.7 7.6
-3 -17 -7 20.6 11.8
3 -20 7 8 8.4
-20 17 7 32.6 13.8
-20 18 -7 117.29 19.5
-2 -18 7 123.59 14.6
2 18 7 140.89 17.2
18 -20 7 141.89 15
-20 18 7 102.79 20.5
18 -20 -7 132.79 14
2 -20 7 125.89 19.8
20 -18 7 91.39 11.1
-1 -19 7 57.59 10.2
1 19 7 72.99 13.6
1 -20 7 98.59 16.3
-1 -19 -7 129.29 19.6
0 20 7 1.2 6.4
0 -20 -7 11 7.3
0 -20 7 4.4 2.8
-11 -10 -7 49.9 10.2
11 10 -7 72.49 12.9
-21 10 7 67.59 15.6
11 -21 7 61.39 10.7
-11 -10 -7 43.2 10.6
21 -10 7 74.49 13.4
10 -21 -7 56.79 10.9
10 11 -7 77.19 12.8
-21 10 -7 102.79 25.6
-10 -11 -7 61.89 12.2
-10 -11 -7 51.29 10.7
10 -21 7 54.69 11
11 -21 -7 74.69 11.4
21 -11 7 64.89 12.5
9 -21 -7 102.29 17.4
12 9 -7 102.89 14.5
21 -9 7 78.89 14.1
12 -21 7 64.69 11.3
-9 -12 -7 96.89 18.8
21 -12 7 130.09 24.6
-9 -12 -7 85.19 17.9
9 12 -7 122.79 20.3
-21 12 7 152.08 25.1
-9 21 7 139.29 22.4
9 -21 7 116.09 21.4
12 -21 -7 126.89 17.9
-13 21 7 116.89 22.4
8 -21 -7 78.09 11.7
13 8 -7 72.89 13.5
21 -8 7 59.39 14.3
13 -21 7 68.29 11.1
-21 13 7 140.39 24.1
13 -21 -7 119.59 17.2
-8 -13 -7 92.39 17
8 -21 7 109.49 21.5
8 13 -7 147.69 20.5
21 -13 7 160.68 23.7
-8 -13 -7 113.59 20
-8 21 7 128.29 20.2
13 8 7 90.39 12.8
21 -7 7 2 13.2
-21 14 -7 37.6 14.1
14 7 -7 4.8 10.5
-14 21 7 20.4 11
7 -21 -7 10.6 9.7
14 -21 -7 17.4 9.4
-14 21 -7 38.3 14.6
14 7 7 13.5 9
-7 -14 -7 19.8 11
-21 14 7 41.3 15.2
7 14 -7 36.4 11.5
21 -6 7 0.9 13.5
6 -21 -7 23.4 9.7
-15 21 7 25.6 10.7
-6 21 -7 48.2 14.4
15 6 -7 19.5 10.2
15 -21 7 14.6 8.2
-6 -15 -7 41 11.5
15 6 7 27.7 9.6
6 -21 7 15.5 9.1
-15 21 -7 25.9 9.4
15 -21 -7 54.29 9.6
16 -21 7 14.5 7.4
16 5 -7 6.7 9.2
-16 21 7 17.8 9.9
-21 16 -7 41.8 13.8
21 -5 7 3.7 12.8
5 -21 -7 20.5 9
-5 21 -7 29.5 10.4
-5 -16 -7 16.3 10.9
-21 16 7 33.6 13.6
16 -21 -7 12.9 8.3
5 16 -7 29.9 8.4
17 -21 7 103.79 12.2
17 4 -7 82.49 12.4
21 -4 7 126.89 25.2
4 -21 -7 106.39 15
-21 17 7 143.19 21.3
-4 -17 -7 161.08 20.7
4 -21 7 138.29 20.2
17 -21 -7 146.59 16.1
-21 18 -7 80.99 12.5
-21 18 7 118.49 16.3
18 -21 -7 150.88 12.5
-22 11 -7 143.39 23.9
11 -22 -7 170.28 18.2
22 -11 7 181.18 16.8
-11 22 7 160.48 21.9
11 -22 7 157.28 21.4
11 11 -7 168.38 20.3
-22 11 7 130.09 22.8
-22 12 -7 52.89 13.8
12 -22 7 29.5 8.7
10 -22 -7 39.7 9.3
12 10 -7 36 10.8
12 -22 -7 52.39 9
-10 22 7 43.6 10.5
10 -22 7 34.4 9.1
-22 10 -7 36.4 11.6
-22 12 7 46.6 13.9
10 12 -7 51.29 10.9
-10 -12 -7 28 7.6
22 -9 7 142.39 16.5
-13 22 7 126.09 19.7
9 -22 -7 116.19 16.5
13 9 -7 113.99 17.7
13 -22 7 119.99 19.4
-22 13 -7 148.29 24.3
13 9 7 62.49 9.9
9 13 -7 100.99 17
13 -22 -7 82.79 14.9
-9 -13 -7 64.79 14.5
-9 22 7 72.49 11.6
-22 13 7 99.69 22
14 8 -7 105.69 16.7
22 -8 7 128.69 15.4
8 -22 -7 104.99 16.1
-14 22 7 128.79 20.3
14 -22 7 103.89 17.2
-22 14 -7 133.49 23.6
-8 -14 -7 63.49 14.1
14 8 7 41.2 8
8 -22 7 43.5 9.3
14 -22 -7 53.99 9
15 7 -7 34.2 9.4
7 -22 -7 47.7 9
15 -22 7 26.9 6.7
-15 22 7 37.5 10.3
15 7 7 9.6 5.5
15 -22 -7 24.9 7.3
7 -22 7 13.3 7.9
-7 -15 -7 23.5 8.5
-15 22 -7 13.2 6.4
-6 22 -7 61.69 12.8
16 -22 7 88.59 9.8
-16 22 7 68.09 14
22 -6 7 109.49 12.3
16 -22 -7 161.08 15.4
6 -22 7 198.28 20.5
-22 16 7 164.98 21.3
-6 -16 -7 159.98 18.3
-22 17 -7 32.5 10.8
5 -22 -7 17.4 7
-5 -17 -7 31.1 9
-22 17 7 30 10.7
5 -22 7 25.9 7.5
-23 12 -7 24.4 9
-12 23 7 30.6 9.3
12 11 -7 43.1 8.9
11 -23 -7 34.9 6.9
12 -23 7 32.7 7
11 -23 7 40.5 7.6
12 -23 -7 44.1 7.5
-11 23 7 38 9
11 12 -7 65.09 13.3
-13 23 7 155.18 19.2
13 -23 7 174.18 16.7
13 10 -7 184.18 18.2
10 -23 -7 183.68 16.2
-23 13 -7 196.48 22.8
10 13 -7 266.27 23.4
-13 23 -7 321.37 27.9
13 -23 -7 229.98 21.2
10 -23 7 287.87 23.8
-23 14 -7 15.9 10.8
-14 23 -7 14.5 7.8
0 0 8 -3.8 10.4
0 0 -8 -2.5 12.8
1 -1 -8 428.76 35.7
1 0 8 439.66 35.6
-1 0 8 429.46 35.6
0 -1 -8 394.56 35.5
1 -1 8 431.16 35.6
-1 1 -8 430.06 36.8
-1 0 -8 401.96 35.4
0 1 8 403.36 35.4
0 -1 8 425.46 35.4
1 0 -8 432.46 37
-1 1 8 430.56 36.5
0 1 -8 415.26 36.9
2 -1 8 451.35 38.1
-2 1 8 463.45 37.7
-2 1 -8 447.06 37.5
1 1 -8 446.16 38.2
-1 2 8 466.75 37.8
-1 -1 -8 455.75 37.6
2 -1 -8 497.95 38.4
1 1 8 437.46 38
1 -2 8 461.85 37.9
-1 2 -8 430.56 38
-1 -1 8 472.85 38
-2 0 8 69.29 14.7
-2 0 -8 41.4 12.9
-2 2 8 79.99 16.6
-2 2 8 54.49 12
0 -2 8 75.49 14
2 0 8 47.9 13.6
-2 2 -8 57.29 14.7
2 -2 8 63.09 13.5
0 2 -8 76.49 15.1
0 2 8 56.69 12.7
2 0 -8 87.09 15.2
2 1 -8 155.88 20.6
-3 1 8 145.89 19
-3 1 8 143.09 18.1
-3 2 -8 119.09 19.9
-2 -1 -8 154.28 19.3
1 2 8 143.99 19.5
-1 -2 8 143.09 19.6
2 -3 8 150.58 19.5
3 -1 8 129.49 19.7
-2 3 8 148.29 17.9
-1 3 -8 136.79 22.3
-3 1 -8 111.59 19.8
-3 2 8 116.09 16.5
1 2 -8 122.69 19.4
-2 3 -8 126.59 21.5
-2 -1 8 125.49 18.5
3 -2 8 110.79 18.6
-1 3 8 86.69 13.7
2 1 8 140.19 19.1
-3 2 8 117.09 17
1 -3 8 135.69 20.2
3 -1 -8 138.79 19.6
-3 0 8 165.78 18.6
-3 3 -8 145.69 20.7
-3 3 8 143.99 17.9
0 3 -8 127.89 20.5
0 3 8 129.09 16.2
-3 0 8 160.88 19.5
3 0 8 130.79 20.2
0 -3 8 150.18 21.3
3 0 -8 141.99 20.3
3 -3 8 133.09 21.7
-3 0 -8 125.59 19.4
4 -2 8 530.85 43.9
-4 2 -8 535.75 44.1
2 2 8 563.94 45.1
-4 2 8 556.44 42.6
2 -4 8 572.94 43.4
-4 2 8 533.65 43.1
-2 4 8 481.25 42
2 2 -8 534.35 44.2
-2 -2 8 580.24 43.6
-2 4 -8 535.95 44
-4 1 8 505.35 41
4 -1 8 484.55 41.3
3 1 -8 501.85 41.1
-4 3 -8 492.25 41.1
-3 4 8 473.15 39.4
-1 -3 8 530.65 41.6
-4 1 8 546.25 40.8
-1 4 -8 511.75 42.4
3 -4 8 508.05 40.8
1 3 8 441.36 39.9
-1 4 8 326.37 29.9
3 1 8 336.17 31
1 3 -8 325.27 31
-3 -1 8 338.77 29.2
4 -3 8 343.77 32
-3 -1 8 362.46 31.4
-4 3 8 343.27 29.1
4 -1 -8 329.27 31.2
-4 1 -8 273.77 28.6
-3 4 -8 339.27 32.8
1 -4 8 358.16 30.4
-4 0 -8 71.59 11
-3 5 8 232.38 22.8
5 -2 8 180.68 23.9
-5 2 8 224.18 21.7
-2 -3 8 192.58 20.7
-2 -3 8 212.98 24.2
-5 2 8 179.48 22.2
3 2 -8 203.58 25.6
-5 3 -8 169.68 22.8
-2 5 -8 195.38 24.2
3 -5 8 219.18 24.4
2 3 8 198.18 22.4
-3 5 -8 217.68 25.2
2 3 -8 225.58 26.6
-2 5 8 218.78 22.2
-3 -2 8 214.98 23.5
-3 -2 8 210.68 22.3
5 -3 8 207.68 24.6
2 -5 8 226.78 23.5
-5 3 8 227.18 23.8
3 2 8 219.78 25
-4 5 8 350.56 30.9
-5 1 8 359.16 31.6
-1 -4 8 386.06 32.5
4 1 -8 347.37 33.1
4 -5 8 361.66 32.6
-1 5 -8 339.37 34.6
-5 1 8 383.26 31.4
-5 4 -8 389.46 34.7
-4 5 -8 383.56 36.4
-4 -1 8 438.66 34.9
5 -4 8 422.86 35.6
-5 4 8 404.56 33.7
-4 -1 8 412.76 34.3
1 -5 8 413.06 35.1
5 -1 -8 431.36 36
1 4 -8 375.96 35.7
-1 5 8 399.96 34.7
-5 0 8 741.93 54.69
0 5 8 647.54 53.69
-5 5 8 655.23 52.89
0 5 -8 685.83 55.89
-5 5 -8 720.33 55.59
5 -5 8 700.43 55.49
5 0 -8 694.93 54.69
0 -5 8 730.63 54.19
-5 0 8 739.43 54.09
-3 6 8 889.21 70.79
-3 6 -8 951.9 73.99
3 3 -8 967.1 73.19
-6 3 8 990.1 70.99
6 -3 8 947.11 72.89
-3 -3 8 980.6 71.79
3 -6 8 1031.7 72.19
-6 4 -8 1090.69 77.39
-6 4 -8 914.91 75.69
-6 2 8 1038.2 75.29
-4 6 8 1032.1 75.59
-2 -4 8 1090.89 75.99
-2 6 -8 995.3 77.19
4 2 -8 1025.6 76.49
-6 2 8 941.41 75.49
4 -6 8 1114.99 77.19
-2 6 8 843.82 65.19
-4 -2 8 761.62 64.89
-4 6 -8 914.51 67.89
2 -6 8 958.8 66.49
-6 4 8 853.71 65.09
6 -4 8 918.31 67.89
-4 -2 8 885.31 66.09
2 4 -8 915.51 67.79
5 -6 8 130.59 20
-6 1 8 127.19 19.9
-1 -5 8 117.69 18.7
-6 5 -8 149.09 21
5 1 -8 138.19 23.1
-6 1 8 113.89 18.5
-5 6 8 136.39 17.8
-6 5 -8 126.09 22.6
-1 6 -8 101.99 21.2
1 5 -8 77.39 17.1
-5 -1 8 100.79 17.4
-6 5 8 87.79 16
6 -5 8 91.39 16.5
-5 6 -8 95.19 19.6
1 -6 8 97.29 16.6
-1 6 8 86.59 15.9
-5 -1 8 87.09 17.1
6 0 -8 6.3 14.4
0 6 -8 5.8 13.2
-6 0 8 6.6 12.3
-6 6 8 15.4 10.9
-6 0 8 16.7 11.5
-6 6 -8 -3.3 16.5
6 -6 8 8.3 12.9
0 -6 8 4 11.4
0 6 8 6.2 10.1
-6 6 -8 22.8 15.1
-3 7 -8 109.89 24
4 -7 8 133.99 20.7
-3 -4 8 146.09 21.8
-7 3 8 160.88 19
-4 7 8 159.28 20.5
-7 4 -8 179.08 24.8
4 3 -8 118.79 22.3
-7 4 8 174.28 19.4
-4 7 -8 132.09 24.7
-7 3 -8 184.68 22.6
-3 7 8 163.88 21.2
7 -4 8 128.69 22.8
-4 -3 8 154.48 20.8
3 4 -8 139.99 22.9
3 -7 8 171.28 21.5
-7 2 8 515.25 39
-7 5 -8 504.75 41.5
-5 7 8 456.25 38.5
-7 2 8 437.76 38.9
-7 5 -8 389.46 38.1
5 -7 8 480.35 39.7
5 2 -8 468.75 41
-2 7 -8 446.96 41.3
-2 -5 8 491.95 38.9
-5 7 -8 548.85 46.5
-2 7 8 483.95 42.7
-5 -2 8 536.45 43.5
2 -7 8 573.54 44.6
-7 2 -8 543.25 44.3
-7 5 8 532.05 42.9
7 -5 8 547.95 46
2 5 -8 517.35 44.7
-1 -6 8 253.47 27
-7 1 8 225.08 24.9
-1 7 -8 218.98 28.4
-7 6 -8 233.68 28.2
6 -7 8 251.57 26.6
-6 7 8 241.18 24.1
-7 1 8 252.67 24.6
-7 6 -8 267.47 28.7
6 1 -8 237.48 28.1
7 -6 8 276.57 30.3
-7 6 8 276.37 25.8
1 6 -8 266.17 29.4
-6 -1 8 219.48 25.2
-6 -1 8 282.57 28.6
-6 7 -8 266.77 28.9
-6 7 -8 300.77 32
1 -7 8 287.07 27.3
7 -7 8 112.29 19.6
0 -7 8 98.09 18.6
-7 0 8 84.09 15.9
-7 7 8 118.99 19.3
-7 7 -8 102.19 22.1
0 7 -8 120.19 21.4
-7 7 -8 103.19 21.1
-7 0 8 83.89 15.8
-4 8 8 959.4 77.39
-4 -4 8 1093.79 78.19
-8 4 8 1057.09 77.39
4 -8 8 1082.39 78.69
-4 8 -8 1033.1 80.89
4 4 -8 1058.79 79.69
-8 4 -8 1092.39 80.39
5 -8 8 380.16 34.6
-3 8 -8 340.67 37
5 3 -8 353.76 34.5
-8 5 -8 394.96 36.7
-3 -5 8 384.16 33.3
-5 8 8 386.66 33.5
-8 3 8 386.16 32.7
3 5 -8 305.97 33.7
-5 -3 8 329.87 29.6
-3 8 8 268.37 27.4
-8 5 8 325.57 28.6
-8 3 -8 324.67 31.9
8 -5 8 308.57 32.4
-5 8 -8 311.97 34.5
3 -8 8 324.77 30.3
6 2 -8 124.99 21.6
-6 8 8 160.58 20.8
-2 8 -8 113.19 24.6
-2 -6 8 138.79 20.3
-8 2 8 116.99 21.2
-8 2 8 171.28 19.9
6 -8 8 165.38 24.9
-8 6 -8 104.29 17.6
-8 6 -8 159.58 24.3
2 6 -8 112.89 25.1
8 -6 8 120.29 22.4
-8 2 -8 117.39 21.3
-6 8 -8 128.39 23
-8 6 8 120.59 18.1
2 -8 8 124.99 20.4
-6 -2 8 131.29 22.2
-8 7 -8 131.89 23.8
-8 1 8 90.59 17.3
7 -8 8 100.89 18.9
-1 -7 8 113.99 21.4
-8 1 8 88.09 18.7
-7 8 8 125.79 20.1
-8 7 -8 107.19 22.9
-1 8 -8 114.29 22.7
8 -7 8 104.79 18.9
-7 8 -8 114.79 22.4
1 -8 8 113.39 21.7
1 7 -8 115.79 21.7
-7 -1 8 104.89 19.8
-8 7 8 104.89 18.1
-7 8 -8 95.79 23.1
-1 8 8 116.69 24.2
0 -8 8 20.3 13.9
0 8 -8 12.8 16.8
-8 8 8 33.1 13.1
-8 0 8 11 12.1
8 -8 8 21.5 16.6
-8 0 8 8.8 10.6
-8 8 -8 24 18.3
0 8 8 11.9 14
-8 8 -8 32.1 17
5 4 -8 388.76 37.3
-9 5 -8 423.46 39.5
5 -9 8 389.76 36
-4 -5 8 426.06 35.8
-4 9 -8 375.06 40.5
-5 9 8 442.76 38
-5 9 8 392.06 35.3
-9 4 8 432.96 35.5
-9 4 -8 471.15 40.9
4 5 -8 441.36 40.8
-4 9 8 475.25 41.1
-5 9 -8 420.86 42.6
4 -9 8 400.36 37.2
-9 5 8 452.25 37
-4 9 8 367.16 35.8
-5 -4 8 478.15 38.9
-3 9 -8 209.88 27.5
-9 6 -8 154.08 26.3
-3 -6 8 158.28 23.4
-6 9 8 161.28 21.8
6 -9 8 132.89 23.6
-9 3 8 162.28 20.8
-9 3 8 107.49 20.1
-6 9 8 166.98 27
-9 3 -8 182.48 25.7
-3 9 8 201.68 27.6
-6 9 -8 163.88 29.7
3 -9 8 160.48 22.1
3 6 -8 178.68 26.2
-6 -3 8 172.48 22.9
-9 6 8 169.38 21.5
9 -6 8 184.88 26.3
-9 7 -8 227.48 29.8
-7 9 8 218.08 23.6
-9 2 8 177.58 23.6
-7 9 8 244.68 28.2
-9 2 8 219.78 23.7
-2 -7 8 216.28 24.6
7 -9 8 214.98 26.6
-2 9 -8 187.28 30
9 -7 8 213.58 29.9
-9 7 8 199.98 22.8
-2 9 8 187.98 25.9
2 7 -8 187.28 27.5
-7 9 -8 206.68 33.8
-7 9 -8 186.98 26.2
-9 2 -8 202.98 26.1
-7 -2 8 196.98 24.4
2 -9 8 193.18 23.1
-1 -8 8 461.15 37.7
-1 9 -8 478.55 44.6
-9 1 8 369.46 36.4
-9 8 -8 483.85 42.8
8 -9 8 431.46 39.4
-8 9 8 436.26 37
-9 8 -8 398.16 38.3
-9 1 8 412.06 37.4
-9 8 8 393.36 35.1
1 8 -8 422.26 41.5
1 -9 8 361.86 35.8
-8 9 -8 398.56 40.6
-8 -1 8 422.56 37.6
9 -8 8 431.76 38.6
-8 9 -8 406.26 39.1
-1 9 8 384.06 38.9
0 9 8 221.98 28.1
-9 9 -8 254.17 32.7
-9 0 8 225.18 27.3
-9 9 8 256.57 27
0 -9 8 235.98 27.6
-9 9 -8 230.08 31.9
0 9 -8 270.47 35.7
-9 9 8 311.97 33.5
9 -9 8 255.67 30.7
-5 10 -8 536.95 52.79
-10 5 -8 620.74 50.09
-10 5 8 603.14 46.3
-5 -5 8 585.84 46.7
5 5 -8 476.05 44.8
-5 10 8 562.44 48.5
5 -10 8 496.25 45.4
-4 10 -8 186.18 32
-6 10 8 240.18 28.1
-10 4 8 237.68 25.4
6 -10 8 211.88 26.1
-6 10 8 206.38 25
-4 -6 8 229.48 27.1
-10 6 -8 229.28 30.8
-10 6 8 228.28 25.5
4 -10 8 195.28 25.7
-10 4 -8 257.57 30.8
4 6 -8 249.28 30.1
-4 10 8 238.58 30.5
-6 10 -8 198.98 36.2
-6 -4 8 236.28 25.9
-10 7 -8 78.59 22.2
-3 10 -8 54.69 21.4
-3 -7 8 52.79 14.5
-7 10 8 49.7 14.4
7 -10 8 47.4 14.9
-7 10 8 75.29 18.2
-10 3 8 31.3 12
-10 3 8 69.49 16.8
-7 10 -8 21.5 20.6
-10 3 -8 38.4 18.1
3 -10 8 18.3 12.4
3 7 -8 33.1 18.2
-10 7 8 50.09 14.4
-3 10 8 31.1 16
-7 -3 8 33.8 14.6
10 -7 8 35.2 17.1
-10 2 8 183.88 25.1
8 -10 8 220.28 26
-8 10 8 222.08 26.7
-2 10 -8 197.38 32.5
-10 8 -8 209.98 31.2
-2 -8 8 242.08 25.6
-8 10 8 249.28 31.5
-10 2 8 178.68 26
-10 2 -8 237.18 28.8
10 -8 8 233.58 29.2
-10 8 8 233.68 25.5
2 8 -8 229.88 30.3
-10 8 8 223.18 27.8
2 -10 8 187.68 24.8
-8 10 -8 246.28 36.3
-2 10 8 192.68 30.2
-8 -2 8 233.38 26.4
-8 10 -8 204.68 30.8
-10 9 -8 246.68 33.2
-1 10 -8 228.98 34
9 -10 8 247.68 28.2
-1 -9 8 245.58 27.8
-10 1 8 200.08 26.8
-9 10 8 241.88 28.4
-9 10 8 260.47 33.4
1 -10 8 170.98 23.2
10 -9 8 223.48 29.3
1 9 -8 223.98 33.9
-1 10 8 172.78 29.1
-9 10 -8 226.58 33.1
-9 10 -8 220.98 30.2
-9 -1 8 207.38 28.1
-10 9 8 254.57 32.1
-10 9 8 226.28 25.5
10 -10 8 515.25 45
-10 10 -8 540.25 46.2
-10 0 8 516.65 44.9
-10 10 -8 532.55 49.4
-10 10 8 577.84 47.3
0 10 -8 568.74 50.19
-10 10 8 529.45 44.5
0 -10 8 428.36 42.3
-11 6 -8 31.8 21
-5 11 -8 24 22.6
-5 -6 8 36.1 13.8
-6 11 8 34.1 16.8
6 -11 8 15.6 9.4
-11 5 8 35.5 15.3
-11 5 -8 35.6 20.9
-6 -5 8 45.7 15.5
-6 11 -8 7.2 22.3
-11 6 8 37.3 15
-5 11 8 31.3 18.5
-7 11 8 223.68 31.1
-4 11 -8 168.28 36.1
-11 7 -8 195.18 31.3
-7 11 8 188.78 25.3
-11 4 8 239.48 28.3
-4 -7 8 235.28 26
-11 4 -8 262.87 32.6
4 7 -8 209.18 27.2
-11 7 8 257.17 29.4
-7 11 -8 225.08 38.3
-4 11 8 239.98 32.6
-7 -4 8 265.77 27.7
-8 11 8 111.79 21.4
-11 3 8 88.89 18.3
-3 -8 8 88.89 17.1
-11 8 -8 119.59 24.8
-3 11 -8 110.99 27.6
-8 11 8 80.79 18.4
11 -8 8 94.39 21.8
-8 -3 8 104.39 18.6
-11 3 -8 96.79 22.3
-8 11 -8 79.29 24.5
-11 8 8 93.99 19
-8 11 -8 68.09 18.8
3 8 -8 95.39 21
-3 11 8 53.89 18.6
-11 8 8 64.69 17.6
-11 2 8 244.18 30.1
-11 9 -8 251.07 34.6
-2 11 -8 292.87 36.8
-11 2 8 194.18 25.2
-2 -9 8 267.67 29.3
-9 11 8 255.87 28.2
-9 11 8 280.77 34.6
-9 11 -8 257.67 32.9
-2 11 8 242.98 33.7
-9 11 -8 310.67 38.6
-11 9 8 295.67 32
2 9 -8 316.37 37.2
-11 9 8 262.97 32.8
-9 -2 8 284.87 32.2
11 -9 8 331.27 34.3
-11 2 -8 273.37 33.4
-1 11 -8 569.04 52.89
-10 11 8 579.24 49.1
-1 -10 8 415.66 41.5
-11 1 8 497.35 44.2
-11 10 -8 541.95 51.49
10 -11 8 465.35 40
-10 11 8 527.95 45.6
-10 11 -8 420.26 46
-11 10 8 447.46 43.4
11 -10 8 430.56 40
-10 11 -8 425.56 43.3
1 10 -8 477.85 47.6
11 -10 8 471.25 37.3
-10 -1 8 467.25 42.2
-11 10 8 467.15 40.3
-1 11 8 370.26 40.1
11 -11 -8 1.4 6.6
-11 0 8 -3.9 14.9
11 0 -8 9.5 9.8
-11 11 8 -10.1 17.4
-11 11 8 -11.4 15.8
-11 11 -8 0.5 19.5
11 -11 8 11.7 9.6
11 -11 8 14.8 10.7
0 -11 8 -1.8 8.7
0 11 -8 -22.4 20.7
-11 11 -8 17.6 10.7
-6 -6 8 29.1 15.3
-6 12 -8 9.6 21.5
6 -12 -8 6.5 5.7
-6 12 8 14.8 18.2
-12 6 -8 24.4 20
-6 -6 -8 10.9 6.6
-12 6 8 26 17.6
12 -6 -8 5.3 4.1
-12 6 8 -1 6.1
-7 -5 -8 160.58 17.2
-12 7 8 143.09 18.8
-5 -7 -8 125.39 15.2
-7 12 -8 195.68 35.8
7 -12 -8 126.49 14.5
-12 8 -8 83.79 18.1
12 -8 -8 49.3 8.8
8 4 -8 63.79 10.5
-4 12 -8 73.19 15.9
-4 -8 -8 72.09 12.8
8 -12 -8 91.69 12.8
-8 12 -8 143.09 31
12 -4 -8 89.39 11.7
-12 3 8 10.7 11.1
-9 -3 -8 11.7 6.6
-3 12 -8 -12.4 23.4
-3 -9 8 5 13.9
-9 12 8 7.9 15.4
12 -9 -8 3.5 5.2
-9 12 8 -3.3 18
-12 3 8 12.8 14.1
-12 9 -8 15.6 19.9
9 3 -8 3.6 8.1
3 -12 -8 1.4 4.4
3 9 -8 19.5 11.9
12 -9 8 23.2 17.3
-12 3 -8 4.1 19
-12 9 8 9.1 10.7
9 -12 -8 1.7 7.2
12 -3 -8 4.2 7
-9 -3 8 -6.7 15
-3 12 8 -8.6 19
-9 12 -8 -0.7 12.4
-9 12 -8 -4.4 20.5
-12 9 8 6.4 15.3
-3 -9 -8 -0.7 6
12 -9 8 25.1 11.1
-2 -10 8 115.59 21.2
-10 -2 -8 82.49 13.6
10 2 -8 122.69 19.1
-2 12 -8 64.69 14.9
-10 12 8 113.19 21.2
-12 2 8 113.69 20.3
-10 12 8 100.79 21.9
-12 10 -8 141.09 28.4
12 -10 -8 91.09 13.4
-2 12 -8 128.39 27.3
-12 10 -8 66.79 19
-2 12 8 110.39 22.3
-10 -2 8 101.19 20.3
-10 12 -8 106.69 23.8
-12 10 8 115.99 22
2 10 -8 135.79 26.4
-12 2 -8 81.89 19.2
12 -10 8 127.19 20.9
10 -12 -8 103.69 15.7
12 -2 -8 122.99 18
-12 10 8 82.59 18.6
-10 12 -8 103.79 23.6
11 1 -8 167.38 22
-12 11 -8 178.98 30.5
-11 12 8 128.59 23.4
-1 12 -8 168.38 33.2
11 -12 8 187.48 30.6
12 -11 -8 122.59 16.5
-11 12 8 100.39 16.3
-11 12 8 140.39 31.5
-12 1 8 128.89 24.8
-12 11 8 115.59 26.6
11 -12 -8 171.28 19.4
1 11 -8 192.08 32.5
-12 11 8 137.89 25.6
-11 -1 8 151.98 29.2
12 -1 -8 173.48 21.7
12 -11 8 201.28 32.6
-11 12 -8 164.38 28.8
-11 12 -8 157.48 22.9
0 12 -8 2.3 6.7
12 0 -8 -2.3 11.4
-12 12 -8 3.4 19.4
-12 12 8 -0.5 16.1
0 12 -8 3.4 22.1
-12 12 8 -13.5 16.4
0 -12 -8 -4.8 6.9
12 -12 8 -6.6 13.3
-12 0 8 -9.2 15.2
12 -12 -8 5.1 9.6
-7 -6 -8 52.29 13.1
-13 7 -8 30.7 23.6
-6 13 -8 14.2 25.4
13 -7 -8 27.7 7.4
-6 -7 8 28.3 14.8
7 6 -8 24.2 8.7
6 -13 -8 33.5 11.4
-13 7 -8 -5.7 17.1
-7 13 8 16.6 20
-13 6 8 19 16.9
-13 7 8 -5.9 15.8
-7 -6 8 3.9 15.8
6 -13 8 22.5 6.7
-6 -7 -8 17.2 12.1
13 -6 -8 11.1 7.2
7 -13 -8 6.7 10.3
-6 13 8 -5.5 17.6
-7 13 -8 -22 22.9
-13 6 -8 5.9 23.1
-5 13 -8 42.3 26.1
5 -13 -8 68.89 12.5
-8 13 8 39.5 19.9
-8 -5 -8 74.89 13.6
8 5 -8 50.49 12.2
-13 5 8 43.4 19.9
-13 8 -8 49.99 22.6
-5 -8 8 57.79 17
13 -8 -8 54.99 11.9
-5 -8 -8 48 12.8
-8 13 -8 53.59 26.6
-13 8 8 38.5 17.9
-13 8 8 84.59 18.4
13 -8 8 69.39 19.5
-13 5 -8 65.99 23
13 -8 8 85.19 17.4
8 -13 -8 53.39 12
13 -5 -8 56.19 10.5
-5 13 8 26.2 18.7
-8 -5 8 64.69 18.4
-13 9 -8 235.08 37.2
-4 -9 8 292.37 31.3
-9 13 8 309.27 38.2
-13 9 -8 260.37 34
-9 -4 -8 347.37 29.3
-4 13 -8 322.97 45.6
9 4 -8 353.56 30.3
-13 4 8 243.28 31.9
4 -13 -8 328.47 27.6
13 -9 -8 275.77 25.2
13 -9 8 302.47 34.6
13 -9 8 367.06 39.7
-4 -9 -8 293.27 29.3
-13 9 8 252.77 33.7
13 -4 -8 280.17 26.6
9 -13 -8 285.57 27.1
-9 -4 8 287.17 34.1
-9 13 -8 272.87 38.1
-4 13 8 238.98 37.3
-13 9 8 253.87 38
-13 4 -8 279.37 39.3
3 -13 -8 370.26 32.7
10 3 -8 437.16 35.9
13 -10 -8 339.67 31.4
-3 13 -8 420.76 49.7
10 -13 8 459.35 40.9
-10 13 8 362.56 43.1
-3 -10 8 336.37 35.7
-13 10 -8 398.36 43.2
-10 -3 -8 411.66 33.7
13 -10 8 365.86 38.5
10 -13 -8 279.27 26.3
13 -3 -8 307.67 27.4
-3 -10 -8 294.57 29.5
-13 10 8 216.48 34.3
-13 3 -8 283.87 34.5
-3 13 8 210.68 35.4
-10 -3 8 278.77 33.9
-10 13 -8 271.77 37.4
-13 10 8 246.88 33.3
11 2 -8 120.09 23.4
-11 13 8 93.59 20.7
2 -13 -8 153.98 18.4
-2 13 -8 92.19 21.4
-13 11 -8 156.98 29.2
-2 13 -8 183.48 33.3
-13 11 -8 114.69 24.2
11 -13 8 118.89 17.2
-11 13 8 116.59 17.3
-13 2 8 129.99 22.6
-11 13 8 120.69 25.7
13 -11 -8 133.19 17.7
-11 -2 -8 151.38 18.8
-11 13 -8 173.18 25.1
-13 11 8 137.89 26.2
11 -13 -8 169.08 20.6
-13 11 8 155.18 22.8
-2 -11 -8 166.08 24.8
13 -2 -8 174.08 23.2
-11 -2 8 146.09 27.2
13 -11 8 164.78 34
-12 13 8 162.68 33.4
12 1 -8 197.28 25.7
13 -12 -8 204.68 21.5
-1 13 -8 129.59 28.9
-13 12 -8 185.78 32.4
-13 12 -8 192.18 27.6
-1 13 -8 200.78 36.7
-13 1 8 183.48 28.8
12 -13 8 215.98 33.5
-12 13 8 129.29 28.2
-13 12 8 138.69 30.9
-12 -1 8 94.99 21.2
-1 -12 -8 134.39 24.3
13 -1 -8 148.89 21.6
-12 13 -8 86.69 22.4
-13 12 8 91.09 21
13 -12 8 150.38 32.1
-13 12 8 108.19 18.8
12 -13 -8 133.09 19.6
-13 13 -8 155.98 35.5
13 0 -8 254.37 26.4
-13 13 -8 190.18 33.7
-13 13 8 173.48 24.7
-13 13 8 233.38 34
-13 13 8 201.98 31.2
13 -13 -8 237.78 24.6
0 -13 -8 244.98 29.6
-13 0 8 229.98 31.6
13 -13 8 215.88 36.6
7 7 -8 -8.2 12.6
7 -14 8 -6.4 11.2
-7 14 8 -7.6 19.1
-14 7 8 23.6 15.5
7 -14 -8 6.4 12.1
-14 7 -8 -25.2 17.5
-7 -7 8 11.2 15.6
-14 7 -8 -9.1 20.4
-14 7 8 -6.5 16.6
-7 -7 -8 -4.2 13.5
-7 14 -8 -32.1 23.5
14 -7 -8 5.9 9.4
-14 6 8 43.4 20.4
6 -14 -8 51.19 13.5
-8 14 8 34.5 20.9
-14 8 -8 32.9 21.8
14 -8 -8 78.99 15.6
-8 -6 -8 73.59 15.2
-6 -8 8 53.99 17.7
8 6 -8 36 15
-6 14 -8 46.2 26.8
8 -14 8 47.3 13.6
6 -14 8 41.8 11.5
-14 6 -8 36.8 22.1
6 8 -8 28.2 12
8 -14 -8 37.8 12.6
-6 14 8 37.4 20.9
-6 -8 -8 27.8 13.8
-14 8 8 43.3 17.8
14 -6 -8 44.5 11.3
-14 8 8 21.6 17.7
-8 -6 8 24.6 17.6
-14 6 -8 2.3 17.8
-8 14 -8 26.6 25.4
14 -8 8 29.3 16.7
-14 5 8 331.07 38.6
-14 9 -8 366.66 43.7
5 -14 -8 427.56 36.1
-9 14 8 402.86 44.3
14 -9 -8 404.66 33.3
-9 -5 -8 459.35 38.3
-5 -9 8 375.66 39.5
9 5 -8 448.96 37.6
-5 14 -8 436.26 51.99
-5 -9 -8 416.06 35.3
-14 9 8 328.67 38.9
9 -14 -8 365.66 31.8
-14 5 -8 391.96 44.1
-9 -5 8 348.07 38
-5 14 8 263.37 38.8
-14 5 -8 302.47 37.8
-9 14 -8 366.16 45
-14 9 8 288.87 39.9
14 -9 8 346.97 35.2
14 -5 -8 364.86 31.1
-4 14 -8 39.1 21.4
10 4 -8 69.59 15.7
-14 10 -8 70.09 23.5
-14 10 -8 51.89 20.7
-10 14 8 72.19 23.7
4 -14 -8 62.09 14.2
-4 -10 8 46.6 13.2
-4 14 -8 82.39 27.7
14 -10 -8 95.49 16.6
10 -14 8 84.49 15.2
10 -14 -8 85.09 14
-10 14 -8 44.7 15.5
14 -10 8 61.69 15.9
-14 10 8 61.79 19.6
-4 -10 -8 88.89 17.1
4 -14 8 122.89 22.9
-10 -4 8 80.49 21.3
14 -4 -8 75.89 13.4
-10 14 -8 119.19 27.5
-14 4 -8 55.39 20.8
-4 14 8 69.89 22.1
-14 10 8 57.79 17.8
14 -11 -8 97.79 18.7
11 -14 8 117.99 18
11 3 -8 90.69 16.9
-3 14 -8 124.49 31.7
3 -14 -8 101.39 22.5
-3 14 -8 56.29 22.5
-11 -3 -8 138.89 22.1
-14 11 -8 97.89 26.9
-11 14 8 88.49 25
-14 11 8 137.99 26.1
-3 -11 -8 179.68 28.9
14 -11 8 176.18 36.9
-14 11 8 128.19 33.2
11 -14 -8 205.38 23.1
-11 -3 8 143.39 28.7
3 -14 8 231.58 23.8
-11 14 -8 171.68 27.1
14 -3 -8 210.78 24.5
12 2 -8 113.49 22.3
-12 14 8 107.39 24.9
2 -14 -8 62.09 11
-2 14 -8 129.69 29.6
-14 12 -8 83.59 25.2
-2 14 -8 61.69 20.7
-14 12 -8 60.39 20.2
14 -2 -8 54.79 13.7
2 -14 8 36.6 9.7
-12 -2 8 35.9 19.1
12 -14 -8 44.8 12
-2 -12 -8 63.49 16.9
14 -12 8 45.9 15.3
-14 12 8 55.69 18.1
-14 12 8 18.1 17.8
-1 14 -8 118.29 20.4
-14 13 -8 116.39 26
13 1 -8 172.78 23.9
1 -14 -8 146.49 16.2
14 -13 -8 144.79 21.2
13 -14 8 144.39 30.7
-13 14 8 103.29 21.7
-14 13 -8 151.58 37.5
-14 1 8 96.79 19.5
1 -14 -8 145.19 24.8
-13 -1 8 186.98 28.7
-1 -13 -8 194.38 19.9
1 -14 8 252.17 25.1
-1 -13 -8 273.97 31.9
13 -14 -8 231.38 24.7
14 -1 -8 236.88 26.8
-14 13 8 217.68 36.6
14 -13 8 209.38 36.9
-14 13 8 180.78 30.6
0 -14 -8 4.1 9.6
14 -14 8 -9.8 12.5
-14 14 -8 -4.1 17.5
-14 14 8 13.5 16.8
0 14 -8 2 8.4
14 0 -8 14.6 12.6
-14 0 8 2 11.4
0 -14 -8 -9 15.6
14 -14 -8 14.4 10.8
0 -14 8 5.5 7.7
-14 14 -8 4.1 13.2
15 -8 -8 166.18 21.2
-15 7 8 176.78 32
-8 15 8 183.58 29
-7 15 -8 170.68 33.1
-15 8 -8 139.19 28.5
-15 8 -8 165.88 26
-7 -8 8 130.89 27.7
8 7 -8 140.99 27.7
-8 -7 -8 176.18 28.7
-15 7 8 145.69 30.2
8 -15 8 171.98 19.9
7 -15 -8 149.29 23.4
-7 15 -8 134.49 25.9
-15 8 8 125.59 27.4
-8 15 -8 187.58 33
-15 8 8 145.79 32.5
-15 7 -8 161.28 25.9
8 -15 -8 156.98 24.4
7 -15 8 131.69 17.6
15 -7 -8 162.48 21.9
-8 -7 8 139.59 24.2
-15 7 -8 114.19 27.1
7 8 -8 137.29 28.1
15 -8 8 145.19 22
-7 -8 -8 158.48 26.9
-8 15 -8 118.69 23.8
-7 15 8 121.99 25
9 -15 8 80.69 16.4
-9 15 8 60.39 23
-9 -6 -8 84.59 17.8
6 -15 -8 98.39 16.2
-6 15 -8 110.89 31.3
-15 9 -8 61.59 25.1
-9 -6 -8 91.29 16.7
-15 6 8 121.49 25.4
15 -9 -8 96.79 18.4
-6 -9 8 72.39 18.6
9 6 -8 99.99 18.5
6 9 -8 116.39 19.9
-9 15 -8 60.99 20.7
15 -6 -8 104.69 19.2
6 -15 8 119.49 16
-15 9 8 79.39 18.8
15 -9 8 122.79 20.1
-15 6 -8 62.29 21.1
-9 -6 8 50.69 18.9
-15 9 8 70.79 21.6
9 -15 -8 102.49 21.4
-6 -9 -8 110.29 16.9
-6 15 8 94.69 23.1
-15 6 -8 71.59 25.6
-9 15 -8 113.69 28.1
-10 15 8 161.78 34.4
5 -15 -8 110.69 13.7
-15 5 8 99.69 18.1
-5 15 -8 148.49 25.6
10 -15 8 189.18 31.5
-5 -10 8 118.09 18
-15 10 -8 188.38 33.9
-15 10 -8 146.49 36.5
5 -15 -8 184.38 25.1
-5 -10 -8 126.29 26.5
5 -15 8 157.78 26.4
15 -5 -8 147.19 21.5
-15 10 8 115.89 23.9
-15 5 -8 98.49 20.5
-10 15 -8 89.89 20
-15 10 8 129.09 32
-10 15 -8 187.38 35.3
10 -15 -8 155.18 23
-10 -5 8 119.19 21.9
5 10 -8 135.29 24.3
-15 5 -8 128.49 24.6
-5 15 8 91.99 22.3
15 -11 -8 182.68 22.3
11 -15 8 167.78 33.1
-4 15 -8 197.98 28.1
4 -15 -8 144.89 24.4
4 -15 -8 136.69 16.5
-15 11 -8 142.29 36.7
-4 15 -8 148.09 31.9
-15 11 -8 166.28 35.1
-11 15 8 137.49 31.4
11 4 -8 190.08 27.5
-15 11 8 217.48 35.6
15 -11 8 228.68 37.2
4 -15 8 239.68 29.2
-11 15 -8 216.48 28.6
-11 -4 8 198.88 32.1
-15 11 8 185.48 32.9
15 -4 -8 249.88 26.4
11 -15 -8 207.28 26.2
-4 -11 -8 233.98 30.8
-15 12 -8 189.68 33.4
3 -15 -8 241.18 22.3
-3 15 -8 245.58 37.9
-3 15 -8 246.08 30.2
12 3 -8 243.48 29
-15 12 -8 196.38 38.6
12 -15 8 225.38 35
-12 15 8 201.68 32.2
15 -12 -8 226.88 25.2
-15 12 8 132.39 27.2
12 -15 -8 172.58 22.5
15 -12 8 158.98 33.7
-3 -12 -8 180.48 27.8
3 -15 8 184.88 27.1
15 -3 -8 179.08 23
-15 12 8 163.18 33.4
-3 -12 -8 156.38 16.9
-12 -3 8 115.09 24.1
-15 13 -8 59.79 20.8
2 -15 -8 80.09 12.4
13 2 -8 105.09 15.9
-13 15 8 96.99 20.8
13 -15 8 67.49 14.8
2 -15 -8 76.79 15.1
15 -13 -8 103.89 19.4
-2 15 -8 45.4 20
-15 13 -8 44.3 19
-2 -13 -8 168.58 20.3
13 -15 -8 173.58 22.3
15 -13 8 145.69 19.4
15 -2 -8 186.78 23.9
-13 -2 8 135.99 28.4
-15 13 8 128.89 28.1
-2 -13 -8 198.58 29.7
-15 13 8 194.18 34.3
2 -15 8 174.78 28
-14 15 8 51.29 17.1
15 -14 -8 31.4 11.4
1 -15 -8 37.2 15.4
14 1 -8 38.1 13.3
-15 14 -8 49.8 19.6
1 -15 -8 39.8 11.3
-1 -14 8 27.6 7.5
-15 14 -8 4.5 12.4
14 -15 8 22.1 12.8
-1 15 -8 23.9 14.7
-1 -14 -8 26 10.8
14 -15 -8 49.6 12.3
-1 -14 -8 51.69 17.2
-14 -1 8 12.9 10.7
15 -14 8 23 13.3
1 -15 8 29.8 11.4
-14 15 -8 23.7 14.3
15 -1 -8 43.5 12.8
15 -15 8 -9.5 11.9
0 -15 -8 11.9 16.4
-15 15 -8 9.7 17.6
-15 15 8 24.4 17.1
15 0 -8 4 11.9
0 -15 8 -3.2 10.2
15 -15 -8 3.6 10.7
0 15 -8 5.7 6.7
0 -15 -8 -3 10.5
8 -16 -8 59.39 11
8 8 -8 97.89 18.7
8 -16 -8 102.99 21.2
-8 -8 -8 84.89 16.5
-16 8 8 133.89 32.1
-16 8 -8 64.49 23.1
-16 8 8 96.79 21
-8 -8 8 65.29 17.5
16 -8 8 118.79 20.4
8 -16 8 82.89 14.6
-8 -8 -8 127.29 26.1
-8 16 -8 84.89 20.9
-8 16 8 72.89 22.2
-7 16 -8 432.76 49.7
9 7 -8 390.36 37.5
-16 9 -8 344.67 45
-9 -7 -8 342.47 33.9
-7 16 -8 321.37 46.2
7 -16 -8 365.76 34.5
7 -16 -8 371.06 30.4
9 -16 8 436.26 40.6
-16 7 8 366.86 40.8
-9 -7 -8 385.66 37
-9 16 8 342.17 43.4
-16 9 -8 345.47 43.4
16 -9 -8 356.76 32.6
-16 7 -8 456.25 45.5
-7 16 8 392.36 45.5
-16 9 8 480.05 46.5
16 -7 -8 452.45 38.4
9 -16 -8 388.66 35.8
-9 16 -8 530.35 51.29
-16 9 8 464.65 45.1
-16 7 -8 492.85 49.99
-9 -7 8 423.66 43.4
9 -16 -8 453.15 39.5
16 -9 8 583.54 51.59
-9 16 -8 401.36 50.69
-7 -9 -8 518.65 41.4
10 -16 8 93.39 15.5
-16 6 8 75.89 15.9
6 -16 -8 61.39 12
-16 10 -8 109.69 21.8
-10 -6 -8 111.99 25.7
-10 -6 -8 82.29 13.5
-10 16 8 68.69 23.8
-6 16 -8 120.69 31.1
6 -16 -8 110.59 17.1
10 6 -8 120.69 18.9
-16 10 -8 53.69 23.3
16 -10 -8 104.79 19.7
-6 16 -8 56.19 21.8
16 -6 -8 74.39 13.1
10 -16 -8 51.69 13.7
-16 6 -8 67.29 20.9
16 -10 8 61.79 16.3
-16 10 8 61.59 21.2
-16 10 8 77.49 18.5
-10 -6 8 43.1 18.9
-10 16 -8 54.39 18.6
-6 16 8 30 14.8
6 -16 8 40.4 12.2
-6 -10 -8 65.29 15.4
10 -16 -8 40.8 9.5
6 10 -8 78.59 18.6
5 -16 -8 135.89 18
11 5 -8 139.39 19.3
16 -11 -8 122.39 19.8
-11 -5 -8 142.39 25.7
-11 16 8 80.29 23.9
-5 16 -8 120.39 25.5
5 -16 -8 115.09 19.1
-5 16 -8 171.38 37.9
-16 11 -8 154.68 35.2
11 -16 8 92.89 16
-16 11 -8 74.79 23.5
5 -16 8 193.28 27.9
-16 11 8 190.48 34.1
-11 16 -8 147.39 22.7
16 -5 -8 185.78 22.4
-5 -11 -8 200.68 27.8
-11 -5 8 133.89 23.9
16 -11 8 166.48 20.7
-16 5 -8 119.39 31.6
11 -16 -8 179.48 24.2
11 -16 -8 128.99 17.7
5 11 -8 167.68 28
-16 11 8 152.48 29.3
-16 12 -8 233.58 38.9
-4 16 -8 189.78 29.4
12 4 -8 186.38 27.4
-12 16 8 124.29 28.8
12 -16 8 166.58 30.3
16 -12 -8 171.58 21.9
-16 12 -8 132.39 26.9
4 -16 -8 201.68 22.1
-4 16 -8 147.19 25.6
4 -16 8 190.98 28.3
16 -12 8 150.68 19.7
12 -16 -8 147.89 18.5
-4 -12 -8 205.18 28.1
4 12 -8 183.28 26.4
-16 12 8 175.98 33.8
-12 16 -8 153.98 21.8
-12 -4 8 153.48 25.9
16 -4 -8 188.98 23.9
-16 12 8 138.59 28.2
12 -16 -8 182.78 23.4
3 -16 -8 20.8 10.2
-3 16 -8 6.6 18.6
-16 13 -8 40.1 19.2
16 -13 -8 33.8 11.3
-16 13 -8 8 12.5
13 3 -8 34.3 13.8
3 -16 -8 33.9 11.5
13 -16 8 22.6 11.8
13 -16 -8 14 12.2
3 13 -8 10.8 9.2
16 -13 8 10.4 13.2
-16 13 8 38.9 16.5
3 -16 8 -0.7 11
-3 -13 -8 28.5 10.7
13 -16 -8 2 7.8
-13 -3 8 11.1 13.6
-16 13 8 -4.4 13.5
-13 16 -8 3.3 10.4
16 -3 -8 20.6 12.2
-3 -13 -8 22.8 15
-16 14 -8 75.29 19.7
16 -14 -8 49.9 11.5
2 -16 -8 56.69 15.6
-2 16 -8 41.3 17.2
-2 -14 8 51.99 11.1
-14 16 8 41.8 13
14 2 -8 62.59 14
2 -16 -8 63.49 12.5
14 -16 8 46.2 12.8
2 -16 8 72.59 13.1
14 -16 -8 99.49 20.3
14 -16 -8 52.69 9.8
16 -15 -8 7 10.4
-1 16 -8 -4.1 11.6
-15 16 8 23.7 16
-16 15 -8 13.9 17.4
-1 -15 8 -3.5 8.2
1 -16 -8 -2.7 10.9
1 -16 -8 16.6 15.5
15 1 -8 2.6 11.9
15 -16 8 -12.3 10.6
16 -15 8 -12.2 10.9
15 -16 -8 -3.2 11.2
16 -1 -8 9.3 11.6
-1 -15 -8 9.5 10.6
15 -16 -8 -6.6 6.8
-15 16 -8 -7.8 11.4
1 -16 8 -9.9 10.4
-16 15 8 16.9 16.6
-1 -15 -8 4.8 15.4
-16 16 8 17.8 16.5
-16 16 -8 0.4 15.1
0 -16 -8 3.6 10.5
0 -16 8 -3.5 9.5
0 -16 -8 -0.1 15.4
16 0 -8 5.1 11.3
0 16 -8 10.9 6
16 -16 8 -18.7 10.7
16 -16 -8 8.5 10.2
16 -16 -8 -4.9 6
-17 8 8 165.98 35.4
-17 9 -8 177.98 36.5
17 -8 8 117.69 20.5
17 -9 -8 154.48 20.6
8 -17 -8 155.68 21
9 -17 8 144.89 29.2
-8 17 -8 153.48 23.9
8 -17 -8 119.59 23.3
-9 -8 -8 137.89 26.2
9 8 -8 141.69 27
-9 -8 -8 125.19 23.4
8 9 -8 159.98 29.2
9 -17 -8 133.39 24.2
9 -17 -8 165.28 22.2
17 -8 -8 162.78 21.8
-8 -9 -8 162.08 27.1
-8 -9 -8 139.99 21.9
-17 9 8 182.28 34.5
-9 17 -8 164.88 38.9
-17 8 -8 192.78 37.4
17 -9 8 168.38 21.6
8 -17 8 155.58 28.8
10 7 -8 44.1 16.2
-10 -7 -8 39.8 14.2
-7 17 -8 61.59 21.2
-17 10 -8 68.89 19.7
10 -17 8 12.7 11.4
-7 17 -8 62.39 20.9
17 -10 -8 32 10.7
-17 10 -8 23.7 16.8
-10 17 8 21 16.9
7 -17 -8 23.7 13.2
-17 7 8 48.7 15.5
-10 -7 -8 39.6 11.2
7 -17 -8 30.3 11.6
10 -17 -8 22.3 11.3
7 -17 8 15.4 11
17 -10 8 20.4 14.2
-7 -10 -8 18.6 6.4
7 10 -8 40.2 17
-17 10 8 42.1 17.6
10 -17 -8 35.1 12.7
17 -7 -8 43.8 11.7
-17 10 8 -12.2 13.4
-10 17 -8 36.8 17.6
-7 -10 -8 41.8 14.1
-10 17 -8 32.3 13.8
-17 7 -8 33.7 19.7
-10 -7 8 15.8 10.3
11 -17 8 528.65 43.8
-11 -6 -8 489.75 41.7
11 6 -8 485.75 42.2
17 -11 -8 388.66 37.4
-6 17 -8 449.06 52.29
6 -17 -8 487.65 38.3
-17 11 -8 491.35 48.4
-17 11 8 531.85 48
6 -17 8 603.34 46.2
17 -6 -8 476.65 42.2
-6 -11 -8 549.65 45.4
11 -17 -8 578.74 42
-11 17 -8 501.75 49.7
11 -17 -8 491.35 43.1
17 -11 8 574.24 51.29
-17 6 -8 449.76 49.6
-5 17 -8 23.1 13.5
5 -17 -8 9.2 11.1
12 5 -8 0.3 13.9
-12 -5 -8 19.1 13.2
-17 12 -8 0.9 11.3
-5 17 -8 -0.1 19.6
17 -12 -8 10.2 9.4
-17 12 -8 42 18
12 -17 8 6.3 11.3
5 12 -8 34.9 15.3
-12 -5 8 10 9.9
17 -12 8 5.4 13
-17 12 8 55.29 17.3
-12 17 -8 32.8 16.4
-17 5 -8 15.8 13.5
17 -5 -8 34.8 11.4
-5 -12 -8 25.4 13.6
12 -17 -8 29 12.5
12 -17 -8 13.8 10.3
5 -17 8 12.4 11.1
-5 17 8 46.3 14.5
4 -17 -8 129.29 21.3
13 4 -8 113.99 23.2
13 -17 8 148.19 16.6
-4 17 -8 118.29 22.6
17 -13 -8 97.89 17.2
17 -13 8 89.39 15.6
17 -4 -8 115.19 19.3
13 -17 -8 119.79 17.8
-4 17 8 65.69 12.6
4 13 -8 125.39 23.5
4 -17 8 63.69 13.2
13 -17 -8 106.19 20.7
-13 17 -8 84.29 16.5
14 -17 8 273.67 33
-3 17 -8 271.97 40.1
-17 14 -8 338.47 38.4
3 -17 -8 306.17 28.6
3 -17 -8 279.97 29.8
14 3 -8 285.87 30.4
-3 -14 -8 362.66 33.6
3 -17 8 320.57 33.6
17 -3 -8 292.67 29
-17 14 8 330.57 38.5
14 -17 -8 277.27 27.1
17 -14 8 272.07 37.9
14 -17 -8 270.97 29.4
-2 -15 8 24.3 6.6
-15 17 8 54.99 12.6
-17 15 -8 61.69 18
15 2 -8 63.79 13.3
15 -17 8 38.7 11.4
17 -15 -8 32.9 8.5
2 -17 -8 53.49 12.2
-2 17 -8 31.1 14.1
15 -17 -8 30.6 9.4
17 -15 8 36.3 12.7
-2 -15 -8 50.09 15.6
17 -2 -8 39.8 11.9
2 -17 8 33.8 11.5
15 -17 -8 56.29 12.4
1 -17 -8 33 11.3
-16 17 8 24.6 13.6
-16 17 8 12 8.6
-17 16 -8 28 16
16 -17 8 17.9 10.5
1 -17 -8 41.7 15.6
16 1 -8 30.8 11.9
17 -16 -8 9.7 6.7
-1 -16 8 18.2 8.6
-1 17 -8 17.4 6.5
16 -17 -8 32.5 8.4
16 -17 -8 51.89 10.9
1 -17 8 36.6 10.8
17 -1 -8 71.89 12.4
17 -16 8 54.59 12.6
17 -17 8 58.09 11.5
0 -17 8 30.4 9.7
0 -17 -8 64.99 16
-17 17 -8 37.8 12.3
9 -18 -8 66.29 14.4
-9 -9 -8 68.79 11.8
-9 -9 -8 100.09 23
9 -18 -8 80.59 13.5
-18 9 -8 110.09 20.4
18 -9 -8 72.29 15.2
9 -18 8 100.39 13.9
18 -9 8 79.69 16.7
10 8 -8 607.54 49.7
-18 10 -8 583.44 55.69
-10 -8 -8 569.24 48.8
-10 -8 -8 578.54 47.9
8 -18 -8 588.44 46.8
10 -18 8 634.14 49.99
18 -8 8 646.14 56.69
-8 18 -8 669.93 59.09
-18 8 8 525.65 52.09
-8 18 8 506.95 48.5
8 -18 8 679.73 49.4
8 10 -8 667.13 50.99
18 -8 -8 490.85 44.8
10 -18 -8 535.65 47.3
-18 8 -8 619.64 55.69
10 -18 -8 632.64 46.6
-8 -10 -8 597.84 48.7
18 -10 8 669.33 53.79
-10 18 -8 640.84 56.39
-8 -10 -8 520.65 46.4
-18 10 8 583.14 53.39
18 -7 8 177.98 22.5
-7 18 -8 220.38 42.2
-18 7 8 142.39 27.7
-18 11 -8 219.48 35.4
11 7 -8 152.78 26.9
7 -18 -8 168.48 22.2
11 -18 8 160.38 27.3
-11 -7 -8 154.18 24.3
-18 11 8 237.58 34.8
18 -11 8 166.18 36
11 -18 -8 186.58 23.3
11 -18 -8 152.28 24.6
7 11 -8 243.68 30.1
-7 18 8 216.58 29.5
-7 -11 -8 193.98 26.8
7 -18 8 222.98 28.5
-18 7 -8 172.28 32.6
18 -7 -8 174.68 21.6
12 6 -8 155.58 24.4
12 -18 8 152.58 25.9
-12 18 8 141.89 26.4
6 -18 -8 136.79 21.8
-6 18 -8 174.78 41.4
-12 -6 -8 135.89 23.9
6 12 -8 228.88 29.3
-18 12 8 210.18 33.1
-6 18 8 181.68 27.9
18 -6 -8 155.68 20.4
6 -18 8 180.58 27.7
12 -18 -8 136.29 23.1
-18 6 -8 122.29 28.6
12 -18 -8 152.28 22.3
18 -12 8 170.38 20.1
-6 -12 -8 173.38 25.7
-13 18 8 198.68 30
13 -18 8 147.79 27.3
-5 18 -8 214.18 39.6
5 -18 -8 198.78 23.5
13 5 -8 173.58 24.3
13 -18 -8 147.29 22.7
5 13 -8 212.68 26.6
18 -5 -8 165.58 20.9
5 -18 8 185.48 27.5
18 -13 8 176.48 20.2
13 5 8 141.99 16.9
-5 18 8 157.48 25.5
-5 -13 -8 195.18 26.2
-18 13 8 232.28 32.7
-13 18 -8 165.38 30.9
13 -18 -8 163.18 21.2
14 4 -8 55.09 13.4
14 -18 8 25.9 10.9
4 -18 -8 29.2 12
-14 18 8 57.39 14
-4 18 -8 35 16.8
-4 -14 -8 25.8 13.3
18 -14 8 19.1 12.7
4 14 -8 37.1 12
14 -18 -8 14.3 11.1
4 -18 8 18.2 10.7
18 -4 -8 27.1 10.1
-14 18 -8 18.9 11.6
14 -18 -8 28.3 9.9
14 4 8 7.8 5.9
-15 18 8 133.09 25.3
15 3 -8 142.29 21.8
3 -18 -8 165.38 21
-3 18 -8 128.09 29.1
15 -18 8 118.99 25
3 -18 -8 140.29 20.7
18 -15 8 87.19 14.1
15 -18 -8 63.19 11.1
-3 -15 -8 104.59 22.6
15 -18 -8 74.19 12.9
18 -3 -8 105.19 16.9
3 -18 8 70.29 12.5
16 -18 8 3.8 10.1
-16 18 8 0.8 9.4
2 -18 -8 18.2 12.4
-2 18 -8 16.4 9.5
-18 16 -8 33.6 15.1
16 2 -8 17.3 10.7
2 -18 -8 16.8 10.8
16 -18 -8 20.5 7.6
-18 16 8 39.3 15.3
18 -16 8 19.4 11.3
-2 -16 -8 26.7 13.9
16 -18 -8 10.8 7.5
18 -2 -8 22.7 10
2 -18 8 0.9 9.6
1 -18 -8 -2.3 9.7
17 -18 8 -4.7 9.2
-18 17 -8 15.7 12.7
1 -18 -8 15 13.8
17 1 -8 5.3 10.2
-1 -17 8 1.5 6.6
1 -18 8 -0.7 8.6
-18 17 8 11.5 13.9
18 -1 -8 13.8 9.5
-1 -17 -8 16.7 13.4
18 -17 8 0.5 9.6
18 -18 8 -3.7 8.9
18 0 -8 6.9 8.1
0 -18 -8 22.6 12.6
0 -18 8 0.4 7.3
19 -9 8 209.88 35.5
-19 10 -8 256.07 36.2
-10 -9 -8 205.58 26.9
-19 9 8 227.78 32.4
10 -19 8 227.98 27.6
9 -19 -8 207.68 24.3
10 9 -8 229.88 27.1
-10 19 8 214.48 29.6
-9 -10 -8 178.58 23.7
10 -19 -8 189.78 23.6
19 -10 8 168.18 34.7
9 -19 8 209.98 27.5
-9 19 8 244.18 29.7
-19 10 8 239.48 32.4
-9 -10 -8 190.58 26
-19 9 -8 248.58 35.4
9 10 -8 228.98 26.8
11 -19 8 217.58 27
-11 19 8 208.58 27.4
-19 11 -8 267.67 33.2
8 -19 -8 215.48 24.2
-19 8 8 172.28 28.3
19 -8 8 225.88 38
11 8 -8 227.98 27.2
-11 -8 -8 195.98 25.8
-8 -11 -8 269.97 29.3
11 -19 -8 279.97 26.2
19 -11 8 225.78 36.8
8 11 -8 329.47 31.1
-8 -11 -8 228.78 25.9
-8 19 8 238.78 28.9
-19 8 -8 281.87 35.4
-19 11 8 280.47 33.2
8 -19 8 292.17 30.5
19 -7 8 40.2 15.6
7 -19 -8 72.59 12.4
-12 19 8 87.29 15.2
-12 -7 -8 58.09 13
12 7 -8 67.99 14.8
-19 12 8 178.38 29.6
12 -19 -8 129.89 19.6
7 -19 8 138.49 24.4
-19 7 -8 114.79 25.8
-7 19 8 165.78 25.8
-7 -12 -8 126.19 23.3
19 -12 8 125.39 17.5
12 -19 -8 93.79 21.2
6 -19 -8 6.5 11.2
-13 19 8 27.3 13.8
-6 19 -8 29.2 17.1
13 6 -8 4.8 12.3
19 -6 8 -5.2 13.9
13 -19 -8 6.2 11.3
13 -19 -8 11.9 9.8
-6 -13 -8 33 12.7
19 -6 -8 18.3 6.4
-6 19 8 36.4 12.7
19 -13 8 2 12.4
-13 19 -8 48 15.3
6 -19 8 15 10
13 6 8 9.2 7.5
14 5 -8 109.39 15.5
14 -19 8 84.49 13.5
5 -19 -8 110.09 14.5
-14 19 8 110.09 25.4
-5 19 -8 149.29 30.5
19 -14 8 60.49 13.7
14 -19 -8 75.69 13
14 -19 -8 104.39 16.2
14 5 8 51.09 8.3
19 -5 -8 63.69 11
-14 19 -8 104.79 23.9
-15 19 8 113.39 23.1
15 4 -8 71.19 13
15 -19 8 60.29 11.3
19 -15 8 52.19 12.9
15 -19 -8 67.69 10.4
4 -19 8 69.99 11.8
4 15 -8 95.59 14.2
15 -19 -8 70.39 15.1
-4 -15 -8 88.79 14.8
19 -4 -8 57.29 10.9
3 -19 -8 38.5 10.6
-3 19 -8 28.7 10.5
-19 16 -8 40 14.4
16 3 -8 30.9 10.9
-16 19 8 14.6 9.3
3 -19 -8 15.5 7.2
16 -19 8 17.9 9.6
-3 -16 -8 43 13.5
19 -3 -8 19.4 5.7
3 -19 8 21.3 9.6
16 -19 -8 18.8 7
19 -16 8 21.9 11.1
-19 17 -8 95.29 20.7
2 -19 -8 74.49 15.3
2 -19 -8 77.69 10.9
17 -19 8 51.39 10.7
17 2 -8 69.79 11.9
2 -19 8 36.3 8.9
18 1 -8 57.39 11.2
18 -19 8 42.8 9.6
1 -19 -8 74.09 16.8
-19 18 8 34.8 10.6
0 -19 8 3.6 2.7
0 -19 -8 8.5 9
19 -19 8 16.3 4.9
-20 10 8 321.97 35
-10 -10 -8 339.27 32.5
10 -20 -8 364.76 30.7
10 -20 8 402.26 34
-10 20 8 335.37 34.7
-20 10 -8 378.36 38.2
20 -10 8 372.46 40.9
10 10 -8 391.56 33.3
20 -9 8 62.69 14.2
-20 9 8 60.09 13.2
9 -20 -8 53.09 11.2
11 -20 8 39.9 10.3
-11 -9 -8 57.29 12.4
-9 20 8 128.99 23.6
9 11 -8 126.19 21.7
11 -20 -8 81.89 12.6
-20 11 8 122.19 26.8
-9 -11 -8 85.29 19.7
20 -11 8 87.09 15.6
9 -20 8 96.69 13.1
-20 9 -8 130.79 26.4
8 -20 -8 91.89 12.8
20 -8 8 81.59 15.4
12 -20 8 57.89 11
12 8 -8 104.99 19.5
-8 -12 -8 118.69 20.4
8 12 -8 168.68 22.1
20 -12 8 110.39 16.6
8 -20 8 125.19 23.5
-20 8 -8 112.19 22.3
12 -20 -8 112.59 17.7
-20 12 8 170.08 27.1
-8 20 8 140.59 22
-13 20 8 189.68 26.7
20 -7 8 169.78 33.1
-20 13 -8 238.38 30
13 7 -8 182.28 23.1
13 -20 8 154.08 24
7 -20 -8 185.58 21.5
13 -20 -8 157.38 18.3
7 -20 8 202.08 24
13 7 8 126.19 15.6
-20 13 8 183.98 25.7
20 -13 8 175.78 19.5
-7 20 8 142.69 21.1
-7 -13 -8 159.88 22
14 -20 8 87.99 12.5
20 -6 8 93.99 16.7
-14 20 8 131.19 23.2
14 6 -8 108.59 19.4
6 -20 -8 106.39 18.9
-6 -14 -8 135.79 20.3
6 -20 8 132.09 22.5
-20 14 8 149.79 24.3
-14 20 -8 161.28 24.3
6 14 -8 162.18 19.2
14 -20 -8 123.09 16.6
20 -5 8 27.1 14.1
15 5 -8 46 10.7
5 -20 -8 33.2 10.4
15 -20 8 26.6 9.2
-15 20 8 48.8 11.5
20 -15 8 29.8 11.7
5 15 -8 59.79 11.6
15 -20 -8 34.3 7.7
5 -20 8 30 9.7
-20 15 8 50.69 14.1
-5 -15 -8 43.4 12
-16 20 8 -3.3 8.5
16 4 -8 0.8 9
4 -20 -8 -3.8 8.7
-20 16 -8 14.2 11.8
16 -20 8 -0.1 7.9
4 16 -8 4.9 5.7
4 -20 8 -7.2 8
20 -16 8 9.3 9.5
-4 -16 -8 2.5 11.2
16 -20 -8 0.8 4.7
-20 16 8 18.4 13.3
17 -20 8 41.7 9.1
17 3 -8 67.29 13.7
-20 17 -8 87.09 18.4
3 -20 -8 68.79 10
-3 -17 -8 59.09 12.4
-20 17 8 46.8 13.4
18 -20 8 14.4 5.1
2 -20 -8 2.2 3.7
18 2 -8 5.3 3.3
-20 18 -8 -3 5.6
-2 -18 -8 11.6 10.5
21 -10 8 21 12.4
11 10 -8 32.4 11.2
11 -21 8 20.3 8.9
10 -21 -8 27.7 9.3
-21 11 -8 37.2 12.6
-11 21 8 32.6 11
-11 -10 -8 25.5 8.8
-21 10 8 17.4 12.5
10 11 -8 63.89 11.9
-21 10 -8 52.49 12.9
-10 21 8 64.29 11.5
11 -21 -8 36.4 9.5
10 -21 8 43.8 9.8
-21 11 8 61.79 14.7
-10 -11 -8 38.1 10.3
21 -11 8 52.29 12.5
12 9 -8 146.19 20.3
12 -21 8 143.99 22.1
-21 12 -8 173.28 25.6
9 -21 -8 155.18 18.1
-12 21 8 147.19 20.8
9 12 -8 157.98 20
-21 9 -8 94.89 19.2
-21 12 8 126.89 23
12 -21 -8 125.49 15.6
-9 -12 -8 118.69 18.4
9 -21 8 125.39 20.6
21 -12 8 122.99 25.5
-9 21 8 110.09 18.3
21 -8 8 35.2 12.5
-13 21 8 47.6 11.5
13 -21 8 28.4 8.7
8 -21 -8 31.3 9.6
13 8 -8 43 10.5
13 -21 -8 2.1 7
13 8 8 -2.5 4.2
-8 -13 -8 3.5 10.1
8 -21 8 0.4 8.5
-21 13 8 17.1 13
-8 21 8 6.2 9.5
8 13 -8 14.6 10.4
-21 8 -8 -2.5 4.7
21 -13 8 9.4 10.2
-14 21 8 16.8 10.3
7 -21 -8 9.3 8.9
21 -7 8 8.9 11.8
14 7 -8 3.8 9.5
14 -21 8 -0.5 7.5
-7 -14 -8 13.5 9.9
-14 21 -8 30.4 11.5
21 -14 8 32.4 8.7
14 -21 -8 14.5 6.3
7 14 -8 33.6 10.2
7 -21 8 8 8.6
-21 14 8 37.7 13.9
6 -21 -8 14.9 8.4
21 -6 8 14.1 12.7
-21 15 8 25.9 13
6 15 -8 15.2 5.8
15 -21 -8 2.1 4.1
-6 -15 -8 9.8 9.7
6 -21 8 5.2 8.1
16 5 -8 10.8 8.2
21 -5 8 10.9 11.2
5 -21 -8 5.7 6.9
-21 16 -8 23.6 10.5
16 -21 8 10.6 6.5
5 -21 8 4.7 7.6
-21 16 8 28.8 12.3
-5 -16 -8 17.2 9.4
17 4 -8 15.2 5.1
4 -21 -8 21.6 5.6
-21 17 -8 23.5 8.6
21 -4 8 29.6 10.4
-4 -17 -8 34.1 9.6
4 -21 8 21.3 6.7
-21 17 8 29.8 10.6
-22 11 -8 49.8 11.5
11 -22 -8 56.79 9.7
11 -22 8 42.8 8.7
11 11 -8 77.99 14.3
-11 22 8 74.99 15.7
-12 22 8 41.4 9.8
10 -22 -8 23.8 6.3
12 -22 8 19.8 7.9
-22 12 -8 39.7 11.2
12 10 -8 31.5 9.1
-10 22 8 22.5 8.6
10 -22 8 34.6 8.2
-10 -12 -8 18.3 5.3
12 -22 -8 27.1 5.3
-22 12 8 27.9 11.5
13 9 -8 26.2 8.7
9 -22 -8 23.7 6
-22 13 -8 46.1 11
-13 22 8 40 9.6
13 -22 8 26.5 7.8
-9 -13 -8 46.1 10.7
-22 13 8 73.79 18.1
9 -22 8 39.7 8.7
-22 14 -8 42.2 10.7
8 -22 -8 15 5.3
14 -22 8 22.2 6.8
-14 22 8 24.3 9.1
14 8 -8 27.5 8.7
8 -22 8 33.5 8
-22 14 8 57.09 12.2
-14 22 -8 59.79 13.9
-8 -14 -8 37.1 8
15 7 -8 15.9 7.3
7 -22 -8 6.6 4
15 -22 8 14 4.9
-22 15 -8 21.9 10.1
-15 22 8 7.5 7.7
-22 15 8 21.2 11
-7 -15 -8 9.4 7
7 -22 8 8.7 6.6
7 15 -8 3.9 2.9
0 0 -9 8.8 13
0 0 9 -7.1 11.8
-1 0 9 958.5 69.69
-1 1 -9 903.41 70.19
0 -1 9 930.61 69.49
1 0 -9 892.61 69.59
-1 1 9 961 70.49
0 1 9 914.41 69.69
1 -1 9 919.31 70.19
0 1 -9 857.21 69.39
1 0 9 965.3 69.89
1 -1 -9 941.21 69.59
-1 0 -9 919.81 69.39
0 -1 -9 910.81 70.09
-1 2 -9 29.5 14.6
-2 1 9 33.7 14
1 1 9 15.2 14.3
-1 -1 9 17.9 13
-2 1 9 28.7 14.8
-1 2 9 20.3 12.6
1 -2 9 20 12.8
-2 1 -9 19.1 13.8
1 1 -9 39.4 15.6
2 -1 -9 37.2 15.4
2 -1 9 20.6 13.3
-1 -1 -9 29.4 15.2
-2 2 9 112.89 20.2
-2 2 9 108.59 21.4
2 0 9 101.89 20.3
-2 0 9 101.19 18.7
-2 2 -9 118.29 19.7
2 0 -9 114.69 20.4
0 -2 9 119.89 22
0 2 9 104.39 19.7
0 2 -9 96.89 20.9
2 -2 9 102.69 19.8
-2 0 -9 101.19 19.7
-2 0 9 113.99 22.1
-3 2 -9 782.22 59.19
-1 3 -9 713.23 58.59
-2 3 9 776.82 57.19
2 -3 9 727.03 57.89
-3 1 9 789.42 58.89
-2 3 9 638.64 56.49
3 -1 9 767.52 59.59
-3 1 9 798.42 57.49
-1 -2 9 772.32 58.09
2 1 -9 734.83 59.19
1 2 9 741.83 58.29
3 -1 -9 880.71 64.79
1 2 -9 813.72 64.69
-3 1 -9 852.91 65.09
3 -2 9 793.22 64.29
-3 2 9 860.21 63.49
-2 -1 9 924.81 64.29
2 1 9 867.01 65.99
-2 3 -9 807.22 64.79
-3 2 9 817.62 63.79
-1 3 9 770.52 63.39
1 -3 9 840.92 64.29
-2 -1 9 906.91 64.59
-1 3 9 830.22 63.49
3 0 -9 253.37 27.4
3 -3 9 238.48 28.2
0 3 -9 244.08 29.4
0 -3 9 275.47 28.5
-3 3 9 220.78 24
-3 0 9 265.07 25.9
3 0 9 241.48 27.5
-3 3 -9 248.88 28
-3 0 9 266.97 28.4
0 3 9 242.18 26.3
-3 0 -9 220.88 25.7
-3 3 9 267.87 25.3
-2 4 -9 26.9 16.8
2 2 9 24.9 14.5
2 2 -9 27.6 14.7
-2 -2 9 39.3 14.8
-4 2 -9 13.9 14.5
-2 -2 9 30.5 13.7
4 -2 9 23.9 14
-2 4 9 37.3 12.9
-4 2 9 25.8 12.7
2 -4 9 27.3 14.1
-4 2 9 27.3 13.1
-4 1 9 525.75 41.1
1 3 9 485.75 42.7
4 -1 9 495.85 43.9
-1 -3 9 529.85 41.9
-3 4 9 484.35 40.5
3 1 -9 506.45 43.7
-1 4 -9 460.35 42.6
3 -4 9 491.85 41.7
-4 1 9 505.45 42.6
-4 3 -9 500.55 43
1 -4 9 475.95 38.9
-4 1 -9 372.96 37.5
-3 4 -9 472.05 40.8
4 -3 9 451.55 39.8
3 1 9 440.66 40.4
-1 4 9 457.75 39.1
1 3 -9 441.36 41.7
-4 3 9 464.25 38
-3 -1 9 506.55 40.5
-3 -1 9 496.55 38.8
-4 0 -9 135.09 19.8
4 -4 9 168.58 23.3
-4 0 9 201.48 22.4
-4 0 9 184.68 23.1
0 4 -9 156.28 26.6
4 0 -9 190.18 26.1
-4 4 -9 190.88 28.1
4 0 9 184.18 25.2
0 -4 9 196.68 22.9
-4 4 9 181.88 21.5
3 -5 9 199.58 26.1
-5 2 9 242.38 23.5
-3 5 9 232.08 25.1
5 -2 9 201.48 26.2
-2 -3 9 206.08 23.1
-5 2 9 192.28 23.4
3 2 -9 219.78 28.3
2 3 9 209.18 27.5
-5 3 -9 170.68 25.9
-2 5 -9 188.78 26.4
-2 -3 9 231.58 26.6
2 3 -9 202.68 26.6
5 -3 9 202.28 25.5
-5 3 9 230.48 23.2
-2 5 9 211.48 23.2
-3 -2 9 225.08 24.7
-3 -2 9 234.38 23.8
-3 5 -9 226.48 27.3
3 2 9 215.68 29.3
-5 2 -9 159.18 23.5
-5 3 9 166.98 20.2
2 -5 9 203.98 24.3
4 1 -9 63.19 17.9
-5 4 -9 61.79 18.7
5 -1 9 71.99 19.2
-1 -4 9 75.69 15.3
4 -5 9 85.39 16.3
-5 1 9 56.09 15
-5 1 9 80.29 16.7
-1 5 -9 87.49 18.4
-4 5 9 81.09 15.1
-4 -1 9 35.9 14.2
1 4 -9 27.3 17.1
-4 5 -9 38.2 18.2
-1 5 9 35.5 13.3
1 -5 9 26.1 13.3
-4 -1 9 31.3 15
-5 4 9 39.2 12.8
4 1 9 12.8 16.6
5 -4 9 21.1 14.4
0 5 -9 1733.53 134.39
-5 0 9 1866.31 133.59
5 -5 9 1869.31 134.69
5 0 9 1888.91 135.99
0 -5 9 1884.91 133.99
-5 0 9 1885.51 133.29
0 5 9 1739.03 133.29
5 0 -9 1937.61 134.69
-5 5 -9 1999.7 135.99
-5 5 9 1813.12 133.09
3 3 9 -7.8 15.9
-3 -3 9 6.8 11
-3 6 9 21.3 12.7
-3 6 -9 -4.7 15.1
3 -6 9 5.4 13
-6 3 9 8.6 8.9
-6 3 9 14.6 11.8
3 3 -9 0.7 16.3
-6 3 -9 2.5 10.5
6 -3 9 -4.4 13.6
-3 -3 9 -2.4 12.1
4 2 -9 914.51 70.39
-2 6 -9 875.31 71.19
-6 2 9 825.02 67.69
-6 2 9 997.6 68.89
-4 6 9 855.71 67.49
-2 -4 9 961.9 69.39
-6 4 -9 816.62 69.29
4 -6 9 972.8 70.09
6 -2 9 935.71 71.59
-6 4 9 905.81 67.99
-4 -2 9 810.92 68.29
2 -6 9 942.11 69.39
-4 -2 9 954.6 69.19
-4 6 -9 960.7 72.59
6 -4 9 928.61 70.29
2 4 -9 905.11 70.29
-2 6 9 889.41 68.29
4 2 9 914.71 71.09
-1 -5 9 519.95 42.7
5 1 -9 517.75 44.3
-6 1 9 537.45 41.1
-5 6 9 498.05 41.4
-6 1 9 468.45 41.2
1 5 9 448.86 41.6
5 -6 9 499.35 42.5
-1 6 -9 474.25 45.2
-6 5 -9 479.85 43.3
6 -1 9 479.05 46.1
6 -5 9 499.55 42.9
-5 -1 9 421.46 38.2
5 1 9 446.16 42.6
-5 6 -9 508.65 43.6
-6 5 9 447.66 38.2
1 5 -9 448.86 41.8
-1 6 9 440.56 39.9
-5 -1 9 487.05 40
1 -6 9 479.35 40
-6 6 9 612.74 49.3
6 -6 9 605.24 51.39
-6 0 9 666.23 50.69
0 6 9 550.14 49.8
-6 0 9 662.43 51.69
-6 6 -9 716.63 55.49
0 6 -9 611.84 53.89
0 -6 9 620.54 50.39
-7 3 9 327.47 29.5
-3 -4 9 322.77 30.4
3 4 9 270.57 30.5
-3 7 -9 288.77 33.8
7 -3 9 273.47 33.2
4 -7 9 338.87 31.3
4 3 -9 307.97 32.5
-4 7 9 328.57 30.8
-4 7 -9 232.68 30.6
3 4 -9 227.68 29.2
4 3 9 195.58 28.8
-7 4 9 250.57 26.6
7 -4 9 226.18 28.8
3 -7 9 246.48 28.9
-4 -3 9 243.08 26.3
-3 7 9 239.78 25.1
-2 7 -9 340.57 37.8
-2 -5 9 360.66 32.8
-7 2 9 374.16 32
-7 2 9 315.37 33.2
-7 5 -9 326.47 33.5
5 2 -9 342.47 34.4
-5 7 9 376.56 33.1
5 -7 9 348.37 35.2
7 -2 9 347.37 36.1
-2 7 9 326.07 32.2
-5 7 -9 357.46 36.7
2 -7 9 351.26 32.5
-5 -2 9 356.76 32.5
-5 -2 9 286.47 29.9
2 5 -9 326.27 34.7
-7 5 9 346.37 30.4
7 -5 9 315.67 33.9
-7 1 9 1289.17 91.29
-7 1 9 1243.88 92.09
-7 6 -9 1148.69 92.99
6 -7 9 1289.57 92.89
-1 -6 9 1287.77 91.79
-6 7 9 1179.38 90.69
6 1 -9 1254.17 92.79
-1 7 -9 1263.37 94.89
7 -6 9 1277.87 89.89
-6 7 -9 1289.07 90.99
-7 6 9 1125.89 86.69
1 6 -9 1153.58 89.19
1 -7 9 1195.18 87.59
-1 7 9 998.9 86.09
-6 -1 9 1235.58 88.19
0 -7 9 172.48 23.7
-7 0 9 151.68 21
-7 7 -9 178.78 31
7 -7 9 186.48 28.1
-7 7 9 185.68 22
-7 0 9 167.88 23.6
0 7 -9 156.88 27.6
-4 8 9 166.08 23.3
4 4 -9 147.69 28.7
-4 -4 9 148.29 22.7
-8 4 9 170.18 21.7
-4 8 -9 148.59 30.9
8 -4 9 174.08 24.9
4 4 9 141.89 24.6
4 -8 9 153.38 24.2
-3 -5 9 389.06 36.7
5 -8 9 436.26 40
5 3 -9 418.86 40.5
-8 3 9 438.76 36.4
-3 8 -9 383.96 40.9
-5 8 9 407.86 36.8
8 -5 9 406.76 40.3
3 5 -9 399.66 41.6
-3 8 9 399.66 37.1
-8 5 9 424.96 37.6
-5 8 -9 454.35 42.8
3 -8 9 429.26 39.7
-5 -3 9 449.66 39.2
-2 8 -9 152.88 27.4
6 -8 9 158.88 27.3
6 2 -9 147.19 26.2
-6 8 9 187.18 21.9
-8 2 9 200.98 24.8
-8 2 9 144.09 21.9
-2 -6 9 173.98 24.6
-8 6 -9 130.39 21.1
2 -8 9 193.58 27.2
-6 -2 9 208.38 27.2
-6 8 -9 183.48 34.3
8 -6 9 172.98 29.5
-8 6 9 188.18 22.6
2 6 -9 177.28 30.7
-1 8 -9 476.45 44.6
-8 7 -9 464.25 43.4
-7 8 9 472.55 39.3
7 -8 9 548.35 44.5
-8 1 9 402.86 39.2
-1 -7 9 478.45 40.6
-8 1 9 418.66 39.8
-8 7 9 506.75 42.9
8 -7 9 523.45 45.8
-1 8 9 470.45 44.1
-7 8 -9 576.74 50.89
-7 -1 9 491.75 44.8
1 7 -9 473.85 48.2
1 -8 9 514.75 44.2
-8 8 -9 1325.97 100.19
0 8 -9 1410.26 101.89
-8 0 9 1302.37 98.19
0 8 9 1200.18 98.29
-8 8 9 1278.67 96.69
8 -8 9 1441.36 99.69
9 -4 9 185.78 25.9
-5 9 9 136.49 23.1
-4 9 -9 153.38 27.3
5 -9 9 140.19 26.1
-9 5 -9 161.28 30.1
-5 9 9 156.18 28.7
5 4 -9 137.79 27.6
-9 4 9 169.28 24.8
-4 -5 9 134.39 22.6
9 -5 9 200.38 32.2
-4 9 9 182.38 24
4 -9 9 228.48 28.7
-9 5 9 213.28 26.2
-5 -4 9 208.28 27.2
-5 9 -9 197.08 32.9
4 5 -9 204.08 29
-4 9 9 194.78 28.2
-9 3 9 249.28 25.8
-6 9 9 210.08 24.7
-9 6 -9 240.28 31.4
6 -9 9 217.78 27.4
6 3 -9 197.68 26.9
-6 9 9 232.38 29.4
-9 3 9 169.98 22.4
-3 9 -9 205.48 35.4
-3 -6 9 235.98 28.2
-6 9 -9 219.68 34.8
-3 9 9 242.68 29.9
-6 -3 9 229.38 27.6
9 -6 9 244.08 34.1
3 -9 9 249.58 29.8
3 6 -9 234.98 33.8
-9 6 9 243.28 26.2
-9 2 9 420.56 40.5
-7 9 9 520.75 45.1
7 -9 9 412.76 40.9
-2 9 -9 452.05 47.5
-7 9 9 443.86 40.2
-9 2 9 459.45 40.6
-9 7 -9 487.05 45.4
-2 -7 9 461.15 40.3
2 7 -9 470.55 47
-7 9 -9 581.34 50.79
9 -7 9 547.55 46.7
2 -9 9 482.55 43.6
-9 7 9 493.85 42.4
-7 -2 9 530.15 45.5
-2 9 9 479.85 46.6
-9 8 -9 92.99 19.5
-1 -8 9 64.89 16.3
-9 1 9 62.79 15.9
-9 8 -9 100.89 23.3
-8 9 9 86.39 20.8
-9 1 9 51.49 16.5
-8 9 9 85.29 18
-1 9 -9 65.19 22.7
8 -9 9 86.69 19.9
9 -8 9 145.69 24
-8 -1 9 123.39 23.1
1 8 -9 154.38 27.3
-8 9 -9 110.69 24.9
-9 8 9 140.69 23.6
-1 9 9 112.19 22.8
1 -9 9 135.99 25.6
9 0 -9 6.3 4.4
-9 0 9 -0.5 15.7
0 9 -9 8.9 20.4
-9 9 -9 24.3 17.5
-9 9 9 31.3 15.9
0 9 9 3.6 13
-9 9 -9 1.7 19.2
9 -9 9 18.7 16.5
-9 9 9 8.3 18
0 -9 9 12.2 15.5
9 -9 -9 -1.4 4.8
5 -10 9 23.5 14.6
-5 10 -9 24.8 24.3
-10 5 9 32.9 15.3
-5 10 9 31.4 17.5
10 -5 9 18.4 19.7
-10 5 -9 27.3 19.7
5 5 -9 21.5 15.3
-5 -5 9 33.8 14.7
-4 -6 9 112.49 19.5
-6 10 9 73.39 17.2
-10 6 -9 115.49 24.7
-10 4 9 101.99 20.9
-4 10 -9 109.79 26.2
6 -10 9 73.09 17.2
-6 10 9 123.99 23.2
10 -6 9 36.2 20.1
4 6 -9 49.9 20.7
-6 -4 9 69.09 17.5
-6 10 -9 46.7 25.8
-4 10 9 37.7 17.9
4 -10 9 54.19 16.7
-10 6 9 60.59 16
-10 4 -9 69.79 21.3
-10 3 9 44.2 17.3
-10 3 9 21 10.6
-3 10 -9 35.5 24
-7 10 9 52.59 16.8
-10 7 -9 56.99 23.5
7 -10 9 30.4 14.9
-3 -7 9 41.3 15.2
-7 10 9 60.89 20.8
-7 10 -9 36.8 22.8
10 -7 9 76.99 22
3 7 -9 57.99 22.4
-3 10 9 46.8 18
-7 -3 9 76.09 17
-10 7 9 74.89 16.7
3 -10 9 39.6 14.7
10 -8 -9 116.09 12.7
-2 10 -9 83.39 17.2
-8 -2 -9 120.79 14.1
-8 -2 9 278.57 30.9
10 -8 9 294.67 36.4
-10 8 9 278.07 29.6
-2 10 9 245.48 32.3
2 8 -9 281.67 38.1
-8 10 -9 308.67 38.7
2 -10 9 242.18 30.6
-10 8 9 330.27 35.9
-1 -9 9 160.98 25.3
9 -10 9 135.89 24.7
9 1 -9 105.19 14.3
-9 10 9 162.08 25.5
-10 1 9 124.19 25.6
-9 10 9 152.18 28.4
10 -9 -9 111.19 15
9 -10 9 102.39 15.2
-10 9 -9 143.39 30.1
-1 10 9 82.19 20.1
10 -1 -9 86.59 14.6
-9 -1 9 97.59 18.6
10 -9 9 137.99 27.1
1 -10 9 78.29 16.9
-10 9 9 75.09 19.7
-10 9 9 131.49 20.7
1 9 -9 107.89 24.9
9 -10 -9 75.29 13.6
-9 10 -9 150.08 31.1
10 -10 -9 186.78 20.3
-10 10 -9 160.78 24.6
10 0 -9 207.08 22.2
-10 10 9 212.48 28.6
-10 10 9 155.18 23.5
-10 0 9 213.68 30
10 -10 9 204.38 27.8
0 -10 9 194.28 24.6
0 10 -9 217.08 38.2
-10 10 -9 216.98 33.3
-10 10 9 253.07 33.3
11 -6 -9 78.39 13.8
-5 -6 9 80.69 18.6
-11 5 9 92.49 20
-11 6 -9 97.49 26.3
-6 11 9 63.79 20.1
-6 -5 -9 70.39 16
-5 11 -9 115.99 29.8
-6 11 -9 9.5 11.4
6 -11 -9 25 6.8
-6 11 -9 64.39 27.1
-5 11 9 54.09 20.4
-5 -6 -9 29.8 8.1
11 -6 9 65.09 22.3
-11 5 -9 70.19 24
-6 -5 9 69.89 16.4
-11 6 9 33.4 10.2
-11 5 -9 5.9 11.5
5 -11 9 41.9 13
-7 -4 -9 23 9.4
-7 11 9 11 17.6
-4 -7 9 25.8 14.8
-11 7 -9 23.9 21.1
-7 11 9 12.9 13.6
-4 11 -9 6.5 22.6
11 -7 -9 24.8 8.6
7 4 -9 4.2 5.2
7 -11 9 14.8 10.6
-11 4 9 27.9 16.4
-11 7 -9 -18.6 16.4
4 -11 9 15.8 11.9
-11 7 9 28.6 12.4
11 -4 -9 29.6 9
-4 -7 -9 13.5 7
4 7 -9 31.8 15.1
11 -7 9 25.9 21.2
-4 11 9 14.9 18.6
-11 4 -9 22.4 21.9
-7 11 -9 21.7 25
-7 -4 9 21.2 16.3
7 -11 -9 12.1 7.1
-11 7 9 33.7 16
-11 8 -9 78.99 21.5
-8 11 9 100.29 21.6
-8 11 9 111.99 22.6
-3 11 -9 65.39 18.4
-11 3 9 95.99 16.1
-3 -8 9 136.39 20.9
-11 8 -9 146.69 29.6
8 -11 9 123.19 14.1
11 -8 -9 112.09 16.4
-11 3 9 92.89 19.4
-3 11 -9 121.49 27.9
-8 -3 -9 136.89 19.4
-3 11 9 166.88 32.2
3 -11 9 153.48 22.6
11 -8 9 251.67 32.5
-11 8 9 187.98 28.8
11 -3 -9 214.98 21.7
-8 -3 9 214.48 27.5
8 -11 -9 175.18 20.2
-11 8 9 220.98 28.7
-8 11 -9 257.87 40.6
-11 8 9 222.08 29.7
3 8 -9 249.58 32.9
-11 2 9 60.59 17.8
11 -9 -9 105.59 16.5
-2 11 -9 144.19 31.4
-11 9 -9 94.19 25.8
-9 11 9 89.79 19.5
-2 -9 9 89.69 18.3
9 2 -9 107.69 18
-11 9 -9 53.69 20.5
-9 11 9 132.09 25.4
-9 -2 -9 132.59 19
-2 11 -9 58.29 16.3
-11 9 9 45.4 16.8
11 -2 -9 34.4 11.1
11 -9 9 52.79 12.1
11 -9 9 42.5 19.3
2 -11 9 23.5 12.2
9 -11 -9 30.6 9.8
-2 11 9 24.3 18.9
-11 9 9 30.3 18.7
-11 9 9 57.29 15.8
-9 11 -9 61.59 23.7
2 9 -9 33.6 22.5
-9 -2 9 48.6 17.9
10 1 -9 228.98 24.4
-11 1 9 191.58 29.7
11 -10 -9 222.68 21.8
-11 10 -9 148.49 25.3
-10 11 9 186.98 28.7
-1 11 -9 242.38 39.4
-1 11 -9 137.19 27.6
-10 11 9 215.58 34.8
-1 -10 9 186.28 26.5
-11 10 -9 224.88 34.8
1 10 -9 175.68 36
11 -10 9 195.18 26.4
-10 11 -9 203.58 28.5
-11 10 9 216.58 31.8
-11 10 9 194.68 29.7
-10 -1 9 197.18 28
11 -10 9 249.18 32.9
10 -11 -9 206.98 23.1
11 -1 -9 202.38 24.1
-11 10 9 181.18 31.8
11 0 -9 24.9 12.2
11 -11 9 12.4 10.2
0 -11 -9 -1.8 6
11 -11 9 21.9 13.3
-11 11 -9 -5.7 14.4
0 11 -9 10.3 9.8
0 11 -9 19 24.5
-11 11 9 40.3 15.5
0 -11 9 7.9 9.7
11 -11 -9 29.4 11
-11 0 9 10.7 18.1
-11 11 9 21.6 19.9
-11 11 9 25.8 18.3
-11 11 -9 13.5 23.1
12 -6 9 45.3 21.2
-12 6 9 37.2 18.6
-6 12 -9 29.8 26.5
-12 6 -9 31.4 23
-6 12 9 52.49 21.3
12 -6 -9 35.1 10.5
-6 -6 9 39.3 16.6
6 -12 -9 37.8 10.7
-12 7 -9 111.49 28.7
-5 -7 9 125.09 20.9
-7 -5 -9 137.69 22.8
-5 12 -9 72.49 27.2
12 -7 -9 120.29 18.7
-12 5 9 99.29 17.9
-7 12 9 76.49 21.6
-12 5 9 79.49 19.8
5 -12 -9 87.09 16.4
-5 -7 -9 130.09 23.5
12 -7 9 139.29 26.6
-7 -5 9 89.09 19.2
7 -12 -9 94.99 18.8
-7 12 -9 88.29 29.3
-12 7 9 118.39 21.3
-12 7 9 134.49 27.5
12 -5 -9 112.59 18.7
12 -7 9 130.39 19.2
-12 5 -9 109.79 27.6
-5 12 9 106.49 23.9
12 -8 -9 42.2 10.9
-12 4 9 46.4 18
8 4 -9 46.5 12.5
-4 12 -9 21.3 24.8
-4 -8 9 55.19 17.8
-8 12 9 28.4 19.3
-12 8 -9 24.2 23
4 -12 -9 30.1 9.3
12 -4 -9 28.3 11.4
-8 -4 9 19.1 15.8
-12 8 9 20.1 17.8
-12 4 -9 4.1 20.6
-12 8 9 31.4 15.7
12 -8 9 29 15.3
4 8 -9 6.9 12
-4 12 9 7.1 19.1
-4 -8 -9 29.4 12.4
12 -8 9 37.6 19.9
-8 12 -9 11.3 24
8 -12 -9 20.3 10.8
-12 3 9 58.29 16
-3 -9 9 104.49 20
12 -9 -9 119.29 18.1
-9 12 9 146.09 26.5
-12 9 -9 83.09 25.9
3 -12 -9 93.09 14.3
-3 12 -9 106.39 28.1
9 3 -9 122.79 22.5
-9 12 9 83.69 18.1
-3 12 -9 64.99 21.1
-3 12 9 120.79 25.2
-9 -3 9 137.99 22.7
12 -3 -9 135.49 21.3
-3 -9 -9 129.09 21.4
-12 9 9 122.69 26.9
9 -12 -9 158.28 19.8
12 -9 9 121.59 23.7
12 -9 9 152.28 20
-9 12 -9 163.28 35.7
-12 9 9 133.89 31.4
-2 12 -9 119.99 21.7
-12 10 -9 129.19 25.4
2 -12 -9 120.39 14.9
-2 -10 9 130.99 23.5
-12 10 -9 163.18 32.2
-10 12 9 160.48 26.6
10 2 -9 176.08 23.8
-10 12 9 124.59 26.7
-12 2 9 135.29 21
10 -12 9 170.18 30.8
-2 -10 -9 214.68 24.9
-12 10 9 216.48 31
-2 12 9 165.48 25.4
2 10 -9 183.58 28.4
-12 10 9 186.48 25.5
-12 10 9 219.58 36.1
10 -12 -9 232.38 23.7
12 -10 9 251.47 35.7
-10 -2 9 209.48 32.1
-10 12 -9 248.18 32.1
12 -2 -9 241.58 25.3
11 -12 9 119.19 17.4
-11 12 9 83.29 20.5
-12 11 -9 121.29 30.3
1 -12 -9 93.49 12.4
-1 12 -9 93.89 19.5
-12 1 9 129.99 25.5
-12 11 -9 93.39 23.5
-1 12 -9 168.38 31.5
-11 12 9 145.49 26.6
11 1 -9 129.79 22.5
-1 -11 -9 196.48 24.6
1 11 -9 255.07 32.6
-12 11 9 172.78 27.2
-12 11 9 177.88 36.2
11 -12 -9 231.58 24.2
12 -1 -9 228.58 25.8
-12 11 9 175.18 30.7
12 -11 9 220.48 36.9
-11 -1 9 170.88 31.2
-12 12 9 1 17.7
-12 12 -9 -27.7 20.2
0 -12 -9 -2 9
-12 0 9 -12.8 16.8
-12 12 9 12.5 17.4
-12 12 9 -6.2 16
12 -12 9 -7 14.3
0 12 -9 12.5 18.7
12 -12 -9 15.6 11.6
-12 12 -9 -17.9 17.7
0 12 -9 -10.4 13
12 0 -9 2.7 12
-6 -7 9 91.19 20.2
-7 13 9 80.29 24.4
-6 13 -9 92.59 31.7
6 -13 -9 102.89 21.5
7 -13 9 142.79 26.9
-7 -6 -9 102.19 16.5
13 -7 -9 116.49 19.1
-13 7 -9 98.79 29
7 6 -9 74.99 14.8
-13 6 9 65.69 20.2
-6 13 9 52.79 22.1
13 -6 -9 102.79 19.8
-13 7 9 114.59 21.8
-7 -6 9 68.99 18.5
6 -13 9 136.59 22.2
7 -13 -9 89.29 20.1
-13 6 -9 83.89 27.7
-6 -7 -9 121.19 17.7
13 -7 9 96.29 20.4
-7 13 -9 56.39 28.7
-13 7 9 73.59 19.9
13 -7 9 130.29 27
8 5 -9 14.7 13.9
13 -8 -9 51.89 12.4
-8 13 9 17.1 21.1
-5 -8 9 6.5 15.4
-8 -5 -9 49.5 14.4
-5 13 -9 7.1 24.7
8 -13 9 39.1 12.8
-13 8 -9 -6 21.9
-13 5 9 23.5 19.3
5 -13 -9 29.8 12.5
-5 -8 -9 35.2 14.5
-8 -5 9 24 16.2
-5 13 9 9 19.6
-8 13 -9 21.8 26.5
13 -8 9 52.29 23.3
-13 8 9 36.5 18.4
-13 5 -9 20.6 18.1
13 -5 -9 46.1 12.3
13 -8 9 37 17.2
8 -13 -9 34 11.6
-13 5 -9 8.5 24
-13 8 9 28.6 17.8
-13 9 -9 40.8 22.1
9 -13 9 69.29 15.1
-13 9 -9 30.4 26.3
-9 -4 -9 122.19 23.9
-9 13 9 65.89 25
-13 4 9 52.19 15.7
9 4 -9 102.19 17.7
13 -9 -9 93.29 18.5
4 -13 -9 75.09 13.5
-4 13 -9 47.3 27.4
-4 -9 9 81.49 18.7
-4 13 -9 30 21.7
-13 9 9 102.79 21.2
-13 9 9 63.19 19.7
9 -13 -9 89.69 19.2
-13 4 -9 61.59 16.9
13 -9 9 91.39 17.5
-4 13 9 62.49 22.2
13 -9 9 123.99 24.5
13 -4 -9 89.39 14.3
-9 13 -9 79.89 26.4
-9 -4 9 58.49 18.8
-4 -9 -9 71.89 15.7
-13 10 -9 267.07 34.6
10 3 -9 318.67 32.6
3 -13 -9 309.07 29.6
13 -10 -9 310.07 29
-3 13 -9 323.27 47.5
-10 13 9 261.87 37.9
10 -13 9 318.47 40.5
-10 13 -9 422.26 41.8
10 -13 -9 404.36 33.6
-3 13 9 291.77 35.9
-10 -3 9 413.86 42.1
13 -3 -9 420.56 34.4
-13 10 9 359.66 38.4
-13 10 9 321.07 41.3
-3 -10 -9 445.56 37.9
-11 13 9 28.4 11.6
-13 11 -9 -11.5 23.9
-2 13 -9 25.8 25.4
-11 13 9 19.1 20.3
13 -11 -9 35.7 11.2
2 -13 -9 27.5 11.5
-13 2 9 13.7 8.4
-13 11 -9 10.8 19.9
11 2 -9 29.9 13.4
11 -13 9 23.7 13.8
-11 13 -9 -9.6 8.5
-13 11 9 16.9 17.4
-11 13 -9 20.4 11.7
-13 11 9 29.1 14.5
11 -13 -9 29.7 11.5
-2 -11 -9 10.8 14
-11 13 -9 6.3 6.5
-13 11 9 7.9 18.2
13 -11 9 8.2 14.7
13 -2 -9 29.2 12.8
-11 -2 9 -7.5 18.7
-12 13 9 82.29 21.5
-1 13 -9 87.59 22.5
13 -12 -9 98.79 14.3
-12 13 9 84.29 19.3
-13 12 -9 66.19 22.2
12 1 -9 78.69 15
-13 12 -9 29.5 24.5
12 -13 9 86.29 16
-13 12 9 36.3 18.4
13 -12 9 71.49 15.4
-13 12 9 23.3 10.5
-12 13 -9 51.39 15.7
-1 -12 -9 73.69 16.7
-13 12 9 62.69 18.1
-12 -1 9 55.59 20.1
1 12 -9 39.4 9.9
-13 13 9 386.36 44.4
0 -13 -9 442.16 41.2
-13 13 -9 411.26 48.1
0 13 -9 461.75 44.7
13 -13 -9 449.06 37.3
13 -13 9 481.65 46.3
13 0 -9 498.05 38.7
-14 7 9 65.59 20
-7 -7 9 61.69 18.6
14 -7 -9 110.49 19.8
7 -14 9 91.09 15.3
-14 7 -9 97.69 23.4
7 7 -9 71.49 17.3
-7 14 -9 54.39 27.8
-7 -7 -9 109.19 24.1
14 -7 9 130.29 26.5
7 -14 -9 95.89 21
-14 7 -9 66.39 27.2
-14 7 9 86.99 19.7
14 -7 9 87.69 20.2
-7 14 9 47.8 21.5
6 -14 -9 15.4 13.1
-8 -6 -9 28.7 14.3
-14 6 9 7.9 18.3
-8 14 9 1.2 21.8
-14 8 -9 -20.1 18.6
-6 14 -9 6.1 26.6
-14 6 9 24.4 17.7
-6 -8 9 8 14.8
-14 8 -9 -20.1 22.1
8 6 -9 2.9 14.9
8 -14 9 1.2 12.9
-14 8 9 2.5 16.8
-14 8 9 2.8 17.4
-8 14 -9 7.5 24.9
14 -8 9 46.4 21
-6 -8 -9 21.4 14.1
-8 -6 9 15 17.3
-14 6 -9 -22.2 21.7
14 -8 9 9.3 15.3
8 -14 -9 34.9 12.8
6 8 -9 14.1 12.8
-14 6 -9 8.8 19.5
-6 14 9 -10.5 19.6
6 -14 9 10.3 11.8
9 -14 9 53.59 14.6
-14 5 9 40.1 13.4
14 -9 -9 73.09 12.6
-5 14 -9 54.99 29.6
-14 9 -9 6 24.3
-5 -9 9 35 15.2
-9 -5 -9 79.89 15.5
9 5 -9 47.1 17.2
5 -14 -9 54.39 13.9
-9 14 9 71.29 24.6
-14 9 -9 23.2 20.8
-9 -5 9 52.29 20.1
-14 5 -9 55.79 26.1
14 -9 9 67.59 17.3
5 9 -9 33.9 10.4
-9 14 -9 35 20.1
-14 9 9 52.69 18.4
14 -5 -9 60.19 12.6
-14 9 9 46 20.7
-9 14 -9 73.39 26.8
5 -14 9 60.59 12.8
-14 5 -9 52.29 20.2
-5 14 9 41.2 19
14 -9 9 32.8 13.7
-14 10 -9 61.29 22.9
-10 -4 -9 112.09 24.1
-10 14 9 52.99 23.8
14 -10 -9 96.29 18.9
10 4 -9 81.39 17.5
-14 4 9 103.09 14.8
-4 14 -9 99.79 32.5
4 -14 -9 95.29 16
10 -14 9 87.79 16.4
-14 10 9 39 17.6
10 -14 -9 92.59 20
4 -14 9 66.29 11.6
-14 10 9 54.59 20.6
-10 14 -9 41.1 19.1
14 -4 -9 71.19 13.1
-4 -10 -9 79.19 16.3
-4 14 9 33.9 13.8
-10 -4 9 46.1 19.6
14 -10 9 86.29 17
-14 4 -9 56.99 16.7
-11 14 9 46.3 23.4
11 -14 9 51.19 14.2
-3 14 -9 66.49 26.7
-14 11 -9 9.1 24.2
11 3 -9 90.69 16.5
-3 14 -9 34.4 19.8
3 -14 -9 64.89 14
14 -11 -9 85.69 18.1
-14 11 -9 20.4 20
14 -3 -9 58.99 13.2
-11 14 -9 19.6 12.8
11 -14 -9 51.19 12.1
-11 -3 9 34.4 20.1
3 -14 9 38.6 9.9
-14 11 9 10.8 19.3
-11 14 -9 33.2 13
-14 11 9 33.5 16.1
14 -11 9 43.7 15.5
-3 -11 -9 48.4 15.5
-2 14 -9 179.88 29.2
-12 14 9 237.48 29.3
12 2 -9 214.38 26.3
-14 12 -9 147.09 38.4
-12 14 9 169.58 28.8
14 -12 -9 221.48 24.1
12 -14 9 168.98 34.2
-2 14 -9 163.18 24.7
-12 -2 9 221.88 32.7
-14 12 9 224.68 30.9
12 -14 -9 262.57 26.9
-14 12 9 208.78 34.9
2 -14 9 295.37 26
14 -2 -9 263.77 28
14 -12 9 257.27 35.3
-2 -12 -9 309.67 33
13 -14 9 187.28 32.1
-14 13 -9 202.78 37.4
14 -13 -9 198.58 23.5
13 1 -9 234.08 25.7
1 -14 -9 166.18 26.2
-13 14 9 219.88 33.6
-1 14 -9 146.79 23.9
1 -14 9 178.18 19.9
-1 -13 -9 219.98 31.1
14 -13 9 168.48 33.5
14 -1 -9 203.08 24.6
-13 14 -9 160.78 29.8
-14 13 9 165.68 33.2
13 -14 -9 213.18 23.1
0 -14 -9 42.2 7.9
0 -14 -9 51.19 15.9
-14 14 9 43.2 17.7
14 -14 -9 58.09 12
14 0 -9 56.59 13.2
0 14 -9 36.8 14.7
14 -14 9 31.2 12.2
-14 14 -9 47.1 18.3
-8 -7 -9 30.2 14
-15 7 9 20.6 15.8
-7 -8 9 16.1 16
-8 15 9 -4.1 20.2
15 -7 9 51.19 18.3
15 -8 -9 32.4 11.6
-15 7 9 20.8 16.2
8 7 -9 11.1 16.1
7 -15 -9 22.1 12.5
15 -7 9 5.8 17.3
-15 8 -9 16 19.3
-7 15 -9 27 27.5
8 -15 9 8.9 12.4
-15 8 -9 -12.4 23.6
-7 15 9 2.2 20.6
-8 15 -9 -27.9 18.7
-15 8 9 24.4 15.7
8 -15 -9 35.3 13.4
15 -8 9 7.4 15
-7 -8 -9 28.4 13.8
15 -8 9 30.7 13.3
-15 7 -9 1.8 24.2
7 -15 9 15.2 12.7
15 -7 -9 35.8 11.8
-8 15 -9 39.4 26.5
-15 8 9 12.9 18.3
-8 -7 9 6.5 16.5
-15 7 -9 19 19.4
7 8 -9 -4.2 15.6
9 6 -9 14.4 16
15 -9 -9 35.4 11.6
-15 6 9 14.3 14.6
-9 -6 -9 40.1 14.4
-6 -9 9 25.3 11.8
-6 15 -9 20.4 25.7
-9 15 9 15 21.8
-15 9 -9 -22.4 20.7
-15 9 -9 10.5 18.8
6 -15 -9 24.6 12.9
9 -15 9 6.5 12.4
-15 6 -9 12.7 19.1
9 -15 -9 20.3 12.4
6 9 -9 6.5 14.4
-6 15 9 14.9 17
6 -15 9 11.2 12
15 -6 -9 22.5 11.3
15 -9 9 10.1 15
-9 15 -9 -19.2 18.3
-15 6 -9 9.3 17.4
-9 -6 9 1.6 17.9
-15 9 9 14.2 15.9
-6 -9 -9 31.5 13.9
-15 9 9 7 19.4
-9 15 -9 34.5 23.9
-15 10 -9 61.49 21
10 5 -9 57.79 16.3
-10 -5 -9 88.79 15.4
15 -10 -9 92.19 18.6
-15 10 -9 19.5 22.3
10 -15 9 40.2 13.7
-5 15 -9 69.89 27.2
-5 15 -9 21.9 21.7
5 -15 -9 75.59 15.3
-10 15 9 33.5 22.2
10 -15 -9 83.39 14.1
-10 -5 9 45.6 19.7
5 -15 9 58.29 12.9
-10 15 -9 38.7 19.4
15 -5 -9 62.99 12.7
-15 10 9 84.29 18.2
-15 10 9 46.6 19
-15 5 -9 67.69 19
15 -10 9 44.4 15.5
-5 -10 -9 87.79 16.3
5 10 -9 40.6 13.9
-10 15 -9 64.69 17.4
4 -15 -9 23.2 12.6
11 -15 9 32.5 12.8
-15 11 -9 28.1 19.3
-4 15 -9 72.69 25.5
-11 15 9 17.9 18.8
-4 15 -9 4.4 18.6
-15 11 -9 -9 21.1
-4 -11 -9 55.89 15
11 -15 -9 62.09 12.9
-11 15 -9 29.2 15.7
-15 4 -9 33.2 15
-15 11 9 63.39 17.5
-15 11 9 22.3 17
15 -11 9 45.9 14.3
-11 -4 9 44.1 19.3
4 11 -9 36.4 10.1
4 -15 9 39.2 12.1
-12 15 9 4.9 11.5
-15 12 -9 -20.5 15.2
-15 12 -9 -0.8 17.8
3 -15 -9 7.5 5.7
12 -15 9 -2.6 12
12 3 -9 9.3 13.3
15 -12 -9 19.8 11.3
3 -15 -9 -1 6.7
-3 15 -9 20.5 14.4
3 12 -9 4.3 6.8
-15 3 -9 -0.5 7.1
15 -12 9 12.3 12.5
-3 -12 -9 29.2 14.7
-15 12 9 31.9 16.3
12 -15 -9 35.9 12.3
15 -3 -9 33.1 12
3 -15 9 4.7 10.4
-12 15 -9 26.3 12.2
-15 12 9 11.6 14.6
-12 -3 9 17.4 13.4
13 -15 9 103.49 15.2
-13 15 9 130.39 26.6
13 2 -9 100.19 21.6
15 -13 -9 136.49 20.4
-15 13 -9 111.79 21.6
2 -15 -9 90.29 18.9
-2 15 -9 68.99 19.7
2 -15 -9 86.69 14
13 -15 -9 154.98 21.8
15 -13 9 128.69 18
2 -15 9 175.78 24.1
-15 13 9 151.98 32
15 -2 -9 154.78 22.4
-2 -13 -9 171.38 28.4
1 -15 -9 312.77 28.5
15 -14 -9 339.87 31.1
14 1 -9 361.46 32.9
14 -15 9 384.66 36.5
-1 15 -9 319.97 40.9
1 -15 -9 344.47 35.7
-15 14 -9 365.66 41.1
-14 15 9 349.47 39
-15 14 9 294.67 36.3
-14 15 -9 254.27 31.9
15 -1 -9 277.27 28.5
14 -15 -9 269.97 27.3
15 -14 9 257.27 33.8
-1 -14 -9 239.68 23.4
-1 -14 -9 350.06 34.3
15 0 -9 389.46 33.2
15 -15 9 390.16 37.4
0 -15 -9 407.96 37.7
0 15 -9 311.27 32.3
0 -15 -9 378.76 30.2
-15 15 9 407.26 40.6
-15 15 -9 376.96 38.9
15 -15 -9 358.56 32.1
0 -15 9 311.37 29.7
16 -8 9 -13.3 14.2
-8 -8 9 14.9 9
8 -16 9 -10.8 11.8
8 -16 -9 -6.3 4.9
16 -8 -9 12.5 11.1
-16 8 -9 -12 15.2
-8 16 -9 -14.3 18.8
-8 -8 -9 1 13
-16 8 9 4.4 15.7
-16 8 -9 -1.3 17.8
8 -16 -9 1.8 11.9
-8 16 9 -9.4 13.1
-8 16 -9 29.2 19.2
8 8 -9 -7.7 15.7
-7 -9 9 21.6 9.6
9 7 -9 47.5 17.2
9 -16 9 31.3 13.4
-16 9 -9 58.89 20
-16 9 -9 8.2 18
16 -9 -9 37.4 11.5
-9 -7 -9 58.79 14.4
-9 16 9 14.3 16.7
-7 16 -9 28.5 20.2
-16 7 9 38.2 16.9
16 -7 9 39.7 12.9
16 -7 9 31.4 16
7 -16 -9 40.8 13.4
-7 16 -9 76.69 22.6
-9 -7 9 40 13.4
-9 16 -9 51.09 17
16 -9 9 65.79 16.2
7 -16 9 44.1 12.7
9 -16 -9 68.99 13.7
-7 -9 -9 54.69 14.5
16 -7 -9 73.89 13.1
-16 7 -9 72.79 20.6
-9 16 -9 58.39 20.3
7 9 -9 39.1 17
-16 9 9 49.6 17.4
-16 6 9 31.8 14.5
-6 16 -9 42 19.2
10 6 -9 38.3 16
6 -16 -9 26.2 13
16 -10 -9 39.2 11.7
-6 16 -9 6.9 20.4
-16 10 -9 11.8 18.4
-10 -6 -9 35.2 13.4
10 -16 9 21.8 12.2
-16 10 -9 49.99 19
-10 16 9 4.3 15.1
-10 -6 9 22.5 11.7
-16 6 -9 25.6 17.9
-16 10 9 0.2 13.4
-6 -10 -9 34 13.5
16 -6 -9 38.5 11.5
-16 10 9 24.6 16.5
-10 16 -9 22.7 13.7
16 -10 9 3.7 13.6
6 -16 9 17 11.3
-10 16 -9 21.5 18.3
10 -16 -9 34.8 12.8
6 10 -9 17.2 14.7
11 -16 9 -2.2 11.6
-11 16 9 -9.2 10.9
-5 16 -9 -27.9 18.1
-16 11 -9 -22.9 14.4
-16 5 9 7.5 9.8
11 5 -9 0 13.7
16 -11 -9 22.8 10.9
-11 -5 -9 5.1 12.7
-16 11 -9 24.4 17.8
5 -16 -9 2.5 6.9
-16 11 9 -17.3 11.6
11 -16 -9 10.9 11.8
-11 -5 9 16.5 10.1
-16 11 9 9.4 15.6
-11 16 -9 -5.8 17.1
-16 5 -9 -1.1 15.6
5 11 -9 5.5 13.4
5 -16 9 -5.7 10.9
-5 -11 -9 3.4 13.4
16 -5 -9 12.2 11.3
16 -11 9 -12.7 12.7
11 -16 -9 -5.4 5.1
16 -12 -9 24.5 11.1
12 4 -9 9.8 13
-16 12 -9 -2.4 11.3
12 -16 9 -4.3 10.7
-16 12 -9 18.4 17.3
4 -16 -9 10 7.9
-4 16 -9 -10.9 16.6
12 -16 -9 -5.9 6.1
16 -4 -9 18.1 10.6
-12 -4 9 11.7 9
12 -16 -9 22 11.9
-16 12 9 26.4 15.9
-16 4 -9 7.5 10.7
16 -12 9 7.6 12.5
4 12 -9 12.8 9.5
4 -16 9 5 11
-4 -12 -9 26.5 13.7
-12 16 -9 8.1 13.6
13 -16 9 216.68 28.9
-16 13 -9 244.78 36.7
-3 16 -9 175.28 35.5
16 -13 -9 218.18 24.2
13 3 -9 241.88 26.9
3 -16 -9 197.68 21.5
3 -16 9 171.88 27.1
-16 13 9 182.88 31
16 -3 -9 168.58 22.8
16 -13 9 185.88 20.2
13 -16 -9 165.18 23.4
-3 -13 -9 183.98 27.7
14 -16 9 48.5 11.6
14 2 -9 83.99 13.8
2 -16 -9 50.69 10.6
-2 16 -9 46.5 17.2
-14 16 9 57.69 14
16 -14 -9 59.99 11.9
2 -16 -9 52.49 12.8
-16 14 -9 59.89 18.2
2 -16 9 32.6 11
14 -16 -9 40.5 12.3
16 -2 -9 47 12.1
-2 -14 -9 42.7 15.3
16 -14 9 49.7 12.6
1 -16 -9 39.3 13.9
-15 16 9 51.99 16.3
-1 16 -9 27.2 13.4
15 -16 9 27 10.7
16 -15 -9 32.1 10.9
-16 15 -9 35.7 15.3
15 1 -9 40.6 12
1 -16 -9 32.8 9.9
16 -1 -9 49.5 12.1
-1 -15 -9 65.99 16.5
15 -16 -9 56.49 12.2
16 -15 9 44.1 11.8
-16 15 9 49.99 16.2
-15 16 -9 26.9 10.9
1 -16 9 36.4 10
-1 -15 -9 47.4 9.8
0 -16 -9 20.2 14.7
16 -16 -9 16.1 10.8
16 0 -9 10.4 10.8
-16 16 9 25.1 15.4
16 -16 9 1.5 9.9
0 -16 -9 10.7 8.6
-16 16 -9 26.1 13.8
0 -16 9 10.1 5.6
0 16 -9 13.1 5.5
8 -17 -9 97.49 15.5
17 -8 9 102.89 17.8
-8 17 -9 169.18 37.4
9 8 -9 137.09 20.3
-17 9 -9 144.39 33.8
-17 8 9 123.89 30.7
-9 -8 -9 131.59 24.4
9 -17 9 88.99 14.9
17 -9 -9 123.19 20.1
17 -8 -9 116.29 20.5
8 9 -9 122.49 20.2
-17 8 -9 142.99 33
-8 -9 -9 129.99 17.5
-9 17 -9 156.08 23.9
-17 9 9 135.59 21
9 -17 -9 131.29 17.4
-17 7 9 6.6 13.8
7 -17 -9 -3.9 7.6
-7 17 -9 4.9 17.8
-10 -7 -9 5.1 12.3
10 -17 9 -6.9 11.2
-17 10 -9 15.2 16.7
17 -10 -9 12.5 10.7
7 -17 -9 -0.1 11.6
10 7 -9 -4.1 14.7
17 -7 9 -7.9 13.9
-10 17 -9 14.9 17.6
7 10 -9 4.5 15.9
-17 7 -9 2.6 16.8
-7 -10 -9 3.8 12.2
10 -17 -9 1.5 11.5
17 -10 9 -12.7 12.3
10 -17 -9 -7.1 5.8
17 -7 -9 11.5 10.8
7 -17 9 -5.7 10.8
-17 10 9 9.8 15.2
11 6 -9 116.69 23.8
11 -17 9 81.49 14.2
-17 6 9 97.39 23.8
6 -17 -9 96.69 16.5
-11 -6 -9 135.99 22.9
-17 11 -9 166.28 33.1
-6 17 -9 111.99 21.3
17 -11 -9 126.99 19
11 -17 -9 101.39 14.7
17 -11 9 66.09 14.9
-6 -11 -9 119.39 16.4
-17 11 9 91.89 17.6
17 -6 -9 93.19 18.8
6 11 -9 82.39 16.5
-17 6 -9 57.49 17.5
-11 17 -9 103.19 19.7
12 5 -9 27.7 13.1
-17 12 -9 55.09 17.2
5 -17 -9 27.6 9.9
-5 17 -9 27.8 17.1
12 -17 9 19.2 10.7
17 -12 -9 38.6 11.2
5 -17 9 25.8 11.3
5 12 -9 33.6 13.2
-12 17 -9 53.59 15.1
17 -5 -9 39.4 11.5
-5 -12 -9 32.9 13.4
-5 17 9 42 13.8
-17 12 9 53.99 16.4
17 -12 9 27.7 12.7
-17 5 -9 30.1 14
12 -17 -9 31.1 12
13 -17 9 41.3 11.4
17 -13 -9 70.09 11.9
4 -17 -9 56.09 11
-4 17 -9 62.69 17.9
13 4 -9 75.49 14.2
-13 17 -9 43.8 12.4
-4 -13 -9 73.59 15
17 -13 9 72.39 13.8
13 -17 -9 71.19 12.8
4 -17 9 42.9 11.7
17 -4 -9 54.19 11.5
4 13 -9 38.8 9.5
14 3 -9 99.69 20.8
-17 14 -9 165.78 29.5
-3 17 -9 117.99 19.7
3 -17 -9 101.59 18.2
17 -14 -9 94.79 18.3
14 -17 9 114.09 14.7
17 -3 -9 93.19 18.2
17 -14 9 64.39 13.2
-3 -14 -9 75.79 15.8
14 -17 -9 72.39 13.3
-17 14 9 114.99 26.7
15 2 -9 100.29 18.4
17 -15 -9 83.89 16.8
2 -17 -9 104.09 16.5
15 -17 9 78.39 12.3
-15 17 9 64.09 12.4
-2 17 -9 89.89 16.7
2 -17 -9 89.79 17.9
-17 15 9 128.59 26.2
-2 -15 -9 117.99 23.8
15 -17 -9 94.19 18.6
17 -2 -9 85.39 16.7
17 -15 9 81.59 13.3
2 -17 9 66.49 12.2
-1 17 -9 46.2 10.9
-16 17 9 58.89 12.8
-16 17 9 45.3 9.2
17 -16 -9 78.19 14.4
17 -16 9 89.09 13.1
16 -17 -9 62.19 12.5
17 -1 -9 90.09 17.8
-1 -16 -9 100.69 22.5
-17 16 9 130.09 26.2
17 -17 9 63.29 11
0 -17 9 48.9 9.4
17 -17 -9 73.39 11
-17 17 9 94.69 22.4
-9 18 -9 20.1 16.5
9 -18 9 -12.8 9.1
18 -9 9 -16.8 11.3
9 -18 -9 -5 7.5
-9 -9 -9 -6.1 11.3
9 9 -9 5.1 14.5
9 -18 -9 -5.3 10.7
-18 9 9 7.8 15.4
18 -9 -9 7.9 9.6
-18 9 -9 12.6 15.1
10 8 -9 95.19 17
18 -10 -9 93.09 16.9
18 -8 9 53.99 15
-10 -8 -9 89.19 14.3
-18 10 -9 132.89 28.4
8 -18 -9 68.99 11.3
-18 8 9 79.09 16.8
18 -10 9 41.1 13.7
18 -8 -9 58.09 11.1
-8 18 9 81.29 15.2
-18 10 9 85.79 17.3
10 -18 -9 38.6 9.1
-18 8 -9 71.29 17.4
10 -18 -9 62.69 13.2
8 10 -9 92.29 17.5
8 -18 9 51.39 11.6
7 -18 -9 17.3 9.3
11 -18 9 21.1 10.3
18 -7 9 22.1 13.4
-18 7 9 17.5 13.3
-11 -7 -9 29.5 12.2
11 7 -9 36.2 13.7
-18 11 -9 50.39 15.9
18 -11 -9 27.9 10
-18 11 9 45.1 15.8
-18 7 -9 36.9 15.3
18 -11 9 25.8 12.8
-11 18 -9 52.79 16.3
-7 18 9 48.9 13.7
7 11 -9 46.4 15.7
11 -18 -9 39.8 12.1
-7 -11 -9 58.69 12.9
18 -7 -9 38.2 10.6
7 -18 9 21.3 10.8
-6 18 -9 119.19 19.5
18 -12 -9 92.29 16.4
18 -6 9 86.39 16.7
12 6 -9 106.89 21.7
12 -18 9 109.89 14.4
6 -18 -9 106.59 17.3
-12 18 -9 69.19 15.7
12 -18 -9 56.89 12.4
-6 18 9 75.99 14.1
18 -12 9 31.9 12.1
18 -6 -9 50.79 11.1
-18 6 -9 47.3 15
6 12 -9 73.89 14.4
6 -18 9 56.29 12.1
13 -18 9 266.27 29.7
5 -18 -9 253.97 24.9
-18 13 -9 302.67 35
13 5 -9 261.47 28
-13 18 9 247.68 31.5
-5 18 -9 281.07 36.4
13 -18 -9 181.38 22.4
-13 18 -9 184.58 27.7
-18 13 9 222.38 29.1
-5 -13 -9 237.38 26.5
5 -18 9 230.78 27.6
5 13 -9 219.98 23.5
18 -5 -9 191.78 21.9
18 -13 9 183.68 30.7
14 4 -9 45.7 12.3
-14 18 9 58.09 13.8
4 -18 -9 44 10.3
-4 18 -9 61.79 16.9
18 -4 -9 51.09 10.4
14 -18 -9 45.8 11.4
-14 18 -9 31.5 8.9
4 -18 9 35.7 10.8
18 -14 9 44.8 11.6
-3 18 -9 40.7 14.4
-18 15 -9 43.7 13.8
-15 18 9 38.7 12.1
15 -18 9 21 9.5
3 -18 -9 29.1 8.9
15 3 -9 33.2 11.2
15 -18 -9 19.9 10.3
18 -15 9 24.4 10.9
-3 -15 -9 48.3 13.9
3 -18 9 23.2 9.9
18 -3 -9 25 9.7
2 -18 -9 11.5 6.3
2 -18 -9 27 7.6
-2 18 -9 20.3 6.5
16 2 -9 22.8 10.2
16 -18 9 4.4 8.9
-18 16 -9 29.1 13.1
-16 18 9 5 8.1
16 -18 -9 11.2 8.3
18 -16 9 11.4 9.8
-2 -16 -9 32.8 13.1
18 -2 -9 20.4 8.9
-18 16 9 22.5 13.5
2 -18 9 11.5 7.9
17 -18 9 32.1 9.5
17 1 -9 43.2 10
-18 17 -9 21.1 8.3
1 -18 -9 32.4 9
18 -17 9 32.7 9.8
-18 17 9 40.7 12.6
-1 -17 -9 64.89 13.4
18 -1 -9 51.99 9.6
0 -18 -9 126.69 17.6
18 -18 9 122.99 20.8
18 0 -9 119.39 14.8
-10 19 9 137.49 23.2
19 -9 9 153.78 18.8
-19 9 9 180.08 28.3
-19 10 -9 166.78 26.1
10 -19 9 138.59 24.1
9 -19 -9 124.79 16.6
-10 -9 -9 147.49 22
10 9 -9 176.18 24.2
-19 9 -9 187.78 27.8
-9 -10 -9 166.78 22.3
9 -19 9 183.48 24.7
10 -19 -9 130.19 16.9
9 10 -9 198.58 25.6
19 -10 9 143.69 29.8
-9 19 9 180.78 26.2
-19 10 9 200.88 29.7
19 -8 9 53.59 13.7
11 8 -9 80.69 13.7
8 -19 -9 56.29 9.7
-19 8 9 40.6 13
11 -19 9 58.09 10.8
-8 -11 -9 68.39 13.3
-8 19 9 69.19 13.9
11 -19 -9 37.5 11.5
8 11 -9 78.69 15.1
8 -19 9 51.49 11.1
-19 8 -9 51.29 15.3
-19 11 9 75.39 16.4
19 -11 9 39.3 12.9
19 -7 9 163.48 33.6
-7 19 -9 236.08 30.9
12 7 -9 178.28 22.8
7 -19 -9 150.88 18.7
12 -19 9 155.68 23.3
-12 19 9 179.68 26.9
-7 -12 -9 134.69 21.1
-7 19 9 159.48 23.5
19 -12 9 123.99 27.1
19 -7 -9 121.19 15.5
7 -19 9 140.59 23.9
12 -19 -9 113.89 19.5
-19 12 9 162.28 25.5
-19 7 -9 130.89 22.1
6 -19 -9 30.3 8.9
13 6 -9 37.3 12
-13 19 9 47.9 12.8
19 -6 9 18.1 13
13 -19 9 26 9.8
19 -6 -9 18.3 7.7
13 -19 -9 2.6 10.1
-13 19 -9 32.4 11.9
19 -13 9 3.5 11.1
-19 13 9 34.7 14.2
6 13 -9 29.9 10.9
6 -19 9 2.5 9.3
-6 -13 -9 20.1 11.4
14 5 -9 85.09 17.8
5 -19 -9 57.89 9.5
19 -5 9 53.99 14.1
14 -19 9 48.9 10.3
5 -19 9 38.2 10
19 -14 9 38.7 11.2
19 -5 -9 37.9 8.1
-5 -14 -9 58.89 12.5
5 14 -9 27 6.8
14 -19 -9 42.1 10.9
4 -19 -9 33.9 7.6
-15 19 9 49.9 11.9
15 4 -9 37.2 10.8
19 -4 9 33.5 13.4
15 -19 9 31.1 9.6
19 -4 -9 36.1 7.6
15 -19 -9 43.4 10
19 -15 9 29.2 10.8
-19 15 9 58.79 13.6
4 -19 9 36.3 9.3
16 3 -9 6.7 9.1
-3 19 -9 13.6 5.6
16 -19 9 -4.4 7.9
3 -19 -9 2.8 5.2
-19 16 -9 18 11.7
19 -16 9 -3.7 9
-19 16 9 13.4 12.4
-3 -16 -9 0.4 11.2
19 -3 -9 6 5.3
16 -19 -9 10.2 4.6
3 -19 9 6.6 7
17 2 -9 30.8 9.1
17 -19 9 26.8 8.5
-19 17 -9 22 7.6
-2 -17 -9 26.8 11.2
19 -2 -9 7.2 4
-19 17 9 16.5 11.3
2 -19 9 11.3 4
19 -17 9 22.6 8.8
18 1 -9 86.89 9.9
-1 -18 -9 146.89 17.6
19 -18 9 186.68 19.6
10 -20 9 4 8.6
10 -20 -9 5.4 4.9
-20 10 -9 18.4 12.2
-20 10 9 18.7 13.1
-10 20 9 25.7 11.5
-10 -10 -9 15.6 9.8
10 10 -9 19.5 11.2
-20 9 9 86.49 14.4
9 -20 -9 66.39 11.1
11 9 -9 113.89 18.2
20 -9 9 89.49 14.8
11 -20 9 109.79 20
-20 11 -9 131.99 22.3
-11 20 9 117.79 20.6
-9 20 9 132.99 21.8
9 11 -9 150.18 20.4
-20 9 -9 130.59 22.3
9 -20 9 118.49 21.3
-9 -11 -9 96.99 19.1
-20 11 9 125.09 23.6
12 8 -9 28.5 10.9
20 -8 9 12.1 11.4
12 -20 9 17.1 8.7
-12 20 9 37.6 11.7
-20 12 -9 42.7 12.2
8 12 -9 29.4 11.6
20 -12 9 7.2 11.1
-20 12 9 27.6 13.1
8 -20 9 7.6 8.4
-8 20 9 21 10.5
-20 8 -9 10.9 9.5
-8 -12 -9 20.2 10.3
13 7 -9 80.79 17.5
20 -7 9 86.79 14.4
7 -20 -9 61.09 10.8
13 -20 9 81.19 11.2
-13 20 9 112.69 21.8
7 13 -9 139.59 17.5
7 -20 9 98.99 20.8
-20 13 9 110.99 21.5
20 -13 9 101.39 15.2
-7 -13 -9 101.49 18.1
14 6 -9 249.08 24.3
-20 14 -9 280.97 28.3
-14 20 9 244.68 27.3
20 -6 9 262.47 34
14 -20 9 252.47 26.3
6 -20 9 221.48 23.1
-20 14 9 192.48 24
20 -14 9 195.18 27.6
-6 -14 -9 194.98 21.8
-14 20 -9 162.58 20.3
-15 20 9 37.6 10.3
15 -20 9 19.5 8.3
15 5 -9 34.3 9.9
20 -5 9 14.6 11.9
-20 15 9 33.6 12.7
20 -15 9 12.2 9.9
5 -20 9 15.1 7.7
-5 -15 -9 27.9 10.6
16 -20 9 -3 7.4
20 -4 9 -6.7 11.2
-20 16 -9 21.8 10.4
16 4 -9 11.4 8.4
4 -20 -9 5.2 3.3
4 -20 9 6.5 5.7
-20 16 9 17.3 11.8
20 -16 9 13.8 7.6
-4 -16 -9 0.2 10
20 -3 9 5.8 10.1
17 3 -9 13 6.3
17 -20 9 15 6.7
-3 -17 -9 17.2 9.5
-21 11 -9 12.2 10.4
21 -10 9 -7 9.9
-11 21 9 14.6 9.5
11 10 -9 18.5 9.1
11 -21 9 -0.7 7.7
21 -11 9 4.7 10.5
-21 10 -9 9.1 10
-10 21 9 13.5 9
10 -21 9 0.5 7.6
-21 11 9 8.5 12.1
10 11 -9 19.6 9.3
-12 21 9 87.99 17.9
12 9 -9 105.19 15.9
12 -21 9 86.79 17.6
-21 12 -9 114.29 19.4
-9 -12 -9 79.99 14.1
21 -12 9 102.49 20.8
9 -21 9 54.09 9.6
-9 21 9 53.69 9.8
13 -21 9 154.68 19.8
13 8 -9 164.48 17.8
-21 13 -9 161.18 21.1
21 -8 9 175.18 26.2
-13 21 9 144.89 20.2
-8 -13 -9 145.99 18.6
8 13 -9 148.89 16.1
8 -21 9 186.48 20.7
-21 13 9 168.58 22.3
21 -13 9 196.08 21.6
14 7 -9 24.2 8.9
14 -21 9 12.5 7.2
-21 14 -9 29.9 10.6
21 -7 9 10.3 10.5
-14 21 9 19.6 9.3
7 -21 9 1.5 7.2
-21 14 9 19.3 11.8
-7 -14 -9 7.9 8.5
21 -14 9 18.2 7.6
-21 15 -9 32.4 10.4
15 6 -9 17.8 7.9
-15 21 9 3.3 7.7
21 -6 9 14.1 9.3
15 -21 9 14.3 6.6
-6 -15 -9 24.9 9.1
-21 15 9 33.3 11.8
6 -21 9 14.7 5.8
0 0 10 -8.9 15
0 0 -10 0.9 14.6
1 0 10 756.52 57.99
-1 0 -10 717.43 58.59
1 -1 10 720.33 57.89
-1 1 -10 701.93 57.49
0 1 10 718.43 57.89
0 1 -10 690.53 57.59
-1 1 10 716.73 56.89
1 0 -10 710.83 57.59
-1 0 10 755.02 58.79
0 -1 10 756.72 57.89
-1 1 10 729.63 57.79
1 1 10 331.97 33.7
1 1 -10 326.37 33
2 -1 10 312.87 35.1
-2 1 -10 326.27 33.3
-1 2 10 345.27 32
-1 2 -10 320.97 33.6
-2 1 10 333.37 32
-1 -1 10 332.57 33.1
1 -2 10 349.77 34.8
-1 2 10 346.67 34.8
-2 1 10 304.37 32.7
0 2 10 267.57 32
-2 2 -10 275.97 33.2
-2 2 10 276.67 32
2 -2 10 276.17 30.3
2 0 -10 303.17 32.8
2 0 10 269.97 32.5
-2 2 10 284.27 28.8
0 2 -10 262.17 30.6
-2 0 -10 292.67 32.7
-2 0 10 285.77 30.3
-2 0 10 306.57 31.5
0 -2 10 278.37 31.8
-1 -2 10 677.73 52.69
-2 3 10 632.04 50.49
-3 1 10 677.43 52.79
-2 3 10 581.84 50.39
-3 2 -10 666.83 53.79
-3 1 10 672.13 50.99
1 2 10 619.24 53.19
-1 3 -10 606.84 53.59
2 -3 10 620.34 52.49
3 -1 10 580.54 51.99
2 1 -10 596.64 51.69
1 2 -10 614.24 52.59
-1 3 10 659.33 51.39
-3 1 -10 620.14 52.19
3 -2 10 637.54 53.79
-2 3 -10 635.54 53.29
-1 3 10 594.74 51.19
1 -3 10 622.04 51.79
-2 -1 10 673.53 52.49
-3 2 10 607.94 52.19
-3 2 10 664.43 52.29
2 1 10 671.03 54.49
-2 -1 10 683.53 53.09
-3 3 10 99.09 19.3
-3 3 -10 126.89 27.6
0 3 10 129.29 22.3
3 0 10 110.19 20.6
3 -3 10 120.99 22.4
-3 0 10 136.69 25.1
0 -3 10 132.19 22.4
0 3 10 140.59 21.8
0 3 -10 119.69 24.6
-3 0 10 140.99 22.2
3 0 -10 145.79 26.2
-3 3 10 160.58 23.6
-3 0 -10 118.99 21.6
-4 2 10 112.79 19.8
-4 2 -10 86.79 19.4
-2 4 10 135.09 21.4
2 2 10 92.39 19.9
4 -2 10 141.39 22.6
-2 -2 10 141.19 25.1
-4 2 10 137.69 23.7
-2 -2 10 141.09 22.9
-2 4 -10 147.29 25
2 -4 10 125.79 24.4
2 2 -10 128.69 24.2
-4 1 10 689.23 52.59
4 -1 10 675.43 55.79
1 3 10 573.34 53.39
3 -4 10 624.34 52.79
-1 -3 10 710.23 53.29
-1 4 -10 625.04 55.99
-1 -3 10 653.93 52.89
-4 1 10 637.44 52.69
-3 4 10 636.94 51.99
3 1 -10 659.63 53.79
-4 3 -10 695.43 56.09
3 1 10 568.64 50.39
-4 3 10 582.14 45.9
4 -3 10 553.04 47.7
1 3 -10 541.35 47.8
-4 1 -10 467.05 46.5
-3 -1 10 628.24 47.3
-1 4 10 543.65 46.1
1 -4 10 527.05 46.5
-3 4 -10 593.84 51.19
-3 -1 10 604.64 48.3
0 4 10 21.1 14.4
-4 0 10 15.3 15.9
-4 0 10 22.8 16.4
0 4 -10 25.4 17.3
4 0 -10 32.1 17.7
-4 4 -10 31.7 20.8
-4 4 10 1.1 7
4 0 10 4.6 17.2
-4 4 10 30.1 15.1
0 -4 10 16.9 14.2
0 4 10 11.2 7.9
4 -4 10 15.3 14.2
3 -5 10 490.35 43.6
-2 -3 10 466.75 42.2
5 -2 10 502.35 44.3
-5 2 10 521.15 41.5
-2 5 -10 501.55 46.6
-5 3 -10 434.96 42.1
-5 2 10 438.46 41.8
-2 -3 10 492.15 42
3 2 -10 518.95 43.6
-3 5 10 500.85 41.3
2 3 10 432.86 42.2
3 2 10 418.96 41.3
5 -3 10 434.76 42.6
2 -5 10 436.56 39.4
-3 -2 10 472.25 41.2
-5 3 10 424.66 38
-3 -2 10 451.95 38.9
2 3 -10 425.66 40.9
-2 5 10 424.36 38.4
-3 5 -10 452.45 44.5
-4 5 10 464.95 39.2
4 -5 10 426.26 41.4
-1 -4 10 458.45 40.1
-5 1 10 504.95 40
-1 -4 10 396.26 38.8
-1 5 -10 433.96 42.4
-5 1 10 455.95 41.5
-5 4 -10 464.55 43.7
5 -1 10 448.46 42.6
4 1 -10 489.75 43.2
1 4 10 426.56 39.4
-4 5 -10 532.95 47.3
-4 -1 10 546.05 43.8
-1 5 10 512.35 44.2
1 4 -10 467.45 45.3
-4 -1 10 526.65 45.5
-5 4 10 474.25 42.2
4 1 10 507.55 46.1
5 -4 10 500.45 45.7
1 -5 10 509.45 45
-5 5 10 118.39 18.9
-5 0 10 77.49 17.7
5 0 10 80.99 20.8
-5 5 -10 87.59 22.3
0 5 10 75.49 17.4
0 -5 10 91.69 17.6
0 5 -10 101.59 23
5 -5 10 79.09 19.5
-5 0 10 107.69 21.2
-6 3 10 118.39 23.5
3 3 -10 142.29 24.3
-3 6 -10 158.78 26.5
-3 -3 10 116.19 19.5
6 -3 10 109.79 21.5
-3 -3 10 99.49 19.7
-3 6 10 159.18 23.8
3 3 10 94.59 21.1
3 -6 10 126.59 20.4
-2 6 -10 352.66 38.1
-2 -4 10 280.87 32.4
6 -2 10 396.36 38
-6 2 10 389.56 34
4 2 -10 371.96 36.5
-6 4 -10 326.67 36.6
-2 -4 10 372.26 34.4
-6 2 10 297.77 34.4
4 -6 10 379.66 35
-4 6 10 384.06 33.5
2 -6 10 404.96 38.5
-6 4 10 402.56 35.5
2 4 -10 419.46 41.7
-4 6 -10 399.76 41.6
-4 -2 10 349.47 34.9
4 2 10 355.66 41.4
6 -4 10 395.76 38.6
-4 -2 10 423.26 37
-2 6 10 376.06 37.1
5 -6 10 94.99 18.9
1 5 10 94.09 20.5
-5 6 10 109.29 20.3
-6 5 -10 88.59 22.8
-6 1 10 72.39 17.3
6 -1 10 77.49 21.5
5 1 -10 100.59 21.6
-1 -5 10 101.09 18.4
-1 6 -10 118.99 25.1
-6 1 10 114.09 24.1
1 5 -10 50.49 19.5
-5 -1 10 51.29 16
5 1 10 52.79 22.1
1 -6 10 46.9 16.4
-5 6 -10 67.09 24.1
6 -5 10 63.39 17.9
-1 6 10 52.09 17.6
-5 -1 10 40.1 14.7
-6 5 10 66.99 15.7
-6 6 -10 118.39 25.6
6 -6 10 104.19 20.6
-6 0 10 141.49 23.9
-6 6 10 136.99 23.4
0 6 10 124.89 23.9
6 0 10 93.29 23.3
0 -6 10 137.89 21.2
0 6 -10 155.88 26.9
-3 -4 10 388.76 36.7
4 3 -10 375.26 40.8
7 -3 10 358.06 39.6
-4 7 10 415.66 37.2
-3 7 -10 375.46 43.7
-7 3 10 416.86 35.9
4 -7 10 386.86 39.5
-4 -3 10 334.27 33.8
4 3 10 297.47 35.6
7 -4 10 325.97 36
3 -7 10 366.26 34.5
-3 7 10 321.47 32.4
-7 4 10 356.56 32.5
-4 7 -10 339.47 41.8
3 4 -10 355.36 39.1
5 -7 10 450.55 41.4
-7 2 10 346.87 37.4
-5 7 10 440.46 38.5
5 2 -10 445.16 41.7
-7 2 10 452.05 37.6
-7 5 -10 382.46 38.8
7 -2 10 412.56 42.3
-2 -5 10 413.06 38.1
2 5 10 362.36 37.1
-2 7 -10 429.06 42.6
-5 -2 10 483.05 41.8
7 -5 10 483.25 45.8
-5 -2 10 379.66 39.3
2 5 -10 506.55 47
-5 7 -10 532.05 47.2
-7 5 10 470.85 39.9
5 2 10 436.06 47
2 -7 10 489.65 41.9
-2 7 10 427.36 39.9
1 6 10 17.8 13.2
-6 7 10 54.99 16.3
7 -1 10 6.3 20
-7 6 -10 30.9 20.2
-7 1 10 23 14.7
6 -7 10 33.3 16.6
-1 -6 10 32.3 16.5
-1 7 -10 49.6 21.1
-7 1 10 63.99 18.1
7 -6 10 37.1 17.6
-6 7 -10 46.7 24.8
1 6 -10 41.1 19.9
-6 -1 10 46.6 16.4
1 -7 10 47 17.4
-7 6 10 52.39 15.7
-6 -1 10 47.1 15.5
-1 7 10 37.2 14.4
6 1 10 14.9 19.4
7 -7 10 -3.4 17.5
0 -7 10 4.3 15.3
0 7 -10 10.6 6.9
-7 7 10 10.8 15.1
-7 0 10 18.5 14.9
-7 0 10 0.2 16.1
7 0 10 -12.1 18
-7 7 -10 11.6 19.3
0 7 -10 -4.1 19.1
4 -8 10 2109.69 142.79
-4 -4 10 1953.6 141.39
-4 8 10 1825.82 140.59
-4 8 -10 2101.29 146.09
8 -4 10 1905.21 143.69
-8 4 10 1938.51 140.89
4 4 -10 1873.41 142.79
-8 3 10 7.2 8.2
-3 -5 10 32.6 15
-8 3 10 48.7 16
8 -3 10 20.1 18.9
-3 8 -10 30.8 23.2
5 -8 10 31.2 18.3
-5 8 10 26.2 15
5 3 -10 24.8 19.2
-3 8 10 74.59 18
-8 5 10 91.09 17.3
-5 8 -10 87.29 26.9
5 3 10 33.9 19.5
-5 -3 10 56.29 16.7
3 -8 10 79.99 19.5
3 5 -10 84.19 23.4
8 -5 10 61.79 20.1
-8 2 10 21 15.1
-8 2 10 37.8 17.3
6 2 -10 13.9 17
-8 6 -10 14 12
-2 8 -10 9.9 7.1
-6 8 10 44.2 16.8
6 -8 10 27.9 18.1
-2 8 -10 34.5 22.7
-8 6 -10 3.2 8.7
8 -2 10 3.2 18.7
-2 -6 10 22.9 15.3
6 -8 -10 -4.5 7.2
6 2 10 -22.9 18.4
-2 8 10 4.1 12.7
8 -2 -10 9.1 6.3
8 -6 10 13.6 17.8
2 -8 10 8.2 14.9
-6 8 -10 9.4 21.9
-6 -2 10 11.2 15.1
2 6 -10 11.7 19.6
-8 6 10 39.1 16
7 -8 10 248.98 30.9
-8 7 -10 234.48 30.5
-8 1 10 211.98 28.1
-8 1 10 219.48 30.2
-1 -7 10 247.88 28.6
8 -1 10 158.18 33.8
-1 8 -10 250.27 38.6
-7 8 10 268.17 29.2
1 7 -10 228.18 35.9
-7 8 -10 240.68 37.5
1 -8 10 208.48 29.9
-7 -1 10 174.78 27.5
-1 8 10 200.28 30.9
-8 7 10 204.58 25.6
8 -7 10 219.28 32.8
7 1 10 186.18 31.8
-8 8 -10 71.39 22.6
8 0 10 15.4 20.8
-8 0 10 26.3 12.6
-8 0 10 54.99 18.6
0 8 10 42.4 17.7
8 -8 -10 20.2 9
8 -8 -10 19.6 6.5
8 -8 10 59.59 19.3
0 8 -10 57.79 22.9
0 -8 10 52.49 16.2
0 8 -10 31.2 8.6
-5 9 10 289.57 36.3
9 -4 10 229.68 35.2
-4 -5 10 289.67 32.4
-4 9 -10 270.57 40.7
5 4 -10 279.17 35.4
5 -9 10 289.97 34.5
-5 9 10 234.38 28.1
-9 4 10 305.67 31.7
-4 9 -10 199.08 28.3
5 4 10 152.78 22.6
-5 9 -10 124.89 19
9 -4 -10 113.69 13.4
5 -9 -10 124.79 19.4
-9 4 -10 120.59 21.7
-4 9 10 160.78 20.7
-5 9 -10 207.48 37.3
-3 9 -10 98.69 24.4
9 -6 -10 102.99 13.2
-6 -3 -10 91.79 13.7
-9 6 -10 114.19 20.4
6 3 -10 155.18 25.4
-9 6 10 223.38 27.6
-6 -3 10 194.68 27.1
6 -9 -10 156.58 24.9
9 -6 10 172.48 32.9
-3 9 10 196.58 29.2
-6 9 -10 213.18 35.9
3 6 -10 197.18 34.9
6 3 10 130.39 28
3 -9 10 205.58 27.8
-7 9 10 87.69 18.2
9 -7 -10 90.89 14.1
7 -9 10 77.69 21
9 -2 10 103.89 25.3
-2 9 -10 99.29 26.1
-9 7 -10 83.09 19.2
-2 9 -10 70.49 16
-2 -7 10 137.59 21.1
-9 2 10 80.89 17.6
-9 2 10 115.99 23.8
-9 7 10 199.18 26.1
-7 9 -10 185.88 37.9
-7 -2 10 161.58 25.9
-2 9 10 145.89 30.8
9 -2 -10 112.59 15.5
2 7 -10 166.08 28.7
9 -7 10 171.78 33.6
7 -9 -10 135.49 25.2
2 -9 10 178.58 28
9 -8 -10 53.79 10.9
-1 9 -10 56.89 14.1
8 1 -10 46.4 10.7
-9 1 10 82.49 19
-9 8 -10 73.49 17.6
-9 1 10 66.19 16.1
1 8 -10 162.18 35.6
8 -9 -10 156.98 26.3
-8 -1 10 157.88 25.9
9 -8 10 176.58 29.3
9 -1 -10 128.99 17.3
1 -9 10 167.38 28.2
-8 9 -10 160.68 34.1
-1 9 10 135.79 29.3
8 -9 -10 132.99 17.3
-9 8 10 194.08 26.5
0 9 -10 49.99 13.4
-9 9 -10 61.19 17.2
9 -9 10 77.59 20.5
0 -9 10 69.99 18.4
-9 9 10 95.79 19.6
9 -9 -10 84.39 16.3
9 -9 -10 63.29 14.3
-9 9 -10 52.79 15.3
-9 0 10 85.89 20.2
0 9 -10 83.69 25.3
-9 9 10 93.89 24
9 0 -10 79.89 16.4
-5 10 10 34.2 19.1
-10 5 10 47.7 17.2
-5 -5 -10 32.2 9.7
5 -10 10 34.5 16.9
-10 5 10 44.9 14
-5 -5 10 43.9 18.4
10 -5 10 19.2 22.7
-5 10 -10 24.9 25.6
5 5 -10 28.8 16.6
10 -5 -10 38.9 10.9
10 -6 -10 428.56 35.1
-4 -6 10 466.25 40.4
-10 6 -10 363.36 44.4
-6 10 10 388.56 39
6 -10 10 409.66 41.3
10 -4 10 445.86 46.3
-4 10 -10 360.16 44.4
-6 10 10 518.35 46.1
-4 10 -10 478.65 51.39
-6 -4 -10 467.95 36.5
-4 10 10 417.16 43.5
4 -10 10 385.96 40.2
4 6 -10 451.65 44.1
-6 10 -10 335.57 39.5
10 -6 10 466.85 45
10 -4 -10 408.16 34.5
-10 6 10 475.95 40.7
-6 10 -10 469.15 51.49
-10 6 10 483.85 42.2
-10 4 -10 357.86 40.6
-6 -4 10 438.36 42.1
-10 3 10 23.5 17.8
-3 10 -10 6 24.8
10 -7 -10 21.8 10.6
-7 10 10 29.8 17.1
7 -10 10 22.3 17.1
10 -3 10 -28.9 19
-10 3 10 7.5 7.3
-7 -3 -10 32.1 12
-7 10 10 22.8 21.5
7 3 -10 7.2 5.2
-3 -7 10 13.6 16.7
-10 7 -10 -21.3 17.1
-10 7 10 5.1 15.2
-7 10 -10 5.1 8.7
3 -10 10 2 15.4
-7 -3 10 -7.2 15.1
-3 -7 -10 7.3 5.9
10 -3 -10 -0.9 10.2
-10 3 -10 -4.1 9.6
10 -7 10 -5.6 19.6
3 7 -10 8.2 22.9
-10 7 10 21.7 15
-3 10 10 0.8 17.1
-7 10 -10 -9.4 22.6
7 -10 -10 -0.2 8.1
-2 10 -10 124.49 31
-10 8 -10 55.79 21.2
-8 10 10 105.49 23.4
-10 2 10 58.49 15.1
-8 10 10 88.99 18.9
8 2 -10 85.79 15
8 -10 10 130.39 25.8
10 -8 -10 101.59 18
8 -10 10 117.19 13.2
-2 -8 10 109.59 20.4
-10 2 10 64.29 18
2 -10 10 99.59 19.9
-2 10 10 86.99 22.2
10 -2 -10 108.99 19.4
-8 10 -10 96.69 26
-10 8 10 148.99 27.7
-8 -2 10 103.09 20.6
2 8 -10 107.89 26.5
-10 8 10 125.59 23.2
-10 8 10 150.38 26.4
8 -10 -10 105.79 17.9
10 -8 10 124.09 25.8
-9 10 10 18.3 17.5
10 -9 -10 8.7 11.9
-1 10 -10 -2.5 22.9
-9 10 10 25.8 20.2
-1 10 -10 -4.9 15.4
-9 10 10 26 13
9 -10 10 20.2 15.4
10 -9 -10 16.1 10.1
-10 1 10 5 15.9
9 1 -10 5.2 11
-1 -9 10 12.4 16.2
-10 9 -10 -16.1 17.2
10 -1 -10 20.3 12.1
-10 9 10 9.8 21.3
-9 10 -10 8.2 9.8
-1 -9 -10 2.7 5.9
10 -9 10 26.8 10.2
-9 -1 10 9.5 15.8
1 9 -10 12.7 9.6
9 -10 -10 21.7 10.6
10 -9 10 18.1 19
-9 10 -10 38.6 19.2
-10 9 10 37.4 15.2
1 -10 10 6.4 13.9
-1 10 10 14.7 12
1 9 -10 1.7 24.3
-10 9 10 7.3 17.3
-10 10 -10 102.59 22.1
0 10 -10 130.19 30.5
10 -10 10 145.59 28.6
10 0 -10 115.99 22.1
0 -10 10 126.39 24.9
-10 0 10 117.39 22.7
10 -10 10 132.69 23.9
-10 10 10 107.79 22
-10 10 10 157.78 29.9
0 10 -10 117.09 19.8
10 -10 -10 148.69 19.9
-10 10 10 136.69 29.7
5 -11 -10 9.5 8.3
11 -6 -10 19.3 11.2
-11 5 10 14.7 17.4
11 -5 10 -3.5 20
-6 11 10 11.8 18.9
-5 -6 10 8.1 16.9
-11 6 -10 -21.1 16.5
-5 11 -10 -10.2 25.6
-11 5 10 25.1 13.9
6 -11 10 15.2 11.1
6 5 -10 3.9 5.8
-6 -5 -10 18.2 13.1
-11 5 -10 -15.2 17
-6 11 -10 -12 24.6
11 -6 10 13.7 21.6
-11 6 10 13.4 17.6
-11 6 10 27.5 15.3
-5 11 10 6.4 20.1
11 -5 -10 13 10.7
-5 -6 -10 26.3 13
-6 -5 10 18.4 17.1
6 -11 -10 9.9 9.4
11 -6 10 34.8 12
5 6 -10 -3.7 10.8
5 -11 10 12.2 10.4
-4 11 -10 99.69 22
7 4 -10 80.69 14.4
-11 4 10 123.49 22.4
11 -7 -10 121.69 19.3
-11 7 -10 82.79 22.1
11 -4 10 124.39 28.4
7 -11 10 110.79 13.8
-4 -7 10 121.79 23.9
-4 11 -10 107.69 29.1
-11 4 10 118.99 22.5
4 -11 -10 76.39 13.9
-7 11 10 122.89 25.1
-11 7 10 129.79 29.8
-7 11 -10 124.59 31.1
11 -4 -10 98.39 19.6
11 -7 10 104.69 24.6
7 -11 -10 100.89 18.1
-4 11 10 90.99 23.9
-4 -7 -10 105.19 21.9
-11 7 10 107.19 21.3
-7 -4 10 116.99 22.3
-8 11 10 43.3 21.1
-11 8 -10 6.6 18.9
8 3 -10 52.49 12.6
-11 3 10 39.4 17
11 -8 -10 57.29 11.7
-3 11 -10 29.9 26.6
-3 11 -10 5.9 18.7
-8 11 10 19.4 15.6
-3 -8 10 31.8 16.1
11 -3 10 9 21.2
3 -11 10 36.8 11.8
11 -8 10 121.09 26.5
3 8 -10 59.79 18.7
-8 -3 10 72.89 18.6
-3 11 10 59.09 20.2
-11 8 10 55.69 17.2
-3 -8 -10 100.59 19.7
-8 11 -10 53.79 14.4
8 -11 -10 86.19 18.6
-8 11 -10 99.89 28.8
-11 3 -10 65.89 15.9
-9 11 10 270.67 30.7
-2 11 -10 307.17 43.7
11 -9 -10 300.27 28
-2 -9 10 303.07 34.9
9 2 -10 304.87 31.1
-9 11 10 307.27 41.1
-9 -2 10 154.98 29.4
-11 9 10 145.29 29
11 -2 -10 166.48 23.1
11 -9 10 192.18 35.6
11 -9 10 198.18 30.9
-9 11 -10 211.68 33.1
-2 11 10 143.59 24.3
9 -11 -10 187.08 21.5
-11 9 10 183.18 31.9
2 9 -10 193.78 34
-2 -9 -10 139.29 20.5
-11 9 10 159.48 28.4
-11 1 10 159.98 24.6
-10 11 10 156.88 28.7
-1 -10 10 139.99 24.1
10 1 -10 169.18 24.4
-1 11 -10 151.78 24
-10 11 10 190.38 30.5
-10 11 10 194.78 31.9
10 -11 10 175.68 32.5
-1 11 -10 187.98 34.4
11 -10 -10 184.68 22.1
-11 10 -10 114.39 25.1
-10 11 -10 115.99 26.4
11 -10 10 136.19 18.3
1 10 -10 180.18 36
-11 10 10 178.48 31.1
-11 10 10 168.08 28
-1 -10 -10 104.39 17.1
-10 -1 10 136.39 26
11 -10 10 114.49 20.7
-11 11 10 71.59 20.2
0 11 -10 91.79 26.5
-11 11 -10 68.79 21.1
-11 11 10 79.19 18.2
11 0 -10 113.79 16.2
-11 0 10 68.09 19.2
11 -11 10 105.29 17.7
0 11 -10 87.69 19.4
-11 11 10 79.69 22
-12 6 -10 5.1 19
6 6 -10 11.8 7.5
-6 12 -10 7.6 27.4
-6 -6 -10 59.79 15.4
12 -6 10 19.7 21.7
-12 6 10 41.3 20.1
6 -12 -10 42.4 12.6
12 -6 -10 28.4 11.1
12 -6 10 22 17.6
-6 12 10 14.2 21.5
-12 6 10 52.89 17.9
-6 -6 10 32.5 17.7
-7 -5 -10 47.3 14
-12 5 10 59.49 17.8
-5 -7 10 26.4 16.5
-5 12 -10 13.6 25
-7 12 10 6.9 19.8
5 -12 -10 37 12.3
7 -12 10 30.4 9.2
12 -5 10 38.6 24.6
12 -7 -10 47.7 12.3
7 5 -10 19.7 12
-12 5 10 21.9 19
12 -5 -10 29.7 12
12 -7 10 29.9 23.7
-7 -5 10 9.8 15.6
-5 12 10 4.7 19.2
-12 7 10 19.7 18.8
-5 -7 -10 31.6 13.9
12 -7 10 -3.3 15.6
-7 12 -10 -26.5 17.3
-12 5 -10 4.3 18.5
5 7 -10 6.1 6
-7 12 -10 5.3 26
-4 12 -10 68.39 22
-4 12 -10 122.19 32.9
-4 -8 10 104.79 21.2
12 -8 -10 127.69 19.6
12 -4 10 108.49 27.9
4 -12 -10 110.59 19
8 4 -10 111.89 17.1
-12 4 10 66.89 19.3
8 -12 10 108.79 15.5
-12 8 -10 73.19 22.7
-8 12 10 77.39 22.9
-8 12 -10 79.69 20.3
12 -8 10 113.99 19.1
12 -8 10 135.69 27.4
-8 -4 10 107.79 21.6
12 -4 -10 109.79 20.4
-12 8 10 118.99 19.9
-12 8 10 115.59 25
-4 12 10 109.49 24.5
-12 4 -10 126.49 22.6
-4 -8 -10 139.69 26.3
-8 12 -10 115.09 28.9
8 -12 -10 142.29 20.6
-3 12 -10 138.29 33.9
-9 12 10 123.69 26.5
3 -12 -10 129.09 18
-12 3 10 77.39 15.9
9 -12 10 141.99 30
-3 12 -10 90.19 23.1
-12 9 -10 111.29 23.5
-9 12 10 68.39 17.1
-3 -9 10 123.49 23.5
9 3 -10 104.29 17
-9 -3 10 132.39 23.7
12 -9 10 161.98 27.1
-12 9 10 87.29 21.1
-12 3 -10 105.79 26.7
12 -9 10 142.99 20.1
-12 9 10 124.59 31.2
12 -3 -10 151.78 21.9
-3 -9 -10 125.29 26.1
-9 12 -10 122.59 29.8
-9 12 -10 173.48 31.9
-3 12 10 112.59 24.2
9 -12 -10 156.78 20.4
10 2 -10 29.4 14.3
-10 12 10 11.9 20.5
-10 12 10 4.2 12.3
-10 12 10 35.7 15.2
-12 10 -10 -10 18.4
10 -12 10 15.4 12.8
-2 12 -10 -8.4 17.9
-2 -10 10 31.5 13
-2 12 -10 18.7 27
-10 12 -10 1.1 8.8
-12 2 -10 7.6 8.3
-12 10 10 0.9 18.1
10 -12 -10 14.8 10.9
2 10 -10 16.4 9.1
-10 12 -10 17.5 8.5
12 -2 -10 13.8 12.4
-10 -2 10 -9.1 17.8
2 10 -10 12.1 12.9
-12 10 10 2.9 17
-12 10 10 6.8 10
12 -10 10 -2.1 14
-2 -10 -10 11.8 13.8
12 -10 10 11.9 10.3
-10 12 -10 21.8 12.9
-12 11 -10 445.36 52.99
-11 12 10 532.15 51.29
12 -11 -10 538.05 43.4
11 -12 10 628.34 50.59
-1 12 -10 505.45 53.09
-1 12 -10 587.94 55.89
-11 12 10 499.35 52.29
11 1 -10 606.04 45.2
-11 12 -10 498.65 50.79
11 -12 -10 593.94 44
12 -11 10 664.63 52.19
1 11 -10 601.94 51.09
-12 11 10 470.35 52.19
12 -1 -10 615.34 45.2
-1 -11 -10 506.05 45.9
-11 -1 10 488.95 49.1
-12 12 -10 11.8 18.3
0 12 -10 -7.3 16.2
-12 12 10 10 18.5
0 -12 -10 12.2 10.5
12 0 -10 24.2 12.8
-12 12 10 21 13.4
-12 12 10 25.2 11.5
12 -12 10 1.7 13
12 -12 -10 32 11.2
-12 0 10 14.8 9.8
0 12 -10 21.3 15.7
-6 -7 10 161.08 29.4
13 -6 10 187.78 24.1
-7 -6 -10 228.88 28.6
13 -7 -10 201.68 23.1
-7 13 10 160.08 28.3
-13 7 -10 133.39 25
7 6 -10 166.28 26.4
13 -6 10 135.39 28.2
-13 6 10 175.78 36.5
6 -13 -10 189.08 24.5
7 -13 10 180.58 29.6
-6 13 -10 149.29 33.5
-13 6 10 143.69 29.2
-13 6 -10 147.09 24.7
-13 7 10 189.08 25.2
6 7 -10 129.89 20.6
-6 -7 -10 187.88 26.7
13 -7 10 212.58 37.1
7 -13 -10 203.08 23.6
-6 13 10 100.99 24.4
13 -7 10 146.89 21.4
-13 7 10 139.39 25.5
-7 13 -10 125.19 30.9
-7 13 -10 107.79 22.7
-7 -6 10 162.48 26.6
13 -6 -10 195.68 22.4
8 -13 10 4.2 12.5
-13 8 -10 -2.3 18.2
5 -13 -10 34.9 12.9
-5 -8 10 21.3 16.7
-13 5 10 36 19.5
-13 5 10 30.7 15.7
-5 13 -10 18 26.4
8 5 -10 18.3 15.2
-8 13 10 1.7 19.8
13 -8 -10 35.2 11.1
13 -5 10 27.1 22.7
-8 -5 -10 45.7 14.3
-5 13 -10 -7.8 18.8
-8 13 -10 -21 16.3
-8 13 -10 14.9 25.6
13 -8 10 1.7 15.3
-13 8 10 26.2 18.5
-13 8 10 11.1 17.1
8 -13 -10 33.6 12.4
-13 5 -10 12.2 18.8
-8 -5 10 8.9 15.7
-5 13 10 0.7 17.4
13 -8 10 34.4 20.6
-5 -8 -10 35.1 14.6
13 -5 -10 33.1 11.7
5 -13 10 22 8.3
5 8 -10 3.4 6.8
-4 13 -10 234.08 39.2
-4 -9 10 197.08 27.8
13 -9 -10 226.98 24.6
9 4 -10 222.28 28.2
13 -4 10 178.88 36.5
-13 9 -10 154.38 27.1
-4 13 -10 203.58 28.9
9 -13 10 197.48 34.5
4 -13 -10 227.88 25.8
-9 13 10 189.58 36.3
-4 13 10 148.29 24.2
-9 13 -10 193.88 32.4
-9 -4 10 150.48 28
-9 13 -10 125.79 22.9
13 -9 10 130.49 24.4
13 -9 10 169.78 34.5
-13 9 10 151.08 26.3
9 -13 -10 181.38 22.8
-13 9 10 213.98 25.2
13 -4 -10 186.68 23.2
-13 4 -10 178.58 34.2
-4 -9 -10 192.88 27.7
4 -13 10 164.88 18
13 -10 -10 119.59 19.9
10 -13 10 95.89 16.2
-13 10 -10 101.69 22.9
-3 13 -10 85.29 22.7
3 -13 -10 108.19 21.2
10 3 -10 83.79 16.6
-3 13 -10 88.59 29.4
-10 13 10 68.89 24.5
-13 10 10 68.89 19.5
-10 13 -10 38.3 15.4
-13 10 10 51.69 20.4
13 -3 -10 67.29 13.2
10 -13 -10 85.59 13.1
-10 -3 10 47.2 21
13 -10 10 64.79 15.8
-3 -10 -10 74.59 16.1
-13 3 -10 42.3 15.4
11 -13 10 87.89 16.2
13 -11 -10 134.89 20.6
-2 13 -10 111.59 22.6
-2 13 -10 109.39 26.6
-11 13 10 111.69 21.1
-13 11 -10 97.39 22.6
-11 13 10 85.49 22.7
11 2 -10 133.39 23.5
2 -13 -10 116.39 19.1
11 -13 -10 112.79 20.6
13 -11 10 99.49 16.4
-13 11 10 59.29 19.1
-13 11 10 77.79 19.3
-11 -2 10 93.49 20.2
-11 13 -10 93.79 19.3
-2 -11 -10 101.89 18.1
13 -2 -10 116.39 20.9
2 11 -10 120.29 19.8
1 -13 -10 80.39 16.2
-12 13 10 122.49 21.5
-1 13 -10 145.39 22.4
12 -13 10 99.69 16.4
-13 12 -10 134.69 23.2
1 12 -10 57.39 16.4
-12 13 -10 60.29 18.2
13 -12 10 89.79 16
-13 12 10 93.19 19.3
12 -13 -10 94.19 18.6
-1 -12 -10 83.09 16.1
13 -13 -10 360.66 30.5
0 13 -10 317.87 42
13 0 -10 373.66 32
-13 13 10 266.77 38.6
13 -13 10 376.66 37.5
0 -13 -10 320.87 33.8
-13 13 -10 331.17 40.2
-14 7 -10 48.1 20
-14 7 10 43.8 15.7
14 -7 10 59.59 20.1
-7 14 -10 15.5 17.6
-7 14 -10 38 25
14 -7 10 29.2 15.9
-14 7 10 49.7 18.5
-7 14 10 41.2 21.5
-7 -7 10 36.6 16.2
7 7 -10 32.9 15
7 -14 10 42.3 13.4
8 -14 10 29.2 13.8
-6 -8 10 17 13.7
14 -8 -10 42.8 11.2
-14 6 10 22.4 18.4
-6 14 -10 24 27
8 6 -10 40.1 16.6
-14 8 -10 31.6 19.5
-8 14 10 15 21.2
-14 6 10 29.7 12
14 -6 10 11.5 17.3
14 -6 10 50.49 22.4
6 -14 -10 57.89 13.5
14 -6 -10 36.2 11.7
-6 14 10 18.4 16.5
14 -8 10 29.8 14.4
6 -14 10 9.1 12.4
6 8 -10 11.1 12.9
-8 14 -10 -12.3 16.1
-8 -6 10 13.5 16.9
-14 6 -10 23 19.4
-14 8 10 13.4 16.4
-8 14 -10 26.2 22
14 -8 10 -2.4 14.6
-6 -8 -10 30.8 13.7
8 -14 -10 28.7 12.8
-14 8 10 8 16.7
5 -14 -10 220.58 26.5
-9 14 10 165.78 34.8
-14 5 10 182.78 32.2
-5 14 -10 193.38 28.1
-14 9 -10 182.88 27.7
14 -9 -10 223.38 24.6
-5 14 -10 222.18 41.9
9 -14 10 231.48 32.7
-9 -5 -10 254.07 27.4
9 5 -10 205.48 28.9
14 -5 10 224.58 37
-9 -5 10 124.59 23.5
-14 9 10 109.79 23.3
14 -9 10 143.59 19.8
5 -14 10 173.98 26.4
9 -14 -10 169.98 22
-5 -9 -10 157.48 26.7
-14 5 -10 162.58 34.9
-9 14 -10 130.99 22.4
-9 14 -10 139.59 26.7
14 -5 -10 154.28 21.2
-14 9 10 112.99 20.9
-4 14 -10 22.7 19.8
4 -14 -10 67.89 14.3
-14 10 -10 43.5 19
-10 14 10 31.3 21.6
10 4 -10 52.19 15.2
-4 14 -10 66.89 25.4
10 -14 10 35 13.2
14 -4 -10 65.19 13.2
-10 14 -10 26.9 18.7
-14 10 10 31.8 17
14 -10 10 45.4 15.5
10 -14 -10 53.49 12.9
-10 14 -10 35.4 16.8
-14 10 10 29.2 16.3
4 -14 10 42.8 9.9
-14 4 -10 35.7 17
-10 -4 10 19.2 16.9
-4 -10 -10 57.19 15.6
-14 11 -10 170.88 34.3
14 -11 -10 219.48 23.6
11 3 -10 214.08 26.3
11 -14 10 214.78 31.6
3 -14 -10 196.18 24.6
-11 14 10 168.88 27
-3 14 -10 211.28 27.6
-3 14 -10 132.59 29.6
-14 11 10 143.19 32.3
14 -11 10 203.88 33.5
3 -14 10 207.48 21.4
14 -3 -10 218.28 24.8
-11 -3 10 186.98 26.9
-11 14 -10 181.48 30.8
-3 -11 -10 269.97 30.6
11 -14 -10 238.88 23.7
-14 3 -10 204.68 27.9
-14 11 10 180.08 27.1
12 -14 10 136.79 17.5
-2 14 -10 128.69 22.5
14 -12 -10 142.39 21.1
12 2 -10 117.79 23.6
-14 12 -10 126.39 22.6
-12 14 10 116.79 28.9
-2 -12 -10 121.79 27
2 -14 10 74.49 10.7
-12 14 -10 51.99 12.1
13 -14 10 -13.3 11.2
-1 14 -10 -12.3 15.5
13 1 -10 5.9 11.5
14 -13 -10 10.7 10.3
-14 13 -10 -0.8 17
-13 14 10 1.4 15.8
1 -14 -10 5.4 9.9
-14 13 10 5 15.7
13 -14 -10 7.9 10.5
14 -13 10 -9.6 11.4
-1 -13 -10 2.3 13.9
1 13 -10 10.9 12.2
14 -1 -10 2.5 11.1
-13 14 -10 6 14.5
14 -14 10 74.69 13.7
0 -14 -10 41.6 14.5
0 14 -10 65.59 16.6
-14 14 -10 46.4 16.7
14 -14 -10 82.29 12.9
-14 14 10 63.59 17.6
14 0 -10 89.89 13.9
8 7 -10 192.78 30.6
-8 -7 -10 232.98 27.4
7 -15 -10 210.78 25.1
-15 7 10 158.68 33.3
-7 15 -10 220.08 33.2
15 -7 10 190.18 39.1
-15 8 -10 191.88 34.8
8 -15 10 187.38 32.9
15 -8 -10 218.98 23.5
15 -8 10 84.89 16.7
-8 15 -10 70.49 18.7
-15 7 -10 85.69 20.9
7 8 -10 111.09 18.5
-15 8 10 97.69 18.1
-7 -8 -10 133.09 24.5
-8 15 -10 64.79 18.7
7 -15 10 100.09 15.7
8 -15 -10 132.89 20.6
-15 9 -10 7.7 16.7
-6 15 -10 -16.5 17.4
9 -15 10 -10.5 11.6
-15 6 10 12.3 14.2
6 -15 -10 1 12.3
15 -6 10 23.5 12.3
15 -9 -10 13.5 10.5
9 6 -10 -12.8 14.4
-9 -6 -10 17.1 12.7
-6 -9 10 25.3 11.8
-9 15 10 11.1 13.9
-6 15 -10 27.5 18.5
-9 15 -10 -7.2 16
-9 15 -10 24.2 14.3
6 9 -10 5.2 13.3
6 -15 10 -2 11
-9 -6 10 27.4 11.9
-15 6 -10 16.4 17.9
-15 9 10 1.1 10.9
-6 -9 -10 27 13
15 -6 -10 20.2 10.8
9 -15 -10 19.6 11.8
15 -9 10 -2.2 14.4
-15 9 10 7.1 14.4
15 -10 -10 407.96 33.1
5 -15 -10 402.36 34.8
10 5 -10 424.96 37.1
-15 10 -10 336.67 40.9
10 -15 10 417.46 40
-15 5 10 308.67 36.6
-5 15 -10 306.97 45.8
5 10 -10 208.08 25.7
-15 5 -10 290.77 35.8
-15 10 10 224.68 34.1
-5 -10 -10 294.17 30.8
10 -15 -10 268.47 28
5 -15 10 296.17 30.9
15 -10 10 264.47 36.9
-10 15 -10 239.78 39.3
15 -5 -10 293.47 27
11 4 -10 303.67 30.6
11 -15 10 280.57 34.6
-15 11 -10 262.37 36.6
15 -11 -10 300.07 27.4
-4 15 -10 216.58 43.1
-11 15 -10 179.38 32.6
-15 11 10 172.08 32.1
11 -15 -10 212.28 24.4
15 -4 -10 231.28 24.1
-4 -11 -10 227.38 28.2
15 -11 10 198.48 31.9
-15 4 -10 194.58 30.4
4 -15 10 200.88 26.7
12 -15 10 75.89 14.2
-15 12 -10 113.99 20.7
-3 15 -10 119.49 21.9
15 -12 -10 127.79 19
12 3 -10 94.09 15.4
-12 15 10 78.09 17.7
12 -15 -10 75.29 13
-12 15 -10 46.4 13.2
15 -12 10 62.29 13.8
3 -15 10 47.3 9.9
-2 15 -10 240.28 37
15 -13 -10 255.47 25.5
13 -15 10 248.28 31.5
-15 13 -10 265.57 35.1
-13 15 10 264.37 32.4
13 2 -10 258.07 27.6
2 -15 10 132.99 17
-2 -13 -10 169.48 27.2
13 -15 -10 168.38 21.1
15 -2 -10 157.78 20.8
15 -13 10 175.68 18.8
-15 13 10 137.09 30.9
-14 15 10 32.1 15.2
-1 15 -10 15.4 15.6
14 -15 10 16.3 10.5
15 -14 -10 26.2 10.5
-15 14 -10 31.2 15.5
1 -15 -10 16 10.9
14 1 -10 13.2 11.2
-15 14 10 35.7 15.6
14 -15 -10 26.1 10.5
-14 15 -10 20.6 12.7
-1 -14 -10 14.1 13.8
15 -1 -10 26.1 11.2
15 -14 10 3.6 10.9
0 15 -10 24.6 10.6
-15 15 -10 28.5 14.9
15 -15 -10 31.8 10.6
15 -15 10 15.8 10.4
-15 15 10 33.6 15.8
15 0 -10 29.3 11.2
0 -15 -10 22.3 12.7
-16 8 10 4.1 15.6
-16 8 -10 11.6 16.8
8 -16 -10 11.7 11.4
-8 16 -10 -4.9 16.1
16 -8 10 -3.1 13.4
8 -16 10 -3.8 11.6
-8 -8 -10 19.9 12
16 -8 -10 22.1 10.5
8 8 -10 -10.4 15.4
7 -16 -10 403.76 37
-7 16 -10 383.56 47.1
16 -7 10 467.65 46.1
-16 9 -10 421.16 43.5
-16 7 10 400.56 43
-9 -7 -10 419.06 37.9
9 -16 10 502.35 41.6
9 7 -10 476.05 40.7
16 -9 -10 415.16 36
7 -16 10 379.96 35.6
16 -7 -10 334.17 30.3
-16 9 10 293.87 38.1
9 -16 -10 313.67 30.4
-16 7 -10 357.66 39.2
7 9 -10 307.87 34.2
-9 16 -10 300.67 40.2
-7 -9 -10 333.77 33
16 -9 10 355.26 39
-16 10 -10 50.99 16.6
10 -16 10 27.7 12
10 6 -10 56.49 15.5
-16 6 10 46.7 14.6
6 -16 -10 32.7 12.4
16 -10 -10 37.5 11
16 -6 10 22.6 15
-6 16 -10 43.6 19.5
6 10 -10 49.7 14.6
16 -6 -10 75.39 12.3
-16 6 -10 51.09 18
-6 -10 -10 54.19 14
16 -10 10 38.6 13.1
6 -16 10 44.1 11.8
-16 10 10 62.39 16.5
-10 16 -10 40 16.7
-5 16 -10 124.19 22.8
11 -16 10 95.29 15
16 -11 -10 106.49 19.9
11 5 -10 108.69 17.2
-16 11 -10 125.29 28.5
11 -16 -10 94.89 19.6
-16 11 10 111.59 28.4
16 -5 -10 112.89 18.8
-11 16 -10 88.99 17.7
16 -11 10 115.89 15.7
-16 5 -10 75.99 18
5 11 -10 89.59 16.4
5 -16 10 71.29 13.1
-5 -11 -10 100.59 22.1
-4 16 -10 187.18 37.8
16 -12 -10 215.38 23.4
12 4 -10 208.48 25.3
-16 12 -10 227.68 31.3
12 -16 10 190.58 29.1
16 -12 10 196.48 31
-16 12 10 214.28 32.2
-4 -12 -10 238.38 28.7
12 -16 -10 227.28 24.6
-12 16 -10 196.38 30.2
4 -16 10 249.58 28.1
16 -4 -10 230.38 24.1
13 3 -10 -2.1 11
16 -13 -10 8.7 9.9
-3 16 -10 -11.4 15.1
13 -16 10 -7 9.9
-16 13 -10 19 15.6
-16 13 10 17.3 14.9
-13 16 -10 18.7 7.5
-3 -13 -10 7.5 13.5
3 -16 10 3 8.2
13 -16 -10 5.4 10.7
16 -13 10 -6.4 10.2
16 -3 -10 19 10.3
-14 16 10 62.69 13.7
14 2 -10 86.79 13.8
-2 16 -10 80.99 16.9
-16 14 -10 120.19 26.4
16 -14 -10 91.59 17.9
-2 -14 -10 47.8 14.5
16 -14 10 20.7 10.2
2 -16 10 30 6.7
16 -2 -10 54.59 11.5
14 -16 -10 41 11.6
16 -15 -10 40.7 10.7
15 1 -10 45.1 11.5
-16 15 -10 31.8 13.8
-1 16 -10 47.7 13
-15 16 10 39.1 14.4
1 -16 -10 23.9 9.5
16 -1 -10 25.3 10.4
-1 -15 -10 33.2 14.1
-16 15 10 40.2 14.9
15 -16 -10 25.2 10.5
16 -15 10 9.3 9.8
16 -16 -10 -0.9 9.5
16 -16 10 -9.5 8.5
16 0 -10 -3 9.5
0 -16 -10 0.8 10.4
-16 16 -10 6.3 9.3
-16 16 10 16.3 13.8
9 -17 10 13.1 10.6
-8 17 -10 48.8 16.9
17 -8 10 27.4 12.5
-17 8 10 44 15.7
8 -17 -10 28.5 11.6
-9 -8 -10 38.8 12.1
17 -9 -10 43.6 10.7
9 8 -10 33.5 14.8
-17 9 -10 61.19 17
17 -8 -10 38 10.5
-9 17 -10 46.5 16.5
-17 9 10 49.8 15.7
17 -9 10 18.9 12.6
-8 -9 -10 47.9 12.5
8 9 -10 36.6 15.5
-17 8 -10 49.2 16.8
9 -17 -10 50.09 12.1
-17 7 10 26.5 13.8
10 -17 10 37.1 11.9
-7 17 -10 46.1 17.4
10 7 -10 44.8 14.6
-17 10 -10 46.9 15.6
17 -7 10 38 14.3
17 -10 -10 37 10.4
-7 -10 -10 37.1 12.3
7 -17 10 15.3 10.8
-17 7 -10 24 16
-10 17 -10 34.3 16
-17 10 10 38.6 14.6
10 -17 -10 33.5 11.3
17 -7 -10 29.1 10
17 -10 10 9.6 12.1
7 10 -10 29.2 13.8
17 -6 10 280.47 38.2
17 -11 -10 253.97 25.6
-6 17 -10 278.87 39.9
11 6 -10 268.97 29.5
11 -17 10 273.47 31.2
-17 11 -10 271.87 33
6 11 -10 187.78 23.6
-6 -11 -10 173.08 24.6
-11 17 -10 228.98 34.2
17 -6 -10 171.98 21.6
6 -17 10 181.88 26.4
-17 6 -10 173.08 28.4
17 -11 10 151.48 27.6
11 -17 -10 169.48 21.2
-17 11 10 196.18 30.3
17 -5 10 204.48 35.1
-5 17 -10 227.48 36.6
17 -12 -10 197.08 21.7
12 5 -10 206.08 25.7
12 -17 10 185.28 27.6
-17 12 -10 238.38 29.9
-12 17 -10 226.48 29.9
-5 17 10 188.38 26
5 -17 10 216.08 27.1
-17 5 -10 193.58 25.7
17 -5 -10 217.28 22.2
-17 12 10 224.38 30
17 -12 10 194.48 29.5
12 -17 -10 209.88 23.1
-5 -12 -10 225.48 26.4
13 -17 10 285.17 31.4
13 4 -10 293.17 28.9
-17 13 -10 314.57 33.9
17 -13 -10 285.67 26.8
-4 17 -10 327.07 38.3
-13 17 -10 208.78 25.5
-4 -13 -10 271.87 28.1
13 -17 -10 232.48 24.3
17 -4 -10 236.38 23.1
-17 13 10 250.37 32.3
4 -17 10 249.97 27.1
17 -13 10 218.78 30.6
14 -17 10 70.39 12.2
17 -14 -10 77.89 16
-17 14 -10 104.39 23.5
14 3 -10 97.49 14.2
-3 17 -10 70.49 16.4
14 -17 -10 59.69 11.7
-17 14 10 98.39 24.6
17 -14 10 61.49 11.6
17 -3 -10 81.79 15.7
3 -17 10 49.6 9.3
15 2 -10 57.49 11.6
17 -15 -10 44.1 10.2
-17 15 -10 48.7 13.5
-15 17 10 39.3 9.9
-2 17 -10 49.99 13.7
15 -17 10 51.39 10.6
-2 -15 -10 66.29 13.9
17 -2 -10 71.89 15.6
15 -17 -10 51.99 11.2
-17 15 10 68.99 15.4
17 -15 10 41.8 11
17 -16 -10 54.39 10.3
-17 16 -10 73.59 18.5
16 -17 10 38.4 10.2
16 1 -10 67.89 11.1
17 -1 -10 67.99 15.1
-17 16 10 72.89 14.3
-1 -16 -10 50.89 13.1
16 -17 -10 45.7 10.3
17 -17 -10 1.8 5.5
0 -17 -10 2.8 6.2
17 -17 10 -6.6 8.1
17 0 -10 2.4 8
9 -18 -10 14.3 10.5
18 -9 10 9.2 11.6
-9 -9 -10 20.6 10.8
-18 9 10 22.1 15.4
-9 18 -10 35.3 15.2
9 9 -10 13.9 13.1
-18 9 -10 27.1 14
9 -18 10 -0.2 9.2
-9 18 10 21.3 12
18 -9 -10 26.3 9.6
-18 8 10 59.99 14.7
18 -10 -10 96.09 15.5
18 -8 10 85.09 14
10 -18 10 55.19 11.1
10 8 -10 79.39 14.7
8 -18 10 109.29 23.1
-18 8 -10 134.39 24.2
-8 18 10 113.29 24
18 -10 10 84.39 14.9
-18 10 10 142.49 26.4
-8 -10 -10 121.09 20.5
8 10 -10 161.58 22.3
18 -8 -10 114.89 16.8
10 -18 -10 96.49 18.8
-18 7 10 45.3 12.7
18 -7 10 39 12.6
11 7 -10 51.79 13.5
18 -11 -10 73.79 15.5
11 -18 10 47.4 10.7
7 11 -10 42.4 12.2
18 -11 10 25.1 11.5
-11 18 -10 59.09 15.4
-7 -11 -10 39 11.6
-7 18 10 39.6 12.3
11 -18 -10 41.2 11.2
-18 7 -10 22.1 12.8
18 -7 -10 39.3 9.6
-18 11 10 39.9 14.8
12 6 -10 49.1 12.5
18 -6 10 34.1 13.5
12 -18 10 35.2 9.9
-18 12 -10 59.29 14
18 -12 -10 41.8 9.7
18 -12 10 24.5 10.9
6 12 -10 30.1 8.7
18 -6 -10 39.1 9.7
-6 18 10 44 11.5
6 -18 10 27.3 10
-6 -12 -10 38.7 12
-18 6 -10 36 11.6
-12 18 -10 50.19 14.1
12 -18 -10 36.7 10.7
18 -13 -10 69.69 14.1
13 5 -10 90.99 13.8
13 -18 10 57.99 11.5
-18 13 -10 110.99 21.7
18 -5 10 68.99 14.7
-13 18 10 79.59 14.4
-5 18 -10 119.99 27.4
-18 13 10 64.79 15.4
18 -13 10 33.3 11.4
-5 -13 -10 53.89 13.1
13 -18 -10 41.9 10.5
18 -5 -10 36.9 9.7
5 -18 10 26.7 9.5
-14 18 10 32.8 11.4
-4 18 -10 37.8 13.5
18 -14 -10 20.3 8.2
-18 14 -10 36.3 12.2
14 4 -10 33.8 11.1
-4 -14 -10 18.4 11.9
-14 18 -10 11.5 6.2
4 -18 10 18.1 7.8
18 -14 10 1.1 9.6
-18 14 10 40.8 13.7
14 -18 -10 25.8 9.6
18 -4 -10 24.4 8.9
15 3 -10 73.09 11.6
15 -18 10 33 9.7
18 -3 10 47.4 12.8
-15 18 10 53.99 11.7
15 -18 -10 46 9.9
18 -3 -10 46.9 9.5
-18 15 10 54.19 13.5
-3 -15 -10 59.69 13
-18 16 -10 88.79 17.2
16 -18 10 61.99 10.5
16 2 -10 78.09 15.5
-18 16 10 48.4 12.6
18 -16 10 23.5 9.2
18 -2 -10 44.8 8.9
16 -18 -10 34.8 8
-2 -16 -10 39 12
17 1 -10 2.7 7.6
17 -18 10 -6.3 7.7
18 -17 10 -5.1 7.9
-1 -17 -10 2.8 6.9
18 -1 -10 2.1 6.7
17 -18 -10 3.1 3
18 -18 10 9.9 7
18 0 -10 10.3 4.7
-19 9 10 57.79 14.5
-10 19 10 66.99 12.6
10 9 -10 42.3 12.3
-19 10 -10 64.59 13.5
9 -19 10 7.2 8.7
-19 10 10 21.2 13.7
19 -10 10 9.5 10.7
19 -9 -10 16.9 7
-9 -10 -10 23.6 10.2
9 10 -10 36.6 11.5
-9 19 10 29 11
-19 9 -10 24.5 12.5
19 -8 10 69.19 13
19 -11 -10 63.99 10.6
11 -19 10 107.89 19.1
-19 8 10 70.59 11.9
8 11 -10 106.49 17.5
-19 8 -10 109.19 21
-19 11 10 113.19 22.1
19 -11 10 88.49 13.4
-8 -11 -10 83.49 18
19 -8 -10 74.89 13
8 -19 10 67.29 11.4
-8 19 10 93.99 18.2
19 -7 10 98.39 14.9
-12 19 10 124.79 21
12 7 -10 134.19 19.1
-19 12 -10 143.49 21.2
12 -19 10 119.99 19.8
7 12 -10 126.29 14.7
-19 7 -10 102.69 16
-7 -12 -10 132.59 19.2
-7 19 10 109.39 19.5
19 -7 -10 103.19 13.5
7 -19 10 142.69 20.9
19 -12 10 134.69 15.8
12 -19 -10 97.29 17.3
-19 12 10 153.28 23.7
-6 19 -10 34.8 13
-19 13 -10 32 11.2
19 -6 10 6.6 10.8
13 -19 10 12 8.3
13 6 -10 15.9 9.7
-13 19 10 33.3 11.8
13 -19 -10 -5.8 8.5
19 -13 10 -13.1 9.5
19 -6 -10 -1.3 6.3
6 -19 10 -6.2 7.7
6 13 -10 6.1 4
-6 -13 -10 0.5 10.3
-19 13 10 14.1 12.7
-5 19 -10 31.6 12.6
14 5 -10 6.2 9.3
19 -5 10 -7.6 11
14 -19 10 -0.9 7.8
-14 19 10 18.1 10.8
-19 14 -10 24 10.8
-14 19 -10 13.5 6.8
14 -19 -10 2.9 8.6
19 -5 -10 6.2 6.1
-5 -14 -10 11.9 10.9
-19 14 10 17.2 12
19 -14 10 -6.2 9.4
5 -19 10 3.3 6.6
-15 19 10 59.89 11.2
19 -4 10 65.79 12.8
15 4 -10 78.29 15
15 -19 -10 37.6 8.2
-4 -15 -10 55.59 11.9
19 -15 10 36.7 10.1
19 -4 -10 26.4 6
16 -19 10 18 7.8
-19 16 -10 25.8 8.5
19 -3 10 27.4 10.9
16 3 -10 30.8 8.8
19 -16 10 13.3 8
-19 16 10 10.4 10.8
19 -3 -10 3.8 3.5
-3 -16 -10 12.8 10
16 -19 -10 8.9 3.1
17 -19 10 23.9 7
17 2 -10 46.6 9.5
19 -2 10 27 9.2
19 -17 10 30.9 7
10 10 -10 143.89 17.6
10 -20 10 131.09 19.3
-20 10 10 92.49 19.9
20 -10 10 98.69 14.2
-10 20 10 135.89 18.6
-20 10 -10 121.99 19.5
-20 11 -10 95.69 18.2
-11 20 10 90.49 17.4
11 9 -10 82.89 15.8
-9 20 10 46.1 10
9 -20 10 36 8.8
-20 11 10 63.19 12.5
20 -11 10 37.5 11
-20 9 -10 44.1 10.6
20 -8 10 10.3 10.2
-12 20 10 38.1 10.5
-20 12 -10 31.3 10.9
12 8 -10 22.6 9.4
12 -20 10 14 8
-8 -12 -10 15 9.3
-20 12 10 29.3 11.9
8 12 -10 35.8 7.9
-20 13 -10 79.39 18.3
-13 20 10 72.99 17.9
-20 13 10 26.1 11.5
20 -13 10 17.9 9.4
7 -20 10 20 6.9
-7 -13 -10 25 9.4
14 6 -10 77.49 14.1
-20 14 -10 91.49 17.5
-14 20 10 73.99 16.8
20 -6 10 56.99 11.8
14 -20 10 73.79 15.7
-6 -14 -10 42.6 10
20 -14 10 45.6 9.7
6 -20 10 48.1 9.4
-20 14 10 45.3 11.8
15 -20 10 24.7 6.9
20 -5 10 17.1 9.3
15 5 -10 32.8 8.4
-15 20 10 10.6 6.5
-20 15 -10 22.4 9
20 -15 10 10.8 7.5
-5 -15 -10 11.9 8.9
-20 15 10 11.8 10.6
0 0 11 -13.9 16.4
-1 0 11 13.5 17.1
-1 1 -11 22.1 17.3
0 1 -11 20.9 16.5
-1 1 11 9.5 15.5
-1 1 11 5.2 17
1 0 11 -1.1 15.5
0 1 11 -12.6 17.4
0 -1 11 4.4 16
0 1 11 5.1 15.1
1 -1 11 6.1 15.2
-1 0 11 13.6 16.1
-1 2 11 157.68 24.5
1 1 11 125.59 23.4
-2 1 11 168.18 27.3
-1 -1 11 133.29 25.5
-1 -1 11 131.49 25.1
-1 2 -11 156.88 29.9
2 -1 11 152.78 24.6
-2 1 11 124.79 25.3
1 1 -11 141.79 25.7
-1 2 11 132.79 25.1
1 -2 11 131.19 25.6
-2 1 -11 156.18 29.1
-2 0 11 35.7 17.2
-2 2 11 21 15.9
-2 2 11 42.3 17.6
2 -2 11 29.4 16.6
0 2 -11 62.69 20.4
-2 0 11 38.2 18.9
2 0 11 34.1 19.1
0 -2 11 24.3 17.5
0 2 11 32 18.2
-2 2 -11 49.9 19
0 2 11 33.4 16.5
3 -1 11 328.07 39.9
-1 -2 11 388.86 37.2
-1 -2 11 409.96 39.1
-3 2 -11 417.26 40.9
2 -3 11 321.17 36.5
1 2 11 341.87 37.3
-3 1 11 391.16 36.5
-3 1 11 334.37 36.3
-2 3 11 367.56 37.7
2 1 -11 369.46 39.5
-1 3 -11 379.26 38.7
-1 3 11 279.57 32.4
-2 -1 11 373.86 36.2
1 -3 11 354.36 37.9
-2 3 -11 363.96 40.1
1 2 -11 361.66 37
2 1 11 329.97 38.5
-3 2 11 320.17 36.2
3 -2 11 378.96 36.6
-2 -1 11 349.07 38.1
-1 3 11 387.46 37
-3 1 -11 351.96 36.9
-3 2 11 387.36 35.4
0 3 -11 25.4 19.7
-3 3 11 1.2 9.4
0 -3 11 11.2 15.3
-3 3 -11 13.4 18.3
0 3 11 16.6 13.4
3 -3 11 -0.6 15.5
3 0 11 12 17
-3 3 11 16.3 15.3
0 3 11 12.4 15.6
-3 0 11 1.1 17.2
-3 0 11 20 17.2
-4 2 11 221.08 29.3
2 -4 11 196.58 27.5
-2 -2 11 200.28 30.2
-2 4 -11 206.78 31.1
-2 -2 11 226.48 31.1
4 -2 11 168.38 28.9
2 2 11 161.78 28.5
-4 2 -11 170.38 27.5
2 2 -11 205.18 31.3
-4 2 11 165.18 25.4
-2 4 11 200.28 26.6
-4 1 11 66.79 18.5
3 1 -11 105.79 22.1
4 -1 11 49.9 19.6
-1 4 -11 97.19 21.8
-4 1 11 36.9 16.8
-3 4 11 62.49 17.8
-4 3 -11 60.59 20.8
3 -4 11 56.89 18.1
-1 -3 11 53.29 18.8
-1 -3 11 67.39 19.4
1 3 11 47.3 15.6
1 3 11 66.19 19.5
1 3 -11 113.69 22.3
-3 -1 11 113.99 22.9
-4 3 11 107.09 19.7
3 1 11 72.79 22.6
4 -3 11 115.99 22.6
-3 4 -11 116.19 25.7
-3 -1 11 85.89 20.2
1 -4 11 102.89 19.8
-1 4 11 102.09 21.2
-4 0 11 139.59 27.8
0 4 -11 142.19 30.3
0 -4 11 133.69 27.1
4 -4 11 128.79 22.3
-4 0 11 121.09 22.6
4 0 11 112.89 24.8
0 4 11 113.39 23.8
-4 4 -11 141.99 26.6
-4 4 11 119.49 25.5
3 -5 11 19.2 15.7
-5 3 -11 12 9.2
-2 -3 11 27.4 17.2
-5 3 -11 21.7 18.6
-3 5 11 28.6 16.3
-5 2 11 16.4 14.3
3 2 -11 34.9 18.6
5 -2 11 18.7 17.9
-2 5 -11 43.9 22.6
-5 2 11 56.09 18.6
2 3 11 20.7 15.2
-2 -3 11 18.7 16.1
-3 -2 11 31.5 16.6
-5 3 11 1.8 8.6
-2 5 11 22.1 17.2
-3 5 -11 19.7 22.6
-5 3 11 43.7 16.5
-5 2 -11 9 8
-5 2 -11 7.2 14.6
2 3 -11 13.2 5.1
2 3 -11 23 17.8
-3 5 -11 16.4 7.5
5 -2 -11 6.4 6.3
5 -3 11 6.9 17.1
3 2 11 6.5 19.3
-3 -2 11 14.8 17.2
2 -5 11 23.3 16.1
-1 -4 11 50.19 17.2
5 -1 11 50.39 21.2
4 -5 11 44.6 18
1 4 11 52.49 17.8
4 1 -11 65.89 19.4
-1 5 -11 63.59 13.7
-5 4 -11 56.99 21.8
-1 5 -11 66.09 23
-1 -4 11 39.8 16
-5 1 11 83.49 20.2
-5 1 11 35.1 16.9
-4 5 11 69.19 17.7
1 4 -11 68.79 22.2
-5 4 11 76.79 17.8
1 -5 11 53.29 17.5
-4 -1 11 67.99 19.2
5 -4 11 73.59 20.9
1 4 -11 52.29 11.6
-4 -1 11 38.5 17.7
-4 5 -11 58.99 22.7
4 1 11 35 19.4
-1 5 11 49.8 17.8
0 5 -11 13.6 8
0 -5 11 10 16.7
0 5 11 10.4 16.9
-5 5 11 19.7 15.9
-5 0 11 23.1 17
5 0 11 -18.6 20.8
-5 5 -11 8.2 7.9
5 -5 -11 0.9 8.3
-5 0 11 13 17.5
0 -5 11 16.8 15.6
0 5 -11 10.6 21.8
-5 0 -11 6.4 7.6
-5 5 -11 9.7 21
5 -5 11 -0.6 17.6
-3 6 -11 14.6 7.6
-3 -3 11 23.2 16.3
-6 3 -11 3.3 12.7
6 -3 11 8.8 18.2
-3 6 11 17.7 15.8
-3 6 -11 -3.6 20.8
-3 -3 11 16.9 15.5
-6 3 11 24.4 16.3
-6 3 11 -2.7 8
3 3 11 15 15.5
3 3 -11 25.1 20.1
-6 3 -11 18.9 11.7
3 -6 11 21.1 16.4
-6 4 -11 8.2 17.2
2 4 11 12.3 9
4 2 -11 16 7.5
-6 4 -11 15.2 13.1
-2 -4 11 12.1 17.1
-6 2 11 -1.8 13.5
4 2 -11 20 19.5
4 -6 11 1.4 15.6
6 -2 11 -6.2 18.7
-6 2 11 21.2 16.4
-2 6 -11 11.2 9.4
-4 6 11 21.8 15.8
-2 -4 11 8.2 12.8
2 4 11 4.2 16.5
-2 6 -11 12.8 21.4
2 4 -11 3.9 18.6
-6 2 -11 5.6 9.6
6 -2 -11 2.9 6.4
6 -4 11 -5.7 19
4 -6 -11 -4.5 8.4
-4 6 -11 1.3 23.2
2 -6 11 -5.7 15.3
-4 -2 11 -3.7 14.2
-4 -2 11 4.5 16.1
-2 6 11 1.9 16.8
4 2 11 -19.3 19.5
-6 4 11 16.9 17.1
5 -6 11 75.49 21.1
1 5 11 68.19 17.9
6 -5 -11 41.9 11
-6 5 -11 71.89 23
-6 5 -11 49.6 15
-1 -5 11 32.7 13.4
-1 -5 11 71.29 18
-6 1 11 38.1 16.9
6 -1 11 37.8 21.1
1 5 -11 156.08 27.2
1 -6 11 103.09 20.9
-1 6 11 99.59 21.3
-5 -1 11 104.89 21.5
1 5 -11 109.69 17.7
6 -5 11 90.69 21.6
-5 6 -11 109.19 27.2
5 1 11 57.59 23.6
-5 -1 11 76.19 19.2
5 -6 -11 72.79 14.3
-6 5 11 128.79 25.1
-6 6 -11 70.49 15.6
-6 0 11 108.69 21.7
-6 6 -11 86.79 24
6 -6 11 85.09 20.4
0 6 -11 126.89 28
0 6 -11 70.19 14.3
6 -6 -11 58.69 13.7
6 0 11 98.29 26
-6 0 11 118.19 24.8
0 6 11 106.19 21.7
0 -6 11 112.39 21.3
-3 -4 11 42.6 18.1
-3 7 -11 37.9 14.2
4 -7 11 53.59 20.3
-7 3 11 57.99 17.7
7 -3 11 41.7 22.7
-7 4 -11 45 16.8
3 4 11 27.4 15.7
-3 7 -11 60.19 24.2
4 3 -11 52.99 22.4
-4 7 11 56.99 17.5
7 -3 -11 3 5
-4 7 -11 17.2 22.9
3 -7 11 10.2 17.9
-7 4 11 31.1 16.5
4 3 11 28 17.4
7 -4 11 -2.6 19.7
-4 -3 11 11.8 17.1
4 -7 -11 3.5 10.3
-7 3 -11 5.4 13.5
-4 7 -11 19.5 10.4
-3 7 11 27.8 17.4
3 4 -11 12.1 20.1
2 5 11 28.4 15.4
-7 5 -11 16.8 14.2
5 2 -11 59.89 21.2
-5 7 11 55.79 17.8
-2 7 -11 46.6 23.3
5 -7 11 49.7 18.5
7 -5 -11 29.9 10.2
-2 -5 11 53.29 18.7
7 -2 11 23.2 22.2
-7 2 11 17.8 13.7
-2 7 -11 21.9 14
-7 2 11 64.79 18.3
-7 5 -11 37 17.6
-5 7 -11 72.89 15.9
-7 2 -11 46.4 13.8
2 -7 11 81.19 20.6
-5 -2 11 55.39 18
2 5 -11 84.89 16.5
-5 7 -11 76.89 27.2
7 -5 11 53.09 20.5
2 5 -11 68.59 21.7
-7 5 11 79.79 18.4
-2 7 11 58.79 18.9
5 2 11 48.7 23.1
5 -7 -11 72.79 14.9
-1 7 -11 -13.4 14.4
-6 7 11 18.3 17.5
6 -7 11 -9.9 18.7
-7 6 -11 -10.6 15.8
7 -1 11 -37.1 20.3
1 6 11 -7.9 12.1
-1 7 -11 1.3 21.3
-1 -6 11 5.5 15.3
-7 6 -11 6.1 17.8
-7 1 11 3.6 17.8
-7 1 11 -6.4 15.9
7 -6 -11 -4.2 3.9
7 -6 -11 -5 11.1
7 -1 -11 6.7 4.4
6 -7 -11 -3.5 12.7
1 6 -11 5.1 20.5
7 -6 11 -19.7 17
1 6 -11 10.9 11.2
-7 1 -11 5.3 8.4
6 1 11 -32.7 20.9
-6 7 -11 -9.7 24.8
-6 -1 11 -11.1 15.5
-7 6 11 6.6 15.3
-6 -1 11 -5.9 12.3
1 -7 11 4.6 16.3
-1 7 11 1.9 12.8
-6 7 -11 5 9.4
-7 7 -11 36.5 24
-7 0 11 21.8 15.8
7 0 11 8.2 23
-7 0 -11 5.7 6.7
-7 7 -11 12.8 15.4
0 7 -11 19.9 22.8
7 -7 11 17.5 19.1
7 0 -11 7.4 4.8
0 -7 11 12.4 15.8
-7 7 11 46.6 18.3
-7 0 11 31.3 18.9
7 -7 -11 34.2 14.6
0 7 -11 21.1 14.5
8 -4 11 795.92 66.69
-8 4 11 840.32 61.89
-8 4 -11 717.13 64.69
-4 -4 11 789.32 62.49
4 -8 -11 695.53 60.29
-4 8 -11 751.32 63.19
-4 8 -11 847.12 69.49
-4 8 11 686.53 60.59
4 -8 11 859.91 64.69
4 4 -11 770.52 65.59
-8 5 -11 163.88 33.1
8 -3 11 195.98 33.1
8 -5 -11 142.49 16.4
-3 8 -11 172.08 30.8
8 -5 -11 121.39 20
3 -8 -11 161.28 20.2
-3 8 -11 223.38 36.9
3 5 -11 327.77 39.4
3 -8 11 317.27 35
-5 -3 11 337.87 35.6
8 -5 11 267.87 39.5
5 3 11 212.38 31.4
-5 8 -11 294.27 33
5 -8 -11 276.17 32.8
-8 3 -11 237.08 35.8
-8 5 11 330.17 33.6
-3 8 11 237.78 30.8
-2 -6 11 209.38 29.7
-8 2 11 129.19 21.2
-2 8 -11 171.88 23.4
8 -2 11 151.28 28.9
-8 2 11 227.58 29.8
-6 8 11 186.18 27.7
8 -6 -11 162.38 23.9
-8 6 -11 129.39 32.6
8 -6 -11 149.49 17.6
6 -8 11 196.68 29.6
-2 8 -11 182.88 39.6
2 6 -11 204.18 36.7
-8 6 11 221.88 28.9
-6 8 -11 207.88 41.6
8 -6 11 184.58 34.6
2 6 -11 187.98 24
6 -8 -11 194.88 29.6
-6 -2 11 172.98 28.1
2 -8 11 203.68 30.1
-8 2 -11 178.58 29.9
6 2 11 128.79 27
-6 8 -11 151.68 22.1
8 -1 11 121.49 28.4
-8 7 -11 122.39 23.4
-8 1 11 144.09 25.1
8 -7 -11 104.99 17.5
-1 -7 11 158.08 28.4
-1 8 -11 184.58 32.7
-1 8 -11 126.89 21.7
-7 8 11 163.38 26.3
7 -8 11 158.28 26
8 -7 -11 135.79 27
-8 1 11 92.39 20.2
8 -1 -11 174.18 18.7
7 -8 -11 189.18 31
7 1 11 172.58 31.6
-7 8 -11 223.68 38
-7 8 -11 176.38 28.2
-8 1 -11 154.48 24.4
1 7 -11 211.38 38.6
-1 8 11 168.38 28.4
8 -7 11 238.28 35.2
1 7 -11 208.78 29.1
7 -8 -11 148.89 18.2
-7 -1 11 202.98 28.6
-8 7 11 226.28 28.8
1 -8 11 237.78 31.3
0 8 -11 49.3 24.7
-8 8 -11 52.89 17.9
0 -8 11 64.19 19.2
8 -8 -11 33.6 14.9
0 8 -11 44.7 17.8
8 -8 11 58.29 20.2
8 0 -11 43.4 10.5
8 -8 -11 37.8 10.4
-8 8 -11 20.8 18
8 0 11 13.6 24
-8 0 11 40.4 18.4
-8 8 11 61.19 17.3
-5 9 11 220.28 28.4
5 -9 11 290.67 36.1
9 -4 11 219.28 36.8
-9 4 11 316.37 33.5
4 -9 -11 250.57 31.1
5 4 -11 285.77 35.5
-4 9 -11 295.27 46.1
-5 9 11 289.97 37.3
-4 -5 11 274.37 31.6
9 -5 -11 235.38 25.4
-9 5 -11 226.68 36
-4 9 11 248.48 36.7
9 -4 -11 278.67 26.7
-5 -4 11 271.67 32.4
-9 5 11 296.97 33.6
4 5 -11 287.37 39
4 -9 11 293.17 35.3
-5 9 -11 342.87 47.2
9 -5 11 293.37 41.5
5 -9 -11 271.47 34.6
-5 9 -11 222.68 38.2
-9 4 -11 256.17 36.7
6 -9 11 424.16 41.1
9 -3 11 372.96 44.8
-9 6 -11 354.06 44.5
9 -6 -11 339.57 34.9
-3 -6 11 455.85 40.7
-3 9 -11 423.46 50.89
-3 9 -11 343.87 43.1
-9 3 11 471.45 40.7
9 -6 -11 386.76 33.8
3 -9 -11 364.06 35.5
-6 9 11 460.25 42.8
-6 9 -11 486.85 52.99
-3 9 11 364.56 43.4
3 6 -11 360.16 35.1
3 6 -11 459.85 44.9
9 -3 -11 378.86 35.1
-6 9 -11 447.16 43.1
3 -9 11 437.56 40.6
6 -9 -11 426.76 41.6
-9 3 -11 410.06 44.5
9 -6 11 435.36 44.8
-6 -3 11 411.06 40.6
-9 6 11 433.76 39.3
-2 9 -11 92.39 31
7 -9 11 84.79 23.3
-2 9 -11 53.59 18.1
-2 -7 11 77.19 18.7
-9 7 -11 54.59 19.5
9 -2 11 44.2 25.7
9 -7 -11 46.6 14.3
-7 9 11 88.39 20
-9 2 11 56.59 18.7
9 -7 -11 86.29 18.8
7 -9 -11 66.89 11.6
-7 9 -11 58.89 13.8
2 7 -11 82.69 15.7
9 -7 11 84.29 13
7 2 11 29.5 20.2
-7 -2 11 68.59 20.2
2 7 -11 89.39 27.3
9 -7 11 82.19 22.6
9 -2 -11 70.79 13
-7 9 -11 115.09 31.7
-2 9 11 71.49 21.4
-9 7 11 72.29 18.7
2 -9 11 57.89 18.6
7 -9 -11 55.59 16.1
-9 2 -11 86.09 18.7
-1 9 -11 101.69 20.9
-9 8 -11 99.29 21.9
9 -1 11 40.8 24.5
-8 9 11 94.19 24.4
8 1 -11 86.59 19.1
-1 -8 11 97.79 19.9
-1 9 -11 118.49 31.1
8 -9 11 94.39 12.6
-8 9 11 89.09 20
9 -8 -11 99.89 19.7
9 -8 -11 109.59 18.3
-9 1 11 66.49 15.8
8 -9 11 113.59 25.1
8 -9 -11 82.69 18.1
8 1 11 18.4 21.8
-8 9 -11 45.7 17.9
-9 1 -11 67.59 13.8
1 8 -11 96.69 28
9 -8 11 72.89 22.3
-9 8 11 80.29 19.9
-8 -1 11 62.19 19.8
1 -9 11 67.99 19.5
1 8 -11 78.19 18.2
-8 9 -11 67.59 21.1
8 -9 -11 83.69 13.3
9 -1 -11 61.49 13.5
0 9 -11 69.99 29
-9 9 11 66.89 23
9 0 -11 60.59 14.5
9 -9 -11 53.69 17.6
9 0 11 12.3 22.7
9 -9 11 55.19 21.7
-9 9 -11 21.9 18.7
-9 0 11 48.8 17.5
0 -9 11 63.69 20.2
-9 9 11 43.6 17.8
9 -9 -11 78.39 13.4
-10 5 11 11.9 18.6
-10 5 -11 -5.2 17
5 -10 -11 11.3 8.2
-5 -5 11 -2.7 18
10 -5 -11 15.1 11.5
10 -5 11 -11.5 22.5
-5 -5 -11 26.9 12
-5 10 -11 16.7 26.8
5 -10 11 20.9 17.2
5 5 -11 -15.5 12.5
-5 10 11 6.2 21.5
6 -10 11 213.98 29.7
10 -6 -11 248.78 25.7
10 -4 11 200.48 33.2
-6 10 11 228.48 36.3
-4 10 -11 236.18 45.1
-10 4 11 238.38 31.8
10 -4 11 208.18 23.1
-10 6 -11 156.18 36.1
-4 -6 11 219.58 32
6 -10 -11 153.08 20.1
-6 -4 11 171.58 31.1
10 -4 -11 170.98 23.1
10 -6 11 166.88 34.7
-4 10 11 163.78 33.3
-6 10 -11 128.59 22.6
4 6 -11 150.78 28.3
-6 10 -11 214.08 43.6
4 -10 11 177.98 28.2
-10 4 -11 168.78 34.4
-4 -6 -11 214.48 24.6
-10 6 11 184.68 27.1
10 -7 -11 50.39 13.8
7 -10 11 85.69 19.5
-3 10 -11 82.59 20.3
10 -3 11 61.99 26.7
-10 3 11 72.89 20.2
7 3 -11 78.69 14.2
-7 10 11 65.49 18
10 -7 -11 100.99 19.1
-3 -7 11 117.49 22.2
-10 3 11 129.69 27.6
-3 10 -11 86.09 30.6
-7 10 11 92.89 24.2
-10 7 -11 76.49 21.2
3 7 -11 167.98 23.1
-10 7 11 146.79 28.6
7 -10 -11 137.69 20.1
-10 3 -11 124.99 23
-3 -7 -11 147.39 21.6
3 -10 11 144.59 26.7
-7 10 -11 155.48 22.9
-7 10 -11 150.18 33.4
10 -7 11 154.38 29.1
-10 7 11 196.88 32.8
10 -3 -11 156.68 23
3 7 -11 158.48 31.8
-7 -3 11 119.19 22.7
-3 10 11 107.29 25.3
-8 10 11 120.19 27.4
-2 -8 11 107.39 21.8
8 2 -11 90.89 15.2
-8 10 11 85.09 20.4
10 -8 -11 95.49 19.2
-2 10 -11 76.49 20.7
8 -10 11 80.89 18.8
10 -2 11 23.3 23.7
-10 8 -11 58.29 21
10 -8 -11 67.69 16.5
-2 10 -11 91.59 31.2
-8 10 -11 27.9 21.1
10 -8 11 29.2 11.7
-10 8 11 16.8 18.7
-10 2 -11 17.8 16.9
-2 10 11 15.4 14.7
8 2 11 5.8 18.4
10 -8 11 18 19.8
-8 10 -11 35.9 13.6
-2 -8 -11 26 8.8
8 -10 -11 29.4 11.5
-10 8 11 29.7 21.2
-8 10 -11 25.5 13.1
2 8 -11 30.4 22.9
2 -10 11 23.7 15.7
10 -2 -11 16.5 13
-10 8 11 53.69 16.6
-8 -2 11 23.7 18.8
2 8 -11 15.7 14.9
-10 9 -11 -11.5 18.2
-1 -9 11 6 15.3
10 -1 11 -36.5 19.3
9 -10 11 21.3 11
10 -9 -11 17.1 11.3
-9 10 11 -1 15.7
9 -10 11 14.3 13.1
-1 10 -11 -0.6 27.2
-9 10 11 16.5 15.5
-9 10 11 2.3 23
-10 1 11 10.8 8.6
9 1 -11 -5.4 12.6
-10 9 11 3.4 16.4
-10 1 -11 7.3 10.3
10 -1 -11 -12.1 12.4
1 9 -11 -18.6 15.4
-10 9 11 -9.4 21
1 9 -11 -9.4 25.2
-9 10 -11 -7.4 16.6
10 -9 11 9.5 18.8
-10 9 11 9.6 15.5
-9 -1 11 -14.8 16.4
1 -10 11 -9.1 14.3
-1 -9 -11 3 6.3
9 -10 -11 14.1 11.6
-9 10 -11 16 14.6
10 -9 11 0.6 11.9
9 1 11 -31 19.8
10 -10 -11 23.3 11.4
-10 0 11 21.2 10.9
10 0 -11 12.8 13.8
-10 10 11 34.5 15.9
-10 0 -11 8.3 7.2
0 -10 11 6 12.8
0 10 -11 -8.4 17.3
10 -10 11 1.7 13.6
10 -10 11 16.6 11.7
-10 10 11 8.5 16.9
0 10 -11 20.9 24.3
-10 10 11 10.9 21.1
0 -10 -11 3.7 6.7
-10 10 -11 -10.5 17.6
-11 5 11 92.49 21.5
-11 6 -11 89.29 23
-6 11 11 96.69 25.7
11 -6 -11 81.29 13.9
-5 11 -11 65.99 30
-11 5 11 128.49 31.7
11 -5 11 73.79 16.9
11 -5 11 65.59 24.6
5 -11 -11 92.19 19.3
-5 -6 11 86.49 21.1
-5 11 -11 55.19 20
-11 5 -11 92.29 21.8
-6 11 -11 45.9 19.7
-11 6 11 136.39 31.6
11 -6 11 67.59 26.1
-11 6 11 96.69 21.9
11 -5 -11 95.39 19.7
-6 11 -11 59.29 29.2
-5 11 11 63.39 22
6 -11 -11 90.69 19.4
-6 -5 11 72.39 19.4
11 -6 11 94.49 17.7
-5 -6 -11 125.89 23.8
11 -7 -11 92.49 17.6
11 -4 11 128.09 27.4
-4 -7 11 121.79 25.6
-4 11 -11 118.39 22.6
7 4 -11 137.89 19.8
-4 11 -11 213.38 38.4
-11 7 -11 110.99 23.5
11 -4 11 187.08 35.1
-11 4 11 127.89 26.5
-7 11 11 144.59 27.1
4 -11 -11 120.39 18.1
11 -7 -11 156.48 21.4
7 -11 11 165.18 16.4
7 -11 -11 148.79 21.7
-11 7 11 186.98 32.4
-7 11 -11 203.78 36.1
-11 4 -11 145.09 33
11 -4 -11 137.89 21.6
-4 11 11 90.09 23.2
-4 -7 -11 175.38 25.2
11 -7 11 98.09 18.4
-7 -4 11 139.89 28.7
-11 7 11 151.28 28.1
-7 11 -11 98.49 20.9
11 -7 11 127.19 26.4
8 3 -11 276.97 29.8
11 -8 -11 274.67 26.6
-8 11 11 277.07 32.5
11 -8 -11 256.37 31.3
-8 11 11 253.47 39.7
-3 11 -11 281.57 49.1
-11 8 -11 171.58 39.2
-3 -8 11 232.78 31.2
8 -11 11 319.17 29.7
-11 3 11 267.97 31.6
11 -3 11 203.98 35.9
11 -8 11 239.68 38.2
-8 11 -11 310.97 40.2
3 8 -11 270.47 29.4
-8 11 -11 208.58 37.5
-8 -3 11 203.38 33.8
-11 3 -11 269.17 37.8
11 -8 11 245.08 35.4
-11 8 11 207.98 30.4
8 -11 -11 249.08 26.5
-11 8 11 256.77 34.4
11 -3 -11 249.97 27.1
-3 -8 -11 297.27 31.8
11 -2 11 19.4 23
-9 11 11 62.09 22.8
9 2 -11 78.59 15.7
-2 -9 11 73.59 18.4
-9 11 11 123.79 30.3
9 -11 11 89.09 15
-2 11 -11 77.79 20.6
-2 11 -11 111.99 34.5
-11 9 -11 65.49 21
9 -11 -11 117.29 19.8
-11 2 -11 94.09 19
-9 11 -11 113.19 27.1
-11 9 11 70.49 19.7
-11 9 11 103.59 17.9
-2 -9 -11 113.09 21.6
11 -9 11 77.89 16.6
2 9 -11 97.59 18.7
9 2 11 37.7 16.5
-9 11 -11 55.99 16.4
-9 -2 11 77.29 20.7
11 -9 11 63.29 18.7
-10 11 11 58.39 21.1
10 -11 11 47.3 14.3
-11 10 -11 40.1 19.5
-1 11 -11 81.19 27.2
-10 11 11 28.7 13.3
11 -1 11 -4.4 20
-1 11 -11 45.2 18
-1 -10 11 22 10.3
11 -1 -11 126.69 22.8
-11 10 11 102.99 22.4
-11 1 -11 126.99 20.5
-10 11 -11 92.59 17.3
1 10 -11 86.09 19.6
-11 10 11 131.69 30.3
-1 -10 -11 103.89 18.1
-10 -1 11 112.09 22.1
-11 10 11 75.09 17.2
11 -10 11 124.09 18.2
-10 11 -11 92.99 20.7
10 -11 -11 125.79 20.6
0 -11 -11 14.5 7.4
-11 0 11 27.1 10.4
11 0 -11 23.6 12.9
-11 11 11 27.3 13.5
-11 11 11 32.9 17
-11 11 -11 12.3 18.1
0 11 -11 16.4 14.7
0 11 -11 -13.3 18.6
11 0 11 4.4 16
11 -11 11 2.8 14
-11 11 11 7.8 13.3
6 -12 -11 284.97 28.2
-12 6 11 240.88 33.9
6 -12 11 240.08 24.1
-12 6 -11 250.47 38.8
12 -6 11 308.07 39.2
-6 -6 11 236.28 31.8
-6 12 -11 255.57 47
12 -6 -11 289.27 28.2
-6 -6 -11 320.67 30.8
-12 6 11 312.17 37.8
12 -6 11 258.77 42.4
-12 7 -11 34.6 20
7 5 -11 29.2 12.5
-7 12 11 15.4 22.4
-12 5 11 49.9 18.4
12 -5 11 1.9 17.9
5 -12 -11 50.99 13.3
-12 5 11 21.7 15.2
-5 -7 11 38.4 18.7
12 -5 11 33.9 23.2
-5 12 -11 26.4 30.1
12 -7 -11 49.5 11.6
7 -12 11 36.3 9.8
12 -5 -11 76.39 13.6
12 -7 11 74.69 26.1
-12 5 -11 82.79 21.2
-12 7 11 40.4 19.1
-12 7 11 86.59 18.7
-5 -7 -11 106.89 16.6
-7 12 -11 91.99 30.6
-7 -5 11 59.39 19.2
-5 12 11 36.5 19.7
7 -12 -11 78.59 14.1
4 -12 -11 114.99 20.1
8 4 -11 120.19 23.6
-4 12 -11 106.09 32.7
-8 12 11 117.29 26.7
-4 -8 11 110.69 21.9
12 -8 -11 135.79 20.4
8 -12 11 141.99 26.4
-12 8 -11 110.19 23.7
12 -4 11 66.19 24.3
-12 4 11 157.48 33.2
-12 8 11 57.99 21.5
12 -4 -11 83.79 14.1
-8 -4 11 39.9 17.7
-8 12 -11 65.09 21.2
-8 12 -11 52.99 18.6
8 -12 -11 88.29 19.1
-4 -8 -11 108.99 17.2
-12 4 -11 58.39 19.8
-12 8 11 79.49 18.4
12 -8 11 70.79 17.7
12 -8 11 73.19 21
-3 12 -11 488.55 55.69
-3 12 -11 371.26 47.1
12 -3 11 326.27 47.7
3 -12 -11 405.06 35
12 -9 -11 474.95 35.5
-9 12 11 469.35 42.2
-12 3 11 438.36 39.7
-12 9 -11 388.66 46.3
-9 12 11 367.66 45.9
-12 9 11 417.86 45.7
-12 9 11 446.06 47.1
9 -12 -11 498.95 39.8
-3 -9 -11 522.35 44.7
12 -9 11 535.25 49.99
-9 -3 11 457.85 45.9
12 -3 -11 503.15 40.2
-12 3 -11 491.75 48.2
3 9 -11 522.55 42.3
-9 12 -11 456.85 46.8
10 -12 11 298.27 39.1
10 2 -11 351.66 31.6
-10 12 11 288.47 36.9
12 -10 -11 321.87 28.5
-12 10 -11 227.68 39.9
-10 12 11 278.97 39.2
-2 12 -11 265.97 41
2 -12 -11 257.77 25.3
-2 12 -11 284.77 42.8
2 10 -11 316.87 37
-10 12 -11 289.97 32.8
-12 10 11 253.07 36.3
-10 -2 11 203.58 27.8
12 -2 -11 283.17 28.5
-10 12 -11 228.98 32.8
-12 2 -11 286.77 33.4
-12 10 11 198.78 31.6
12 -10 11 265.77 37.4
-2 -10 -11 265.07 30.4
10 -12 -11 282.17 26.2
-11 12 11 5.2 17.8
-11 12 11 19.8 11.5
11 -12 11 26.2 13.9
-1 12 -11 18.6 16.4
12 -1 11 14.1 14.5
-1 12 -11 29.3 18.5
-11 12 11 47.1 19.6
-12 11 -11 39.6 18.9
11 1 -11 44.3 13.8
-11 12 -11 43.6 17.6
-1 -11 -11 41.5 12.6
-12 11 11 62.09 18.5
1 11 -11 52.79 18
11 1 11 36.1 15.5
-12 11 11 18.4 12.1
12 -11 11 23.5 14
-11 -1 11 22.8 9.6
12 0 11 38.3 17
12 -12 -11 10.9 10.6
-12 12 -11 -1 16.6
0 -12 -11 3.1 8.8
0 12 -11 -21 18.3
12 0 -11 5.1 12
-12 12 11 -8.3 16.7
13 -7 -11 7.6 10.4
-7 -6 -11 8.1 12.5
13 -6 11 11.7 17.8
7 -13 11 -5.5 11
6 -13 -11 0.4 12
-6 -7 11 -3.6 12.9
-7 13 11 0.9 17.8
7 6 -11 -18.2 12.1
-6 13 -11 -2.7 23
-13 6 11 -12.3 18.3
-13 7 -11 -24.1 17.2
-13 6 11 -4.7 10.6
13 -7 11 15.9 16.5
6 -13 11 1 8.3
-7 -6 11 -5.7 14.8
-13 7 11 1.4 13.1
-6 13 11 20.5 14.4
-13 6 -11 -17.9 17.5
-6 -7 -11 2.5 12.9
-7 13 -11 10.5 19.7
-13 7 11 -12.2 17.1
7 -13 -11 4.9 12
6 7 -11 -2.4 9.2
13 -6 -11 4.6 11.3
8 -13 11 69.29 14
-8 13 11 92.79 22.7
13 -5 11 50.59 19.2
-13 8 -11 78.89 20.9
13 -5 11 83.49 22
8 5 -11 97.59 16.7
-5 13 -11 61.29 19.6
-5 13 -11 130.99 31.5
-5 -8 11 45.7 13.1
5 -13 11 120.69 15.6
-13 8 11 77.99 19.5
-5 -8 -11 126.99 25
-13 8 11 78.79 19.8
13 -8 11 95.49 18
13 -5 -11 103.29 19.2
-13 5 -11 114.39 22.1
-8 -5 11 83.09 19.2
8 -13 -11 111.19 21.1
-9 13 11 96.49 22.9
13 -4 11 124.69 25.4
-4 13 -11 177.48 37.2
-4 13 -11 119.69 22.2
9 4 -11 156.58 25.7
9 -13 11 114.39 17.1
-13 4 11 184.48 33.3
-9 13 11 138.19 18.4
-13 9 -11 113.09 22.4
4 -13 -11 158.28 21.8
-9 13 -11 98.99 19.4
-9 -4 11 70.69 17.2
13 -9 11 75.99 16.3
-13 9 11 67.59 17
-3 13 -11 23.4 18.4
-10 13 11 71.69 18.2
3 -13 -11 47 12
-3 13 -11 32 19.2
-13 10 -11 36 18.7
10 -13 11 29.7 13.4
13 -3 11 37.4 16.7
-10 13 11 37.1 13.9
10 3 -11 44.2 14.5
10 -13 -11 28.9 10.8
-13 10 11 2.9 15.8
-3 -10 -11 22.6 14.9
13 -3 -11 21.5 11.2
-13 3 -11 12.4 15.8
-10 13 -11 6.9 14
13 -10 11 -1 12.6
-10 -3 11 20.2 9.6
-13 10 11 2.4 11.1
11 -13 11 58.79 14.3
-11 13 11 87.49 20.7
-2 13 -11 76.39 19.9
-13 11 -11 77.69 20.2
11 2 -11 119.89 21.8
-11 13 -11 153.68 23.7
-2 -11 -11 111.59 17.7
2 11 -11 151.58 27.2
13 -2 -11 126.79 21.5
-13 11 11 99.49 19.6
-13 2 -11 123.49 23
11 -13 -11 126.19 20.4
-11 13 -11 117.59 25.1
13 -11 11 124.79 18.1
13 -12 -11 81.99 17.5
12 -13 11 22.4 12.7
-13 12 -11 55.09 18.5
12 1 -11 75.19 14.1
-1 13 -11 25.8 18.6
-12 13 11 42.3 17.5
-1 -12 -11 42.5 13.7
13 -12 11 67.49 14.9
1 12 -11 64.59 17.3
-13 12 11 40.4 16.7
-12 13 -11 48.8 17.1
12 -13 -11 83.19 18.1
13 -13 11 13.2 12
0 13 -11 19.5 17.1
0 -13 -11 14.7 10.2
-13 13 11 11 14.8
13 0 -11 25.6 11.6
-13 13 -11 23.6 16
-7 -7 -11 10.8 12.1
7 -14 -11 9.7 12.1
-7 14 -11 10 14.9
-14 7 -11 -10.8 16.9
7 -14 11 -9.5 11.5
7 7 -11 -10.1 12.7
14 -7 11 22.3 14.2
-7 14 11 19.4 9.5
-7 -7 11 12 8.5
14 -7 -11 9 9.9
-6 14 -11 100.09 21.7
-14 8 -11 147.79 22.8
14 -8 -11 144.19 20.7
8 6 -11 107.69 23.6
-14 6 11 130.09 22.2
14 -6 11 94.29 19.2
6 -14 -11 145.19 22
8 -14 11 104.09 16.2
-14 6 -11 97.49 20.9
6 -14 11 133.99 24.1
-14 8 11 81.39 19
-8 14 -11 94.79 20.2
14 -8 11 73.29 16.3
8 -14 -11 132.89 20.9
-6 -8 -11 119.89 23.8
6 8 -11 80.49 17.7
14 -5 11 18.3 12.5
-14 5 11 12 14.6
5 -14 -11 9.9 12.2
9 5 -11 -4.7 14.4
-9 14 11 23.8 11.7
-5 14 -11 19.7 16.4
9 -14 11 -12.7 12.2
-14 9 -11 5.7 15.9
14 -9 -11 22.6 10.7
14 -5 -11 16.1 10.3
-9 -5 11 19.6 8.8
14 -9 11 -10 13.6
-14 5 -11 23.4 18.2
-9 14 -11 -2.4 15.3
-14 9 11 3.7 15.1
5 -14 11 18.9 7.3
-5 -9 -11 27.7 13.5
9 -14 -11 30.5 12
-14 9 11 10.2 9.8
14 -10 -11 227.38 24.1
-14 4 11 225.68 27.3
14 -4 11 229.28 25.5
-14 10 -11 153.08 33.6
4 -14 -11 224.58 25.8
10 -14 11 204.38 31.6
10 4 -11 230.48 28.4
-14 10 11 156.08 29.2
4 -14 11 134.29 14.8
-11 14 11 262.87 28.5
11 -14 11 219.48 32.2
11 3 -11 236.58 27.4
14 -11 -11 238.68 24.9
-3 14 -11 156.28 38.6
-14 11 -11 225.28 34.5
-11 14 -11 208.68 30.2
14 -3 -11 227.58 24.2
14 -11 11 189.28 32.5
-3 -11 -11 226.78 30.6
-14 3 -11 223.78 30.2
11 -14 -11 216.78 23.4
-14 12 -11 19.4 16.6
-12 14 11 8.7 14.1
-2 14 -11 10.1 16.3
14 -12 -11 20.8 10.4
12 2 -11 17.1 12.2
12 -14 11 3.4 11.3
14 -12 11 -7.2 12.2
-14 2 -11 5.6 6.6
-14 12 11 -4.7 13.6
-12 14 -11 13.5 9.4
-2 -12 -11 -1.6 12.6
14 -2 -11 13.2 10.2
12 -14 -11 14.2 9.9
2 12 -11 21.5 8.3
-12 14 -11 17.2 6.7
13 1 -11 5 11
13 -14 11 -7.7 10.5
-1 14 -11 -16.3 17.4
-13 14 11 3.9 14.8
1 -14 -11 3.9 5.9
14 -13 -11 13.4 9.7
-14 13 -11 18 15.5
-13 14 -11 6.1 13.8
14 -13 11 -5.1 11.1
14 -1 -11 11.3 10.5
1 13 -11 15.5 12.2
-14 13 11 7.1 14.5
-1 -13 -11 -4.5 11.7
13 -14 -11 14.6 9.8
14 0 -11 -1.1 10
0 -14 -11 -1.7 9.2
-14 14 -11 4.7 13.4
-14 14 11 -4.3 14.2
0 14 -11 1.9 13.9
14 -14 -11 2.8 9.3
14 -14 11 -16.6 10.1
-15 8 -11 2.7 15.7
15 -7 11 -17.9 12.8
7 -15 -11 3.1 11.4
-15 7 11 -12.2 15
-7 15 -11 -13.2 15.1
15 -8 -11 16.4 10.2
8 -15 11 -13.6 11.1
8 7 -11 -12.4 12.9
-7 -8 -11 6.7 11.6
-8 15 -11 -18.5 14.8
8 -15 -11 5.1 10.9
-15 7 -11 4.8 15.9
-15 8 11 -6.6 14.9
7 8 -11 -9 11.8
7 -15 11 -14.4 10.4
15 -7 -11 10.6 10
9 -15 11 -11.5 11.4
15 -6 11 -17.6 14.1
9 6 -11 -0.6 14.1
6 -15 -11 5.9 11.5
15 -9 -11 16.3 10.2
-15 6 11 3.1 13.9
-15 9 -11 13.3 15.5
-6 15 -11 -12.1 14.9
-6 -9 -11 15.1 12
15 -9 11 -12.4 12.6
15 -6 -11 37.8 10.9
6 9 -11 14 9.4
9 -15 -11 30.9 11.5
-9 15 -11 12.2 14.8
-15 9 11 12.8 14.5
-15 6 -11 23.6 17.2
6 -15 11 15 9.6
15 -10 -11 128.09 18.5
-15 10 -11 125.49 20.5
15 -5 11 115.89 18.7
-5 15 -11 105.49 20
-15 5 11 109.79 25.4
5 -15 -11 120.59 21.2
10 5 -11 106.29 22.9
-15 10 11 87.49 16.9
15 -5 -11 91.29 18.2
15 -10 11 78.19 14.6
-10 15 -11 73.09 17
-15 5 -11 69.29 17.7
5 -15 11 93.39 18.8
10 -15 -11 101.09 19.1
-5 -10 -11 97.69 22.2
11 -15 11 -10.4 10.8
11 4 -11 3.7 12.6
-4 15 -11 -5.5 15.6
15 -4 11 -16.3 14.2
-11 15 11 -11 8.8
-15 11 -11 12.2 15.1
-15 4 11 -4 6.7
15 -11 -11 15.4 10.1
15 -11 11 -13.9 11.1
-15 11 11 8.6 13.5
15 -4 -11 9.6 9.8
4 -15 11 5.4 4.9
-15 4 -11 14.2 14.5
-4 -11 -11 3.1 13
-11 15 -11 6.2 12.5
11 -15 -11 4.4 10.6
-12 15 11 22.5 9.5
15 -12 -11 44.2 10.7
12 -15 11 32.3 11.5
-3 15 -11 28.3 16.2
12 3 -11 36.9 12.7
-15 12 -11 50.29 15.9
-15 12 11 32.3 15.1
15 -12 11 16.9 11.7
-3 -12 -11 43.4 14.3
12 -15 -11 52.39 11.5
-12 15 -11 35.1 10.7
15 -3 -11 50.09 11.2
-2 15 -11 84.39 19.6
13 2 -11 103.49 14.7
-13 15 11 97.09 24.5
-15 13 -11 83.19 17.9
15 -13 -11 82.89 17.3
-15 13 11 65.59 16.2
13 -15 -11 92.99 16.8
15 -2 -11 80.79 17.1
15 -13 11 84.29 13.6
-2 -13 -11 80.49 15.6
-1 15 -11 35.9 14.7
14 -15 11 33.3 10.4
-15 14 -11 47 14.3
-14 15 11 45.5 14.8
15 -14 -11 41.1 10.2
15 -14 11 46.4 11.7
1 14 -11 52.39 9.8
15 -1 -11 49.7 11.1
-15 14 11 48.6 15.5
14 -15 -11 54.89 11.1
-1 -14 -11 37.6 12.7
-14 15 -11 35.2 10.6
-15 15 11 71.29 15.8
15 -15 -11 80.09 15.6
15 -15 11 76.99 12
15 0 -11 63.29 12
-15 15 -11 77.29 19.9
0 15 -11 97.79 15.1
8 -16 -11 91.59 19.2
16 -8 11 82.79 15.4
-16 8 11 97.49 18.3
8 -16 11 63.09 12.8
8 8 -11 82.99 15.4
-16 8 -11 115.09 27.1
16 -8 -11 99.59 17
-8 16 -11 96.59 17
9 7 -11 38.4 14.9
16 -9 -11 43.7 10.7
9 -16 11 23.5 11.5
-7 16 -11 41.5 15.7
-16 7 11 25.9 16
16 -7 11 27.1 12.9
-16 9 -11 43.3 15.3
7 -16 -11 34.9 12.1
9 -16 -11 38.2 11.4
-16 9 11 16.3 15
-16 7 -11 25.5 15.5
7 9 -11 14.6 11.8
7 -16 11 3 9.5
-7 -9 -11 16.3 11.3
16 -9 11 6.1 12.1
16 -7 -11 40.6 10.2
-9 16 -11 23 14.4
10 6 -11 -10.8 12.5
16 -10 -11 12.9 9.6
-16 10 -11 15.8 13.8
-6 16 -11 -1.8 14.2
10 -16 11 1.3 10.9
-16 6 11 15.2 12.9
6 -16 -11 6.1 10.7
16 -6 11 -14.3 12.8
16 -6 -11 6.8 9.2
-16 10 11 5.8 13.6
-6 -10 -11 3.5 11
-16 6 -11 12.2 15.2
-10 16 -11 1.9 13.5
6 -16 11 -1.4 9.2
10 -16 -11 7.8 9.8
16 -10 11 -17.4 10.7
6 10 -11 10.8 7.2
-5 16 -11 38.7 15.7
16 -5 11 21.1 13.2
11 5 -11 33.2 13.3
-16 11 -11 36.4 14.7
16 -11 -11 51.79 10.9
-11 16 -11 33.8 13.5
16 -5 -11 43.9 10.3
-16 11 11 41.5 14.6
16 -11 11 0.9 10.6
-16 5 -11 21.3 14
-5 -11 -11 21.3 12.2
5 -16 11 22.2 8.2
11 -16 -11 44.1 11.2
-16 12 -11 118.29 24.5
-4 16 -11 95.19 18.8
16 -4 11 89.19 16.4
12 4 -11 96.99 19.8
16 -12 -11 105.89 17.5
16 -4 -11 87.39 16.9
4 -16 11 68.19 11.7
-16 4 -11 66.69 16.2
-4 -12 -11 64.49 14.4
16 -12 11 74.39 13.4
-16 12 11 95.89 17.8
12 -16 -11 70.59 12.2
-12 16 -11 105.19 22.9
13 -16 11 141.99 23.6
16 -13 -11 151.28 18.8
13 3 -11 147.99 21.4
16 -3 11 107.69 17.8
-3 16 -11 172.88 32.5
-16 13 -11 164.28 25.3
13 -16 -11 125.49 18.5
-3 -13 -11 103.59 23.7
16 -13 11 99.29 14.2
-16 13 11 125.29 26.6
16 -3 -11 124.99 16.6
14 2 -11 122.09 19.5
16 -14 -11 129.89 17.5
14 -16 11 107.09 23.1
-2 16 -11 153.78 29
-16 14 -11 136.49 24
14 -16 -11 96.19 17.2
-2 -14 -11 97.69 22.2
16 -2 -11 108.89 16.7
-16 14 11 104.69 25.9
15 -16 11 6.8 8.7
-15 16 11 13 9.9
15 1 -11 20.6 9.8
-16 15 -11 21.8 11.5
16 -15 -11 24.5 9.1
15 -16 -11 44.4 10.3
-1 -15 -11 31.2 10.2
-16 15 11 56.89 14.8
16 -1 -11 59.59 10.3
16 -16 11 220.48 23.6
-16 16 11 151.38 21.1
16 0 -11 196.78 19.6
16 -16 -11 177.78 19.3
-8 17 -11 32.9 13.3
8 -17 -11 10.5 9.9
-17 9 -11 21.6 13.4
9 -17 11 1.4 9.1
17 -8 11 -9.6 11.2
9 8 -11 5.2 12.6
17 -9 -11 16.4 8.8
-17 8 11 21.3 14.7
9 -17 -11 17.7 10.6
-17 9 11 13.5 13.8
-9 17 -11 27.5 13.1
-17 8 -11 36.1 13.9
8 -17 11 -2.8 9
8 9 -11 12.5 11.1
17 -8 -11 19.6 9
10 -17 11 0.6 9.3
-17 10 -11 24.8 12.8
17 -7 11 9.2 11.2
17 -10 -11 18.6 9.3
10 7 -11 21 12.3
-17 7 11 19.6 12.5
-7 17 -11 33.2 13.6
-7 -10 -11 28.7 11.1
10 -17 -11 19.4 10
7 10 -11 18.3 9
17 -7 -11 24.1 9.3
-17 7 -11 26.2 13.7
-10 17 -11 42.8 13.5
-17 10 11 23.7 13.7
17 -10 11 0.3 10.3
7 -17 11 12.8 9.4
-17 11 -11 43 13.2
11 6 -11 42.8 12.8
-6 17 -11 55.49 15.1
17 -6 11 27.3 12.1
11 -17 11 24.8 10.3
17 -11 -11 47 9.9
-6 -11 -11 44.7 12.4
17 -6 -11 55.29 10.3
-11 17 -11 68.09 14.7
-17 6 -11 37.5 13.1
11 -17 -11 57.79 11.1
-17 11 11 70.59 15.7
-17 12 -11 40.7 12.9
12 -17 11 20.4 9.8
17 -12 -11 22.8 9.2
17 -5 11 12.8 12.2
12 5 -11 26.6 11.5
-5 17 -11 44.2 15
17 -5 -11 19.1 8.7
-17 12 11 35.2 13.9
-12 17 -11 32 11.4
-5 17 11 5 7.2
5 -17 11 8.5 5.7
-5 -12 -11 9.8 11.2
12 -17 -11 24.1 9.7
17 -12 11 13.8 10.3
-17 5 -11 10.5 7.9
13 4 -11 22.9 11
-17 13 -11 30.7 12.2
17 -13 -11 27.1 8.8
13 -17 11 7.5 9.1
17 -4 11 21.8 11.9
-4 17 -11 45.9 14.9
13 -17 -11 32.4 9.6
17 -13 11 12.9 10
-17 13 11 48 14.6
-4 -13 -11 18.4 11.9
17 -4 -11 35.1 9.3
14 -17 11 102.39 20.2
17 -14 -11 95.59 15.6
14 3 -11 106.89 18.4
-17 14 -11 132.99 20.4
-3 -14 -11 90.49 20.2
17 -14 11 67.09 12.1
14 -17 -11 91.69 15.6
-17 14 11 128.09 22.6
17 -3 -11 105.09 15.2
-15 17 11 94.89 15.7
15 -17 11 119.19 19.8
-17 15 -11 122.79 19.7
17 -2 11 81.29 14.2
15 2 -11 123.99 16.9
17 -15 -11 114.79 15.2
-2 17 -11 128.79 15.8
-17 15 11 127.09 21.1
15 -17 -11 90.89 15.2
-2 -15 -11 77.69 17.8
17 -2 -11 109.89 14.9
17 -15 11 89.89 19.2
17 -1 11 158.78 23.8
16 1 -11 178.58 17.6
16 -17 11 188.68 21.3
17 -16 -11 137.19 15.1
16 -17 -11 155.38 16.3
-17 16 11 128.09 18.4
17 -16 11 193.28 21.7
17 -1 -11 170.98 17.3
17 -17 11 60.89 9.8
17 0 11 77.79 16.7
17 0 -11 72.39 12.4
9 9 -11 36.3 11.3
-18 9 -11 33.9 11.9
9 -18 11 16.1 8.7
18 -9 -11 39.3 8.8
-9 18 11 35.7 11.8
-18 9 11 23.5 13.5
-18 8 11 14.5 12
-18 10 -11 18.6 11.7
10 8 -11 13.2 11.2
18 -10 -11 14.7 8.1
-8 18 -11 30.8 12.8
18 -8 11 4.3 10.4
-10 18 11 6.5 10.7
8 -18 11 -7.2 7.8
-18 8 -11 12.1 11.8
-18 10 11 16.6 13.8
18 -10 11 -11.8 9.4
-8 18 11 8.9 10.5
18 -8 -11 6 7.7
8 10 -11 8.6 7.7
-10 18 -11 25 12.1
10 -18 -11 -2.3 8.8
-18 11 -11 35.2 11.7
11 7 -11 29.5 11.1
-11 18 11 29.7 11.6
18 -11 -11 23.1 8.4
18 -7 11 16.6 11.1
11 -18 11 17.6 8.8
11 -18 -11 20.1 9.3
-18 7 -11 25.2 11
-7 -11 -11 26.8 10
7 -18 11 19.3 8
-18 11 11 35.1 13.8
18 -11 11 7 10
-7 18 11 23.7 10
18 -7 -11 22.1 8.3
-12 18 11 2.5 10.7
18 -12 -11 1.9 7.5
12 6 -11 5.6 10
18 -6 11 -13.1 9.6
12 -18 11 -10.5 7.6
-18 12 -11 14.2 10.5
-18 6 -11 6.1 5.2
12 -18 -11 -4.6 8.4
-18 12 11 9.9 12.9
6 -18 11 1.5 5.2
-12 18 -11 18.1 10.8
-6 -12 -11 -7.1 9.8
18 -6 -11 -0.3 7.4
18 -12 11 -14.9 9.6
-13 18 11 45.9 11.3
18 -5 11 25.9 10.9
18 -13 -11 31.8 8.1
13 -18 11 33.1 9.2
13 5 -11 38.7 10.7
-18 13 11 40 12.9
18 -13 11 6.4 9.4
18 -5 -11 21.3 7.8
-5 -13 -11 27.7 11.2
13 -18 -11 27.5 9.2
14 -18 11 96.29 18.8
18 -14 -11 63.09 10.7
14 4 -11 98.69 15.9
18 -4 11 84.89 13.6
-18 14 -11 111.59 18
-14 18 11 78.79 16.8
-4 -14 -11 46.4 11.8
-18 14 11 85.69 20.1
18 -4 -11 70.79 12.2
18 -14 11 62.39 10.7
14 -18 -11 42.6 9.6
-3 18 -11 61.39 9.7
-15 18 11 51.79 8.6
18 -15 11 97.99 18.6
-3 -15 -11 80.99 15.3
18 -3 -11 96.19 13.2
15 -18 -11 79.09 12.7
-18 15 11 113.69 19
18 -2 11 5.9 8.8
16 2 -11 12 7.7
-18 16 -11 4.2 5.3
16 -18 11 5.1 7.4
18 -16 11 13.7 7.5
18 -2 -11 13 6
16 -18 -11 6.1 3.7
19 -9 11 15.9 9.7
10 -19 11 16.3 7.7
10 9 -11 33.8 9.3
-10 19 11 32.9 10.4
-19 10 -11 29.4 10.7
9 -19 11 15.5 7.5
19 -10 11 28.3 10.1
-9 19 11 30.5 9.8
9 10 -11 25 6.5
-19 9 -11 26.3 10.6
-19 10 11 33.2 12.3
-11 19 11 27.1 9.8
-19 11 -11 23.2 10
19 -8 11 5.4 9.9
11 -19 11 9.5 7.4
11 8 -11 23.9 9.5
8 -19 11 14.8 6
-8 19 11 12.6 8.3
19 -11 11 17 10
19 -8 -11 16.6 5.2
-19 8 -11 24.6 8.2
12 -19 11 -2.4 7
19 -7 11 -4.9 9.1
-12 19 11 10.7 10
-19 12 -11 8.7 9.2
12 7 -11 7.9 8.9
-19 12 11 5.4 11.3
-19 13 -11 30.9 9.7
13 6 -11 19.6 9
13 -19 11 11.4 7.3
19 -6 11 6.1 9
-13 19 11 21.6 10.1
-19 13 11 11.6 11.6
19 -6 -11 3.6 4.2
6 -19 11 6.2 3.1
19 -13 11 -3.7 8.7
13 -19 -11 -1.9 7.5
19 -5 11 30.1 9.3
-14 19 11 27.2 9
14 -19 11 26 7.1
-5 -14 -11 13.5 9.1
-19 14 11 25.7 10.7
19 -14 11 22.4 8.5
14 -19 -11 19.1 6.5
0 0 12 1977.4 147.39
0 0 12 2192.38 148.19
0 0 -12 1900.11 145.89
-1 0 12 435.16 44.9
-1 0 12 478.95 44.7
0 1 -12 457.45 41.2
-1 1 12 447.86 42
-1 1 -12 509.15 44.7
0 1 -12 385.46 37.5
1 -1 12 433.86 45.5
0 1 12 416.76 45.2
0 -1 12 456.25 42.9
1 -1 -12 349.77 36.9
-1 1 12 393.06 42.1
1 0 -12 410.86 38.3
0 -1 -12 451.05 40.4
-1 0 -12 515.35 45
0 1 12 465.55 44
1 0 12 400.56 43.2
0 -1 12 405.96 44.6
-2 1 12 1109.79 86.39
2 -1 -12 1009.4 82.29
-1 2 -12 1281.27 88.39
-1 2 12 920.71 84.19
-1 2 12 1165.18 85.29
1 1 12 1155.98 86.49
-2 1 12 1211.68 86.79
1 -2 12 1180.78 87.29
-1 -1 12 1117.79 85.69
2 -1 12 1128.19 87.49
-1 2 -12 1126.79 85.69
1 1 12 1048.5 87.29
-2 1 -12 1082.99 85.49
-1 -1 -12 1044 84.29
1 1 -12 1086.69 82.79
-2 0 12 470.95 42.7
-2 2 12 448.06 41.9
0 2 -12 489.25 46.3
0 2 12 390.46 42.1
0 2 -12 360.26 38.6
2 0 -12 422.06 39.4
0 -2 12 437.06 43
2 -2 -12 418.76 39.2
0 -2 12 429.76 44.3
0 2 12 434.46 43.5
0 2 -12 391.26 38.2
-2 0 -12 473.95 43.4
-2 2 -12 516.85 45.5
2 -2 12 429.06 45.1
2 0 12 410.96 45.3
-2 2 12 361.96 40.1
-2 2 -12 480.05 44.3
-2 0 12 426.96 44.6
-3 1 12 58.49 20.6
-1 3 -12 138.09 26.5
3 -2 -12 101.49 24.1
2 1 -12 110.19 25.3
3 -1 12 55.29 21.7
-3 2 -12 163.78 33.5
1 2 12 51.39 20.2
-1 -2 12 87.09 20.8
-3 1 12 107.69 22.6
2 -3 12 82.69 21.5
-3 2 -12 87.09 23.6
-2 3 12 115.49 23.3
-1 3 -12 137.99 26.9
-1 -2 12 101.09 23.9
1 2 12 90.89 21.1
-1 3 -12 95.39 23.3
-1 -2 -12 138.69 23.3
1 2 -12 108.89 24.6
3 -2 12 76.99 22.4
2 -3 -12 104.59 23
-2 -1 12 77.59 21.9
-3 1 -12 178.88 33.1
1 2 -12 139.89 28.8
3 -1 -12 115.89 25.3
-2 -1 12 107.99 23.1
-2 3 -12 119.69 19.8
-3 2 12 147.39 25.3
2 1 12 74.09 22.5
-2 3 -12 143.89 26.9
1 -3 12 111.69 22.4
-1 3 12 111.69 23.8
-3 0 12 609.64 56.89
3 -3 12 644.24 56.99
0 3 12 635.14 55.39
0 3 -12 699.53 59.69
3 0 -12 655.43 54.19
-3 3 -12 702.43 60.39
-3 0 12 718.33 56.79
0 3 -12 614.04 54.59
0 -3 12 638.44 56.09
-3 3 -12 745.43 60.99
3 0 12 609.64 59.79
-3 0 -12 634.04 56.89
3 -3 -12 633.54 54.39
-3 3 12 701.23 57.29
0 -3 12 714.93 58.59
2 2 12 499.95 48.6
2 2 12 461.75 49
-2 4 -12 572.84 48.1
4 -2 12 544.75 53.29
-2 -2 12 618.24 52.19
-4 2 12 609.24 49.5
-2 -2 12 553.24 50.49
-4 2 -12 595.04 55.09
-2 4 -12 593.04 53.09
-2 4 -12 499.25 49.3
2 -4 12 530.15 51.09
4 -2 -12 569.74 48
2 2 -12 551.04 47.8
2 2 -12 592.14 52.49
-2 4 12 561.44 48.7
2 -4 -12 512.65 45.9
4 -1 12 274.17 36.9
4 -3 -12 284.17 34.1
-3 -1 -12 320.67 36.6
-1 4 -12 316.77 38.7
-1 -3 12 309.87 37.6
-3 4 12 313.77 36
3 1 -12 283.47 34.9
-4 3 -12 318.97 40.4
-4 1 12 267.27 35.5
-1 -3 12 280.27 34.1
-4 3 -12 317.77 40.9
3 -4 12 296.57 38.1
-4 1 12 352.76 37.2
1 3 12 258.97 33.2
-1 4 -12 291.17 35
1 -4 12 262.17 35.6
4 -1 -12 282.27 32.9
-3 4 -12 250.97 28.7
-3 -1 12 287.07 33.9
1 3 -12 247.68 32.4
-3 -1 12 252.27 35.5
1 3 -12 317.67 39.2
4 -3 12 261.57 34.7
-3 4 -12 324.97 41.1
-4 1 -12 314.47 40.3
3 1 12 241.18 38.3
-4 3 12 289.47 35.2
-3 4 -12 332.07 39.8
3 -4 -12 256.57 32.1
-1 4 12 270.87 35.1
4 0 12 -12.4 20.9
-4 0 12 10.8 18.1
4 -4 12 -6.6 17.5
-4 0 -12 27.4 16.3
-4 4 12 24.4 18.8
-4 0 12 -9.8 17.4
0 -4 12 15.8 17.9
0 4 -12 10.9 21.6
0 4 -12 -7.5 12.8
-4 4 -12 5.5 21.7
0 4 12 0.5 18.1
4 -4 -12 5.6 13.7
-4 4 -12 23.2 20.5
0 -4 12 -0.5 18.1
4 0 -12 -0.1 12.1
0 -4 -12 -6.8 5
0 4 -12 -9.1 6.8
-2 -3 12 12.2 17.7
-3 -2 -12 8.9 11.2
2 -5 -12 2.4 10.6
-2 5 -12 -1 13.8
5 -2 12 -9.8 20.7
-5 3 -12 0.4 17.1
5 -3 -12 14 13
-3 5 12 17.3 18.4
3 2 -12 30.2 19.2
3 -5 12 -11.3 18
2 3 12 10.5 10.7
-2 5 -12 14.1 23.8
-2 -3 12 2.2 17.8
-5 2 12 17 18.9
3 2 -12 3.2 13.1
-2 5 -12 15.7 10.9
-5 3 -12 3.1 19.3
2 3 12 0 17.3
-5 2 12 3.3 10.7
-2 5 12 4.4 16.7
3 2 12 -7.1 16.7
-2 -3 -12 0.3 8.1
-3 5 -12 32.2 16.2
-3 5 -12 8.5 13.1
3 -5 -12 6.8 13.2
-5 2 -12 14.6 18.5
-3 -2 12 3.2 18.4
2 3 -12 31.1 21.8
-3 -2 12 13.4 16.9
-5 3 12 12.1 17.7
-3 5 -12 -3.7 24
2 3 -12 1.6 12.7
2 -5 12 -0.3 16.9
5 -2 -12 10.5 13.2
5 -3 12 -19.9 19.1
5 -4 -12 78.19 16.6
-1 -4 12 124.39 23.5
1 4 12 96.49 22.2
-4 -1 -12 140.49 26.9
-1 5 -12 158.48 29.7
4 1 -12 120.39 25.6
5 -1 12 85.79 23.8
-1 5 -12 96.59 18.5
-5 4 -12 97.69 25.3
-4 5 12 133.19 24.8
-1 -4 12 90.69 20.1
-5 1 12 120.69 23.2
-5 4 -12 134.79 24.7
4 -5 12 113.59 24.1
-5 1 12 57.99 19.3
-4 5 -12 145.39 33
4 -5 -12 85.29 16.7
1 4 -12 71.09 16.2
5 -1 -12 70.99 15.1
5 -4 12 80.89 22.2
1 -5 12 92.79 20.8
-5 1 -12 85.69 21.3
1 4 -12 104.09 24.1
-5 4 12 108.49 21.3
1 -5 12 66.89 20.1
-4 5 -12 94.09 26
-1 5 12 108.39 22.6
4 1 12 69.99 24.1
-4 -1 12 74.09 21.4
-4 -1 12 98.69 23.4
0 -5 12 196.08 30
0 5 12 202.58 31.2
0 -5 12 156.08 25.6
-5 5 12 226.88 29.5
-5 0 12 243.78 30.7
0 5 -12 268.17 38.8
5 -5 12 216.18 35.3
0 5 -12 188.38 33
-5 5 -12 271.77 43.4
5 -5 -12 239.88 31.5
-5 0 -12 249.78 36.3
5 0 12 176.58 37.5
-5 0 12 180.18 32.9
5 0 -12 239.18 29.1
-5 5 -12 235.38 36.1
3 3 -12 119.39 24.9
-6 3 -12 110.39 23.4
3 3 -12 106.99 25.6
-3 6 -12 94.19 21.8
3 3 12 78.19 21.2
3 -6 -12 98.49 17
6 -3 12 91.29 23.9
-3 6 -12 85.79 19
3 -6 12 94.49 22
-6 3 12 131.69 27.6
-3 -3 12 83.89 20.2
-3 6 -12 104.39 27.2
-3 6 12 98.29 22
6 -3 -12 66.39 15.5
4 -6 12 126.69 24.6
-2 -4 12 125.39 25.7
-4 -2 -12 110.29 22
4 2 -12 128.39 26.3
2 4 12 95.69 21.3
6 -4 -12 135.49 28.3
-2 6 -12 127.59 27.7
-2 6 -12 91.79 19
2 -6 -12 81.19 15.2
-4 6 12 122.09 24.7
-6 2 12 151.88 29
-6 4 -12 132.69 24.2
6 -2 12 105.09 25.6
-6 2 -12 217.68 39.4
-6 4 12 235.68 30.9
6 -4 12 166.18 28.6
6 -2 -12 197.98 29.1
2 4 -12 176.88 30.7
-4 6 -12 209.08 33.9
2 -6 12 174.28 29.6
-4 -2 12 175.18 31.7
-4 6 -12 239.18 41.8
-2 6 12 194.48 30.1
-4 6 -12 230.38 35.7
2 4 -12 226.48 37
4 -6 -12 185.48 30.7
4 2 12 156.88 29.8
-6 5 -12 88.39 21.8
-1 6 -12 104.69 19.2
-6 1 12 58.49 16.4
1 -6 -12 65.69 11.8
5 -6 12 103.89 23.3
-6 1 12 131.09 25.2
1 5 12 84.49 19.5
6 -1 12 114.19 26.8
-1 -5 12 89.39 20.3
-5 -1 12 90.79 19.7
1 5 -12 134.69 28
-5 6 -12 127.79 29.7
6 -1 -12 133.49 26.2
-5 -1 12 94.29 21.3
5 -6 -12 119.29 27.5
-6 1 -12 141.89 23.5
1 -6 12 97.09 21.5
6 -5 12 106.39 25.5
-1 6 12 95.69 21.7
5 1 12 111.19 26.7
-6 5 12 150.78 25.3
-5 6 -12 139.19 25.3
6 0 12 36.5 23
-6 0 12 49.4 19.1
-6 6 12 84.39 21.4
0 6 -12 48.9 16.8
-6 0 -12 90.09 20.5
0 6 -12 86.79 27.8
6 -6 -12 67.79 16
-6 6 -12 75.49 24.8
-6 6 -12 78.39 22.2
-6 0 12 56.29 19.1
0 -6 12 54.59 18.8
6 0 -12 67.09 14.4
6 -6 12 58.19 21.8
7 -3 12 217.68 39.9
7 -4 -12 266.27 32.8
-7 4 -12 271.97 43
4 3 -12 256.17 38
-4 7 12 252.07 30.8
-7 3 12 289.47 34.7
-3 -4 12 254.87 34.4
3 -7 -12 258.77 31.8
-3 7 -12 221.08 38.6
4 3 -12 250.37 31.7
4 -7 12 223.08 33.3
-3 7 -12 307.27 42.2
3 4 -12 228.78 34.2
-4 7 -12 182.58 28.9
7 -3 -12 235.78 31.3
-4 7 -12 245.28 43.1
4 -7 -12 233.98 31.3
-7 4 12 222.58 30
-4 7 -12 197.48 38.1
3 4 -12 236.58 32.7
-7 3 -12 232.38 40.7
-3 7 12 189.08 28.2
-4 -3 12 216.68 33.6
3 -7 12 225.38 34.4
7 -4 12 191.88 37.7
-2 -5 12 74.09 20.8
7 -5 -12 62.99 16.5
7 -5 -12 34.7 8.4
-5 -2 -12 38.3 11.3
5 -7 12 63.19 22.8
-7 2 12 63.19 20.4
-7 5 -12 63.49 21.6
2 -7 -12 48.6 13.5
-2 7 -12 31 16.8
-2 7 -12 85.79 29.6
-5 7 12 73.39 20.5
7 -2 12 37.5 24.5
5 2 -12 55.89 14
5 -7 -12 122.39 29.3
2 5 -12 108.99 19.2
-5 7 -12 157.28 33.2
-5 7 -12 157.28 35.6
7 -5 12 116.89 26.4
-7 5 12 139.29 28.2
2 5 -12 129.79 27.2
2 -7 12 84.89 22.3
-5 -2 12 91.69 21
-7 2 -12 110.99 22.9
-5 7 -12 126.99 21.4
5 2 12 64.29 18.3
7 -1 12 279.77 44
-1 -6 12 341.77 38.6
-6 7 12 389.46 36.3
-1 7 -12 373.86 45.2
6 1 -12 364.76 33.8
-6 -1 -12 331.27 37.3
-7 6 -12 381.86 47.4
-7 1 12 374.56 38.3
6 -7 12 374.06 42.4
-1 7 -12 319.47 41.6
-6 7 -12 593.64 55.59
-6 7 -12 503.05 54.09
-6 7 -12 532.95 45.3
6 -7 -12 535.75 46.3
7 -6 12 485.05 50.79
-6 -1 12 445.46 47.1
7 -1 -12 467.85 42.8
-7 1 -12 506.95 51.99
1 6 -12 468.25 47.3
1 6 -12 498.95 52.79
-7 6 12 497.85 46.4
6 1 12 393.46 49.8
0 -7 12 118.49 22.5
-7 7 12 158.78 25.7
0 7 -12 175.48 39
-7 7 -12 136.19 25.4
7 -7 -12 119.39 18.6
7 0 -12 139.69 21.8
-7 0 -12 191.68 35.2
0 7 -12 114.19 20.8
7 -7 -12 166.18 31
7 -7 12 163.38 27.7
-7 7 -12 144.49 18.9
7 0 12 84.79 26.8
-7 0 12 80.19 19.6
-8 4 -12 470.65 50.99
4 -8 12 452.25 46.5
4 4 -12 468.35 43.3
4 4 -12 478.65 47.5
-8 4 12 481.25 44.7
8 -4 12 426.96 48.1
-4 8 -12 393.86 49.3
-4 8 -12 539.15 57.19
8 -4 -12 486.75 42.8
8 -4 -12 405.46 37.9
-4 -4 12 423.06 45
4 -8 -12 447.26 43.1
-3 8 -12 119.19 22.5
5 -8 12 147.89 26.3
8 -5 -12 180.98 30.3
-3 -5 12 162.58 27.5
-8 3 12 190.28 30
3 -8 -12 153.58 28.8
5 3 -12 173.28 27
8 -3 12 89.09 27.4
-5 8 12 132.49 26.7
8 -5 -12 140.69 21.2
-8 5 -12 144.69 25.3
-8 5 12 273.07 31.9
-5 8 -12 251.17 34
3 -8 12 260.17 33.3
8 -3 -12 249.58 30.9
-5 8 -12 267.57 40
3 5 -12 293.07 40.4
8 -5 12 232.28 39.7
-5 8 -12 305.57 48.4
5 -8 -12 227.18 34.4
-8 3 -12 273.57 42.2
-5 -3 12 232.88 32.6
3 5 -12 268.07 34.2
8 -3 -12 246.88 26.2
-2 8 -12 38.6 26.6
-6 8 12 34.9 18
6 2 -12 41.2 11.2
8 -6 -12 32 14.9
6 -8 12 22.5 21
-2 -6 12 38.1 19.8
-8 2 12 38.2 18.7
8 -6 -12 37.1 11.9
-8 6 -12 27.1 20.3
-2 8 -12 17.1 17.6
8 -2 12 -2.9 24.9
2 -8 -12 24 13.1
-8 2 -12 57.29 20.4
-6 8 -12 85.69 29.8
6 -8 -12 40.2 15.5
2 6 -12 33.5 16.2
6 2 12 23.6 14.4
-2 8 12 30.9 20.3
8 -2 -12 38.4 11.8
-8 6 12 47.6 18.2
8 -2 -12 51.39 12.6
8 -6 12 32.3 21.3
-6 8 -12 41.2 18.9
2 -8 12 54.19 20.6
-6 8 -12 69.59 22
6 -8 -12 26.5 9.1
-6 -2 12 29.5 20.2
2 6 -12 51.89 25.8
8 -7 -12 244.98 24.6
-7 -1 -12 244.78 28.9
7 -8 12 265.77 37.5
-1 8 -12 215.28 36.9
-8 7 -12 218.78 42.4
-1 8 -12 273.17 43.5
-1 -7 12 253.27 33.9
1 -8 -12 174.08 23
8 -1 12 203.28 34.9
-7 8 12 237.48 31.4
-7 -1 12 220.68 33.9
1 -8 12 235.18 34.5
-7 8 -12 218.48 34.2
-7 8 -12 233.18 42.6
1 7 -12 282.07 42.8
8 -7 12 231.98 38.6
7 -8 -12 233.78 26.1
8 -1 -12 260.77 26.2
1 7 -12 238.28 35.6
7 -8 -12 243.48 33.9
-8 1 -12 268.57 41.6
7 1 12 188.88 35.6
-7 8 -12 314.77 34.6
-8 7 12 244.28 30.5
0 8 -12 124.39 21.6
8 -8 12 152.88 30.4
8 0 -12 130.59 21.5
8 -8 -12 155.08 21
8 0 12 87.39 27.4
-8 0 -12 166.58 31
0 8 -12 150.28 32
-8 8 -12 148.59 38.1
-8 8 -12 121.89 19
8 -8 -12 155.18 30.2
0 -8 12 150.08 24.7
-8 8 12 135.89 28.2
9 -5 -12 31.1 11.8
-5 9 12 35 23.7
-9 5 -12 24.3 20
-4 -5 12 31.8 19.3
9 -4 12 -0.9 22.5
-9 4 12 47.4 20.2
9 -5 -12 33.5 14.4
4 -9 -12 24.3 15.3
-4 9 -12 18.2 27.9
5 -9 12 33.1 20.5
5 4 -12 42.8 13.2
-4 9 -12 20.3 20
4 5 -12 17.6 14.3
-5 9 -12 7.7 9.7
-5 9 -12 -15 19
9 -4 -12 24.7 12.7
-9 5 12 28.5 18.9
4 -9 12 1.8 16.6
-9 4 -12 10.7 18.9
-5 9 -12 14.7 26.7
9 -4 -12 22.7 12
9 -5 12 -11.7 22.2
-5 -4 12 15.5 18.5
-4 9 12 8.6 19.4
4 5 -12 -2.4 15.2
5 -9 -12 0.6 14.5
5 -9 -12 5.2 7.2
-3 -6 12 107.99 21.4
-3 9 -12 145.99 34.2
9 -6 -12 133.49 21.6
9 -3 12 90.29 29.5
-3 9 -12 80.29 21.8
6 3 -12 117.99 18.7
-9 3 12 118.59 24.4
6 -9 12 108.99 23.1
-6 9 12 139.59 27.5
9 -6 -12 122.59 29.4
-9 6 -12 140.69 25.9
6 -9 -12 79.49 17.4
9 -3 -12 130.79 21.3
3 6 -12 115.89 19.4
9 -6 12 110.89 27.2
-3 9 12 71.79 21
-6 9 -12 88.79 21.5
9 -3 -12 68.69 13.2
3 6 -12 133.69 25.3
-9 3 -12 94.69 22.1
-6 -3 12 108.29 23.2
-9 6 12 99.69 21.9
-6 9 -12 116.09 27.4
-6 9 -12 136.39 34.1
6 -9 -12 89.09 17.4
3 -9 12 111.99 22.6
7 2 -12 140.89 18.8
-9 7 -12 165.68 39.4
9 -7 -12 201.38 23.1
7 -9 12 224.58 31.5
-7 9 12 193.08 38
-2 9 -12 146.99 35.7
9 -2 12 133.09 29.8
9 -7 -12 220.68 30.4
-2 -7 12 195.68 31
-2 9 -12 216.58 40.9
-7 9 12 143.49 24.1
2 7 -12 221.18 38.2
-9 7 12 197.48 30.7
2 7 -12 211.08 33.5
-7 9 -12 207.88 39.7
7 -9 -12 203.68 33.8
9 -2 -12 234.28 25.8
2 -9 12 190.18 30.8
9 -7 12 214.18 37.7
-7 9 -12 220.38 34.9
-7 -2 12 172.88 30.5
-7 9 -12 199.28 40.7
7 -9 -12 184.88 24.6
-9 2 -12 241.88 39.6
-8 -1 -12 12.6 10.7
-1 -8 12 11.7 17
8 -9 12 9.7 17.5
9 -1 12 -19.1 20.2
-9 8 -12 -19 18.8
8 1 -12 -10.3 11.6
-8 9 12 -4.4 16.3
-1 9 -12 -14.2 25.3
9 -8 -12 -3.7 14.5
9 -8 -12 6.2 11.7
-8 9 12 -11 21.2
1 8 -12 3.3 22.1
8 -9 -12 7.3 11.7
-9 1 -12 12.9 17.6
-8 -1 12 5.8 12.6
-9 8 12 8.8 18.5
9 -1 -12 2.9 12.2
1 8 -12 -3 16.4
8 1 12 13.5 14.5
-8 9 -12 12.9 13.2
-9 8 12 -0.3 20.4
9 -8 12 8.1 19.9
-1 -8 -12 -4.7 5.9
-8 9 -12 9 19.3
8 -9 -12 -8.8 14.4
1 -9 12 -0.7 15.6
-9 8 12 28.7 16.3
0 9 -12 -3.3 17.3
-9 9 12 7.8 19.9
-9 9 12 -2 15.7
9 0 -12 0.1 13.6
0 9 -12 29.5 25.7
0 -9 12 2.7 14
-9 0 12 11 10.2
9 -9 12 10.1 14.1
-9 0 -12 15.8 14.9
9 0 12 6 15.3
-9 9 12 27.2 16
9 -9 -12 9.5 11.7
-9 9 -12 12.5 19.2
-5 10 12 0.2 20.5
5 -10 -12 16.8 9.7
-10 5 12 51.39 17.6
10 -5 12 -9.9 23.2
-5 -5 12 22.9 17.1
-10 5 -12 20.7 19.9
-5 10 -12 16.9 28.1
10 -5 -12 13.6 12
5 -10 12 9.5 12.6
-10 5 12 18.3 18.8
10 -5 -12 21.1 11.9
5 5 -12 32.5 11.2
-4 10 -12 213.58 28.4
10 -6 -12 158.98 29.1
10 -4 12 170.18 20.7
-10 4 12 130.19 24.6
-4 10 -12 162.18 35.2
10 -4 12 134.59 32.5
-4 -6 12 145.99 30
10 -6 -12 180.78 23.1
-10 6 -12 204.48 28.3
-6 10 12 154.48 35
-4 10 12 198.38 33.3
6 -10 -12 255.27 25.9
-6 -4 12 232.18 33.8
-10 4 -12 261.37 40.5
-10 6 12 245.18 31.8
10 -4 -12 272.57 28.2
10 -6 12 201.78 40.3
10 -6 12 298.57 26.4
-6 10 -12 196.58 44.1
-6 10 -12 275.47 44.1
4 6 -12 288.07 34.5
10 -7 -12 81.59 17.2
-7 10 12 64.49 24.4
-10 7 -12 89.69 23.7
-3 10 -12 88.09 32.6
10 -7 -12 80.69 13.5
-3 -7 12 43.9 17.7
3 7 -12 54.49 17.4
-7 10 -12 57.49 16.4
10 -3 -12 50.39 13.6
-10 7 12 89.09 18.3
-7 10 -12 59.89 21.8
-10 3 -12 71.69 20.4
7 -10 -12 77.19 13.4
10 -7 12 58.29 24.5
-7 10 -12 54.39 21.8
-7 -3 12 33.5 17.9
-10 7 12 63.29 20.7
-10 2 12 127.49 27.1
-2 10 -12 76.89 21.3
-8 10 12 90.09 25.7
10 -8 -12 128.69 19.8
10 -8 -12 127.19 21.3
-10 8 -12 136.69 25.6
8 2 -12 100.89 21.5
-8 10 12 181.88 32.5
-2 10 -12 157.68 35.3
8 -10 12 119.79 15.4
10 -2 12 158.88 17.7
-2 -8 12 83.99 19.3
10 -8 12 231.88 27.5
-2 -8 -12 146.79 21.2
2 8 -12 204.48 34.8
-10 2 -12 223.98 38.6
-10 8 12 170.68 29.9
8 -10 -12 192.58 23.8
-10 8 12 222.18 33.6
10 -2 -12 193.78 25.2
10 -8 12 189.48 31.5
-8 10 -12 185.28 35.7
-8 10 -12 176.68 38.8
-1 10 -12 -7.2 17.7
-10 1 12 -7.4 8.5
10 -1 12 6.2 16.6
9 -10 12 24.3 9.8
-1 -9 12 4.9 11.5
-10 9 -12 5.5 19.6
-9 10 12 15.6 19.5
9 -10 12 6.5 16
9 1 -12 6.8 14.1
-9 -1 -12 7.8 7.8
-9 10 12 21.8 15.6
-1 10 -12 26.4 24.9
-1 -9 -12 1.4 6.6
1 9 -12 -16 16.7
-9 -1 12 7.8 8.5
1 -10 12 -6.8 9.2
10 -9 12 13.9 12.1
-9 10 -12 31.7 12.9
-10 1 -12 19.6 17.7
1 9 -12 -0.6 14.8
-10 9 12 -3.8 14.2
-10 9 12 18.7 15.2
9 1 12 24.4 15
10 -9 12 6.9 12.3
10 -1 -12 6.4 12.3
-9 10 -12 15.6 18.9
9 -10 -12 20.1 12
-10 9 12 0.8 13.2
0 -10 12 -2.2 13.4
-10 10 12 27.8 15.7
0 10 -12 -14.2 16.6
0 10 -12 5.5 16.1
-10 10 -12 0.4 18.8
-10 0 -12 21.7 12.1
10 0 12 23.5 13.7
10 -10 12 -0.5 12.6
-10 10 12 2.7 11.3
10 0 -12 13.5 13.5
6 5 -12 11.8 5.4
-5 11 -12 -21.3 19
6 5 -12 8.2 6.1
-5 -6 12 17.6 16.4
11 -5 12 24 21
5 -11 -12 25.8 11.1
11 -6 -12 22.6 10.7
-11 6 -12 8.3 19.5
-5 11 -12 2.8 25.8
11 -5 12 18.6 13
-6 11 12 22.5 19.6
-11 5 12 -7.6 12
11 -6 12 43.1 13.9
-11 5 -12 42.2 20.1
11 -6 12 46.2 22.7
-5 11 12 42.8 15.4
-6 11 -12 43.9 24.1
-6 -5 12 43.8 18.2
-6 11 -12 26.8 20.4
-11 6 12 32.6 16.6
-7 11 12 405.56 37.6
7 4 -12 311.47 31.9
-7 11 12 341.37 41.1
-4 -7 12 353.46 37.4
11 -4 12 324.97 45.2
-4 11 -12 434.46 50.19
4 -11 -12 343.57 31
11 -7 -12 381.96 37.5
-4 11 -12 285.77 46.3
11 -7 -12 420.06 33
-11 7 -12 352.36 45.1
7 -11 -12 333.57 29.6
11 -7 12 261.27 37.5
11 -7 12 337.67 39.9
11 -4 -12 315.57 29.9
-7 -4 12 238.58 34.1
-11 7 12 320.67 38.1
-11 4 -12 354.06 43.3
4 7 -12 383.76 35.7
-11 7 12 267.07 34.4
11 -3 12 203.28 30.6
-8 11 12 174.48 31.6
8 3 -12 122.99 23.4
-11 8 -12 162.88 26.7
-3 11 -12 110.89 29.4
11 -8 -12 162.58 22.3
-3 11 -12 172.08 27.4
-11 3 12 161.28 31
-8 11 12 116.79 25.3
11 -3 -12 103.69 21.4
-3 -8 -12 120.49 22.5
-11 3 -12 109.49 22.3
8 -11 -12 126.29 20.9
-11 8 12 113.79 28.6
-8 11 -12 82.19 22.8
3 8 -12 107.79 19.7
-8 11 -12 107.59 26.1
-9 11 12 36 15.2
-11 9 -12 26 19.3
9 -11 12 30.4 11.4
-2 11 -12 19.8 19.7
-2 11 -12 35.5 19.8
9 2 -12 48.6 15.2
-9 11 12 56.59 17
11 -2 12 6.5 15.7
-9 11 -12 67.19 17.8
9 -11 -12 97.09 18.9
-9 11 -12 50.79 19.1
11 -9 12 34.2 15
-11 9 12 64.69 16.5
-11 2 -12 70.19 19.5
-2 -9 -12 46 13
11 -2 -12 82.19 13.8
2 9 -12 75.79 18.3
-10 11 12 6.3 15.4
-1 11 -12 12.8 18.2
10 -11 12 5.8 13
-11 1 12 3.9 7.9
10 1 -12 29.6 13.8
-11 10 -12 15.9 18.3
-10 11 12 13.3 10.4
-1 11 -12 -3.5 17.7
11 -1 12 21.3 13.2
-10 11 -12 23.1 9.6
-10 11 -12 -5.5 17.2
-11 1 -12 5.7 15
-11 10 12 4.7 14.5
10 -11 -12 8.5 10.6
11 -1 -12 0.3 11.6
1 10 -12 -13.2 16.8
-1 -10 -12 3.7 8.3
0 11 -12 -17.3 16.6
11 0 -12 0.4 12.1
-11 0 -12 4.9 7.6
-11 11 12 -6.4 16.1
-11 11 -12 -2.5 17.8
11 -11 -12 12 10.6
0 -11 -12 -1.7 5.8
6 6 -12 87.09 13.2
-6 -6 12 146.29 19.7
-6 12 -12 179.18 35.6
-6 12 -12 88.69 21.1
12 -5 12 100.29 18.7
12 -5 12 61.49 18
7 5 -12 107.69 19.3
-5 12 -12 85.89 23.2
5 -12 -12 126.09 20
-12 5 12 133.49 33.2
-5 12 -12 82.99 21.3
-12 5 -12 80.09 21.1
-5 12 12 28.2 15.2
-7 12 -12 53.89 19.6
12 -7 12 55.69 16.2
8 4 -12 82.39 16.1
-4 12 -12 117.29 23.5
-12 4 12 136.09 21.7
8 -12 12 143.69 22.2
-8 12 12 137.39 25.7
-12 8 -12 79.99 21.8
4 -12 -12 108.29 19
12 -4 12 93.29 20.1
12 -8 -12 124.59 20.5
4 8 -12 183.78 24.1
-4 -8 -12 180.28 26
-8 12 -12 138.69 24.5
-12 4 -12 181.18 35.8
12 -4 -12 128.99 21.5
8 -12 -12 154.58 22.6
-12 8 12 148.49 21.5
-12 9 -12 339.17 43.6
9 -12 12 432.26 38.3
-12 3 12 360.46 39.1
9 3 -12 406.86 35.8
-3 12 -12 307.77 48.6
3 -12 -12 334.37 30.4
-9 12 12 363.26 40.9
12 -9 -12 392.66 32.3
12 -3 12 327.77 46.4
3 9 -12 379.56 37.4
-12 9 12 249.78 37.3
-12 3 -12 374.36 40.6
12 -9 12 261.67 41
9 -12 -12 330.47 29.9
12 -3 -12 330.27 30.5
-9 12 -12 328.07 42.9
-3 -9 -12 277.77 32
-10 12 12 -12.3 17.3
-12 10 -12 -13.2 16.5
10 -12 12 -12.8 11.7
10 2 -12 -6.5 12.7
12 -10 -12 13.4 10.7
-2 -10 -12 -2.5 11.7
2 10 -12 2.5 15.5
-10 12 -12 14.1 13.9
-12 2 -12 5.5 15.8
10 -12 -12 12.2 10.7
-10 12 -12 8.8 16.5
-12 10 12 -5.1 15.2
12 -2 -12 13.4 11.5
12 -11 -12 78.29 12.3
-12 11 -12 55.19 18.8
11 1 -12 64.49 14.3
11 -12 12 58.39 14.6
-1 12 -12 46.4 18.8
-11 12 12 46 18.8
-1 -11 -12 48.6 11.6
-11 12 -12 70.39 18.7
-11 12 -12 72.49 12.9
1 11 -12 70.39 18.1
-12 1 -12 38.7 11.4
11 -12 -12 93.89 17.5
-12 11 12 59.89 18
12 -12 -12 11.7 9.7
0 12 -12 -21.3 15.5
12 0 -12 -11.8 10.9
0 -12 -12 -2.4 5.7
-12 12 -12 -3.6 16
-13 7 -12 154.88 33.7
13 -7 -12 203.08 22.1
7 -13 12 209.18 21.4
7 6 -12 139.79 22
6 -13 -12 242.98 24.9
-13 6 12 183.78 25.5
13 -6 12 153.18 22
-6 13 -12 209.28 26.2
13 -7 12 159.18 22.2
-13 7 12 215.58 26.1
-13 6 -12 181.28 35.7
-7 13 -12 189.48 25.5
13 -6 -12 203.38 22.8
7 -13 -12 224.28 24.9
13 -5 12 295.07 44
-5 13 -12 215.98 41.1
-13 8 -12 268.57 37.6
5 -13 -12 313.87 28.2
13 -8 -12 340.57 28.2
-13 5 12 284.97 40.8
8 5 -12 299.17 30.1
-13 5 -12 408.06 42.1
13 -5 -12 348.77 30.6
-8 13 -12 286.67 43.9
13 -8 12 282.37 42.5
8 -13 -12 374.56 31.9
-13 9 -12 84.19 20.1
4 -13 -12 132.19 19.6
-13 4 12 117.39 29.2
9 4 -12 102.99 16.7
9 -13 12 97.19 15.3
13 -9 -12 112.69 19.2
-4 13 -12 120.39 22.5
13 -4 12 92.49 19.5
-4 -9 -12 60.19 14.8
13 -4 -12 70.69 12.4
-9 13 -12 51.69 18.7
9 -13 -12 70.39 13.1
-13 9 12 56.09 16.4
-13 4 -12 70.79 19.5
-10 13 12 17.6 16.6
3 -13 -12 22.3 8.9
-13 10 -12 10.5 16.8
13 -10 -12 27.3 10.3
10 3 -12 15.3 13.4
13 -3 -12 3.4 10.5
-13 10 12 -10.6 13.8
-3 -10 -12 -2.6 12.1
-13 3 -12 10.8 16.4
-10 13 -12 12.5 15.7
10 -13 -12 11.7 10.8
-10 13 -12 7.7 7.3
3 10 -12 21.4 10.4
-2 13 -12 -7.1 16.8
11 2 -12 11.7 12.5
-13 11 -12 12.5 16.3
13 -11 -12 30.9 10.4
11 -13 12 10 11.3
-11 13 12 1.3 16
-11 13 -12 23.2 13.2
-13 11 12 3.1 14.5
2 11 -12 26.4 14
13 -2 -12 31 11.2
-2 -11 -12 14.9 12.2
13 -11 12 0.1 12.9
-13 2 -12 43.1 14.2
11 -13 -12 33.1 10.5
12 -13 12 -1 11.1
-12 13 12 -0.9 14.3
-1 13 -12 10 15.8
12 1 -12 15 11.8
-13 12 -12 18.4 16.2
1 12 -12 10.3 14.6
13 -1 -12 24.3 11.2
12 -13 -12 24.5 9.7
-13 12 12 -10.8 13.7
13 -12 12 -4.5 11.5
-12 13 -12 17.1 15.5
-1 -12 -12 0.7 9.1
-13 13 -12 57.49 16.7
13 -13 12 55.69 13
13 0 -12 91.79 18.6
13 -13 -12 95.99 16.1
0 13 -12 80.29 17.2
-13 13 12 78.39 16.3
7 7 -12 350.66 34.8
-7 14 -12 396.16 43.6
-14 7 12 346.57 43
14 -7 12 435.36 45.2
7 -14 -12 476.45 36.7
7 -14 12 482.35 35.9
-14 7 -12 472.65 44.6
14 -7 -12 456.85 35.3
-6 14 -12 102.29 19.7
-14 6 12 95.89 19.3
8 -14 12 72.49 13.2
14 -6 12 89.39 16.9
8 6 -12 86.09 15.5
6 -14 -12 127.49 20.8
14 -8 -12 129.89 18.5
-14 8 -12 113.59 20.1
14 -6 -12 66.39 11.3
-14 6 -12 43.6 18
-8 14 -12 43.9 16.7
14 -8 12 28.6 14.6
8 -14 -12 50.89 12.5
6 -14 12 57.29 10.1
9 5 -12 33.6 13.4
14 -5 12 18.7 14.6
5 -14 -12 56.19 12.4
9 -14 12 38.6 12.1
14 -9 -12 59.69 11
-5 14 -12 61.09 18.7
-14 5 12 55.19 14.7
-14 9 -12 48.9 16.4
-9 14 -12 49.99 17.6
-14 5 -12 71.79 18.2
14 -9 12 24.6 12.9
14 -5 -12 42.7 10.6
-14 9 12 43.8 15.2
10 4 -12 91.89 16.2
-14 4 12 118.49 19.8
14 -4 12 69.39 17.2
-14 10 -12 74.69 17.7
14 -10 -12 104.19 17.2
-4 14 -12 111.39 23.7
14 -4 -12 75.09 16.6
-14 4 -12 76.69 17.4
-10 14 -12 87.09 18.4
-14 10 12 51.59 15.1
10 -14 -12 88.79 18.3
-4 -10 -12 61.19 14.4
11 -14 12 -17.7 10.3
-14 3 12 -6 8.2
-14 11 -12 2.9 14.6
-3 14 -12 -16.1 17
11 3 -12 -13.4 11.7
-11 14 12 24.3 10.5
14 -3 12 -23.8 13.5
14 -11 -12 6.8 9.3
-3 -11 -12 -12.5 11.9
11 -14 -12 12.2 10.1
-14 11 12 -9.4 12.4
14 -11 12 -20.9 11.6
-14 3 -12 11 14.1
14 -3 -12 8.3 9.6
-11 14 -12 25.2 12.6
14 -12 -12 38.9 9.9
-12 14 12 22.9 13.8
-2 14 -12 32.6 16.1
-14 12 -12 36.5 16.2
12 -14 12 7.8 10.6
12 2 -12 27.7 12
-2 -12 -12 23.2 11.9
-12 14 -12 10 6.9
14 -2 -12 47 11.2
12 -14 -12 45.1 10.5
-14 12 12 8.6 13.3
-14 2 -12 7.3 9.5
14 -12 12 11.3 11.6
-1 14 -12 1 14.2
-14 13 -12 4.2 14.1
13 -14 12 -12.9 9.5
13 1 -12 2.9 10.1
-13 14 12 -1.1 14.1
14 -13 -12 8.9 9.1
14 -1 -12 7.1 9.5
14 -13 12 -11.1 10
1 13 -12 19.1 10
-13 14 -12 7.9 11.5
13 -14 -12 8.3 9.2
-1 -13 -12 -1.6 7.6
-14 13 12 1.5 13.4
-14 14 -12 51.29 14.6
-14 14 12 59.39 15.3
0 14 -12 95.49 21
14 0 -12 72.69 12.1
14 -14 -12 72.89 15.8
15 -7 12 87.89 16.3
8 -15 12 105.29 21.7
-15 8 -12 125.39 27.1
15 -8 -12 122.19 18.1
7 -15 -12 125.09 19.9
-7 15 -12 101.99 18.3
-15 7 12 118.69 18.9
8 7 -12 89.79 14.9
15 -8 12 120.99 17.2
-15 7 -12 160.48 28.5
15 -7 -12 146.89 19
-8 15 -12 120.19 19.2
7 8 -12 98.19 15.2
8 -15 -12 150.58 20
-15 8 12 121.59 19.4
7 -15 12 146.59 17.5
-15 9 -12 323.47 34.6
15 -6 12 324.47 38.3
-6 15 -12 347.27 39
9 6 -12 284.07 29.9
15 -9 -12 301.67 27.4
9 -15 12 359.66 34
-15 6 12 281.17 33.7
6 -15 -12 334.17 29.8
9 -15 -12 234.38 23.8
-15 6 -12 259.47 33.3
-15 9 12 174.18 29.7
15 -9 12 199.58 30.1
-9 15 -12 260.57 33.2
15 -6 -12 210.78 21.7
-15 10 -12 42.2 14.8
10 -15 12 9.4 10.7
15 -5 12 2.8 12.8
10 5 -12 20.4 13.3
-15 5 12 39.2 12
-5 15 -12 21.7 18.1
15 -10 -12 43.5 10.2
10 -15 -12 37.1 10.8
-15 5 -12 21.9 14.6
15 -5 -12 33.4 9.5
-10 15 -12 50.79 18.3
15 -10 12 11.9 11.6
-15 10 12 23.8 14
11 4 -12 42.1 12.8
-4 15 -12 53.29 17.8
15 -11 -12 40.7 9.9
-15 11 -12 58.99 15.5
11 -15 12 18.6 11.1
15 -4 12 27.2 14.2
11 -15 -12 64.79 11.5
-11 15 -12 58.59 14.8
-4 -11 -12 40 13.1
-15 4 -12 45.4 14.8
-15 11 12 39.8 14.4
15 -4 -12 39.7 10.2
15 -12 -12 30.9 9.4
-3 15 -12 28.2 15
12 -15 12 21.7 10.5
15 -3 12 19.5 12.7
12 3 -12 43.9 12.4
-15 12 -12 39.9 14.2
15 -3 -12 31.3 9.6
-15 12 12 23.4 13.8
12 -15 -12 30.6 10
15 -12 12 16.6 10.6
-3 -12 -12 13.9 11.7
-2 15 -12 32 13.9
-15 13 -12 32.3 13.2
-13 15 12 14.2 8.9
15 -2 12 -0.5 12.1
13 -15 12 21.2 10.1
13 2 -12 20 10.7
15 -13 -12 35.8 9.4
-2 -13 -12 11.3 9.7
15 -2 -12 29.8 9.2
13 -15 -12 28.6 10
-15 13 12 20.2 13.1
15 -13 12 15.8 10.2
14 -15 12 11.5 9
-1 15 -12 25.9 11.3
-15 14 -12 29.5 12.4
15 -14 -12 20 8.6
-14 15 12 22.7 10.7
14 1 -12 28.1 9.9
15 -1 -12 15.1 9
14 -15 -12 25.9 9.3
-15 14 12 21.6 12.4
15 -14 12 7.9 8.8
-15 15 -12 6.4 5
15 0 -12 -6.5 8.6
15 -15 -12 2.1 8.6
-15 15 12 -1.8 10.6
15 -15 12 -11.3 7.9
15 0 12 0.7 7.8
-16 8 -12 216.58 28
8 8 -12 153.68 19.2
-16 8 12 191.98 27.7
16 -8 12 153.88 29
8 -16 12 199.08 21.4
8 -16 -12 185.78 21.2
16 -8 -12 197.78 20.2
-16 7 12 70.29 15.4
7 -16 -12 54.19 11.2
16 -9 -12 71.79 15.5
9 7 -12 44.3 11.3
16 -7 12 35.5 11.9
-16 9 -12 70.19 14.9
9 -16 12 35.6 9.8
9 -16 -12 36.2 10.8
-16 9 12 53.49 16.1
16 -7 -12 47.6 9.8
-9 16 -12 66.59 16
-16 7 -12 42.1 14.8
-6 16 -12 29.4 16.6
-16 10 -12 13.7 12.3
16 -6 12 0.5 11.1
16 -10 -12 18 8.6
-16 6 12 15.5 10.8
10 6 -12 4.1 11.9
10 -16 12 -5 8.9
16 -6 -12 20.1 8.6
10 -16 -12 11.4 9.7
-16 10 12 14.8 13.4
16 -10 12 0.6 10.4
-16 6 -12 23.1 14.2
-10 16 -12 47.8 17
-5 16 -12 22.6 15.5
11 5 -12 -7 10.9
-16 11 -12 16.5 12.3
16 -5 12 -5.5 10.1
11 -16 12 -7.7 9.1
16 -11 -12 3.9 8.1
-16 5 -12 0.8 11.4
16 -5 -12 0 8.3
-11 16 -12 19.9 12
11 -16 -12 5.1 9.2
-16 11 12 4.1 12.9
-16 12 -12 27 11.9
12 -16 12 1 8.8
-4 16 -12 26.6 14.1
12 4 -12 10.8 10.8
16 -4 12 6.1 10.9
16 -12 -12 24.8 8.4
12 -16 -12 11.9 9
16 -12 12 0.8 9.6
16 -4 -12 14.7 8.8
-16 12 12 12.9 12.3
-16 4 -12 6.1 9.7
13 -16 12 4 8.5
-3 16 -12 24 12.6
13 3 -12 10.6 10.1
-16 13 -12 13.7 11.2
16 -3 12 5.5 10.9
16 -13 -12 18.9 8.6
16 -13 12 -6.1 9
16 -3 -12 8.6 8.5
-16 13 12 13.6 12.4
13 -16 -12 13.2 8.9
-3 -13 -12 -6.1 10
16 -14 -12 5.2 8.1
-16 14 -12 14 10.9
-2 16 -12 21.8 10.1
14 2 -12 3.5 9.1
14 -16 12 -0.3 8
16 -2 12 1.8 9.4
-16 14 12 4.8 11.9
14 -16 -12 3.7 8.4
16 -14 12 -10.3 8.3
16 -2 -12 -0.7 7.9
15 -16 12 -1.2 7.7
-16 15 -12 6.4 5
16 -15 -12 1.9 7.7
15 1 -12 4.7 8.2
16 -1 12 8.3 6.7
-16 15 12 1.9 10.7
16 -1 -12 5.3 8
15 -16 -12 8.9 8.1
16 -15 12 -6.5 7.8
16 0 -12 21.5 7.8
16 -16 -12 17 6.8
16 -16 12 18.4 7.5
17 -8 12 -12.8 8.9
-17 9 -12 3.5 11.3
-8 17 -12 30.8 15.6
-17 8 12 3.6 12.7
17 -9 -12 7 7.8
9 8 -12 6.2 7
9 -17 12 -3.8 6.4
8 -17 12 5.3 4.8
9 -17 -12 0 8.5
-17 8 -12 13.3 11.9
-9 17 -12 37.2 15.6
8 9 -12 3.5 4.1
-17 9 12 10.1 12.5
17 -8 -12 1.6 7.5
-7 17 -12 65.39 16.9
17 -7 12 17.7 11
10 7 -12 37.2 10.8
17 -10 -12 38.3 8.8
-17 10 -12 37.8 12.2
10 -17 -12 17.5 9.4
-17 7 -12 21.1 12.7
17 -7 -12 20.8 8.1
-17 10 12 29.8 13.1
17 -10 12 8.7 10.6
17 -11 -12 48.3 9.1
17 -6 12 36.7 11
11 6 -12 67.99 11.7
11 -17 12 41.4 8.9
-17 11 12 56.69 13.6
17 -11 12 37.8 11.6
11 -17 -12 31.5 9.4
17 -6 -12 46.6 9
-6 17 12 24.9 7.7
-17 6 -12 36.3 10.6
12 5 -12 42.3 10.9
-5 17 -12 60.19 13.6
17 -12 -12 36.3 8.4
-17 12 -12 48.3 12.1
17 -5 12 24.6 10.3
12 -17 12 21.8 8.3
17 -5 -12 59.09 9.8
-17 12 12 57.49 14.2
12 -17 -12 57.49 10.4
-12 17 -12 76.49 11.3
13 4 -12 6.5 9.5
-17 13 -12 17.1 10.3
-4 17 -12 19.4 11.3
17 -13 -12 10 7.5
17 -4 12 -5.5 8.3
13 -17 12 0.5 7.9
17 -4 -12 3.9 7.4
17 -13 12 -9.5 8.6
13 -17 -12 5.4 8
-17 13 12 8.2 11.7
14 -17 12 3.9 7.3
-14 17 12 9.4 8.2
14 3 -12 14.4 8.2
-17 14 -12 11.9 9.2
17 -14 -12 8.1 7.1
17 -3 12 8.7 7.6
-3 17 -12 24.2 8
17 -14 12 5.1 8.6
-17 14 12 17.2 11.6
14 -17 -12 13.3 8
17 -3 -12 16.5 7.6
17 -15 -12 2.7 4.9
-17 15 -12 3.3 3.8
15 -17 12 4 6.8
17 -2 12 14.7 5.2
15 2 -12 5.9 7.9
15 -17 -12 2.9 6
-17 15 12 -3 7.8
17 -15 12 -2.6 7.7
17 -2 -12 3 7
18 -9 -12 6.5 6.7
18 -9 12 -8.8 9
9 9 -12 5 4
-9 18 12 6.7 9.1
-18 9 -12 13.5 10.3
-18 9 12 6.6 10.6
9 -18 12 5.4 3
10 8 -12 9.3 5.1
18 -8 12 -0.4 8.6
-10 18 12 10.7 9.6
10 -18 12 8.4 4.3
18 -10 -12 15.4 6.7
-18 10 -12 20.5 10.4
-18 10 12 24.3 12.6
18 -10 12 11.5 9.8
18 -8 -12 20.7 7.3
-8 18 12 14 8.1
-18 8 -12 25.9 10.3
-11 18 12 56.89 10.4
-18 11 -12 75.29 17.6
11 -18 12 59.19 11.4
11 7 -12 65.99 11.9
18 -11 -12 38.4 7.6
-18 11 12 59.39 12.6
11 -18 -12 31 8.7
18 -7 -12 53.69 10.6
18 -11 12 36.1 9.9
12 6 -12 7.9 8.2
-18 12 -12 16.6 9.5
-6 18 -12 26 11.3
12 -18 12 9.5 5.1
18 -6 12 2.3 8.2
-12 18 12 7.5 8.6
18 -12 -12 3.7 5.4
-18 12 12 11.7 11.5
18 -6 -12 7.1 6.5
12 -18 -12 6 7.5
18 -12 12 -4.9 8.7
-5 18 -12 27.2 9.8
18 -5 12 13.2 7.2
18 -13 -12 0.8 4
-13 18 12 5.8 8.5
13 5 -12 12.8 7.8
13 -18 12 8.7 5.2
-18 13 -12 19.1 9.7
18 -13 12 8.6 8.2
-18 13 12 18.8 10.9
18 -5 -12 12.9 6.1
13 -18 -12 13.9 7.6
0 0 13 -3.5 17.8
0 0 13 -10.6 18.7
0 0 -13 15.3 14.7
-1 1 13 59.89 22.7
1 0 13 16.1 20.2
-1 1 13 25.9 15.5
1 0 13 42.7 22.8
1 0 -13 47.8 16
0 1 13 24.8 20.3
1 -1 -13 45 15.4
-1 0 13 60.89 22
1 -1 13 25.5 22.1
-1 0 -13 43.8 14.4
-1 0 13 29.6 18.5
0 -1 -13 31.4 13.6
0 -1 13 18.7 21.4
1 -1 13 25.8 20.6
0 -1 13 23.7 20.5
-1 1 -13 35.5 15.2
0 1 -13 39.2 16.3
0 1 13 14 15.6
-2 1 13 125.19 25.9
1 -2 13 96.89 24.7
-1 -1 -13 121.89 25.9
-1 2 13 139.99 26.7
1 -2 -13 118.49 28.2
1 1 13 115.99 25.7
-1 2 -13 133.29 31.4
1 1 -13 125.09 29.7
2 -1 -13 103.49 18.2
2 -1 13 67.49 22.8
-1 -1 13 92.29 24
-1 -1 13 127.59 25.6
2 -1 13 94.39 25.6
-2 1 -13 137.59 26.9
1 -2 13 110.09 26.3
2 0 -13 13.4 14.5
2 0 13 3 19.3
0 2 13 11.7 19.3
-2 2 13 20.9 21.5
0 2 -13 14.3 16
0 -2 -13 8.6 12.9
-2 2 -13 12 14.6
2 -2 13 -2 20.1
0 -2 13 16.6 20.6
0 -2 13 -2.4 19
-2 0 -13 20.6 11.3
-2 2 13 1.3 14.3
0 2 13 6.5 11
2 -2 13 -12.6 19.8
2 0 13 10.2 21
-2 0 13 6.3 16.5
2 -2 -13 15.5 14
-2 0 13 7.3 22.2
-1 3 -13 104.29 25.2
-3 1 13 92.69 23.2
1 -3 -13 59.89 15.5
-1 -2 13 78.29 23.8
2 -3 13 55.29 23
2 -3 13 87.39 23.9
1 2 13 84.39 22.1
3 -1 13 70.59 24.2
3 -2 -13 98.89 17.4
-1 -2 13 49.6 20.1
-2 3 13 95.39 24.2
-1 3 -13 67.89 17.3
2 1 -13 67.39 16.1
-2 3 -13 117.19 27.9
2 1 13 50.19 18.7
2 -3 -13 118.39 27.9
2 1 13 86.99 23.9
1 -3 13 54.39 22.7
-2 3 -13 63.59 17
-3 1 -13 109.49 19.4
1 2 -13 83.29 17.8
1 -3 13 90.99 23.5
3 -2 13 87.39 25.4
3 -1 -13 92.59 17.1
-3 2 13 101.09 24.9
-2 -1 13 69.59 22.3
-2 -1 13 116.09 25.9
-1 3 13 81.19 22.4
-3 3 13 170.78 31.3
0 3 13 136.69 26.3
-3 0 13 156.88 29.9
0 -3 13 132.09 26.4
-3 3 -13 191.08 34.1
-3 3 -13 183.88 31.6
3 -3 -13 171.08 30.4
3 0 13 125.89 27.6
0 -3 13 113.39 24.6
3 0 -13 176.38 31
0 3 -13 135.99 31.8
3 -3 13 138.49 27.5
0 -3 -13 157.68 28.4
-2 4 -13 65.89 26.3
4 -2 13 17 22.5
2 -4 -13 43.9 15.6
-2 -2 13 45.9 20.6
2 -4 13 36.7 22
2 2 13 18 18.5
-4 2 13 41.3 21.9
2 2 -13 41.5 16.9
-2 4 -13 38.7 17.2
2 -4 13 7 19
2 2 13 13.3 12.4
4 -2 -13 46.4 15.4
-4 2 -13 63.99 14.6
-2 -2 13 19.9 18.6
-2 4 13 44.5 20.2
-1 4 -13 38.3 16.8
1 -4 -13 31.9 14
-1 -3 13 4.8 17.7
4 -3 -13 42.4 14.9
-4 1 13 65.29 23.5
4 -1 13 17 21.9
1 3 13 39.2 20.2
3 -4 13 19.3 21.8
3 1 -13 41.9 15.4
-3 4 13 62.89 22.3
-1 -3 13 47.4 20
-3 4 -13 74.69 25.4
4 -1 -13 47 15.3
-1 -3 -13 29.1 10.2
-3 -1 13 33.5 20.2
1 -4 13 32.8 21.1
1 3 -13 79.19 24.1
3 -4 -13 58.99 15.5
3 1 13 36.8 21.7
4 -3 13 20.6 21.7
-1 4 13 60.49 21.9
1 -4 13 44.2 22.6
-3 4 -13 55.39 17.1
1 3 -13 56.59 16.8
-4 3 13 48.8 21.2
-3 -1 13 46.4 21.9
3 1 13 34.2 16.7
4 -4 13 28.9 21.9
-4 4 -13 54.29 24.6
-4 0 13 50.49 22
4 0 -13 60.39 17
4 0 13 13.7 20.4
-4 0 13 14.5 15.7
0 4 -13 55.29 22.7
0 -4 13 37.4 20.7
0 -4 -13 23.5 12.9
-4 4 13 42.6 20.7
0 4 -13 30.4 15.9
-4 4 -13 57.89 16.6
4 -4 -13 50.69 15.6
0 4 13 45.9 20.9
2 3 13 210.08 33.1
-2 -3 13 236.68 35.3
-3 5 13 243.98 32.5
-2 5 -13 351.76 43.9
5 -3 -13 315.87 35.9
3 -5 13 223.68 34.5
3 2 -13 282.67 37
-5 2 13 286.77 36.4
2 -5 -13 279.37 32.8
5 -2 13 238.68 41
-2 5 -13 250.47 38.6
-3 5 -13 355.46 45.4
2 -5 13 230.88 36.8
5 -2 -13 292.07 35.7
5 -3 13 212.08 39.4
-5 3 13 306.17 36.7
3 2 13 216.88 34.7
3 -5 -13 297.77 34.9
2 -5 13 235.98 32
-2 5 13 252.67 34.1
-3 -2 13 232.98 35.8
2 3 -13 240.38 35.5
-3 5 -13 258.67 39.1
5 -4 -13 33.6 14.6
-1 -4 13 18.9 19.9
1 4 13 19.3 16.7
-1 5 -13 19.4 16.4
-4 5 13 43.3 20.9
1 -5 -13 28.3 14.3
4 1 -13 27.6 14.8
5 -1 13 18 22.1
-5 4 -13 39.3 11
4 -5 13 3.1 20.6
-5 1 13 31.8 20.7
-1 5 -13 75.59 27.7
-4 -1 13 12.9 16.7
-5 1 -13 65.19 20.7
-1 5 13 16.2 18.6
1 4 -13 60.19 24.4
1 -5 13 13.6 18.8
-4 -1 13 6.9 17.4
-4 5 -13 35.3 17.4
4 1 13 18.2 14.3
4 -5 -13 31 15
-5 4 13 41.6 20.1
5 -1 -13 39.1 15.3
-4 5 -13 25.2 24.1
5 -4 13 6 22.2
1 4 -13 24 15.8
5 -5 13 27.2 22.4
-5 5 -13 27.2 18.1
0 -5 13 45.6 18.7
5 0 -13 55.39 15.4
0 5 -13 58.49 17.1
0 5 13 33.5 14.8
0 -5 -13 42.6 12.1
0 5 -13 79.29 24.7
5 -5 -13 70.69 15.9
5 0 13 25.1 17.9
-5 5 13 72.19 21.4
-5 0 13 42.1 19.1
-5 5 -13 59.29 16.2
3 3 13 15.9 13.8
3 3 -13 42 16.3
-6 3 -13 77.79 24
6 -3 13 17.9 23.5
-3 6 13 33.4 17.8
3 -6 -13 39.2 14.8
3 -6 13 11.4 19.9
-3 6 -13 23 17.3
-6 3 13 49.8 19.9
-3 -3 13 23 20
-3 6 -13 43.4 26.7
6 -3 -13 50.19 15.2
-2 6 -13 139.19 30.4
6 -2 13 65.09 23.9
6 -4 -13 136.19 30.1
-2 6 -13 82.09 19.5
4 -6 13 118.09 25.3
2 -6 -13 123.19 27.3
4 2 -13 124.39 29.3
-6 2 13 98.29 22.2
-4 6 13 112.89 22.8
-2 -4 13 132.69 24
4 -6 -13 123.89 28.5
-6 4 13 115.89 24.6
4 2 13 71.89 19
-4 -2 13 78.39 21.8
-4 6 -13 155.18 32.4
-6 2 -13 196.08 40.5
-4 6 -13 129.29 21.9
2 -6 13 85.59 23
6 -4 13 97.69 27
2 4 -13 115.39 26.4
6 -2 -13 146.39 28.9
2 4 -13 119.79 19.6
5 -6 13 58.29 22.9
-5 6 13 69.79 19.8
6 -5 -13 82.19 16.6
-1 6 -13 106.09 29.1
5 1 -13 76.29 17
6 -1 13 57.09 23.7
-1 -5 13 44.5 18.6
-6 1 13 63.99 20
-1 6 -13 87.59 19.5
1 -6 -13 70.49 15.5
1 5 -13 97.39 25.2
-6 5 13 89.19 22.5
1 -6 13 67.09 20.1
6 -5 13 78.99 23.6
-5 -1 13 50.19 17.7
-5 6 -13 91.19 20.2
6 -1 -13 129.59 29.6
-5 6 -13 97.19 25.6
1 5 -13 77.79 18.2
5 -6 -13 118.19 27.9
6 0 -13 150.08 31.2
-6 6 13 145.09 28.8
-6 6 -13 147.89 29.5
0 -6 13 102.59 22.8
6 0 13 63.89 20.2
0 6 -13 174.58 32.4
6 -6 -13 162.38 29.7
6 -6 13 119.99 27
0 -6 -13 92.29 19.8
0 6 -13 114.59 20.2
-3 7 -13 13 27
-3 7 -13 28.7 15.3
-3 -4 13 -4.1 18.4
-7 4 -13 38.8 22.5
7 -4 -13 2.9 8.2
3 -7 -13 8.1 13.6
-4 7 13 -10.9 14.5
3 4 13 -26.2 14.5
4 3 -13 16.1 15.5
7 -3 13 -15 22.5
-3 7 -13 -13 16.4
-7 3 13 25.9 19.7
4 -7 13 -14.5 19.8
7 -4 -13 17.9 14.7
-4 -3 -13 13.2 11.8
-4 7 -13 -0.2 17.6
4 -7 -13 21.3 14.5
3 4 -13 10.5 15.2
7 -3 -13 24 14.8
-4 7 -13 31.8 28.7
-4 7 -13 43.6 21.7
7 -4 13 5.4 22.1
-7 3 -13 51.29 23.1
3 -7 13 -2.2 19
-7 4 13 26.1 18.7
-4 -3 13 2.5 18
-2 7 -13 137.89 32.4
7 -5 -13 61.19 11.7
-7 2 13 70.99 18.5
-5 7 13 70.89 19.3
-2 7 -13 107.89 20.5
-2 -5 13 63.29 19.1
5 2 -13 92.49 17.3
7 -2 13 51.79 24.1
2 -7 -13 76.19 15.6
5 -7 13 69.09 22.2
2 5 -13 117.49 27.9
2 5 -13 67.49 17.3
-7 2 -13 131.59 25
-5 -2 13 45 17.6
-5 7 -13 92.79 21.2
7 -5 13 75.09 25.7
-7 5 13 105.69 23.5
-5 7 -13 130.89 26.5
5 -7 -13 110.49 17.9
2 -7 13 59.69 20.7
7 -2 -13 123.59 29.6
-5 7 -13 79.49 24.2
-1 -6 13 37.2 18.7
-6 7 13 39.9 17.8
7 -6 -13 45.4 14.8
6 1 -13 52.39 15.6
-7 6 -13 73.39 24.1
7 -6 -13 31.5 10.7
1 -7 -13 32.9 12.9
6 -7 13 27.2 20.9
-6 -1 -13 67.79 19.1
-1 7 -13 12.3 16.8
7 -1 13 14.6 19.2
-1 7 -13 61.89 27
7 -1 -13 45.1 14.9
-6 7 -13 -6.5 14.4
-6 -1 13 9.3 10.1
1 6 -13 49.6 17.3
-6 7 -13 59.19 18.4
6 -7 -13 25.6 8.7
7 -6 13 23.3 21.7
1 -7 13 20.4 16.7
7 -1 -13 18.7 8
1 6 -13 55.59 25
6 1 13 17.4 14.3
-7 6 13 41.6 20
0 7 -13 102.29 19.4
0 -7 13 90.99 20.8
7 -7 -13 100.09 18.3
7 -7 13 121.09 25.8
-7 7 13 79.89 19.5
7 0 -13 144.89 29.4
7 0 -13 71.59 14.6
0 -7 -13 76.39 17.7
0 7 -13 135.59 29
-4 8 -13 64.59 20.8
-8 4 13 67.19 20.6
8 -4 -13 72.99 12.9
-4 8 13 31.4 21.4
-4 8 -13 64.59 17.5
8 -4 13 43.9 22.5
4 -8 13 51.89 20.3
-8 4 -13 96.59 25.2
-4 -4 13 53.39 18
8 -4 -13 67.49 16.1
-4 8 -13 76.69 28
4 4 -13 73.09 17.6
4 -8 -13 83.89 16.7
-5 8 13 97.59 24.8
5 -8 13 107.49 22.7
8 -3 13 72.89 26.5
-3 -5 13 82.19 20.3
-5 -3 -13 107.99 21.2
8 -5 -13 89.59 19.8
-3 8 -13 126.69 30.5
5 3 -13 153.78 31.2
-8 3 13 60.79 18.4
3 -8 -13 123.19 28.4
8 -5 13 82.19 24.3
8 -3 -13 117.29 20
-5 8 -13 112.69 25.6
-5 8 -13 177.38 40.6
5 -8 -13 135.89 29.4
-5 8 -13 146.89 23.5
-5 -3 13 69.79 18.9
3 5 -13 102.69 18.8
-8 5 13 119.49 25.2
3 -8 13 88.19 19.9
-8 3 -13 157.68 26.5
2 -8 -13 172.08 30.4
6 -8 13 185.18 31.3
-6 -2 -13 209.78 30.3
-2 8 -13 249.48 42.6
-8 6 -13 239.18 45.8
6 2 -13 258.57 34.1
8 -6 -13 190.68 23.6
8 -6 -13 252.07 32.5
-2 -6 13 148.79 30
-2 8 -13 170.88 25.2
-6 8 13 187.48 36.3
-6 8 -13 226.38 41.4
2 -8 13 185.18 29.8
6 -8 -13 217.08 32.2
8 -6 13 167.98 30.2
2 6 -13 164.48 30
-6 8 -13 253.17 44.5
6 -8 -13 160.28 20.9
-8 6 13 195.58 29.9
2 6 -13 209.48 34.4
8 -2 -13 176.98 23
7 1 -13 29.8 14.4
-1 -7 13 12.5 15.7
8 -7 -13 28.5 12.1
-1 8 -13 26.9 23.7
-7 8 13 12.5 21
7 1 -13 14.2 8
-1 8 -13 16.7 17.1
8 -7 -13 44.6 15.4
-7 -1 -13 37.4 16.8
-8 7 -13 51.79 24.1
7 -8 13 12.5 15.7
8 -1 13 9.8 14.7
-7 8 -13 36 24.5
-8 1 -13 33.3 21.5
1 -8 13 22.1 14.7
1 7 -13 34 17.3
-7 8 -13 26 16.9
8 -7 13 17.3 17.9
7 -8 -13 36.5 11.5
-8 7 13 7.1 15.9
1 7 -13 11.1 18.4
8 -1 -13 11.7 11.2
7 -8 -13 46.4 15.9
8 -1 -13 38.8 14.4
8 0 -13 3.6 11.7
8 -8 -13 8.1 11.9
0 -8 13 -1.1 11.1
8 -8 13 8.3 12.7
0 8 -13 -15 15.9
-8 0 -13 13.4 17.7
-8 8 13 -12.1 15.8
-8 8 -13 18.7 11.3
-8 8 -13 -3.2 22.1
8 -8 -13 3.6 14.3
0 8 -13 -5.1 17.4
8 0 -13 -1.1 11
8 0 13 18.8 21.9
-4 -5 13 204.38 30.1
-4 9 -13 292.07 40.9
-5 9 13 213.08 31
-4 9 -13 225.68 40.4
9 -4 13 246.08 37.2
-5 9 -13 180.38 33.4
-5 9 -13 237.68 30.4
-9 5 13 180.28 27.6
-5 9 -13 233.18 41
5 -9 -13 192.88 20.2
9 -5 13 211.38 34.4
-5 -4 13 202.58 27.8
6 3 -13 160.18 28.5
-6 9 13 65.99 20
-3 9 -13 89.19 26.9
9 -6 -13 123.99 22.3
-3 -6 13 113.99 22.8
9 -6 -13 154.88 29.2
3 6 -13 156.68 32.2
9 -3 -13 144.89 23
-6 9 -13 148.79 37.6
6 -9 -13 105.29 19.5
9 -6 13 86.99 23.5
-9 3 -13 167.38 39.3
9 -3 -13 167.48 28.6
-6 9 -13 154.08 24.5
-7 9 13 35.5 18
-9 7 -13 123.39 26.3
7 2 -13 61.79 13.7
-2 9 -13 72.29 23.7
-2 9 -13 75.29 19.7
-7 -2 -13 85.99 21.5
7 2 -13 120.49 24
9 -7 -13 118.69 28.1
7 -9 -13 89.39 19.4
9 -2 -13 102.49 24.6
-7 9 -13 132.29 26.9
2 7 -13 99.19 20.1
-7 9 -13 114.29 22
9 -2 -13 110.79 16.3
-9 2 -13 150.38 26
-9 7 13 167.48 30.3
9 -8 -13 223.08 25.7
-9 8 -13 181.18 44.5
8 1 -13 183.18 24.1
-1 9 -13 172.78 36.6
9 -8 -13 241.48 31.6
-9 1 13 217.58 30.5
-8 -1 -13 217.78 31.5
-9 8 13 221.38 32.9
9 -8 13 165.68 23
-8 9 -13 201.28 34.1
-8 9 -13 196.08 29.8
1 8 -13 156.28 34.6
8 -9 -13 173.38 24
9 -1 -13 139.49 23.8
-9 1 -13 219.58 38.6
-9 9 -13 115.79 18.2
-9 9 13 108.39 18.8
-9 9 -13 107.39 25.8
0 9 -13 90.29 20.3
-9 0 -13 73.29 19.1
9 -9 -13 77.39 14.2
10 -5 -13 251.97 31.2
-10 5 -13 234.68 43
5 5 -13 279.47 34.4
10 -5 -13 261.07 25.5
-5 10 -13 191.08 27
10 -5 13 158.58 25.7
5 -10 -13 191.48 22.1
-4 10 -13 97.09 20.7
4 -10 -13 60.59 11.7
-4 10 -13 17.6 18.6
4 6 -13 220.08 33.4
6 -10 -13 165.08 22.1
10 -4 -13 190.38 24.3
-10 4 -13 180.38 42.4
10 -4 -13 168.58 27.9
-6 10 -13 200.48 26.9
-10 6 13 222.58 33.4
-3 10 -13 151.28 35.5
7 3 -13 146.19 19.3
7 3 -13 122.69 16.1
7 -10 -13 159.38 21.4
-10 3 -13 163.38 41.3
-10 7 13 190.38 31.4
10 -3 -13 169.78 24.5
-7 10 -13 167.18 25.6
-7 10 -13 176.38 37.7
3 7 -13 198.28 32.7
-2 -8 13 0.4 9.3
-10 8 -13 25.1 21.4
-8 10 13 1.6 11.2
-8 10 13 43.1 16.5
-10 2 13 38.6 15.2
-2 10 -13 -0.2 15.7
8 2 -13 20.5 11.1
-2 10 -13 14.2 18.2
-8 10 -13 111.19 20.6
-10 2 -13 120.39 24.8
10 -2 -13 77.09 15
-10 8 13 96.59 17.8
8 -10 -13 105.99 21
-8 10 -13 85.29 24.2
2 8 -13 68.79 18.6
-10 1 13 26.4 10.6
9 1 -13 7.3 11.4
-9 10 13 32 15.5
-10 9 -13 5.4 20.1
-1 10 -13 -3.1 16.8
-9 -1 -13 6.9 9.8
9 -10 -13 10.5 11
-9 10 -13 0.7 20.2
-9 10 -13 23 12.7
-10 1 -13 18.5 18.3
10 -1 -13 5.7 12.4
1 9 -13 -1.9 16.2
-10 9 13 18.2 14.4
-10 10 -13 130.69 25.9
-10 0 -13 171.68 28.1
0 10 -13 193.08 24.7
10 -10 -13 184.98 22.7
-10 10 13 155.78 30.5
10 0 -13 165.48 24.4
10 -10 13 215.28 22.3
-11 6 -13 121.69 23.3
5 -11 -13 97.29 18.5
11 -6 -13 114.39 24.8
-5 11 -13 107.69 21.8
6 5 -13 96.09 17.7
11 -6 -13 106.49 20.9
-11 5 13 110.19 20.1
-11 6 13 103.19 19.2
6 -11 -13 89.99 19.2
5 6 -13 132.49 25.8
11 -5 -13 96.09 20.4
11 -5 -13 73.99 18.8
-6 11 -13 105.09 22.5
-11 5 -13 130.19 24.2
11 -7 -13 163.68 22.3
11 -4 13 150.38 17.9
-4 11 -13 165.98 24.5
-11 7 -13 181.98 26.8
4 -11 -13 120.39 17
-11 4 13 165.98 33.5
-7 11 13 160.98 28.9
4 7 -13 196.98 30.5
-11 7 13 162.28 28.7
-11 4 -13 173.38 27.2
11 -4 -13 165.78 22.9
-7 11 -13 131.39 23.5
7 -11 -13 163.38 22.2
11 -7 13 209.88 22.8
-8 11 13 12 15
-11 3 13 11.7 16
11 -8 -13 14.1 11.2
8 3 -13 -3.5 10.5
-11 8 -13 -10.5 17.8
11 -8 13 13.3 9.9
-8 11 -13 1.7 16.4
-8 11 -13 1 15
-11 3 -13 -11.2 20.1
-11 8 13 -6 13.6
11 -3 -13 -7.1 11.1
3 8 -13 -3.5 14.2
8 -11 -13 5.7 11.2
9 2 -13 94.89 20.5
11 -2 13 126.79 20.2
-11 2 13 180.68 25.3
-11 9 -13 129.09 23.9
11 -9 -13 143.19 21.4
-2 11 -13 171.98 24.2
9 -11 13 130.29 15.1
-9 11 13 125.49 20.1
9 -11 -13 153.98 21.4
-11 9 13 113.49 27.8
2 9 -13 130.89 32.2
11 -2 -13 110.89 22.1
11 -9 13 168.18 26.5
-9 11 -13 149.59 32.5
-9 11 -13 138.99 25.6
-11 2 -13 145.59 35
-1 11 -13 121.29 21.8
11 -10 -13 148.89 21.3
10 -11 13 184.48 21.7
-11 10 -13 161.28 25.4
10 1 -13 132.69 23.1
-10 11 13 152.18 21.5
-11 1 -13 115.59 28.9
1 10 -13 93.59 18.9
-10 11 -13 103.99 22.9
-11 10 13 66.79 16.6
11 -10 13 83.09 13.5
11 -1 -13 67.29 13.5
0 11 -13 115.19 20.1
11 -11 -13 146.29 19.2
-11 11 13 94.29 19.2
11 0 -13 125.69 21.1
-11 11 -13 97.09 22
11 -11 13 125.29 25
-6 12 -13 2.9 16.6
12 -6 -13 41.8 11.6
-12 6 13 17.4 17.2
-12 6 -13 29.3 18.2
12 -6 13 32.2 11.4
6 -12 -13 30.2 11.1
-12 5 13 12.3 17.9
7 5 -13 11.7 6.1
5 -12 -13 27.2 10.6
-7 12 13 4.4 6.5
12 -5 13 21.6 9.8
-12 7 -13 4.2 17.9
12 -7 -13 16.3 10.5
-12 5 -13 6.7 18.8
-7 12 -13 -19.4 16.1
7 -12 -13 23.4 11.8
12 -5 -13 20 10.4
-12 7 13 7.9 15.4
12 -7 13 2.7 10.7
5 7 -13 14.4 7.4
12 -8 -13 141.09 20.9
-4 12 -13 165.48 24.2
4 -12 -13 138.69 17.2
-8 12 13 160.88 26.6
-12 4 13 133.39 32.1
4 8 -13 187.48 25.3
12 -4 -13 135.69 21
-12 4 -13 166.78 38.8
-8 12 -13 126.29 22.1
8 -12 -13 164.88 21.8
-12 8 13 143.29 20.8
-3 12 -13 234.48 26.3
9 3 -13 137.99 22.8
12 -9 -13 208.18 21.7
-12 3 13 179.38 26.7
12 -3 13 213.58 22.1
-9 12 13 157.68 32.8
-12 9 -13 181.38 26.4
9 -12 13 169.68 18.6
3 9 -13 238.28 30.7
-12 3 -13 248.08 38.2
12 -9 13 158.68 21.1
12 -3 -13 195.48 23.6
-9 12 -13 206.88 34.2
-12 9 13 149.59 30.6
9 -12 -13 250.37 24.1
-2 12 -13 55.49 18.5
-10 12 13 48 18.3
10 2 -13 50.49 13.1
12 -10 -13 63.39 11.5
-12 10 -13 50.29 18.5
-12 2 -13 58.99 18.2
-10 12 -13 61.59 18.7
12 -2 -13 76.19 13.3
10 -12 -13 83.59 17.5
-12 10 13 34.7 16.1
2 10 -13 60.09 16.1
-1 12 -13 141.99 30.3
11 -12 13 122.99 23.9
12 -1 13 102.79 15.9
-12 11 -13 101.89 21.2
11 1 -13 129.69 21.2
12 -11 -13 146.99 18.2
-11 12 13 127.89 20.6
1 11 -13 116.59 28.1
-12 11 13 93.49 18.2
12 -1 -13 117.79 19
-11 12 -13 89.19 20.5
12 -11 13 87.29 14.8
11 -12 -13 128.99 18
12 0 -13 109.59 19.6
-12 12 -13 125.09 21.3
-12 12 13 77.19 17.2
12 -12 13 80.09 13.5
0 12 -13 115.59 18.8
12 -12 -13 129.99 17.2
6 -13 -13 12.3 10.4
13 -7 -13 6.6 9.9
-13 6 13 -14.7 15.8
-13 7 -13 -2.7 16
7 6 -13 3.3 4.8
13 -6 -13 -1 9.6
-13 7 13 -15.4 15.2
-13 6 -13 -15.6 17.3
7 -13 -13 8.6 11.3
-13 5 13 32.5 17.1
13 -5 13 34.7 12.4
5 -13 -13 53.29 10.8
8 5 -13 23.4 9.5
-5 13 -13 29 16.1
-13 8 -13 35 16.4
13 -5 -13 64.89 11.7
-13 8 13 65.69 17.4
-13 5 -13 98.09 21.5
8 -13 -13 77.29 13.5
-8 13 -13 74.89 18
13 -4 13 22.4 10.5
9 4 -13 12 11.1
-13 4 13 36.8 13.9
13 -9 -13 30.1 10
-4 13 -13 8.6 15.5
-13 9 -13 10.2 15.3
-13 4 -13 36.9 19.8
9 -13 -13 51.09 12.1
-9 13 -13 38.7 16
13 -4 -13 48.7 11
-10 13 13 101.99 25
13 -10 -13 81.89 16.2
13 -3 13 114.69 20
-13 10 -13 60.49 18.5
-3 13 -13 65.79 18.5
-13 3 13 102.99 14.1
10 -13 13 106.39 18.8
-13 3 -13 59.69 18.2
10 -13 -13 58.09 11.8
-10 13 -13 59.39 14.2
13 -3 -13 55.59 11.7
3 10 -13 74.99 16.8
11 2 -13 38.1 12.1
-13 11 -13 46.4 17.3
13 -11 -13 42.8 10
-11 13 13 27.1 14.5
11 -13 13 20.4 9.8
-2 13 -13 49.1 16.4
11 -13 -13 40.3 10.5
13 -2 -13 39.4 10.6
2 11 -13 38 11.6
-11 13 -13 28.9 10.4
-13 11 13 18.6 13.5
-13 2 -13 28.8 10.6
-13 12 -13 2.1 15.3
12 -13 13 -4.1 9.4
12 1 -13 1.2 10
-1 13 -13 9.2 13.7
-12 13 13 -0.5 13.3
13 -12 -13 8.2 8.8
13 -1 -13 -2.3 9.1
-12 13 -13 7.6 13.1
13 -12 13 -9.9 9.7
1 12 -13 7.6 12.1
-13 12 13 -12 12
12 -13 -13 14.1 9.2
-13 13 13 80.69 15.4
0 13 -13 127.99 23
13 0 -13 93.19 16.7
13 -13 13 63.19 11.3
-13 13 -13 91.99 17.4
13 -13 -13 99.69 15.2
-14 7 13 -6.6 13.1
7 -14 -13 6.1 10.7
14 -7 -13 16.8 9.2
-7 14 -13 -8.7 13.6
-14 7 -13 2 14.9
6 -14 -13 17.9 9.2
14 -8 -13 20.2 9.3
8 6 -13 8 6.1
-6 14 -13 -9.7 13.7
-14 8 -13 0.3 14.8
-14 6 13 0.2 13.6
14 -6 13 -18.5 11.2
-14 6 -13 4.9 16.1
14 -8 13 -17.6 11.2
-14 8 13 3.3 13.4
14 -6 -13 9.7 9.2
-8 14 -13 7.6 14.3
8 -14 -13 22.9 10.9
-14 9 -13 2.4 13.6
9 5 -13 2.9 9
-5 14 -13 -5.4 14.1
-14 5 13 2.6 11.2
14 -9 -13 10.5 9
5 -14 -13 14.9 8.3
9 -14 -13 13.6 10.4
14 -5 -13 14.2 9
-14 9 13 -6.8 12.3
-9 14 -13 11.3 14.5
-14 5 -13 11.6 19.4
14 -10 -13 69.49 10.7
-14 10 -13 64.39 16.6
-4 14 -13 71.79 17.1
14 -4 13 47.6 11.3
10 -14 13 68.89 14.4
-14 10 13 23.6 13.5
-10 14 -13 42.1 12.9
10 -14 -13 37.7 10.7
14 -4 -13 38.6 9.6
-14 4 -13 35.8 15.4
-14 11 -13 37.7 15
-3 14 -13 57.39 16.2
11 -14 13 49.5 9.6
14 -3 13 80.49 16.6
14 -11 -13 65.39 10.4
11 3 -13 37.9 11.8
-14 11 13 35.8 13.2
14 -11 13 37.2 11.5
-14 3 -13 42.9 11.2
12 -14 13 24.4 9
-12 14 13 37.2 9.9
-2 14 -13 45.3 14
12 2 -13 23.7 10.5
14 -12 -13 47.9 9.5
-14 12 -13 30.1 14.2
-14 12 13 39.3 13.3
14 -2 -13 54.69 10.8
12 -14 -13 43.7 10.4
13 1 -13 46.2 10.8
-1 14 -13 41.7 12.5
14 -13 -13 43.6 9
-13 14 13 45.6 12
-14 13 -13 34.2 14.1
-14 13 13 15.1 12.1
14 -1 -13 19.6 9.1
-13 14 -13 6.6 8
13 -14 -13 23.9 8.9
14 -13 13 5.4 8.3
14 0 -13 13.6 8.9
14 -14 -13 24.9 8.4
-14 14 -13 5.2 5.7
-14 14 13 14.6 10.5
14 -14 13 9.1 7.4
-15 7 13 1.9 13
-7 15 -13 14.9 13.2
7 -15 -13 19.1 10.3
-15 8 -13 11.2 13.5
8 7 -13 6.5 5.3
15 -7 13 -9 9.4
15 -8 -13 20.7 8.7
-15 7 -13 6.4 14.2
15 -8 13 -8.3 10.2
8 -15 -13 17.6 9.9
-15 8 13 10.3 13.2
-8 15 -13 28.8 13.3
15 -7 -13 22.7 8.7
-6 15 -13 47.6 15
-15 9 -13 48.5 15.5
-15 6 13 44.8 12.2
15 -9 -13 50.99 9.7
15 -6 -13 12.1 8.5
-15 6 -13 19.7 15
9 -15 -13 14.7 9.4
-9 15 -13 22.2 13.1
15 -9 13 -8.2 10.8
-15 9 13 5.3 13.1
-15 10 -13 58.69 14.9
10 5 -13 35.7 9.7
15 -5 13 31.9 9.5
-5 15 -13 65.19 15.2
-10 15 -13 45 13.1
15 -5 -13 32.9 9.3
-15 5 -13 40.3 15.3
10 -15 -13 32.5 9.9
-15 10 13 34.9 14
-15 11 -13 16.6 12.3
11 -15 13 9.8 5.9
-4 15 -13 14.1 13.5
11 4 -13 7.8 9.8
15 -4 13 13.9 7.1
15 -11 -13 14.2 8.2
15 -4 -13 15 8.5
11 -15 -13 12.5 9.1
-15 11 13 9.6 12.3
15 -11 13 -6.7 9.6
-15 4 -13 5.9 7.6
12 3 -13 8.8 9.5
12 -15 13 7.2 6.2
-3 15 -13 19.5 12.3
15 -12 -13 11.1 8.2
-15 12 -13 8.3 12.5
15 -12 13 14.7 9.2
12 -15 -13 27.9 9
-15 12 13 21.6 12.2
15 -3 -13 13.9 8.2
13 2 -13 12.6 9.8
13 -15 13 12.9 6.5
15 -13 -13 17.4 7.9
-2 15 -13 29.4 11.4
-15 13 -13 14.7 12.1
15 -2 -13 16.2 8.2
13 -15 -13 19 8.3
-15 13 13 13.3 11.6
15 -13 13 3 7.4
14 1 -13 -2.3 8.2
14 -15 13 9.7 5.3
-15 14 -13 5.3 5.6
15 -14 -13 5.8 7.7
15 -14 13 10.3 6.2
-15 14 13 6.1 10
14 -15 -13 4.3 7.7
15 -1 -13 11.1 8.1
15 0 -13 28 8.2
15 -15 -13 22 7.5
-16 8 -13 -3.5 12.3
-16 8 13 4.1 10.6
16 -8 -13 3.9 7.6
-8 16 -13 25.4 12.6
8 -16 -13 -3.5 8.4
16 -8 13 -15.2 8.9
-7 16 -13 39 13
16 -7 13 9 8.3
-16 7 13 18.9 10.8
16 -9 -13 16.4 8
-16 9 -13 24.8 13.1
9 -16 -13 9.2 9.1
-16 7 -13 17.3 13.9
16 -9 13 -1.6 9.3
-16 9 13 9.8 12.9
16 -7 -13 10.2 7.6
16 -6 13 85.89 16.3
-16 10 -13 91.69 22
16 -10 -13 80.39 13.4
16 -10 13 50.79 10.9
-16 6 -13 101.69 21.2
10 -16 -13 82.99 15.2
-16 10 13 68.99 14
16 -6 -13 80.59 13.4
11 5 -13 7.1 7
-16 11 -13 20.5 12.6
16 -11 -13 10.3 7.6
-5 16 -13 23.7 12.7
16 -5 13 14.9 5.6
-16 11 13 2.8 11.8
16 -5 -13 6.2 7.4
11 -16 -13 2.9 8.4
-16 5 -13 3.8 5.6
16 -11 13 -4.7 8.4
12 -16 13 53.09 8.6
-16 12 -13 67.89 13.5
12 4 -13 73.49 13.7
16 -12 -13 65.99 12.3
16 -4 13 71.39 10.3
16 -12 13 54.39 9.2
-16 12 13 57.29 13.2
12 -16 -13 64.19 13.3
16 -4 -13 69.89 13.2
13 3 -13 22.5 8.6
13 -16 13 37 7.9
-16 13 -13 22.2 10.8
16 -13 -13 28.5 7.6
16 -3 -13 32.8 7.7
13 -16 -13 37 8.4
-16 13 13 43.4 11.2
17 -8 13 19.4 6.4
-17 9 -13 11.5 11.3
17 -9 -13 9.5 6.9
-8 17 13 4.2 6.5
17 -9 13 18.9 6.6
-17 8 -13 14.3 10.9
-17 9 13 12.4 10.6
17 -8 -13 7.6 6.9
17 -7 13 63.39 12.1
-7 17 -13 108.39 22.7
-17 10 13 13.2 10.9
17 -6 13 54.19 8.3
-17 11 13 17.8 11.1
17 -6 -13 18.1 6.9
11 -17 -13 21.3 7.6
0 0 14 -0.1 11.8
0 0 14 -2.1 21.1
0 0 -14 3.9 14.4
1 0 -14 83.39 17.8
1 -1 14 41.1 22.5
-1 0 -14 77.29 17
1 -1 -14 79.69 17.5
-1 0 14 49.8 21.9
0 -1 -14 60.39 16.2
1 0 14 74.49 23.9
0 1 14 62.09 22.3
-1 1 -14 59.09 17
0 1 -14 82.49 18.3
0 -1 14 47.2 22.9
-1 1 14 73.39 24.3
2 -1 14 5.5 13.8
-1 -1 14 -1.8 10.7
1 -2 14 -5.8 16.3
-1 -1 14 9.4 20.3
-2 1 -14 30.8 16.6
-1 2 14 10.1 20.7
1 -2 14 2.8 19.4
-1 -1 -14 24.9 14.8
2 -1 -14 32 15.7
2 -1 14 17.4 21.2
1 -2 -14 27.5 14.7
-1 2 -14 13.2 15.4
1 1 14 9.9 20.8
-2 1 14 15.1 20.8
1 1 -14 28.4 16
2 0 -14 247.58 34.4
2 -2 -14 251.57 34
-2 2 14 219.58 32.1
0 2 -14 221.58 36.2
0 2 14 181.18 31.4
2 -2 14 161.58 30.7
0 -2 -14 288.37 33.3
0 -2 14 213.58 31.5
-2 0 -14 246.98 33.6
2 0 14 174.68 35.6
2 -2 14 231.28 36.5
-2 0 14 198.38 31.9
-2 2 -14 246.58 36.5
-2 -1 -14 58.39 14.9
2 -3 14 36.9 19.9
1 -3 -14 126.29 27.9
3 -1 14 46.6 23.3
2 1 -14 87.09 17.8
2 -3 14 71.79 22.5
1 2 14 58.99 20.2
3 -2 -14 83.89 17
-3 1 14 83.59 22.9
-3 2 -14 96.59 18.7
-1 3 -14 100.29 19.5
-2 3 14 62.89 20.6
2 -3 -14 70.09 15.8
3 -2 14 46.7 21.6
1 -3 14 49.2 20.3
3 -1 -14 68.89 15.9
-3 1 -14 51.09 14.5
-2 -1 14 41.1 17.9
-1 -2 -14 80.99 16.2
-3 2 14 67.69 22.4
3 -2 14 30.1 17
-1 3 14 68.79 22.3
1 2 -14 92.49 17.8
1 -3 14 43 18.2
2 1 14 52.89 21.5
3 -3 14 -3.8 19.7
-3 0 14 -4.8 16.6
-3 3 14 13.3 20.4
3 -3 -14 16.5 13.9
0 -3 -14 14.3 14.6
-3 3 -14 15.3 17.3
3 0 14 -3.3 19.3
3 0 -14 10.4 15.2
3 0 14 8.9 13.8
3 -3 14 -0.5 18.8
-3 0 -14 7.2 11.9
0 3 14 1.5 18.1
0 -3 14 -18.1 16.2
0 3 -14 13.2 16
2 2 -14 5.4 14.7
-2 -2 -14 1.8 11.6
-2 -2 14 0.5 12
-2 4 -14 11.7 16.6
2 -4 14 -14.2 13.1
4 -2 14 -18.1 18.6
4 -2 -14 23.6 15.4
4 -2 14 7.1 14.6
-2 4 14 -3.4 16.5
2 2 14 -4.4 14.5
2 -4 -14 25.3 14.8
2 -4 14 -0.1 16.8
-4 2 -14 15.5 13.2
-4 2 14 -7.7 17.9
4 -1 14 35.3 19.6
-4 1 14 37.1 18.5
3 -4 14 39 16.9
-3 4 14 39.6 19.8
-3 -1 -14 36.3 10.8
-4 3 -14 67.69 16.5
3 -4 14 40.9 21.1
3 1 -14 64.99 16.1
-1 4 -14 67.19 17.6
-1 -3 14 33.8 16.9
-4 3 14 49.4 21.4
-1 -3 -14 70.89 14.9
3 1 14 42.4 17.4
1 3 -14 78.49 17.6
1 -4 14 34.6 19.1
3 -4 -14 97.99 17.5
4 -1 -14 92.09 17.1
-3 4 -14 110.89 20.4
-4 4 -14 7.8 17.3
0 -4 14 -4 16
4 0 14 -3.8 15
0 -4 -14 6.2 13.1
4 -4 -14 15.3 14.9
4 0 -14 19.3 15
4 -4 14 -11.6 18.1
-4 0 -14 -4.7 6.1
0 4 -14 -0.2 15.8
-4 4 14 -5.3 17.2
3 2 -14 23.7 15.2
-2 -3 14 4.6 12.5
-5 3 -14 26.1 12
-2 5 -14 7.7 15.7
2 -5 -14 35.4 14.7
5 -3 -14 35.1 14.5
5 -2 14 12.6 14.6
3 -5 14 7 16.6
-2 5 -14 17.2 21.2
-3 5 -14 41.6 17.6
5 -2 -14 65.39 16.1
-3 5 -14 1.9 17.7
2 3 -14 26.5 15.4
-5 3 14 23 18.4
2 -5 14 22.6 17.1
3 -5 -14 47.2 14.6
5 -3 14 18.4 16.6
-2 -3 -14 24.3 10.2
-1 5 -14 93.49 19
-1 5 -14 109.19 26.6
5 -4 -14 140.29 30.1
1 -5 -14 96.09 17.8
-5 4 -14 132.39 30.3
4 1 -14 106.79 18.4
4 -5 -14 75.39 15.7
1 -5 14 29.6 17.8
5 -1 -14 65.89 15.8
1 4 -14 62.29 17.6
5 -4 14 30.4 17.2
-4 5 -14 56.09 18.5
-5 0 -14 58.09 19.1
-5 5 -14 9.1 15.8
5 0 -14 29 15
0 5 -14 16.9 15.6
0 -5 14 5.5 13.9
0 5 -14 21.9 19.4
5 -5 14 8.7 15.6
-5 5 -14 56.49 22.6
5 -5 -14 23.8 13.9
0 -5 -14 8.3 12.4
3 3 -14 56.69 16.9
6 -3 -14 64.49 15.8
-3 6 -14 33.2 17
3 -6 -14 65.99 16
6 -4 -14 7.3 13.7
-2 6 -14 -8.5 18.6
4 -6 14 -5 14.5
4 2 -14 2.8 15.3
6 -2 14 10.4 13.2
-2 6 -14 -8.6 14.9
-2 -4 14 -5 11.5
2 -6 -14 0.6 13.5
-6 4 -14 11.8 8.7
-6 4 -14 21.9 21.8
6 -2 -14 -4.9 6.1
-4 -2 14 -4.6 11.1
6 -4 14 9.1 16.1
2 -6 14 -5.4 13.1
2 4 -14 7.4 15.3
6 -2 -14 21.1 13.9
4 -6 -14 27.6 14.2
-4 6 -14 10.1 16.7
-6 5 -14 29 14
6 -5 -14 28.4 13.9
5 -6 14 10.8 14.4
-1 -5 14 5.5 10.8
-1 6 -14 10.8 15.7
-1 6 -14 1.5 17.3
-6 5 -14 55.49 22.7
-5 -1 -14 47.3 17.3
5 1 -14 19.4 14.5
1 -6 -14 10.4 12.6
-6 1 -14 55.69 20.5
6 -1 -14 43.6 15.2
-5 6 -14 15.2 17.4
1 5 -14 19 15.6
6 -5 14 7 15.3
5 -6 -14 21.4 14.4
1 -6 14 -4 11.4
-1 -5 -14 8 9.5
-6 6 -14 23 15.3
-6 0 -14 30.2 18.5
0 6 -14 4.4 15.2
-6 6 -14 44.8 23.2
6 -6 -14 20.7 13.7
6 -6 14 4.7 12.3
6 -6 -14 -6.9 5.8
0 -6 -14 2.8 11.3
0 -6 14 -4.3 9.9
0 6 -14 -15.8 15.5
6 0 -14 12.3 14.1
7 -4 -14 70.19 13.8
7 -3 -14 50.09 9.4
5 2 -14 28.7 15.4
5 -7 14 5.2 10.8
2 -7 -14 28 14.5
-2 7 -14 24.2 16.5
7 -5 -14 31.5 14.1
-7 5 -14 76.69 24.2
7 -5 14 4.2 12.6
2 -7 14 -0.5 9.9
-5 7 -14 23.5 21.3
7 -2 -14 12.5 13.9
7 -2 -14 -5.5 6.2
2 5 -14 -3.1 15.3
5 -7 -14 14.3 13.4
-7 2 -14 24.5 20.3
-5 7 -14 -3.9 17.2
-2 -5 -14 -6.2 6.5
1 -7 -14 62.59 13.9
7 -6 -14 89.39 16.5
-6 7 -14 217.88 44
7 -1 -14 224.58 31.5
-6 7 -14 209.88 34.1
-7 1 -14 216.18 40.5
6 -7 -14 193.68 30.8
1 6 -14 150.88 32.7
7 -7 -14 148.09 28.8
-7 0 -14 150.98 37
7 0 -14 170.88 30.6
-7 7 -14 164.68 29
0 7 -14 140.89 21.2
-7 7 -14 146.29 28.3
8 -4 14 16.2 18.4
-8 4 -14 22.6 20.8
8 -4 -14 -0.7 10.1
4 -8 -14 -0.9 13.3
4 4 -14 13 15.2
8 -4 -14 16.4 13.4
-4 8 -14 -10.4 16.1
-4 8 -14 4.7 14.3
5 3 -14 29.9 15.4
8 -5 -14 36.6 14.5
-8 5 -14 44.4 22.8
-3 8 -14 1.6 16.1
8 -5 14 11.8 13.4
-5 8 -14 4 17.2
-5 8 -14 1 18.5
5 -8 -14 14.3 13.9
-8 3 -14 37.6 22.4
8 -3 -14 0.5 10
3 5 -14 8.1 15.3
8 -3 -14 18.3 13.8
8 -6 -14 61.29 12.9
8 -6 -14 68.69 15.4
-8 6 -14 99.59 25.7
6 2 -14 73.19 16.5
-2 8 -14 102.69 19.6
2 6 -14 55.29 16.9
-8 2 -14 92.59 22.9
8 -2 -14 73.29 15.6
-6 8 -14 81.29 23.7
8 -2 -14 41 11.1
6 -8 -14 48.4 9.8
-8 7 -14 17.8 7
7 1 -14 20.7 14.2
8 -7 -14 26.3 13.5
-1 8 -14 8.1 15.9
-7 -1 -14 22.7 15.3
8 -7 -14 18.3 10.9
-8 7 -14 33 23.3
1 7 -14 13.4 15.4
-7 8 -14 22.9 15
7 -8 -14 26.2 10.4
-8 1 -14 46.9 20.1
8 -1 -14 14.2 9.5
-7 8 -14 12.3 21.7
8 -1 -14 29.3 14.2
-8 7 14 48.8 16.3
7 -8 -14 22.3 13.5
8 0 -14 55.99 11.1
8 0 -14 59.99 14.5
8 -8 -14 77.99 12.9
-8 0 14 55.49 13.9
-8 0 -14 61.89 18
0 8 -14 91.19 18.5
-8 8 -14 77.09 24.2
-9 5 -14 -12.2 21.2
5 4 -14 1.1 14.8
-9 4 14 9.8 16.3
9 -5 -14 8 13
9 -5 -14 -3.2 10.1
9 -4 -14 -6.7 10
-9 5 14 15.6 16.2
5 -9 -14 -1 4.9
9 -4 -14 3 13.2
4 5 -14 3.2 14.7
-9 4 -14 -14.6 20.7
-5 9 -14 -3.2 12.6
6 3 -14 18 14.1
-9 3 14 34.9 17.1
9 -6 -14 10 10.8
9 -6 -14 14.6 13.2
-3 9 -14 -4.8 15.7
-9 6 -14 10.7 22.1
9 -3 -14 2.5 10.2
6 -9 -14 0.4 8.2
-9 6 14 13.2 15.1
3 6 -14 -2.6 15
-9 3 -14 -4.4 20.8
-6 9 -14 1.6 18.3
9 -3 -14 14.5 13
-6 9 -14 -14 16.5
9 -7 -14 19.2 11.2
-9 2 14 33.2 15.2
-2 9 -14 11 16.1
9 -7 -14 18.8 13.5
7 2 -14 29.9 13.2
-9 7 -14 8.1 22.6
-7 9 14 31.3 15.6
-7 9 -14 30.5 15.6
-9 2 -14 50.59 20.7
2 7 -14 33.8 15.7
9 -2 -14 24.5 11
7 -9 -14 27.9 10.4
-7 9 -14 24.6 20.7
9 -2 -14 34.6 13
-9 7 14 42.3 15
-9 1 14 44.4 14.1
-9 8 -14 49.1 23.9
-1 9 -14 47.8 16.9
-8 9 14 57.99 16
-8 -1 -14 43.4 14.7
8 1 -14 25.4 10.1
8 1 -14 34.9 8.9
-9 8 14 49.9 15.4
-9 1 -14 51.59 19
9 -1 -14 27.8 11.2
9 -1 -14 30.7 10.7
1 8 -14 38.7 15.8
-8 9 -14 51.39 14.3
8 -9 -14 43.5 11.3
-8 9 -14 35.6 22.1
-9 9 -14 9.3 21.2
-9 0 -14 24.1 15.3
9 0 -14 9.6 10
-9 9 14 22.8 14
9 -9 -14 37.9 11.7
0 9 -14 20.9 15.7
10 -5 -14 3.1 12.3
10 -5 -14 9.8 11.2
-10 5 -14 -10.4 20.2
-10 5 14 3.7 14.9
5 5 -14 4.6 14
5 -10 -14 3.1 5.5
-5 10 14 10.1 12.4
-6 10 14 18 14.4
-10 6 -14 0.9 21
10 -6 -14 8 12.5
-4 10 -14 -7.4 15.7
-10 4 14 31.2 16.6
6 4 -14 30.7 13.3
10 -6 -14 26.7 11.7
-10 6 14 26.2 15.3
10 -4 -14 19.7 12.1
-6 10 -14 2.5 16.6
10 -4 -14 18.9 11.4
4 6 -14 17.9 14.6
6 -10 -14 25.3 9.6
-10 4 -14 20.5 21.1
-10 3 14 86.09 18.2
10 -7 -14 79.29 13.4
7 3 -14 48.8 11.1
-3 10 -14 79.29 19
-7 10 14 72.89 17
-10 7 -14 50.99 23.4
-10 7 14 70.49 16
3 7 -14 64.39 17
10 -3 -14 40.3 11
-7 10 -14 69.39 18.3
-7 10 -14 62.09 18.2
7 -10 -14 63.29 11.9
10 -3 -14 38.8 11.9
-10 3 -14 66.39 22.2
-10 8 -14 -21.6 21.3
-10 2 14 13 14.1
10 -8 -14 11.8 11
-2 10 -14 -14.7 15.1
8 2 -14 -1.6 5.9
-8 10 14 4.9 14.2
-10 2 -14 12.7 19.6
-8 10 -14 -13.6 18.7
10 -2 -14 7 10.1
-10 8 14 13.7 14
2 8 -14 15.4 15
-8 10 -14 18.9 13.4
8 -10 -14 16.8 10.1
-10 1 14 31 8.8
-10 9 -14 19.2 21.6
9 1 -14 20.3 10
-1 10 -14 35.3 16.2
-9 10 14 23.4 14.2
1 9 -14 25.8 15.1
-10 1 -14 36.5 16.9
-10 9 14 36.4 14.7
-9 10 -14 14.9 20.3
9 -10 -14 43.1 11.6
10 -1 -14 25.7 10.5
-10 10 -14 9.1 20.3
-10 10 14 29 14.8
-10 0 -14 23.8 11.5
0 10 -14 34.6 15.4
10 0 -14 15.6 9.7
5 -11 -14 10.6 5.7
-11 5 14 34.2 15.8
-6 11 14 15.3 8.5
6 5 -14 21.6 8.1
-5 11 -14 9.8 15.9
-11 6 -14 19.6 20.4
6 -11 -14 37.8 9.7
-11 6 14 32.2 15.3
5 6 -14 38.8 12.8
-11 5 -14 33.5 21.5
11 -5 -14 26.7 11.2
11 -5 -14 21.9 9.2
-6 11 -14 26.9 17
-7 11 14 1 12.5
-11 7 -14 -24.8 18.9
7 4 -14 -5.5 5.2
11 -7 -14 -0.4 10.1
-11 4 14 -9.5 15.8
-11 4 -14 -7.2 19.4
-7 11 -14 -5.3 15.2
4 7 -14 13.9 13.6
11 -4 -14 7.1 10.7
-11 7 14 -4.6 13.3
7 -11 -14 8.9 10
11 -4 -14 1.4 4.5
-8 11 14 73.49 16.8
-11 8 -14 99.69 24.6
-3 11 -14 86.79 18.7
-11 3 14 71.09 16.8
11 -8 -14 84.59 18.4
3 8 -14 71.49 16.2
8 -11 -14 56.19 11.6
11 -3 -14 65.39 12.6
-8 11 -14 69.99 15.4
-11 8 14 74.09 15.9
-2 11 -14 66.79 17.6
-11 9 -14 36.1 21.1
-9 11 14 43 16.7
11 -9 -14 74.59 11.8
-9 11 -14 18 16.9
2 9 -14 39.3 14.6
9 -11 -14 36.7 11.5
-11 2 -14 34.9 16.8
11 -2 -14 29.2 11
-9 11 -14 35.7 11.2
-11 9 14 35.7 14.9
11 -10 -14 5.1 9.8
-1 11 -14 -9.8 14
-10 11 14 -17.2 14.4
10 1 -14 -6.6 9
-11 10 -14 -17 18.4
-10 11 -14 -13.2 17.8
10 -11 -14 9.7 9.8
1 10 -14 10.1 13.5
11 -1 -14 -1.8 10.4
-11 10 14 -14.5 14.3
-11 1 -14 9.4 12.1
0 11 -14 -11.2 12.9
11 0 -14 -8.2 10.2
11 -11 -14 6.7 9.2
-11 11 -14 -12.8 16.8
12 -6 -14 19.6 9.9
6 -12 -14 10 8
-12 6 14 -3.6 15.8
-6 12 -14 -20.4 14.3
-12 6 -14 -15.3 18.3
-5 12 -14 35.3 16.1
5 -12 -14 38.6 8.7
-12 7 -14 68.09 21.3
-12 5 14 42.8 17.8
-12 7 14 73.59 18.2
-7 12 -14 87.39 17.6
12 -5 -14 75.69 12.3
7 -12 -14 78.69 16.7
-12 5 -14 65.39 20.9
-12 4 14 74.29 16.3
12 -8 -14 105.99 16.7
-12 8 -14 76.79 21.8
-4 12 -14 120.09 19.4
-12 8 14 37.2 15.8
-12 4 -14 84.39 19.9
8 -12 -14 71.59 11.9
-8 12 -14 65.49 15.9
4 8 -14 46.1 10.8
12 -4 -14 58.59 11.5
12 -9 -14 0.8 9.1
-3 12 -14 -14.7 14.2
-9 12 14 -1.5 13.5
9 3 -14 -0.6 5.6
-9 12 -14 15.6 10.8
-12 3 -14 -10.4 16.2
12 -3 -14 -2.2 9.4
9 -12 -14 9 10.7
3 9 -14 4.9 10.9
-12 10 -14 29.2 18.5
-2 12 -14 46.9 15.5
12 -10 -14 56.49 10.5
-10 12 14 36.5 15.5
10 2 -14 32 9.3
12 -2 -14 13.9 9.8
2 10 -14 30.8 12.4
-12 10 14 2.5 13.4
-10 12 -14 5.6 8.9
10 -12 -14 27.4 10.2
-12 2 -14 21.1 12.7
-1 12 -14 54.39 14.3
12 -11 -14 43.1 9.9
11 1 -14 24.2 10.1
-12 11 -14 44.7 17.7
1 11 -14 26.1 12.3
-12 11 14 0.8 12.7
12 -1 -14 25.2 10.3
-11 12 -14 13.7 13.1
11 -12 -14 21.7 9.5
12 0 -14 -7.7 9.2
-12 12 -14 -4.3 14.2
-12 12 14 -9.5 10.7
0 12 -14 2.6 11
12 -12 -14 4.6 8.4
6 -13 -14 47.4 9.9
13 -7 -14 36.1 9.6
-13 7 -14 27.8 19
-6 13 -14 10.4 14.2
-13 6 14 19.8 14.6
-13 6 -14 13.7 17.3
-5 13 -14 -11.2 13.4
-13 8 -14 -15.9 16.4
13 -8 -14 10.5 9
-13 5 14 2.9 12.8
-13 5 -14 -6.6 16.6
8 -13 -14 15.7 9.9
-8 13 -14 3.9 13.1
13 -5 -14 2 9.1
13 -9 -14 231.68 20.9
-13 4 14 210.58 21
-4 13 -14 233.58 32.6
-13 9 -14 170.78 32.5
9 -13 -14 194.08 20.2
-13 9 14 113.69 25.8
13 -4 -14 166.08 19.6
-9 13 -14 203.18 25.2
-13 4 -14 187.48 32.3
-13 10 -14 54.89 17.8
13 -10 -14 55.09 10.1
-3 13 -14 49.9 14.1
-13 3 -14 22.6 12.2
13 -3 -14 24.8 9.3
-13 10 14 18.3 12.4
10 -13 -14 39.1 10.2
13 -11 -14 2.9 8.2
-13 11 -14 -12.3 14.5
11 2 -14 -6.4 7.7
-2 13 -14 -0.9 12.1
11 -13 -14 1.6 9
13 -2 -14 -1.5 8.6
2 11 -14 11.2 4.9
12 1 -14 46.6 10.2
-12 13 14 42.9 10.2
-1 13 -14 41.8 12
13 -12 -14 49.6 9.6
-13 12 -14 50.89 15
13 -1 -14 20.1 9
-13 12 14 18.3 11.6
12 -13 -14 20.3 9.2
1 12 -14 14.2 5.7
-13 13 -14 1.4 6.5
13 -13 -14 4.1 7.8
-13 13 14 10.9 8.9
0 13 -14 10.9 4.8
13 0 -14 -3 8.1
-7 14 -14 11.3 12.5
-14 7 14 -2.9 12.3
-14 7 -14 -8.1 15.1
14 -7 -14 6.3 8.1
7 -14 -14 20.4 6.8
-6 14 -14 90.19 15.6
-14 6 14 59.99 13.8
14 -8 -14 74.29 14
-14 8 -14 69.49 17.9
-14 6 -14 98.89 18.9
8 -14 -14 103.29 16.2
14 -6 -14 78.39 15.3
-8 14 -14 99.39 24.2
-14 9 -14 121.89 19.9
-5 14 -14 137.89 26.2
14 -9 -14 107.69 15.6
14 -9 14 96.69 10
-14 9 14 80.79 15.1
-14 5 -14 83.79 17.6
9 -14 -14 95.19 15.9
14 -5 -14 67.69 14.8
-14 10 -14 79.19 17.1
-4 14 -14 103.19 24.7
14 -10 -14 77.29 13.9
-14 10 14 82.49 14.5
10 -14 -14 104.89 15.1
14 -4 -14 71.59 14.5
-10 14 -14 60.19 10.6
-14 4 -14 69.89 18.1
14 -10 14 83.19 9.7
14 -11 -14 40.2 8.7
-3 14 -14 44.4 12.6
-14 11 -14 21.2 14.9
-14 11 14 10.6 12.1
14 -3 -14 14.7 8.5
11 -14 -14 26.2 8.9
-14 12 -14 43.3 13.6
14 -12 -14 76.29 12.6
12 2 -14 50.09 10.3
14 -2 -14 38.2 8.5
12 -14 -14 36.4 8.9
-14 12 14 37.5 11.8
14 -13 -14 29.4 7.8
13 1 -14 18.3 6.3
-14 13 14 56.39 14.4
13 -14 -14 51.49 8.8
14 -1 -14 46.6 8.1
-15 7 14 47.7 11.1
15 -8 -14 49.4 8.8
-15 8 -14 53.89 15
15 -7 -14 75.09 13.7
8 -15 -14 93.39 10.9
-15 8 14 57.99 13.8
-15 7 -14 81.79 16.7
-15 9 -14 31.3 13.9
15 -9 -14 21.7 7.7
9 -15 -14 55.59 12.1
-15 6 -14 30.3 13.7
-15 9 14 23.4 12.4
15 -6 -14 30.9 8.2
15 -10 -14 121.59 14.2
-15 10 -14 119.99 22.9
10 -15 -14 141.09 15.7
15 -5 -14 128.59 14.8
-15 10 14 143.69 20.8
15 -11 -14 88.79 13.2
-15 11 -14 93.69 21.6
11 -15 -14 71.79 12.9
15 -4 -14 68.49 12.5
-15 11 14 72.89 18.3
0 0 -15 5.1 14.5
1 -1 -15 241.88 35
-1 1 -15 251.17 35.5
-1 0 -15 237.68 35
1 0 -15 220.88 35.1
0 1 -15 247.98 36.1
0 -1 -15 265.27 35.4
1 1 -15 103.99 18.4
2 -1 -15 119.09 18.6
-1 -1 -15 129.29 30.8
-2 1 -15 138.69 31.1
-1 2 -15 96.49 19.2
1 -2 -15 83.69 17.6
0 -2 -15 39.9 15.3
2 0 -15 23.9 14.5
2 -2 -15 36.6 15
-2 2 -15 34.3 16.4
0 2 -15 42.3 16.2
-2 0 -15 23.1 14.5
-3 2 -15 3.4 14.6
3 -2 -15 8 13.4
1 -3 -15 9.1 14.1
-2 -1 -15 10.9 13.3
-1 3 -15 -13.1 15.6
2 1 -15 9.5 14.1
3 -1 -15 8.4 13.7
1 2 -15 2.4 14.4
-2 3 -15 15.3 16.5
2 -3 -15 15.7 14
-1 -2 -15 10.5 13.1
-3 1 -15 16.9 13.9
0 3 -15 17.2 15.6
-3 0 -15 5.9 12.9
0 -3 -15 29.7 14.7
3 0 -15 9.7 13.8
-3 3 -15 7.6 17
3 -3 -15 22.5 13.8
4 -2 -15 11.1 13.5
2 2 -15 0.4 14.2
-4 2 -15 6.4 13.3
2 -4 -15 5 13.5
-2 4 -15 4.9 16.3
-2 -2 -15 -4.4 11.8
4 -3 -15 262.57 32.6
-1 4 -15 211.38 36.6
-3 -1 -15 183.38 26.9
3 1 -15 242.08 33.7
-4 3 -15 255.47 34.1
1 -4 -15 247.88 32.6
-4 1 -15 242.78 30.2
-3 4 -15 300.57 39.7
3 -4 -15 299.47 33.9
-1 -3 -15 244.38 31.2
1 3 -15 259.87 37
4 -1 -15 283.57 35.1
4 0 -15 124.19 29.5
-4 4 -15 149.59 33.2
4 -4 -15 130.19 27.9
0 4 -15 125.09 20.8
-5 3 -15 128.99 25.6
-2 5 -15 150.38 22.2
2 -5 -15 152.38 28.4
5 -3 -15 150.38 28.9
3 2 -15 144.39 31.1
5 -2 -15 119.69 29
-3 5 -15 126.39 21.5
-5 2 -15 181.78 34.9
2 3 -15 119.89 19.9
3 -5 -15 119.89 27.6
1 -5 -15 122.39 27.1
-5 4 -15 178.78 36.1
5 -4 -15 123.09 17.8
-5 4 -15 80.99 17.7
-1 5 -15 113.19 20
4 1 -15 101.69 18
-4 5 -15 112.29 20.7
4 -5 -15 115.99 27
5 -1 -15 123.69 28.9
1 4 -15 95.59 18.2
0 -5 -15 149.29 26.5
-5 5 -15 189.18 32.3
-5 5 -15 230.78 37.8
5 -5 -15 198.28 27.9
5 0 -15 195.48 31.6
0 5 -15 157.68 33
3 3 -15 -6.1 13.8
-3 6 -15 -15.8 15.8
-6 3 -15 13 19.4
3 -6 -15 4.4 12.8
6 -3 -15 13.1 12.9
-6 3 -15 -6.7 6
-6 4 -15 454.15 49.2
2 -6 -15 414.46 40.7
6 -4 -15 445.36 40.5
4 2 -15 440.36 44
-2 6 -15 410.26 45.4
-4 6 -15 457.25 46.3
2 4 -15 397.56 42.7
-6 2 -15 459.25 48.4
4 -6 -15 395.26 39.7
6 -2 -15 419.16 41.1
6 -5 -15 159.08 26.9
-1 6 -15 128.09 21.1
5 1 -15 165.68 28.3
-6 5 -15 186.38 39
-6 5 -15 150.68 26.4
1 -6 -15 107.79 25.1
5 -6 -15 182.48 27.3
-6 1 -15 181.18 35
-5 6 -15 193.28 34.9
1 5 -15 140.29 32.3
6 -1 -15 189.18 29.4
-5 6 -15 151.78 36.8
-6 6 -15 28.4 21
6 -6 -15 29 12.8
6 0 -15 24.2 13.5
0 -6 -15 10.8 10.9
-6 6 -15 21.9 13.6
0 6 -15 19.4 15.2
-7 4 -15 296.37 43
7 -4 -15 306.37 33.8
3 -7 -15 254.97 33.1
-3 7 -15 290.07 38.4
4 3 -15 313.17 36.5
3 4 -15 282.47 37.5
7 -3 -15 295.97 32.4
4 -7 -15 275.17 33.2
-4 7 -15 298.37 37.9
-7 3 -15 303.27 42.8
-2 7 -15 38.8 16.2
7 -5 -15 48.9 13.5
-7 5 -15 44.6 21.1
5 2 -15 39.3 14.4
7 -2 -15 82.79 15.3
5 -7 -15 67.69 14.2
-7 2 -15 72.19 21.3
-5 7 -15 58.39 18.4
2 5 -15 67.39 16.7
-7 6 -15 546.15 58.19
6 1 -15 678.43 51.09
7 -6 -15 558.54 49.6
-1 7 -15 570.44 52.99
-6 7 -15 663.03 54.79
1 6 -15 653.03 56.39
-6 7 -15 602.64 59.39
-7 1 -15 632.84 56.09
6 -7 -15 592.04 52.19
7 -1 -15 680.93 53.59
-7 7 -15 111.09 24.7
0 7 -15 109.79 19.9
-7 7 15 128.89 29
-7 7 -15 125.39 23.1
7 0 -15 132.19 26.8
4 4 -15 8.1 13.9
8 -4 -15 11.6 12.1
-8 4 15 17.7 15.4
-8 4 -15 6.4 18.9
-4 8 -15 -5.3 14.6
-8 5 -15 255.77 44.2
8 -5 -15 296.67 32.6
-8 3 15 328.47 37
5 3 -15 322.27 35.6
-3 8 -15 274.47 36.9
-8 5 15 370.66 39.6
3 5 -15 389.56 41.3
-5 8 -15 379.16 40.6
8 -3 -15 381.36 36.8
-8 3 -15 341.07 45.3
6 2 -15 252.07 30.5
8 -6 -15 215.38 28.5
-8 6 -15 152.58 39.2
-2 8 -15 177.98 32.4
-8 2 15 237.88 31.9
-6 8 15 219.08 30.9
-8 6 15 202.98 30
-6 8 -15 141.19 35.4
-8 2 -15 171.18 35.5
-6 8 -15 235.08 32.5
8 -2 -15 228.88 28.8
2 6 -15 225.88 32.2
-8 7 -15 133.19 25.2
-1 8 -15 127.29 20.1
-7 8 15 145.29 27.2
-8 1 15 143.39 24.5
-8 1 -15 140.49 33.3
-7 8 -15 157.58 26.8
-7 8 -15 185.38 27.5
-8 7 15 173.68 27.8
8 -1 -15 210.68 26.9
1 7 -15 155.18 32.4
-8 8 -15 155.38 37.6
8 -8 -15 156.58 17.1
5 4 -15 187.08 27.7
-9 4 15 153.58 29.2
-9 5 -15 177.48 26.7
-5 9 15 153.58 26
9 -5 -15 170.48 25.9
-4 9 -15 121.99 29.8
-9 4 -15 193.28 27.2
-9 5 15 168.68 28.4
-5 9 -15 155.68 31.4
4 5 -15 210.58 30.3
9 -4 -15 175.48 26.5
-9 3 15 3.2 15
9 -6 -15 -4.2 8.4
-6 9 15 -0.7 13.3
9 -6 -15 2 11.2
-3 9 -15 -19.1 13.5
6 3 -15 2.5 12.3
3 6 -15 -1.5 13.7
-9 3 -15 -22.2 17.6
-9 6 15 -4.6 13.3
9 -3 -15 2.9 11.3
-9 2 15 227.48 30
-7 9 15 270.07 31
9 -7 -15 261.37 24.6
7 2 -15 329.57 29.2
-9 7 -15 196.68 40.8
-2 9 -15 309.07 34.1
9 -2 -15 300.37 31.2
-9 2 -15 367.26 41.1
2 7 -15 372.86 38.1
-7 9 -15 326.57 34.1
-9 7 15 292.87 33.6
-8 9 15 124.79 24.1
-1 9 -15 122.79 28.1
-9 8 -15 150.08 25.3
9 -8 -15 106.49 16.6
-9 1 15 118.09 19.2
8 -9 -15 112.49 15.4
-8 9 -15 142.69 18.4
-9 8 15 135.59 25.1
1 8 -15 168.28 30.2
-8 9 -15 121.59 23.6
-9 1 -15 147.49 29.3
0 9 -15 -10.8 13.9
-9 9 -15 -24.6 18.3
-9 9 15 3.2 12.4
9 0 -15 -5.1 4.1
9 -9 -15 4.1 8.2
5 5 -15 9.3 12.4
-5 10 -15 -12.3 12.8
10 -5 -15 -9.3 8.4
-5 10 15 -6.1 6.9
10 -5 -15 5.1 10.4
-10 5 15 -5.1 13.4
-10 4 15 1.1 14.5
-4 10 -15 -8 12.9
-6 10 15 8 11.3
6 4 -15 1.5 8.8
10 -6 -15 -2.2 8.4
4 6 -15 -0.4 12.6
10 -4 -15 11.5 9.1
-6 10 -15 2.9 12.6
10 -4 -15 -4.3 8.1
-10 6 15 6.9 13.6
-10 4 -15 -20.3 17.6
-7 10 15 3 12.2
10 -7 -15 -1.5 7.9
-3 10 -15 -5.3 12.9
-10 3 15 19.5 14
-7 10 -15 30 13
10 -3 -15 13.7 8.3
-10 3 -15 24.2 17.9
-10 7 15 25.7 13.7
3 7 -15 39.6 14.1
-2 10 -15 -19.8 12.9
-8 10 15 -10.8 12
10 -8 -15 0.2 8.2
-10 2 -15 -14.2 16.8
-10 8 15 -9.3 12.8
2 8 -15 -4.2 13.1
8 -10 -15 1 6.6
-8 10 -15 5.2 8.7
10 -2 -15 -9.4 6.4
-1 10 -15 106.19 17.3
10 -9 -15 89.19 15.5
-10 9 -15 67.49 21.1
9 -10 -15 69.99 13.9
-10 1 -15 83.79 15.4
-9 10 -15 67.69 19.4
-10 9 15 87.39 16.7
1 9 -15 83.69 15.9
-10 10 15 97.29 24.6
10 -10 -15 142.49 16.7
0 10 -15 158.18 26.9
-10 10 -15 110.79 21.8
-11 5 15 -0.8 15.4
11 -6 -15 -0.8 9.2
-5 11 -15 -11.3 11.7
5 6 -15 4.5 6.1
-11 6 15 -10.4 14.1
-11 5 -15 -23.6 16.3
-6 11 -15 -8.9 11.8
11 -5 -15 1.6 8.9
-4 11 -15 -9.3 12.2
-7 11 15 21 7.3
11 -7 -15 9.7 9.5
-11 4 15 4 15.7
11 -4 -15 -1.6 8.5
4 7 -15 11.1 9.1
7 -11 -15 2.2 4
-11 4 -15 -22.8 16.6
-7 11 -15 11.2 11.4
-11 7 15 -9 13.8
-3 11 -15 -11.6 11.9
-8 11 15 6.4 10.6
11 -8 -15 0.7 8.9
3 8 -15 10.4 11
-11 8 15 -11.4 13.1
8 -11 -15 2.6 5.4
11 -3 -15 -3.4 7.7
-8 11 -15 16.4 8.9
-11 3 -15 -10.6 15.7
-2 11 -15 42.5 13.4
11 -9 -15 36.6 9.8
-9 11 15 28.2 12.4
11 -2 -15 22.1 7.4
2 9 -15 41.6 12.5
-11 9 15 17.6 13.9
9 -11 -15 31.6 7.8
-11 2 -15 20.5 13.1
-11 10 -15 -15.9 16.2
-1 11 -15 33.8 12.9
-10 11 15 13.2 12.7
11 -1 -15 6.5 5.2
-10 11 -15 8.7 9.7
1 10 -15 27.7 12
-11 10 15 7.5 12.9
-11 11 -15 -10.4 10.1
-11 11 15 1.3 11.6
11 0 -15 -4.9 3.5
0 11 -15 15.9 11.2
11 -11 -15 1.3 7.9
-12 6 -15 6.2 16.4
-12 6 15 4.2 14.1
12 -6 -15 22.1 9.1
-6 12 -15 23.9 11.7
-5 12 -15 1.4 11.3
12 -7 -15 8.1 8.5
-12 5 15 -4.5 13.1
-12 5 -15 -21.8 15.8
-12 7 15 -10.6 13.5
-7 12 -15 13.1 10.6
12 -5 -15 4 8.5
12 -4 -15 -6.8 7.9
8 -12 -15 4.3 4
-12 4 -15 -18.2 14.9
-8 12 -15 11.4 9
12 -9 -15 1.5 8.1
-3 12 -15 -1.3 11.5
12 -3 -15 3.3 7.5
3 9 -15 3.9 4.6
-12 3 -15 -2.3 11.6
9 -12 -15 8.6 5.4
-9 12 -15 8.7 4.1
-12 9 15 -16.3 11.8
12 -10 -15 17.4 8.1
-2 12 -15 18.2 12
10 -12 -15 20.3 6.5
-12 10 15 12 11.3
12 -2 -15 7.5 6
2 10 -15 6.1 4.8
12 -11 -15 53.59 11.3
-1 12 -15 57.19 11.9
-11 12 15 60.39 10.9
-12 11 15 32.1 10.7
11 -12 -15 28.6 6.9
1 11 -15 7.5 4.8
-12 12 15 48 11.6
-13 7 -15 -20.3 14.1
-13 6 15 17.4 10.2
-6 13 -15 14 10.6
13 -7 -15 2.9 7.6
-13 7 15 -0.1 11
-7 13 -15 8.5 9.5
13 -6 -15 9.1 7.7
-5 13 -15 -0.8 10.2
-13 5 15 9 5.5
13 -8 -15 -0.8 7.3
-8 13 -15 11.8 7.5
-13 8 15 -11.9 10.6
13 -5 -15 -7.7 7
13 -9 -15 -3.1 7.2
-4 13 -15 5.2 10.7
-13 9 15 -8.6 10.8
13 -4 -15 -3 6.4
-13 4 -15 -7.1 8.2
9 -13 -15 4.7 3.5
13 -10 -15 33.5 7.5
-13 10 -15 3.5 13.7
-3 13 -15 26.7 11
13 -3 -15 23.1 5.7
-13 10 15 27.8 11.3
0 0 -16 10.8 13.9
-1 1 -16 16.5 15
-1 0 -16 10.4 14.2
1 0 -16 17.2 13.6
0 1 -16 1.9 14.1
0 -1 -16 8.5 13.6
1 -1 -16 5.4 13.4
-2 1 -16 14.7 14.9
-1 2 -16 10.5 14.4
2 -1 -16 12.9 13.2
1 -2 -16 18.3 13.4
-1 -1 -16 11 14.1
1 1 -16 2.9 13.7
0 -2 -16 21.4 13.8
-2 0 -16 18.5 12.9
2 0 -16 35.7 13.8
2 -2 -16 32.4 13.4
0 2 -16 21.7 14.3
-2 2 -16 34.4 15.2
-3 2 -16 71.89 16.2
-1 3 -16 124.09 18.7
-2 -1 -16 76.89 15.4
3 -2 -16 130.09 26.7
2 1 -16 116.09 26.7
1 -3 -16 126.19 25.7
3 -1 -16 146.29 26.9
1 2 -16 139.59 30
-3 1 -16 111.59 26.6
2 -3 -16 152.48 27.4
-2 3 -16 143.89 32.1
-3 3 -16 18.5 15.4
3 -3 -16 27.5 12.5
0 3 -16 14.9 14.1
0 -3 -16 21.4 13.5
-3 0 -16 3.8 11
3 0 -16 20.1 13.1
-2 4 -16 1 14.2
2 -4 -16 12.8 12.1
-2 -2 -16 -11.7 9.7
2 2 -16 5.2 13.2
-4 2 -16 -3 11.2
4 -2 -16 16.5 12
-1 4 -16 294.77 35.5
-4 3 -16 268.77 32.6
1 -4 -16 279.87 32.4
4 -3 -16 289.17 31.9
3 1 -16 283.37 33.1
-3 4 -16 335.37 36.8
-1 -3 -16 235.78 30.5
4 -1 -16 308.37 33.2
3 -4 -16 324.67 33.2
1 3 -16 292.77 36.7
0 -4 -16 54.29 12.9
-4 4 -16 84.89 15.9
0 4 -16 76.39 16.3
3 2 -16 58.99 14.9
2 -5 -16 37.4 12.9
-2 5 -16 37.5 15.6
5 -3 -16 47.4 12.8
2 3 -16 54.79 15.4
5 -2 -16 98.39 23.3
3 -5 -16 101.79 22.6
-3 5 -16 73.89 17
1 -5 -16 9.3 12.1
-5 4 -16 23.9 11.2
4 1 -16 34.5 13.5
-1 5 -16 20.3 14.7
5 -4 -16 40.8 12.2
-4 5 -16 35.1 15.1
5 -1 -16 41.6 13.2
1 4 -16 34 14.7
4 -5 -16 35.7 12.4
-5 5 -16 58.89 14.5
0 -5 -16 42.2 11.6
5 -5 -16 97.79 21.6
5 0 -16 63.79 14.1
0 5 -16 74.19 16.5
6 -3 -16 132.39 24
3 3 -16 95.89 16.6
3 -6 -16 106.49 23.7
-3 6 -16 118.49 19.5
-2 6 -16 93.59 17.8
6 -4 -16 108.49 21.7
4 2 -16 75.69 15.5
-4 6 -16 65.39 16.9
6 -2 -16 101.09 23.7
4 -6 -16 119.29 22.3
2 4 -16 96.59 16.9
6 -5 -16 36.1 11.8
5 1 -16 32.3 12.6
-1 6 -16 32.9 15.3
5 -6 -16 51.89 12.5
-5 6 -16 34.9 12.9
1 5 -16 46.1 15.1
6 -1 -16 49.7 12.9
6 -6 -16 18.6 11
0 6 -16 11.9 14.5
-6 6 16 12.8 13.7
6 0 -16 9.2 11.7
-6 6 -16 7.8 8
-3 7 -16 3.6 13.7
7 -4 -16 23.5 11.3
-7 3 16 16.3 14.3
4 3 -16 19.1 12.9
3 4 -16 20.6 12.9
-7 4 16 19.5 14.1
7 -3 -16 23.3 11.2
-4 7 -16 21.6 13.8
7 -5 -16 11.3 10.3
-5 7 16 4.9 12.7
5 2 -16 1.3 12
-7 2 16 14.3 14
-2 7 -16 -4.7 13.2
-5 7 -16 -2.8 13.3
2 5 -16 -4.6 12.7
7 -2 -16 9.3 11.3
-7 5 16 9.4 13.5
-7 1 16 19.8 13.1
-6 7 16 13.7 12.3
6 1 -16 24.3 12.1
-1 7 -16 11.5 14.1
1 6 -16 17 13.4
-6 7 -16 17.8 10.2
7 -1 -16 25.1 11.5
-7 6 16 23.3 13.2
-7 7 -16 1.4 6.9
7 0 -16 18.7 10.6
-7 7 16 12.7 11.8
0 7 -16 12.3 13.7
4 4 -16 31 12.1
-4 8 -16 24.8 13.5
-8 4 16 28.8 14
-4 8 16 28.5 12.2
8 -4 -16 35.5 10.9
-8 3 16 1.6 13
8 -5 -16 15.3 10.4
-3 8 -16 -10.6 12.9
5 3 -16 11.3 12
-5 8 16 -9.1 11.2
-8 5 16 12.5 13.8
-5 8 -16 19.3 13.2
3 5 -16 24.7 12.8
8 -3 -16 22.8 10.8
-6 8 16 -0.8 11.6
6 2 -16 1.3 10.7
-8 2 16 0.4 12.8
-2 8 -16 -15.3 13
8 -2 -16 3.2 9.8
2 6 -16 -6.1 12.1
-6 8 -16 2.6 10.7
-8 6 16 0.5 11.8
-8 1 16 17.5 7.8
-7 8 16 19.9 11.9
7 1 -16 24 8.9
-1 8 -16 13.9 13.2
1 7 -16 33 13.4
8 -1 -16 29 8.7
-8 7 16 30.4 13
-8 8 16 6.6 12
0 8 -16 20.7 14.1
5 4 -16 11.7 10.2
-5 9 16 7.1 7.7
-4 9 -16 8.4 12.5
-9 4 16 8.9 13.2
-5 9 -16 6.9 11.9
9 -4 -16 13.9 8.9
4 5 -16 9.9 11.5
-9 5 16 6.1 13
-6 9 16 8.3 10.3
-9 3 16 12.4 13
-3 9 -16 7.7 13
6 3 -16 4.2 7.1
-6 9 -16 11.5 11.5
-9 6 16 -2 12.4
3 6 -16 12.8 12.2
9 -3 -16 12.1 6.9
-7 9 16 -3.6 10.7
-2 9 -16 -7.2 12.4
2 7 -16 21 12.2
-9 7 16 12 12.9
-7 9 -16 10.5 5.7
-1 9 -16 -4.1 12
-8 9 16 -10.9 11.6
-9 8 16 -9.3 11.9
1 8 -16 6.8 11.8
-9 9 16 8.2 12.6
0 9 -16 30.5 12.7
-10 5 -16 0 16
-10 5 16 30.7 14.9
-5 10 -16 24.6 12.2
-4 10 -16 -5.3 12
-10 4 16 12.4 13.2
-6 10 16 1.7 6
-10 6 16 -10.1 13.2
4 6 -16 -0.9 5.9
-6 10 -16 2.9 10.2
-7 10 16 47.1 11.8
-10 7 16 -12.7 12.8
3 7 -16 0.9 8
-7 10 -16 4.2 5.4
-10 8 16 22.6 13.4
2 8 -16 31.6 10.1
-9 10 16 28.5 9.5
-1 10 -16 1.5 11.5
-10 9 16 -1.5 12.3
1 9 -16 11.4 9.4
-11 5 16 28 10.2
-5 11 -16 0.3 10.6
-11 6 16 -4.1 12.7
-6 11 -16 3.1 8.7
-4 11 -16 7.6 11.4
-7 11 -16 6 4.6
-11 7 16 3 12
-3 11 -16 3.6 11.3
-11 8 16 1.8 11
0 0 -17 5.5 12
0 1 -17 20.4 12.5
-1 1 -17 17.1 12.7
1 -1 -17 20.1 12
1 0 -17 15.4 12.3
0 -1 -17 13.5 12.2
-1 0 -17 13.5 12.6
-1 2 -17 16.9 12.8
-1 -1 -17 13.6 11.9
-2 1 -17 11.6 11.3
2 -1 -17 23.8 11.9
1 1 -17 14.9 12.1
1 -2 -17 14.6 11.7
0 2 -17 14.2 12.7
2 -2 -17 13 11.4
0 -2 -17 9.6 11.4
-2 2 -17 -2.3 12.5
2 0 -17 17 11.9
1 -3 -17 8.5 11
-1 3 -17 11.7 12.9
2 1 -17 9.6 11.8
-3 2 -17 -1 9.1
3 -2 -17 12.6 10.9
1 2 -17 9.5 12.1
-2 3 -17 6.9 12.9
3 -1 -17 23.2 11.2
2 -3 -17 17.4 11.2
-1 -2 -17 -5.8 7.7
3 0 -17 24.9 11.5
3 -3 -17 22.3 10.8
-3 3 -17 11.8 12.4
0 3 -17 31.6 13.4
0 -3 -17 11.7 10.3
4 -2 -17 24.5 10.9
2 -4 -17 19.6 10.8
-2 4 -17 10.6 13.2
2 2 -17 17.2 11.6
3 1 -17 24.1 11.9
4 -3 -17 26.7 10.7
-1 4 -17 25.9 13.2
1 -4 -17 22.4 11
4 -1 -17 21.2 11
1 3 -17 12 12.4
-3 4 -17 15 12.9
3 -4 -17 22.9 10.8
4 -4 -17 16.7 10.3
0 -4 -17 12.7 6.1
4 0 -17 9.7 10.8
0 4 -17 9 12.6
3 2 -17 24.6 11.6
-2 5 -17 17.2 12.6
5 -3 -17 25.1 10.5
2 3 -17 25.2 12.5
5 -2 -17 25.6 10.5
-3 5 -17 12.1 12.2
5 -4 -17 17.7 9.9
-5 1 17 1 12.8
-1 5 -17 3.4 12.6
4 1 -17 10.4 10.9
-5 4 17 3.4 12.7
1 4 -17 3.6 12.1
4 -5 -17 17.5 10
5 -1 -17 14.3 10.8
-4 5 -17 -0.9 9.9
-5 0 17 -5.1 9.9
-5 5 17 1.5 11.8
-5 5 -17 -6.2 5.3
0 5 -17 -5.8 11.7
5 0 -17 8.3 10.4
6 -3 -17 10 9.6
-6 3 17 0.4 12.2
-3 6 -17 -6.1 11.6
3 3 -17 2.3 11
4 2 -17 36.3 11.9
-4 6 17 31.7 12.1
-6 2 17 40.2 12
-2 6 -17 28.5 13.4
-6 4 17 21.4 12.3
-4 6 -17 19.1 10.7
2 4 -17 31.8 12.9
6 -2 -17 34.8 10.5
5 1 -17 24.1 10.6
-6 1 17 28.6 10.5
-5 6 17 25.3 11.8
-1 6 -17 27.3 12.5
6 -1 -17 26.1 10.1
-6 5 17 19.6 11.8
1 5 -17 29.2 12.7
6 0 -17 13.1 8.7
-6 6 17 8.8 11.5
0 6 -17 6 12.1
-7 3 17 11.5 11.7
7 -4 -17 20.8 9.3
-3 7 -17 13.2 12.3
4 3 -17 23.3 10.8
-4 7 17 11.3 8.2
3 4 -17 23.9 11.7
-4 7 -17 18.2 10.9
-7 4 17 10.7 11.7
7 -3 -17 20 9.1
-2 7 -17 3.7 11.6
5 2 -17 9.7 9
-5 7 17 9.4 9.9
-7 2 17 13.4 8.6
7 -2 -17 19.2 8.2
2 5 -17 17.9 11.8
-7 5 17 17.7 11.8
-6 7 17 -8.4 9.8
6 1 -17 -7.5 5.4
-1 7 -17 -8.6 11.7
7 -1 -17 -0.6 5.3
-7 6 17 -6.6 10.9
1 6 -17 -3.5 11.2
-7 7 17 0.8 10.3
-8 4 17 26.7 10.7
-4 8 -17 18.4 9.8
-8 3 17 12.8 7.7
-8 5 17 0.5 11.6
