#------------------------------------------------------------------------------
#$Date: 2019-11-03 11:12:59 +0200 (Sun, 03 Nov 2019) $
#$Revision: 221232 $
#$URL: file:///home/coder/svn-repositories/cod/cif/4/12/81/4128101.cif $
#------------------------------------------------------------------------------
#
# This file is available in the Crystallography Open Database (COD),
# http://www.crystallography.net/
#
# All data on this site have been placed in the public domain by the
# contributors.
#
data_4128101
loop_
_publ_author_name
'Li, Bao'
'Zhao, Yu-Meng'
'Kirchon, Angelo'
'Pang, Jian-Dong'
'Yang, Xin-Yu'
'Zhuang, Gui-Lin'
'Zhou, Hong-Cai'
_publ_section_title
;
 Unconventional Method for Fabricating Valence Tautomeric Materials:
 Integrating Redox Center within a Metal-Organic Framework.
;
_journal_issue                   17
_journal_name_full               'Journal of the American Chemical Society'
_journal_page_first              6822
_journal_page_last               6826
_journal_paper_doi               10.1021/jacs.9b02375
_journal_volume                  141
_journal_year                    2019
_chemical_formula_moiety         'C68 H77 Co2 N4 O6'
_chemical_formula_sum            'C68 H77 Co2 N4 O6'
_chemical_formula_weight         1164.20
_space_group_crystal_system      tetragonal
_space_group_IT_number           120
_space_group_name_Hall           'I -4 -2c'
_space_group_name_H-M_alt        'I -4 c 2'
_symmetry_space_group_name_Hall  'I -4 -2c'
_symmetry_space_group_name_H-M   'I -4 c 2'
_atom_sites_solution_hydrogens   geom
_audit_creation_date             2018-03-26
_audit_creation_method
;
Olex2 1.2
(compiled 2017.03.28 svn.r3405 for OlexSys, GUI svn.r5335)
;
_cell_angle_alpha                90
_cell_angle_beta                 90
_cell_angle_gamma                90
_cell_formula_units_Z            16
_cell_length_a                   30.630(2)
_cell_length_b                   30.630(2)
_cell_length_c                   53.381(4)
_cell_measurement_reflns_used    4086
_cell_measurement_temperature    200(2)
_cell_measurement_theta_max      39.71
_cell_measurement_theta_min      2.61
_cell_volume                     50082(6)
_computing_cell_refinement       'SAINT v8.37A (Bruker, 2015)'
_computing_data_reduction        'SAINT v8.37A (Bruker, 2015)'
_computing_molecular_graphics    'Olex2 (Dolomanov et al., 2009)'
_computing_publication_material  'Olex2 (Dolomanov et al., 2009)'
_computing_structure_refinement  'ShelXL (Sheldrick, 2015)'
_diffrn_ambient_temperature      200.0
_diffrn_measured_fraction_theta_full 0.974
_diffrn_measured_fraction_theta_max 0.974
_diffrn_measurement_device_type  'Bruker APEX-II CCD'
_diffrn_measurement_method       '\f and \w scans'
_diffrn_radiation_type           CuK\a
_diffrn_radiation_wavelength     1.54178
_diffrn_reflns_av_R_equivalents  0.0000
_diffrn_reflns_av_unetI/netI     0.2306
_diffrn_reflns_Laue_measured_fraction_full 0.974
_diffrn_reflns_Laue_measured_fraction_max 0.974
_diffrn_reflns_number            7667
_diffrn_reflns_point_group_measured_fraction_full 0.970
_diffrn_reflns_point_group_measured_fraction_max 0.970
_diffrn_reflns_theta_full        40.623
_diffrn_reflns_theta_max         40.623
_diffrn_reflns_theta_min         2.885
_diffrn_standards_number         0
_exptl_absorpt_coefficient_mu    2.284
_exptl_absorpt_correction_type   none
_exptl_crystal_colour            GREEN
_exptl_crystal_density_diffrn    0.618
_exptl_crystal_description       STICK
_exptl_crystal_F_000             29596
_refine_diff_density_max         0.301
_refine_diff_density_min         -0.407
_refine_diff_density_rms         0.055
_refine_ls_abs_structure_details
;
 Flack x determined using 841 quotients [(I+)-(I-)]/[(I+)+(I-)]
 (Parsons, Flack and Wagner, Acta Cryst. B69 (2013) 249-259).
;
_refine_ls_abs_structure_Flack   0.487(13)
_refine_ls_extinction_method     none
_refine_ls_goodness_of_fit_ref   0.915
_refine_ls_hydrogen_treatment    constr
_refine_ls_matrix_type           full
_refine_ls_number_parameters     740
_refine_ls_number_reflns         7667
_refine_ls_number_restraints     704
_refine_ls_restrained_S_all      1.373
_refine_ls_R_factor_all          0.2315
_refine_ls_R_factor_gt           0.1107
_refine_ls_shift/su_max          0.003
_refine_ls_shift/su_mean         0.000
_refine_ls_structure_factor_coef Fsqd
_refine_ls_weighting_details
'w=1/[\s^2^(Fo^2^)+(0.1583P)^2^] where P=(Fo^2^+2Fc^2^)/3'
_refine_ls_weighting_scheme      calc
_refine_ls_wR_factor_gt          0.2516
_refine_ls_wR_factor_ref         0.3051
_reflns_Friedel_coverage         0.880
_reflns_Friedel_fraction_full    0.966
_reflns_Friedel_fraction_max     0.966
_reflns_number_gt                2944
_reflns_number_total             7667
_reflns_threshold_expression     'I > 2\s(I)'
_cod_data_source_file            ja9b02375_si_002.cif
_cod_data_source_block           200K
_cod_original_cell_volume        50081(8)
_cod_database_code               4128101
_shelx_shelxl_version_number     2014/7
_shelx_space_group_comment
;
The symmetry employed for this shelxl refinement is uniquely defined
by the following loop, which should always be used as a source of
symmetry information in preference to the above space-group names.
They are only intended as comments.
;
_olex2_refinement_description
;
1. Fixed Uiso
 At 1.2 times of:
  All C(H) groups
 At 1.5 times of:
  All C(H,H,H) groups
2. Restrained distances
 O5-C68 = O6-C68
 2.4 with sigma of 0.02
 O5-C67 = O6-C67
 1.2 with sigma of 0.02
 C67-C68
 1.45 with sigma of 0.02
 O5-O6
 2.1 with sigma of 0.02
 C8-C7 = C7-C6 = C6-N2 = N2-C10 = C10-C9 = C9-C8
 1.44 with sigma of 0.01
 C7-C13
 2.6 with sigma of 0.03
 C9-C13
 2.6 with sigma of 0.03
 N2-C9 = C10-C8 = C9-C7 = C8-C6 = C7-N2 = C6-C10
 2.45 with sigma of 0.01
 C1-C2 = C2-C3 = C3-C4 = C4-C5 = C5-N1 = N1-C1
 1.44 with sigma of 0.01
 N1-C2 = C1-C3 = C2-C4 = C3-C5 = C4-N1
 2.45 with sigma of 0.01
 C11-C12 = C12-C13 = C13-C14 = C14-C15 = C15-C16 = C16-C11
 1.44 with sigma of 0.01
 C11-C13 = C12-C14 = C13-C15 = C14-C16 = C15-C11 = C16-C12
 2.45 with sigma of 0.01
 C20-C21 = C21-C22 = C22-C23 = C23-C24 = C24-N3 = N3-C20
 1.44 with sigma of 0.01
 N3-C21 = C20-C22 = C21-C23 = C22-C24 = C23-N3 = C24-C20
 2.45 with sigma of 0.01
 N4-C25 = C25-C26 = C26-C27 = C27-C28 = C28-C29 = C29-N4
 1.44 with sigma of 0.01
 N4-C26 = C25-C27 = C26-C28 = C27-C29 = C28-N4 = C29-C25
 2.45 with sigma of 0.01
 C30-C31 = C31-C32 = C32-C33 = C33-C34 = C34-C35 = C35-C30
 1.45 with sigma of 0.01
 C30-C32 = C31-C33 = C32-C34 = C33-C35 = C34-C30 = C35-C31
 2.45 with sigma of 0.01
 C39-C40 = C40-C41 = C41-C42 = C42-C43 = C43-C44 = C44-C39
 1.4 with sigma of 0.02
 C39-C41 = C40-C42 = C41-C43 = C42-C44 = C43-C39 = C44-C40
 2.4 with sigma of 0.02
 C53-C54 = C54-C55 = C55-C56 = C56-C57 = C57-C58 = C58-C53
 1.45 with sigma of 0.02
 C53-C55 = C54-C56 = C55-C57 = C56-C58 = C57-C53 = C58-C54
 2.45 with sigma of 0.02
 C49-C41
 1.5 with sigma of 0.01
 C49-C40
 2.45 with sigma of 0.01
 C49-C42
 2.45 with sigma of 0.01
 C63-C55
 1.45 with sigma of 0.01
 C63-C54
 2.45 with sigma of 0.01
 C57-C59
 1.45 with sigma of 0.01
 C65-C63
 1.45 with sigma of 0.01
 C59-C62
 1.45 with sigma of 0.01
 C63-C64
 1.5 with sigma of 0.01
 C48-C45
 1.5 with sigma of 0.01
 C61-C59
 1.5 with sigma of 0.01
 C60-C59
 1.5 with sigma of 0.01
 C61-C60
 2.8 with sigma of 0.01
 C50-C49
 1.5 with sigma of 0.01
 C51-C49
 1.5 with sigma of 0.01
 C49-C52
 1.5 with sigma of 0.01
 C50-C51
 2.7 with sigma of 0.01
 C60-C62
 2.8 with sigma of 0.01
 C58-O3
 2.4 with sigma of 0.01
 C53-O3
 1.3 with sigma of 0.02
 O3-C54
 2.4 with sigma of 0.01
 O2-C40
 1.3 with sigma of 0.02
 O2-C41
 2.4 with sigma of 0.01
 O1-C39
 1.3 with sigma of 0.02
 C54-O4
 1.3 with sigma of 0.02
 C39-C40
 1.4 with sigma of 0.01
 O2-Co02
 2 with sigma of 0.02
 O2-C39
 2.45 with sigma of 0.02
 C48-C47
 1.5 with sigma of 0.02
 C65-C66 = C47-C46
 2.5 with sigma of 0.02
 O1-C40
 2.45 with sigma of 0.02
 O1-C44
 2.45 with sigma of 0.02
 C41-O2
 2.45 with sigma of 0.02
 O4-C53
 2.45 with sigma of 0.02
 O4-C55
 2.45 with sigma of 0.02
 C53-C54
 1.45 with sigma of 0.02
 C11-C2
 2.45 with sigma of 0.02
 C11-C4
 2.45 with sigma of 0.02
 C54-C53
 1.45 with sigma of 0.01
 C52-C49
 1.3 with sigma of 0.01
 C46-C48
 1.5 with sigma of 0.01
 C52-C50
 2.6 with sigma of 0.02
 C52-C51
 2.6 with sigma of 0.02
 C48-C43
 1.45 with sigma of 0.01
 C50-C52
 2.5 with sigma of 0.01
 C51-C52
 2.5 with sigma of 0.01
 C41-C42
 1.4 with sigma of 0.01
 C41-C43
 2.45 with sigma of 0.01
 H42-H52A
 1.69 with sigma of 0.02
 C41-C52
 2.5 with sigma of 0.01
 H42-H52A = C42-C43
 1.4 with sigma of 0.01
 H52A-H42
 1.9 with sigma of 0.01
 C1-C2 \\sim C3-C4 \\sim C5-N1
 with sigma of 0.02
 C39-C40 \\sim C41-C42 \\sim C43-C44
 with sigma of 0.02
 C34-C35 \\sim C30-C31 \\sim C32-C33
 with sigma of 0.02
 C6-N2 \\sim C10-C9 \\sim C8-C7
 with sigma of 0.02
 C24-N3 \\sim C20-C21 \\sim C23-C22
 with sigma of 0.02
 C31-C30 \\sim C35-C34 \\sim C33-C32
 with sigma of 0.02
 C28-C27 \\sim C26-C25 \\sim N4-C29
 with sigma of 0.02
 C62-C59 \\sim C60-C61
 with sigma of 0.02
 C59-C62 \\sim C61-C60
 with sigma of 0.02
 N4-C29 \\sim C28-C27 \\sim C26-C25
 with sigma of 0.02
 C49-C52 \\sim C50-C51
 with sigma of 0.02
 C62-C60 \\sim C59-C61
 with sigma of 0.02
3. Restrained planarity
 C39, C40, C41, C42, C43, C44
 with sigma of 0.01
 C8, C7, C6, N2, C10, C9
 with sigma of 0.01
 C1, C2, C3, C4, C5, N1
 with sigma of 0.01
 C28, C27, C26, C25, N4, C29
 with sigma of 0.01
 C36, C31, C30, C35, C34, C33, C32, C37, C38
 with sigma of 0.1
 C49, C41, C42, C40
 with sigma of 0.01
 C42, C43, C44, C48
 with sigma of 0.01
 C55, C54, C53, C58, C57, C56, C59, C63
 with sigma of 0.01
 C22, C30, C31, C32, C27, C33, C34, C35
 with sigma of 0.01
 O3, C53, C54, C58
 with sigma of 0.1
 O2, C40, C39, C41
 with sigma of 0.1
 O1, C39, C40, C44
 with sigma of 0.1
 C16, C12, C11, C3
 with sigma of 0.1
 C11, C3, C2, C4
 with sigma of 0.1
 C17, C12, C11, C13
 with sigma of 0.1
 C11, C16, C18, C15
 with sigma of 0.1
 C15, C14, C13, C19
 with sigma of 0.1
 C12, C11, C16, C15, C14, C13
 with sigma of 0.1
 C24, C23, C22, C21, C20, N3
 with sigma of 0.1
 C21, C22, C30, C23
 with sigma of 0.1
4. Rigid bond restraints
 C38, C35
 with sigma for 1-2 distances of 0.01 and sigma for 1-3 distances of 0.01
5. Uiso/Uaniso restraints and constraints
C39 \\sim C40 \\sim C41 \\sim C42 \\sim C43 \\sim C44: within 2A with sigma of
0.04 and sigma for terminal atoms of 0.08
C8 \\sim C7 \\sim C6 \\sim N2 \\sim C10 \\sim C9: within 2A with sigma of 0.04
and sigma for terminal atoms of 0.08
C1 \\sim C2 \\sim C3 \\sim C4 \\sim C5 \\sim N1: within 2A with sigma of 0.04
and sigma for terminal atoms of 0.08
C57 \\sim C59 \\sim C61 \\sim C62 \\sim C60: within 2A with sigma of 0.04 and
sigma for terminal atoms of 0.08
C43 \\sim C48 \\sim C45 \\sim C47 \\sim C46: within 2A with sigma of 0.04 and
sigma for terminal atoms of 0.08
C38 \\sim C35: within 2A with sigma of 0.04 and sigma for terminal atoms of 0.08
Uanis(C32) \\sim Ueq, Uanis(C31) \\sim Ueq, Uanis(C30) \\sim Ueq, Uanis(C33)
\\sim Ueq, Uanis(C36) \\sim Ueq, Uanis(C28) \\sim Ueq, Uanis(C27) \\sim Ueq,
Uanis(C37) \\sim Ueq, Uanis(N4) \\sim Ueq, Uanis(C20) \\sim Ueq, Uanis(C53)
\\sim Ueq, Uanis(C49) \\sim Ueq, Uanis(C52) \\sim Ueq, Uanis(C12) \\sim Ueq,
Uanis(C15) \\sim Ueq: with sigma of 0.01 and sigma for terminal atoms of 0.02
Uanis(C59) \\sim Ueq, Uanis(C60) \\sim Ueq, Uanis(C62) \\sim Ueq, Uanis(C42)
\\sim Ueq, Uanis(C16) \\sim Ueq, Uanis(C36) \\sim Ueq: with sigma of 0.01 and
sigma for terminal atoms of 0.02
Uanis(C13) \\sim Ueq, Uanis(C36) \\sim Ueq, Uanis(C17) \\sim Ueq: with sigma of
0.01 and sigma for terminal atoms of 0.02
Uanis(C57) \\sim Ueq, Uanis(C46) \\sim Ueq, Uanis(C47) \\sim Ueq, Uanis(C45)
\\sim Ueq: with sigma of 0.01 and sigma for terminal atoms of 0.02
Uanis(N3) \\sim Ueq, Uanis(C17) \\sim Ueq, Uanis(C50) \\sim Ueq, Uanis(C63)
\\sim Ueq, Uanis(C24) \\sim Ueq: with sigma of 0.01 and sigma for terminal
atoms of 0.02
Uanis(C68) \\sim Ueq: with sigma of 0.01 and sigma for terminal atoms of 0.02
Uanis(C17) \\sim Ueq, Uanis(C36) \\sim Ueq, Uanis(C25) \\sim Ueq: with sigma of
0.01 and sigma for terminal atoms of 0.02
Uanis(N2) \\sim Ueq: with sigma of 0.01 and sigma for terminal atoms of 0.02
Uanis(C36) \\sim Ueq: with sigma of 0.001 and sigma for terminal atoms of 0.002
Uanis(C17) \\sim Ueq: with sigma of 0.001 and sigma for terminal atoms of 0.002
Uanis(C5) \\sim Ueq: with sigma of 0.01 and sigma for terminal atoms of 0.02
Uanis(C38) \\sim Ueq, Uanis(C19) \\sim Ueq: with sigma of 0.01 and sigma for
terminal atoms of 0.02
Uanis(C22) \\sim Ueq: with sigma of 0.01 and sigma for terminal atoms of 0.02
Uanis(C38) \\sim Ueq: with sigma of 0.01 and sigma for terminal atoms of 0.02
Uanis(O1) \\sim Ueq, Uanis(O2) \\sim Ueq, Uanis(O3) \\sim Ueq, Uanis(O6) \\sim
Ueq, Uanis(C34) \\sim Ueq, Uanis(C58) \\sim Ueq, Uanis(C7) \\sim Ueq,
Uanis(C23) \\sim Ueq, Uanis(C39) \\sim Ueq, Uanis(C65) \\sim Ueq, Uanis(C29)
\\sim Ueq, Uanis(C67) \\sim Ueq, Uanis(C35) \\sim Ueq, Uanis(C10) \\sim Ueq,
Uanis(C51) \\sim Ueq, Uanis(C21) \\sim Ueq: with sigma of 0.01 and sigma for
terminal atoms of 0.02
6.a Aromatic/amide H refined with riding coordinates:
 C20(H20), C58(H58), C21(H21), C7(H7), C28(H28), C56(H56), C10(H10), C42(H42),
 C9(H9), C2(H2), C1(H1), C23(H23), C6(H6), C25(H25), C24(H24), C29(H29), C4(H4),
  C5(H5), C26(H26), C44(H44)
6.b Idealised Me refined as rotating group:
 C18(H18A,H18B,H18C), C36(H36A,H36B,H36C), C19(H19A,H19B,H19C), C66(H66A,H66B,
 H66C), C51(H51A,H51B,H51C), C52(H52A,H52B,H52C), C64(H64A,H64B,H64C), C60(H60A,
 H60B,H60C), C37(H37A,H37B,H37C), C65(H65A,H65B,H65C), C61(H61A,H61B,H61C),
 C17(H17A,H17B,H17C), C38(H38A,H38B,H38C), C68(H68A,H68B,H68C), C46(H46A,H46B,
 H46C), C45(H45A,H45B,H45C), C47(H47A,H47B,H47C), C50(H50A,H50B,H50C), C62(H62A,
 H62B,H62C)
;
_shelx_res_file
;
    p_sq_d_sq_d.res created by SHELXL-2014/7

TITL p_a.res in I-4c2
REM Old TITL P in I4/mcm #140
REM SHELXT solution in I-4c2
REM R1 0.526, Rweak 0.139, Alpha 0.105, Orientation as input
REM Flack x = 0.496 ( 0.002 ) from Parsons' quotients
REM Formula found by SHELXT: C82 N47 O36 Co4
CELL 1.54178 30.6298 30.6298 53.3811 90 90 90
ZERR 604 0.0021 0.0021 0.0039 0 0 0
LATT -2
SYMM -X,-Y,+Z
SYMM +Y,-X,-Z
SYMM -Y,+X,-Z
SYMM +X,-Y,0.5+Z
SYMM -X,+Y,0.5+Z
SYMM +Y,+X,0.5-Z
SYMM -Y,-X,0.5-Z
SFAC C H N O Co
UNIT 604 604 604 604 604
DFIX 2.4 O5 C68 O6 C68
DFIX 1.2 O5 C67 O6 C67
DFIX 1.45 C67 C68
DFIX 2.1 O5 O6
DFIX 1.44 0.01 C8 C7 C7 C6 C6 N2 N2 C10 C10 C9 C9 C8
DFIX 2.6 0.03 C7 C13
DFIX 2.6 0.03 C9 C13
DFIX 2.45 0.01 N2 C9 C10 C8 C9 C7 C8 C6 C7 N2 C6 C10
DFIX 1.44 0.01 C1 C2 C2 C3 C3 C4 C4 C5 C5 N1 N1 C1
DFIX 2.45 0.01 N1 C2 C1 C3 C2 C4 C3 C5 C4 N1
DFIX 1.44 0.01 C11 C12 C12 C13 C13 C14 C14 C15 C15 C16 C16 C11
DFIX 2.45 0.01 C11 C13 C12 C14 C13 C15 C14 C16 C15 C11 C16 C12
DFIX 1.44 0.01 C20 C21 C21 C22 C22 C23 C23 C24 C24 N3 N3 C20
DFIX 2.45 0.01 N3 C21 C20 C22 C21 C23 C22 C24 C23 N3 C24 C20
DFIX 1.44 0.01 N4 C25 C25 C26 C26 C27 C27 C28 C28 C29 C29 N4
DFIX 2.45 0.01 N4 C26 C25 C27 C26 C28 C27 C29 C28 N4 C29 C25
DFIX 1.45 0.01 C30 C31 C31 C32 C32 C33 C33 C34 C34 C35 C35 C30
DFIX 2.45 0.01 C30 C32 C31 C33 C32 C34 C33 C35 C34 C30 C35 C31
DFIX 1.4 C39 C40 C40 C41 C41 C42 C42 C43 C43 C44 C44 C39
DFIX 2.4 C39 C41 C40 C42 C41 C43 C42 C44 C43 C39 C44 C40
DFIX 1.45 C53 C54 C54 C55 C55 C56 C56 C57 C57 C58 C58 C53
DFIX 2.45 C53 C55 C54 C56 C55 C57 C56 C58 C57 C53 C58 C54
DFIX 1.5 0.01 C49 C41
DFIX 2.45 0.01 C49 C40
DFIX 2.45 0.01 C49 C42
DFIX 1.45 0.01 C63 C55
DFIX 2.45 0.01 C63 C54
DFIX 1.45 0.01 C57 C59
DFIX 1.45 0.01 C65 C63
DFIX 1.45 0.01 C59 C62
DFIX 1.5 0.01 C63 C64
DFIX 1.5 0.01 C48 C45
DFIX 1.5 0.01 C61 C59
DFIX 1.5 0.01 C60 C59
DFIX 2.8 0.01 C61 C60
DFIX 1.5 0.01 C50 C49
DFIX 1.5 0.01 C51 C49
DFIX 1.5 0.01 C49 C52
DFIX 2.7 0.01 C50 C51
DFIX 2.8 0.01 C60 C62
DFIX 2.4 0.01 C58 O3
DFIX 1.3 C53 O3
DFIX 2.4 0.01 O3 C54
DFIX 1.3 O2 C40
DFIX 2.4 0.01 O2 C41
DFIX 1.3 O1 C39
DFIX 1.3 C54 O4
DFIX 1.4 0.01 C39 C40
DFIX 2 O2 Co02
DFIX 2.45 O2 C39
DFIX 1.5 C48 C47
DFIX 2.5 C65 C66 C47 C46
DFIX 2.45 O1 C40
DFIX 2.45 O1 C44
DFIX 2.45 C41 O2
DFIX 2.45 O4 C53
DFIX 2.45 O4 C55
DFIX 1.45 C53 C54
DFIX 2.45 C11 C2
DFIX 2.45 C11 C4
DFIX 1.45 0.01 C54 C53
DFIX 1.3 0.01 C52 C49
DFIX 1.5 0.01 C46 C48
DFIX 2.6 C52 C50
DFIX 2.6 C52 C51
DFIX 1.45 0.01 C48 C43
DFIX 2.5 0.01 C50 C52
DFIX 2.5 0.01 C51 C52
DFIX 1.4 0.01 C41 C42
DFIX 2.45 0.01 C41 C43
DFIX 1.69 H42 H52a
DFIX 2.5 0.01 C41 C52
DFIX 1.4 0.01 H42 H52a C42 C43
DFIX 1.9 0.01 H52a H42
SADI C1 C2 C3 C4 C5 N1
SADI C39 C40 C41 C42 C43 C44
SADI C34 C35 C30 C31 C32 C33
SADI C6 N2 C10 C9 C8 C7
SADI C24 N3 C20 C21 C23 C22
SADI C31 C30 C35 C34 C33 C32
SADI C28 C27 C26 C25 N4 C29
SADI C62 C59 C60 C61
SADI C59 C62 C61 C60
SADI N4 C29 C28 C27 C26 C25
SADI C49 C52 C50 C51
SADI C62 C60 C59 C61
FLAT 0.01 C39 C40 C41 C42 C43 C44
FLAT 0.01 C8 C7 C6 N2 C10 C9
FLAT 0.01 C1 C2 C3 C4 C5 N1
FLAT 0.01 C28 C27 C26 C25 N4 C29
FLAT C36 C31 C30 C35 C34 C33 C32 C37 C38
FLAT 0.01 C49 C41 C42 C40
FLAT 0.01 C42 C43 C44 C48
FLAT 0.01 C55 C54 C53 C58 C57 C56 C59 C63
FLAT 0.01 C22 C30 C31 C32 C27 C33 C34 C35
FLAT O3 C53 C54 C58
FLAT O2 C40 C39 C41
FLAT O1 C39 C40 C44
FLAT C16 C12 C11 C3
FLAT C11 C3 C2 C4
FLAT C17 C12 C11 C13
FLAT C11 C16 C18 C15
FLAT C15 C14 C13 C19
FLAT C12 C11 C16 C15 C14 C13
FLAT C24 C23 C22 C21 C20 N3
FLAT C21 C22 C30 C23
DELU C38 C35
SIMU C39 C40 C41 C42 C43 C44
SIMU C8 C7 C6 N2 C10 C9
SIMU C1 C2 C3 C4 C5 N1
SIMU C57 C59 C61 C62 C60
SIMU C43 C48 C45 C47 C46
SIMU C38 C35
ISOR 0.01 0.02 C32 C31 C30 C33 C36 C28 C27 C37 N4 C20 C53 C49 C52 C12 C15
ISOR 0.01 0.02 C59 C60 C62 C42 C16 C36
ISOR 0.01 0.02 C13 C36 C17
ISOR 0.01 0.02 C57 C46 C47 C45
ISOR 0.01 0.02 N3 C17 C50 C63 C24
ISOR 0.01 0.02 C68
ISOR 0.01 0.02 C17 C36 C25
ISOR 0.01 0.02 N2
ISOR 0.001 0.002 C36
ISOR 0.001 0.002 C17
ISOR 0.01 0.02 C5
ISOR 0.01 0.02 C38 C19
ISOR 0.01 0.02 C22
ISOR 0.01 0.02 C38
ISOR 0.01 0.02 O1 O2 O3 O6 C34 C58 C7 C23 C39 C65 C29 C67 C35 C10 C51 C21

L.S. 10
PLAN  50
TEMP -173.15
BOND $H
list 4
fmap 2
acta
OMIT -3 95
OMIT 3 3 10
OMIT 5 1 18
OMIT 1 1 2
OMIT 5 4 5
OMIT 4 5 5
OMIT 1 2 13
OMIT 4 6 0
OMIT 3 4 5
OMIT 4 6 8
OMIT 3 7 8
OMIT 0 0 6
OMIT 5 7 4
OMIT 5 7 0
OMIT 4 4 16
OMIT 2 2 6
OMIT 4 4 14
OMIT 3 3 2
OMIT 1 12 7
OMIT 8 3 7
OMIT 4 11 3
OMIT 1 1 4
OMIT 1 8 7
OMIT 3 6 1
OMIT 4 8 6
OMIT 9 7 18
OMIT 2 2 0
OMIT 4 3 5
OMIT 0 0 10
OMIT 4 0 6
OMIT 6 4 8
OMIT 4 3 1
OMIT 7 5 4
OMIT 6 1 1
OMIT 2 1 13
OMIT 4 2 16
OMIT 3 3 4
OMIT 6 0 16
OMIT 3 3 18
OMIT 7 6 7
OMIT 7 10 11
OMIT 3 4 13
OMIT 3 1 12
OMIT 8 11 3
OMIT 1 3 0
OMIT 4 4 0
OMIT 5 5 0
OMIT 5 3 2
OMIT 0 0 8
OMIT 1 1 8
OMIT 2 2 2
OMIT 2 1 1
OMIT 11 8 1
OMIT 7 8 5
OMIT 1 2 7
OMIT 3 12 5
OMIT 7 8 3
OMIT 1 5 16
OMIT 7 4 25
OMIT 8 1 1
OMIT 4 3 13
OMIT 8 5 5
OMIT 5 8 1
REM <olex2.extras>
REM <HklSrc "%.\\p_sq_d_sq_d.hkl">
REM </olex2.extras>

WGHT    0.158300
FVAR       1.00605
CO01  5    0.572173    0.274810    0.372870    11.00000    0.03348    0.15519 =
         0.05306    0.00637    0.00593    0.01295
CO02  5    0.473119    0.276907    0.376963    11.00000    0.05708    0.10493 =
         0.06805    0.00358   -0.00692   -0.00651
O1    4    0.525194    0.285934    0.401790    11.00000    0.03395    0.10522 =
         0.02627   -0.01276    0.00270    0.00165
O3    4    0.520884    0.287656    0.350687    11.00000    0.10262    0.09697 =
         0.14993   -0.02797   -0.01286    0.00760
O2    4    0.463336    0.337864    0.384470    11.00000    0.04982    0.11825 =
         0.05687    0.00974   -0.00104   -0.00837
O4    4    0.583080    0.339524    0.368021    11.00000    0.06643    0.09636 =
         0.19822   -0.01214   -0.00917    0.00229
C20   1    0.628561    0.235516    0.413902    11.00000    0.09045    0.09740 =
         0.11553   -0.00436   -0.00506   -0.00778
AFIX  43
H20   2    0.609617    0.211139    0.412196    11.00000   -1.20000
AFIX   0
O6    4    0.556278    0.211920    0.375885    11.00000    0.11252    0.06806 =
         0.07070    0.01024    0.00117    0.02589
C54   1    0.557145    0.356165    0.350381    11.00000    0.12081    0.16642 =
         0.05018    0.01628    0.01014    0.01009
C18   1    0.352524    0.276993    0.264314    11.00000    0.12568    0.22930 =
         0.11197    0.05142    0.04119    0.01197
AFIX 137
H18A  2    0.369611    0.301308    0.271115    11.00000   -1.50000
H18B  2    0.346855    0.282090    0.246484    11.00000   -1.50000
H18C  2    0.368901    0.249734    0.266335    11.00000   -1.50000
AFIX   0
C11   1    0.314466    0.270970    0.303294    11.00000    0.09256    0.06334 =
         0.07620    0.00787    0.01576   -0.01142
C36   1    0.776038    0.257931    0.406031    11.00000    0.09514    0.09635 =
         0.09456   -0.00005    0.00008    0.00056
AFIX 137
H36A  2    0.807139    0.258595    0.401738    11.00000   -1.50000
H36B  2    0.761013    0.282048    0.397593    11.00000   -1.50000
H36C  2    0.763380    0.230117    0.400593    11.00000   -1.50000
AFIX   0
C32   1    0.810963    0.260565    0.446454    11.00000    0.04819    0.07063 =
         0.05255    0.01690    0.00126    0.01344
C53   1    0.523516    0.326443    0.341271    11.00000    0.09112    0.10807 =
         0.09098    0.00073   -0.00168   -0.00584
C27   1    0.854415    0.255331    0.435544    11.00000    0.04235    0.06310 =
         0.03958   -0.00041   -0.00935   -0.00648
C58   1    0.496229    0.341064    0.321242    11.00000    0.12787    0.12791 =
         0.14221    0.00937   -0.01103    0.00736
AFIX  43
H58   2    0.474053    0.322407    0.314901    11.00000   -1.20000
AFIX   0
C21   1    0.664167    0.234027    0.430984    11.00000    0.10469    0.09025 =
         0.10278    0.00675   -0.02069    0.00491
AFIX  43
H21   2    0.667504    0.209936    0.442028    11.00000   -1.20000
AFIX   0
C7    1    0.175147    0.288877    0.330963    11.00000    0.06179    0.07319 =
         0.08291   -0.01286    0.00822   -0.00035
AFIX  43
H7    2    0.188658    0.316778    0.331522    11.00000   -1.20000
AFIX   0
C8    1    0.193197    0.254990    0.316155    11.00000    0.03746    0.10499 =
         0.08381    0.01331   -0.00280    0.02153
C19   1    0.188731    0.270868    0.260681    11.00000    0.09172    0.14783 =
         0.09371    0.00830   -0.03189   -0.01036
AFIX 137
H19A  2    0.181145    0.241949    0.254144    11.00000   -1.50000
H19B  2    0.192398    0.291298    0.246710    11.00000   -1.50000
H19C  2    0.165331    0.281244    0.271696    11.00000   -1.50000
AFIX   0
C16   1    0.314168    0.274022    0.276744    11.00000    0.10594    0.10031 =
         0.11063   -0.00173   -0.00464   -0.00034
C66   1    0.590949    0.427847    0.380475    11.00000    0.18026    0.22743 =
         0.04504    0.01898    0.01382    0.00589
AFIX 137
H66A  2    0.609400    0.405653    0.388399    11.00000   -1.50000
H66B  2    0.560310    0.422358    0.384723    11.00000   -1.50000
H66C  2    0.599439    0.456838    0.386523    11.00000   -1.50000
AFIX   0
C22   1    0.694727    0.268988    0.431358    11.00000    0.07162    0.08226 =
         0.08195    0.00330   -0.00133   -0.00627
C13   1    0.235215    0.261090    0.302899    11.00000    0.06159    0.07330 =
         0.06282    0.00302    0.00371    0.00112
C28   1    0.868211    0.288378    0.418889    11.00000    0.10114    0.12191 =
         0.12145    0.01710    0.00647    0.00390
AFIX  43
H28   2    0.853421    0.315626    0.418382    11.00000   -1.20000
AFIX   0
C56   1    0.534768    0.411517    0.319880    11.00000    0.20733    0.13711 =
         0.07732    0.03651    0.04126    0.07507
AFIX  43
H56   2    0.538156    0.439651    0.312646    11.00000   -1.20000
AFIX   0
C51   1    0.458515    0.434856    0.376613    11.00000    0.15634    0.15622 =
         0.11580   -0.01378   -0.04048   -0.04268
AFIX 137
H51A  2    0.484807    0.452855    0.374947    11.00000   -1.50000
H51B  2    0.433424    0.450599    0.369673    11.00000   -1.50000
H51C  2    0.462570    0.407406    0.367472    11.00000   -1.50000
AFIX   0
C10   1    0.134921    0.205165    0.329184    11.00000    0.07761    0.09711 =
         0.10069   -0.01635    0.00664   -0.00359
AFIX  43
H10   2    0.121346    0.177291    0.328703    11.00000   -1.20000
AFIX   0
C33   1    0.811435    0.263860    0.473084    11.00000    0.04064    0.05612 =
         0.05052   -0.00130   -0.00234    0.00998
C59   1    0.476568    0.401555    0.290605    11.00000    0.19286    0.18867 =
         0.18628    0.00749   -0.00808    0.00668
C41   1    0.484606    0.394365    0.413165    11.00000    0.17197    0.12599 =
         0.19535   -0.02529    0.01785    0.00167
C40   1    0.489772    0.354745    0.402236    11.00000    0.16146    0.14617 =
         0.15024   -0.02411   -0.01312   -0.01604
C42   1    0.510518    0.408359    0.433100    11.00000    0.19261    0.19455 =
         0.19566   -0.00669   -0.01275    0.00061
AFIX  43
H42   2    0.505799    0.436410    0.440193    11.00000   -1.20000
AFIX   0
C39   1    0.522831    0.326462    0.411445    11.00000    0.13773    0.14449 =
         0.15613   -0.00363   -0.00927    0.00860
C9    1    0.173443    0.213175    0.315080    11.00000    0.06970    0.11969 =
         0.12354    0.00732    0.02009    0.01733
AFIX  43
H9    2    0.185822    0.190757    0.305041    11.00000   -1.20000
AFIX   0
C48   1    0.572054    0.393619    0.463771    11.00000    0.22308    0.28386 =
         0.30852   -0.08340   -0.05171   -0.00160
C2    1    0.359500    0.311723    0.333297    11.00000    0.06192    0.09185 =
         0.08321   -0.04178    0.01790   -0.00956
AFIX  43
H2    2    0.340323    0.335915    0.331580    11.00000   -1.20000
AFIX   0
C52   1    0.450034    0.467090    0.419647    11.00000    0.27508    0.25369 =
         0.26841   -0.02469    0.00861    0.00997
AFIX 137
H52A  2    0.480024    0.474870    0.424229    11.00000   -1.50000
H52B  2    0.432771    0.462521    0.434880    11.00000   -1.50000
H52C  2    0.437092    0.490765    0.409780    11.00000   -1.50000
AFIX   0
C64   1    0.592716    0.470798    0.338796    11.00000    0.21620    0.11193 =
         0.23285    0.10789   -0.03149   -0.05324
AFIX 137
H64A  2    0.598060    0.469276    0.320716    11.00000   -1.50000
H64B  2    0.614061    0.490440    0.346543    11.00000   -1.50000
H64C  2    0.563176    0.481896    0.341827    11.00000   -1.50000
AFIX   0
C60   1    0.446338    0.437461    0.298738    11.00000    0.23981    0.22271 =
         0.21618    0.02243   -0.00140    0.01698
AFIX 137
H60A  2    0.422807    0.425165    0.308982    11.00000   -1.50000
H60B  2    0.433839    0.451683    0.283939    11.00000   -1.50000
H60C  2    0.462642    0.458966    0.308600    11.00000   -1.50000
AFIX   0
C37   1    0.852759    0.265634    0.488113    11.00000    0.03627    0.09069 =
         0.07787   -0.00746   -0.01846   -0.01217
AFIX 137
H37A  2    0.845671    0.270795    0.505768    11.00000   -1.50000
H37B  2    0.871233    0.289409    0.481903    11.00000   -1.50000
H37C  2    0.868381    0.237855    0.486488    11.00000   -1.50000
AFIX   0
C65   1    0.639290    0.404463    0.345480    11.00000    0.08666    0.17550 =
         0.12636    0.00942   -0.02441    0.00105
AFIX 137
H65A  2    0.641692    0.396864    0.327700    11.00000   -1.50000
H65B  2    0.641397    0.377889    0.355632    11.00000   -1.50000
H65C  2    0.662963    0.424468    0.350037    11.00000   -1.50000
AFIX   0
C1    1    0.396931    0.314746    0.349052    11.00000    0.08576    0.14702 =
         0.09686   -0.06227    0.00609   -0.04552
AFIX  43
H1    2    0.402994    0.340957    0.357908    11.00000   -1.20000
AFIX   0
C61   1    0.444157    0.360632    0.279263    11.00000    0.13785    0.21318 =
         0.17924    0.08251   -0.11556   -0.00699
AFIX 137
H61A  2    0.425093    0.349905    0.292660    11.00000   -1.50000
H61B  2    0.462514    0.336679    0.273164    11.00000   -1.50000
H61C  2    0.426287    0.371854    0.265463    11.00000   -1.50000
AFIX   0
C12   1    0.274695    0.264734    0.316296    11.00000    0.11014    0.10314 =
         0.10984    0.00287   -0.01039   -0.00550
C31   1    0.770914    0.262479    0.433276    11.00000    0.04415    0.05892 =
         0.05720    0.00339    0.00018    0.00326
C17   1    0.274387    0.257305    0.345586    11.00000    0.10132    0.10235 =
         0.10029    0.00001    0.00029    0.00000
AFIX 137
H17A  2    0.295313    0.234311    0.349923    11.00000   -1.50000
H17B  2    0.245067    0.248525    0.350936    11.00000   -1.50000
H17C  2    0.282591    0.284469    0.354068    11.00000   -1.50000
AFIX   0
C30   1    0.730835    0.267637    0.446404    11.00000    0.05342    0.05868 =
         0.06156   -0.00874   -0.00358    0.00169
C15   1    0.274546    0.271290    0.263495    11.00000    0.09109    0.08832 =
         0.07007    0.00581    0.00387    0.00193
C38   1    0.691338    0.276806    0.486067    11.00000    0.01958    0.11645 =
         0.08134   -0.00353   -0.00624    0.00618
AFIX 137
H38A  2    0.676587    0.302945    0.479706    11.00000   -1.50000
H38B  2    0.697287    0.280356    0.503990    11.00000   -1.50000
H38C  2    0.672574    0.251276    0.483514    11.00000   -1.50000
AFIX   0
N1    3    0.425099    0.278067    0.351362    11.00000    0.11822    0.09898 =
         0.11899   -0.02218    0.01911   -0.01056
C14   1    0.234356    0.267719    0.276537    11.00000    0.09795    0.07868 =
         0.11738    0.03457   -0.00700    0.00146
N2    3    0.116992    0.238991    0.343922    11.00000    0.09868    0.10249 =
         0.10452   -0.00354    0.00008    0.00475
C23   1    0.688111    0.306847    0.416521    11.00000    0.14138    0.14912 =
         0.15409   -0.01313   -0.02184   -0.00463
AFIX  43
H23   2    0.708535    0.330173    0.417001    11.00000   -1.20000
AFIX   0
C57   1    0.501960    0.382868    0.310847    11.00000    0.15636    0.16526 =
         0.16725    0.00081   -0.00196   -0.00625
C6    1    0.136359    0.280535    0.345046    11.00000    0.09297    0.06149 =
         0.08974   -0.04634   -0.01052    0.02006
AFIX  43
H6    2    0.123784    0.302862    0.355072    11.00000   -1.20000
AFIX   0
C68   1    0.521284    0.144566    0.368612    11.00000    0.21027    0.10925 =
         0.19081   -0.00988    0.02827    0.00621
AFIX 137
H68A  2    0.542492    0.137895    0.355409    11.00000   -1.50000
H68B  2    0.492106    0.135413    0.363212    11.00000   -1.50000
H68C  2    0.529270    0.128905    0.383951    11.00000   -1.50000
AFIX   0
O5    4    0.487566    0.213492    0.373060    11.00000    0.11383    0.12831 =
         0.09774    0.01525   -0.01378   -0.01376
C43   1    0.543516    0.381366    0.442779    11.00000    0.17992    0.21658 =
         0.21203   -0.03311   -0.05585    0.01838
C46   1    0.609539    0.366880    0.474128    11.00000    0.28174    0.27226 =
         0.27226    0.01093   -0.00852    0.01509
AFIX 137
H46A  2    0.599501    0.337085    0.477531    11.00000   -1.50000
H46B  2    0.620044    0.380195    0.489695    11.00000   -1.50000
H46C  2    0.633323    0.366062    0.461857    11.00000   -1.50000
AFIX   0
C45   1    0.587738    0.436897    0.453366    11.00000    0.31126    0.27040 =
         0.29052   -0.00786   -0.01870   -0.01524
AFIX 137
H45A  2    0.598509    0.455210    0.467093    11.00000   -1.50000
H45B  2    0.563488    0.451721    0.444935    11.00000   -1.50000
H45C  2    0.611359    0.431748    0.441341    11.00000   -1.50000
AFIX   0
C47   1    0.539034    0.396835    0.485014    11.00000    0.29855    0.32209 =
         0.29662   -0.01116    0.02378   -0.00348
AFIX 137
H47A  2    0.513422    0.413229    0.479306    11.00000   -1.50000
H47B  2    0.552344    0.411914    0.499291    11.00000   -1.50000
H47C  2    0.530083    0.367433    0.490116    11.00000   -1.50000
AFIX   0
C25   1    0.912405    0.206682    0.420741    11.00000    0.13422    0.13951 =
         0.14518    0.01496    0.00471    0.00844
AFIX  43
H25   2    0.927276    0.179481    0.421293    11.00000   -1.20000
AFIX   0
N3    3    0.621609    0.273660    0.399465    11.00000    0.03700    0.05582 =
         0.02317    0.01777   -0.00284   -0.00116
C49   1    0.450371    0.425104    0.404111    11.00000    0.18564    0.18778 =
         0.18291    0.00297   -0.00320   -0.00654
C63   1    0.597120    0.425664    0.350075    11.00000    0.12052    0.12353 =
         0.13259    0.00133   -0.00109    0.00382
N4    3    0.926103    0.239597    0.404174    11.00000    0.06952    0.07813 =
         0.06888   -0.00376   -0.00064   -0.02988
C3    1    0.351147    0.272596    0.320287    11.00000    0.07668    0.09013 =
         0.01579    0.00783   -0.01630   -0.01884
C24   1    0.650438    0.309495    0.400870    11.00000    0.14330    0.13952 =
         0.13535    0.00546   -0.00604    0.01295
AFIX  43
H24   2    0.644809    0.335213    0.391462    11.00000   -1.20000
AFIX   0
C55   1    0.562607    0.398080    0.339790    11.00000    0.10762    0.16478 =
         0.09520    0.08881    0.00187   -0.00957
C29   1    0.904652    0.280426    0.402799    11.00000    0.13579    0.14283 =
         0.13609   -0.01554    0.00073    0.00024
AFIX  43
H29   2    0.914296    0.302177    0.391383    11.00000   -1.20000
AFIX   0
C50   1    0.407271    0.400961    0.406432    11.00000    0.22975    0.23973 =
         0.21450   -0.00167    0.00206    0.00434
AFIX 137
H50A  2    0.384585    0.416885    0.397262    11.00000   -1.50000
H50B  2    0.399088    0.398846    0.424139    11.00000   -1.50000
H50C  2    0.410321    0.371567    0.399395    11.00000   -1.50000
AFIX   0
C34   1    0.771435    0.268902    0.486156    11.00000    0.04467    0.04745 =
         0.02401   -0.00134    0.00097    0.00588
C4    1    0.379065    0.236121    0.322530    11.00000    0.09108    0.13077 =
         0.06312    0.01123   -0.00210    0.00297
AFIX  43
H4    2    0.372833    0.209934    0.313690    11.00000   -1.20000
AFIX   0
C5    1    0.416807    0.238935    0.338226    11.00000    0.06606    0.06570 =
         0.07330    0.00433   -0.01264    0.01019
AFIX  43
H5    2    0.436056    0.214769    0.339791    11.00000   -1.20000
AFIX   0
C35   1    0.731222    0.270792    0.473030    11.00000    0.04407    0.05546 =
         0.05941    0.00922    0.00661    0.00673
C26   1    0.875773    0.214600    0.436786    11.00000    0.22872    0.10171 =
         0.03767    0.00393    0.03507    0.02557
AFIX  43
H26   2    0.866007    0.192738    0.448098    11.00000   -1.20000
AFIX   0
C44   1    0.548591    0.340862    0.431404    11.00000    0.12626    0.19488 =
         0.18850   -0.03885   -0.02349    0.03487
AFIX  43
H44   2    0.570752    0.321966    0.437526    11.00000   -1.20000
AFIX   0
C62   1    0.505871    0.418352    0.266134    11.00000    0.24037    0.23580 =
         0.24481    0.00798    0.00777    0.00676
AFIX 137
H62A  2    0.513795    0.449097    0.268400    11.00000   -1.50000
H62B  2    0.488596    0.415140    0.250792    11.00000   -1.50000
H62C  2    0.532455    0.400696    0.264818    11.00000   -1.50000
AFIX   0
C67   1    0.521259    0.193683    0.373702    11.00000    0.16568    0.16229 =
         0.15283    0.00245   -0.00033   -0.00133
HKLF 4

REM  p_a.res in I-4c2
REM R1 =  0.1107 for    2944 Fo > 4sig(Fo)  and  0.2315 for all    7667 data
REM    740 parameters refined using    704 restraints

END

WGHT      0.1584      0.0000

REM Highest difference peak  0.301,  deepest hole -0.407,  1-sigma level  0.055
Q1    1   0.5268  0.3199  0.3982  11.00000  0.05    0.27
Q2    1   0.4734  0.3040  0.3770  11.00000  0.05    0.24
Q3    1   0.2710  0.2286  0.3474  11.00000  0.05    0.24
Q4    1   0.7804  0.2816  0.4057  11.00000  0.05    0.24
Q5    1   0.6090  0.2727  0.3736  11.00000  0.05    0.23
Q6    1   0.4708  0.3818  0.3811  11.00000  0.05    0.22
Q7    1   0.2706  0.2817  0.3444  11.00000  0.05    0.22
Q8    1   0.1946  0.2231  0.3574  11.00000  0.05    0.21
Q9    1   0.5000  0.5000  0.3609  10.50000  0.05    0.20
Q10   1   0.5697  0.5141  0.3446  11.00000  0.05    0.19
Q11   1   0.3074  0.2612  0.3514  11.00000  0.05    0.19
Q12   1   0.5217  0.2853  0.3749  11.00000  0.05    0.18
Q13   1   0.3876  0.0819  0.3793  11.00000  0.05    0.18
Q14   1   0.5535  0.4720  0.3734  11.00000  0.05    0.18
Q15   1   0.4385  0.4520  0.3753  11.00000  0.05    0.17
Q16   1   0.6293  0.2400  0.3973  11.00000  0.05    0.17
Q17   1   0.6995  0.3152  0.3974  11.00000  0.05    0.17
Q18   1   0.4411  0.2758  0.3785  11.00000  0.05    0.16
Q19   1   0.4145  0.1138  0.3465  11.00000  0.05    0.16
Q20   1   0.6112  0.4934  0.3383  11.00000  0.05    0.16
Q21   1   0.3801  0.2244  0.3491  11.00000  0.05    0.16
Q22   1   0.1367  0.1959  0.3493  11.00000  0.05    0.16
Q23   1   0.9167  0.1942  0.4038  11.00000  0.05    0.16
Q24   1   0.5039  0.4408  0.3832  11.00000  0.05    0.16
Q25   1   0.1329  0.2413  0.3424  11.00000  0.05    0.16
Q26   1   0.7125  0.2193  0.4172  11.00000  0.05    0.15
Q27   1   0.5229  0.3187  0.3520  11.00000  0.05    0.15
Q28   1   0.1298  0.1881  0.3525  11.00000  0.05    0.15
Q29   1   0.5916  0.4529  0.3513  11.00000  0.05    0.15
Q30   1   0.6503  0.2743  0.3980  11.00000  0.05    0.15
Q31   1   0.6293  0.3798  0.3942  11.00000  0.05    0.15
Q32   1   0.6791  0.2337  0.4079  11.00000  0.05    0.15
Q33   1   0.4201  0.0261  0.3769  11.00000  0.05    0.15
Q34   1   0.6215  0.4396  0.4522  11.00000  0.05    0.15
Q35   1   0.6648  0.2867  0.3684  11.00000  0.05    0.15
Q36   1   0.7661  0.2559  0.3755  11.00000  0.05    0.14
Q37   1   0.5692  0.3178  0.4647  11.00000  0.05    0.14
Q38   1   0.6714  0.3038  0.3724  11.00000  0.05    0.14
Q39   1   0.5307  0.2772  0.3269  11.00000  0.05    0.14
Q40   1   0.4695  0.2796  0.3200  11.00000  0.05    0.14
Q41   1   0.1635  0.4184  0.3757  11.00000  0.05    0.14
Q42   1   0.6335  0.2973  0.4028  11.00000  0.05    0.14
Q43   1   0.6400  0.4277  0.3767  11.00000  0.05    0.14
Q44   1   0.5829  0.0370  0.4047  11.00000  0.05    0.14
Q45   1   0.4185  0.3209  0.3923  11.00000  0.05    0.14
Q46   1   0.4770  0.2495  0.3754  11.00000  0.05    0.14
Q47   1   0.4829  0.3151  0.2911  11.00000  0.05    0.14
Q48   1   0.9305  0.2830  0.3698  11.00000  0.05    0.14
Q49   1   0.0613  0.2364  0.2921  11.00000  0.05    0.14
Q50   1   0.5297  0.2537  0.4074  11.00000  0.05    0.14
;
_shelx_res_checksum              73375
_shelx_hkl_file
;
   0   2   0 1214431   22749     0.00000 0.00000 0.00000 0.00000 0.00000 0.00000  498161  401.16   -0.62  1.0000
   1   3   0    6099    1664     0.00000 0.00000 0.00000 0.00000 0.00000 0.00000   27120  -87.99    0.83  1.0000
   3   3   0   97794    6540     0.00000 0.00000 0.00000 0.00000 0.00000 0.00000  166480  -96.82    2.46  1.0000
   0   4   0 2085776   55584     0.00000 0.00000 0.00000 0.00000 0.00000 0.00000 1219028 -344.94    1.15  1.0000
   2   4   0  917060    6403     0.00000 0.00000 0.00000 0.00000 0.00000 0.00000  211696  504.10    1.00  1.0000
   4   4   0   25384    2135     0.00000 0.00000 0.00000 0.00000 0.00000 0.00000   -1009  161.27    3.14  1.0000
   1   5   0   10142    1873     0.00000 0.00000 0.00000 0.00000 0.00000 0.00000   18360  224.57    0.05  1.0000
   3   5   0  103431    6481     0.00000 0.00000 0.00000 0.00000 0.00000 0.00000  141164  -55.19   -3.13  1.0000
   5   5   0   48164    6317     0.00000 0.00000 0.00000 0.00000 0.00000 0.00000   58670   22.93   -6.18  1.0000
   0   6   0 1858453  106718     0.00000 0.00000 0.00000 0.00000 0.00000 0.00000 2342737 -169.43   -2.82  1.0000
   2   6   0    5619   12836     0.00000 0.00000 0.00000 0.00000 0.00000 0.00000   31013  102.83    0.53  1.0000
   6   6   0   85904    5337     0.00000 0.00000 0.00000 0.00000 0.00000 0.00000   49557  -71.15   -9.31  1.0000
   1   7   0  309895   12612     0.00000 0.00000 0.00000 0.00000 0.00000 0.00000  361030  -45.05    2.02  1.0000
   3   7   0   40831   21028     0.00000 0.00000 0.00000 0.00000 0.00000 0.00000   40881   -0.15    0.21  1.0000
   7   7   0   33067    2625     0.00000 0.00000 0.00000 0.00000 0.00000 0.00000   27985  -14.86   -0.15  1.0000
   0   8   0  159316   26928     0.00000 0.00000 0.00000 0.00000 0.00000 0.00000  568751  359.44    1.12  1.0000
   2   8   0  179758    8503     0.00000 0.00000 0.00000 0.00000 0.00000 0.00000  224171  -50.27   -1.32  1.0000
   4   8   0    1037    1641     0.00000 0.00000 0.00000 0.00000 0.00000 0.00000    1953   12.29   -0.07  1.0000
   6   8   0   14105    1623     0.00000 0.00000 0.00000 0.00000 0.00000 0.00000   18452  -16.96    4.69  1.0000
   8   8   0    5785    2744     0.00000 0.00000 0.00000 0.00000 0.00000 0.00000    7463   -7.64   26.53  1.0000
   1   9   0   14235    1934     0.00000 0.00000 0.00000 0.00000 0.00000 0.00000    7458  -37.73   -0.81  1.0000
   3   9   0   28844    1874     0.00000 0.00000 0.00000 0.00000 0.00000 0.00000   27961   -2.57   -0.66  1.0000
   5   9   0    1745    1619     0.00000 0.00000 0.00000 0.00000 0.00000 0.00000    4985   29.36   -0.83  1.0000
   7   9   0    4703    1735     0.00000 0.00000 0.00000 0.00000 0.00000 0.00000    2719   16.72   -1.23  1.0000
   9   9   0    1400    3113     0.00000 0.00000 0.00000 0.00000 0.00000 0.00000    -448  -37.02   -8.02  1.0000
   0  10   0   20443    3142     0.00000 0.00000 0.00000 0.00000 0.00000 0.00000   20736   -1.05    0.40  1.0000
   2  10   0   73221    2567     0.00000 0.00000 0.00000 0.00000 0.00000 0.00000   50324  -46.82   -1.39  1.0000
   4  10   0    6390    1763     0.00000 0.00000 0.00000 0.00000 0.00000 0.00000   11850  -29.36    1.40  1.0000
   6  10   0   46495    2743     0.00000 0.00000 0.00000 0.00000 0.00000 0.00000   53690   16.35   -6.22  1.0000
   8  10   0    5904    2228     0.00000 0.00000 0.00000 0.00000 0.00000 0.00000   10595   26.43    1.82  1.0000
  10  10   0      52    3112     0.00000 0.00000 0.00000 0.00000 0.00000 0.00000   -2228   -5.38   -4.90  1.0000
   1  11   0    7212    1826     0.00000 0.00000 0.00000 0.00000 0.00000 0.00000    3470   30.50   -0.79  1.0000
   3  11   0    7417    1847     0.00000 0.00000 0.00000 0.00000 0.00000 0.00000   14700  -36.18   -0.23  1.0000
   5  11   0    1450    1937     0.00000 0.00000 0.00000 0.00000 0.00000 0.00000    5459   36.24   -1.38  1.0000
   7  11   0   35867    2570     0.00000 0.00000 0.00000 0.00000 0.00000 0.00000   38197    6.14   -0.07  1.0000
   9  11   0    6664    2236     0.00000 0.00000 0.00000 0.00000 0.00000 0.00000    5247   -9.28   -0.97  1.0000
  11  11   0       9    3706     0.00000 0.00000 0.00000 0.00000 0.00000 0.00000   -3964   -2.99    0.09  1.0000
   0  12   0    5950    2882     0.00000 0.00000 0.00000 0.00000 0.00000 0.00000   20528  -67.30    1.79  1.0000
   2  12   0   12796    2724     0.00000 0.00000 0.00000 0.00000 0.00000 0.00000   23268  -40.37    0.60  1.0000
   4  12   0    3650    2003     0.00000 0.00000 0.00000 0.00000 0.00000 0.00000     714  -35.26    6.44  1.0000
   6  12   0    7933    2346     0.00000 0.00000 0.00000 0.00000 0.00000 0.00000   13399  -27.01   -0.67  1.0000
   8  12   0     932    2185     0.00000 0.00000 0.00000 0.00000 0.00000 0.00000    1241    4.66    0.95  1.0000
  10  12   0     146    2754     0.00000 0.00000 0.00000 0.00000 0.00000 0.00000   -1516  -12.24    0.22  1.0000
  12  12   0      75    4005     0.00000 0.00000 0.00000 0.00000 0.00000 0.00000    -593   -8.35    2.60  1.0000
   1  13   0   50603    2829     0.00000 0.00000 0.00000 0.00000 0.00000 0.00000   53205    5.80    0.36  1.0000
   3  13   0   35971    2092     0.00000 0.00000 0.00000 0.00000 0.00000 0.00000   17093  -60.02    1.25  1.0000
   5  13   0    1123    2339     0.00000 0.00000 0.00000 0.00000 0.00000 0.00000    4781  -37.15   -0.52  1.0000
   7  13   0   14213    2421     0.00000 0.00000 0.00000 0.00000 0.00000 0.00000   19885  -22.02   -1.83  1.0000
   9  13   0       6    2781     0.00000 0.00000 0.00000 0.00000 0.00000 0.00000   -3933    2.50   -0.55  1.0000
  11  13   0      12    2952     0.00000 0.00000 0.00000 0.00000 0.00000 0.00000    -976    3.52   -0.23  1.0000
  13  13   0      58    4921     0.00000 0.00000 0.00000 0.00000 0.00000 0.00000   -3091    7.71   -0.31  1.0000
   0  14   0  107168    4606     0.00000 0.00000 0.00000 0.00000 0.00000 0.00000  113413    9.65   -0.64  1.0000
   2  14   0   14130    2297     0.00000 0.00000 0.00000 0.00000 0.00000 0.00000   13029   -4.70   -1.51  1.0000
   4  14   0    6902    2452     0.00000 0.00000 0.00000 0.00000 0.00000 0.00000   13361   33.60   -1.50  1.0000
   6  14   0    3529    3166     0.00000 0.00000 0.00000 0.00000 0.00000 0.00000    3606   -0.06   -3.42  1.0000
   8  14   0    4523    3912     0.00000 0.00000 0.00000 0.00000 0.00000 0.00000    7767   21.13    0.40  1.0000
  10  14   0     506    2989     0.00000 0.00000 0.00000 0.00000 0.00000 0.00000     230    7.47   -0.29  1.0000
  12  14   0     165    3297     0.00000 0.00000 0.00000 0.00000 0.00000 0.00000    -396  -12.99   -0.35  1.0000
  14  14   0     195    5420     0.00000 0.00000 0.00000 0.00000 0.00000 0.00000   -3135  -14.11   -0.88  1.0000
   1  15   0   49880    2407     0.00000 0.00000 0.00000 0.00000 0.00000 0.00000   49633    0.70   -1.14  1.0000
   3  15   0   38382    2302     0.00000 0.00000 0.00000 0.00000 0.00000 0.00000   38215    0.27    2.02  1.0000
   5  15   0    8200    2764     0.00000 0.00000 0.00000 0.00000 0.00000 0.00000    9476   -6.88   -0.46  1.0000
   7  15   0    5168    2748     0.00000 0.00000 0.00000 0.00000 0.00000 0.00000    9853   27.72    0.48  1.0000
   9  15   0    5055    3056     0.00000 0.00000 0.00000 0.00000 0.00000 0.00000    6681   10.75    0.96  1.0000
  11  15   0     997    3372     0.00000 0.00000 0.00000 0.00000 0.00000 0.00000     610    6.95    0.52  1.0000
  13  15   0       0    3856     0.00000 0.00000 0.00000 0.00000 0.00000 0.00000   -5784   -0.52    0.46  1.0000
  15  15   0     370    6042     0.00000 0.00000 0.00000 0.00000 0.00000 0.00000   -3723  -19.48   -0.39  1.0000
   0  16   0   97610    4384     0.00000 0.00000 0.00000 0.00000 0.00000 0.00000  108762  -17.65   -0.21  1.0000
   2  16   0   75114    2816     0.00000 0.00000 0.00000 0.00000 0.00000 0.00000   67983   13.59   -0.56  1.0000
   4  16   0    2620    2441     0.00000 0.00000 0.00000 0.00000 0.00000 0.00000   -1706   51.82   -0.51  1.0000
   6  16   0   12014    2811     0.00000 0.00000 0.00000 0.00000 0.00000 0.00000   12489   -2.16    0.97  1.0000
   8  16   0   13042    3079     0.00000 0.00000 0.00000 0.00000 0.00000 0.00000   14110    4.67   -0.29  1.0000
  10  16   0     104    4056     0.00000 0.00000 0.00000 0.00000 0.00000 0.00000     587  -14.21   -0.01  1.0000
  12  16   0     201    3930     0.00000 0.00000 0.00000 0.00000 0.00000 0.00000   -4918   14.37    0.24  1.0000
  14  16   0       7    4474     0.00000 0.00000 0.00000 0.00000 0.00000 0.00000   -5738   -2.67    0.09  1.0000
  16  16   0      42    6771     0.00000 0.00000 0.00000 0.00000 0.00000 0.00000   -9878   -6.59    0.26  1.0000
   1  17   0    1054    2249     0.00000 0.00000 0.00000 0.00000 0.00000 0.00000    9411   66.45    0.90  1.0000
   3  17   0   32556    3056     0.00000 0.00000 0.00000 0.00000 0.00000 0.00000   33958    3.80    1.14  1.0000
   5  17   0   22824    2895     0.00000 0.00000 0.00000 0.00000 0.00000 0.00000   21820    3.36    0.70  1.0000
   7  17   0   12253    3119     0.00000 0.00000 0.00000 0.00000 0.00000 0.00000   17326   20.96    3.20  1.0000
   9  17   0    4493    3422     0.00000 0.00000 0.00000 0.00000 0.00000 0.00000    3211   10.34    1.94  1.0000
  11  17   0      21    4070     0.00000 0.00000 0.00000 0.00000 0.00000 0.00000   -6105   -4.65    0.14  1.0000
  13  17   0     173    4258     0.00000 0.00000 0.00000 0.00000 0.00000 0.00000   -6388  -13.29   -0.54  1.0000
  15  17   0       2    4688     0.00000 0.00000 0.00000 0.00000 0.00000 0.00000   -7032    1.33    0.41  1.0000
  17  17   0       9    7262     0.00000 0.00000 0.00000 0.00000 0.00000 0.00000   -6248    3.08   -0.09  1.0000
   0  18   0     417    3604     0.00000 0.00000 0.00000 0.00000 0.00000 0.00000   12600  -92.96    1.09  1.0000
   2  18   0  123998    4074     0.00000 0.00000 0.00000 0.00000 0.00000 0.00000  120199   -5.51   -0.39  1.0000
   4  18   0   12266    2874     0.00000 0.00000 0.00000 0.00000 0.00000 0.00000   15260  -13.05    0.50  1.0000
   6  18   0    4075    3376     0.00000 0.00000 0.00000 0.00000 0.00000 0.00000    5256    9.19   -1.84  1.0000
   8  18   0     210    3962     0.00000 0.00000 0.00000 0.00000 0.00000 0.00000   -2437   13.58   -5.51  1.0000
  10  18   0    4226    4113     0.00000 0.00000 0.00000 0.00000 0.00000 0.00000    8104  -25.46   -0.10  1.0000
  12  18   0     154    4481     0.00000 0.00000 0.00000 0.00000 0.00000 0.00000   -3797  -12.52    1.13  1.0000
  14  18   0     225    6347     0.00000 0.00000 0.00000 0.00000 0.00000 0.00000   -6153  -15.18    0.19  1.0000
  16  18   0     128    5204     0.00000 0.00000 0.00000 0.00000 0.00000 0.00000   -4855  -11.46    0.09  1.0000
  18  18   0     352    7401     0.00000 0.00000 0.00000 0.00000 0.00000 0.00000  -11102   18.99    0.37  1.0000
   1  19   0    1743    3280     0.00000 0.00000 0.00000 0.00000 0.00000 0.00000    8589   52.32   -0.08  1.0000
   3  19   0   19894    2948     0.00000 0.00000 0.00000 0.00000 0.00000 0.00000   27810   26.31   -0.93  1.0000
   5  19   0   20354    3533     0.00000 0.00000 0.00000 0.00000 0.00000 0.00000   18532    6.93   -0.86  1.0000
   7  19   0   41804    3755     0.00000 0.00000 0.00000 0.00000 0.00000 0.00000   37638  -10.82    0.26  1.0000
   9  19   0   17375    4032     0.00000 0.00000 0.00000 0.00000 0.00000 0.00000   19774   -9.42    0.88  1.0000
  11  19   0    6963    4482     0.00000 0.00000 0.00000 0.00000 0.00000 0.00000    6528   -2.75   -0.28  1.0000
  13  19   0     994    4743     0.00000 0.00000 0.00000 0.00000 0.00000 0.00000   -1633   31.67   -3.94  1.0000
  15  19   0     271    5290     0.00000 0.00000 0.00000 0.00000 0.00000 0.00000   -2612   16.66   -0.15  1.0000
  17  19   0      52    6601     0.00000 0.00000 0.00000 0.00000 0.00000 0.00000   -5257    7.27   -0.02  1.0000
   0  20   0  166919    7842     0.00000 0.00000 0.00000 0.00000 0.00000 0.00000  192262  -30.63    0.19  1.0000
   2  20   0  102037    4223     0.00000 0.00000 0.00000 0.00000 0.00000 0.00000   99776   -3.60   -0.18  1.0000
   4  20   0   50080    4005     0.00000 0.00000 0.00000 0.00000 0.00000 0.00000   62336  -26.53   -0.11  1.0000
   6  20   0   19331    4045     0.00000 0.00000 0.00000 0.00000 0.00000 0.00000   27749   28.14    0.09  1.0000
   8  20   0    2686    3949     0.00000 0.00000 0.00000 0.00000 0.00000 0.00000   11144  -54.52   -0.18  1.0000
  10  20   0       4    4481     0.00000 0.00000 0.00000 0.00000 0.00000 0.00000   -2694    2.00    0.39  1.0000
  12  20   0     241    5225     0.00000 0.00000 0.00000 0.00000 0.00000 0.00000   -5484  -15.73    0.21  1.0000
  14  20   0     305    5286     0.00000 0.00000 0.00000 0.00000 0.00000 0.00000     951  -13.99    0.29  1.0000
  16  20   0     307    5667     0.00000 0.00000 0.00000 0.00000 0.00000 0.00000   -6205  -17.74   -0.14  1.0000
   1  21   0    4798    3619     0.00000 0.00000 0.00000 0.00000 0.00000 0.00000    8804  -25.34    1.39  1.0000
   3  21   0    4738    4200     0.00000 0.00000 0.00000 0.00000 0.00000 0.00000   12366   43.31    1.20  1.0000
   5  21   0   29441    3815     0.00000 0.00000 0.00000 0.00000 0.00000 0.00000   22268   22.91   -0.31  1.0000
   7  21   0   21200    4094     0.00000 0.00000 0.00000 0.00000 0.00000 0.00000   19013   -8.05    0.59  1.0000
   9  21   0   25012    4007     0.00000 0.00000 0.00000 0.00000 0.00000 0.00000   21371   12.31   -0.38  1.0000
  11  21   0    2649    4930     0.00000 0.00000 0.00000 0.00000 0.00000 0.00000    1354  -15.19   -0.10  1.0000
  13  21   0     463    5340     0.00000 0.00000 0.00000 0.00000 0.00000 0.00000   -5214   21.79   -0.06  1.0000
  15  21   0    4699    6810     0.00000 0.00000 0.00000 0.00000 0.00000 0.00000    2937  -14.75    0.73  1.0000
   0  22   0   18255    6715     0.00000 0.00000 0.00000 0.00000 0.00000 0.00000   15712  -10.14   -0.87  1.0000
   2  22   0    3805    4233     0.00000 0.00000 0.00000 0.00000 0.00000 0.00000    6916  -27.78    0.60  1.0000
   4  22   0    4713    4713     0.00000 0.00000 0.00000 0.00000 0.00000 0.00000    5864   -9.00    0.70  1.0000
   6  22   0    2964    4394     0.00000 0.00000 0.00000 0.00000 0.00000 0.00000    8734   43.23    0.93  1.0000
   8  22   0    3132    4468     0.00000 0.00000 0.00000 0.00000 0.00000 0.00000   10459  -48.65    0.95  1.0000
  10  22   0    1312    4807     0.00000 0.00000 0.00000 0.00000 0.00000 0.00000    2340  -12.31   -0.21  1.0000
  12  22   0    1569    5263     0.00000 0.00000 0.00000 0.00000 0.00000 0.00000    7513  -48.11    0.35  1.0000
   1  23   0    3314    4038     0.00000 0.00000 0.00000 0.00000 0.00000 0.00000    8564   35.54    1.01  1.0000
   3  23   0    4119    6205     0.00000 0.00000 0.00000 0.00000 0.00000 0.00000    9403   34.05   -0.66  1.0000
   5  23   0    9320    5119     0.00000 0.00000 0.00000 0.00000 0.00000 0.00000   17661  -36.97   -2.30  1.0000
   7  23   0   22480    4791     0.00000 0.00000 0.00000 0.00000 0.00000 0.00000   15793  -24.99    0.54  1.0000
   9  23   0   15166    4916     0.00000 0.00000 0.00000 0.00000 0.00000 0.00000   14841    1.47   -0.44  1.0000
  11  23   0    5083    5756     0.00000 0.00000 0.00000 0.00000 0.00000 0.00000   10495   32.86   -0.86  1.0000
   0  24   0   70469   10489     0.00000 0.00000 0.00000 0.00000 0.00000 0.00000   83848  -24.48   -0.08  1.0000
   2  24   0   57040    6515     0.00000 0.00000 0.00000 0.00000 0.00000 0.00000   51935  -11.07   -0.15  1.0000
   4  24   0   22704    5320     0.00000 0.00000 0.00000 0.00000 0.00000 0.00000   24427   -5.62   -0.84  1.0000
   6  24   0   18113    5392     0.00000 0.00000 0.00000 0.00000 0.00000 0.00000   20385    8.34   -0.71  1.0000
   8  24   0    5400    4739     0.00000 0.00000 0.00000 0.00000 0.00000 0.00000   12261  -37.75    0.20  1.0000
   1  25   0    2118    5212     0.00000 0.00000 0.00000 0.00000 0.00000 0.00000    3541  -13.72   -1.40  1.0000
   3  25   0    2782    5334     0.00000 0.00000 0.00000 0.00000 0.00000 0.00000   13585  -65.85    1.06  1.0000
   5  25   0    2000    5370     0.00000 0.00000 0.00000 0.00000 0.00000 0.00000   11004  -60.98    1.78  1.0000
   2   1   1   33588    1833     0.00000 0.00000 0.00000 0.00000 0.00000 0.00000   31933  152.45  -15.14  1.0000
   4   1   1   69536    3559     0.00000 0.00000 0.00000 0.00000 0.00000 0.00000  104736   27.27  -78.98  1.0000
   8   1   1  117794    9073     0.00000 0.00000 0.00000 0.00000 0.00000 0.00000  243201  109.96 -104.67  1.0000
  10   1   1  203789    5658     0.00000 0.00000 0.00000 0.00000 0.00000 0.00000  188638    4.51  -23.64  1.0000
  12   1   1   26928    1827     0.00000 0.00000 0.00000 0.00000 0.00000 0.00000   19159   -3.76   37.64  1.0000
  14   1   1   83207    2862     0.00000 0.00000 0.00000 0.00000 0.00000 0.00000   77754    2.71  -16.30  1.0000
  16   1   1    8366    2006     0.00000 0.00000 0.00000 0.00000 0.00000 0.00000    9482  -21.59  -42.38  1.0000
  18   1   1   12537    2687     0.00000 0.00000 0.00000 0.00000 0.00000 0.00000   16803   20.66   -9.57  1.0000
  20   1   1   18286    6117     0.00000 0.00000 0.00000 0.00000 0.00000 0.00000   27069   25.90   37.33  1.0000
  22   1   1    6091    3769     0.00000 0.00000 0.00000 0.00000 0.00000 0.00000   11044   50.61   78.46  1.0000
  24   1   1   10745    4198     0.00000 0.00000 0.00000 0.00000 0.00000 0.00000   12614   27.51    9.36  1.0000
   1   2   1   34865    1456     0.00000 0.00000 0.00000 0.00000 0.00000 0.00000   29939 -151.81  -14.87  1.0000
   3   2   1   42124    1837     0.00000 0.00000 0.00000 0.00000 0.00000 0.00000   52858  135.10  -23.22  1.0000
   5   2   1   29003    1930     0.00000 0.00000 0.00000 0.00000 0.00000 0.00000   19003  -49.46   13.56  1.0000
   7   2   1   12966   12856     0.00000 0.00000 0.00000 0.00000 0.00000 0.00000   82665 -160.91   78.05  1.0000
   9   2   1   27792    2305     0.00000 0.00000 0.00000 0.00000 0.00000 0.00000   35278  -34.94    7.01  1.0000
  11   2   1    8153    1785     0.00000 0.00000 0.00000 0.00000 0.00000 0.00000    4983   20.73  -13.91  1.0000
  13   2   1    2091    1974     0.00000 0.00000 0.00000 0.00000 0.00000 0.00000    4525   28.23   10.14  1.0000
  15   2   1   16299    2089     0.00000 0.00000 0.00000 0.00000 0.00000 0.00000   16273    2.21   -0.64  1.0000
  17   2   1   10921    2394     0.00000 0.00000 0.00000 0.00000 0.00000 0.00000   13159  -22.92  -51.14  1.0000
  19   2   1     939    2867     0.00000 0.00000 0.00000 0.00000 0.00000 0.00000    6133   12.58  -58.90  1.0000
  21   2   1     500    3646     0.00000 0.00000 0.00000 0.00000 0.00000 0.00000    7831  -53.33   75.39  1.0000
  23   2   1    6446    5343     0.00000 0.00000 0.00000 0.00000 0.00000 0.00000   12108   23.04  -87.07  1.0000
  25   2   1    6507    5328     0.00000 0.00000 0.00000 0.00000 0.00000 0.00000   15275  -38.85  -19.98  1.0000
   2   3   1   43789    2250     0.00000 0.00000 0.00000 0.00000 0.00000 0.00000   53457 -136.70  -21.89  1.0000
   6   3   1   21209    4192     0.00000 0.00000 0.00000 0.00000 0.00000 0.00000   58498   48.04  204.56  1.0000
   8   3   1   69136    5239     0.00000 0.00000 0.00000 0.00000 0.00000 0.00000   27537   64.19  -79.93  1.0000
  10   3   1   94415    2940     0.00000 0.00000 0.00000 0.00000 0.00000 0.00000   79324  -59.37  -15.04  1.0000
  12   3   1   14874    2064     0.00000 0.00000 0.00000 0.00000 0.00000 0.00000   21294  -31.21   14.61  1.0000
  14   3   1   97930    3350     0.00000 0.00000 0.00000 0.00000 0.00000 0.00000  104079   11.98   -4.00  1.0000
  16   3   1    2865    2515     0.00000 0.00000 0.00000 0.00000 0.00000 0.00000   12845   16.06   58.46  1.0000
  18   3   1   11427    2787     0.00000 0.00000 0.00000 0.00000 0.00000 0.00000   13571   -0.67   13.26  1.0000
  20   3   1   18424    4463     0.00000 0.00000 0.00000 0.00000 0.00000 0.00000   24942  -23.02  -59.69  1.0000
  22   3   1    7382    4528     0.00000 0.00000 0.00000 0.00000 0.00000 0.00000   11067   14.51   46.89  1.0000
  24   3   1    8221    5805     0.00000 0.00000 0.00000 0.00000 0.00000 0.00000   16595    3.58  -60.35  1.0000
   1   4   1   69470    3993     0.00000 0.00000 0.00000 0.00000 0.00000 0.00000  106470  -24.87  -79.79  1.0000
   3   4   1    2303    1652     0.00000 0.00000 0.00000 0.00000 0.00000 0.00000    4517 -100.32  -45.55  1.0000
   5   4   1    7216    3824     0.00000 0.00000 0.00000 0.00000 0.00000 0.00000     119   32.20  -77.48  1.0000
   7   4   1    2591    5707     0.00000 0.00000 0.00000 0.00000 0.00000 0.00000    7894  -27.03   44.95  1.0000
   9   4   1    6273    1561     0.00000 0.00000 0.00000 0.00000 0.00000 0.00000    8287  -30.63   58.86  1.0000
  11   4   1    7256    1924     0.00000 0.00000 0.00000 0.00000 0.00000 0.00000   11909   18.89   24.61  1.0000
  13   4   1    6571    2315     0.00000 0.00000 0.00000 0.00000 0.00000 0.00000    7089   17.56    5.10  1.0000
  15   4   1    2411    2303     0.00000 0.00000 0.00000 0.00000 0.00000 0.00000   10769   26.86  -50.07  1.0000
  17   4   1   15544    2934     0.00000 0.00000 0.00000 0.00000 0.00000 0.00000   11428  -15.22  -49.58  1.0000
  19   4   1    4724    3265     0.00000 0.00000 0.00000 0.00000 0.00000 0.00000    6280    5.90   18.52  1.0000
  21   4   1    1615    4216     0.00000 0.00000 0.00000 0.00000 0.00000 0.00000   13208  -10.08   78.94  1.0000
  23   4   1    1524    5041     0.00000 0.00000 0.00000 0.00000 0.00000 0.00000   15542   77.30  -39.26  1.0000
  25   4   1    2230    5734     0.00000 0.00000 0.00000 0.00000 0.00000 0.00000   12519    7.37   79.68  1.0000
   2   5   1   28058    1916     0.00000 0.00000 0.00000 0.00000 0.00000 0.00000   18481   49.30   14.18  1.0000
   4   5   1    9024    5916     0.00000 0.00000 0.00000 0.00000 0.00000 0.00000    1388  -32.52  -77.59  1.0000
   6   5   1   48641    2654     0.00000 0.00000 0.00000 0.00000 0.00000 0.00000   29841   74.12  -17.38  1.0000
   8   5   1   10131    1782     0.00000 0.00000 0.00000 0.00000 0.00000 0.00000   14637  -12.35   19.66  1.0000
  10   5   1   25030    1845     0.00000 0.00000 0.00000 0.00000 0.00000 0.00000   18166   23.92   -7.05  1.0000
  12   5   1    8896    2163     0.00000 0.00000 0.00000 0.00000 0.00000 0.00000    8648   29.18   16.57  1.0000
  14   5   1   18349    3179     0.00000 0.00000 0.00000 0.00000 0.00000 0.00000   13955   26.45   10.06  1.0000
  16   5   1    1046    2879     0.00000 0.00000 0.00000 0.00000 0.00000 0.00000    4158    9.89   31.27  1.0000
  18   5   1    4955    3133     0.00000 0.00000 0.00000 0.00000 0.00000 0.00000    7194   20.07   15.57  1.0000
  20   5   1    3563    3433     0.00000 0.00000 0.00000 0.00000 0.00000 0.00000    5326  -12.29  -28.64  1.0000
  22   5   1    1838    4568     0.00000 0.00000 0.00000 0.00000 0.00000 0.00000   11481  -61.14   22.33  1.0000
  24   5   1    4543    5339     0.00000 0.00000 0.00000 0.00000 0.00000 0.00000   16505  -52.39  -65.32  1.0000
   1   6   1   42672    7710     0.00000 0.00000 0.00000 0.00000 0.00000 0.00000  127794  117.18  105.45  1.0000
   5   6   1   47673    4097     0.00000 0.00000 0.00000 0.00000 0.00000 0.00000   29454  -74.04  -17.29  1.0000
   7   6   1   28186    2261     0.00000 0.00000 0.00000 0.00000 0.00000 0.00000   36161  -19.06  -48.38  1.0000
   9   6   1   31326    2301     0.00000 0.00000 0.00000 0.00000 0.00000 0.00000   41862  -28.27   25.40  1.0000
  11   6   1   20359    2321     0.00000 0.00000 0.00000 0.00000 0.00000 0.00000   26245  -12.54  -15.07  1.0000
  13   6   1    9091    2704     0.00000 0.00000 0.00000 0.00000 0.00000 0.00000   13120   19.80   -7.93  1.0000
  15   6   1     568    2819     0.00000 0.00000 0.00000 0.00000 0.00000 0.00000    2911   26.19  -15.76  1.0000
  17   6   1   16270    3142     0.00000 0.00000 0.00000 0.00000 0.00000 0.00000   10997  -32.82    0.64  1.0000
  19   6   1    6875    3682     0.00000 0.00000 0.00000 0.00000 0.00000 0.00000    4565  -18.95   18.66  1.0000
  21   6   1    7424    4052     0.00000 0.00000 0.00000 0.00000 0.00000 0.00000    9228    2.22  -15.51  1.0000
  23   6   1    4889    5257     0.00000 0.00000 0.00000 0.00000 0.00000 0.00000    7318   28.42  -14.88  1.0000
  25   6   1   12566    6265     0.00000 0.00000 0.00000 0.00000 0.00000 0.00000   13442   -7.25   40.05  1.0000
   2   7   1   15252   22734     0.00000 0.00000 0.00000 0.00000 0.00000 0.00000   86612  159.31   80.01  1.0000
   4   7   1     931    6293     0.00000 0.00000 0.00000 0.00000 0.00000 0.00000    3817   27.25   44.65  1.0000
   6   7   1   32796    1857     0.00000 0.00000 0.00000 0.00000 0.00000 0.00000   37155   22.03  -51.56  1.0000
   8   7   1    4778    1780     0.00000 0.00000 0.00000 0.00000 0.00000 0.00000    8288  -35.79  -22.81  1.0000
  10   7   1   18544    2098     0.00000 0.00000 0.00000 0.00000 0.00000 0.00000   28259   23.29   22.47  1.0000
  12   7   1   62214    3074     0.00000 0.00000 0.00000 0.00000 0.00000 0.00000   61575   36.77   -9.31  1.0000
  14   7   1   46111    3303     0.00000 0.00000 0.00000 0.00000 0.00000 0.00000   53445   15.64  -17.53  1.0000
  16   7   1    5563    2886     0.00000 0.00000 0.00000 0.00000 0.00000 0.00000    5872   12.39    3.48  1.0000
  18   7   1    5520    4160     0.00000 0.00000 0.00000 0.00000 0.00000 0.00000    9645   30.95   22.33  1.0000
  20   7   1     936    4166     0.00000 0.00000 0.00000 0.00000 0.00000 0.00000    1566   10.70   30.72  1.0000
  22   7   1    1025    5191     0.00000 0.00000 0.00000 0.00000 0.00000 0.00000    3434   27.97    5.66  1.0000
  24   7   1    1256    5314     0.00000 0.00000 0.00000 0.00000 0.00000 0.00000    7515   42.67  -30.83  1.0000
   1   8   1  118541    9110     0.00000 0.00000 0.00000 0.00000 0.00000 0.00000  241376 -110.29 -106.04  1.0000
   3   8   1   74933    3098     0.00000 0.00000 0.00000 0.00000 0.00000 0.00000   29878  -64.54  -80.08  1.0000
   5   8   1    7017    1634     0.00000 0.00000 0.00000 0.00000 0.00000 0.00000   11539   12.75   20.65  1.0000
   7   8   1    4692    1667     0.00000 0.00000 0.00000 0.00000 0.00000 0.00000    7780   35.76  -22.68  1.0000
   9   8   1   12171    2188     0.00000 0.00000 0.00000 0.00000 0.00000 0.00000    6731  -33.66   -0.78  1.0000
  11   8   1   17161    2667     0.00000 0.00000 0.00000 0.00000 0.00000 0.00000   18232    5.59   -9.51  1.0000
  13   8   1    2567    2489     0.00000 0.00000 0.00000 0.00000 0.00000 0.00000    3309  -13.27  -18.85  1.0000
  15   8   1    4276    2818     0.00000 0.00000 0.00000 0.00000 0.00000 0.00000    3714   -6.91   -1.01  1.0000
  17   8   1   19499    3351     0.00000 0.00000 0.00000 0.00000 0.00000 0.00000   19083    0.29    5.92  1.0000
  19   8   1   13152    3792     0.00000 0.00000 0.00000 0.00000 0.00000 0.00000   11380   13.68   -9.10  1.0000
  21   8   1    1197    4142     0.00000 0.00000 0.00000 0.00000 0.00000 0.00000    2667   23.76  -23.52  1.0000
  23   8   1    1850    4869     0.00000 0.00000 0.00000 0.00000 0.00000 0.00000    8532  -44.10   28.22  1.0000
   2   9   1   28635    2511     0.00000 0.00000 0.00000 0.00000 0.00000 0.00000   35469   37.54    6.46  1.0000
   4   9   1   14957    1597     0.00000 0.00000 0.00000 0.00000 0.00000 0.00000    8581   30.96   57.15  1.0000
   6   9   1   30145    2221     0.00000 0.00000 0.00000 0.00000 0.00000 0.00000   40391   20.54   27.14  1.0000
   8   9   1   16675    2053     0.00000 0.00000 0.00000 0.00000 0.00000 0.00000    9453   32.63   -2.14  1.0000
  10   9   1   13155    2773     0.00000 0.00000 0.00000 0.00000 0.00000 0.00000   16939    0.29   17.35  1.0000
  12   9   1   34721    2878     0.00000 0.00000 0.00000 0.00000 0.00000 0.00000   37203   32.43  -26.66  1.0000
  14   9   1   19568    3180     0.00000 0.00000 0.00000 0.00000 0.00000 0.00000   21775   18.04    2.94  1.0000
  16   9   1    6268    3278     0.00000 0.00000 0.00000 0.00000 0.00000 0.00000   10575    0.41  -33.90  1.0000
  18   9   1    1702    3872     0.00000 0.00000 0.00000 0.00000 0.00000 0.00000    1144  -32.28    4.92  1.0000
  20   9   1    1674    4044     0.00000 0.00000 0.00000 0.00000 0.00000 0.00000      83  -31.36    7.90  1.0000
  22   9   1    3947    4800     0.00000 0.00000 0.00000 0.00000 0.00000 0.00000    8513  -20.21  -21.99  1.0000
  24   9   1    4194    5137     0.00000 0.00000 0.00000 0.00000 0.00000 0.00000   11806   49.39    4.47  1.0000
   1  10   1  204627    5031     0.00000 0.00000 0.00000 0.00000 0.00000 0.00000  187107   -5.00  -23.01  1.0000
   3  10   1   95417    2948     0.00000 0.00000 0.00000 0.00000 0.00000 0.00000   85323   56.92  -13.69  1.0000
   5  10   1   21204    1866     0.00000 0.00000 0.00000 0.00000 0.00000 0.00000   15740  -24.24   -6.76  1.0000
   7  10   1   18469    2182     0.00000 0.00000 0.00000 0.00000 0.00000 0.00000   28452  -26.92   19.89  1.0000
   9  10   1   13707    2552     0.00000 0.00000 0.00000 0.00000 0.00000 0.00000   17526    3.69   19.18  1.0000
  11  10   1    9449    2444     0.00000 0.00000 0.00000 0.00000 0.00000 0.00000    7387   17.70   -0.01  1.0000
  13  10   1   17906    3059     0.00000 0.00000 0.00000 0.00000 0.00000 0.00000   19070   -4.31    9.16  1.0000
  15  10   1    4865    3329     0.00000 0.00000 0.00000 0.00000 0.00000 0.00000    8710    1.59   24.05  1.0000
  17  10   1   12136    3849     0.00000 0.00000 0.00000 0.00000 0.00000 0.00000   12018   -3.81    1.22  1.0000
  19  10   1    7215    3892     0.00000 0.00000 0.00000 0.00000 0.00000 0.00000    4184  -21.09    1.59  1.0000
  21  10   1    1717    4408     0.00000 0.00000 0.00000 0.00000 0.00000 0.00000     909    3.75   13.00  1.0000
  23  10   1    5055    5301     0.00000 0.00000 0.00000 0.00000 0.00000 0.00000    4900  -17.98   10.16  1.0000
   2  11   1   10108    1863     0.00000 0.00000 0.00000 0.00000 0.00000 0.00000    5857  -20.13  -17.44  1.0000
   4  11   1   10172    1936     0.00000 0.00000 0.00000 0.00000 0.00000 0.00000   12275  -18.04   23.84  1.0000
   6  11   1   19575    2307     0.00000 0.00000 0.00000 0.00000 0.00000 0.00000   24819   12.91  -13.41  1.0000
   8  11   1   13322    2293     0.00000 0.00000 0.00000 0.00000 0.00000 0.00000   15084   -4.90   -9.45  1.0000
  10  11   1    1841    2422     0.00000 0.00000 0.00000 0.00000 0.00000 0.00000    1247  -16.60   -0.64  1.0000
  12  11   1    7622    3073     0.00000 0.00000 0.00000 0.00000 0.00000 0.00000    7677   -0.37    1.23  1.0000
  14  11   1    4090    3308     0.00000 0.00000 0.00000 0.00000 0.00000 0.00000    5816    6.97   11.71  1.0000
  16  11   1     210    3822     0.00000 0.00000 0.00000 0.00000 0.00000 0.00000   -5733   13.34    6.15  1.0000
  18  11   1    2485    4233     0.00000 0.00000 0.00000 0.00000 0.00000 0.00000    3816   15.53    0.45  1.0000
  20  11   1     851    4699     0.00000 0.00000 0.00000 0.00000 0.00000 0.00000   -7049   28.72   -6.89  1.0000
  22  11   1     574    5053     0.00000 0.00000 0.00000 0.00000 0.00000 0.00000   -1885   13.35  -20.26  1.0000
   1  12   1   17697    1861     0.00000 0.00000 0.00000 0.00000 0.00000 0.00000   18318    2.20   41.96  1.0000
   3  12   1   13652    1935     0.00000 0.00000 0.00000 0.00000 0.00000 0.00000   22201   28.87   16.72  1.0000
   5  12   1    7252    2250     0.00000 0.00000 0.00000 0.00000 0.00000 0.00000   11125  -30.57   17.51  1.0000
   7  12   1   57612    2927     0.00000 0.00000 0.00000 0.00000 0.00000 0.00000   57359  -37.14   -9.45  1.0000
   9  12   1   38855    2602     0.00000 0.00000 0.00000 0.00000 0.00000 0.00000   40688  -30.67  -26.44  1.0000
  11  12   1   10735    2759     0.00000 0.00000 0.00000 0.00000 0.00000 0.00000   11031    0.33    3.93  1.0000
  13  12   1    1678    3376     0.00000 0.00000 0.00000 0.00000 0.00000 0.00000    2186   15.48    5.34  1.0000
  15  12   1    7695    3525     0.00000 0.00000 0.00000 0.00000 0.00000 0.00000    6846   -1.52   -5.53  1.0000
  17  12   1   15222    4264     0.00000 0.00000 0.00000 0.00000 0.00000 0.00000   20924  -11.34  -18.37  1.0000
  19  12   1    4466    4592     0.00000 0.00000 0.00000 0.00000 0.00000 0.00000    4862  -12.93    0.70  1.0000
  21  12   1    1993    5816     0.00000 0.00000 0.00000 0.00000 0.00000 0.00000    1090   -1.34   12.74  1.0000
   2  13   1    2718    1978     0.00000 0.00000 0.00000 0.00000 0.00000 0.00000    4782  -26.48    9.86  1.0000
   4  13   1    6233    2154     0.00000 0.00000 0.00000 0.00000 0.00000 0.00000    6275  -18.37    5.04  1.0000
   6  13   1    8292    2053     0.00000 0.00000 0.00000 0.00000 0.00000 0.00000   12758  -20.79   -7.74  1.0000
   8  13   1    4195    2636     0.00000 0.00000 0.00000 0.00000 0.00000 0.00000    6010   13.93  -19.59  1.0000
  10  13   1   13162    2836     0.00000 0.00000 0.00000 0.00000 0.00000 0.00000   14962    4.00    9.34  1.0000
  12  13   1    1050    3551     0.00000 0.00000 0.00000 0.00000 0.00000 0.00000     865  -14.89    5.79  1.0000
  14  13   1    6261    3580     0.00000 0.00000 0.00000 0.00000 0.00000 0.00000    4339   -0.13  -15.98  1.0000
  16  13   1      69    4096     0.00000 0.00000 0.00000 0.00000 0.00000 0.00000   -2595   -0.61    8.39  1.0000
  18  13   1      55    4639     0.00000 0.00000 0.00000 0.00000 0.00000 0.00000   -2626    6.71   -3.35  1.0000
  20  13   1      15    4992     0.00000 0.00000 0.00000 0.00000 0.00000 0.00000   -2565    3.26    2.13  1.0000
  22  13   1       9    5788     0.00000 0.00000 0.00000 0.00000 0.00000 0.00000   -3177   -1.75    2.47  1.0000
   1  14   1   82509    2944     0.00000 0.00000 0.00000 0.00000 0.00000 0.00000   76422   -3.26  -15.37  1.0000
   3  14   1   93721    3483     0.00000 0.00000 0.00000 0.00000 0.00000 0.00000  100274  -13.39   -4.52  1.0000
   5  14   1   16638    2435     0.00000 0.00000 0.00000 0.00000 0.00000 0.00000   13866  -24.06   10.62  1.0000
   7  14   1   40030    3729     0.00000 0.00000 0.00000 0.00000 0.00000 0.00000   47141  -14.13  -18.98  1.0000
   9  14   1   26470    3054     0.00000 0.00000 0.00000 0.00000 0.00000 0.00000   28968  -19.67    1.82  1.0000
  11  14   1    5292    3370     0.00000 0.00000 0.00000 0.00000 0.00000 0.00000    7185  -11.77   10.32  1.0000
  13  14   1    1568    3668     0.00000 0.00000 0.00000 0.00000 0.00000 0.00000     697   -0.10  -17.11  1.0000
  15  14   1    2098    4171     0.00000 0.00000 0.00000 0.00000 0.00000 0.00000    3321   -1.59   11.87  1.0000
  17  14   1      32    4484     0.00000 0.00000 0.00000 0.00000 0.00000 0.00000   -2694    5.55   -1.32  1.0000
  19  14   1      91    4995     0.00000 0.00000 0.00000 0.00000 0.00000 0.00000   -7492   -2.77    9.27  1.0000
  21  14   1     331    5450     0.00000 0.00000 0.00000 0.00000 0.00000 0.00000   -8175   17.94   -4.21  1.0000
   2  15   1   16066    2011     0.00000 0.00000 0.00000 0.00000 0.00000 0.00000   15809   -1.42    0.59  1.0000
   4  15   1    2533    2322     0.00000 0.00000 0.00000 0.00000 0.00000 0.00000   11083  -26.55  -50.37  1.0000
   6  15   1    4571    2582     0.00000 0.00000 0.00000 0.00000 0.00000 0.00000    9422  -25.55  -15.38  1.0000
   8  15   1    5417    2966     0.00000 0.00000 0.00000 0.00000 0.00000 0.00000    4582    5.93   -2.94  1.0000
  10  15   1   16307    4444     0.00000 0.00000 0.00000 0.00000 0.00000 0.00000   22837   -4.33   23.33  1.0000
  12  15   1    8143    3653     0.00000 0.00000 0.00000 0.00000 0.00000 0.00000    7285    2.82   -4.40  1.0000
  14  15   1     124    4241     0.00000 0.00000 0.00000 0.00000 0.00000 0.00000   -3766    2.42   11.01  1.0000
  16  15   1       6    4476     0.00000 0.00000 0.00000 0.00000 0.00000 0.00000   -6714    1.71    1.66  1.0000
  18  15   1     191    5195     0.00000 0.00000 0.00000 0.00000 0.00000 0.00000   -6103   -0.53   13.97  1.0000
  20  15   1    1980    5525     0.00000 0.00000 0.00000 0.00000 0.00000 0.00000    2829   -7.47   -4.90  1.0000
   1  16   1    9578    2078     0.00000 0.00000 0.00000 0.00000 0.00000 0.00000   12693   19.57  -42.28  1.0000
   3  16   1     876    2431     0.00000 0.00000 0.00000 0.00000 0.00000 0.00000    7888  -17.70   58.21  1.0000
   5  16   1    5963    4696     0.00000 0.00000 0.00000 0.00000 0.00000 0.00000   11865  -10.08   31.32  1.0000
   7  16   1    7167    3029     0.00000 0.00000 0.00000 0.00000 0.00000 0.00000    7853  -15.22    4.54  1.0000
   9  16   1    6270    3336     0.00000 0.00000 0.00000 0.00000 0.00000 0.00000   10350    1.90  -31.95  1.0000
  11  16   1     401    4429     0.00000 0.00000 0.00000 0.00000 0.00000 0.00000      67  -12.69    5.90  1.0000
  13  16   1      75    4083     0.00000 0.00000 0.00000 0.00000 0.00000 0.00000   -5708    0.62    8.76  1.0000
  15  16   1       6    4483     0.00000 0.00000 0.00000 0.00000 0.00000 0.00000   -6724   -1.63    1.88  1.0000
  17  16   1      31    5219     0.00000 0.00000 0.00000 0.00000 0.00000 0.00000   -6222    5.40   -1.54  1.0000
  19  16   1      98    5540     0.00000 0.00000 0.00000 0.00000 0.00000 0.00000   -3172    2.62   -9.70  1.0000
   2  17   1   10376    2353     0.00000 0.00000 0.00000 0.00000 0.00000 0.00000   13659   23.58  -51.14  1.0000
   4  17   1   13805    2441     0.00000 0.00000 0.00000 0.00000 0.00000 0.00000    8218   16.42  -51.41  1.0000
   6  17   1   21073    3158     0.00000 0.00000 0.00000 0.00000 0.00000 0.00000   15651   34.08    0.29  1.0000
   8  17   1   15634    3421     0.00000 0.00000 0.00000 0.00000 0.00000 0.00000   15801   -0.17    5.65  1.0000
  10  17   1    6020    3929     0.00000 0.00000 0.00000 0.00000 0.00000 0.00000    5884    3.71    1.41  1.0000
  12  17   1    5075    4223     0.00000 0.00000 0.00000 0.00000 0.00000 0.00000    8395   12.76  -16.58  1.0000
  14  17   1      27    4654     0.00000 0.00000 0.00000 0.00000 0.00000 0.00000     -97   -5.03   -1.55  1.0000
  16  17   1      31    5014     0.00000 0.00000 0.00000 0.00000 0.00000 0.00000   -7521   -5.55   -0.93  1.0000
  18  17   1      11    5258     0.00000 0.00000 0.00000 0.00000 0.00000 0.00000   -7887    3.27   -0.95  1.0000
   1  18   1   14944    2644     0.00000 0.00000 0.00000 0.00000 0.00000 0.00000   18767  -21.38   -8.78  1.0000
   3  18   1   12912    2659     0.00000 0.00000 0.00000 0.00000 0.00000 0.00000   15618    0.61   13.35  1.0000
   5  18   1    1789    3004     0.00000 0.00000 0.00000 0.00000 0.00000 0.00000    1920  -19.53   14.35  1.0000
   7  18   1    1233    3433     0.00000 0.00000 0.00000 0.00000 0.00000 0.00000    2585  -30.59   22.71  1.0000
   9  18   1    1066    3650     0.00000 0.00000 0.00000 0.00000 0.00000 0.00000   -1708   32.61    5.40  1.0000
  11  18   1     240    4297     0.00000 0.00000 0.00000 0.00000 0.00000 0.00000    -305  -15.66    0.72  1.0000
  13  18   1      55    4581     0.00000 0.00000 0.00000 0.00000 0.00000 0.00000   -5847   -6.71   -3.33  1.0000
  15  18   1     187    5410     0.00000 0.00000 0.00000 0.00000 0.00000 0.00000   -8115   -0.10   13.83  1.0000
  17  18   1      12    5464     0.00000 0.00000 0.00000 0.00000 0.00000 0.00000   -8195   -3.25   -1.49  1.0000
   2  19   1    1777    2850     0.00000 0.00000 0.00000 0.00000 0.00000 0.00000    8735  -11.55  -58.80  1.0000
   4  19   1    8145    3762     0.00000 0.00000 0.00000 0.00000 0.00000 0.00000   10722   -4.88   18.60  1.0000
   6  19   1    5828    3450     0.00000 0.00000 0.00000 0.00000 0.00000 0.00000    2792   18.62   19.40  1.0000
   8  19   1   22446    3990     0.00000 0.00000 0.00000 0.00000 0.00000 0.00000   20331  -13.13   -8.20  1.0000
  10  19   1    6706    4269     0.00000 0.00000 0.00000 0.00000 0.00000 0.00000    3723   21.70    1.11  1.0000
  12  19   1    4083    4693     0.00000 0.00000 0.00000 0.00000 0.00000 0.00000    4292   12.25    0.07  1.0000
  14  19   1      79    5677     0.00000 0.00000 0.00000 0.00000 0.00000 0.00000   -3303    2.86    8.51  1.0000
  16  19   1      98    5421     0.00000 0.00000 0.00000 0.00000 0.00000 0.00000   -6350   -2.67   -9.66  1.0000
   1  20   1   19257    3520     0.00000 0.00000 0.00000 0.00000 0.00000 0.00000   25647  -26.25   34.96  1.0000
   3  20   1   19748    3573     0.00000 0.00000 0.00000 0.00000 0.00000 0.00000   22831   23.31  -60.92  1.0000
   5  20   1    2152    3843     0.00000 0.00000 0.00000 0.00000 0.00000 0.00000    3933   12.46  -28.02  1.0000
   7  20   1    2024    3677     0.00000 0.00000 0.00000 0.00000 0.00000 0.00000    3835  -10.00   29.87  1.0000
   9  20   1     966    4074     0.00000 0.00000 0.00000 0.00000 0.00000 0.00000   -1884   30.58    7.45  1.0000
  11  20   1     103    4644     0.00000 0.00000 0.00000 0.00000 0.00000 0.00000    1008  -29.41   -6.98  1.0000
  13  20   1      12    5598     0.00000 0.00000 0.00000 0.00000 0.00000 0.00000   -3286   -2.94    2.05  1.0000
  15  20   1      72    5433     0.00000 0.00000 0.00000 0.00000 0.00000 0.00000   -5584    7.34   -4.45  1.0000
   2  21   1     685    3406     0.00000 0.00000 0.00000 0.00000 0.00000 0.00000    5956   54.82   74.53  1.0000
   4  21   1     404    3878     0.00000 0.00000 0.00000 0.00000 0.00000 0.00000    8597   10.66   78.68  1.0000
   6  21   1    4240    3815     0.00000 0.00000 0.00000 0.00000 0.00000 0.00000    5627   -2.84  -16.30  1.0000
   8  21   1    2996    3842     0.00000 0.00000 0.00000 0.00000 0.00000 0.00000    5704  -23.99  -23.53  1.0000
  10  21   1    3593    4865     0.00000 0.00000 0.00000 0.00000 0.00000 0.00000    2383   -4.05   12.92  1.0000
  12  21   1     154    5176     0.00000 0.00000 0.00000 0.00000 0.00000 0.00000    -925    1.03   12.52  1.0000
  14  21   1     333    5372     0.00000 0.00000 0.00000 0.00000 0.00000 0.00000   -7667  -17.89   -4.56  1.0000
   1  22   1    4942    3723     0.00000 0.00000 0.00000 0.00000 0.00000 0.00000    8622  -53.57   79.79  1.0000
   3  22   1    6598    4679     0.00000 0.00000 0.00000 0.00000 0.00000 0.00000    9237  -14.52   48.03  1.0000
   5  22   1    2314    4047     0.00000 0.00000 0.00000 0.00000 0.00000 0.00000   12670   61.30   22.77  1.0000
   7  22   1    2680    4193     0.00000 0.00000 0.00000 0.00000 0.00000 0.00000    6024  -26.14    7.64  1.0000
   9  22   1     997    4478     0.00000 0.00000 0.00000 0.00000 0.00000 0.00000    3787   21.84  -21.16  1.0000
  11  22   1    1075    5053     0.00000 0.00000 0.00000 0.00000 0.00000 0.00000    1526  -13.07  -20.39  1.0000
  13  22   1       7    5098     0.00000 0.00000 0.00000 0.00000 0.00000 0.00000   -7648    1.26    2.35  1.0000
   2  23   1    4944    5798     0.00000 0.00000 0.00000 0.00000 0.00000 0.00000    5978  -22.91  -87.32  1.0000
   4  23   1    1595    5316     0.00000 0.00000 0.00000 0.00000 0.00000 0.00000   15412  -78.34  -38.55  1.0000
   6  23   1    6554    5155     0.00000 0.00000 0.00000 0.00000 0.00000 0.00000    8747  -27.94  -15.27  1.0000
   8  23   1    2290    4744     0.00000 0.00000 0.00000 0.00000 0.00000 0.00000    9861   44.20   27.62  1.0000
  10  23   1     412    5041     0.00000 0.00000 0.00000 0.00000 0.00000 0.00000   -1281   17.83   10.25  1.0000
   1  24   1   11962    4712     0.00000 0.00000 0.00000 0.00000 0.00000 0.00000   13979  -28.36   10.00  1.0000
   3  24   1    5337    5099     0.00000 0.00000 0.00000 0.00000 0.00000 0.00000   13841   -2.85  -61.20  1.0000
   5  24   1    3493    5264     0.00000 0.00000 0.00000 0.00000 0.00000 0.00000   10239   51.69  -67.58  1.0000
   7  24   1    2851    5445     0.00000 0.00000 0.00000 0.00000 0.00000 0.00000   10647  -43.66  -30.33  1.0000
   9  24   1     602    5044     0.00000 0.00000 0.00000 0.00000 0.00000 0.00000    3899  -49.31    3.53  1.0000
   2  25   1    4342    5271     0.00000 0.00000 0.00000 0.00000 0.00000 0.00000   12028   39.88  -19.42  1.0000
   4  25   1    4893    5410     0.00000 0.00000 0.00000 0.00000 0.00000 0.00000   18538   -5.72   81.04  1.0000
   6  25   1    9070    5939     0.00000 0.00000 0.00000 0.00000 0.00000 0.00000   10779    7.12   40.25  1.0000
   2   0   2 6533900   99317     0.00000 0.00000 0.00000 0.00000 0.00000 0.00000 2237611  173.47 1078.29  1.0000
   4   0   2  615544    1711     0.00000 0.00000 0.00000 0.00000 0.00000 0.00000   10707  222.57 -730.30  1.0000
   6   0   2  592123   39116     0.00000 0.00000 0.00000 0.00000 0.00000 0.00000  846638  -61.79 -142.49  1.0000
   8   0   2   32085    7462     0.00000 0.00000 0.00000 0.00000 0.00000 0.00000   59555  -30.96   74.73  1.0000
  10   0   2    3926    2494     0.00000 0.00000 0.00000 0.00000 0.00000 0.00000    4172   -0.92    7.74  1.0000
  12   0   2    6760    3781     0.00000 0.00000 0.00000 0.00000 0.00000 0.00000   28175  -87.56   34.05  1.0000
  14   0   2   24927    3421     0.00000 0.00000 0.00000 0.00000 0.00000 0.00000   57673 -106.83   18.08  1.0000
  16   0   2   75896    3359     0.00000 0.00000 0.00000 0.00000 0.00000 0.00000   68278  -74.08   18.83  1.0000
  18   0   2  187891    7276     0.00000 0.00000 0.00000 0.00000 0.00000 0.00000  174125   -8.75  -18.57  1.0000
  20   0   2   22064    6350     0.00000 0.00000 0.00000 0.00000 0.00000 0.00000   27904   18.71   26.40  1.0000
  22   0   2   16458    5529     0.00000 0.00000 0.00000 0.00000 0.00000 0.00000   29759   17.21   41.55  1.0000
  24   0   2   20072    8313     0.00000 0.00000 0.00000 0.00000 0.00000 0.00000   22225   -9.94   -2.09  1.0000
   3   1   2  683393   16614     0.00000 0.00000 0.00000 0.00000 0.00000 0.00000  566417  310.78  137.69  1.0000
   5   1   2   62371    2424     0.00000 0.00000 0.00000 0.00000 0.00000 0.00000   33256  233.33  -33.84  1.0000
   7   1   2   66216   11708     0.00000 0.00000 0.00000 0.00000 0.00000 0.00000   47596  -64.47   42.69  1.0000
   9   1   2   28455    1877     0.00000 0.00000 0.00000 0.00000 0.00000 0.00000   22209   -3.62  -21.23  1.0000
  11   1   2    9333    1969     0.00000 0.00000 0.00000 0.00000 0.00000 0.00000   13682   58.38   36.54  1.0000
  13   1   2   71277    2828     0.00000 0.00000 0.00000 0.00000 0.00000 0.00000   64874   17.62   -3.29  1.0000
  15   1   2   34863    2150     0.00000 0.00000 0.00000 0.00000 0.00000 0.00000   36643   17.73    0.58  1.0000
  17   1   2   17845    2454     0.00000 0.00000 0.00000 0.00000 0.00000 0.00000   19238  -13.62    2.85  1.0000
  19   1   2    1700    3110     0.00000 0.00000 0.00000 0.00000 0.00000 0.00000    4186    2.19   24.47  1.0000
  21   1   2    6251    4114     0.00000 0.00000 0.00000 0.00000 0.00000 0.00000    6050   31.62    5.32  1.0000
  23   1   2    1417    4565     0.00000 0.00000 0.00000 0.00000 0.00000 0.00000    7494  -56.29   30.03  1.0000
  25   1   2    1044    5961     0.00000 0.00000 0.00000 0.00000 0.00000 0.00000   10110  -58.89  -43.01  1.0000
   0   2   2 6371367  113761     0.00000 0.00000 0.00000 0.00000 0.00000 0.00000 2140286  169.05-1077.93  1.0000
   2   2   2    4877     924     0.00000 0.00000 0.00000 0.00000 0.00000 0.00000     740   98.25    1.04  1.0000
   4   2   2  104866    1193     0.00000 0.00000 0.00000 0.00000 0.00000 0.00000    4926   -3.86  392.66  1.0000
   6   2   2   73574    8224     0.00000 0.00000 0.00000 0.00000 0.00000 0.00000  101271  -79.74   41.61  1.0000
   8   2   2   19585    5552     0.00000 0.00000 0.00000 0.00000 0.00000 0.00000   52110    2.24  -89.62  1.0000
  10   2   2   16263    1922     0.00000 0.00000 0.00000 0.00000 0.00000 0.00000   10789  -39.12   -8.07  1.0000
  12   2   2   23010    1964     0.00000 0.00000 0.00000 0.00000 0.00000 0.00000   18037  -30.75   23.29  1.0000
  14   2   2   89692    3057     0.00000 0.00000 0.00000 0.00000 0.00000 0.00000   80666   21.29  -12.61  1.0000
  16   2   2   37279    2834     0.00000 0.00000 0.00000 0.00000 0.00000 0.00000   52565   39.44  -22.43  1.0000
  18   2   2    6450    2839     0.00000 0.00000 0.00000 0.00000 0.00000 0.00000   13771   28.19  -28.46  1.0000
  20   2   2  103845    5254     0.00000 0.00000 0.00000 0.00000 0.00000 0.00000  117230   25.59  -13.79  1.0000
  22   2   2   17591    4058     0.00000 0.00000 0.00000 0.00000 0.00000 0.00000   18100   50.57   -8.63  1.0000
  24   2   2    8790    5214     0.00000 0.00000 0.00000 0.00000 0.00000 0.00000   22852   62.27    6.08  1.0000
   1   3   2  708377   16616     0.00000 0.00000 0.00000 0.00000 0.00000 0.00000  580995  309.48 -138.41  1.0000
   5   3   2   63496    5527     0.00000 0.00000 0.00000 0.00000 0.00000 0.00000   77098   59.80  -45.44  1.0000
   7   3   2    4723    3746     0.00000 0.00000 0.00000 0.00000 0.00000 0.00000   14060   68.44   -9.72  1.0000
   9   3   2   20829    1791     0.00000 0.00000 0.00000 0.00000 0.00000 0.00000   14074  -26.65  -11.99  1.0000
  11   3   2   35588    2185     0.00000 0.00000 0.00000 0.00000 0.00000 0.00000   40582   -5.14  -11.93  1.0000
  13   3   2   51106    3093     0.00000 0.00000 0.00000 0.00000 0.00000 0.00000   51710   -1.36    2.33  1.0000
  15   3   2   25874    2288     0.00000 0.00000 0.00000 0.00000 0.00000 0.00000   30055    3.26  -13.58  1.0000
  17   3   2    4032    3598     0.00000 0.00000 0.00000 0.00000 0.00000 0.00000    5345   10.06   -2.40  1.0000
  19   3   2   11387    3134     0.00000 0.00000 0.00000 0.00000 0.00000 0.00000    9907  -33.82   31.32  1.0000
  21   3   2   13897    3697     0.00000 0.00000 0.00000 0.00000 0.00000 0.00000   13620  -31.54  -12.54  1.0000
  23   3   2    3461    5062     0.00000 0.00000 0.00000 0.00000 0.00000 0.00000   10221  -30.47  -32.04  1.0000
  25   3   2    2027    5400     0.00000 0.00000 0.00000 0.00000 0.00000 0.00000   14710  -82.17    1.34  1.0000
   0   4   2  629005    2774     0.00000 0.00000 0.00000 0.00000 0.00000 0.00000    6484  221.61  731.83  1.0000
   2   4   2  108885    1237     0.00000 0.00000 0.00000 0.00000 0.00000 0.00000    3527   -1.31 -392.65  1.0000
   4   4   2    5009    3470     0.00000 0.00000 0.00000 0.00000 0.00000 0.00000     348  -52.76   -1.14  1.0000
   6   4   2   73112    4542     0.00000 0.00000 0.00000 0.00000 0.00000 0.00000   56462   35.19 -122.00  1.0000
   8   4   2   18080    1856     0.00000 0.00000 0.00000 0.00000 0.00000 0.00000   27099    4.77   30.28  1.0000
  10   4   2    5032    1626     0.00000 0.00000 0.00000 0.00000 0.00000 0.00000    7590  -25.55  -11.10  1.0000
  12   4   2    1939    2485     0.00000 0.00000 0.00000 0.00000 0.00000 0.00000    2620   -2.27    7.38  1.0000
  14   4   2    5718    2132     0.00000 0.00000 0.00000 0.00000 0.00000 0.00000    3632  -11.11   13.45  1.0000
  16   4   2   16310    2712     0.00000 0.00000 0.00000 0.00000 0.00000 0.00000   16370   29.37    5.66  1.0000
  18   4   2   28844    3185     0.00000 0.00000 0.00000 0.00000 0.00000 0.00000   33949   25.66   16.85  1.0000
  20   4   2   45610    5209     0.00000 0.00000 0.00000 0.00000 0.00000 0.00000   47272  -21.99   -4.43  1.0000
  22   4   2   15266    5133     0.00000 0.00000 0.00000 0.00000 0.00000 0.00000   18275  -20.75   22.47  1.0000
  24   4   2   19193    5358     0.00000 0.00000 0.00000 0.00000 0.00000 0.00000   16813   86.87   39.28  1.0000
   1   5   2   66878    2733     0.00000 0.00000 0.00000 0.00000 0.00000 0.00000   30111  230.27   33.85  1.0000
   3   5   2   52636    5030     0.00000 0.00000 0.00000 0.00000 0.00000 0.00000   59928   60.19   45.13  1.0000
   5   5   2   29658    3932     0.00000 0.00000 0.00000 0.00000 0.00000 0.00000   23916  -17.79    0.01  1.0000
   7   5   2    2819    2560     0.00000 0.00000 0.00000 0.00000 0.00000 0.00000    6639    0.56   28.74  1.0000
   9   5   2    8237    1533     0.00000 0.00000 0.00000 0.00000 0.00000 0.00000    4032    6.64  -27.71  1.0000
  11   5   2    4530    1918     0.00000 0.00000 0.00000 0.00000 0.00000 0.00000    5007   -0.85   16.46  1.0000
  13   5   2    7231    2552     0.00000 0.00000 0.00000 0.00000 0.00000 0.00000    5697   12.45   27.84  1.0000
  15   5   2    3334    2421     0.00000 0.00000 0.00000 0.00000 0.00000 0.00000    5087    7.42  -41.53  1.0000
  17   5   2   15977    2964     0.00000 0.00000 0.00000 0.00000 0.00000 0.00000   17982   16.34    9.95  1.0000
  19   5   2   43133    3634     0.00000 0.00000 0.00000 0.00000 0.00000 0.00000   45185   -2.98    4.36  1.0000
  21   5   2   19342    4400     0.00000 0.00000 0.00000 0.00000 0.00000 0.00000   14659   -7.53  -20.64  1.0000
  23   5   2   24920    4905     0.00000 0.00000 0.00000 0.00000 0.00000 0.00000   19306   -2.95  -20.13  1.0000
  25   5   2    7009    5586     0.00000 0.00000 0.00000 0.00000 0.00000 0.00000   16944  -87.25   12.89  1.0000
   0   6   2  597857   39182     0.00000 0.00000 0.00000 0.00000 0.00000 0.00000  851847  -57.88  142.68  1.0000
   2   6   2   75133    7360     0.00000 0.00000 0.00000 0.00000 0.00000 0.00000  106029  -76.13  -43.94  1.0000
   4   6   2   64604    4599     0.00000 0.00000 0.00000 0.00000 0.00000 0.00000   48250   34.45  122.34  1.0000
   6   6   2     453    3597     0.00000 0.00000 0.00000 0.00000 0.00000 0.00000   14144   98.56    8.20  1.0000
   8   6   2   23269    1561     0.00000 0.00000 0.00000 0.00000 0.00000 0.00000   18420   20.81   32.69  1.0000
  10   6   2   33873    2260     0.00000 0.00000 0.00000 0.00000 0.00000 0.00000   39642  -28.70    0.49  1.0000
  12   6   2    9861    2392     0.00000 0.00000 0.00000 0.00000 0.00000 0.00000    8528  -47.36    4.99  1.0000
  14   6   2   22458    2701     0.00000 0.00000 0.00000 0.00000 0.00000 0.00000   14473   19.42  -22.89  1.0000
  16   6   2    3517    3277     0.00000 0.00000 0.00000 0.00000 0.00000 0.00000    5495   32.42  -49.16  1.0000
  18   6   2    5169    3308     0.00000 0.00000 0.00000 0.00000 0.00000 0.00000    6070  -11.66    7.77  1.0000
  20   6   2    6991    3945     0.00000 0.00000 0.00000 0.00000 0.00000 0.00000    6429   -4.40    1.27  1.0000
  22   6   2    3526    4878     0.00000 0.00000 0.00000 0.00000 0.00000 0.00000    3746   18.85   -5.54  1.0000
  24   6   2   16227    6425     0.00000 0.00000 0.00000 0.00000 0.00000 0.00000   28766   62.90   22.06  1.0000
   1   7   2   56634    8353     0.00000 0.00000 0.00000 0.00000 0.00000 0.00000   37868  -63.74  -43.69  1.0000
   3   7   2    7074    5702     0.00000 0.00000 0.00000 0.00000 0.00000 0.00000   14959   66.46    8.80  1.0000
   5   7   2    2081    3879     0.00000 0.00000 0.00000 0.00000 0.00000 0.00000    5291   -0.87  -27.49  1.0000
   7   7   2   33857    1863     0.00000 0.00000 0.00000 0.00000 0.00000 0.00000   20390  -41.73    2.06  1.0000
   9   7   2   13198    1944     0.00000 0.00000 0.00000 0.00000 0.00000 0.00000    9637    8.58   16.31  1.0000
  11   7   2   21829    2169     0.00000 0.00000 0.00000 0.00000 0.00000 0.00000   23025  -22.00  -10.56  1.0000
  13   7   2   17176    3157     0.00000 0.00000 0.00000 0.00000 0.00000 0.00000   16719   22.59    4.76  1.0000
  15   7   2     117    2803     0.00000 0.00000 0.00000 0.00000 0.00000 0.00000     796   18.18   -2.83  1.0000
  17   7   2   31042    3291     0.00000 0.00000 0.00000 0.00000 0.00000 0.00000   32193  -12.56    1.82  1.0000
  19   7   2   25573    3446     0.00000 0.00000 0.00000 0.00000 0.00000 0.00000   23365    5.55   11.23  1.0000
  21   7   2   12610    4326     0.00000 0.00000 0.00000 0.00000 0.00000 0.00000   11617   -4.88    3.90  1.0000
  23   7   2   15487    5190     0.00000 0.00000 0.00000 0.00000 0.00000 0.00000   13555  -15.33    3.17  1.0000
   0   8   2   34948    6065     0.00000 0.00000 0.00000 0.00000 0.00000 0.00000   64383  -32.19  -75.55  1.0000
   2   8   2   15265    5238     0.00000 0.00000 0.00000 0.00000 0.00000 0.00000   44991    2.72   89.87  1.0000
   4   8   2   20036    2212     0.00000 0.00000 0.00000 0.00000 0.00000 0.00000   29636   -1.53  -31.08  1.0000
   6   8   2   23959    1675     0.00000 0.00000 0.00000 0.00000 0.00000 0.00000   17989   25.22  -38.01  1.0000
   8   8   2    2037    1897     0.00000 0.00000 0.00000 0.00000 0.00000 0.00000    4740   17.27  -19.62  1.0000
  10   8   2    5129    2514     0.00000 0.00000 0.00000 0.00000 0.00000 0.00000    3119    9.48  -12.85  1.0000
  12   8   2    3714    2482     0.00000 0.00000 0.00000 0.00000 0.00000 0.00000    1930   17.80   39.82  1.0000
  14   8   2   21230    2868     0.00000 0.00000 0.00000 0.00000 0.00000 0.00000   22341   18.61    7.79  1.0000
  16   8   2    7853    3211     0.00000 0.00000 0.00000 0.00000 0.00000 0.00000    5441   -7.55   32.72  1.0000
  18   8   2    1713    3559     0.00000 0.00000 0.00000 0.00000 0.00000 0.00000     114  -19.43   25.62  1.0000
  20   8   2    3974    3843     0.00000 0.00000 0.00000 0.00000 0.00000 0.00000    4750   -9.71    0.72  1.0000
  22   8   2    4454    4628     0.00000 0.00000 0.00000 0.00000 0.00000 0.00000    3048  -18.56    1.68  1.0000
  24   8   2    1898    5364     0.00000 0.00000 0.00000 0.00000 0.00000 0.00000    4501  -21.79    9.61  1.0000
   1   9   2   28945    2338     0.00000 0.00000 0.00000 0.00000 0.00000 0.00000   22137   -2.55   22.27  1.0000
   3   9   2   20442    1641     0.00000 0.00000 0.00000 0.00000 0.00000 0.00000   13981  -26.95   12.40  1.0000
   5   9   2   10833    1650     0.00000 0.00000 0.00000 0.00000 0.00000 0.00000    5631    4.13   30.57  1.0000
   7   9   2   11875    1841     0.00000 0.00000 0.00000 0.00000 0.00000 0.00000    8940    9.47  -11.14  1.0000
   9   9   2   11665    2372     0.00000 0.00000 0.00000 0.00000 0.00000 0.00000   14011   10.44    2.30  1.0000
  11   9   2    1325    2336     0.00000 0.00000 0.00000 0.00000 0.00000 0.00000    1399   -8.97   -4.58  1.0000
  13   9   2    9934    2945     0.00000 0.00000 0.00000 0.00000 0.00000 0.00000   14363   -6.07  -20.90  1.0000
  15   9   2    3817    3159     0.00000 0.00000 0.00000 0.00000 0.00000 0.00000    5682   21.03  -14.92  1.0000
  17   9   2    4307    3321     0.00000 0.00000 0.00000 0.00000 0.00000 0.00000    7349   20.81  -18.34  1.0000
  19   9   2   34193    3787     0.00000 0.00000 0.00000 0.00000 0.00000 0.00000   30823   15.19   -3.10  1.0000
  21   9   2   22220    4599     0.00000 0.00000 0.00000 0.00000 0.00000 0.00000   24562    1.13    7.81  1.0000
  23   9   2   14583    5090     0.00000 0.00000 0.00000 0.00000 0.00000 0.00000   14230   -9.83   -4.84  1.0000
   0  10   2      57    2152     0.00000 0.00000 0.00000 0.00000 0.00000 0.00000    -327   -0.40   -7.66  1.0000
   2  10   2   17198    1806     0.00000 0.00000 0.00000 0.00000 0.00000 0.00000   11567  -38.91    7.57  1.0000
   4  10   2    3216    1723     0.00000 0.00000 0.00000 0.00000 0.00000 0.00000    5199  -25.96    9.62  1.0000
   6  10   2   36212    2284     0.00000 0.00000 0.00000 0.00000 0.00000 0.00000   41023  -28.06    3.24  1.0000
   8  10   2    5319    2112     0.00000 0.00000 0.00000 0.00000 0.00000 0.00000    3621    1.75   15.00  1.0000
  10  10   2    8238    2338     0.00000 0.00000 0.00000 0.00000 0.00000 0.00000   10230   10.47    2.39  1.0000
  12  10   2    2271    2958     0.00000 0.00000 0.00000 0.00000 0.00000 0.00000    4015  -10.58   12.17  1.0000
  14  10   2     197    3168     0.00000 0.00000 0.00000 0.00000 0.00000 0.00000    -274  -10.46    9.63  1.0000
  16  10   2    2250    3202     0.00000 0.00000 0.00000 0.00000 0.00000 0.00000    1993    0.18   -3.16  1.0000
  18  10   2    1094    3580     0.00000 0.00000 0.00000 0.00000 0.00000 0.00000    4138  -45.52    6.36  1.0000
  20  10   2     437    4073     0.00000 0.00000 0.00000 0.00000 0.00000 0.00000   -2924  -21.09   -1.71  1.0000
  22  10   2     146    5206     0.00000 0.00000 0.00000 0.00000 0.00000 0.00000    -699   -2.70   11.94  1.0000
   1  11   2   11948    1660     0.00000 0.00000 0.00000 0.00000 0.00000 0.00000   11746   58.98  -36.18  1.0000
   3  11   2   39105    2218     0.00000 0.00000 0.00000 0.00000 0.00000 0.00000   44515   -5.12   12.39  1.0000
   5  11   2    4441    1759     0.00000 0.00000 0.00000 0.00000 0.00000 0.00000    4902    0.45  -14.93  1.0000
   7  11   2   23638    2391     0.00000 0.00000 0.00000 0.00000 0.00000 0.00000   23389  -19.53   13.16  1.0000
   9  11   2    4329    2307     0.00000 0.00000 0.00000 0.00000 0.00000 0.00000    4197   -8.19    6.18  1.0000
  11  11   2      74    2736     0.00000 0.00000 0.00000 0.00000 0.00000 0.00000   -3874   -8.70    0.74  1.0000
  13  11   2     538    3136     0.00000 0.00000 0.00000 0.00000 0.00000 0.00000   -1962  -19.84   12.56  1.0000
  15  11   2    2693    3524     0.00000 0.00000 0.00000 0.00000 0.00000 0.00000    2708  -11.98    3.80  1.0000
  17  11   2     189    4006     0.00000 0.00000 0.00000 0.00000 0.00000 0.00000   -3619   -1.06   13.87  1.0000
  19  11   2    7486    4447     0.00000 0.00000 0.00000 0.00000 0.00000 0.00000   10526    6.07  -17.39  1.0000
  21  11   2   12166    5213     0.00000 0.00000 0.00000 0.00000 0.00000 0.00000   13194    2.55   -4.02  1.0000
  23  11   2    1674    5929     0.00000 0.00000 0.00000 0.00000 0.00000 0.00000    1128   -4.74    5.94  1.0000
   0  12   2   12275    4418     0.00000 0.00000 0.00000 0.00000 0.00000 0.00000   33879  -86.62  -34.58  1.0000
   2  12   2   26169    2427     0.00000 0.00000 0.00000 0.00000 0.00000 0.00000   20895  -30.85  -23.07  1.0000
   4  12   2     955    1887     0.00000 0.00000 0.00000 0.00000 0.00000 0.00000    1306   -1.65   -6.96  1.0000
   6  12   2   10676    2206     0.00000 0.00000 0.00000 0.00000 0.00000 0.00000    9555  -49.83   -5.72  1.0000
   8  12   2    4657    2540     0.00000 0.00000 0.00000 0.00000 0.00000 0.00000    2765   18.91  -35.59  1.0000
  10  12   2    5076    2881     0.00000 0.00000 0.00000 0.00000 0.00000 0.00000    7563   -6.69  -16.10  1.0000
  12  12   2    1191    3024     0.00000 0.00000 0.00000 0.00000 0.00000 0.00000     452  -13.42   -1.21  1.0000
  14  12   2     105    3472     0.00000 0.00000 0.00000 0.00000 0.00000 0.00000   -1083    9.97   -2.81  1.0000
  16  12   2     125    3864     0.00000 0.00000 0.00000 0.00000 0.00000 0.00000   -5796    5.62    9.83  1.0000
  18  12   2    1821    4484     0.00000 0.00000 0.00000 0.00000 0.00000 0.00000    7383  -44.41   18.05  1.0000
  20  12   2     420    4910     0.00000 0.00000 0.00000 0.00000 0.00000 0.00000   -1190  -18.24   -9.90  1.0000
  22  12   2     365    6321     0.00000 0.00000 0.00000 0.00000 0.00000 0.00000   -2338  -18.76    4.71  1.0000
   1  13   2   63004    3173     0.00000 0.00000 0.00000 0.00000 0.00000 0.00000   57508   17.28    3.30  1.0000
   3  13   2   52008    2958     0.00000 0.00000 0.00000 0.00000 0.00000 0.00000   52985   -0.72   -2.77  1.0000
   5  13   2   10859    2324     0.00000 0.00000 0.00000 0.00000 0.00000 0.00000    8788   12.74  -27.12  1.0000
   7  13   2   21149    2311     0.00000 0.00000 0.00000 0.00000 0.00000 0.00000   20663   24.66   -5.42  1.0000
   9  13   2    9628    3057     0.00000 0.00000 0.00000 0.00000 0.00000 0.00000   14057   -2.62   20.97  1.0000
  11  13   2    5611    3171     0.00000 0.00000 0.00000 0.00000 0.00000 0.00000    5837  -19.44  -12.20  1.0000
  13  13   2     451    3453     0.00000 0.00000 0.00000 0.00000 0.00000 0.00000    -140   21.49   -0.65  1.0000
  15  13   2     141    3853     0.00000 0.00000 0.00000 0.00000 0.00000 0.00000   -5374    9.17   -7.77  1.0000
  17  13   2      60    4323     0.00000 0.00000 0.00000 0.00000 0.00000 0.00000   -4568    7.30   -2.82  1.0000
  19  13   2     104    4948     0.00000 0.00000 0.00000 0.00000 0.00000 0.00000   -3869   10.29    0.45  1.0000
  21  13   2      14    5383     0.00000 0.00000 0.00000 0.00000 0.00000 0.00000   -2811    1.01   -3.67  1.0000
   0  14   2   26191    3819     0.00000 0.00000 0.00000 0.00000 0.00000 0.00000   57308 -105.21  -18.97  1.0000
   2  14   2   89596    2946     0.00000 0.00000 0.00000 0.00000 0.00000 0.00000   80639   20.61   12.80  1.0000
   4  14   2    5144    2035     0.00000 0.00000 0.00000 0.00000 0.00000 0.00000    3221  -10.82  -13.08  1.0000
   6  14   2   21788    2637     0.00000 0.00000 0.00000 0.00000 0.00000 0.00000   13852   21.00   21.83  1.0000
   8  14   2   18260    3055     0.00000 0.00000 0.00000 0.00000 0.00000 0.00000   19018   19.10   -8.22  1.0000
  10  14   2    1170    3255     0.00000 0.00000 0.00000 0.00000 0.00000 0.00000    1360  -11.22  -10.89  1.0000
  12  14   2     204    3476     0.00000 0.00000 0.00000 0.00000 0.00000 0.00000     357    8.37    3.95  1.0000
  14  14   2     316    3834     0.00000 0.00000 0.00000 0.00000 0.00000 0.00000    2506  -32.70    0.48  1.0000
  16  14   2      11    4369     0.00000 0.00000 0.00000 0.00000 0.00000 0.00000   -6125    1.91    2.73  1.0000
  18  14   2      90    4504     0.00000 0.00000 0.00000 0.00000 0.00000 0.00000   -3790   -2.39   -9.29  1.0000
  20  14   2      79    5459     0.00000 0.00000 0.00000 0.00000 0.00000 0.00000   -7603   -8.41   -3.25  1.0000
   1  15   2   32157    2783     0.00000 0.00000 0.00000 0.00000 0.00000 0.00000   33884   18.12    0.23  1.0000
   3  15   2   28302    2609     0.00000 0.00000 0.00000 0.00000 0.00000 0.00000   32564    3.04   13.16  1.0000
   5  15   2    1982    2652     0.00000 0.00000 0.00000 0.00000 0.00000 0.00000    3082    5.75   43.35  1.0000
   7  15   2      97    2824     0.00000 0.00000 0.00000 0.00000 0.00000 0.00000     261   17.41    2.89  1.0000
   9  15   2     669    3578     0.00000 0.00000 0.00000 0.00000 0.00000 0.00000    -684   20.70   16.04  1.0000
  11  15   2     189    3416     0.00000 0.00000 0.00000 0.00000 0.00000 0.00000   -5124  -13.41   -3.71  1.0000
  13  15   2     125    3922     0.00000 0.00000 0.00000 0.00000 0.00000 0.00000   -5883    8.55    7.40  1.0000
  15  15   2       8    4274     0.00000 0.00000 0.00000 0.00000 0.00000 0.00000   -1767    2.79    0.43  1.0000
  17  15   2       5    4619     0.00000 0.00000 0.00000 0.00000 0.00000 0.00000   -5792    1.44    1.74  1.0000
  19  15   2      17    5642     0.00000 0.00000 0.00000 0.00000 0.00000 0.00000   -4822    1.24    3.93  1.0000
  21  15   2    1467    9208     0.00000 0.00000 0.00000 0.00000 0.00000 0.00000    2145   -4.99  -10.93  1.0000
   0  16   2   75714    3973     0.00000 0.00000 0.00000 0.00000 0.00000 0.00000   67289  -72.20  -18.52  1.0000
   2  16   2   38982    2679     0.00000 0.00000 0.00000 0.00000 0.00000 0.00000   54041   41.69   21.94  1.0000
   4  16   2   12554    2421     0.00000 0.00000 0.00000 0.00000 0.00000 0.00000   12344   28.30   -5.49  1.0000
   6  16   2    3947    2834     0.00000 0.00000 0.00000 0.00000 0.00000 0.00000    6484   32.99   46.77  1.0000
   8  16   2    6718    3071     0.00000 0.00000 0.00000 0.00000 0.00000 0.00000    5019  -10.29  -36.68  1.0000
  10  16   2     340    3647     0.00000 0.00000 0.00000 0.00000 0.00000 0.00000     257    0.88    2.82  1.0000
  12  16   2      93    4178     0.00000 0.00000 0.00000 0.00000 0.00000 0.00000     148    5.46   -9.02  1.0000
  14  16   2      11    4316     0.00000 0.00000 0.00000 0.00000 0.00000 0.00000   -5359    1.15   -3.18  1.0000
  16  16   2       8    4636     0.00000 0.00000 0.00000 0.00000 0.00000 0.00000   -6954    2.94    0.20  1.0000
  18  16   2     212    5225     0.00000 0.00000 0.00000 0.00000 0.00000 0.00000   -7838   -2.20  -14.59  1.0000
  20  16   2       7    5507     0.00000 0.00000 0.00000 0.00000 0.00000 0.00000   -1774    0.65    2.68  1.0000
   1  17   2   16092    2290     0.00000 0.00000 0.00000 0.00000 0.00000 0.00000   17613  -15.45   -3.62  1.0000
   3  17   2   11016    5910     0.00000 0.00000 0.00000 0.00000 0.00000 0.00000   13131   10.43    1.93  1.0000
   5  17   2   21238    2936     0.00000 0.00000 0.00000 0.00000 0.00000 0.00000   23491   18.59   -9.61  1.0000
   7  17   2   25911    3250     0.00000 0.00000 0.00000 0.00000 0.00000 0.00000   26625  -13.00   -2.31  1.0000
   9  17   2    2167    3430     0.00000 0.00000 0.00000 0.00000 0.00000 0.00000    3535   21.05   18.29  1.0000
  11  17   2     201    3969     0.00000 0.00000 0.00000 0.00000 0.00000 0.00000    -984   -1.11  -14.30  1.0000
  13  17   2      53    4436     0.00000 0.00000 0.00000 0.00000 0.00000 0.00000   -4168    7.02    2.29  1.0000
  15  17   2       6    4654     0.00000 0.00000 0.00000 0.00000 0.00000 0.00000   -6982    1.44   -1.97  1.0000
  17  17   2       5    5379     0.00000 0.00000 0.00000 0.00000 0.00000 0.00000   -8068   -2.18    0.09  1.0000
  19  17   2     134    5656     0.00000 0.00000 0.00000 0.00000 0.00000 0.00000   -8484   10.09   -5.98  1.0000
   0  18   2  185073    5917     0.00000 0.00000 0.00000 0.00000 0.00000 0.00000  171019   -7.56   18.48  1.0000
   2  18   2    6439    2468     0.00000 0.00000 0.00000 0.00000 0.00000 0.00000   13688   26.39   29.35  1.0000
   4  18   2   34860    3134     0.00000 0.00000 0.00000 0.00000 0.00000 0.00000   40305   24.05  -16.23  1.0000
   6  18   2    3980    3297     0.00000 0.00000 0.00000 0.00000 0.00000 0.00000    4267  -11.40   -7.40  1.0000
   8  18   2    1053    3543     0.00000 0.00000 0.00000 0.00000 0.00000 0.00000   -4012  -20.52  -25.66  1.0000
  10  18   2    1051    4188     0.00000 0.00000 0.00000 0.00000 0.00000 0.00000    3941  -44.40   -7.17  1.0000
  12  18   2    2281    4358     0.00000 0.00000 0.00000 0.00000 0.00000 0.00000   -2465  -44.65  -18.56  1.0000
  14  18   2      96    4808     0.00000 0.00000 0.00000 0.00000 0.00000 0.00000   -3468   -2.45    9.63  1.0000
  16  18   2     201    5107     0.00000 0.00000 0.00000 0.00000 0.00000 0.00000   -3061   -2.26   14.18  1.0000
  18  18   2      10    5214     0.00000 0.00000 0.00000 0.00000 0.00000 0.00000   -7821   -3.21    0.03  1.0000
   1  19   2    3519    2635     0.00000 0.00000 0.00000 0.00000 0.00000 0.00000    6826    2.37  -24.15  1.0000
   3  19   2   20725    2996     0.00000 0.00000 0.00000 0.00000 0.00000 0.00000   17450  -33.99  -32.61  1.0000
   5  19   2   44350    3842     0.00000 0.00000 0.00000 0.00000 0.00000 0.00000   46244   -1.12   -4.37  1.0000
   7  19   2   25322    3432     0.00000 0.00000 0.00000 0.00000 0.00000 0.00000   22915    4.15  -10.28  1.0000
   9  19   2   26672    3833     0.00000 0.00000 0.00000 0.00000 0.00000 0.00000   23975   15.95    2.94  1.0000
  11  19   2    1505    4556     0.00000 0.00000 0.00000 0.00000 0.00000 0.00000    3225    7.06   17.34  1.0000
  13  19   2      95    4828     0.00000 0.00000 0.00000 0.00000 0.00000 0.00000   -1180    9.81   -1.23  1.0000
  15  19   2      26    5343     0.00000 0.00000 0.00000 0.00000 0.00000 0.00000   -5806    1.94   -4.79  1.0000
  17  19   2     132    5448     0.00000 0.00000 0.00000 0.00000 0.00000 0.00000   -8172    9.87    6.13  1.0000
   0  20   2   18910    4339     0.00000 0.00000 0.00000 0.00000 0.00000 0.00000   24945   18.02  -27.44  1.0000
   2  20   2  104232    4961     0.00000 0.00000 0.00000 0.00000 0.00000 0.00000  116804   25.31   13.82  1.0000
   4  20   2   52036    4319     0.00000 0.00000 0.00000 0.00000 0.00000 0.00000   52961  -20.78    4.98  1.0000
   6  20   2    6689    4054     0.00000 0.00000 0.00000 0.00000 0.00000 0.00000    6242   -4.63   -0.84  1.0000
   8  20   2    7232    3846     0.00000 0.00000 0.00000 0.00000 0.00000 0.00000    8342  -11.18   -1.17  1.0000
  10  20   2     457    4492     0.00000 0.00000 0.00000 0.00000 0.00000 0.00000   -1204  -21.45    2.92  1.0000
  12  20   2    3081    5044     0.00000 0.00000 0.00000 0.00000 0.00000 0.00000    3945  -18.57    9.81  1.0000
  14  20   2      79    5334     0.00000 0.00000 0.00000 0.00000 0.00000 0.00000   -4347   -8.30    3.49  1.0000
  16  20   2       9    5463     0.00000 0.00000 0.00000 0.00000 0.00000 0.00000   -5451    0.78   -3.01  1.0000
   1  21   2    5809    3495     0.00000 0.00000 0.00000 0.00000 0.00000 0.00000    5719   31.00   -4.34  1.0000
   3  21   2   16451    3634     0.00000 0.00000 0.00000 0.00000 0.00000 0.00000   16813  -30.53   12.99  1.0000
   5  21   2   19189    5893     0.00000 0.00000 0.00000 0.00000 0.00000 0.00000   14313   -9.31   21.31  1.0000
   7  21   2   17157    4071     0.00000 0.00000 0.00000 0.00000 0.00000 0.00000   15914   -5.04   -4.33  1.0000
   9  21   2   10916    3933     0.00000 0.00000 0.00000 0.00000 0.00000 0.00000   12684    3.56   -8.37  1.0000
  11  21   2   17171    4912     0.00000 0.00000 0.00000 0.00000 0.00000 0.00000   18336    2.70    3.85  1.0000
  13  21   2    6105    4881     0.00000 0.00000 0.00000 0.00000 0.00000 0.00000    5558    0.29    3.61  1.0000
  15  21   2     143    6546     0.00000 0.00000 0.00000 0.00000 0.00000 0.00000   -4281   -4.71   11.16  1.0000
   0  22   2   16026    5348     0.00000 0.00000 0.00000 0.00000 0.00000 0.00000   28987   17.74  -41.61  1.0000
   2  22   2   18983    4759     0.00000 0.00000 0.00000 0.00000 0.00000 0.00000   19539   49.59    8.82  1.0000
   4  22   2   12767    4583     0.00000 0.00000 0.00000 0.00000 0.00000 0.00000   16173  -22.12  -22.87  1.0000
   6  22   2    4112    3717     0.00000 0.00000 0.00000 0.00000 0.00000 0.00000    4536   19.08    6.53  1.0000
   8  22   2    3809    4777     0.00000 0.00000 0.00000 0.00000 0.00000 0.00000    2697  -18.65   -2.73  1.0000
  10  22   2    2978    4951     0.00000 0.00000 0.00000 0.00000 0.00000 0.00000    2439   -2.58  -10.55  1.0000
  12  22   2    2917    4947     0.00000 0.00000 0.00000 0.00000 0.00000 0.00000    1570  -18.82   -4.67  1.0000
   1  23   2    5079    5155     0.00000 0.00000 0.00000 0.00000 0.00000 0.00000   14557  -56.03  -30.39  1.0000
   3  23   2    6538    5196     0.00000 0.00000 0.00000 0.00000 0.00000 0.00000   15163  -28.56   33.45  1.0000
   5  23   2   16034    4898     0.00000 0.00000 0.00000 0.00000 0.00000 0.00000   11598   -3.02   19.91  1.0000
   7  23   2   17235    4052     0.00000 0.00000 0.00000 0.00000 0.00000 0.00000   15184  -14.43   -4.08  1.0000
   9  23   2   10798    4512     0.00000 0.00000 0.00000 0.00000 0.00000 0.00000   10205   -9.68    5.61  1.0000
  11  23   2    5693    5316     0.00000 0.00000 0.00000 0.00000 0.00000 0.00000    4714   -5.07   -5.53  1.0000
   0  24   2    9942    9077     0.00000 0.00000 0.00000 0.00000 0.00000 0.00000   11503   -9.71    1.29  1.0000
   2  24   2   10551    4725     0.00000 0.00000 0.00000 0.00000 0.00000 0.00000   23958   61.91   -6.55  1.0000
   4  24   2   20159    5229     0.00000 0.00000 0.00000 0.00000 0.00000 0.00000   18299   84.80  -39.50  1.0000
   6  24   2    3883    5272     0.00000 0.00000 0.00000 0.00000 0.00000 0.00000    7911   62.31  -20.62  1.0000
   8  24   2    6604    4541     0.00000 0.00000 0.00000 0.00000 0.00000 0.00000   10974  -21.35  -10.58  1.0000
   1  25   2    3340    5048     0.00000 0.00000 0.00000 0.00000 0.00000 0.00000   15189  -57.75   44.11  1.0000
   3  25   2     375    5294     0.00000 0.00000 0.00000 0.00000 0.00000 0.00000    9637  -82.12   -2.66  1.0000
   5  25   2    7521    6724     0.00000 0.00000 0.00000 0.00000 0.00000 0.00000   16968  -87.71  -14.47  1.0000
   2   1   3  218294    1448     0.00000 0.00000 0.00000 0.00000 0.00000 0.00000   30270   75.72  408.07  1.0000
   4   1   3  124410    1179     0.00000 0.00000 0.00000 0.00000 0.00000 0.00000   13451 -221.04 -103.72  1.0000
   6   1   3  109052    6637     0.00000 0.00000 0.00000 0.00000 0.00000 0.00000  227812  -81.16 -136.38  1.0000
   8   1   3   74740    5614     0.00000 0.00000 0.00000 0.00000 0.00000 0.00000   93876   41.25   16.86  1.0000
  10   1   3   20617    1848     0.00000 0.00000 0.00000 0.00000 0.00000 0.00000   13508   23.61   14.69  1.0000
  12   1   3  186052    4824     0.00000 0.00000 0.00000 0.00000 0.00000 0.00000  130458  -22.39  -71.85  1.0000
  14   1   3    2316    1979     0.00000 0.00000 0.00000 0.00000 0.00000 0.00000    4299  -19.00   -8.47  1.0000
  16   1   3   15115    2866     0.00000 0.00000 0.00000 0.00000 0.00000 0.00000   25601   47.90    5.09  1.0000
  18   1   3   65367    3265     0.00000 0.00000 0.00000 0.00000 0.00000 0.00000   59600   43.44  -23.36  1.0000
  20   1   3    6115    3820     0.00000 0.00000 0.00000 0.00000 0.00000 0.00000    6246   -3.87  -23.26  1.0000
  22   1   3    2206    4004     0.00000 0.00000 0.00000 0.00000 0.00000 0.00000    5548   37.47  -58.58  1.0000
  24   1   3    8858    5291     0.00000 0.00000 0.00000 0.00000 0.00000 0.00000    8626    2.30   -1.87  1.0000
   1   2   3  214970    1736     0.00000 0.00000 0.00000 0.00000 0.00000 0.00000   32352  -76.45  406.60  1.0000
   3   2   3   44210    3240     0.00000 0.00000 0.00000 0.00000 0.00000 0.00000   79081 -130.39  125.12  1.0000
   5   2   3   80525    3156     0.00000 0.00000 0.00000 0.00000 0.00000 0.00000   51767  -58.67  -68.17  1.0000
   7   2   3   28612    5683     0.00000 0.00000 0.00000 0.00000 0.00000 0.00000   57014   70.25    5.88  1.0000
   9   2   3    9605    1778     0.00000 0.00000 0.00000 0.00000 0.00000 0.00000   11948  -32.19   14.56  1.0000
  11   2   3   30125    2538     0.00000 0.00000 0.00000 0.00000 0.00000 0.00000   46350   -3.46   49.60  1.0000
  13   2   3   11166    2123     0.00000 0.00000 0.00000 0.00000 0.00000 0.00000   15355   67.22  -14.62  1.0000
  15   2   3    6305    2236     0.00000 0.00000 0.00000 0.00000 0.00000 0.00000    8811    4.84  -13.96  1.0000
  17   2   3   11476    2677     0.00000 0.00000 0.00000 0.00000 0.00000 0.00000   18367  -25.93   29.13  1.0000
  19   2   3    6091    3035     0.00000 0.00000 0.00000 0.00000 0.00000 0.00000    6001  -19.56   16.01  1.0000
  21   2   3    1771    3848     0.00000 0.00000 0.00000 0.00000 0.00000 0.00000    6314   52.55  -13.45  1.0000
  23   2   3    5160    4498     0.00000 0.00000 0.00000 0.00000 0.00000 0.00000   11847  -44.98   -0.23  1.0000
  25   2   3    4461    5360     0.00000 0.00000 0.00000 0.00000 0.00000 0.00000   14174   47.23   29.47  1.0000
   2   3   3   33546    3240     0.00000 0.00000 0.00000 0.00000 0.00000 0.00000   76783  131.52  124.85  1.0000
   4   3   3   34517    3328     0.00000 0.00000 0.00000 0.00000 0.00000 0.00000   40063  -93.89   75.67  1.0000
   6   3   3   94146    6399     0.00000 0.00000 0.00000 0.00000 0.00000 0.00000  173571   79.64   77.99  1.0000
   8   3   3   19035    2781     0.00000 0.00000 0.00000 0.00000 0.00000 0.00000   25601   47.00  -52.61  1.0000
  10   3   3   29820    2265     0.00000 0.00000 0.00000 0.00000 0.00000 0.00000   32833  -20.09   23.88  1.0000
  12   3   3   68478    3141     0.00000 0.00000 0.00000 0.00000 0.00000 0.00000   76475  -11.45   -9.84  1.0000
  14   3   3   11972    2132     0.00000 0.00000 0.00000 0.00000 0.00000 0.00000   14511    8.54   41.38  1.0000
  16   3   3   23805    2821     0.00000 0.00000 0.00000 0.00000 0.00000 0.00000   30150  -21.02   -2.98  1.0000
  18   3   3   34366    3135     0.00000 0.00000 0.00000 0.00000 0.00000 0.00000   30664  -43.47   26.73  1.0000
  20   3   3     945    3745     0.00000 0.00000 0.00000 0.00000 0.00000 0.00000    8135  -48.56   43.13  1.0000
  22   3   3    2118    4011     0.00000 0.00000 0.00000 0.00000 0.00000 0.00000   10757   57.83    9.10  1.0000
  24   3   3   19752    5618     0.00000 0.00000 0.00000 0.00000 0.00000 0.00000   21488  -28.87   37.97  1.0000
   1   4   3  114719    1849     0.00000 0.00000 0.00000 0.00000 0.00000 0.00000   10905  222.19 -103.25  1.0000
   3   4   3   34314    4790     0.00000 0.00000 0.00000 0.00000 0.00000 0.00000   43769   96.73   78.67  1.0000
   5   4   3   18388    2725     0.00000 0.00000 0.00000 0.00000 0.00000 0.00000   16586  -72.31   10.03  1.0000
   7   4   3   33770    2954     0.00000 0.00000 0.00000 0.00000 0.00000 0.00000   54401  -47.44   51.31  1.0000
   9   4   3   15765    1809     0.00000 0.00000 0.00000 0.00000 0.00000 0.00000   22993  -33.92  -10.96  1.0000
  11   4   3    3359    1774     0.00000 0.00000 0.00000 0.00000 0.00000 0.00000    5089   -8.98   15.62  1.0000
  13   4   3    3209    2207     0.00000 0.00000 0.00000 0.00000 0.00000 0.00000    9144    6.18  -42.44  1.0000
  15   4   3   12390    2411     0.00000 0.00000 0.00000 0.00000 0.00000 0.00000   13542    1.29   17.48  1.0000
  17   4   3    3365    3403     0.00000 0.00000 0.00000 0.00000 0.00000 0.00000    6606   11.37   20.85  1.0000
  19   4   3   11262    3394     0.00000 0.00000 0.00000 0.00000 0.00000 0.00000   14015   15.44   -2.77  1.0000
  21   4   3    2657    4280     0.00000 0.00000 0.00000 0.00000 0.00000 0.00000    9319   36.85  -30.64  1.0000
  23   4   3   20900    5132     0.00000 0.00000 0.00000 0.00000 0.00000 0.00000   17334   -7.31  -42.94  1.0000
  25   4   3   18493    6068     0.00000 0.00000 0.00000 0.00000 0.00000 0.00000   29307   28.09  -24.00  1.0000
   2   5   3   64717    3719     0.00000 0.00000 0.00000 0.00000 0.00000 0.00000   41234   60.16  -67.91  1.0000
   4   5   3   15714    3225     0.00000 0.00000 0.00000 0.00000 0.00000 0.00000   13538   70.36    9.26  1.0000
   6   5   3  132420    9912     0.00000 0.00000 0.00000 0.00000 0.00000 0.00000  104966   -8.71  -44.22  1.0000
   8   5   3   16577    1575     0.00000 0.00000 0.00000 0.00000 0.00000 0.00000   10121  -28.72  -21.13  1.0000
  10   5   3    2739    1656     0.00000 0.00000 0.00000 0.00000 0.00000 0.00000    6123  -11.20   25.33  1.0000
  12   5   3    9669    2091     0.00000 0.00000 0.00000 0.00000 0.00000 0.00000   14036   16.61   14.05  1.0000
  14   5   3    6449    2374     0.00000 0.00000 0.00000 0.00000 0.00000 0.00000    7421    3.72    9.25  1.0000
  16   5   3    6575    2618     0.00000 0.00000 0.00000 0.00000 0.00000 0.00000    9300   31.91  -60.36  1.0000
  18   5   3    5702    3229     0.00000 0.00000 0.00000 0.00000 0.00000 0.00000    7094   23.79  -15.63  1.0000
  20   5   3    4268    4081     0.00000 0.00000 0.00000 0.00000 0.00000 0.00000   10801   -9.90  -41.51  1.0000
  22   5   3    3617    4606     0.00000 0.00000 0.00000 0.00000 0.00000 0.00000    6398   16.84   30.28  1.0000
  24   5   3    5674    5836     0.00000 0.00000 0.00000 0.00000 0.00000 0.00000   22612  -98.19   20.78  1.0000
   1   6   3  100737    9636     0.00000 0.00000 0.00000 0.00000 0.00000 0.00000  215728   81.63 -136.91  1.0000
   3   6   3  110943   10066     0.00000 0.00000 0.00000 0.00000 0.00000 0.00000  196056  -80.80   77.36  1.0000
   5   6   3  142011   12470     0.00000 0.00000 0.00000 0.00000 0.00000 0.00000  113803    7.01  -45.21  1.0000
   7   6   3   72601    2844     0.00000 0.00000 0.00000 0.00000 0.00000 0.00000   61894  -19.67   28.61  1.0000
   9   6   3   40010    1970     0.00000 0.00000 0.00000 0.00000 0.00000 0.00000   36424   22.11   -8.98  1.0000
  11   6   3   28859    2566     0.00000 0.00000 0.00000 0.00000 0.00000 0.00000   36571   40.63  -28.83  1.0000
  13   6   3    1333    2310     0.00000 0.00000 0.00000 0.00000 0.00000 0.00000    -174   31.75  -18.93  1.0000
  15   6   3    7850    2629     0.00000 0.00000 0.00000 0.00000 0.00000 0.00000    9826  -11.28   -3.16  1.0000
  17   6   3    8571    3191     0.00000 0.00000 0.00000 0.00000 0.00000 0.00000    7707  -32.51   -2.16  1.0000
  19   6   3   19994    3795     0.00000 0.00000 0.00000 0.00000 0.00000 0.00000   13361   27.78  -13.42  1.0000
  21   6   3    3616    4382     0.00000 0.00000 0.00000 0.00000 0.00000 0.00000    6680   -1.18  -23.45  1.0000
  23   6   3    5122    5060     0.00000 0.00000 0.00000 0.00000 0.00000 0.00000   17608   27.71   62.75  1.0000
  25   6   3    6907    6190     0.00000 0.00000 0.00000 0.00000 0.00000 0.00000   13661  -13.62   33.48  1.0000
   2   7   3   24231   13399     0.00000 0.00000 0.00000 0.00000 0.00000 0.00000   51120  -71.54    1.79  1.0000
   4   7   3   38986    3655     0.00000 0.00000 0.00000 0.00000 0.00000 0.00000   60384   42.22   50.74  1.0000
   6   7   3   73466    2776     0.00000 0.00000 0.00000 0.00000 0.00000 0.00000   61831   19.52   32.31  1.0000
   8   7   3   18263    1858     0.00000 0.00000 0.00000 0.00000 0.00000 0.00000   21355   17.31   38.29  1.0000
  10   7   3   26070    2193     0.00000 0.00000 0.00000 0.00000 0.00000 0.00000   22359   12.51   11.54  1.0000
  12   7   3   38137    2424     0.00000 0.00000 0.00000 0.00000 0.00000 0.00000   41393   29.58    9.73  1.0000
  14   7   3   42716    3068     0.00000 0.00000 0.00000 0.00000 0.00000 0.00000   47141  -10.66   22.14  1.0000
  16   7   3    2137    3108     0.00000 0.00000 0.00000 0.00000 0.00000 0.00000    2850   12.22    9.09  1.0000
  18   7   3     717    3378     0.00000 0.00000 0.00000 0.00000 0.00000 0.00000    2437  -14.53   17.72  1.0000
  20   7   3    2838    4554     0.00000 0.00000 0.00000 0.00000 0.00000 0.00000    6612  -21.99   22.47  1.0000
  22   7   3    9417    5197     0.00000 0.00000 0.00000 0.00000 0.00000 0.00000    7349    6.44   30.88  1.0000
  24   7   3    2731    5403     0.00000 0.00000 0.00000 0.00000 0.00000 0.00000   19298   -5.77  -87.55  1.0000
   1   8   3   60421    7506     0.00000 0.00000 0.00000 0.00000 0.00000 0.00000   77352  -41.21   15.98  1.0000
   3   8   3   19495    2935     0.00000 0.00000 0.00000 0.00000 0.00000 0.00000   24369  -48.88  -52.52  1.0000
   5   8   3   16136    1496     0.00000 0.00000 0.00000 0.00000 0.00000 0.00000    9488   28.61  -22.20  1.0000
   7   8   3   21289    1764     0.00000 0.00000 0.00000 0.00000 0.00000 0.00000   20742  -15.07   37.77  1.0000
   9   8   3    7510    2228     0.00000 0.00000 0.00000 0.00000 0.00000 0.00000    5106    7.03   14.44  1.0000
  11   8   3   11676    2796     0.00000 0.00000 0.00000 0.00000 0.00000 0.00000   11352  -23.72   -9.63  1.0000
  13   8   3    3892    2686     0.00000 0.00000 0.00000 0.00000 0.00000 0.00000    2480   13.54    9.44  1.0000
  15   8   3    7470    3036     0.00000 0.00000 0.00000 0.00000 0.00000 0.00000    4872   55.74  -11.16  1.0000
  17   8   3    5923    3686     0.00000 0.00000 0.00000 0.00000 0.00000 0.00000    5093   -1.83  -10.04  1.0000
  19   8   3    9279    3578     0.00000 0.00000 0.00000 0.00000 0.00000 0.00000   10370    5.46    6.59  1.0000
  21   8   3    9424    4816     0.00000 0.00000 0.00000 0.00000 0.00000 0.00000    9018  -13.02  -18.51  1.0000
  23   8   3   10616    5230     0.00000 0.00000 0.00000 0.00000 0.00000 0.00000   12147   17.38   47.36  1.0000
   2   9   3    9839    1573     0.00000 0.00000 0.00000 0.00000 0.00000 0.00000   12616   30.30   16.17  1.0000
   4   9   3   18053    1827     0.00000 0.00000 0.00000 0.00000 0.00000 0.00000   25694   36.42   -7.73  1.0000
   6   9   3   43092    2097     0.00000 0.00000 0.00000 0.00000 0.00000 0.00000   39470  -19.40   -8.73  1.0000
   8   9   3    8145    2318     0.00000 0.00000 0.00000 0.00000 0.00000 0.00000    5723   -7.75   13.48  1.0000
  10   9   3    9278    2688     0.00000 0.00000 0.00000 0.00000 0.00000 0.00000    8903   -5.58   -8.75  1.0000
  12   9   3   32968    2814     0.00000 0.00000 0.00000 0.00000 0.00000 0.00000   38862    8.18  -14.24  1.0000
  14   9   3   21896    3322     0.00000 0.00000 0.00000 0.00000 0.00000 0.00000   24332   -5.60    6.04  1.0000
  16   9   3    1985    3281     0.00000 0.00000 0.00000 0.00000 0.00000 0.00000    1431  -14.20  -18.51  1.0000
  18   9   3    1739    3762     0.00000 0.00000 0.00000 0.00000 0.00000 0.00000    1740    4.58   10.82  1.0000
  20   9   3    4920    3718     0.00000 0.00000 0.00000 0.00000 0.00000 0.00000    9347    1.97  -26.97  1.0000
  22   9   3    6349    5163     0.00000 0.00000 0.00000 0.00000 0.00000 0.00000    6539   -5.90   -9.39  1.0000
  24   9   3    1467    6674     0.00000 0.00000 0.00000 0.00000 0.00000 0.00000    6100   -0.52  -48.88  1.0000
   1  10   3   17402    1659     0.00000 0.00000 0.00000 0.00000 0.00000 0.00000   11202  -22.83   14.14  1.0000
   3  10   3   31712    1936     0.00000 0.00000 0.00000 0.00000 0.00000 0.00000   34658   23.15   25.23  1.0000
   5  10   3    2675    1696     0.00000 0.00000 0.00000 0.00000 0.00000 0.00000    5936   12.50   25.76  1.0000
   7  10   3   21921    2002     0.00000 0.00000 0.00000 0.00000 0.00000 0.00000   20028  -11.48   10.87  1.0000
   9  10   3   13039    2612     0.00000 0.00000 0.00000 0.00000 0.00000 0.00000   11673    0.62   -6.98  1.0000
  11  10   3    6832    2939     0.00000 0.00000 0.00000 0.00000 0.00000 0.00000    7516   24.14  -16.75  1.0000
  13  10   3    7096    3074     0.00000 0.00000 0.00000 0.00000 0.00000 0.00000    9125   13.73   -1.73  1.0000
  15  10   3   15059    3110     0.00000 0.00000 0.00000 0.00000 0.00000 0.00000   13359   19.89    2.79  1.0000
  17  10   3   14249    3578     0.00000 0.00000 0.00000 0.00000 0.00000 0.00000   13095   -2.14    4.73  1.0000
  19  10   3   14483    4037     0.00000 0.00000 0.00000 0.00000 0.00000 0.00000   18562  -16.19   13.66  1.0000
  21  10   3     387    5051     0.00000 0.00000 0.00000 0.00000 0.00000 0.00000    1331  -19.26   -1.67  1.0000
  23  10   3    4273    5096     0.00000 0.00000 0.00000 0.00000 0.00000 0.00000    6567    6.77   37.22  1.0000
   2  11   3   27955    2253     0.00000 0.00000 0.00000 0.00000 0.00000 0.00000   43489   -0.11   48.23  1.0000
   6  11   3   26943    2272     0.00000 0.00000 0.00000 0.00000 0.00000 0.00000   34810  -39.94  -30.08  1.0000
  10  11   3    9255    2989     0.00000 0.00000 0.00000 0.00000 0.00000 0.00000   10109  -24.43  -16.51  1.0000
  12  11   3   10860    2953     0.00000 0.00000 0.00000 0.00000 0.00000 0.00000   11784    5.11   -7.25  1.0000
  14  11   3    4527    3312     0.00000 0.00000 0.00000 0.00000 0.00000 0.00000    4826   -6.85   -9.99  1.0000
  16  11   3    5281    3913     0.00000 0.00000 0.00000 0.00000 0.00000 0.00000    4269   -8.25   -5.49  1.0000
  18  11   3     824    4270     0.00000 0.00000 0.00000 0.00000 0.00000 0.00000     901   13.01   40.83  1.0000
  20  11   3     362    4706     0.00000 0.00000 0.00000 0.00000 0.00000 0.00000    -283    7.46  -17.75  1.0000
  22  11   3    4829    6202     0.00000 0.00000 0.00000 0.00000 0.00000 0.00000    7545   17.93   15.26  1.0000
   1  12   3  187190    4006     0.00000 0.00000 0.00000 0.00000 0.00000 0.00000  131783   23.02  -71.31  1.0000
   3  12   3   74457    3129     0.00000 0.00000 0.00000 0.00000 0.00000 0.00000   82911   12.46   -8.95  1.0000
   5  12   3   12619    2098     0.00000 0.00000 0.00000 0.00000 0.00000 0.00000   17809  -16.60   14.58  1.0000
   7  12   3   40252    2366     0.00000 0.00000 0.00000 0.00000 0.00000 0.00000   42235  -27.57    9.18  1.0000
   9  12   3   32880    3076     0.00000 0.00000 0.00000 0.00000 0.00000 0.00000   38785  -13.80   -9.74  1.0000
  11  12   3   11989    2987     0.00000 0.00000 0.00000 0.00000 0.00000 0.00000   13545   -3.30   -8.69  1.0000
  13  12   3   13594    3376     0.00000 0.00000 0.00000 0.00000 0.00000 0.00000   12654    2.42    5.18  1.0000
  15  12   3    5449    3879     0.00000 0.00000 0.00000 0.00000 0.00000 0.00000    5867   -6.31   -9.83  1.0000
  17  12   3    6641    4021     0.00000 0.00000 0.00000 0.00000 0.00000 0.00000    9825   22.08    4.58  1.0000
  19  12   3    4409    4550     0.00000 0.00000 0.00000 0.00000 0.00000 0.00000    3262   26.31   -4.80  1.0000
  21  12   3    5492    6220     0.00000 0.00000 0.00000 0.00000 0.00000 0.00000    6162   -0.11   -8.19  1.0000
   2  13   3    9959    2351     0.00000 0.00000 0.00000 0.00000 0.00000 0.00000   13586  -67.95  -15.17  1.0000
   4  13   3    1524    2243     0.00000 0.00000 0.00000 0.00000 0.00000 0.00000    6030   -8.42  -43.52  1.0000
   6  13   3     440    2194     0.00000 0.00000 0.00000 0.00000 0.00000 0.00000    3322  -33.02  -22.72  1.0000
   8  13   3    8524    2507     0.00000 0.00000 0.00000 0.00000 0.00000 0.00000    6519  -14.20    9.32  1.0000
  10  13   3    7473    3026     0.00000 0.00000 0.00000 0.00000 0.00000 0.00000   10085  -14.05   -1.71  1.0000
  12  13   3    5646    3382     0.00000 0.00000 0.00000 0.00000 0.00000 0.00000    4992   -1.54    5.12  1.0000
  14  13   3     122    3784     0.00000 0.00000 0.00000 0.00000 0.00000 0.00000   -2970    7.36    8.40  1.0000
  16  13   3      58    4143     0.00000 0.00000 0.00000 0.00000 0.00000 0.00000   -4545    6.15    4.68  1.0000
  18  13   3     476    4570     0.00000 0.00000 0.00000 0.00000 0.00000 0.00000   -2386  -21.73    3.96  1.0000
  20  13   3     480    5088     0.00000 0.00000 0.00000 0.00000 0.00000 0.00000   -3074  -21.84    3.79  1.0000
  22  13   3     466    6839     0.00000 0.00000 0.00000 0.00000 0.00000 0.00000     236    8.24    6.71  1.0000
   1  14   3    1281    2295     0.00000 0.00000 0.00000 0.00000 0.00000 0.00000    2666   19.06   -8.39  1.0000
   3  14   3   11292    2261     0.00000 0.00000 0.00000 0.00000 0.00000 0.00000   13281   -9.42   41.75  1.0000
   5  14   3    6425    2444     0.00000 0.00000 0.00000 0.00000 0.00000 0.00000    7585   -5.16    9.54  1.0000
   7  14   3   42910    2778     0.00000 0.00000 0.00000 0.00000 0.00000 0.00000   49018   11.30   20.61  1.0000
   9  14   3   22962    3173     0.00000 0.00000 0.00000 0.00000 0.00000 0.00000   25313    4.95    6.15  1.0000
  11  14   3    6583    3385     0.00000 0.00000 0.00000 0.00000 0.00000 0.00000    5971    8.99  -12.28  1.0000
  13  14   3     113    3653     0.00000 0.00000 0.00000 0.00000 0.00000 0.00000   -2709   -6.85    8.32  1.0000
  15  14   3     250    4092     0.00000 0.00000 0.00000 0.00000 0.00000 0.00000   -4189  -15.99    0.78  1.0000
  17  14   3      10    4280     0.00000 0.00000 0.00000 0.00000 0.00000 0.00000   -1981   -1.55   -2.75  1.0000
  19  14   3      52    5458     0.00000 0.00000 0.00000 0.00000 0.00000 0.00000   -4349   -0.08    7.29  1.0000
  21  14   3      72    6595     0.00000 0.00000 0.00000 0.00000 0.00000 0.00000   -6469    5.56   -6.53  1.0000
   2  15   3    8410    2496     0.00000 0.00000 0.00000 0.00000 0.00000 0.00000   11434   -3.97  -15.15  1.0000
   4  15   3   14304    2422     0.00000 0.00000 0.00000 0.00000 0.00000 0.00000   15838   -2.67   18.05  1.0000
   6  15   3    9265    2487     0.00000 0.00000 0.00000 0.00000 0.00000 0.00000   11413   11.00   -2.11  1.0000
   8  15   3   10622    3093     0.00000 0.00000 0.00000 0.00000 0.00000 0.00000    7154  -54.07  -11.50  1.0000
  10  15   3   11984    3711     0.00000 0.00000 0.00000 0.00000 0.00000 0.00000   11072  -18.51    2.48  1.0000
  12  15   3    6073    3777     0.00000 0.00000 0.00000 0.00000 0.00000 0.00000    5837    5.31   -9.05  1.0000
  14  15   3     229    4213     0.00000 0.00000 0.00000 0.00000 0.00000 0.00000   -5185   15.29    0.69  1.0000
  16  15   3      17    4539     0.00000 0.00000 0.00000 0.00000 0.00000 0.00000   -3181   -4.08    0.76  1.0000
  18  15   3      32    4682     0.00000 0.00000 0.00000 0.00000 0.00000 0.00000   -7023    5.57    1.45  1.0000
  20  15   3      88    5999     0.00000 0.00000 0.00000 0.00000 0.00000 0.00000   -2149   -8.58    4.09  1.0000
   1  16   3   14138    2396     0.00000 0.00000 0.00000 0.00000 0.00000 0.00000   23634  -47.66    4.39  1.0000
   3  16   3   24357    2470     0.00000 0.00000 0.00000 0.00000 0.00000 0.00000   30695   21.62   -1.01  1.0000
   5  16   3    9976    2780     0.00000 0.00000 0.00000 0.00000 0.00000 0.00000   13769  -31.65  -59.38  1.0000
   7  16   3    5326    2961     0.00000 0.00000 0.00000 0.00000 0.00000 0.00000    5752   -9.64    7.50  1.0000
   9  16   3     637    3469     0.00000 0.00000 0.00000 0.00000 0.00000 0.00000     679   12.68  -18.21  1.0000
  11  16   3      70    4057     0.00000 0.00000 0.00000 0.00000 0.00000 0.00000   -5614    6.99   -4.78  1.0000
  13  16   3      44    4014     0.00000 0.00000 0.00000 0.00000 0.00000 0.00000   -2088   -5.52    3.81  1.0000
  15  16   3      12    4527     0.00000 0.00000 0.00000 0.00000 0.00000 0.00000   -2917    3.06    1.68  1.0000
  17  16   3     174    5081     0.00000 0.00000 0.00000 0.00000 0.00000 0.00000   -7622    5.68  -12.08  1.0000
  19  16   3     245    5208     0.00000 0.00000 0.00000 0.00000 0.00000 0.00000   -7813  -15.78   -1.59  1.0000
   2  17   3   10530    2546     0.00000 0.00000 0.00000 0.00000 0.00000 0.00000   17595   25.39   27.77  1.0000
   4  17   3    5002    2773     0.00000 0.00000 0.00000 0.00000 0.00000 0.00000    8864  -11.15   20.99  1.0000
   6  17   3   11355    3081     0.00000 0.00000 0.00000 0.00000 0.00000 0.00000   10581   32.60   -2.32  1.0000
   8  17   3    5922    3299     0.00000 0.00000 0.00000 0.00000 0.00000 0.00000    6098    1.44   -8.67  1.0000
  10  17   3    6435    3981     0.00000 0.00000 0.00000 0.00000 0.00000 0.00000    5442    3.16    5.72  1.0000
  12  17   3   10772    4375     0.00000 0.00000 0.00000 0.00000 0.00000 0.00000   13399  -21.33    3.39  1.0000
  14  17   3     568    4690     0.00000 0.00000 0.00000 0.00000 0.00000 0.00000     586    1.44   -2.28  1.0000
  16  17   3     183    5352     0.00000 0.00000 0.00000 0.00000 0.00000 0.00000   -8028   -5.96  -12.35  1.0000
  18  17   3     102    5181     0.00000 0.00000 0.00000 0.00000 0.00000 0.00000   -7772   10.09   -1.62  1.0000
   1  18   3   77845    3082     0.00000 0.00000 0.00000 0.00000 0.00000 0.00000   70718  -44.41  -23.46  1.0000
   3  18   3   37335    3043     0.00000 0.00000 0.00000 0.00000 0.00000 0.00000   32462   44.10   27.01  1.0000
   5  18   3    6116    3080     0.00000 0.00000 0.00000 0.00000 0.00000 0.00000    7592  -24.06  -15.91  1.0000
   7  18   3     634    3616     0.00000 0.00000 0.00000 0.00000 0.00000 0.00000    2301   16.19   16.59  1.0000
   9  18   3     485    4115     0.00000 0.00000 0.00000 0.00000 0.00000 0.00000     518   -4.67   10.79  1.0000
  11  18   3     683    4146     0.00000 0.00000 0.00000 0.00000 0.00000 0.00000    1805  -14.16   42.14  1.0000
  13  18   3     500    4638     0.00000 0.00000 0.00000 0.00000 0.00000 0.00000   -1271   22.23    4.35  1.0000
  15  18   3      30    5503     0.00000 0.00000 0.00000 0.00000 0.00000 0.00000   -8254   -5.29    1.69  1.0000
  17  18   3     450    5161     0.00000 0.00000 0.00000 0.00000 0.00000 0.00000     476   -9.53   -0.99  1.0000
   2  19   3    6664    2836     0.00000 0.00000 0.00000 0.00000 0.00000 0.00000    6682   20.13   15.82  1.0000
   4  19   3    9369    3399     0.00000 0.00000 0.00000 0.00000 0.00000 0.00000   11875  -15.66   -4.57  1.0000
   6  19   3   15300    3463     0.00000 0.00000 0.00000 0.00000 0.00000 0.00000    8892  -28.25  -14.17  1.0000
   8  19   3    9935    3547     0.00000 0.00000 0.00000 0.00000 0.00000 0.00000   11244   -5.35    7.23  1.0000
  10  19   3   11718    4385     0.00000 0.00000 0.00000 0.00000 0.00000 0.00000   16449   16.39   13.45  1.0000
  12  19   3    5636    4628     0.00000 0.00000 0.00000 0.00000 0.00000 0.00000    4339  -26.22   -5.14  1.0000
  14  19   3      54    5703     0.00000 0.00000 0.00000 0.00000 0.00000 0.00000   -8201    0.35    7.44  1.0000
  16  19   3     241    5402     0.00000 0.00000 0.00000 0.00000 0.00000 0.00000   -8103   15.57   -2.01  1.0000
   1  20   3   10366    2962     0.00000 0.00000 0.00000 0.00000 0.00000 0.00000   10240    4.34  -22.75  1.0000
   3  20   3    3453    3728     0.00000 0.00000 0.00000 0.00000 0.00000 0.00000   14320   48.28   44.03  1.0000
   5  20   3    2808    3880     0.00000 0.00000 0.00000 0.00000 0.00000 0.00000    8247    9.00  -41.33  1.0000
   7  20   3    4050    3866     0.00000 0.00000 0.00000 0.00000 0.00000 0.00000    8228   20.77   22.01  1.0000
   9  20   3     239    4108     0.00000 0.00000 0.00000 0.00000 0.00000 0.00000    1700   -0.19  -26.99  1.0000
  11  20   3     369    4368     0.00000 0.00000 0.00000 0.00000 0.00000 0.00000    -609   -7.65  -17.88  1.0000
  13  20   3     471    5307     0.00000 0.00000 0.00000 0.00000 0.00000 0.00000   -1328   21.72    3.27  1.0000
  15  20   3     881    5450     0.00000 0.00000 0.00000 0.00000 0.00000 0.00000     418    8.48    4.03  1.0000
   2  21   3    4062    3836     0.00000 0.00000 0.00000 0.00000 0.00000 0.00000   10732  -52.40  -12.72  1.0000
   4  21   3    2657    3498     0.00000 0.00000 0.00000 0.00000 0.00000 0.00000    9227  -36.44  -30.75  1.0000
   6  21   3    2285    3891     0.00000 0.00000 0.00000 0.00000 0.00000 0.00000    4900    1.04  -23.67  1.0000
   8  21   3    7553    3758     0.00000 0.00000 0.00000 0.00000 0.00000 0.00000    8064   12.59  -18.23  1.0000
  10  21   3     337    4469     0.00000 0.00000 0.00000 0.00000 0.00000 0.00000    -145   18.54   -1.44  1.0000
  12  21   3    2770    4778     0.00000 0.00000 0.00000 0.00000 0.00000 0.00000    3509   -1.48   -7.51  1.0000
  14  21   3      73    5015     0.00000 0.00000 0.00000 0.00000 0.00000 0.00000   -5472   -5.58   -6.58  1.0000
   1  22   3    3514    3944     0.00000 0.00000 0.00000 0.00000 0.00000 0.00000    9171  -38.75  -58.28  1.0000
   3  22   3    2384    3802     0.00000 0.00000 0.00000 0.00000 0.00000 0.00000   11340  -58.06    7.27  1.0000
   5  22   3    3373    3793     0.00000 0.00000 0.00000 0.00000 0.00000 0.00000    5935  -15.42   30.83  1.0000
   7  22   3    5658    4228     0.00000 0.00000 0.00000 0.00000 0.00000 0.00000    3316   -4.77   29.84  1.0000
   9  22   3     402    4534     0.00000 0.00000 0.00000 0.00000 0.00000 0.00000     481    5.36   -9.85  1.0000
  11  22   3     992    4774     0.00000 0.00000 0.00000 0.00000 0.00000 0.00000    1624  -17.90   14.92  1.0000
  13  22   3    7130    5019     0.00000 0.00000 0.00000 0.00000 0.00000 0.00000    6321   -7.75    6.38  1.0000
   2  23   3    4047    4690     0.00000 0.00000 0.00000 0.00000 0.00000 0.00000    9930   45.66    1.18  1.0000
   4  23   3    7025    5724     0.00000 0.00000 0.00000 0.00000 0.00000 0.00000    4199    7.75  -42.03  1.0000
   6  23   3    1537    3971     0.00000 0.00000 0.00000 0.00000 0.00000 0.00000    9867  -28.01   62.22  1.0000
   8  23   3    8417    4226     0.00000 0.00000 0.00000 0.00000 0.00000 0.00000   11424  -17.83   47.02  1.0000
  10  23   3    2602    5211     0.00000 0.00000 0.00000 0.00000 0.00000 0.00000    5814   -6.25   37.50  1.0000
   1  24   3   10553    6056     0.00000 0.00000 0.00000 0.00000 0.00000 0.00000   10476   -1.36   -0.76  1.0000
   3  24   3   11476    5506     0.00000 0.00000 0.00000 0.00000 0.00000 0.00000   13344   28.14   35.54  1.0000
   5  24   3    2183    5912     0.00000 0.00000 0.00000 0.00000 0.00000 0.00000    9931   97.06   22.98  1.0000
   7  24   3    1459    4510     0.00000 0.00000 0.00000 0.00000 0.00000 0.00000   15607    8.85  -87.48  1.0000
   9  24   3    1613    5476     0.00000 0.00000 0.00000 0.00000 0.00000 0.00000    5411    0.13  -48.37  1.0000
   2  25   3    1847    4677     0.00000 0.00000 0.00000 0.00000 0.00000 0.00000    8989  -46.68   29.94  1.0000
   4  25   3    5062    5293     0.00000 0.00000 0.00000 0.00000 0.00000 0.00000   11348  -26.96  -25.10  1.0000
   6  25   3    1508    5694     0.00000 0.00000 0.00000 0.00000 0.00000 0.00000    4962   14.66   33.78  1.0000
   0   0   4 7458211  226680     0.00000 0.00000 0.00000 0.00000 0.00000 0.00000 3529046  864.15    2.46  1.0000
   2   0   4  116653    6826     0.00000 0.00000 0.00000 0.00000 0.00000 0.00000   62010  529.60 -120.29  1.0000
   4   0   4   49288    4045     0.00000 0.00000 0.00000 0.00000 0.00000 0.00000   50403   11.72  -76.04  1.0000
   6   0   4   57757    6305     0.00000 0.00000 0.00000 0.00000 0.00000 0.00000  122775  111.65   17.04  1.0000
   8   0   4   22404    3484     0.00000 0.00000 0.00000 0.00000 0.00000 0.00000   15502  -24.35   -9.37  1.0000
  10   0   4   10248    2546     0.00000 0.00000 0.00000 0.00000 0.00000 0.00000   16319  -29.98   42.86  1.0000
  12   0   4   11307    3196     0.00000 0.00000 0.00000 0.00000 0.00000 0.00000   22736  -15.50   58.60  1.0000
  14   0   4   64712    4099     0.00000 0.00000 0.00000 0.00000 0.00000 0.00000   84066  -20.83  -56.17  1.0000
  16   0   4   92736    4872     0.00000 0.00000 0.00000 0.00000 0.00000 0.00000   92279   11.09  -27.60  1.0000
  18   0   4   15804    4235     0.00000 0.00000 0.00000 0.00000 0.00000 0.00000   19015    8.42   20.72  1.0000
  20   0   4   74105   10708     0.00000 0.00000 0.00000 0.00000 0.00000 0.00000   79443  -10.65   46.30  1.0000
  22   0   4   40386    6577     0.00000 0.00000 0.00000 0.00000 0.00000 0.00000   36560  -37.65  -87.54  1.0000
  24   0   4    3665    5971     0.00000 0.00000 0.00000 0.00000 0.00000 0.00000   12036  -21.79   47.44  1.0000
   3   1   4   48892    3542     0.00000 0.00000 0.00000 0.00000 0.00000 0.00000   36637  -29.30  -21.72  1.0000
   5   1   4   48999    3023     0.00000 0.00000 0.00000 0.00000 0.00000 0.00000   56051  -16.50    2.78  1.0000
   7   1   4  136485    5906     0.00000 0.00000 0.00000 0.00000 0.00000 0.00000  178214   25.71   69.86  1.0000
   9   1   4   10186    1591     0.00000 0.00000 0.00000 0.00000 0.00000 0.00000    6223   21.60   27.12  1.0000
  11   1   4   20352    1978     0.00000 0.00000 0.00000 0.00000 0.00000 0.00000   17715   -9.56   -1.67  1.0000
  13   1   4   64846    3060     0.00000 0.00000 0.00000 0.00000 0.00000 0.00000   70421  -11.45    1.80  1.0000
  15   1   4   52538    3027     0.00000 0.00000 0.00000 0.00000 0.00000 0.00000   60341   20.31   -8.92  1.0000
  17   1   4    2245    2483     0.00000 0.00000 0.00000 0.00000 0.00000 0.00000    6573  -26.85   37.91  1.0000
  19   1   4    7001    3154     0.00000 0.00000 0.00000 0.00000 0.00000 0.00000    8907    6.34   18.63  1.0000
  21   1   4    1059    3736     0.00000 0.00000 0.00000 0.00000 0.00000 0.00000    8150  -23.39   74.07  1.0000
  23   1   4      96    4299     0.00000 0.00000 0.00000 0.00000 0.00000 0.00000   10062   91.28   36.72  1.0000
  25   1   4    1009    5252     0.00000 0.00000 0.00000 0.00000 0.00000 0.00000    5682  -89.27   17.11  1.0000
   0   2   4  129987    3830     0.00000 0.00000 0.00000 0.00000 0.00000 0.00000   56110  529.82  120.95  1.0000
   2   2   4 1593408   45549     0.00000 0.00000 0.00000 0.00000 0.00000 0.00000 1414652  -73.86   -1.56  1.0000
   4   2   4  186071    7699     0.00000 0.00000 0.00000 0.00000 0.00000 0.00000  257489  -77.23   11.30  1.0000
   6   2   4   10777    4833     0.00000 0.00000 0.00000 0.00000 0.00000 0.00000   15821   23.07   -8.81  1.0000
   8   2   4    5922    4039     0.00000 0.00000 0.00000 0.00000 0.00000 0.00000   14697   34.73  -32.08  1.0000
  10   2   4    2984    1725     0.00000 0.00000 0.00000 0.00000 0.00000 0.00000    1389   -6.86  -16.24  1.0000
  12   2   4   26736    2109     0.00000 0.00000 0.00000 0.00000 0.00000 0.00000   23167  -27.11   -7.14  1.0000
  14   2   4   17843    2252     0.00000 0.00000 0.00000 0.00000 0.00000 0.00000   20573  -10.19    4.74  1.0000
  16   2   4   39645    2506     0.00000 0.00000 0.00000 0.00000 0.00000 0.00000   52517   29.74   -7.37  1.0000
  18   2   4   91815    4669     0.00000 0.00000 0.00000 0.00000 0.00000 0.00000  101751   11.98  -69.38  1.0000
  20   2   4   21335    3725     0.00000 0.00000 0.00000 0.00000 0.00000 0.00000   27445   -5.67  -29.96  1.0000
  22   2   4   49850    6556     0.00000 0.00000 0.00000 0.00000 0.00000 0.00000   52435   12.00  -94.97  1.0000
  24   2   4   14790    4671     0.00000 0.00000 0.00000 0.00000 0.00000 0.00000   17194    0.56  -11.54  1.0000
   1   3   4   50926    1881     0.00000 0.00000 0.00000 0.00000 0.00000 0.00000   39883  -28.99   22.16  1.0000
   5   3   4   52876    4140     0.00000 0.00000 0.00000 0.00000 0.00000 0.00000   21086   76.22  -62.84  1.0000
   7   3   4   61378    3663     0.00000 0.00000 0.00000 0.00000 0.00000 0.00000   69401  -54.89  -51.29  1.0000
   9   3   4   30746    2185     0.00000 0.00000 0.00000 0.00000 0.00000 0.00000   41951  -30.33    7.54  1.0000
  11   3   4   37659    2386     0.00000 0.00000 0.00000 0.00000 0.00000 0.00000   40952    6.95   -5.46  1.0000
  13   3   4   12532    2193     0.00000 0.00000 0.00000 0.00000 0.00000 0.00000   11495    6.00   -2.49  1.0000
  15   3   4   19738    2669     0.00000 0.00000 0.00000 0.00000 0.00000 0.00000   20122  -32.71  -14.06  1.0000
  17   3   4   27593    2861     0.00000 0.00000 0.00000 0.00000 0.00000 0.00000   32222    6.91   38.03  1.0000
  19   3   4   44558    3843     0.00000 0.00000 0.00000 0.00000 0.00000 0.00000   29549   25.42   31.40  1.0000
  21   3   4    5886    3731     0.00000 0.00000 0.00000 0.00000 0.00000 0.00000    9282  -10.14   17.32  1.0000
  23   3   4   27376    4656     0.00000 0.00000 0.00000 0.00000 0.00000 0.00000   23442   22.04   -8.68  1.0000
  25   3   4   13310    6715     0.00000 0.00000 0.00000 0.00000 0.00000 0.00000   18698  -25.03   44.43  1.0000
   0   4   4   65930    3684     0.00000 0.00000 0.00000 0.00000 0.00000 0.00000   48830   11.82   76.47  1.0000
   2   4   4  178296    8725     0.00000 0.00000 0.00000 0.00000 0.00000 0.00000  249349  -77.50  -10.10  1.0000
   4   4   4    9627   15055     0.00000 0.00000 0.00000 0.00000 0.00000 0.00000  248217  407.66    0.05  1.0000
   6   4   4    5685    3888     0.00000 0.00000 0.00000 0.00000 0.00000 0.00000    6730  -14.86  -26.62  1.0000
   8   4   4    3268    1449     0.00000 0.00000 0.00000 0.00000 0.00000 0.00000    5142  -10.26  -16.70  1.0000
  10   4   4    4565    1808     0.00000 0.00000 0.00000 0.00000 0.00000 0.00000    8259   -2.12   29.33  1.0000
  12   4   4    8952    1877     0.00000 0.00000 0.00000 0.00000 0.00000 0.00000    9119  -18.81   39.95  1.0000
  14   4   4   31276    2474     0.00000 0.00000 0.00000 0.00000 0.00000 0.00000   34055   11.19  -26.03  1.0000
  16   4   4     350    2676     0.00000 0.00000 0.00000 0.00000 0.00000 0.00000    -594  -18.71    2.93  1.0000
  18   4   4     197    3227     0.00000 0.00000 0.00000 0.00000 0.00000 0.00000     454   35.27    5.44  1.0000
  20   4   4   23132    3709     0.00000 0.00000 0.00000 0.00000 0.00000 0.00000   32090   20.51   25.42  1.0000
  22   4   4   34925    4853     0.00000 0.00000 0.00000 0.00000 0.00000 0.00000   28407  -19.58    7.76  1.0000
  24   4   4    6352    5790     0.00000 0.00000 0.00000 0.00000 0.00000 0.00000   15557  -45.82   13.23  1.0000
   1   5   4   36637    6333     0.00000 0.00000 0.00000 0.00000 0.00000 0.00000   42845  -15.71   -1.67  1.0000
   3   5   4   45326    3116     0.00000 0.00000 0.00000 0.00000 0.00000 0.00000   14137   74.97   64.74  1.0000
   5   5   4   30825    7854     0.00000 0.00000 0.00000 0.00000 0.00000 0.00000   19874   35.02    2.37  1.0000
   9   5   4    2976    1623     0.00000 0.00000 0.00000 0.00000 0.00000 0.00000    4888    7.66  -15.25  1.0000
  11   5   4    9298    1767     0.00000 0.00000 0.00000 0.00000 0.00000 0.00000   10694  -17.82    9.65  1.0000
  13   5   4     112    2150     0.00000 0.00000 0.00000 0.00000 0.00000 0.00000     257   11.74    0.64  1.0000
  15   5   4    3674    2660     0.00000 0.00000 0.00000 0.00000 0.00000 0.00000    1079  -32.95  -31.53  1.0000
  17   5   4    9509    2779     0.00000 0.00000 0.00000 0.00000 0.00000 0.00000   12936   19.55    5.23  1.0000
  19   5   4   17633    4141     0.00000 0.00000 0.00000 0.00000 0.00000 0.00000   21540   17.58   -7.30  1.0000
  21   5   4   21619    4209     0.00000 0.00000 0.00000 0.00000 0.00000 0.00000   25549   -9.08   54.55  1.0000
  23   5   4   12960    4941     0.00000 0.00000 0.00000 0.00000 0.00000 0.00000   14640    3.98    7.07  1.0000
  25   5   4    4357    5548     0.00000 0.00000 0.00000 0.00000 0.00000 0.00000   14099    8.48  -53.46  1.0000
   2   6   4    1500    7795     0.00000 0.00000 0.00000 0.00000 0.00000 0.00000    3895   23.42    8.13  1.0000
   4   6   4     844    4236     0.00000 0.00000 0.00000 0.00000 0.00000 0.00000   -2583  -13.96   25.88  1.0000
   6   6   4  239156    7195     0.00000 0.00000 0.00000 0.00000 0.00000 0.00000  264003  -24.81   -8.84  1.0000
   8   6   4   19497    2522     0.00000 0.00000 0.00000 0.00000 0.00000 0.00000   30799   16.88   32.18  1.0000
  10   6   4   16088    1966     0.00000 0.00000 0.00000 0.00000 0.00000 0.00000   22683   -4.19  -42.93  1.0000
  12   6   4   15921    2430     0.00000 0.00000 0.00000 0.00000 0.00000 0.00000   13581   -5.62   -7.99  1.0000
  14   6   4    2432    2615     0.00000 0.00000 0.00000 0.00000 0.00000 0.00000    3125   -1.45  -41.23  1.0000
  16   6   4    3373    2780     0.00000 0.00000 0.00000 0.00000 0.00000 0.00000    6963    0.17   25.92  1.0000
  18   6   4    1904    3260     0.00000 0.00000 0.00000 0.00000 0.00000 0.00000    7423   49.15    1.65  1.0000
  20   6   4   16012    4194     0.00000 0.00000 0.00000 0.00000 0.00000 0.00000   18629   19.03  -43.37  1.0000
  22   6   4    8250    5543     0.00000 0.00000 0.00000 0.00000 0.00000 0.00000    5207   11.81  -19.83  1.0000
  24   6   4    7458    5228     0.00000 0.00000 0.00000 0.00000 0.00000 0.00000   10193  -48.10    1.68  1.0000
   1   7   4  136549   16175     0.00000 0.00000 0.00000 0.00000 0.00000 0.00000  168046   24.97  -70.05  1.0000
   3   7   4   50184   12908     0.00000 0.00000 0.00000 0.00000 0.00000 0.00000   58520  -56.61   51.39  1.0000
   7   7   4   18847    1925     0.00000 0.00000 0.00000 0.00000 0.00000 0.00000   26435  -25.05   -5.52  1.0000
   9   7   4    5394    2117     0.00000 0.00000 0.00000 0.00000 0.00000 0.00000    4858   -5.85  -16.72  1.0000
  11   7   4   10320    2321     0.00000 0.00000 0.00000 0.00000 0.00000 0.00000   11558    8.03   24.16  1.0000
  13   7   4    5890    2530     0.00000 0.00000 0.00000 0.00000 0.00000 0.00000    9210   -7.83   45.23  1.0000
  15   7   4   10689    2882     0.00000 0.00000 0.00000 0.00000 0.00000 0.00000   11067    0.50    3.05  1.0000
  17   7   4   10076    3518     0.00000 0.00000 0.00000 0.00000 0.00000 0.00000    9709    3.44  -13.09  1.0000
  19   7   4   18081    4086     0.00000 0.00000 0.00000 0.00000 0.00000 0.00000   20980   -9.00   -6.33  1.0000
  21   7   4   24917    5150     0.00000 0.00000 0.00000 0.00000 0.00000 0.00000   26085  -11.95   33.04  1.0000
  23   7   4   12286    5429     0.00000 0.00000 0.00000 0.00000 0.00000 0.00000   11298    9.03   32.37  1.0000
   0   8   4   24899    6720     0.00000 0.00000 0.00000 0.00000 0.00000 0.00000   17337  -24.20   10.95  1.0000
   2   8   4    1940    5471     0.00000 0.00000 0.00000 0.00000 0.00000 0.00000   -5762   33.85   29.03  1.0000
   4   8   4    1893    1742     0.00000 0.00000 0.00000 0.00000 0.00000 0.00000    3201  -10.46   15.28  1.0000
   6   8   4   20452    1995     0.00000 0.00000 0.00000 0.00000 0.00000 0.00000   31612   27.18  -26.05  1.0000
   8   8   4     914    2193     0.00000 0.00000 0.00000 0.00000 0.00000 0.00000    4601   56.86   33.18  1.0000
  10   8   4    2397    2428     0.00000 0.00000 0.00000 0.00000 0.00000 0.00000     991    1.70  -23.31  1.0000
  12   8   4     330    3129     0.00000 0.00000 0.00000 0.00000 0.00000 0.00000    -643   18.40    0.27  1.0000
  14   8   4    6091    2702     0.00000 0.00000 0.00000 0.00000 0.00000 0.00000    3153    3.73  -27.75  1.0000
  16   8   4    3083    3362     0.00000 0.00000 0.00000 0.00000 0.00000 0.00000    5133  -14.63   -9.87  1.0000
  18   8   4     417    3579     0.00000 0.00000 0.00000 0.00000 0.00000 0.00000    1723    7.67   45.76  1.0000
  20   8   4    4878    4534     0.00000 0.00000 0.00000 0.00000 0.00000 0.00000    3930  -28.99   20.49  1.0000
  22   8   4    2271    4982     0.00000 0.00000 0.00000 0.00000 0.00000 0.00000    2045  -45.39  -32.23  1.0000
  24   8   4    7384    5330     0.00000 0.00000 0.00000 0.00000 0.00000 0.00000   10457  -28.33    1.55  1.0000
   1   9   4    2259    2094     0.00000 0.00000 0.00000 0.00000 0.00000 0.00000    2307   21.30  -28.14  1.0000
   3   9   4   34383    2452     0.00000 0.00000 0.00000 0.00000 0.00000 0.00000   44327  -31.47   -5.31  1.0000
   5   9   4    4331    1670     0.00000 0.00000 0.00000 0.00000 0.00000 0.00000    6560    9.11   12.61  1.0000
   7   9   4    5246    1850     0.00000 0.00000 0.00000 0.00000 0.00000 0.00000    4925   -0.81    4.97  1.0000
   9   9   4    5074    2243     0.00000 0.00000 0.00000 0.00000 0.00000 0.00000    3208  -13.98   -4.82  1.0000
  11   9   4   13091    2620     0.00000 0.00000 0.00000 0.00000 0.00000 0.00000   15104  -40.24   21.81  1.0000
  13   9   4    7773    2821     0.00000 0.00000 0.00000 0.00000 0.00000 0.00000   15782  -18.59   39.59  1.0000
  15   9   4    4918    3114     0.00000 0.00000 0.00000 0.00000 0.00000 0.00000    1475   32.34    3.24  1.0000
  17   9   4    5378    3724     0.00000 0.00000 0.00000 0.00000 0.00000 0.00000    5689    2.79   -9.12  1.0000
  19   9   4    5337    3697     0.00000 0.00000 0.00000 0.00000 0.00000 0.00000    7033    9.40    6.56  1.0000
  21   9   4   28826    5911     0.00000 0.00000 0.00000 0.00000 0.00000 0.00000   28085    3.78  -14.03  1.0000
  23   9   4   13904    5015     0.00000 0.00000 0.00000 0.00000 0.00000 0.00000   16042    7.82    4.33  1.0000
   0  10   4    8245    2239     0.00000 0.00000 0.00000 0.00000 0.00000 0.00000   12621  -30.14  -41.78  1.0000
   2  10   4     539    1559     0.00000 0.00000 0.00000 0.00000 0.00000 0.00000      36   -6.90   16.20  1.0000
   4  10   4    3152    1760     0.00000 0.00000 0.00000 0.00000 0.00000 0.00000    6075    3.81  -25.47  1.0000
   6  10   4   13587    2010     0.00000 0.00000 0.00000 0.00000 0.00000 0.00000   18664   -7.32   35.46  1.0000
   8  10   4    7730    2532     0.00000 0.00000 0.00000 0.00000 0.00000 0.00000    5789   -4.03   28.84  1.0000
  10  10   4    2013    2269     0.00000 0.00000 0.00000 0.00000 0.00000 0.00000    2094   -0.63   -7.60  1.0000
  12  10   4    4335    2768     0.00000 0.00000 0.00000 0.00000 0.00000 0.00000    6028    6.78  -12.26  1.0000
  14  10   4    5400    2893     0.00000 0.00000 0.00000 0.00000 0.00000 0.00000    7346    8.11    9.64  1.0000
  16  10   4    5976    3226     0.00000 0.00000 0.00000 0.00000 0.00000 0.00000    4475   -6.91   14.58  1.0000
  18  10   4    2114    3591     0.00000 0.00000 0.00000 0.00000 0.00000 0.00000    1377  -16.60   11.50  1.0000
  20  10   4    4207    4848     0.00000 0.00000 0.00000 0.00000 0.00000 0.00000    9474  -36.73   -0.97  1.0000
  22  10   4    8055    5242     0.00000 0.00000 0.00000 0.00000 0.00000 0.00000    9997  -10.85    7.96  1.0000
   1  11   4   20054    1791     0.00000 0.00000 0.00000 0.00000 0.00000 0.00000   17695   -9.18   -0.23  1.0000
   3  11   4   39522    2216     0.00000 0.00000 0.00000 0.00000 0.00000 0.00000   42914    6.64    5.30  1.0000
   5  11   4    9522    2014     0.00000 0.00000 0.00000 0.00000 0.00000 0.00000   11049  -20.22  -10.34  1.0000
   7  11   4   11749    2289     0.00000 0.00000 0.00000 0.00000 0.00000 0.00000   14249    7.78  -26.71  1.0000
   9  11   4   11239    2419     0.00000 0.00000 0.00000 0.00000 0.00000 0.00000   14777  -43.19  -26.17  1.0000
  11  11   4     133    2735     0.00000 0.00000 0.00000 0.00000 0.00000 0.00000   -1745  -11.69   -0.25  1.0000
  13  11   4    7120    3106     0.00000 0.00000 0.00000 0.00000 0.00000 0.00000    9637    2.37  -14.94  1.0000
  15  11   4     739    3523     0.00000 0.00000 0.00000 0.00000 0.00000 0.00000   -1023  -14.14  -23.62  1.0000
  17  11   4      31    4018     0.00000 0.00000 0.00000 0.00000 0.00000 0.00000    -894    4.80    2.99  1.0000
  19  11   4    6213    4203     0.00000 0.00000 0.00000 0.00000 0.00000 0.00000    5286   -7.91   26.80  1.0000
  21  11   4   17663    5489     0.00000 0.00000 0.00000 0.00000 0.00000 0.00000   20985  -12.37    1.77  1.0000
  23  11   4    3522    6407     0.00000 0.00000 0.00000 0.00000 0.00000 0.00000    4645   -4.58   -9.62  1.0000
   0  12   4   18645    3392     0.00000 0.00000 0.00000 0.00000 0.00000 0.00000   32166  -17.57  -57.70  1.0000
   2  12   4   27917    2045     0.00000 0.00000 0.00000 0.00000 0.00000 0.00000   25610  -27.87    8.61  1.0000
   4  12   4   10948    2123     0.00000 0.00000 0.00000 0.00000 0.00000 0.00000   11226  -18.16  -37.74  1.0000
   6  12   4   24303    2707     0.00000 0.00000 0.00000 0.00000 0.00000 0.00000   20767   -9.68    7.57  1.0000
   8  12   4     610    2318     0.00000 0.00000 0.00000 0.00000 0.00000 0.00000     889   20.69   -1.76  1.0000
  10  12   4    6625    2733     0.00000 0.00000 0.00000 0.00000 0.00000 0.00000    9038   -0.28   13.88  1.0000
  12  12   4    1354    3087     0.00000 0.00000 0.00000 0.00000 0.00000 0.00000    2682   14.90    3.20  1.0000
  14  12   4    3134    3413     0.00000 0.00000 0.00000 0.00000 0.00000 0.00000    1515    3.83   17.90  1.0000
  16  12   4     116    3927     0.00000 0.00000 0.00000 0.00000 0.00000 0.00000   -5890    0.91  -10.88  1.0000
  18  12   4    4674    4095     0.00000 0.00000 0.00000 0.00000 0.00000 0.00000    7599   -4.22  -19.23  1.0000
  20  12   4     135    5265     0.00000 0.00000 0.00000 0.00000 0.00000 0.00000     339   -9.05   -0.10  1.0000
  22  12   4     897    6433     0.00000 0.00000 0.00000 0.00000 0.00000 0.00000   -1116   30.19    2.76  1.0000
   1  13   4   58823    3725     0.00000 0.00000 0.00000 0.00000 0.00000 0.00000   64660  -11.88   -0.63  1.0000
   3  13   4   14069    2504     0.00000 0.00000 0.00000 0.00000 0.00000 0.00000   12714    6.60    5.88  1.0000
   5  13   4    2194    2167     0.00000 0.00000 0.00000 0.00000 0.00000 0.00000    3417   12.70   -0.38  1.0000
   7  13   4    9451    2492     0.00000 0.00000 0.00000 0.00000 0.00000 0.00000   11077   -6.41  -42.11  1.0000
   9  13   4   10823    4127     0.00000 0.00000 0.00000 0.00000 0.00000 0.00000   19867  -17.99  -38.77  1.0000
  11  13   4    4755    3079     0.00000 0.00000 0.00000 0.00000 0.00000 0.00000    7042    4.84   14.59  1.0000
  13  13   4     216    3400     0.00000 0.00000 0.00000 0.00000 0.00000 0.00000    -106   14.87    0.87  1.0000
  15  13   4      57    3874     0.00000 0.00000 0.00000 0.00000 0.00000 0.00000   -2577   -4.00    6.48  1.0000
  17  13   4     227    4299     0.00000 0.00000 0.00000 0.00000 0.00000 0.00000   -6449   14.99   -2.77  1.0000
  19  13   4    3959    5363     0.00000 0.00000 0.00000 0.00000 0.00000 0.00000    6131   14.92    4.55  1.0000
  21  13   4     290    6295     0.00000 0.00000 0.00000 0.00000 0.00000 0.00000    -746  -13.14  -11.17  1.0000
   0  14   4   69927    4818     0.00000 0.00000 0.00000 0.00000 0.00000 0.00000   82103  -20.14   55.20  1.0000
   2  14   4   20685    2256     0.00000 0.00000 0.00000 0.00000 0.00000 0.00000   23649   -9.49   -6.90  1.0000
   4  14   4   31261    2681     0.00000 0.00000 0.00000 0.00000 0.00000 0.00000   32044   13.45   27.66  1.0000
   6  14   4    2881    2573     0.00000 0.00000 0.00000 0.00000 0.00000 0.00000    4897   -1.18   39.48  1.0000
   8  14   4   10456    2640     0.00000 0.00000 0.00000 0.00000 0.00000 0.00000    6327    5.36   28.01  1.0000
  10  14   4    6975    3274     0.00000 0.00000 0.00000 0.00000 0.00000 0.00000    8971    7.50   -8.66  1.0000
  12  14   4    1675    3523     0.00000 0.00000 0.00000 0.00000 0.00000 0.00000     572    5.84  -17.99  1.0000
  14  14   4     347    3835     0.00000 0.00000 0.00000 0.00000 0.00000 0.00000      -9  -18.84   -0.95  1.0000
  16  14   4      48    4294     0.00000 0.00000 0.00000 0.00000 0.00000 0.00000   -6441    7.03    0.19  1.0000
  18  14   4      34    4631     0.00000 0.00000 0.00000 0.00000 0.00000 0.00000   -6947   -5.93    0.05  1.0000
  20  14   4      29    6212     0.00000 0.00000 0.00000 0.00000 0.00000 0.00000   -4244   -5.41    0.53  1.0000
   1  15   4   54002    2766     0.00000 0.00000 0.00000 0.00000 0.00000 0.00000   62745   19.43    6.88  1.0000
   3  15   4   19580    2606     0.00000 0.00000 0.00000 0.00000 0.00000 0.00000   20449  -32.49   14.26  1.0000
   5  15   4    1871    2489     0.00000 0.00000 0.00000 0.00000 0.00000 0.00000    -685  -32.48   29.37  1.0000
   7  15   4   14821    2739     0.00000 0.00000 0.00000 0.00000 0.00000 0.00000   15284   -0.83   -1.85  1.0000
   9  15   4    1050    3511     0.00000 0.00000 0.00000 0.00000 0.00000 0.00000   -4849   32.60   -3.72  1.0000
  11  15   4     686    3595     0.00000 0.00000 0.00000 0.00000 0.00000 0.00000     -50  -13.59   22.77  1.0000
  13  15   4      65    3966     0.00000 0.00000 0.00000 0.00000 0.00000 0.00000   -4929   -4.76   -6.62  1.0000
  15  15   4      30    4305     0.00000 0.00000 0.00000 0.00000 0.00000 0.00000   -3866    5.57    0.40  1.0000
  17  15   4     161    4489     0.00000 0.00000 0.00000 0.00000 0.00000 0.00000   -6734   -9.51   -8.62  1.0000
  19  15   4      36    5556     0.00000 0.00000 0.00000 0.00000 0.00000 0.00000   -4421    5.79    1.91  1.0000
   0  16   4   87125    4745     0.00000 0.00000 0.00000 0.00000 0.00000 0.00000   89928   10.81   26.43  1.0000
   2  16   4   42499    2971     0.00000 0.00000 0.00000 0.00000 0.00000 0.00000   55695   28.91    8.80  1.0000
   4  16   4    2982    2345     0.00000 0.00000 0.00000 0.00000 0.00000 0.00000    1356  -18.91   -0.96  1.0000
   6  16   4    4710    2661     0.00000 0.00000 0.00000 0.00000 0.00000 0.00000    9001   -1.70  -26.96  1.0000
   8  16   4    7302    3335     0.00000 0.00000 0.00000 0.00000 0.00000 0.00000    9922  -13.81   11.53  1.0000
  10  16   4     347    3646     0.00000 0.00000 0.00000 0.00000 0.00000 0.00000    -780  -10.30  -15.80  1.0000
  12  16   4    2856    4120     0.00000 0.00000 0.00000 0.00000 0.00000 0.00000    2073    1.21   11.06  1.0000
  14  16   4      48    4235     0.00000 0.00000 0.00000 0.00000 0.00000 0.00000   -4683    7.01    0.16  1.0000
  16  16   4     124    4521     0.00000 0.00000 0.00000 0.00000 0.00000 0.00000   -6782  -11.26   -0.56  1.0000
  18  16   4      37    5703     0.00000 0.00000 0.00000 0.00000 0.00000 0.00000   -8555    5.40   -2.92  1.0000
  20  16   4    2172    7760     0.00000 0.00000 0.00000 0.00000 0.00000 0.00000    1106   12.24    6.09  1.0000
   1  17   4    1443    2725     0.00000 0.00000 0.00000 0.00000 0.00000 0.00000    5930  -26.27  -36.13  1.0000
   3  17   4   22437    2877     0.00000 0.00000 0.00000 0.00000 0.00000 0.00000   27909    7.43  -37.69  1.0000
   5  17   4   13602    2871     0.00000 0.00000 0.00000 0.00000 0.00000 0.00000   17349   20.57   -5.13  1.0000
   7  17   4    5288    3230     0.00000 0.00000 0.00000 0.00000 0.00000 0.00000    4494    3.75   13.84  1.0000
   9  17   4    1256    3840     0.00000 0.00000 0.00000 0.00000 0.00000 0.00000    1767    4.40    7.31  1.0000
  11  17   4      40    4033     0.00000 0.00000 0.00000 0.00000 0.00000 0.00000   -2171    6.01   -2.15  1.0000
  13  17   4     223    4437     0.00000 0.00000 0.00000 0.00000 0.00000 0.00000   -2937   14.88    2.69  1.0000
  15  17   4     162    4496     0.00000 0.00000 0.00000 0.00000 0.00000 0.00000     -27  -10.14    7.92  1.0000
  17  17   4       0    5750     0.00000 0.00000 0.00000 0.00000 0.00000 0.00000   -8624   -0.55   -0.03  1.0000
  19  17   4     203    5731     0.00000 0.00000 0.00000 0.00000 0.00000 0.00000   -6808  -14.20    2.45  1.0000
   0  18   4    9170    3530     0.00000 0.00000 0.00000 0.00000 0.00000 0.00000   11632    7.79  -23.20  1.0000
   2  18   4   95341    3847     0.00000 0.00000 0.00000 0.00000 0.00000 0.00000   93111   12.42   70.13  1.0000
   4  18   4    2864    3136     0.00000 0.00000 0.00000 0.00000 0.00000 0.00000    7190   35.53   -7.34  1.0000
   6  18   4    1222    3204     0.00000 0.00000 0.00000 0.00000 0.00000 0.00000    6743   48.03   -1.74  1.0000
   8  18   4    1955    3520     0.00000 0.00000 0.00000 0.00000 0.00000 0.00000    5664    8.97  -45.70  1.0000
  10  18   4     405    4080     0.00000 0.00000 0.00000 0.00000 0.00000 0.00000    -174  -16.44  -12.05  1.0000
  12  18   4     709    4346     0.00000 0.00000 0.00000 0.00000 0.00000 0.00000    1900   -3.18   19.06  1.0000
  14  18   4      44    4816     0.00000 0.00000 0.00000 0.00000 0.00000 0.00000   -1906   -6.72    0.13  1.0000
  16  18   4      40    5549     0.00000 0.00000 0.00000 0.00000 0.00000 0.00000   -8323    5.63    3.04  1.0000
  18  18   4     597    5367     0.00000 0.00000 0.00000 0.00000 0.00000 0.00000   -6529  -24.73    0.14  1.0000
   1  19   4    4736    2807     0.00000 0.00000 0.00000 0.00000 0.00000 0.00000    5766    6.93  -17.15  1.0000
   3  19   4   43084    3099     0.00000 0.00000 0.00000 0.00000 0.00000 0.00000   29001   24.94  -31.94  1.0000
   5  19   4   15194    3376     0.00000 0.00000 0.00000 0.00000 0.00000 0.00000   19694   17.44    8.57  1.0000
   7  19   4   28615    3600     0.00000 0.00000 0.00000 0.00000 0.00000 0.00000   31343   -8.62    7.08  1.0000
   9  19   4   15107    3959     0.00000 0.00000 0.00000 0.00000 0.00000 0.00000   17083    9.55   -7.87  1.0000
  11  19   4   11566    4476     0.00000 0.00000 0.00000 0.00000 0.00000 0.00000   13128   -7.61  -28.19  1.0000
  13  19   4    1298    5186     0.00000 0.00000 0.00000 0.00000 0.00000 0.00000    2301   14.71   -4.44  1.0000
  15  19   4      40    5372     0.00000 0.00000 0.00000 0.00000 0.00000 0.00000   -8058    5.85   -2.64  1.0000
  17  19   4     207    5557     0.00000 0.00000 0.00000 0.00000 0.00000 0.00000   -8335  -14.25   -3.08  1.0000
   0  20   4   88880    4926     0.00000 0.00000 0.00000 0.00000 0.00000 0.00000   81933  -10.45  -49.41  1.0000
   2  20   4   18479    3352     0.00000 0.00000 0.00000 0.00000 0.00000 0.00000   22267   -5.42   31.69  1.0000
   4  20   4   24181    3511     0.00000 0.00000 0.00000 0.00000 0.00000 0.00000   29451   20.20  -26.15  1.0000
   6  20   4   19293    4071     0.00000 0.00000 0.00000 0.00000 0.00000 0.00000   18991   18.09   42.11  1.0000
   8  20   4    5909    3987     0.00000 0.00000 0.00000 0.00000 0.00000 0.00000    4514  -30.78  -21.80  1.0000
  10  20   4     739    4211     0.00000 0.00000 0.00000 0.00000 0.00000 0.00000    3394  -36.93    0.01  1.0000
  12  20   4      86    4735     0.00000 0.00000 0.00000 0.00000 0.00000 0.00000    -620   -9.38   -0.04  1.0000
  14  20   4      32    4878     0.00000 0.00000 0.00000 0.00000 0.00000 0.00000   -3138   -5.66   -0.75  1.0000
  16  20   4     186    5573     0.00000 0.00000 0.00000 0.00000 0.00000 0.00000   -5315   12.69   -5.48  1.0000
   1  21   4    1636    3233     0.00000 0.00000 0.00000 0.00000 0.00000 0.00000   10147  -23.70  -73.97  1.0000
   3  21   4    4915    3419     0.00000 0.00000 0.00000 0.00000 0.00000 0.00000    7884  -10.02  -16.83  1.0000
   5  21   4   14745    3889     0.00000 0.00000 0.00000 0.00000 0.00000 0.00000   12715   -8.67  -55.43  1.0000
   7  21   4   16099    3997     0.00000 0.00000 0.00000 0.00000 0.00000 0.00000   20395  -12.06  -31.88  1.0000
   9  21   4   21890    4180     0.00000 0.00000 0.00000 0.00000 0.00000 0.00000   22781    3.96   15.37  1.0000
  11  21   4    4230    5182     0.00000 0.00000 0.00000 0.00000 0.00000 0.00000    5954  -12.16   -3.07  1.0000
  13  21   4    3103    4920     0.00000 0.00000 0.00000 0.00000 0.00000 0.00000    1675  -12.96   10.23  1.0000
   0  22   4   34311    5046     0.00000 0.00000 0.00000 0.00000 0.00000 0.00000   35451  -38.81   87.53  1.0000
   2  22   4   66381    3917     0.00000 0.00000 0.00000 0.00000 0.00000 0.00000   51736   11.37   95.68  1.0000
   4  22   4   26567    3588     0.00000 0.00000 0.00000 0.00000 0.00000 0.00000   20511  -19.33   -6.13  1.0000
   6  22   4   14603    3860     0.00000 0.00000 0.00000 0.00000 0.00000 0.00000    9816   11.20   20.80  1.0000
   8  22   4    4766    4419     0.00000 0.00000 0.00000 0.00000 0.00000 0.00000    7049  -45.37   32.82  1.0000
  10  22   4    2320    4685     0.00000 0.00000 0.00000 0.00000 0.00000 0.00000    3431  -11.19   -8.24  1.0000
  12  22   4    2917    4827     0.00000 0.00000 0.00000 0.00000 0.00000 0.00000    6692   29.21   -0.38  1.0000
   1  23   4    1712    5908     0.00000 0.00000 0.00000 0.00000 0.00000 0.00000   17476   90.28  -36.69  1.0000
   3  23   4   11891    3984     0.00000 0.00000 0.00000 0.00000 0.00000 0.00000    8531   21.52    8.66  1.0000
   5  23   4    7696    4234     0.00000 0.00000 0.00000 0.00000 0.00000 0.00000    8915    4.19   -8.09  1.0000
   7  23   4    6063    4393     0.00000 0.00000 0.00000 0.00000 0.00000 0.00000    6467    8.67  -33.03  1.0000
   9  23   4    1565    5021     0.00000 0.00000 0.00000 0.00000 0.00000 0.00000    2189    7.48   -3.69  1.0000
  11  23   4    2806    4933     0.00000 0.00000 0.00000 0.00000 0.00000 0.00000    3422   -4.54    9.19  1.0000
   0  24   4    3836    7325     0.00000 0.00000 0.00000 0.00000 0.00000 0.00000   10520  -23.21  -46.85  1.0000
   2  24   4    4032    4553     0.00000 0.00000 0.00000 0.00000 0.00000 0.00000    5326    1.65   11.08  1.0000
   4  24   4    1178    5044     0.00000 0.00000 0.00000 0.00000 0.00000 0.00000    6511  -44.78  -14.21  1.0000
   6  24   4    6839    4236     0.00000 0.00000 0.00000 0.00000 0.00000 0.00000   10620  -48.34   -2.00  1.0000
   8  24   4     751    5058     0.00000 0.00000 0.00000 0.00000 0.00000 0.00000   -1692  -27.73   -0.86  1.0000
   1  25   4    3519    5188     0.00000 0.00000 0.00000 0.00000 0.00000 0.00000   12514  -89.14  -17.01  1.0000
   3  25   4    6979    5726     0.00000 0.00000 0.00000 0.00000 0.00000 0.00000    9238  -24.57  -44.62  1.0000
   5  25   4    2852    5295     0.00000 0.00000 0.00000 0.00000 0.00000 0.00000   11344    8.63   53.93  1.0000
   2   1   5   59367    1153     0.00000 0.00000 0.00000 0.00000 0.00000 0.00000   18346  -39.49 -164.40  1.0000
   4   1   5   48228    1819     0.00000 0.00000 0.00000 0.00000 0.00000 0.00000    6948  160.55 -115.34  1.0000
   6   1   5  176974    6497     0.00000 0.00000 0.00000 0.00000 0.00000 0.00000  219729   71.74   12.93  1.0000
   8   1   5   16119    4360     0.00000 0.00000 0.00000 0.00000 0.00000 0.00000   46403  -94.12  -40.56  1.0000
  10   1   5   49179    2172     0.00000 0.00000 0.00000 0.00000 0.00000 0.00000   38465  -26.48   10.79  1.0000
  12   1   5   28736    2738     0.00000 0.00000 0.00000 0.00000 0.00000 0.00000   47194   42.71  -22.93  1.0000
  14   1   5   37310    3955     0.00000 0.00000 0.00000 0.00000 0.00000 0.00000   44476    0.35  -33.62  1.0000
  16   1   5   36340    3117     0.00000 0.00000 0.00000 0.00000 0.00000 0.00000   42731  -13.07    9.77  1.0000
  18   1   5    4524    2897     0.00000 0.00000 0.00000 0.00000 0.00000 0.00000    8450    4.53   24.87  1.0000
  20   1   5   10670    3408     0.00000 0.00000 0.00000 0.00000 0.00000 0.00000    3140   58.06   -4.14  1.0000
  22   1   5    9084    4046     0.00000 0.00000 0.00000 0.00000 0.00000 0.00000   13041   46.42   24.11  1.0000
  24   1   5    6716    4505     0.00000 0.00000 0.00000 0.00000 0.00000 0.00000   17712   59.84  -23.33  1.0000
   1   2   5   63017    1312     0.00000 0.00000 0.00000 0.00000 0.00000 0.00000   17454   40.21 -161.77  1.0000
   3   2   5   12492    1799     0.00000 0.00000 0.00000 0.00000 0.00000 0.00000   15231  -18.28  -11.05  1.0000
   5   2   5   32798    4397     0.00000 0.00000 0.00000 0.00000 0.00000 0.00000  118039   14.44  217.34  1.0000
   7   2   5   41658    3582     0.00000 0.00000 0.00000 0.00000 0.00000 0.00000   32942  -55.00    8.19  1.0000
   9   2   5   43034    2326     0.00000 0.00000 0.00000 0.00000 0.00000 0.00000   41780    8.53   23.98  1.0000
  11   2   5    3765    1885     0.00000 0.00000 0.00000 0.00000 0.00000 0.00000    3179   63.51   90.42  1.0000
  13   2   5    4733    2258     0.00000 0.00000 0.00000 0.00000 0.00000 0.00000    2493  -10.59   15.91  1.0000
  15   2   5   33733    2347     0.00000 0.00000 0.00000 0.00000 0.00000 0.00000   39853   20.36   18.30  1.0000
  17   2   5    8595    3718     0.00000 0.00000 0.00000 0.00000 0.00000 0.00000   10418   -9.00  -25.10  1.0000
  19   2   5    4102    3500     0.00000 0.00000 0.00000 0.00000 0.00000 0.00000    9975   35.57  -14.07  1.0000
  21   2   5    7093    3746     0.00000 0.00000 0.00000 0.00000 0.00000 0.00000    4728    9.47  -14.45  1.0000
  23   2   5    2729    5026     0.00000 0.00000 0.00000 0.00000 0.00000 0.00000   12758 -100.03   90.62  1.0000
  25   2   5   11470    5025     0.00000 0.00000 0.00000 0.00000 0.00000 0.00000   16920  -41.95  -34.02  1.0000
   2   3   5    9961    1694     0.00000 0.00000 0.00000 0.00000 0.00000 0.00000   12220   18.46   -9.62  1.0000
   6   3   5   78934   17388     0.00000 0.00000 0.00000 0.00000 0.00000 0.00000  183293  -55.63  138.26  1.0000
   8   3   5   55455    3262     0.00000 0.00000 0.00000 0.00000 0.00000 0.00000   52715  -38.40  -16.71  1.0000
  10   3   5   59414    2725     0.00000 0.00000 0.00000 0.00000 0.00000 0.00000   49114   18.73  -13.79  1.0000
  12   3   5   12573    2451     0.00000 0.00000 0.00000 0.00000 0.00000 0.00000   14928   10.64  -31.69  1.0000
  14   3   5  113887    3750     0.00000 0.00000 0.00000 0.00000 0.00000 0.00000  102273   49.29    7.53  1.0000
  16   3   5   17473    3024     0.00000 0.00000 0.00000 0.00000 0.00000 0.00000   18931   17.98   18.98  1.0000
  18   3   5      65    3262     0.00000 0.00000 0.00000 0.00000 0.00000 0.00000     913   -9.42  -23.84  1.0000
  20   3   5   19611    3517     0.00000 0.00000 0.00000 0.00000 0.00000 0.00000   17514  -41.57  -29.83  1.0000
  22   3   5   11156    3990     0.00000 0.00000 0.00000 0.00000 0.00000 0.00000    9601    9.65   -1.31  1.0000
  24   3   5    6699    4941     0.00000 0.00000 0.00000 0.00000 0.00000 0.00000   19136   86.22  -22.36  1.0000
   1   4   5   44194    1326     0.00000 0.00000 0.00000 0.00000 0.00000 0.00000    2494 -157.39 -115.46  1.0000
   7   4   5   17660    2650     0.00000 0.00000 0.00000 0.00000 0.00000 0.00000   11578  -19.28  -17.84  1.0000
   9   4   5    7799    1660     0.00000 0.00000 0.00000 0.00000 0.00000 0.00000   11882  -23.89    6.62  1.0000
  11   4   5   16763    1864     0.00000 0.00000 0.00000 0.00000 0.00000 0.00000   16835   18.72   22.61  1.0000
  13   4   5   16058    2218     0.00000 0.00000 0.00000 0.00000 0.00000 0.00000   24479  -29.97    3.10  1.0000
  15   4   5    6373    2337     0.00000 0.00000 0.00000 0.00000 0.00000 0.00000    5533   -3.43   -6.09  1.0000
  17   4   5   13263    3108     0.00000 0.00000 0.00000 0.00000 0.00000 0.00000   11012  -27.05   -3.99  1.0000
  19   4   5    7155    3571     0.00000 0.00000 0.00000 0.00000 0.00000 0.00000    8941  -41.18    0.39  1.0000
  21   4   5    8649    3777     0.00000 0.00000 0.00000 0.00000 0.00000 0.00000    5837  -32.35  -27.20  1.0000
  23   4   5   15238    4828     0.00000 0.00000 0.00000 0.00000 0.00000 0.00000   18407   11.19   27.83  1.0000
  25   4   5    9684    5550     0.00000 0.00000 0.00000 0.00000 0.00000 0.00000   18612   41.33   -3.91  1.0000
   2   5   5   24897    7834     0.00000 0.00000 0.00000 0.00000 0.00000 0.00000   98667  -16.53  216.28  1.0000
   6   5   5   79587   13813     0.00000 0.00000 0.00000 0.00000 0.00000 0.00000  117703   65.31  -21.21  1.0000
   8   5   5    3243    1935     0.00000 0.00000 0.00000 0.00000 0.00000 0.00000    2499  -20.85    8.55  1.0000
  10   5   5   24641    1761     0.00000 0.00000 0.00000 0.00000 0.00000 0.00000   25886   17.10    9.80  1.0000
  12   5   5    3998    1938     0.00000 0.00000 0.00000 0.00000 0.00000 0.00000    4307  -21.28   -7.79  1.0000
  14   5   5   23516    2973     0.00000 0.00000 0.00000 0.00000 0.00000 0.00000   30215   27.08   -0.55  1.0000
  16   5   5    7425    2518     0.00000 0.00000 0.00000 0.00000 0.00000 0.00000    7179    0.26  -18.98  1.0000
  18   5   5    2954    3220     0.00000 0.00000 0.00000 0.00000 0.00000 0.00000    5333   38.23   17.78  1.0000
  20   5   5    8182    4704     0.00000 0.00000 0.00000 0.00000 0.00000 0.00000   10476    8.27   43.20  1.0000
  22   5   5    7089    4378     0.00000 0.00000 0.00000 0.00000 0.00000 0.00000    8102    5.49  -24.75  1.0000
  24   5   5    1122    5145     0.00000 0.00000 0.00000 0.00000 0.00000 0.00000   10101  -70.92   -1.50  1.0000
   1   6   5  136073   11039     0.00000 0.00000 0.00000 0.00000 0.00000 0.00000  171023  -70.56   11.18  1.0000
   3   6   5   63765   34040     0.00000 0.00000 0.00000 0.00000 0.00000 0.00000  159853   53.97  139.02  1.0000
   5   6   5   84976   13213     0.00000 0.00000 0.00000 0.00000 0.00000 0.00000  122649  -66.66  -17.51  1.0000
   7   6   5   40106    2436     0.00000 0.00000 0.00000 0.00000 0.00000 0.00000   36735  -14.40   35.86  1.0000
   9   6   5    4076    1913     0.00000 0.00000 0.00000 0.00000 0.00000 0.00000    4775   20.90    4.47  1.0000
  11   6   5    7595    2171     0.00000 0.00000 0.00000 0.00000 0.00000 0.00000   10238   14.64    2.64  1.0000
  13   6   5    4493    2607     0.00000 0.00000 0.00000 0.00000 0.00000 0.00000    2981    9.69   -8.66  1.0000
  15   6   5    4284    2609     0.00000 0.00000 0.00000 0.00000 0.00000 0.00000    3919   23.25  -23.39  1.0000
  17   6   5   15941    3245     0.00000 0.00000 0.00000 0.00000 0.00000 0.00000   12200   18.40   -7.49  1.0000
  19   6   5    2581    4153     0.00000 0.00000 0.00000 0.00000 0.00000 0.00000    3058   -7.60   40.73  1.0000
  21   6   5   12390    4513     0.00000 0.00000 0.00000 0.00000 0.00000 0.00000   16433  -13.23   17.64  1.0000
  23   6   5    8437    4950     0.00000 0.00000 0.00000 0.00000 0.00000 0.00000   10993   14.73  -12.22  1.0000
  25   6   5   13830    8792     0.00000 0.00000 0.00000 0.00000 0.00000 0.00000   22194    8.49   31.14  1.0000
   2   7   5   38872    8292     0.00000 0.00000 0.00000 0.00000 0.00000 0.00000   30765   53.17    8.07  1.0000
   4   7   5     646    5404     0.00000 0.00000 0.00000 0.00000 0.00000 0.00000   -2593   18.72  -17.67  1.0000
   6   7   5   41966    2494     0.00000 0.00000 0.00000 0.00000 0.00000 0.00000   34344   15.79   36.15  1.0000
   8   7   5    6885    1871     0.00000 0.00000 0.00000 0.00000 0.00000 0.00000    4481  -39.32    1.78  1.0000
  10   7   5    9838    2218     0.00000 0.00000 0.00000 0.00000 0.00000 0.00000    8034   10.45    0.13  1.0000
  12   7   5   25034    3064     0.00000 0.00000 0.00000 0.00000 0.00000 0.00000   28080   37.49  -12.69  1.0000
  14   7   5   29967    2983     0.00000 0.00000 0.00000 0.00000 0.00000 0.00000   27455    8.64    8.76  1.0000
  16   7   5     589    3156     0.00000 0.00000 0.00000 0.00000 0.00000 0.00000   -2242  -10.58  -22.17  1.0000
  18   7   5       2    4103     0.00000 0.00000 0.00000 0.00000 0.00000 0.00000   -1327   -0.24   -1.37  1.0000
  20   7   5     523    4106     0.00000 0.00000 0.00000 0.00000 0.00000 0.00000    -956  -10.53  -20.62  1.0000
  22   7   5    3747    5405     0.00000 0.00000 0.00000 0.00000 0.00000 0.00000    4439   36.29  -11.62  1.0000
  24   7   5    4210    5667     0.00000 0.00000 0.00000 0.00000 0.00000 0.00000    7564   25.43    8.44  1.0000
   1   8   5   13636    8236     0.00000 0.00000 0.00000 0.00000 0.00000 0.00000   42586   93.80  -42.40  1.0000
   3   8   5   52315    3621     0.00000 0.00000 0.00000 0.00000 0.00000 0.00000   45624   37.95  -16.37  1.0000
   5   8   5    5629    2112     0.00000 0.00000 0.00000 0.00000 0.00000 0.00000    3280   21.15    7.21  1.0000
   7   8   5    2854    1748     0.00000 0.00000 0.00000 0.00000 0.00000 0.00000     944   40.51    0.63  1.0000
   9   8   5    5400    2091     0.00000 0.00000 0.00000 0.00000 0.00000 0.00000    5456   -1.19   10.23  1.0000
  11   8   5    2710    2380     0.00000 0.00000 0.00000 0.00000 0.00000 0.00000    7496  -48.19  -13.59  1.0000
  13   8   5    3079    2727     0.00000 0.00000 0.00000 0.00000 0.00000 0.00000    5197   26.48  -23.88  1.0000
  15   8   5    8998    2903     0.00000 0.00000 0.00000 0.00000 0.00000 0.00000    8632    0.67    2.22  1.0000
  17   8   5   16769    3457     0.00000 0.00000 0.00000 0.00000 0.00000 0.00000   21094   17.39  -17.13  1.0000
  19   8   5    6863    4709     0.00000 0.00000 0.00000 0.00000 0.00000 0.00000    5255    4.81    9.75  1.0000
  21   8   5    2456    4867     0.00000 0.00000 0.00000 0.00000 0.00000 0.00000    2236   -3.68   12.00  1.0000
  23   8   5    4074    5168     0.00000 0.00000 0.00000 0.00000 0.00000 0.00000    2970   12.98    0.25  1.0000
   2   9   5   45275    2314     0.00000 0.00000 0.00000 0.00000 0.00000 0.00000   42459   -9.25   25.01  1.0000
   4   9   5    7877    1619     0.00000 0.00000 0.00000 0.00000 0.00000 0.00000   10537   23.51    4.17  1.0000
   6   9   5    9733    1824     0.00000 0.00000 0.00000 0.00000 0.00000 0.00000    9668  -21.43    3.66  1.0000
   8   9   5    5231    2807     0.00000 0.00000 0.00000 0.00000 0.00000 0.00000    6641    1.62   10.31  1.0000
  10   9   5   18223    2534     0.00000 0.00000 0.00000 0.00000 0.00000 0.00000   18083    0.42    0.50  1.0000
  12   9   5   40498    2966     0.00000 0.00000 0.00000 0.00000 0.00000 0.00000   35769    7.95  -22.20  1.0000
  14   9   5   16380    2862     0.00000 0.00000 0.00000 0.00000 0.00000 0.00000   15952   -1.69    1.86  1.0000
  16   9   5    3669    3246     0.00000 0.00000 0.00000 0.00000 0.00000 0.00000    6247  -14.36   17.03  1.0000
  18   9   5    1648    3612     0.00000 0.00000 0.00000 0.00000 0.00000 0.00000     686    1.31   16.88  1.0000
  20   9   5    4287    4377     0.00000 0.00000 0.00000 0.00000 0.00000 0.00000    6028  -11.62    4.54  1.0000
  22   9   5     176    5104     0.00000 0.00000 0.00000 0.00000 0.00000 0.00000   -1254  -13.44   -0.23  1.0000
  24   9   5    1523    7889     0.00000 0.00000 0.00000 0.00000 0.00000 0.00000    3395    4.02  -29.50  1.0000
   1  10   5   43392    1950     0.00000 0.00000 0.00000 0.00000 0.00000 0.00000   33787   27.73   12.98  1.0000
   3  10   5   60964    2461     0.00000 0.00000 0.00000 0.00000 0.00000 0.00000   51494  -20.22  -12.10  1.0000
   5  10   5   27236    2028     0.00000 0.00000 0.00000 0.00000 0.00000 0.00000   27427  -19.52    9.86  1.0000
   7  10   5   12403    2109     0.00000 0.00000 0.00000 0.00000 0.00000 0.00000    9967  -12.70    3.36  1.0000
   9  10   5   18062    2537     0.00000 0.00000 0.00000 0.00000 0.00000 0.00000   17892    0.91    0.71  1.0000
  11  10   5    6675    2500     0.00000 0.00000 0.00000 0.00000 0.00000 0.00000    4183  -21.32  -18.25  1.0000
  13  10   5   13274    2874     0.00000 0.00000 0.00000 0.00000 0.00000 0.00000   19746   25.78    2.96  1.0000
  15  10   5    4286    3112     0.00000 0.00000 0.00000 0.00000 0.00000 0.00000    6797    9.68  -18.60  1.0000
  17  10   5   14501    3764     0.00000 0.00000 0.00000 0.00000 0.00000 0.00000   11700   11.64  -12.71  1.0000
  19  10   5   10968    4174     0.00000 0.00000 0.00000 0.00000 0.00000 0.00000   12438  -13.94   13.87  1.0000
  21  10   5   12498    4712     0.00000 0.00000 0.00000 0.00000 0.00000 0.00000   15827   16.88   12.53  1.0000
  23  10   5    8113    5559     0.00000 0.00000 0.00000 0.00000 0.00000 0.00000    5267    9.19   30.82  1.0000
   2  11   5    7504    1711     0.00000 0.00000 0.00000 0.00000 0.00000 0.00000    3173  -63.36   92.12  1.0000
   4  11   5   16913    1995     0.00000 0.00000 0.00000 0.00000 0.00000 0.00000   19133  -17.55   22.22  1.0000
   6  11   5   12418    2357     0.00000 0.00000 0.00000 0.00000 0.00000 0.00000   14941  -15.62    2.21  1.0000
   8  11   5    8115    2455     0.00000 0.00000 0.00000 0.00000 0.00000 0.00000    8619   47.53  -14.18  1.0000
  10  11   5    8986    2353     0.00000 0.00000 0.00000 0.00000 0.00000 0.00000    8165   21.32  -15.91  1.0000
  12  11   5   13719    2964     0.00000 0.00000 0.00000 0.00000 0.00000 0.00000   16417    2.03   17.68  1.0000
  14  11   5    5249    3378     0.00000 0.00000 0.00000 0.00000 0.00000 0.00000    3094   -5.39   17.64  1.0000
  16  11   5     850    3490     0.00000 0.00000 0.00000 0.00000 0.00000 0.00000     746   -1.14   -1.47  1.0000
  18  11   5     119    3583     0.00000 0.00000 0.00000 0.00000 0.00000 0.00000   -5374    8.28    7.30  1.0000
  20  11   5      10    5187     0.00000 0.00000 0.00000 0.00000 0.00000 0.00000    -188    0.33    3.26  1.0000
  22  11   5    2040    5443     0.00000 0.00000 0.00000 0.00000 0.00000 0.00000    3863   -7.86  -16.04  1.0000
   1  12   5   27902    2464     0.00000 0.00000 0.00000 0.00000 0.00000 0.00000   44334  -43.01  -22.41  1.0000
   3  12   5   19737    2102     0.00000 0.00000 0.00000 0.00000 0.00000 0.00000   17336  -11.94  -33.57  1.0000
   5  12   5     904    2257     0.00000 0.00000 0.00000 0.00000 0.00000 0.00000    2227   22.14   -6.44  1.0000
   7  12   5   26002    2399     0.00000 0.00000 0.00000 0.00000 0.00000 0.00000   28147  -39.31  -12.80  1.0000
   9  12   5   41000    2546     0.00000 0.00000 0.00000 0.00000 0.00000 0.00000   36662   -9.15  -25.75  1.0000
  11  12   5   18212    3080     0.00000 0.00000 0.00000 0.00000 0.00000 0.00000   20451   -2.45   15.52  1.0000
  13  12   5    9401    3357     0.00000 0.00000 0.00000 0.00000 0.00000 0.00000   11328   27.55    0.22  1.0000
  15  12   5    2382    4295     0.00000 0.00000 0.00000 0.00000 0.00000 0.00000    3312   -7.72   -4.34  1.0000
  17  12   5    5313    4347     0.00000 0.00000 0.00000 0.00000 0.00000 0.00000    7064   18.74   -8.36  1.0000
  19  12   5    1296    4704     0.00000 0.00000 0.00000 0.00000 0.00000 0.00000     548   -8.17   15.00  1.0000
  21  12   5    5022    6093     0.00000 0.00000 0.00000 0.00000 0.00000 0.00000    8575   22.17   -0.89  1.0000
   2  13   5    3601    2196     0.00000 0.00000 0.00000 0.00000 0.00000 0.00000    1691   10.85   16.03  1.0000
   4  13   5   15591    2634     0.00000 0.00000 0.00000 0.00000 0.00000 0.00000   23877   30.32    4.08  1.0000
   6  13   5   10091    2294     0.00000 0.00000 0.00000 0.00000 0.00000 0.00000    7622  -11.31   -7.87  1.0000
   8  13   5    7122    2939     0.00000 0.00000 0.00000 0.00000 0.00000 0.00000    6000  -27.43  -26.12  1.0000
  10  13   5   13827    2981     0.00000 0.00000 0.00000 0.00000 0.00000 0.00000   19281  -26.09    2.03  1.0000
  12  13   5    9797    3339     0.00000 0.00000 0.00000 0.00000 0.00000 0.00000   11007  -26.57    0.85  1.0000
  14  13   5    2314    4029     0.00000 0.00000 0.00000 0.00000 0.00000 0.00000    4962  -26.56    1.26  1.0000
  16  13   5     115    4362     0.00000 0.00000 0.00000 0.00000 0.00000 0.00000   -6085    4.70   -9.79  1.0000
  18  13   5      29    4360     0.00000 0.00000 0.00000 0.00000 0.00000 0.00000   -1549   -2.73   -4.73  1.0000
  20  13   5     160    6229     0.00000 0.00000 0.00000 0.00000 0.00000 0.00000   -5461   -6.40   11.10  1.0000
  22  13   5    6454    7612     0.00000 0.00000 0.00000 0.00000 0.00000 0.00000    8444  -11.96    3.53  1.0000
   1  14   5   34932    2646     0.00000 0.00000 0.00000 0.00000 0.00000 0.00000   43495   -1.10  -33.62  1.0000
   3  14   5  123895    3574     0.00000 0.00000 0.00000 0.00000 0.00000 0.00000  114000  -49.42    9.33  1.0000
   5  14   5   24108    3476     0.00000 0.00000 0.00000 0.00000 0.00000 0.00000   30091  -25.08   -1.56  1.0000
   7  14   5   33220    2986     0.00000 0.00000 0.00000 0.00000 0.00000 0.00000   30699   -8.76    4.91  1.0000
   9  14   5   16739    2860     0.00000 0.00000 0.00000 0.00000 0.00000 0.00000   15948    1.99    3.33  1.0000
  11  14   5     364    3336     0.00000 0.00000 0.00000 0.00000 0.00000 0.00000   -2057    5.51   18.53  1.0000
  13  14   5     323    3842     0.00000 0.00000 0.00000 0.00000 0.00000 0.00000    1816   25.64   -1.61  1.0000
  15  14   5     202    4268     0.00000 0.00000 0.00000 0.00000 0.00000 0.00000   -1861   -5.17   13.43  1.0000
  17  14   5     892    4655     0.00000 0.00000 0.00000 0.00000 0.00000 0.00000    2151   10.81   13.60  1.0000
  19  14   5     178    5181     0.00000 0.00000 0.00000 0.00000 0.00000 0.00000   -3827  -12.54    4.97  1.0000
  21  14   5     349    6410     0.00000 0.00000 0.00000 0.00000 0.00000 0.00000   -9615    8.26  -17.01  1.0000
   2  15   5   34185    2557     0.00000 0.00000 0.00000 0.00000 0.00000 0.00000   40291  -20.63   18.17  1.0000
   4  15   5    2812    3044     0.00000 0.00000 0.00000 0.00000 0.00000 0.00000    2205    2.97   -8.71  1.0000
   6  15   5    1080    2456     0.00000 0.00000 0.00000 0.00000 0.00000 0.00000     -86  -23.47  -23.58  1.0000
   8  15   5    9811    2792     0.00000 0.00000 0.00000 0.00000 0.00000 0.00000    9283   -0.39    4.38  1.0000
  10  15   5    6986    3504     0.00000 0.00000 0.00000 0.00000 0.00000 0.00000    9948  -11.13  -17.67  1.0000
  12  15   5   10980    4373     0.00000 0.00000 0.00000 0.00000 0.00000 0.00000   12972    8.66   -3.19  1.0000
  14  15   5     205    4051     0.00000 0.00000 0.00000 0.00000 0.00000 0.00000   -3182    4.69   13.72  1.0000
  16  15   5      34    4444     0.00000 0.00000 0.00000 0.00000 0.00000 0.00000   -6667    4.06   -4.25  1.0000
  18  15   5     300    5144     0.00000 0.00000 0.00000 0.00000 0.00000 0.00000   -7716  -14.55   -9.77  1.0000
  20  15   5    3431    6549     0.00000 0.00000 0.00000 0.00000 0.00000 0.00000    3573    8.50    2.34  1.0000
   1  16   5   41331    2722     0.00000 0.00000 0.00000 0.00000 0.00000 0.00000   48039   12.86    9.90  1.0000
   3  16   5   18858    2552     0.00000 0.00000 0.00000 0.00000 0.00000 0.00000   19485  -18.60   19.03  1.0000
   5  16   5    1961    2910     0.00000 0.00000 0.00000 0.00000 0.00000 0.00000    1419   -0.62  -16.54  1.0000
   7  16   5     564    2835     0.00000 0.00000 0.00000 0.00000 0.00000 0.00000   -1920   10.17  -21.78  1.0000
   9  16   5    5479    3487     0.00000 0.00000 0.00000 0.00000 0.00000 0.00000    8782   16.60   17.31  1.0000
  11  16   5       7    3967     0.00000 0.00000 0.00000 0.00000 0.00000 0.00000    -842    1.62   -2.01  1.0000
  13  16   5     142    4195     0.00000 0.00000 0.00000 0.00000 0.00000 0.00000    -194   -5.80  -10.60  1.0000
  15  16   5      29    4367     0.00000 0.00000 0.00000 0.00000 0.00000 0.00000   -4890   -3.79   -3.96  1.0000
  17  16   5      21    4753     0.00000 0.00000 0.00000 0.00000 0.00000 0.00000   -6668   -3.95   -2.46  1.0000
  19  16   5     112    6132     0.00000 0.00000 0.00000 0.00000 0.00000 0.00000   -9198   -4.18    9.84  1.0000
   2  17   5    5525    2688     0.00000 0.00000 0.00000 0.00000 0.00000 0.00000    6295    9.31  -25.30  1.0000
   4  17   5   12511    2736     0.00000 0.00000 0.00000 0.00000 0.00000 0.00000   11047   27.65   -5.91  1.0000
   6  17   5   12233    2867     0.00000 0.00000 0.00000 0.00000 0.00000 0.00000    9043  -19.03   -8.07  1.0000
   8  17   5    7416    3335     0.00000 0.00000 0.00000 0.00000 0.00000 0.00000   11528  -17.99  -16.47  1.0000
  10  17   5   11889    4023     0.00000 0.00000 0.00000 0.00000 0.00000 0.00000    9443  -14.01  -12.26  1.0000
  12  17   5    3059    4216     0.00000 0.00000 0.00000 0.00000 0.00000 0.00000    5018  -17.91   -6.57  1.0000
  14  17   5     290    4548     0.00000 0.00000 0.00000 0.00000 0.00000 0.00000   -6493  -10.15   13.94  1.0000
  16  17   5      20    4712     0.00000 0.00000 0.00000 0.00000 0.00000 0.00000   -7068    3.50   -2.94  1.0000
  18  17   5      97    5595     0.00000 0.00000 0.00000 0.00000 0.00000 0.00000   -1679   -5.50   -8.35  1.0000
   1  18   5    1794    2660     0.00000 0.00000 0.00000 0.00000 0.00000 0.00000    4556   -5.52   24.94  1.0000
   3  18   5    5281    2917     0.00000 0.00000 0.00000 0.00000 0.00000 0.00000    9541   10.08  -23.39  1.0000
   5  18   5    2226    2829     0.00000 0.00000 0.00000 0.00000 0.00000 0.00000    7455  -38.53   18.21  1.0000
   7  18   5     283    3737     0.00000 0.00000 0.00000 0.00000 0.00000 0.00000     361    0.77   -2.34  1.0000
   9  18   5     324    3704     0.00000 0.00000 0.00000 0.00000 0.00000 0.00000    -796    0.40   18.21  1.0000
  11  18   5     116    4369     0.00000 0.00000 0.00000 0.00000 0.00000 0.00000    -143   -7.14    8.22  1.0000
  13  18   5      35    4574     0.00000 0.00000 0.00000 0.00000 0.00000 0.00000   -6861    2.26   -5.53  1.0000
  15  18   5    1885    5050     0.00000 0.00000 0.00000 0.00000 0.00000 0.00000    3669   14.46   -9.62  1.0000
  17  18   5      94    5335     0.00000 0.00000 0.00000 0.00000 0.00000 0.00000   -5486    5.18   -8.33  1.0000
   2  19   5    4173    2989     0.00000 0.00000 0.00000 0.00000 0.00000 0.00000    9545  -35.48  -14.18  1.0000
   4  19   5    9030    3230     0.00000 0.00000 0.00000 0.00000 0.00000 0.00000   10610   41.28    0.17  1.0000
   6  19   5    5219    3452     0.00000 0.00000 0.00000 0.00000 0.00000 0.00000    9934    7.05   42.10  1.0000
   8  19   5   16215    3520     0.00000 0.00000 0.00000 0.00000 0.00000 0.00000   13729   -4.01    9.78  1.0000
  10  19   5    6848    4040     0.00000 0.00000 0.00000 0.00000 0.00000 0.00000    9487   14.19   11.86  1.0000
  12  19   5    5996    4223     0.00000 0.00000 0.00000 0.00000 0.00000 0.00000    4309    7.84   14.48  1.0000
  14  19   5     226    5129     0.00000 0.00000 0.00000 0.00000 0.00000 0.00000     798   12.81    4.50  1.0000
  16  19   5     115    5510     0.00000 0.00000 0.00000 0.00000 0.00000 0.00000   -5102    4.77    9.74  1.0000
   1  20   5   17065    3152     0.00000 0.00000 0.00000 0.00000 0.00000 0.00000    8137  -57.96   -4.64  1.0000
   3  20   5   21301    3695     0.00000 0.00000 0.00000 0.00000 0.00000 0.00000   20801   43.62  -31.65  1.0000
   5  20   5    1461    3825     0.00000 0.00000 0.00000 0.00000 0.00000 0.00000    2061   -7.65   40.82  1.0000
   7  20   5    2685    3963     0.00000 0.00000 0.00000 0.00000 0.00000 0.00000    4357   12.77  -20.77  1.0000
   9  20   5    1352    3988     0.00000 0.00000 0.00000 0.00000 0.00000 0.00000    2298   10.12    5.19  1.0000
  11  20   5    1964    4330     0.00000 0.00000 0.00000 0.00000 0.00000 0.00000    2302   -0.45    3.79  1.0000
  13  20   5     154    4947     0.00000 0.00000 0.00000 0.00000 0.00000 0.00000   -2521    6.67   10.64  1.0000
  15  20   5      80    5199     0.00000 0.00000 0.00000 0.00000 0.00000 0.00000    -729   -8.67    2.53  1.0000
   2  21   5   13027    3761     0.00000 0.00000 0.00000 0.00000 0.00000 0.00000    9761   -9.09  -15.05  1.0000
   4  21   5    6974    3517     0.00000 0.00000 0.00000 0.00000 0.00000 0.00000    4709   33.01  -28.15  1.0000
   6  21   5    2049    3838     0.00000 0.00000 0.00000 0.00000 0.00000 0.00000    3673   12.37   17.14  1.0000
   8  21   5    2612    3847     0.00000 0.00000 0.00000 0.00000 0.00000 0.00000    2093    3.24   10.96  1.0000
  10  21   5    4802    4617     0.00000 0.00000 0.00000 0.00000 0.00000 0.00000    6679  -17.11   11.44  1.0000
  12  21   5     169    4836     0.00000 0.00000 0.00000 0.00000 0.00000 0.00000    1170  -21.62   -0.82  1.0000
  14  21   5     355    4986     0.00000 0.00000 0.00000 0.00000 0.00000 0.00000   -5485   -8.36  -17.14  1.0000
   1  22   5    7288    4400     0.00000 0.00000 0.00000 0.00000 0.00000 0.00000    9727  -47.07   24.36  1.0000
   3  22   5    9324    3784     0.00000 0.00000 0.00000 0.00000 0.00000 0.00000    7938  -10.55   -0.63  1.0000
   5  22   5    3673    3811     0.00000 0.00000 0.00000 0.00000 0.00000 0.00000    4540   -6.03  -21.30  1.0000
   7  22   5    3146    4081     0.00000 0.00000 0.00000 0.00000 0.00000 0.00000    3468  -34.41  -10.67  1.0000
   9  22   5    4414    4942     0.00000 0.00000 0.00000 0.00000 0.00000 0.00000    3113   13.65   -0.87  1.0000
  11  22   5     873    4715     0.00000 0.00000 0.00000 0.00000 0.00000 0.00000    2178    6.99  -16.55  1.0000
  13  22   5     147    5429     0.00000 0.00000 0.00000 0.00000 0.00000 0.00000   -5802   11.76    3.53  1.0000
   2  23   5   17960    3870     0.00000 0.00000 0.00000 0.00000 0.00000 0.00000    -807   99.91   91.80  1.0000
   4  23   5    5079    3960     0.00000 0.00000 0.00000 0.00000 0.00000 0.00000    6987  -10.59   26.69  1.0000
   6  23   5    7730    4254     0.00000 0.00000 0.00000 0.00000 0.00000 0.00000   10409  -15.10  -13.53  1.0000
   8  23   5     351    4252     0.00000 0.00000 0.00000 0.00000 0.00000 0.00000      97  -12.29    0.67  1.0000
  10  23   5    9231    5262     0.00000 0.00000 0.00000 0.00000 0.00000 0.00000    5965   -8.36   30.49  1.0000
   1  24   5    2827    4685     0.00000 0.00000 0.00000 0.00000 0.00000 0.00000   12683  -60.07  -23.13  1.0000
   3  24   5    1226    4311     0.00000 0.00000 0.00000 0.00000 0.00000 0.00000    5907  -85.41  -22.04  1.0000
   5  24   5    1749    4669     0.00000 0.00000 0.00000 0.00000 0.00000 0.00000    9721   71.26    1.48  1.0000
   7  24   5     461    4350     0.00000 0.00000 0.00000 0.00000 0.00000 0.00000    1125  -27.62    7.17  1.0000
   9  24   5     837    5624     0.00000 0.00000 0.00000 0.00000 0.00000 0.00000   -2531   -4.14  -29.00  1.0000
   2  25   5    6062    4868     0.00000 0.00000 0.00000 0.00000 0.00000 0.00000   10145   42.06  -34.24  1.0000
   4  25   5    1661    5267     0.00000 0.00000 0.00000 0.00000 0.00000 0.00000    6241  -40.86   -4.64  1.0000
   6  25   5    2020   10483     0.00000 0.00000 0.00000 0.00000 0.00000 0.00000    5628   -8.20   30.97  1.0000
   2   0   6  930240   19990     0.00000 0.00000 0.00000 0.00000 0.00000 0.00000  621913  106.59 -156.26  1.0000
   6   0   6  258860   20166     0.00000 0.00000 0.00000 0.00000 0.00000 0.00000  533162  -94.28 -213.47  1.0000
   8   0   6   78983    5229     0.00000 0.00000 0.00000 0.00000 0.00000 0.00000   74631  -45.31    0.67  1.0000
  10   0   6   21566    3019     0.00000 0.00000 0.00000 0.00000 0.00000 0.00000   35252   -2.94  -41.53  1.0000
  12   0   6   22459    3790     0.00000 0.00000 0.00000 0.00000 0.00000 0.00000   41764  -76.21   55.61  1.0000
  14   0   6   39515    8028     0.00000 0.00000 0.00000 0.00000 0.00000 0.00000   37613   32.31   27.15  1.0000
  16   0   6    1479    3517     0.00000 0.00000 0.00000 0.00000 0.00000 0.00000     478   16.15  -19.47  1.0000
  18   0   6   51465    4398     0.00000 0.00000 0.00000 0.00000 0.00000 0.00000   49747   20.23   14.27  1.0000
  20   0   6   16562    5352     0.00000 0.00000 0.00000 0.00000 0.00000 0.00000   15222   87.00   93.74  1.0000
  22   0   6   33908    6969     0.00000 0.00000 0.00000 0.00000 0.00000 0.00000   40230   45.57    3.97  1.0000
  24   0   6    1331    6698     0.00000 0.00000 0.00000 0.00000 0.00000 0.00000    8509  -38.09  -41.73  1.0000
   1   1   6    4622     803     0.00000 0.00000 0.00000 0.00000 0.00000 0.00000    2008   23.55    2.15  1.0000
   3   1   6   38889    1925     0.00000 0.00000 0.00000 0.00000 0.00000 0.00000   40146  235.65  187.84  1.0000
   5   1   6  239009    8570     0.00000 0.00000 0.00000 0.00000 0.00000 0.00000  280643   94.84  -48.11  1.0000
   7   1   6   42145    5499     0.00000 0.00000 0.00000 0.00000 0.00000 0.00000   65456  -98.87   21.89  1.0000
   9   1   6   14919    1691     0.00000 0.00000 0.00000 0.00000 0.00000 0.00000   21497   -5.00  -25.60  1.0000
  11   1   6   27145    2238     0.00000 0.00000 0.00000 0.00000 0.00000 0.00000   35090   13.32   24.79  1.0000
  13   1   6   70943    3432     0.00000 0.00000 0.00000 0.00000 0.00000 0.00000   67195   -8.83    6.16  1.0000
  15   1   6   12047    2579     0.00000 0.00000 0.00000 0.00000 0.00000 0.00000   11434  -67.71  -23.91  1.0000
  17   1   6   23956    3275     0.00000 0.00000 0.00000 0.00000 0.00000 0.00000   21842   10.08    6.97  1.0000
  19   1   6    2488    3187     0.00000 0.00000 0.00000 0.00000 0.00000 0.00000    4263    0.21   26.49  1.0000
  21   1   6     550    4697     0.00000 0.00000 0.00000 0.00000 0.00000 0.00000   14254  -82.44   55.32  1.0000
  23   1   6    1734    4329     0.00000 0.00000 0.00000 0.00000 0.00000 0.00000    9086  -62.18  -18.54  1.0000
  25   1   6    1921    5480     0.00000 0.00000 0.00000 0.00000 0.00000 0.00000    9824   26.71   50.01  1.0000
   0   2   6  910948   23101     0.00000 0.00000 0.00000 0.00000 0.00000 0.00000  608186  107.27  156.38  1.0000
   4   2   6  697301   10489     0.00000 0.00000 0.00000 0.00000 0.00000 0.00000  349478    8.33  247.03  1.0000
   6   2   6  197950    6928     0.00000 0.00000 0.00000 0.00000 0.00000 0.00000  215893   67.76   19.36  1.0000
   8   2   6   12875    2085     0.00000 0.00000 0.00000 0.00000 0.00000 0.00000    6628  -16.07   38.22  1.0000
  10   2   6   13406    1791     0.00000 0.00000 0.00000 0.00000 0.00000 0.00000   11832   16.00   -5.15  1.0000
  12   2   6    1243    2169     0.00000 0.00000 0.00000 0.00000 0.00000 0.00000    1577    7.78   28.85  1.0000
  14   2   6   84667    3293     0.00000 0.00000 0.00000 0.00000 0.00000 0.00000   86199   -5.22   -2.31  1.0000
  16   2   6   63027    3900     0.00000 0.00000 0.00000 0.00000 0.00000 0.00000   73003  -18.96   13.01  1.0000
  18   2   6    1942    3204     0.00000 0.00000 0.00000 0.00000 0.00000 0.00000    6190   40.23  -40.21  1.0000
  20   2   6   89249    6877     0.00000 0.00000 0.00000 0.00000 0.00000 0.00000   74530   67.98  -24.91  1.0000
  22   2   6   22180    3967     0.00000 0.00000 0.00000 0.00000 0.00000 0.00000   22157   37.30   11.55  1.0000
  24   2   6    7151    4976     0.00000 0.00000 0.00000 0.00000 0.00000 0.00000   13575   31.35    9.16  1.0000
   1   3   6   41898    2650     0.00000 0.00000 0.00000 0.00000 0.00000 0.00000   36558  234.44 -189.23  1.0000
   3   3   6    9944    2263     0.00000 0.00000 0.00000 0.00000 0.00000 0.00000   15403   24.69   -1.73  1.0000
   5   3   6   49123    7574     0.00000 0.00000 0.00000 0.00000 0.00000 0.00000   66748   45.35  -20.25  1.0000
   7   3   6   63069    6897     0.00000 0.00000 0.00000 0.00000 0.00000 0.00000   72993   37.74   20.00  1.0000
   9   3   6    4489    1699     0.00000 0.00000 0.00000 0.00000 0.00000 0.00000   13688   -2.19  -53.57  1.0000
  11   3   6   24468    2266     0.00000 0.00000 0.00000 0.00000 0.00000 0.00000   32088   -3.62   22.76  1.0000
  13   3   6   22910    2133     0.00000 0.00000 0.00000 0.00000 0.00000 0.00000   27451    6.96  -18.68  1.0000
  15   3   6   10274    2334     0.00000 0.00000 0.00000 0.00000 0.00000 0.00000   12132   10.08   14.90  1.0000
  17   3   6    7580    4699     0.00000 0.00000 0.00000 0.00000 0.00000 0.00000    6786   -7.23  -15.62  1.0000
  19   3   6   10589    3906     0.00000 0.00000 0.00000 0.00000 0.00000 0.00000    9683  -18.70    0.90  1.0000
  21   3   6   30150    4006     0.00000 0.00000 0.00000 0.00000 0.00000 0.00000   25066   16.27   -7.86  1.0000
  23   3   6    1372    4203     0.00000 0.00000 0.00000 0.00000 0.00000 0.00000    9073   -8.17  -65.39  1.0000
  25   3   6    7765    5201     0.00000 0.00000 0.00000 0.00000 0.00000 0.00000   22010  -72.34   17.96  1.0000
   0   4   6  108617    5375     0.00000 0.00000 0.00000 0.00000 0.00000 0.00000  118099    2.12   50.68  1.0000
   2   4   6  681631   10430     0.00000 0.00000 0.00000 0.00000 0.00000 0.00000  340464   11.25 -245.29  1.0000
   4   4   6    2317    7834     0.00000 0.00000 0.00000 0.00000 0.00000 0.00000    9950   52.33    0.59  1.0000
   6   4   6   87401   28053     0.00000 0.00000 0.00000 0.00000 0.00000 0.00000  218751   85.93 -157.48  1.0000
   8   4   6    6110    1618     0.00000 0.00000 0.00000 0.00000 0.00000 0.00000    5526  -56.33  -19.66  1.0000
  10   4   6    6453    2105     0.00000 0.00000 0.00000 0.00000 0.00000 0.00000    7958  -44.38  -23.05  1.0000
  12   4   6   28136    2170     0.00000 0.00000 0.00000 0.00000 0.00000 0.00000   34409   21.83   18.47  1.0000
  14   4   6     900    2073     0.00000 0.00000 0.00000 0.00000 0.00000 0.00000    3418    8.20  -27.88  1.0000
  16   4   6    1505    2967     0.00000 0.00000 0.00000 0.00000 0.00000 0.00000     320   21.35   -8.11  1.0000
  18   4   6    1699    3428     0.00000 0.00000 0.00000 0.00000 0.00000 0.00000    1064   -5.18    8.74  1.0000
  20   4   6   17646    3875     0.00000 0.00000 0.00000 0.00000 0.00000 0.00000   12830  -55.48   19.03  1.0000
  22   4   6   26615    4044     0.00000 0.00000 0.00000 0.00000 0.00000 0.00000   23595  -17.33    8.51  1.0000
  24   4   6    5424    6176     0.00000 0.00000 0.00000 0.00000 0.00000 0.00000   21847   65.68   36.78  1.0000
   1   5   6  218090    8418     0.00000 0.00000 0.00000 0.00000 0.00000 0.00000  257071   93.45   47.88  1.0000
   3   5   6   65673   13759     0.00000 0.00000 0.00000 0.00000 0.00000 0.00000   85315   45.69   20.65  1.0000
   5   5   6     910    4825     0.00000 0.00000 0.00000 0.00000 0.00000 0.00000   12759  -84.05   -0.45  1.0000
   7   5   6    5440    1771     0.00000 0.00000 0.00000 0.00000 0.00000 0.00000    4493   -0.48    8.23  1.0000
   9   5   6   26419    2708     0.00000 0.00000 0.00000 0.00000 0.00000 0.00000   39900   37.16  -14.45  1.0000
  11   5   6     284    1700     0.00000 0.00000 0.00000 0.00000 0.00000 0.00000   -2327  -16.94    1.99  1.0000
  13   5   6    6068    2299     0.00000 0.00000 0.00000 0.00000 0.00000 0.00000    2981   -8.16  -26.25  1.0000
  15   5   6    4420    2509     0.00000 0.00000 0.00000 0.00000 0.00000 0.00000    2895  -12.74   42.20  1.0000
  17   5   6    5453    3035     0.00000 0.00000 0.00000 0.00000 0.00000 0.00000    7857    9.76  -11.65  1.0000
  19   5   6   24520    3726     0.00000 0.00000 0.00000 0.00000 0.00000 0.00000   24614  -16.34   -6.71  1.0000
  21   5   6   21053    4965     0.00000 0.00000 0.00000 0.00000 0.00000 0.00000   20103    5.56    4.59  1.0000
  23   5   6    7383    4942     0.00000 0.00000 0.00000 0.00000 0.00000 0.00000    5721  -10.57    7.71  1.0000
  25   5   6    5373    6125     0.00000 0.00000 0.00000 0.00000 0.00000 0.00000   14166  -64.33   23.85  1.0000
   0   6   6  220300   35112     0.00000 0.00000 0.00000 0.00000 0.00000 0.00000  477523  -92.78  213.53  1.0000
   2   6   6  154457    9287     0.00000 0.00000 0.00000 0.00000 0.00000 0.00000  169244   66.66  -19.15  1.0000
   4   6   6   80139   14882     0.00000 0.00000 0.00000 0.00000 0.00000 0.00000  206301   78.04  158.91  1.0000
   6   6   6    4795    1694     0.00000 0.00000 0.00000 0.00000 0.00000 0.00000    1231  -34.64    0.13  1.0000
   8   6   6    9029    2399     0.00000 0.00000 0.00000 0.00000 0.00000 0.00000    9766  -43.37   19.64  1.0000
  10   6   6   16008    1952     0.00000 0.00000 0.00000 0.00000 0.00000 0.00000    9514  -29.05   -5.21  1.0000
  12   6   6    2968    2309     0.00000 0.00000 0.00000 0.00000 0.00000 0.00000    5736    6.13   20.89  1.0000
  14   6   6   12683    2600     0.00000 0.00000 0.00000 0.00000 0.00000 0.00000   15884   -8.89  -21.86  1.0000
  16   6   6    2748    2832     0.00000 0.00000 0.00000 0.00000 0.00000 0.00000    5382   23.57  -18.52  1.0000
  18   6   6    2417    3426     0.00000 0.00000 0.00000 0.00000 0.00000 0.00000    7374   34.91  -15.19  1.0000
  20   6   6      50    4631     0.00000 0.00000 0.00000 0.00000 0.00000 0.00000   -1353    5.52   -4.52  1.0000
  22   6   6   19379    4513     0.00000 0.00000 0.00000 0.00000 0.00000 0.00000   18648    0.80   -2.85  1.0000
  24   6   6    8074    5292     0.00000 0.00000 0.00000 0.00000 0.00000 0.00000   10613   10.45   18.64  1.0000
   1   7   6   25245    5439     0.00000 0.00000 0.00000 0.00000 0.00000 0.00000   37522  -96.31  -22.33  1.0000
   3   7   6   41446    5409     0.00000 0.00000 0.00000 0.00000 0.00000 0.00000   49232   39.70  -20.15  1.0000
   5   7   6    4076    2163     0.00000 0.00000 0.00000 0.00000 0.00000 0.00000    3210   -0.03   -8.70  1.0000
   7   7   6    3209    1783     0.00000 0.00000 0.00000 0.00000 0.00000 0.00000    4300    9.10   -0.80  1.0000
   9   7   6    4177    2138     0.00000 0.00000 0.00000 0.00000 0.00000 0.00000    4004    5.78   -1.17  1.0000
  11   7   6    8907    3162     0.00000 0.00000 0.00000 0.00000 0.00000 0.00000   12704    3.89   47.79  1.0000
  13   7   6    1769    2547     0.00000 0.00000 0.00000 0.00000 0.00000 0.00000    3088   25.13   13.18  1.0000
  15   7   6    2497    3008     0.00000 0.00000 0.00000 0.00000 0.00000 0.00000    1636  -11.76   -0.02  1.0000
  17   7   6    7622    3678     0.00000 0.00000 0.00000 0.00000 0.00000 0.00000   11783   10.62   18.85  1.0000
  19   7   6   18361    4461     0.00000 0.00000 0.00000 0.00000 0.00000 0.00000   17288   -5.42   -6.61  1.0000
  21   7   6   15233    4725     0.00000 0.00000 0.00000 0.00000 0.00000 0.00000   21104    6.74   25.86  1.0000
  23   7   6    7840    5053     0.00000 0.00000 0.00000 0.00000 0.00000 0.00000    9063   27.24   17.75  1.0000
   0   8   6   69788    8436     0.00000 0.00000 0.00000 0.00000 0.00000 0.00000   65254  -44.33   -0.79  1.0000
   2   8   6    9298    2084     0.00000 0.00000 0.00000 0.00000 0.00000 0.00000    3982  -13.30  -38.37  1.0000
   6   8   6    8424    1876     0.00000 0.00000 0.00000 0.00000 0.00000 0.00000    8944  -51.33  -19.86  1.0000
   8   8   6    1548    2040     0.00000 0.00000 0.00000 0.00000 0.00000 0.00000    1928   -4.62    0.00  1.0000
  10   8   6     134    2294     0.00000 0.00000 0.00000 0.00000 0.00000 0.00000     660  -33.39  -13.79  1.0000
  12   8   6     180    2511     0.00000 0.00000 0.00000 0.00000 0.00000 0.00000   -3767  -13.49   -1.59  1.0000
  14   8   6    7207    2719     0.00000 0.00000 0.00000 0.00000 0.00000 0.00000    8483   29.63   13.22  1.0000
  16   8   6    9898    3250     0.00000 0.00000 0.00000 0.00000 0.00000 0.00000   11174   -4.07  -28.93  1.0000
  18   8   6    8355    4260     0.00000 0.00000 0.00000 0.00000 0.00000 0.00000    8402   -7.57   -5.89  1.0000
  20   8   6    6312    4486     0.00000 0.00000 0.00000 0.00000 0.00000 0.00000    3747  -15.91   14.14  1.0000
  22   8   6    8818    5438     0.00000 0.00000 0.00000 0.00000 0.00000 0.00000    6264   -2.65   14.97  1.0000
  24   8   6    4074    5393     0.00000 0.00000 0.00000 0.00000 0.00000 0.00000    9194  -27.51   23.01  1.0000
   1   9   6   14252    1922     0.00000 0.00000 0.00000 0.00000 0.00000 0.00000   20768   -4.96   25.63  1.0000
   3   9   6    5139    2168     0.00000 0.00000 0.00000 0.00000 0.00000 0.00000   15053   -3.16   53.20  1.0000
   5   9   6   25125    2708     0.00000 0.00000 0.00000 0.00000 0.00000 0.00000   37945   35.18   17.27  1.0000
   7   9   6    5836    1879     0.00000 0.00000 0.00000 0.00000 0.00000 0.00000    5603    6.11    1.38  1.0000
   9   9   6   20941    2450     0.00000 0.00000 0.00000 0.00000 0.00000 0.00000   26421  -18.07    0.43  1.0000
  11   9   6    3332    2806     0.00000 0.00000 0.00000 0.00000 0.00000 0.00000    1512   -3.61   20.39  1.0000
  13   9   6    7566    2732     0.00000 0.00000 0.00000 0.00000 0.00000 0.00000    8430   -4.77    3.19  1.0000
  15   9   6    5050    3284     0.00000 0.00000 0.00000 0.00000 0.00000 0.00000    4176   -7.70    6.62  1.0000
  17   9   6     462    3768     0.00000 0.00000 0.00000 0.00000 0.00000 0.00000    4673   10.15   66.57  1.0000
  19   9   6   18073    4557     0.00000 0.00000 0.00000 0.00000 0.00000 0.00000   21209   25.47   -3.66  1.0000
  21   9   6   11694    4750     0.00000 0.00000 0.00000 0.00000 0.00000 0.00000   12930   14.36    2.77  1.0000
  23   9   6    5435    7350     0.00000 0.00000 0.00000 0.00000 0.00000 0.00000    5189    4.70    1.77  1.0000
   0  10   6   19989    2816     0.00000 0.00000 0.00000 0.00000 0.00000 0.00000   33691   -4.26   42.58  1.0000
   2  10   6   10549    1644     0.00000 0.00000 0.00000 0.00000 0.00000 0.00000    8924   14.91    6.40  1.0000
   4  10   6    5858    1787     0.00000 0.00000 0.00000 0.00000 0.00000 0.00000    6950  -52.59   22.09  1.0000
   6  10   6   18216    2503     0.00000 0.00000 0.00000 0.00000 0.00000 0.00000   11336  -28.34    6.65  1.0000
   8  10   6     511    2226     0.00000 0.00000 0.00000 0.00000 0.00000 0.00000    2735  -29.49   13.05  1.0000
  10  10   6   44273    2727     0.00000 0.00000 0.00000 0.00000 0.00000 0.00000   36339   20.04    1.83  1.0000
  12  10   6     407    2658     0.00000 0.00000 0.00000 0.00000 0.00000 0.00000   -3987   -1.43  -20.38  1.0000
  14  10   6    1577    3408     0.00000 0.00000 0.00000 0.00000 0.00000 0.00000    4002    6.55  -24.83  1.0000
  16  10   6     517    3314     0.00000 0.00000 0.00000 0.00000 0.00000 0.00000    1370  -48.39   18.04  1.0000
  18  10   6     769    3999     0.00000 0.00000 0.00000 0.00000 0.00000 0.00000    4093  -30.09  -27.81  1.0000
  20  10   6    2300    4644     0.00000 0.00000 0.00000 0.00000 0.00000 0.00000    2276  -19.48  -32.19  1.0000
  22  10   6     294    5403     0.00000 0.00000 0.00000 0.00000 0.00000 0.00000    2015  -25.38   15.62  1.0000
   1  11   6   27041    1928     0.00000 0.00000 0.00000 0.00000 0.00000 0.00000   34974   13.09  -24.46  1.0000
   3  11   6   29640    2135     0.00000 0.00000 0.00000 0.00000 0.00000 0.00000   37666    0.52  -22.27  1.0000
   5  11   6     791    2064     0.00000 0.00000 0.00000 0.00000 0.00000 0.00000     688  -16.01   -1.79  1.0000
   7  11   6    6536    2308     0.00000 0.00000 0.00000 0.00000 0.00000 0.00000    8163    5.40  -48.84  1.0000
   9  11   6    7424    2519     0.00000 0.00000 0.00000 0.00000 0.00000 0.00000    4457    0.17  -19.84  1.0000
  11  11   6   15022    2589     0.00000 0.00000 0.00000 0.00000 0.00000 0.00000   15255   -0.97    0.82  1.0000
  13  11   6     124    2968     0.00000 0.00000 0.00000 0.00000 0.00000 0.00000   -1176  -10.45    4.24  1.0000
  15  11   6     383    3211     0.00000 0.00000 0.00000 0.00000 0.00000 0.00000   -2192   10.90   16.55  1.0000
  17  11   6     636    3523     0.00000 0.00000 0.00000 0.00000 0.00000 0.00000     519   12.57    8.62  1.0000
  19  11   6    6385    4957     0.00000 0.00000 0.00000 0.00000 0.00000 0.00000    9470  -14.18   15.96  1.0000
  21  11   6   18872    4884     0.00000 0.00000 0.00000 0.00000 0.00000 0.00000   24418  -28.33   -2.59  1.0000
  23  11   6    2846    6159     0.00000 0.00000 0.00000 0.00000 0.00000 0.00000    1487  -13.10  -12.49  1.0000
   0  12   6   23967    3927     0.00000 0.00000 0.00000 0.00000 0.00000 0.00000   43171  -77.20  -55.28  1.0000
   2  12   6    4790    1940     0.00000 0.00000 0.00000 0.00000 0.00000 0.00000    6454    8.93  -27.80  1.0000
   4  12   6   33007    2871     0.00000 0.00000 0.00000 0.00000 0.00000 0.00000   40549   20.18  -20.43  1.0000
   6  12   6    5336    2766     0.00000 0.00000 0.00000 0.00000 0.00000 0.00000    9103   14.15  -20.19  1.0000
   8  12   6     537    2485     0.00000 0.00000 0.00000 0.00000 0.00000 0.00000     105  -15.58    3.46  1.0000
  10  12   6    3326    2568     0.00000 0.00000 0.00000 0.00000 0.00000 0.00000    5185   -0.37   18.63  1.0000
  12  12   6    2084    3008     0.00000 0.00000 0.00000 0.00000 0.00000 0.00000    2948   -8.70   -1.90  1.0000
  14  12   6     202    3518     0.00000 0.00000 0.00000 0.00000 0.00000 0.00000   -1604   14.05    3.18  1.0000
  16  12   6     319    3864     0.00000 0.00000 0.00000 0.00000 0.00000 0.00000   -1731   18.03    1.37  1.0000
  18  12   6    2637    4349     0.00000 0.00000 0.00000 0.00000 0.00000 0.00000    3231   11.33    1.03  1.0000
  20  12   6       2    5796     0.00000 0.00000 0.00000 0.00000 0.00000 0.00000   -5314    1.25    0.66  1.0000
  22  12   6     592    6343     0.00000 0.00000 0.00000 0.00000 0.00000 0.00000     182   12.08   -0.72  1.0000
   1  13   6   65471    3155     0.00000 0.00000 0.00000 0.00000 0.00000 0.00000   62100  -10.34   -5.67  1.0000
   3  13   6   26706    2504     0.00000 0.00000 0.00000 0.00000 0.00000 0.00000   31838    8.91   19.23  1.0000
   5  13   6    8231    2501     0.00000 0.00000 0.00000 0.00000 0.00000 0.00000    4595   -7.48   26.11  1.0000
   7  13   6    2615    2491     0.00000 0.00000 0.00000 0.00000 0.00000 0.00000    4178   22.90  -12.96  1.0000
   9  13   6    6269    2623     0.00000 0.00000 0.00000 0.00000 0.00000 0.00000    6871   -2.11   -3.24  1.0000
  11  13   6     112    2970     0.00000 0.00000 0.00000 0.00000 0.00000 0.00000   -4017   -9.89   -4.17  1.0000
  13  13   6     138    3544     0.00000 0.00000 0.00000 0.00000 0.00000 0.00000   -4786   11.89    0.17  1.0000
  15  13   6     317    3776     0.00000 0.00000 0.00000 0.00000 0.00000 0.00000   -1507   16.14   -8.02  1.0000
  17  13   6      45    4411     0.00000 0.00000 0.00000 0.00000 0.00000 0.00000   -3818   -5.87    3.36  1.0000
  19  13   6     349    5504     0.00000 0.00000 0.00000 0.00000 0.00000 0.00000    -912   -0.26   18.91  1.0000
  21  13   6    7227    6523     0.00000 0.00000 0.00000 0.00000 0.00000 0.00000    9082   -4.24  -12.80  1.0000
   0  14   6   47841    5717     0.00000 0.00000 0.00000 0.00000 0.00000 0.00000   44806   31.66  -26.43  1.0000
   2  14   6   82467    3141     0.00000 0.00000 0.00000 0.00000 0.00000 0.00000   84327   -6.51    2.86  1.0000
   4  14   6    2096    2351     0.00000 0.00000 0.00000 0.00000 0.00000 0.00000    5534    5.74   28.46  1.0000
   6  14   6    9379    2493     0.00000 0.00000 0.00000 0.00000 0.00000 0.00000   12341   -9.28   23.21  1.0000
   8  14   6    7095    2660     0.00000 0.00000 0.00000 0.00000 0.00000 0.00000    8223   26.88  -12.27  1.0000
  10  14   6     612    3452     0.00000 0.00000 0.00000 0.00000 0.00000 0.00000   -5178    3.99   24.72  1.0000
  12  14   6     204    3410     0.00000 0.00000 0.00000 0.00000 0.00000 0.00000    -771   14.29   -2.18  1.0000
  14  14   6      67    3945     0.00000 0.00000 0.00000 0.00000 0.00000 0.00000     647   17.53   -0.20  1.0000
  16  14   6     151    4158     0.00000 0.00000 0.00000 0.00000 0.00000 0.00000   -6237   -6.21   10.76  1.0000
  18  14   6    4032    5357     0.00000 0.00000 0.00000 0.00000 0.00000 0.00000    4643   -3.53   -8.45  1.0000
  20  14   6      65    6449     0.00000 0.00000 0.00000 0.00000 0.00000 0.00000   -5945    6.97    4.28  1.0000
   1  15   6   16032    2812     0.00000 0.00000 0.00000 0.00000 0.00000 0.00000   14336  -66.35   23.40  1.0000
   3  15   6   12692    2328     0.00000 0.00000 0.00000 0.00000 0.00000 0.00000   14950   11.75  -15.37  1.0000
   5  15   6    3565    2477     0.00000 0.00000 0.00000 0.00000 0.00000 0.00000    2047  -13.26  -42.71  1.0000
   7  15   6     178    2643     0.00000 0.00000 0.00000 0.00000 0.00000 0.00000    -121  -13.45    1.04  1.0000
   9  15   6     110    3042     0.00000 0.00000 0.00000 0.00000 0.00000 0.00000    -136   -8.27   -6.69  1.0000
  11  15   6     397    3658     0.00000 0.00000 0.00000 0.00000 0.00000 0.00000   -3672   10.47  -17.24  1.0000
  13  15   6     326    4004     0.00000 0.00000 0.00000 0.00000 0.00000 0.00000   -5488   16.62    7.58  1.0000
  15  15   6     261    4254     0.00000 0.00000 0.00000 0.00000 0.00000 0.00000   -2606  -16.36    0.58  1.0000
  17  15   6     393    4710     0.00000 0.00000 0.00000 0.00000 0.00000 0.00000   -7065   -1.20   20.03  1.0000
  19  15   6    3691    5922     0.00000 0.00000 0.00000 0.00000 0.00000 0.00000    4485    9.81    3.93  1.0000
   0  16   6    9977    3562     0.00000 0.00000 0.00000 0.00000 0.00000 0.00000    6973   16.65   19.13  1.0000
   2  16   6   58824    3079     0.00000 0.00000 0.00000 0.00000 0.00000 0.00000   68415  -18.27  -13.80  1.0000
   4  16   6    6580    2669     0.00000 0.00000 0.00000 0.00000 0.00000 0.00000    3973   22.47    6.15  1.0000
   6  16   6    1715    2535     0.00000 0.00000 0.00000 0.00000 0.00000 0.00000    3669   23.31   17.52  1.0000
   8  16   6    5231    3162     0.00000 0.00000 0.00000 0.00000 0.00000 0.00000    6162   -3.64   25.44  1.0000
  10  16   6     629    3685     0.00000 0.00000 0.00000 0.00000 0.00000 0.00000     666  -47.62  -18.72  1.0000
  12  16   6     321    3939     0.00000 0.00000 0.00000 0.00000 0.00000 0.00000   -3456   17.94   -2.74  1.0000
  14  16   6     160    4391     0.00000 0.00000 0.00000 0.00000 0.00000 0.00000   -6586   -6.13  -11.25  1.0000
  16  16   6      67    4717     0.00000 0.00000 0.00000 0.00000 0.00000 0.00000   -5945   -8.30   -0.48  1.0000
  18  16   6     124    5932     0.00000 0.00000 0.00000 0.00000 0.00000 0.00000   -4115   -1.03  -11.23  1.0000
  20  16   6     226   12403     0.00000 0.00000 0.00000 0.00000 0.00000 0.00000   -7592    1.26  -15.17  1.0000
   1  17   6   22928    2523     0.00000 0.00000 0.00000 0.00000 0.00000 0.00000   20930    9.60   -6.69  1.0000
   3  17   6   11395    3126     0.00000 0.00000 0.00000 0.00000 0.00000 0.00000   10520   -9.60   17.79  1.0000
   5  17   6   10989    2657     0.00000 0.00000 0.00000 0.00000 0.00000 0.00000   14568   11.08   12.40  1.0000
   7  17   6    7972    2856     0.00000 0.00000 0.00000 0.00000 0.00000 0.00000   12017   12.63  -17.58  1.0000
   9  17   6    1066    4333     0.00000 0.00000 0.00000 0.00000 0.00000 0.00000    6011    7.58  -67.63  1.0000
  11  17   6     202    4123     0.00000 0.00000 0.00000 0.00000 0.00000 0.00000   -6184   11.58   -8.56  1.0000
  13  17   6      33    4329     0.00000 0.00000 0.00000 0.00000 0.00000 0.00000   -6257   -5.43   -2.19  1.0000
  15  17   6     368    4846     0.00000 0.00000 0.00000 0.00000 0.00000 0.00000   -6144   -0.41  -19.43  1.0000
  17  17   6     482    5669     0.00000 0.00000 0.00000 0.00000 0.00000 0.00000     945    8.88    0.05  1.0000
  19  17   6      62    7039     0.00000 0.00000 0.00000 0.00000 0.00000 0.00000  -10559    7.72    2.06  1.0000
   0  18   6   62904    4729     0.00000 0.00000 0.00000 0.00000 0.00000 0.00000   60141   18.94  -13.01  1.0000
   2  18   6    2442    3059     0.00000 0.00000 0.00000 0.00000 0.00000 0.00000    7594   42.07   39.46  1.0000
   4  18   6    2213    2939     0.00000 0.00000 0.00000 0.00000 0.00000 0.00000    1363   -5.80   -8.64  1.0000
   6  18   6    3585    3006     0.00000 0.00000 0.00000 0.00000 0.00000 0.00000    8036   34.31   14.74  1.0000
   8  18   6     561    3515     0.00000 0.00000 0.00000 0.00000 0.00000 0.00000     509   -8.97    6.29  1.0000
  10  18   6     469    3859     0.00000 0.00000 0.00000 0.00000 0.00000 0.00000    3263  -28.95   29.17  1.0000
  12  18   6     122    4390     0.00000 0.00000 0.00000 0.00000 0.00000 0.00000    -908   11.12   -1.15  1.0000
  14  18   6      82    5018     0.00000 0.00000 0.00000 0.00000 0.00000 0.00000   -1267   -3.34    8.56  1.0000
  16  18   6     113    5778     0.00000 0.00000 0.00000 0.00000 0.00000 0.00000   -5319   -1.74   10.63  1.0000
  18  18   6      23    7636     0.00000 0.00000 0.00000 0.00000 0.00000 0.00000   -2749    4.89    0.15  1.0000
   1  19   6    1203    2821     0.00000 0.00000 0.00000 0.00000 0.00000 0.00000    2175    1.76  -25.61  1.0000
   3  19   6   10870    3331     0.00000 0.00000 0.00000 0.00000 0.00000 0.00000   10010  -20.03   -0.75  1.0000
   5  19   6   18737    3171     0.00000 0.00000 0.00000 0.00000 0.00000 0.00000   19015  -15.47    6.34  1.0000
   7  19   6    6243    3419     0.00000 0.00000 0.00000 0.00000 0.00000 0.00000    5377   -5.26    7.54  1.0000
   9  19   6    8582    4022     0.00000 0.00000 0.00000 0.00000 0.00000 0.00000   10261   25.50    4.04  1.0000
  11  19   6    8450    4170     0.00000 0.00000 0.00000 0.00000 0.00000 0.00000   11913  -13.78  -16.23  1.0000
  13  19   6     360    4989     0.00000 0.00000 0.00000 0.00000 0.00000 0.00000    -195   -0.11  -19.22  1.0000
  15  19   6    1505    4824     0.00000 0.00000 0.00000 0.00000 0.00000 0.00000    1959   10.17   -3.94  1.0000
  17  19   6      62    6461     0.00000 0.00000 0.00000 0.00000 0.00000 0.00000   -3361    7.72   -2.07  1.0000
   0  20   6   18081    4193     0.00000 0.00000 0.00000 0.00000 0.00000 0.00000   11408   86.02  -93.39  1.0000
   2  20   6   84529    3831     0.00000 0.00000 0.00000 0.00000 0.00000 0.00000   69242   68.52   25.21  1.0000
   4  20   6   23985    3454     0.00000 0.00000 0.00000 0.00000 0.00000 0.00000   18321  -53.54  -18.40  1.0000
   6  20   6    6414    3768     0.00000 0.00000 0.00000 0.00000 0.00000 0.00000    5597    5.76    4.36  1.0000
   8  20   6   13422    4103     0.00000 0.00000 0.00000 0.00000 0.00000 0.00000    9727  -15.51  -14.09  1.0000
  10  20   6    1789    4183     0.00000 0.00000 0.00000 0.00000 0.00000 0.00000    2277  -18.95   30.20  1.0000
  12  20   6       4    4582     0.00000 0.00000 0.00000 0.00000 0.00000 0.00000   -3024    1.88   -0.57  1.0000
  14  20   6      77    4939     0.00000 0.00000 0.00000 0.00000 0.00000 0.00000    -581    7.65   -4.55  1.0000
  16  20   6     210    7283     0.00000 0.00000 0.00000 0.00000 0.00000 0.00000    -847    0.60   14.66  1.0000
   1  21   6      91    3414     0.00000 0.00000 0.00000 0.00000 0.00000 0.00000   10254  -82.96  -56.36  1.0000
   3  21   6   21908    3313     0.00000 0.00000 0.00000 0.00000 0.00000 0.00000   17818   16.73    7.44  1.0000
   5  21   6   18242    3647     0.00000 0.00000 0.00000 0.00000 0.00000 0.00000   17255    4.82   -4.61  1.0000
   7  21   6   11506    3784     0.00000 0.00000 0.00000 0.00000 0.00000 0.00000   16965    6.69  -26.24  1.0000
   9  21   6   17596    4496     0.00000 0.00000 0.00000 0.00000 0.00000 0.00000   18816   15.45   -2.48  1.0000
  11  21   6   18092    5419     0.00000 0.00000 0.00000 0.00000 0.00000 0.00000   22624  -28.70    2.71  1.0000
  13  21   6    1445    4869     0.00000 0.00000 0.00000 0.00000 0.00000 0.00000    2300   -4.76   12.18  1.0000
   0  22   6   34232    5512     0.00000 0.00000 0.00000 0.00000 0.00000 0.00000   38053   45.61   -3.95  1.0000
   2  22   6   17427    3715     0.00000 0.00000 0.00000 0.00000 0.00000 0.00000   17606   34.96  -11.67  1.0000
   4  22   6   21116    3571     0.00000 0.00000 0.00000 0.00000 0.00000 0.00000   18350  -17.34   -8.77  1.0000
   6  22   6    8338    3882     0.00000 0.00000 0.00000 0.00000 0.00000 0.00000    7681   -0.46    4.78  1.0000
   8  22   6    4947    4388     0.00000 0.00000 0.00000 0.00000 0.00000 0.00000    3055   -1.76  -15.24  1.0000
  10  22   6    3242    4634     0.00000 0.00000 0.00000 0.00000 0.00000 0.00000    7246  -25.97  -15.13  1.0000
  12  22   6    1070    4896     0.00000 0.00000 0.00000 0.00000 0.00000 0.00000     537   11.49    0.97  1.0000
   1  23   6    2927    3907     0.00000 0.00000 0.00000 0.00000 0.00000 0.00000   10198  -62.96   18.39  1.0000
   3  23   6    2709    4041     0.00000 0.00000 0.00000 0.00000 0.00000 0.00000   12443   -8.40   65.61  1.0000
   5  23   6    7672    4515     0.00000 0.00000 0.00000 0.00000 0.00000 0.00000    5833  -12.80   -8.57  1.0000
   7  23   6    6482    4207     0.00000 0.00000 0.00000 0.00000 0.00000 0.00000    7910   27.08  -18.90  1.0000
   9  23   6    8482    4830     0.00000 0.00000 0.00000 0.00000 0.00000 0.00000    8027    5.18   -2.61  1.0000
  11  23   6    1484    5342     0.00000 0.00000 0.00000 0.00000 0.00000 0.00000     545  -13.83   12.38  1.0000
   0  24   6    2148   12787     0.00000 0.00000 0.00000 0.00000 0.00000 0.00000   10433  -37.51   42.30  1.0000
   2  24   6    3885    4583     0.00000 0.00000 0.00000 0.00000 0.00000 0.00000    7912   30.46  -10.10  1.0000
   4  24   6       2    4002     0.00000 0.00000 0.00000 0.00000 0.00000 0.00000    5649   65.55  -36.26  1.0000
   6  24   6    3641    4333     0.00000 0.00000 0.00000 0.00000 0.00000 0.00000    5380    9.86  -15.48  1.0000
   8  24   6    1077    4429     0.00000 0.00000 0.00000 0.00000 0.00000 0.00000    4294  -27.94  -22.76  1.0000
   1  25   6    6551    5920     0.00000 0.00000 0.00000 0.00000 0.00000 0.00000   18523   29.32  -49.34  1.0000
   3  25   6    1732    4690     0.00000 0.00000 0.00000 0.00000 0.00000 0.00000    7416  -71.80  -18.23  1.0000
   5  25   6    2782    4912     0.00000 0.00000 0.00000 0.00000 0.00000 0.00000    8440  -63.06  -25.51  1.0000
   2   1   7   25378    1659     0.00000 0.00000 0.00000 0.00000 0.00000 0.00000   32123    0.07  226.57  1.0000
   4   1   7   84401    4301     0.00000 0.00000 0.00000 0.00000 0.00000 0.00000   51632 -101.40    6.66  1.0000
   6   1   7   70177    8083     0.00000 0.00000 0.00000 0.00000 0.00000 0.00000   46181   45.69   32.20  1.0000
   8   1   7    8377    2181     0.00000 0.00000 0.00000 0.00000 0.00000 0.00000   14722  -53.24  -43.98  1.0000
  10   1   7  214391    5772     0.00000 0.00000 0.00000 0.00000 0.00000 0.00000  214935  -10.81   10.64  1.0000
  12   1   7    8155    1957     0.00000 0.00000 0.00000 0.00000 0.00000 0.00000    5594  -49.43   11.21  1.0000
  14   1   7   99060    3480     0.00000 0.00000 0.00000 0.00000 0.00000 0.00000  100964   -2.30   -2.00  1.0000
  16   1   7   48633    2816     0.00000 0.00000 0.00000 0.00000 0.00000 0.00000   47846   20.86  -23.37  1.0000
  18   1   7    3936    3011     0.00000 0.00000 0.00000 0.00000 0.00000 0.00000    7173  -22.97   28.03  1.0000
  20   1   7    5997    4927     0.00000 0.00000 0.00000 0.00000 0.00000 0.00000   14285  -38.96   56.26  1.0000
  22   1   7     223    4095     0.00000 0.00000 0.00000 0.00000 0.00000 0.00000    7987   54.67   67.41  1.0000
  24   1   7    5720    4660     0.00000 0.00000 0.00000 0.00000 0.00000 0.00000   13003   -0.29  -41.21  1.0000
   1   2   7   26895    2347     0.00000 0.00000 0.00000 0.00000 0.00000 0.00000   32595   -0.42  224.70  1.0000
   3   2   7  355807    4332     0.00000 0.00000 0.00000 0.00000 0.00000 0.00000  116572   30.85  290.54  1.0000
   5   2   7   42596    5192     0.00000 0.00000 0.00000 0.00000 0.00000 0.00000   54270   10.38  -26.31  1.0000
   7   2   7   29463    4472     0.00000 0.00000 0.00000 0.00000 0.00000 0.00000   49057  -57.38  -44.50  1.0000
   9   2   7   24232    1789     0.00000 0.00000 0.00000 0.00000 0.00000 0.00000   23790  -14.90   34.46  1.0000
  11   2   7   54798    2241     0.00000 0.00000 0.00000 0.00000 0.00000 0.00000   42046   24.02   18.50  1.0000
  13   2   7    1449    2356     0.00000 0.00000 0.00000 0.00000 0.00000 0.00000    4069   36.90   -9.38  1.0000
  15   2   7    2528    2214     0.00000 0.00000 0.00000 0.00000 0.00000 0.00000    3433   -7.86    3.29  1.0000
  17   2   7   17198    3087     0.00000 0.00000 0.00000 0.00000 0.00000 0.00000   28046   22.73   31.48  1.0000
  19   2   7    5532    3723     0.00000 0.00000 0.00000 0.00000 0.00000 0.00000   10220   31.67   11.64  1.0000
  21   2   7    2870    3846     0.00000 0.00000 0.00000 0.00000 0.00000 0.00000   12050  -36.09  -44.13  1.0000
  23   2   7    9390    4366     0.00000 0.00000 0.00000 0.00000 0.00000 0.00000   11014   16.05  -23.57  1.0000
  25   2   7    5997    6992     0.00000 0.00000 0.00000 0.00000 0.00000 0.00000    9994  -31.26   19.62  1.0000
   2   3   7  366665    4315     0.00000 0.00000 0.00000 0.00000 0.00000 0.00000  118878  -29.54  291.43  1.0000
   4   3   7  196658   12553     0.00000 0.00000 0.00000 0.00000 0.00000 0.00000  284642 -117.25  -67.02  1.0000
   6   3   7   66234   17656     0.00000 0.00000 0.00000 0.00000 0.00000 0.00000  151442  106.02   82.35  1.0000
  10   3   7   25650    1966     0.00000 0.00000 0.00000 0.00000 0.00000 0.00000   31830   19.33    9.34  1.0000
  12   3   7    7640    2048     0.00000 0.00000 0.00000 0.00000 0.00000 0.00000    7576  -24.34   15.92  1.0000
  14   3   7   37383    2933     0.00000 0.00000 0.00000 0.00000 0.00000 0.00000   49141  -27.43   32.12  1.0000
  16   3   7    9644    2986     0.00000 0.00000 0.00000 0.00000 0.00000 0.00000    5751    2.81   22.75  1.0000
  18   3   7    3498    3261     0.00000 0.00000 0.00000 0.00000 0.00000 0.00000    5578  -15.05   10.44  1.0000
  20   3   7    4649    3791     0.00000 0.00000 0.00000 0.00000 0.00000 0.00000   12449  -30.97  -32.24  1.0000
  22   3   7    2905    4025     0.00000 0.00000 0.00000 0.00000 0.00000 0.00000   11584   54.05   45.76  1.0000
  24   3   7   16487    4974     0.00000 0.00000 0.00000 0.00000 0.00000 0.00000   15030   22.79  -34.13  1.0000
   1   4   7   86293    3120     0.00000 0.00000 0.00000 0.00000 0.00000 0.00000   54902  102.38    5.69  1.0000
   3   4   7  195640   15109     0.00000 0.00000 0.00000 0.00000 0.00000 0.00000  282062  117.37  -65.87  1.0000
   5   4   7   21311    5943     0.00000 0.00000 0.00000 0.00000 0.00000 0.00000   19736  -12.79   -8.74  1.0000
   7   4   7   18497    5070     0.00000 0.00000 0.00000 0.00000 0.00000 0.00000   28959  -24.58   47.02  1.0000
   9   4   7    8834    2214     0.00000 0.00000 0.00000 0.00000 0.00000 0.00000    7435   -4.39  -15.38  1.0000
  11   4   7   33427    2094     0.00000 0.00000 0.00000 0.00000 0.00000 0.00000   28630   -7.87  -11.68  1.0000
  13   4   7    5088    2144     0.00000 0.00000 0.00000 0.00000 0.00000 0.00000    4588   22.51   12.35  1.0000
  15   4   7    7486    2779     0.00000 0.00000 0.00000 0.00000 0.00000 0.00000    9265   -3.19  -31.70  1.0000
  17   4   7   10372    3260     0.00000 0.00000 0.00000 0.00000 0.00000 0.00000   12881   19.49  -29.06  1.0000
  19   4   7    1048    4024     0.00000 0.00000 0.00000 0.00000 0.00000 0.00000     860   22.12  -31.21  1.0000
  21   4   7    1004    3803     0.00000 0.00000 0.00000 0.00000 0.00000 0.00000    2357    9.06  -53.35  1.0000
  23   4   7    7804    4524     0.00000 0.00000 0.00000 0.00000 0.00000 0.00000   10812   17.73   42.65  1.0000
  25   4   7    3974    5517     0.00000 0.00000 0.00000 0.00000 0.00000 0.00000   14663  -29.32   51.14  1.0000
   2   5   7   40870    4567     0.00000 0.00000 0.00000 0.00000 0.00000 0.00000   52501  -10.77  -26.60  1.0000
   4   5   7    4547    6661     0.00000 0.00000 0.00000 0.00000 0.00000 0.00000    3626    9.31   -8.32  1.0000
   6   5   7   21168    3381     0.00000 0.00000 0.00000 0.00000 0.00000 0.00000   27436  -39.52   12.26  1.0000
   8   5   7   15265    2188     0.00000 0.00000 0.00000 0.00000 0.00000 0.00000   30243  -29.96   65.00  1.0000
  10   5   7   18719    2224     0.00000 0.00000 0.00000 0.00000 0.00000 0.00000   23464  -24.41    1.06  1.0000
  12   5   7    3524    2135     0.00000 0.00000 0.00000 0.00000 0.00000 0.00000    2673   20.01  -13.03  1.0000
  14   5   7   31774    2443     0.00000 0.00000 0.00000 0.00000 0.00000 0.00000   39727    0.58  -23.97  1.0000
  16   5   7    3047    2778     0.00000 0.00000 0.00000 0.00000 0.00000 0.00000    2062    4.26  -14.25  1.0000
  18   5   7    2055    3471     0.00000 0.00000 0.00000 0.00000 0.00000 0.00000    5219  -18.28   23.87  1.0000
  20   5   7    1712    3835     0.00000 0.00000 0.00000 0.00000 0.00000 0.00000    6317   16.67   34.81  1.0000
  22   5   7    1742    4964     0.00000 0.00000 0.00000 0.00000 0.00000 0.00000    6259  -41.09   18.26  1.0000
  24   5   7    6672    5387     0.00000 0.00000 0.00000 0.00000 0.00000 0.00000   14689   26.61  -31.33  1.0000
   1   6   7   63833    3607     0.00000 0.00000 0.00000 0.00000 0.00000 0.00000   40228  -45.70   33.82  1.0000
   3   6   7   56828    9325     0.00000 0.00000 0.00000 0.00000 0.00000 0.00000  135796 -105.53   81.94  1.0000
   5   6   7   18635    4052     0.00000 0.00000 0.00000 0.00000 0.00000 0.00000   24713   36.73    6.79  1.0000
   9   6   7   25620    2148     0.00000 0.00000 0.00000 0.00000 0.00000 0.00000   20345   32.46  -15.93  1.0000
  11   6   7    8770    2246     0.00000 0.00000 0.00000 0.00000 0.00000 0.00000   13189  -18.72  -10.88  1.0000
  13   6   7      98    2126     0.00000 0.00000 0.00000 0.00000 0.00000 0.00000    -570    7.54    6.62  1.0000
  15   6   7    5377    2518     0.00000 0.00000 0.00000 0.00000 0.00000 0.00000   10694   32.51    2.39  1.0000
  17   6   7    8621    3322     0.00000 0.00000 0.00000 0.00000 0.00000 0.00000    6133   -5.79  -14.28  1.0000
  19   6   7    6838    4967     0.00000 0.00000 0.00000 0.00000 0.00000 0.00000    6600   -1.92   -2.41  1.0000
  21   6   7    3446    4952     0.00000 0.00000 0.00000 0.00000 0.00000 0.00000    2584    6.76   -7.62  1.0000
  23   6   7    7204    5090     0.00000 0.00000 0.00000 0.00000 0.00000 0.00000    6608  -12.36    7.01  1.0000
   2   7   7   23094    4811     0.00000 0.00000 0.00000 0.00000 0.00000 0.00000   41074   56.38  -47.04  1.0000
   4   7   7   14728    1985     0.00000 0.00000 0.00000 0.00000 0.00000 0.00000   23349   26.86   46.76  1.0000
   6   7   7   14668    1735     0.00000 0.00000 0.00000 0.00000 0.00000 0.00000    7020  -43.80    9.49  1.0000
   8   7   7   19982    2165     0.00000 0.00000 0.00000 0.00000 0.00000 0.00000   23607   14.54   19.67  1.0000
  10   7   7    5132    2224     0.00000 0.00000 0.00000 0.00000 0.00000 0.00000   10656   36.97   -3.55  1.0000
  12   7   7    7658    2163     0.00000 0.00000 0.00000 0.00000 0.00000 0.00000    6409   43.03   10.89  1.0000
  14   7   7   10952    2713     0.00000 0.00000 0.00000 0.00000 0.00000 0.00000   12247    5.12  -15.61  1.0000
  16   7   7      49    3184     0.00000 0.00000 0.00000 0.00000 0.00000 0.00000    1625   -8.62  -32.66  1.0000
  18   7   7     878    4150     0.00000 0.00000 0.00000 0.00000 0.00000 0.00000    3472  -36.92   19.45  1.0000
  20   7   7     919    4584     0.00000 0.00000 0.00000 0.00000 0.00000 0.00000     449   48.67   -4.91  1.0000
  22   7   7    4918    4892     0.00000 0.00000 0.00000 0.00000 0.00000 0.00000    7895  -17.79   10.50  1.0000
  24   7   7    8262    5292     0.00000 0.00000 0.00000 0.00000 0.00000 0.00000   19154  -46.73   11.57  1.0000
   3   8   7   24712    2149     0.00000 0.00000 0.00000 0.00000 0.00000 0.00000   32338  -40.46   57.47  1.0000
   5   8   7   15034    2014     0.00000 0.00000 0.00000 0.00000 0.00000 0.00000   31080   29.45   65.97  1.0000
   7   8   7   21861    1896     0.00000 0.00000 0.00000 0.00000 0.00000 0.00000   26131  -15.66   19.79  1.0000
   9   8   7   15133    2801     0.00000 0.00000 0.00000 0.00000 0.00000 0.00000   13550   29.04  -18.10  1.0000
  11   8   7    1730    2085     0.00000 0.00000 0.00000 0.00000 0.00000 0.00000    1288  -12.89   -1.89  1.0000
  13   8   7    3743    2556     0.00000 0.00000 0.00000 0.00000 0.00000 0.00000    2765  -21.13  -14.70  1.0000
  15   8   7   16897    2959     0.00000 0.00000 0.00000 0.00000 0.00000 0.00000   21792    2.51  -18.75  1.0000
  17   8   7   18713    4395     0.00000 0.00000 0.00000 0.00000 0.00000 0.00000   13119   23.88    0.43  1.0000
  19   8   7    6557    4523     0.00000 0.00000 0.00000 0.00000 0.00000 0.00000    8048   11.79   -3.07  1.0000
  21   8   7    3569    5456     0.00000 0.00000 0.00000 0.00000 0.00000 0.00000    3796   -1.60   -8.77  1.0000
  23   8   7     700    5622     0.00000 0.00000 0.00000 0.00000 0.00000 0.00000     807   -7.44    3.23  1.0000
   2   9   7   26493    1891     0.00000 0.00000 0.00000 0.00000 0.00000 0.00000   26895   14.83   37.65  1.0000
   4   9   7    9283    1947     0.00000 0.00000 0.00000 0.00000 0.00000 0.00000    8027    4.99  -10.63  1.0000
   6   9   7   28015    2086     0.00000 0.00000 0.00000 0.00000 0.00000 0.00000   21852  -31.27  -15.91  1.0000
   8   9   7   18546    2505     0.00000 0.00000 0.00000 0.00000 0.00000 0.00000   17810  -28.84  -17.71  1.0000
  10   9   7    7086    2208     0.00000 0.00000 0.00000 0.00000 0.00000 0.00000    3349  -50.51    8.39  1.0000
  12   9   7   27133    2389     0.00000 0.00000 0.00000 0.00000 0.00000 0.00000   23430   25.74   12.87  1.0000
  14   9   7   11434    2779     0.00000 0.00000 0.00000 0.00000 0.00000 0.00000   14742   23.86   14.01  1.0000
  16   9   7    3788    4011     0.00000 0.00000 0.00000 0.00000 0.00000 0.00000    3582    3.26    9.74  1.0000
  18   9   7    3209    4218     0.00000 0.00000 0.00000 0.00000 0.00000 0.00000    2592  -39.22    7.57  1.0000
  20   9   7    8953    4724     0.00000 0.00000 0.00000 0.00000 0.00000 0.00000    8210   -7.61    0.78  1.0000
  22   9   7    5535    5242     0.00000 0.00000 0.00000 0.00000 0.00000 0.00000   11604   19.06   30.32  1.0000
   1  10   7  213694    5930     0.00000 0.00000 0.00000 0.00000 0.00000 0.00000  216053   10.91    9.14  1.0000
   3  10   7   30495    1995     0.00000 0.00000 0.00000 0.00000 0.00000 0.00000   37075  -18.55    9.43  1.0000
   5  10   7   19615    2046     0.00000 0.00000 0.00000 0.00000 0.00000 0.00000   24925   25.18    1.82  1.0000
   7  10   7    5259    2830     0.00000 0.00000 0.00000 0.00000 0.00000 0.00000   11701  -35.94   -4.07  1.0000
   9  10   7   11178    2340     0.00000 0.00000 0.00000 0.00000 0.00000 0.00000    7104   45.05    9.44  1.0000
  11  10   7   12946    2461     0.00000 0.00000 0.00000 0.00000 0.00000 0.00000    8559   34.32   -5.00  1.0000
  13  10   7    4170    2708     0.00000 0.00000 0.00000 0.00000 0.00000 0.00000    6645   29.15  -45.79  1.0000
  15  10   7   12161    3312     0.00000 0.00000 0.00000 0.00000 0.00000 0.00000   10083  -19.71   -2.87  1.0000
  17  10   7    6656    3870     0.00000 0.00000 0.00000 0.00000 0.00000 0.00000    5998   25.06    2.80  1.0000
  19  10   7   15135    4694     0.00000 0.00000 0.00000 0.00000 0.00000 0.00000   18982   15.53    2.01  1.0000
  21  10   7    3662    4817     0.00000 0.00000 0.00000 0.00000 0.00000 0.00000    2807   15.56    3.61  1.0000
  23  10   7    6749    5631     0.00000 0.00000 0.00000 0.00000 0.00000 0.00000    6609   -1.91   -0.02  1.0000
   2  11   7   60185    2278     0.00000 0.00000 0.00000 0.00000 0.00000 0.00000   46642  -23.89   18.77  1.0000
   4  11   7   36033    2152     0.00000 0.00000 0.00000 0.00000 0.00000 0.00000   31421    6.22  -11.14  1.0000
   6  11   7   12900    2371     0.00000 0.00000 0.00000 0.00000 0.00000 0.00000   18728   19.79  -12.82  1.0000
   8  11   7    6170    2427     0.00000 0.00000 0.00000 0.00000 0.00000 0.00000    5265   14.63   -1.42  1.0000
  10  11   7   18970    2441     0.00000 0.00000 0.00000 0.00000 0.00000 0.00000   13496  -35.25   -4.31  1.0000
  12  11   7   21705    2656     0.00000 0.00000 0.00000 0.00000 0.00000 0.00000   22119   -1.03    4.20  1.0000
  14  11   7    9653    3527     0.00000 0.00000 0.00000 0.00000 0.00000 0.00000   10340   -5.13   -8.91  1.0000
  16  11   7     920    3403     0.00000 0.00000 0.00000 0.00000 0.00000 0.00000   -2945   27.26   14.14  1.0000
  18  11   7    2304    4653     0.00000 0.00000 0.00000 0.00000 0.00000 0.00000    1189    5.86   34.30  1.0000
  20  11   7    5317    5141     0.00000 0.00000 0.00000 0.00000 0.00000 0.00000    5782   -2.87    1.38  1.0000
  22  11   7     125    5340     0.00000 0.00000 0.00000 0.00000 0.00000 0.00000    -179    8.67    7.30  1.0000
   3  12   7   11111    2128     0.00000 0.00000 0.00000 0.00000 0.00000 0.00000   10151   23.88   16.05  1.0000
   5  12   7    7407    2363     0.00000 0.00000 0.00000 0.00000 0.00000 0.00000    5852  -20.58  -12.32  1.0000
   7  12   7   11215    2340     0.00000 0.00000 0.00000 0.00000 0.00000 0.00000   10100  -42.13    8.64  1.0000
   9  12   7   26401    2515     0.00000 0.00000 0.00000 0.00000 0.00000 0.00000   25798  -28.15   16.75  1.0000
  11  12   7   21033    3223     0.00000 0.00000 0.00000 0.00000 0.00000 0.00000   21832    2.23    1.67  1.0000
  13  12   7    7196    3366     0.00000 0.00000 0.00000 0.00000 0.00000 0.00000    4530    9.04  -16.54  1.0000
  15  12   7    8680    3724     0.00000 0.00000 0.00000 0.00000 0.00000 0.00000    4887  -15.65   20.31  1.0000
  17  12   7    5228    4206     0.00000 0.00000 0.00000 0.00000 0.00000 0.00000    5451   -1.56    0.86  1.0000
  19  12   7    5316    6085     0.00000 0.00000 0.00000 0.00000 0.00000 0.00000    5102    3.68    4.22  1.0000
  21  12   7    1739    5600     0.00000 0.00000 0.00000 0.00000 0.00000 0.00000    1891    0.75   -8.11  1.0000
   2  13   7    1425    2240     0.00000 0.00000 0.00000 0.00000 0.00000 0.00000    4063  -35.63   -8.77  1.0000
   4  13   7    1364    2431     0.00000 0.00000 0.00000 0.00000 0.00000 0.00000     724  -23.48   12.02  1.0000
   6  13   7    6481    3041     0.00000 0.00000 0.00000 0.00000 0.00000 0.00000    5701   -8.78    4.81  1.0000
   8  13   7    5282    2631     0.00000 0.00000 0.00000 0.00000 0.00000 0.00000    3987   21.54  -14.12  1.0000
  10  13   7    5405    2997     0.00000 0.00000 0.00000 0.00000 0.00000 0.00000    5709  -29.09  -47.03  1.0000
  12  13   7   12550    3202     0.00000 0.00000 0.00000 0.00000 0.00000 0.00000    8717   -9.87  -17.80  1.0000
  14  13   7    1024    3782     0.00000 0.00000 0.00000 0.00000 0.00000 0.00000    -709  -31.90   -5.66  1.0000
  16  13   7     390    3977     0.00000 0.00000 0.00000 0.00000 0.00000 0.00000   -2361  -19.99   -0.29  1.0000
  18  13   7     848    5261     0.00000 0.00000 0.00000 0.00000 0.00000 0.00000   -5452    0.01   29.49  1.0000
  20  13   7      42    5831     0.00000 0.00000 0.00000 0.00000 0.00000 0.00000   -2022   -6.13    2.44  1.0000
  22  13   7     196   17273     0.00000 0.00000 0.00000 0.00000 0.00000 0.00000  -24365  -10.54   -9.50  1.0000
   1  14   7  121192    3894     0.00000 0.00000 0.00000 0.00000 0.00000 0.00000  123368    2.02   -2.48  1.0000
   3  14   7   44678    2809     0.00000 0.00000 0.00000 0.00000 0.00000 0.00000   57192   22.86   31.16  1.0000
   5  14   7   33538    2596     0.00000 0.00000 0.00000 0.00000 0.00000 0.00000   41985   -0.27  -24.73  1.0000
   7  14   7   14390    2824     0.00000 0.00000 0.00000 0.00000 0.00000 0.00000   17091   -4.09  -19.78  1.0000
   9  14   7   13265    2832     0.00000 0.00000 0.00000 0.00000 0.00000 0.00000   14586  -25.01   16.35  1.0000
  11  14   7    9892    3590     0.00000 0.00000 0.00000 0.00000 0.00000 0.00000   10860    7.36   -9.14  1.0000
  13  14   7    1121    3866     0.00000 0.00000 0.00000 0.00000 0.00000 0.00000   -2437   33.66   -3.96  1.0000
  15  14   7      83    4067     0.00000 0.00000 0.00000 0.00000 0.00000 0.00000   -3294    8.40    3.77  1.0000
  17  14   7      19    4428     0.00000 0.00000 0.00000 0.00000 0.00000 0.00000   -4337    0.99    4.26  1.0000
  19  14   7     168    5604     0.00000 0.00000 0.00000 0.00000 0.00000 0.00000   -1121   11.72   -5.95  1.0000
  21  14   7     758    6599     0.00000 0.00000 0.00000 0.00000 0.00000 0.00000   -5006    3.75  -27.63  1.0000
   2  15   7    6081    2461     0.00000 0.00000 0.00000 0.00000 0.00000 0.00000    7451    9.17    1.43  1.0000
   4  15   7    8138    2522     0.00000 0.00000 0.00000 0.00000 0.00000 0.00000    9975    3.79  -32.92  1.0000
   6  15   7    3147    2423     0.00000 0.00000 0.00000 0.00000 0.00000 0.00000    7526  -30.55    5.62  1.0000
   8  15   7   13566    2919     0.00000 0.00000 0.00000 0.00000 0.00000 0.00000   18124   -2.41  -18.79  1.0000
  10  15   7    7960    3247     0.00000 0.00000 0.00000 0.00000 0.00000 0.00000    7301   17.13   -3.87  1.0000
  12  15   7     616    4390     0.00000 0.00000 0.00000 0.00000 0.00000 0.00000   -2621   15.50   19.79  1.0000
  14  15   7      98    3975     0.00000 0.00000 0.00000 0.00000 0.00000 0.00000   -4510   -8.62    5.07  1.0000
  16  15   7     249    4689     0.00000 0.00000 0.00000 0.00000 0.00000 0.00000   -7034    6.31  -14.69  1.0000
  18  15   7     225    5679     0.00000 0.00000 0.00000 0.00000 0.00000 0.00000   -6937   -9.84  -11.57  1.0000
  20  15   7    1775    6666     0.00000 0.00000 0.00000 0.00000 0.00000 0.00000    1934    2.56    8.76  1.0000
   1  16   7   56091    2719     0.00000 0.00000 0.00000 0.00000 0.00000 0.00000   55901  -19.45  -22.73  1.0000
   3  16   7    7976    2568     0.00000 0.00000 0.00000 0.00000 0.00000 0.00000    4287   -3.14   24.22  1.0000
   5  16   7     168    2568     0.00000 0.00000 0.00000 0.00000 0.00000 0.00000   -1167   -5.27  -12.04  1.0000
   7  16   7     451    2658     0.00000 0.00000 0.00000 0.00000 0.00000 0.00000     151    7.24  -32.97  1.0000
   9  16   7     103    3211     0.00000 0.00000 0.00000 0.00000 0.00000 0.00000   -2766   -2.97    9.84  1.0000
  11  16   7     914    3850     0.00000 0.00000 0.00000 0.00000 0.00000 0.00000   -2442  -27.51   13.43  1.0000
  13  16   7     376    4122     0.00000 0.00000 0.00000 0.00000 0.00000 0.00000    -224   19.57   -1.37  1.0000
  15  16   7     301    4548     0.00000 0.00000 0.00000 0.00000 0.00000 0.00000   -5861   -7.12  -16.07  1.0000
  17  16   7      17    5608     0.00000 0.00000 0.00000 0.00000 0.00000 0.00000   -7785    4.00   -1.00  1.0000
  19  16   7      29    6210     0.00000 0.00000 0.00000 0.00000 0.00000 0.00000   -6686    4.87   -2.40  1.0000
   2  17   7   12694    2915     0.00000 0.00000 0.00000 0.00000 0.00000 0.00000   22039  -24.21   30.54  1.0000
   4  17   7   10948    3033     0.00000 0.00000 0.00000 0.00000 0.00000 0.00000   13150  -20.52  -29.41  1.0000
   6  17   7    3198    2760     0.00000 0.00000 0.00000 0.00000 0.00000 0.00000    1748    7.45  -14.28  1.0000
   8  17   7   15216    3204     0.00000 0.00000 0.00000 0.00000 0.00000 0.00000   11154  -23.41   -1.46  1.0000
  10  17   7    3371    3533     0.00000 0.00000 0.00000 0.00000 0.00000 0.00000    2946  -24.81    3.60  1.0000
  12  17   7       6    4274     0.00000 0.00000 0.00000 0.00000 0.00000 0.00000   -1361    2.41    0.69  1.0000
  14  17   7      28    4709     0.00000 0.00000 0.00000 0.00000 0.00000 0.00000   -2358   -0.39    5.33  1.0000
  16  17   7      26    5900     0.00000 0.00000 0.00000 0.00000 0.00000 0.00000   -8850   -5.12   -0.78  1.0000
  18  17   7     118    6112     0.00000 0.00000 0.00000 0.00000 0.00000 0.00000   -1581   -4.04   10.24  1.0000
   1  18   7    1606    2916     0.00000 0.00000 0.00000 0.00000 0.00000 0.00000    3400   22.37   27.85  1.0000
   3  18   7    6228    3193     0.00000 0.00000 0.00000 0.00000 0.00000 0.00000    9341   15.38    9.55  1.0000
   5  18   7     106    2932     0.00000 0.00000 0.00000 0.00000 0.00000 0.00000    1054   19.03   23.56  1.0000
   7  18   7     289    3055     0.00000 0.00000 0.00000 0.00000 0.00000 0.00000    1967   36.98   18.69  1.0000
   9  18   7    3465    3754     0.00000 0.00000 0.00000 0.00000 0.00000 0.00000    3007   39.56    7.85  1.0000
  11  18   7    3525    3946     0.00000 0.00000 0.00000 0.00000 0.00000 0.00000    1845   -6.13   34.58  1.0000
  13  18   7     861    4183     0.00000 0.00000 0.00000 0.00000 0.00000 0.00000   -5282   -0.75   29.70  1.0000
  15  18   7     233    4543     0.00000 0.00000 0.00000 0.00000 0.00000 0.00000   -2039   10.14  -11.66  1.0000
  17  18   7     123    5532     0.00000 0.00000 0.00000 0.00000 0.00000 0.00000   -8297    4.27   10.37  1.0000
   2  19   7    3408    3364     0.00000 0.00000 0.00000 0.00000 0.00000 0.00000    7176  -31.28   12.11  1.0000
   4  19   7    1921    3194     0.00000 0.00000 0.00000 0.00000 0.00000 0.00000    2515  -23.57  -32.33  1.0000
   6  19   7    5132    3370     0.00000 0.00000 0.00000 0.00000 0.00000 0.00000    5060    2.22   -2.93  1.0000
   8  19   7   11633    3596     0.00000 0.00000 0.00000 0.00000 0.00000 0.00000   13272  -12.30   -2.50  1.0000
  10  19   7   14775    4160     0.00000 0.00000 0.00000 0.00000 0.00000 0.00000   17568  -16.04    4.20  1.0000
  12  19   7    1599    4429     0.00000 0.00000 0.00000 0.00000 0.00000 0.00000    1383   -3.97    4.42  1.0000
  14  19   7    1482    4546     0.00000 0.00000 0.00000 0.00000 0.00000 0.00000    2493  -10.99   -5.73  1.0000
  16  19   7      31    5628     0.00000 0.00000 0.00000 0.00000 0.00000 0.00000   -6699   -5.33   -1.94  1.0000
   1  20   7    6084    4856     0.00000 0.00000 0.00000 0.00000 0.00000 0.00000   14432   37.21   56.43  1.0000
   3  20   7     311    3189     0.00000 0.00000 0.00000 0.00000 0.00000 0.00000    3494   32.29  -30.37  1.0000
   5  20   7      48    3443     0.00000 0.00000 0.00000 0.00000 0.00000 0.00000    1826  -15.16   36.07  1.0000
   7  20   7    1329    3885     0.00000 0.00000 0.00000 0.00000 0.00000 0.00000    5276  -49.48   -5.15  1.0000
   9  20   7      74    4022     0.00000 0.00000 0.00000 0.00000 0.00000 0.00000    -374    8.70    0.77  1.0000
  11  20   7       9    4436     0.00000 0.00000 0.00000 0.00000 0.00000 0.00000   -1771    3.03    0.64  1.0000
  13  20   7      44    5191     0.00000 0.00000 0.00000 0.00000 0.00000 0.00000   -1466    6.38    2.13  1.0000
  15  20   7    2618    5322     0.00000 0.00000 0.00000 0.00000 0.00000 0.00000    2854   -2.38    8.81  1.0000
   2  21   7     946    3078     0.00000 0.00000 0.00000 0.00000 0.00000 0.00000    7711   39.65  -42.74  1.0000
   4  21   7    4101    4576     0.00000 0.00000 0.00000 0.00000 0.00000 0.00000    9836   -9.26  -54.25  1.0000
   6  21   7    6219    3819     0.00000 0.00000 0.00000 0.00000 0.00000 0.00000    5068   -6.28   -7.52  1.0000
   8  21   7    9868    3858     0.00000 0.00000 0.00000 0.00000 0.00000 0.00000    9534    1.29   -9.28  1.0000
  10  21   7    3653    4537     0.00000 0.00000 0.00000 0.00000 0.00000 0.00000    3150  -15.08    3.23  1.0000
  12  21   7      66    4694     0.00000 0.00000 0.00000 0.00000 0.00000 0.00000   -1347   -0.88   -8.20  1.0000
  14  21   7     739    5098     0.00000 0.00000 0.00000 0.00000 0.00000 0.00000   -1170   -3.89  -27.25  1.0000
   1  22   7     928    3641     0.00000 0.00000 0.00000 0.00000 0.00000 0.00000    3469  -55.93   66.72  1.0000
   3  22   7    2042    3339     0.00000 0.00000 0.00000 0.00000 0.00000 0.00000    9370  -55.90   43.56  1.0000
   5  22   7     106    3695     0.00000 0.00000 0.00000 0.00000 0.00000 0.00000    1375   41.31   17.06  1.0000
   7  22   7    2084    4084     0.00000 0.00000 0.00000 0.00000 0.00000 0.00000    4020   17.88   10.56  1.0000
   9  22   7    1244    4683     0.00000 0.00000 0.00000 0.00000 0.00000 0.00000   -1530  -17.94   30.87  1.0000
  11  22   7     132    4692     0.00000 0.00000 0.00000 0.00000 0.00000 0.00000   -2313   -9.12    7.21  1.0000
  13  22   7     210    6854     0.00000 0.00000 0.00000 0.00000 0.00000 0.00000  -10280   10.85   -9.87  1.0000
   2  23   7    6427    3915     0.00000 0.00000 0.00000 0.00000 0.00000 0.00000    7517  -15.51  -20.60  1.0000
   4  23   7    3335    3843     0.00000 0.00000 0.00000 0.00000 0.00000 0.00000    4073  -18.77   43.01  1.0000
   6  23   7    5367    4179     0.00000 0.00000 0.00000 0.00000 0.00000 0.00000    4865   12.49    6.54  1.0000
   8  23   7    8133    4420     0.00000 0.00000 0.00000 0.00000 0.00000 0.00000    8517    6.93    2.78  1.0000
  10  23   7    9786    5018     0.00000 0.00000 0.00000 0.00000 0.00000 0.00000    9518    2.12    0.60  1.0000
   1  24   7    6079    4681     0.00000 0.00000 0.00000 0.00000 0.00000 0.00000   13508    0.38  -41.60  1.0000
   3  24   7   10592    4297     0.00000 0.00000 0.00000 0.00000 0.00000 0.00000   10584  -24.25  -35.79  1.0000
   5  24   7    1727    4131     0.00000 0.00000 0.00000 0.00000 0.00000 0.00000    6475  -24.60  -32.15  1.0000
   7  24   7     866    4380     0.00000 0.00000 0.00000 0.00000 0.00000 0.00000     447   47.22   12.32  1.0000
   2  25   7    1161    4820     0.00000 0.00000 0.00000 0.00000 0.00000 0.00000    2681   31.26   19.08  1.0000
   4  25   7    4583    5110     0.00000 0.00000 0.00000 0.00000 0.00000 0.00000   15763   28.85   51.03  1.0000
   0   0   8   30190    2870     0.00000 0.00000 0.00000 0.00000 0.00000 0.00000   28263   -4.79   -3.11  1.0000
   2   0   8  126776    4709     0.00000 0.00000 0.00000 0.00000 0.00000 0.00000  124838    3.98 -113.66  1.0000
   4   0   8  149588    5685     0.00000 0.00000 0.00000 0.00000 0.00000 0.00000   54346 -138.15 -107.76  1.0000
   6   0   8   71373    7324     0.00000 0.00000 0.00000 0.00000 0.00000 0.00000   49756   42.90  -16.89  1.0000
   8   0   8   46204    4710     0.00000 0.00000 0.00000 0.00000 0.00000 0.00000   58094  -27.74  -17.81  1.0000
  10   0   8     556    2133     0.00000 0.00000 0.00000 0.00000 0.00000 0.00000    1223  -48.42   30.80  1.0000
  12   0   8   13550    2919     0.00000 0.00000 0.00000 0.00000 0.00000 0.00000    8149   14.15   26.60  1.0000
  14   0   8  112539    5236     0.00000 0.00000 0.00000 0.00000 0.00000 0.00000  105938  -16.53  -29.66  1.0000
  16   0   8   85158    6877     0.00000 0.00000 0.00000 0.00000 0.00000 0.00000   79694   -1.73   56.93  1.0000
  18   0   8    1424    4013     0.00000 0.00000 0.00000 0.00000 0.00000 0.00000    4781   37.18    7.41  1.0000
  20   0   8   76400    7258     0.00000 0.00000 0.00000 0.00000 0.00000 0.00000   60052   31.47   46.06  1.0000
  22   0   8   23713    6558     0.00000 0.00000 0.00000 0.00000 0.00000 0.00000   25217   33.97  -21.83  1.0000
  24   0   8   25863   10051     0.00000 0.00000 0.00000 0.00000 0.00000 0.00000   20033   13.48  -14.61  1.0000
   1   1   8   10721    1133     0.00000 0.00000 0.00000 0.00000 0.00000 0.00000   -1149  104.64   -6.35  1.0000
   3   1   8   54746    1649     0.00000 0.00000 0.00000 0.00000 0.00000 0.00000   18769   75.00  -68.06  1.0000
   5   1   8   70086    4628     0.00000 0.00000 0.00000 0.00000 0.00000 0.00000   59591   84.43  -42.32  1.0000
   7   1   8   79506    4758     0.00000 0.00000 0.00000 0.00000 0.00000 0.00000   82522   -6.14   -3.11  1.0000
   9   1   8   15611    1552     0.00000 0.00000 0.00000 0.00000 0.00000 0.00000   14972   -1.36   14.89  1.0000
  11   1   8   42341    2379     0.00000 0.00000 0.00000 0.00000 0.00000 0.00000   50284  -18.69    5.40  1.0000
  13   1   8   65402    3360     0.00000 0.00000 0.00000 0.00000 0.00000 0.00000   73191    4.26  -35.02  1.0000
  15   1   8   21991    2423     0.00000 0.00000 0.00000 0.00000 0.00000 0.00000   22014   -0.27    2.15  1.0000
  17   1   8    7246    3193     0.00000 0.00000 0.00000 0.00000 0.00000 0.00000    5676   -8.59   14.17  1.0000
  19   1   8   13515    3753     0.00000 0.00000 0.00000 0.00000 0.00000 0.00000   14952  -13.51  -42.89  1.0000
  21   1   8    7357    4012     0.00000 0.00000 0.00000 0.00000 0.00000 0.00000    9095  -29.14   74.64  1.0000
  23   1   8     754    4355     0.00000 0.00000 0.00000 0.00000 0.00000 0.00000    6144  -36.22   51.48  1.0000
  25   1   8    4195    5237     0.00000 0.00000 0.00000 0.00000 0.00000 0.00000   11326    7.77   48.28  1.0000
   0   2   8  125242    5500     0.00000 0.00000 0.00000 0.00000 0.00000 0.00000  120326    4.16  113.54  1.0000
   2   2   8 1343450   25788     0.00000 0.00000 0.00000 0.00000 0.00000 0.00000 1053958  134.39    1.07  1.0000
   4   2   8   25239    2265     0.00000 0.00000 0.00000 0.00000 0.00000 0.00000   36667   37.30   -3.03  1.0000
   6   2   8   20687    3031     0.00000 0.00000 0.00000 0.00000 0.00000 0.00000   29940  -51.50   -5.46  1.0000
   8   2   8   31914    2550     0.00000 0.00000 0.00000 0.00000 0.00000 0.00000   34048    6.93  -13.53  1.0000
  10   2   8     474    1817     0.00000 0.00000 0.00000 0.00000 0.00000 0.00000    1294  -15.42    3.07  1.0000
  12   2   8    7680    2635     0.00000 0.00000 0.00000 0.00000 0.00000 0.00000    5967    9.89    6.96  1.0000
  14   2   8   13620    2558     0.00000 0.00000 0.00000 0.00000 0.00000 0.00000    8747  -25.66   -4.42  1.0000
  16   2   8    1372    3788     0.00000 0.00000 0.00000 0.00000 0.00000 0.00000    8799  -59.98    2.85  1.0000
  18   2   8   34222    3325     0.00000 0.00000 0.00000 0.00000 0.00000 0.00000   35463   11.08   -8.24  1.0000
  20   2   8    6595    3592     0.00000 0.00000 0.00000 0.00000 0.00000 0.00000   10957   21.70   16.95  1.0000
  22   2   8   46843    4184     0.00000 0.00000 0.00000 0.00000 0.00000 0.00000   43680    3.92  -62.74  1.0000
  24   2   8    1588    4687     0.00000 0.00000 0.00000 0.00000 0.00000 0.00000   12918  -29.35  -74.26  1.0000
   1   3   8   52987    1817     0.00000 0.00000 0.00000 0.00000 0.00000 0.00000   19216   77.61   64.47  1.0000
   3   3   8    2245    3225     0.00000 0.00000 0.00000 0.00000 0.00000 0.00000    3621  -20.01    1.55  1.0000
   5   3   8   94219    5419     0.00000 0.00000 0.00000 0.00000 0.00000 0.00000   62022  -60.28   33.94  1.0000
   7   3   8    6129    3537     0.00000 0.00000 0.00000 0.00000 0.00000 0.00000   23529  -89.01   19.09  1.0000
   9   3   8   25817    1789     0.00000 0.00000 0.00000 0.00000 0.00000 0.00000   33139   18.93   10.49  1.0000
  11   3   8   16964    1976     0.00000 0.00000 0.00000 0.00000 0.00000 0.00000   21956   -6.34  -19.08  1.0000
  13   3   8   19894    2233     0.00000 0.00000 0.00000 0.00000 0.00000 0.00000   25199  -13.44   34.75  1.0000
  15   3   8     836    2443     0.00000 0.00000 0.00000 0.00000 0.00000 0.00000    6397   48.81  -17.92  1.0000
  17   3   8   10928    3284     0.00000 0.00000 0.00000 0.00000 0.00000 0.00000    7745  -17.59   -2.38  1.0000
  19   3   8   12944    4005     0.00000 0.00000 0.00000 0.00000 0.00000 0.00000    9363    4.39  -36.31  1.0000
  21   3   8    4726    3797     0.00000 0.00000 0.00000 0.00000 0.00000 0.00000   10915   29.91   44.51  1.0000
  23   3   8    5364    4318     0.00000 0.00000 0.00000 0.00000 0.00000 0.00000    9190   -2.43   35.40  1.0000
  25   3   8    9053    5052     0.00000 0.00000 0.00000 0.00000 0.00000 0.00000   11186   19.64   75.96  1.0000
   0   4   8  151667    4480     0.00000 0.00000 0.00000 0.00000 0.00000 0.00000   50333 -137.11  110.17  1.0000
   2   4   8   18844    3721     0.00000 0.00000 0.00000 0.00000 0.00000 0.00000   29971   37.52    3.14  1.0000
   4   4   8  235007   20997     0.00000 0.00000 0.00000 0.00000 0.00000 0.00000  626053  310.50   -0.27  1.0000
   8   4   8   16099    1704     0.00000 0.00000 0.00000 0.00000 0.00000 0.00000   15626   -2.73   50.94  1.0000
  10   4   8    5804    1802     0.00000 0.00000 0.00000 0.00000 0.00000 0.00000    6380   12.95   14.38  1.0000
  12   4   8    9602    2109     0.00000 0.00000 0.00000 0.00000 0.00000 0.00000   11086   28.80  -40.13  1.0000
  14   4   8   52488    3401     0.00000 0.00000 0.00000 0.00000 0.00000 0.00000   54827    2.77    8.71  1.0000
  16   4   8    3687    2857     0.00000 0.00000 0.00000 0.00000 0.00000 0.00000    2239   37.29  -16.84  1.0000
  18   4   8    1477    3422     0.00000 0.00000 0.00000 0.00000 0.00000 0.00000    8010   52.08    5.82  1.0000
  20   4   8   13100    3916     0.00000 0.00000 0.00000 0.00000 0.00000 0.00000    9595   17.11    0.66  1.0000
  22   4   8   12595    4738     0.00000 0.00000 0.00000 0.00000 0.00000 0.00000    6226   16.35   32.79  1.0000
  24   4   8    9464    4825     0.00000 0.00000 0.00000 0.00000 0.00000 0.00000   16646  -38.74  -16.34  1.0000
   1   5   8   65461    5610     0.00000 0.00000 0.00000 0.00000 0.00000 0.00000   61592   82.42   41.80  1.0000
   3   5   8   96405    8999     0.00000 0.00000 0.00000 0.00000 0.00000 0.00000   61742  -59.91  -35.44  1.0000
   5   5   8    2944    5083     0.00000 0.00000 0.00000 0.00000 0.00000 0.00000    4260   11.04    2.89  1.0000
   7   5   8    1632    1580     0.00000 0.00000 0.00000 0.00000 0.00000 0.00000    2017   -5.65   -2.50  1.0000
   9   5   8   34015    2277     0.00000 0.00000 0.00000 0.00000 0.00000 0.00000   34790  -43.69   22.53  1.0000
  11   5   8     150    3014     0.00000 0.00000 0.00000 0.00000 0.00000 0.00000     161   -6.38   -3.00  1.0000
  13   5   8    3601    2442     0.00000 0.00000 0.00000 0.00000 0.00000 0.00000    5119    0.47  -13.63  1.0000
  15   5   8    1298    2844     0.00000 0.00000 0.00000 0.00000 0.00000 0.00000     626    3.14  -26.04  1.0000
  17   5   8    2690    3385     0.00000 0.00000 0.00000 0.00000 0.00000 0.00000    7891  -46.01   13.79  1.0000
  19   5   8   13531    3972     0.00000 0.00000 0.00000 0.00000 0.00000 0.00000   12355    4.10   14.53  1.0000
  21   5   8   19550    4442     0.00000 0.00000 0.00000 0.00000 0.00000 0.00000   16669   15.24   -5.38  1.0000
  23   5   8    2918    4982     0.00000 0.00000 0.00000 0.00000 0.00000 0.00000    7304   -6.07  -33.95  1.0000
   0   6   8   60822    5069     0.00000 0.00000 0.00000 0.00000 0.00000 0.00000   43043   43.72   15.55  1.0000
   2   6   8   21504    4096     0.00000 0.00000 0.00000 0.00000 0.00000 0.00000   30133  -52.35    4.40  1.0000
   6   6   8     692    1569     0.00000 0.00000 0.00000 0.00000 0.00000 0.00000    -268  -26.63    0.45  1.0000
   8   6   8    7579    1921     0.00000 0.00000 0.00000 0.00000 0.00000 0.00000   13169  -11.10  -32.15  1.0000
  10   6   8    1189    2220     0.00000 0.00000 0.00000 0.00000 0.00000 0.00000     741  -30.34    7.98  1.0000
  12   6   8    3277    2269     0.00000 0.00000 0.00000 0.00000 0.00000 0.00000    3694    7.48  -13.28  1.0000
  14   6   8    3769    2492     0.00000 0.00000 0.00000 0.00000 0.00000 0.00000    7784  -27.56    1.41  1.0000
  16   6   8     414    3116     0.00000 0.00000 0.00000 0.00000 0.00000 0.00000    2121  -23.88   20.99  1.0000
  18   6   8    2001    3819     0.00000 0.00000 0.00000 0.00000 0.00000 0.00000    5504   -3.78   51.75  1.0000
  20   6   8    9290    4158     0.00000 0.00000 0.00000 0.00000 0.00000 0.00000    9349   11.00  -22.45  1.0000
  22   6   8    3333    4828     0.00000 0.00000 0.00000 0.00000 0.00000 0.00000    1835  -11.23  -21.79  1.0000
  24   6   8     171    5304     0.00000 0.00000 0.00000 0.00000 0.00000 0.00000    3241  -47.20  -12.36  1.0000
   1   7   8   70220    5254     0.00000 0.00000 0.00000 0.00000 0.00000 0.00000   72516   -7.24    4.20  1.0000
   5   7   8    3064    1647     0.00000 0.00000 0.00000 0.00000 0.00000 0.00000    3244   -4.13    2.01  1.0000
   7   7   8    1023    1791     0.00000 0.00000 0.00000 0.00000 0.00000 0.00000     506   -9.80   -2.90  1.0000
   9   7   8     253    2112     0.00000 0.00000 0.00000 0.00000 0.00000 0.00000     380  -18.85   10.57  1.0000
  11   7   8     185    2317     0.00000 0.00000 0.00000 0.00000 0.00000 0.00000   -2104  -12.74    5.19  1.0000
  13   7   8    5230    2297     0.00000 0.00000 0.00000 0.00000 0.00000 0.00000    9083  -17.53  -31.90  1.0000
  15   7   8    3830    3337     0.00000 0.00000 0.00000 0.00000 0.00000 0.00000    3021   -9.29    3.61  1.0000
  17   7   8    3490    3790     0.00000 0.00000 0.00000 0.00000 0.00000 0.00000    7576   21.83   18.38  1.0000
  19   7   8    8221    4119     0.00000 0.00000 0.00000 0.00000 0.00000 0.00000   10210    9.23    7.49  1.0000
  21   7   8   22464    5338     0.00000 0.00000 0.00000 0.00000 0.00000 0.00000   21521  -18.12   19.75  1.0000
  23   7   8   11518    6308     0.00000 0.00000 0.00000 0.00000 0.00000 0.00000   19266   26.23   33.15  1.0000
   0   8   8   45322    3298     0.00000 0.00000 0.00000 0.00000 0.00000 0.00000   56620  -28.20   18.91  1.0000
   2   8   8   31323    2154     0.00000 0.00000 0.00000 0.00000 0.00000 0.00000   34827    7.02   13.66  1.0000
   4   8   8   15765    1763     0.00000 0.00000 0.00000 0.00000 0.00000 0.00000   17653   -1.98  -53.14  1.0000
   6   8   8    8791    1966     0.00000 0.00000 0.00000 0.00000 0.00000 0.00000   15111  -11.44   33.08  1.0000
   8   8   8    3085    1873     0.00000 0.00000 0.00000 0.00000 0.00000 0.00000    3848   -6.49   -1.01  1.0000
  10   8   8     361    2292     0.00000 0.00000 0.00000 0.00000 0.00000 0.00000      89    6.16  -19.86  1.0000
  12   8   8     992    2259     0.00000 0.00000 0.00000 0.00000 0.00000 0.00000   -1803   -5.54   31.40  1.0000
  14   8   8     880    2726     0.00000 0.00000 0.00000 0.00000 0.00000 0.00000    1972   12.14   -9.64  1.0000
  16   8   8    5885    3651     0.00000 0.00000 0.00000 0.00000 0.00000 0.00000   12593   45.10  -18.69  1.0000
  18   8   8    3363    4152     0.00000 0.00000 0.00000 0.00000 0.00000 0.00000    1615   13.90   25.76  1.0000
  20   8   8    2527    4597     0.00000 0.00000 0.00000 0.00000 0.00000 0.00000    8186  -39.98   24.40  1.0000
  22   8   8    1281    5573     0.00000 0.00000 0.00000 0.00000 0.00000 0.00000    4543  -12.89  -30.14  1.0000
  24   8   8    1518    6126     0.00000 0.00000 0.00000 0.00000 0.00000 0.00000    3562   -3.39   21.41  1.0000
   1   9   8   16126    1935     0.00000 0.00000 0.00000 0.00000 0.00000 0.00000   13705   -0.94  -15.68  1.0000
   3   9   8   30177    2343     0.00000 0.00000 0.00000 0.00000 0.00000 0.00000   37484   19.10   -8.70  1.0000
   5   9   8   34176    2314     0.00000 0.00000 0.00000 0.00000 0.00000 0.00000   35578  -42.15  -22.07  1.0000
   7   9   8     884    1975     0.00000 0.00000 0.00000 0.00000 0.00000 0.00000    1527  -18.09   -7.83  1.0000
   9   9   8    5481    2297     0.00000 0.00000 0.00000 0.00000 0.00000 0.00000    4211    8.45    4.78  1.0000
  11   9   8     871    2278     0.00000 0.00000 0.00000 0.00000 0.00000 0.00000    -401  -16.11  -25.17  1.0000
  13   9   8    1356    2462     0.00000 0.00000 0.00000 0.00000 0.00000 0.00000    2257  -22.99    9.59  1.0000
  15   9   8    5497    2988     0.00000 0.00000 0.00000 0.00000 0.00000 0.00000    5421  -10.74   17.53  1.0000
  17   9   8    1692    3989     0.00000 0.00000 0.00000 0.00000 0.00000 0.00000    3667   -4.57  -25.72  1.0000
  19   9   8   15150    4654     0.00000 0.00000 0.00000 0.00000 0.00000 0.00000   17023   -7.94   -1.18  1.0000
  21   9   8   12647    4644     0.00000 0.00000 0.00000 0.00000 0.00000 0.00000    9523    5.69   28.62  1.0000
  23   9   8    8860    5873     0.00000 0.00000 0.00000 0.00000 0.00000 0.00000    9239   -4.68    5.42  1.0000
   0  10   8    3246    2480     0.00000 0.00000 0.00000 0.00000 0.00000 0.00000   -1304  -49.93  -28.89  1.0000
   2  10   8     217    1601     0.00000 0.00000 0.00000 0.00000 0.00000 0.00000     494  -14.78   -2.47  1.0000
   4  10   8   11031    1865     0.00000 0.00000 0.00000 0.00000 0.00000 0.00000   12855   15.69  -17.43  1.0000
   6  10   8    3934    2196     0.00000 0.00000 0.00000 0.00000 0.00000 0.00000    3613  -28.84   -8.95  1.0000
   8  10   8    4754    2449     0.00000 0.00000 0.00000 0.00000 0.00000 0.00000    5183    6.66   19.94  1.0000
  10  10   8     675    2217     0.00000 0.00000 0.00000 0.00000 0.00000 0.00000    -220  -26.30    0.17  1.0000
  12  10   8     742    2540     0.00000 0.00000 0.00000 0.00000 0.00000 0.00000    1178    7.31    6.31  1.0000
  14  10   8    1852    2975     0.00000 0.00000 0.00000 0.00000 0.00000 0.00000    3090   13.72   -9.51  1.0000
  16  10   8    1716    3673     0.00000 0.00000 0.00000 0.00000 0.00000 0.00000    5189  -23.45   22.03  1.0000
  18  10   8    3598    4438     0.00000 0.00000 0.00000 0.00000 0.00000 0.00000    5145  -22.39   11.76  1.0000
  20  10   8     718    5684     0.00000 0.00000 0.00000 0.00000 0.00000 0.00000   -5386  -21.46   16.60  1.0000
  22  10   8    1209    4947     0.00000 0.00000 0.00000 0.00000 0.00000 0.00000    3501   -4.68  -25.59  1.0000
   1  11   8   39668    2469     0.00000 0.00000 0.00000 0.00000 0.00000 0.00000   48020  -19.02   -6.85  1.0000
   3  11   8   16659    2030     0.00000 0.00000 0.00000 0.00000 0.00000 0.00000   20846   -5.55   20.40  1.0000
   5  11   8      59    2148     0.00000 0.00000 0.00000 0.00000 0.00000 0.00000    -473   -7.11    3.22  1.0000
   7  11   8     283    2907     0.00000 0.00000 0.00000 0.00000 0.00000 0.00000      69  -12.86   -6.42  1.0000
   9  11   8    3592    2229     0.00000 0.00000 0.00000 0.00000 0.00000 0.00000     911  -15.99   25.84  1.0000
  11  11   8    3168    2593     0.00000 0.00000 0.00000 0.00000 0.00000 0.00000    5254   16.37   -1.88  1.0000
  13  11   8    3343    3056     0.00000 0.00000 0.00000 0.00000 0.00000 0.00000    5741    3.22   17.97  1.0000
  15  11   8     991    3165     0.00000 0.00000 0.00000 0.00000 0.00000 0.00000   -3015   31.43   -5.26  1.0000
  17  11   8      37    4095     0.00000 0.00000 0.00000 0.00000 0.00000 0.00000     943   24.96    0.36  1.0000
  19  11   8    9772    4858     0.00000 0.00000 0.00000 0.00000 0.00000 0.00000   11602    9.66    1.83  1.0000
  21  11   8    8818    4933     0.00000 0.00000 0.00000 0.00000 0.00000 0.00000    9278   -2.67  -22.17  1.0000
   0  12   8   11747    3367     0.00000 0.00000 0.00000 0.00000 0.00000 0.00000    6984   14.10  -26.76  1.0000
   2  12   8   10869    2077     0.00000 0.00000 0.00000 0.00000 0.00000 0.00000    9634    9.23   -8.30  1.0000
   4  12   8   12566    2298     0.00000 0.00000 0.00000 0.00000 0.00000 0.00000   14644   27.82   39.15  1.0000
   6  12   8    9846    2671     0.00000 0.00000 0.00000 0.00000 0.00000 0.00000   10523    5.33   11.60  1.0000
   8  12   8    2239    2746     0.00000 0.00000 0.00000 0.00000 0.00000 0.00000    6040   -7.35  -30.66  1.0000
  10  12   8    5552    2566     0.00000 0.00000 0.00000 0.00000 0.00000 0.00000    6712    4.15   -6.92  1.0000
  12  12   8    1483    4352     0.00000 0.00000 0.00000 0.00000 0.00000 0.00000    3483   20.70   -1.84  1.0000
  14  12   8    3420    3820     0.00000 0.00000 0.00000 0.00000 0.00000 0.00000    3378    3.22    0.40  1.0000
  16  12   8     487    3568     0.00000 0.00000 0.00000 0.00000 0.00000 0.00000   -1015   11.15   19.37  1.0000
  18  12   8    2602    4325     0.00000 0.00000 0.00000 0.00000 0.00000 0.00000    1858    5.33  -12.81  1.0000
  20  12   8      76    5046     0.00000 0.00000 0.00000 0.00000 0.00000 0.00000   -1238    2.54    8.43  1.0000
  22  12   8    2706    5779     0.00000 0.00000 0.00000 0.00000 0.00000 0.00000    6406   27.91    5.78  1.0000
   1  13   8   62388    3210     0.00000 0.00000 0.00000 0.00000 0.00000 0.00000   73432    4.76   34.21  1.0000
   3  13   8   24672    2426     0.00000 0.00000 0.00000 0.00000 0.00000 0.00000   29095  -11.81  -33.45  1.0000
   5  13   8    4648    2594     0.00000 0.00000 0.00000 0.00000 0.00000 0.00000    6767   -0.84   15.06  1.0000
   7  13   8    8408    2554     0.00000 0.00000 0.00000 0.00000 0.00000 0.00000   10641  -16.41   35.40  1.0000
   9  13   8    1955    2566     0.00000 0.00000 0.00000 0.00000 0.00000 0.00000    2736  -22.82  -10.95  1.0000
  11  13   8     805    3795     0.00000 0.00000 0.00000 0.00000 0.00000 0.00000    2084    3.04  -17.25  1.0000
  13  13   8     181    3424     0.00000 0.00000 0.00000 0.00000 0.00000 0.00000   -5136  -13.50    1.84  1.0000
  15  13   8     214    4130     0.00000 0.00000 0.00000 0.00000 0.00000 0.00000   -2677    8.95   11.78  1.0000
  17  13   8     287    4993     0.00000 0.00000 0.00000 0.00000 0.00000 0.00000   -6173   11.89  -12.35  1.0000
  19  13   8    3344    5452     0.00000 0.00000 0.00000 0.00000 0.00000 0.00000    3361    3.01   -9.00  1.0000
  21  13   8     270    5892     0.00000 0.00000 0.00000 0.00000 0.00000 0.00000     495  -11.31    6.21  1.0000
   0  14   8  116088    4623     0.00000 0.00000 0.00000 0.00000 0.00000 0.00000  113273  -17.42   29.56  1.0000
   2  14   8   19180    2372     0.00000 0.00000 0.00000 0.00000 0.00000 0.00000   12891  -24.63    7.30  1.0000
   4  14   8   50662    2698     0.00000 0.00000 0.00000 0.00000 0.00000 0.00000   52192    2.44   -8.30  1.0000
   6  14   8    5515    2519     0.00000 0.00000 0.00000 0.00000 0.00000 0.00000   10012  -27.91   -1.62  1.0000
   8  14   8      22    2746     0.00000 0.00000 0.00000 0.00000 0.00000 0.00000     151   12.32    9.83  1.0000
  10  14   8    4673    3304     0.00000 0.00000 0.00000 0.00000 0.00000 0.00000    6700   12.73   10.02  1.0000
  12  14   8      24    3423     0.00000 0.00000 0.00000 0.00000 0.00000 0.00000    -701    4.86   -0.97  1.0000
  14  14   8      43    3772     0.00000 0.00000 0.00000 0.00000 0.00000 0.00000   -5659    6.63    0.15  1.0000
  16  14   8     358    4834     0.00000 0.00000 0.00000 0.00000 0.00000 0.00000   -1814   18.88    3.16  1.0000
  18  14   8     342    5412     0.00000 0.00000 0.00000 0.00000 0.00000 0.00000   -8118   16.06   -9.62  1.0000
  20  14   8    1809    5745     0.00000 0.00000 0.00000 0.00000 0.00000 0.00000    2776  -14.29   12.94  1.0000
   1  15   8   16526    2907     0.00000 0.00000 0.00000 0.00000 0.00000 0.00000   16640    0.17   -3.60  1.0000
   3  15   8     769    2494     0.00000 0.00000 0.00000 0.00000 0.00000 0.00000    2282   48.45   18.60  1.0000
   5  15   8     629    2565     0.00000 0.00000 0.00000 0.00000 0.00000 0.00000    -409    2.31   25.28  1.0000
   7  15   8      88    2737     0.00000 0.00000 0.00000 0.00000 0.00000 0.00000    -689   -8.48   -4.32  1.0000
   9  15   8     475    3036     0.00000 0.00000 0.00000 0.00000 0.00000 0.00000   -4553  -11.02  -19.12  1.0000
  11  15   8     733    5422     0.00000 0.00000 0.00000 0.00000 0.00000 0.00000     882   31.35    5.05  1.0000
  13  15   8     228    4006     0.00000 0.00000 0.00000 0.00000 0.00000 0.00000   -6009    9.11  -12.26  1.0000
  15  15   8     330    4133     0.00000 0.00000 0.00000 0.00000 0.00000 0.00000    2914  -36.45   -0.08  1.0000
  17  15   8       9    5470     0.00000 0.00000 0.00000 0.00000 0.00000 0.00000   -8204   -1.92   -2.30  1.0000
  19  15   8      76    5799     0.00000 0.00000 0.00000 0.00000 0.00000 0.00000   -1993   -8.82   -0.62  1.0000
   0  16   8   87017    5256     0.00000 0.00000 0.00000 0.00000 0.00000 0.00000   87533   -1.49  -58.56  1.0000
   2  16   8    3620    2553     0.00000 0.00000 0.00000 0.00000 0.00000 0.00000    9804  -60.13   -0.60  1.0000
   4  16   8    4487    2603     0.00000 0.00000 0.00000 0.00000 0.00000 0.00000    2355   37.32   16.67  1.0000
   6  16   8     307    2550     0.00000 0.00000 0.00000 0.00000 0.00000 0.00000     257  -23.44  -21.33  1.0000
   8  16   8    4990    2894     0.00000 0.00000 0.00000 0.00000 0.00000 0.00000   12290   44.63   17.31  1.0000
  10  16   8    1029    3497     0.00000 0.00000 0.00000 0.00000 0.00000 0.00000   -4725  -23.17  -22.75  1.0000
  12  16   8     458    3806     0.00000 0.00000 0.00000 0.00000 0.00000 0.00000   -5710   11.47  -18.38  1.0000
  14  16   8     363    4380     0.00000 0.00000 0.00000 0.00000 0.00000 0.00000   -4296   19.09   -2.82  1.0000
  16  16   8       3    5907     0.00000 0.00000 0.00000 0.00000 0.00000 0.00000   -8683   -1.83   -0.08  1.0000
  18  16   8      47    5597     0.00000 0.00000 0.00000 0.00000 0.00000 0.00000   -8023   -1.86    6.71  1.0000
   1  17   8    2411    2681     0.00000 0.00000 0.00000 0.00000 0.00000 0.00000    1323   -8.38  -14.14  1.0000
   3  17   8   15722    3052     0.00000 0.00000 0.00000 0.00000 0.00000 0.00000   11675  -17.54    2.15  1.0000
   5  17   8    5485    2909     0.00000 0.00000 0.00000 0.00000 0.00000 0.00000   13867  -46.16  -14.10  1.0000
   7  17   8      16    2729     0.00000 0.00000 0.00000 0.00000 0.00000 0.00000     671   22.54  -17.00  1.0000
   9  17   8     796    3329     0.00000 0.00000 0.00000 0.00000 0.00000 0.00000   -3651   -4.23   28.25  1.0000
  11  17   8     708    3911     0.00000 0.00000 0.00000 0.00000 0.00000 0.00000    2151   24.96   -2.90  1.0000
  13  17   8     267    3925     0.00000 0.00000 0.00000 0.00000 0.00000 0.00000   -3373   11.78   11.61  1.0000
  15  17   8       9    4821     0.00000 0.00000 0.00000 0.00000 0.00000 0.00000   -4477   -2.23    2.05  1.0000
  17  17   8       1    6368     0.00000 0.00000 0.00000 0.00000 0.00000 0.00000   -6870   -1.18    0.15  1.0000
   0  18   8    1064    4978     0.00000 0.00000 0.00000 0.00000 0.00000 0.00000    3931   37.56   -7.63  1.0000
   2  18   8   32200    3088     0.00000 0.00000 0.00000 0.00000 0.00000 0.00000   35266   10.19    6.92  1.0000
   4  18   8     278    3075     0.00000 0.00000 0.00000 0.00000 0.00000 0.00000    2883   52.43   -4.99  1.0000
   6  18   8    2051    3142     0.00000 0.00000 0.00000 0.00000 0.00000 0.00000    1906   -3.20  -51.91  1.0000
   8  18   8     865    3467     0.00000 0.00000 0.00000 0.00000 0.00000 0.00000   -2210   14.97  -25.74  1.0000
  10  18   8     638    3760     0.00000 0.00000 0.00000 0.00000 0.00000 0.00000   -3248  -22.73  -11.74  1.0000
  12  18   8     213    4103     0.00000 0.00000 0.00000 0.00000 0.00000 0.00000   -3453    5.81   13.60  1.0000
  14  18   8     324    4342     0.00000 0.00000 0.00000 0.00000 0.00000 0.00000   -3743   15.62    9.39  1.0000
  16  18   8      53    5580     0.00000 0.00000 0.00000 0.00000 0.00000 0.00000   -8370   -2.57   -6.89  1.0000
  18  18   8    1805   16653     0.00000 0.00000 0.00000 0.00000 0.00000 0.00000  -22088   43.01   -0.22  1.0000
   1  19   8   10199    3331     0.00000 0.00000 0.00000 0.00000 0.00000 0.00000    9992  -13.84   45.16  1.0000
   3  19   8    5646    3200     0.00000 0.00000 0.00000 0.00000 0.00000 0.00000    4850    5.36   38.23  1.0000
   5  19   8    4805    3038     0.00000 0.00000 0.00000 0.00000 0.00000 0.00000    4794    3.87  -13.59  1.0000
   7  19   8   10747    3139     0.00000 0.00000 0.00000 0.00000 0.00000 0.00000   11815    8.46   -8.33  1.0000
   9  19   8    8504    3929     0.00000 0.00000 0.00000 0.00000 0.00000 0.00000   10122   -8.36    1.60  1.0000
  11  19   8    5701    4085     0.00000 0.00000 0.00000 0.00000 0.00000 0.00000    7127    8.60   -2.95  1.0000
  13  19   8    4298    4455     0.00000 0.00000 0.00000 0.00000 0.00000 0.00000    3736    3.45   10.86  1.0000
  15  19   8      82    5514     0.00000 0.00000 0.00000 0.00000 0.00000 0.00000    -503   -9.19    0.35  1.0000
   0  20   8   67344    6192     0.00000 0.00000 0.00000 0.00000 0.00000 0.00000   62847   30.58  -46.61  1.0000
   2  20   8    5838    3165     0.00000 0.00000 0.00000 0.00000 0.00000 0.00000    8739   21.57  -16.83  1.0000
   4  20   8    6968    3654     0.00000 0.00000 0.00000 0.00000 0.00000 0.00000    4685   17.25   -2.41  1.0000
   6  20   8    5549    3362     0.00000 0.00000 0.00000 0.00000 0.00000 0.00000    7271   10.50   21.87  1.0000
   8  20   8    2053    3952     0.00000 0.00000 0.00000 0.00000 0.00000 0.00000    7867  -39.51  -26.26  1.0000
  10  20   8     738    4250     0.00000 0.00000 0.00000 0.00000 0.00000 0.00000   -4730  -21.95  -16.56  1.0000
  12  20   8      81    4558     0.00000 0.00000 0.00000 0.00000 0.00000 0.00000   -4944    3.58   -8.36  1.0000
  14  20   8    2135    5294     0.00000 0.00000 0.00000 0.00000 0.00000 0.00000    4126  -14.02  -14.02  1.0000
   1  21   8    2630    3647     0.00000 0.00000 0.00000 0.00000 0.00000 0.00000    2978  -28.57  -74.88  1.0000
   3  21   8    4884    3404     0.00000 0.00000 0.00000 0.00000 0.00000 0.00000    8579   29.69  -43.08  1.0000
   5  21   8   14405    3734     0.00000 0.00000 0.00000 0.00000 0.00000 0.00000   11159   15.76    8.04  1.0000
   7  21   8   12961    4002     0.00000 0.00000 0.00000 0.00000 0.00000 0.00000   10343  -17.37  -19.53  1.0000
   9  21   8   15462    4534     0.00000 0.00000 0.00000 0.00000 0.00000 0.00000   14911    5.77  -28.58  1.0000
  11  21   8   11426    4752     0.00000 0.00000 0.00000 0.00000 0.00000 0.00000   13798   -2.37   20.31  1.0000
  13  21   8    6296    5258     0.00000 0.00000 0.00000 0.00000 0.00000 0.00000    8363  -11.57   -5.44  1.0000
   0  22   8   17048    5527     0.00000 0.00000 0.00000 0.00000 0.00000 0.00000   16998   32.66   21.05  1.0000
   2  22   8   25604    3673     0.00000 0.00000 0.00000 0.00000 0.00000 0.00000   32974    3.44   62.82  1.0000
   4  22   8   13532    3623     0.00000 0.00000 0.00000 0.00000 0.00000 0.00000    9042   15.44  -36.89  1.0000
   6  22   8    7958    3965     0.00000 0.00000 0.00000 0.00000 0.00000 0.00000    7446  -11.52   22.18  1.0000
   8  22   8    4126    4674     0.00000 0.00000 0.00000 0.00000 0.00000 0.00000    8726  -14.30   29.00  1.0000
  10  22   8     683    4424     0.00000 0.00000 0.00000 0.00000 0.00000 0.00000   -2912   -5.44   25.90  1.0000
  12  22   8     931    5241     0.00000 0.00000 0.00000 0.00000 0.00000 0.00000    3246   27.85   -5.62  1.0000
   1  23   8     904    4022     0.00000 0.00000 0.00000 0.00000 0.00000 0.00000    7388  -37.17  -51.18  1.0000
   3  23   8    6935    3858     0.00000 0.00000 0.00000 0.00000 0.00000 0.00000    9502   -2.88  -35.14  1.0000
   5  23   8    1732    3964     0.00000 0.00000 0.00000 0.00000 0.00000 0.00000    4345   -5.78   34.18  1.0000
   7  23   8    4288    4305     0.00000 0.00000 0.00000 0.00000 0.00000 0.00000    6710   26.91  -32.79  1.0000
   9  23   8    3699    4981     0.00000 0.00000 0.00000 0.00000 0.00000 0.00000    4323   -4.49   -3.10  1.0000
   0  24   8   23005    6501     0.00000 0.00000 0.00000 0.00000 0.00000 0.00000   17661   10.84   16.08  1.0000
   2  24   8    1064    4348     0.00000 0.00000 0.00000 0.00000 0.00000 0.00000   11125  -28.67   74.61  1.0000
   4  24   8    6903    4110     0.00000 0.00000 0.00000 0.00000 0.00000 0.00000   10728  -38.42   15.43  1.0000
   6  24   8     679    4216     0.00000 0.00000 0.00000 0.00000 0.00000 0.00000    3892  -47.93   11.62  1.0000
   8  24   8     920    4999     0.00000 0.00000 0.00000 0.00000 0.00000 0.00000    2633   -4.21  -21.16  1.0000
   1  25   8    4555    4883     0.00000 0.00000 0.00000 0.00000 0.00000 0.00000   12006    8.84  -47.25  1.0000
   3  25   8    5535    4393     0.00000 0.00000 0.00000 0.00000 0.00000 0.00000    8065   19.61  -75.16  1.0000
   2   1   9  144586    3896     0.00000 0.00000 0.00000 0.00000 0.00000 0.00000  128708   30.37   26.97  1.0000
   4   1   9  220776    5007     0.00000 0.00000 0.00000 0.00000 0.00000 0.00000  115380 -119.22  120.31  1.0000
   6   1   9   91321    6440     0.00000 0.00000 0.00000 0.00000 0.00000 0.00000   68116   33.65  -30.49  1.0000
   8   1   9  201115    6143     0.00000 0.00000 0.00000 0.00000 0.00000 0.00000  233974  -19.64   31.37  1.0000
  10   1   9   29922    2099     0.00000 0.00000 0.00000 0.00000 0.00000 0.00000   41716  -19.37   30.42  1.0000
  12   1   9  142121    5194     0.00000 0.00000 0.00000 0.00000 0.00000 0.00000  162890  -13.04   24.06  1.0000
  14   1   9    7304    2520     0.00000 0.00000 0.00000 0.00000 0.00000 0.00000    5529    2.37   11.40  1.0000
  16   1   9    1242    2958     0.00000 0.00000 0.00000 0.00000 0.00000 0.00000    3704    3.40   29.53  1.0000
  18   1   9   31166    3222     0.00000 0.00000 0.00000 0.00000 0.00000 0.00000   27643  -60.78  -27.01  1.0000
  20   1   9     223    3437     0.00000 0.00000 0.00000 0.00000 0.00000 0.00000    6383  -68.22    8.10  1.0000
  22   1   9    6122    4499     0.00000 0.00000 0.00000 0.00000 0.00000 0.00000   13234   -4.32  -48.97  1.0000
  24   1   9   27684    4876     0.00000 0.00000 0.00000 0.00000 0.00000 0.00000   27472   14.50   25.27  1.0000
   1   2   9  144176    3898     0.00000 0.00000 0.00000 0.00000 0.00000 0.00000  128805  -31.47   26.00  1.0000
   3   2   9  179112    6012     0.00000 0.00000 0.00000 0.00000 0.00000 0.00000  174960   -2.96    4.68  1.0000
   5   2   9  117669   10253     0.00000 0.00000 0.00000 0.00000 0.00000 0.00000   54331   67.70  110.17  1.0000
   7   2   9  114346    5943     0.00000 0.00000 0.00000 0.00000 0.00000 0.00000  163562  -88.74   -6.66  1.0000
   9   2   9   44120    2021     0.00000 0.00000 0.00000 0.00000 0.00000 0.00000   40948   -8.69  -27.99  1.0000
  11   2   9   18430    1971     0.00000 0.00000 0.00000 0.00000 0.00000 0.00000   22142   71.91   28.61  1.0000
  13   2   9     186    2011     0.00000 0.00000 0.00000 0.00000 0.00000 0.00000     253   15.30    5.23  1.0000
  15   2   9   18517    2211     0.00000 0.00000 0.00000 0.00000 0.00000 0.00000   19475   12.11    4.71  1.0000
  17   2   9    2260    3414     0.00000 0.00000 0.00000 0.00000 0.00000 0.00000    8523   20.36  -40.81  1.0000
  19   2   9    3442    3561     0.00000 0.00000 0.00000 0.00000 0.00000 0.00000    4476   16.87    0.11  1.0000
  21   2   9    2852    3777     0.00000 0.00000 0.00000 0.00000 0.00000 0.00000     515    6.09   61.22  1.0000
  23   2   9    2377    4330     0.00000 0.00000 0.00000 0.00000 0.00000 0.00000   12782  -39.50   52.12  1.0000
  25   2   9    4528    4986     0.00000 0.00000 0.00000 0.00000 0.00000 0.00000   12765   42.11  -20.51  1.0000
   2   3   9  183505    7745     0.00000 0.00000 0.00000 0.00000 0.00000 0.00000  178643    3.27    5.44  1.0000
   4   3   9   59144   17602     0.00000 0.00000 0.00000 0.00000 0.00000 0.00000   65839  -98.60   70.01  1.0000
   6   3   9   20264    4700     0.00000 0.00000 0.00000 0.00000 0.00000 0.00000   17040   11.92   -9.29  1.0000
   8   3   9   71688    3335     0.00000 0.00000 0.00000 0.00000 0.00000 0.00000   72438   18.84   44.79  1.0000
  10   3   9    7271    1718     0.00000 0.00000 0.00000 0.00000 0.00000 0.00000   18634   65.64   -3.96  1.0000
  12   3   9   75644    3382     0.00000 0.00000 0.00000 0.00000 0.00000 0.00000   85889   19.28   -4.00  1.0000
  14   3   9   11093    2373     0.00000 0.00000 0.00000 0.00000 0.00000 0.00000   12903    4.87   -7.35  1.0000
  16   3   9    2408    2527     0.00000 0.00000 0.00000 0.00000 0.00000 0.00000    6304   27.46   14.44  1.0000
  18   3   9   13633    3632     0.00000 0.00000 0.00000 0.00000 0.00000 0.00000   10914   10.75  -14.46  1.0000
  20   3   9     935    4191     0.00000 0.00000 0.00000 0.00000 0.00000 0.00000    8067   32.32   53.28  1.0000
  22   3   9    2873    4735     0.00000 0.00000 0.00000 0.00000 0.00000 0.00000   10126   29.73  -41.88  1.0000
  24   3   9    5335    4564     0.00000 0.00000 0.00000 0.00000 0.00000 0.00000   12627   34.46   26.25  1.0000
   1   4   9  204227    5425     0.00000 0.00000 0.00000 0.00000 0.00000 0.00000  103226  120.38  119.91  1.0000
   3   4   9   60181    7275     0.00000 0.00000 0.00000 0.00000 0.00000 0.00000   72838   99.55   71.10  1.0000
   5   4   9    7087    4912     0.00000 0.00000 0.00000 0.00000 0.00000 0.00000    1056  -36.21   37.88  1.0000
   7   4   9   30624    2582     0.00000 0.00000 0.00000 0.00000 0.00000 0.00000   12639  -92.61  -46.24  1.0000
   9   4   9   42979    2341     0.00000 0.00000 0.00000 0.00000 0.00000 0.00000   38137   -9.48    7.64  1.0000
  11   4   9   14425    2068     0.00000 0.00000 0.00000 0.00000 0.00000 0.00000   13341   19.93   19.86  1.0000
  13   4   9   15299    2034     0.00000 0.00000 0.00000 0.00000 0.00000 0.00000   13669   -7.58   -9.48  1.0000
  15   4   9   10174    2529     0.00000 0.00000 0.00000 0.00000 0.00000 0.00000   14341  -13.36   20.26  1.0000
  17   4   9    4786    3253     0.00000 0.00000 0.00000 0.00000 0.00000 0.00000    6705  -15.76    6.53  1.0000
  19   4   9    6630    3688     0.00000 0.00000 0.00000 0.00000 0.00000 0.00000    4629   -0.33  -17.77  1.0000
  21   4   9    2250    4092     0.00000 0.00000 0.00000 0.00000 0.00000 0.00000    5745  -31.76  -12.03  1.0000
  23   4   9    2573    4585     0.00000 0.00000 0.00000 0.00000 0.00000 0.00000   12074  -75.12   -9.64  1.0000
  25   4   9    1321    8447     0.00000 0.00000 0.00000 0.00000 0.00000 0.00000   12416  -28.89  -71.29  1.0000
   2   5   9  118358    4809     0.00000 0.00000 0.00000 0.00000 0.00000 0.00000   55359  -68.78  105.23  1.0000
   4   5   9    2601    4434     0.00000 0.00000 0.00000 0.00000 0.00000 0.00000   -1554   35.17   37.81  1.0000
   6   5   9   22178    2425     0.00000 0.00000 0.00000 0.00000 0.00000 0.00000   28513   11.11   71.20  1.0000
   8   5   9   37340    2800     0.00000 0.00000 0.00000 0.00000 0.00000 0.00000   52779  -16.59   34.42  1.0000
  10   5   9    7646    2208     0.00000 0.00000 0.00000 0.00000 0.00000 0.00000   13183  -39.05    2.98  1.0000
  12   5   9   48215    3178     0.00000 0.00000 0.00000 0.00000 0.00000 0.00000   51698   -2.43   11.71  1.0000
  14   5   9    4509    2360     0.00000 0.00000 0.00000 0.00000 0.00000 0.00000    6658   -1.92   15.60  1.0000
  16   5   9     504    3414     0.00000 0.00000 0.00000 0.00000 0.00000 0.00000   -2127  -16.67  -15.44  1.0000
  18   5   9    5825    3679     0.00000 0.00000 0.00000 0.00000 0.00000 0.00000    3873  -14.33   -1.51  1.0000
  20   5   9    1870    4247     0.00000 0.00000 0.00000 0.00000 0.00000 0.00000    7103  -35.04  -23.42  1.0000
  22   5   9    2348    4794     0.00000 0.00000 0.00000 0.00000 0.00000 0.00000    5336  -23.48   14.58  1.0000
  24   5   9    2188    5183     0.00000 0.00000 0.00000 0.00000 0.00000 0.00000    5225   62.34   38.50  1.0000
   1   6   9   77805    3517     0.00000 0.00000 0.00000 0.00000 0.00000 0.00000   55922  -34.01  -29.51  1.0000
   3   6   9   19486    3448     0.00000 0.00000 0.00000 0.00000 0.00000 0.00000   16709  -12.23   -8.48  1.0000
   5   6   9   21905    2213     0.00000 0.00000 0.00000 0.00000 0.00000 0.00000   29028   -9.76   72.01  1.0000
   7   6   9    2996    1865     0.00000 0.00000 0.00000 0.00000 0.00000 0.00000    1584   18.29   -1.31  1.0000
   9   6   9   16939    2220     0.00000 0.00000 0.00000 0.00000 0.00000 0.00000   14854   19.14    4.52  1.0000
  11   6   9   33563    2977     0.00000 0.00000 0.00000 0.00000 0.00000 0.00000   40761  -22.69   -2.72  1.0000
  13   6   9    3364    2400     0.00000 0.00000 0.00000 0.00000 0.00000 0.00000    2788   11.85  -25.62  1.0000
  15   6   9    5514    2557     0.00000 0.00000 0.00000 0.00000 0.00000 0.00000    4793  -10.04  -23.56  1.0000
  17   6   9    3337    3368     0.00000 0.00000 0.00000 0.00000 0.00000 0.00000    5802   27.27    3.49  1.0000
  19   6   9    8688    4841     0.00000 0.00000 0.00000 0.00000 0.00000 0.00000   11758   17.00   14.43  1.0000
  21   6   9    1331    5006     0.00000 0.00000 0.00000 0.00000 0.00000 0.00000     715   27.31   -4.59  1.0000
  23   6   9    5175    4709     0.00000 0.00000 0.00000 0.00000 0.00000 0.00000    8810   22.08    3.26  1.0000
   2   7   9  113762    4806     0.00000 0.00000 0.00000 0.00000 0.00000 0.00000  160321   88.68   -7.54  1.0000
   4   7   9   32754    1654     0.00000 0.00000 0.00000 0.00000 0.00000 0.00000   18156   87.73  -41.02  1.0000
   6   7   9    1692    1718     0.00000 0.00000 0.00000 0.00000 0.00000 0.00000     942  -21.86   -0.03  1.0000
   8   7   9    8223    1998     0.00000 0.00000 0.00000 0.00000 0.00000 0.00000    6489    4.33   11.95  1.0000
  10   7   9    8626    2329     0.00000 0.00000 0.00000 0.00000 0.00000 0.00000   13605   21.35  -12.20  1.0000
  12   7   9   11491    2496     0.00000 0.00000 0.00000 0.00000 0.00000 0.00000   12783   51.66  -13.76  1.0000
  14   7   9    6187    3786     0.00000 0.00000 0.00000 0.00000 0.00000 0.00000    9556   21.25  -16.08  1.0000
  16   7   9    2200    3427     0.00000 0.00000 0.00000 0.00000 0.00000 0.00000    2886   10.15  -34.68  1.0000
  18   7   9    5251    4472     0.00000 0.00000 0.00000 0.00000 0.00000 0.00000    2861   19.58    7.68  1.0000
  20   7   9    5612    4891     0.00000 0.00000 0.00000 0.00000 0.00000 0.00000    6942   19.34  -23.70  1.0000
  22   7   9     914    5391     0.00000 0.00000 0.00000 0.00000 0.00000 0.00000    5279   23.58   35.93  1.0000
  24   7   9    5229    5403     0.00000 0.00000 0.00000 0.00000 0.00000 0.00000   11786   34.38  -17.80  1.0000
   1   8   9  203725    6432     0.00000 0.00000 0.00000 0.00000 0.00000 0.00000  237340   18.48   31.86  1.0000
   3   8   9   78079    2912     0.00000 0.00000 0.00000 0.00000 0.00000 0.00000   72177  -18.99   43.69  1.0000
   5   8   9   43958    3146     0.00000 0.00000 0.00000 0.00000 0.00000 0.00000   60319   18.29   31.46  1.0000
   7   8   9    9841    2035     0.00000 0.00000 0.00000 0.00000 0.00000 0.00000    7712    0.19   11.77  1.0000
   9   8   9   14429    2245     0.00000 0.00000 0.00000 0.00000 0.00000 0.00000   14265   27.79   30.64  1.0000
  11   8   9   23642    2241     0.00000 0.00000 0.00000 0.00000 0.00000 0.00000   13945  -34.47   14.75  1.0000
  13   8   9    2618    2305     0.00000 0.00000 0.00000 0.00000 0.00000 0.00000    5908   15.95  -22.58  1.0000
  15   8   9   12216    3677     0.00000 0.00000 0.00000 0.00000 0.00000 0.00000   10790    1.71  -10.42  1.0000
  17   8   9   14679    4050     0.00000 0.00000 0.00000 0.00000 0.00000 0.00000   13407    6.53   -6.30  1.0000
  19   8   9   16186    4512     0.00000 0.00000 0.00000 0.00000 0.00000 0.00000   23431  -37.50   27.56  1.0000
  21   8   9     223    5280     0.00000 0.00000 0.00000 0.00000 0.00000 0.00000    1895   -2.16  -33.68  1.0000
  23   8   9    1444    5913     0.00000 0.00000 0.00000 0.00000 0.00000 0.00000    2277  -12.35   14.81  1.0000
   2   9   9   47173    2496     0.00000 0.00000 0.00000 0.00000 0.00000 0.00000   42715    8.21  -25.67  1.0000
   4   9   9   42843    2514     0.00000 0.00000 0.00000 0.00000 0.00000 0.00000   39129   10.14    3.73  1.0000
   6   9   9   17393    2056     0.00000 0.00000 0.00000 0.00000 0.00000 0.00000   16562  -20.12    5.32  1.0000
   8   9   9   20965    2221     0.00000 0.00000 0.00000 0.00000 0.00000 0.00000   16855  -28.70   30.37  1.0000
  10   9   9    9919    2184     0.00000 0.00000 0.00000 0.00000 0.00000 0.00000    3472   -0.81  -41.17  1.0000
  12   9   9   12228    2452     0.00000 0.00000 0.00000 0.00000 0.00000 0.00000   16582   16.09  -19.25  1.0000
  14   9   9    6597    2661     0.00000 0.00000 0.00000 0.00000 0.00000 0.00000   11625  -59.63   32.83  1.0000
  16   9   9    4620    4111     0.00000 0.00000 0.00000 0.00000 0.00000 0.00000    6214   15.15    0.14  1.0000
  18   9   9     672    4405     0.00000 0.00000 0.00000 0.00000 0.00000 0.00000    5895   44.12   26.62  1.0000
  20   9   9      99    4787     0.00000 0.00000 0.00000 0.00000 0.00000 0.00000   -2597   -4.36    9.07  1.0000
  22   9   9    3861    5396     0.00000 0.00000 0.00000 0.00000 0.00000 0.00000    6176  -15.24   13.18  1.0000
   1  10   9   27066    2707     0.00000 0.00000 0.00000 0.00000 0.00000 0.00000   40155   18.66   31.67  1.0000
   3  10   9   11984    1832     0.00000 0.00000 0.00000 0.00000 0.00000 0.00000   19803  -65.25   -3.46  1.0000
   5  10   9   11144    2431     0.00000 0.00000 0.00000 0.00000 0.00000 0.00000   15421   39.57    2.84  1.0000
   7  10   9    9150    2641     0.00000 0.00000 0.00000 0.00000 0.00000 0.00000   14221  -21.26  -12.18  1.0000
   9  10   9    7053    2291     0.00000 0.00000 0.00000 0.00000 0.00000 0.00000    2006   -0.36  -39.71  1.0000
  11  10   9   14917    2474     0.00000 0.00000 0.00000 0.00000 0.00000 0.00000   12618    4.39  -14.78  1.0000
  13  10   9    8547    2564     0.00000 0.00000 0.00000 0.00000 0.00000 0.00000    8749   -1.50    3.39  1.0000
  15  10   9   22427    4068     0.00000 0.00000 0.00000 0.00000 0.00000 0.00000   23925   -2.73    6.29  1.0000
  17  10   9   25729    4115     0.00000 0.00000 0.00000 0.00000 0.00000 0.00000   29131   -0.70  -10.50  1.0000
  19  10   9   12070    4674     0.00000 0.00000 0.00000 0.00000 0.00000 0.00000   16394  -12.37   34.49  1.0000
  21  10   9    8114    5208     0.00000 0.00000 0.00000 0.00000 0.00000 0.00000   11103   19.48  -25.74  1.0000
  23  10   9    2836    5975     0.00000 0.00000 0.00000 0.00000 0.00000 0.00000    5018   14.31   22.88  1.0000
   2  11   9   20934    2025     0.00000 0.00000 0.00000 0.00000 0.00000 0.00000   25254  -73.38   29.37  1.0000
   4  11   9   20556    2151     0.00000 0.00000 0.00000 0.00000 0.00000 0.00000   17575  -19.01   19.71  1.0000
   6  11   9   40299    2705     0.00000 0.00000 0.00000 0.00000 0.00000 0.00000   46087   20.98   -1.57  1.0000
   8  11   9   22964    2789     0.00000 0.00000 0.00000 0.00000 0.00000 0.00000   14736   33.30   14.77  1.0000
  10  11   9   15412    2422     0.00000 0.00000 0.00000 0.00000 0.00000 0.00000   12294   -3.08  -14.95  1.0000
  12  11   9   23860    2946     0.00000 0.00000 0.00000 0.00000 0.00000 0.00000   30094  -12.44  -14.69  1.0000
  14  11   9   24434    4072     0.00000 0.00000 0.00000 0.00000 0.00000 0.00000   28774  -10.25   12.38  1.0000
  16  11   9    8091    3785     0.00000 0.00000 0.00000 0.00000 0.00000 0.00000    4418   38.00    1.52  1.0000
  18  11   9     497    4291     0.00000 0.00000 0.00000 0.00000 0.00000 0.00000   -4230   -5.62  -21.86  1.0000
  20  11   9       7    5002     0.00000 0.00000 0.00000 0.00000 0.00000 0.00000     396   -3.47   17.46  1.0000
  22  11   9     832    5150     0.00000 0.00000 0.00000 0.00000 0.00000 0.00000    2660   -5.84   25.02  1.0000
   1  12   9  155571    4700     0.00000 0.00000 0.00000 0.00000 0.00000 0.00000  177099   13.46   23.11  1.0000
   3  12   9   76850    3540     0.00000 0.00000 0.00000 0.00000 0.00000 0.00000   86311  -18.69   -5.10  1.0000
   5  12   9   48867    3280     0.00000 0.00000 0.00000 0.00000 0.00000 0.00000   53900    2.92   13.16  1.0000
   7  12   9   14625    3488     0.00000 0.00000 0.00000 0.00000 0.00000 0.00000   16229  -56.47  -13.45  1.0000
   9  12   9   12937    2550     0.00000 0.00000 0.00000 0.00000 0.00000 0.00000   17801  -16.63  -20.67  1.0000
  11  12   9   19323    2803     0.00000 0.00000 0.00000 0.00000 0.00000 0.00000   25201   12.60  -15.79  1.0000
  13  12   9     135    3741     0.00000 0.00000 0.00000 0.00000 0.00000 0.00000    -412   -4.78   10.73  1.0000
  15  12   9     244    3771     0.00000 0.00000 0.00000 0.00000 0.00000 0.00000    1633   -4.76  -34.16  1.0000
  17  12   9    3650    4771     0.00000 0.00000 0.00000 0.00000 0.00000 0.00000    4124    5.93   22.28  1.0000
  19  12   9     265    4682     0.00000 0.00000 0.00000 0.00000 0.00000 0.00000     402  -12.70    0.65  1.0000
  21  12   9     971    4907     0.00000 0.00000 0.00000 0.00000 0.00000 0.00000   -3185   -3.02  -31.40  1.0000
   2  13   9    1767    2250     0.00000 0.00000 0.00000 0.00000 0.00000 0.00000    2321  -16.10    5.10  1.0000
   4  13   9   12991    2475     0.00000 0.00000 0.00000 0.00000 0.00000 0.00000   12162    6.50   -7.94  1.0000
   6  13   9    6171    2495     0.00000 0.00000 0.00000 0.00000 0.00000 0.00000    3023  -11.41  -28.60  1.0000
   8  13   9    4025    2646     0.00000 0.00000 0.00000 0.00000 0.00000 0.00000    8099  -15.85  -24.79  1.0000
  10  13   9   10173    2740     0.00000 0.00000 0.00000 0.00000 0.00000 0.00000   10694    0.43    4.76  1.0000
  12  13   9    1361    3180     0.00000 0.00000 0.00000 0.00000 0.00000 0.00000     602    5.41   11.29  1.0000
  14  13   9    5671    3779     0.00000 0.00000 0.00000 0.00000 0.00000 0.00000    3237  -18.87    0.78  1.0000
  16  13   9      99    4668     0.00000 0.00000 0.00000 0.00000 0.00000 0.00000   -7002    7.42   -6.81  1.0000
  18  13   9     324    6398     0.00000 0.00000 0.00000 0.00000 0.00000 0.00000     165   -8.74   -0.36  1.0000
  20  13   9    1105    5690     0.00000 0.00000 0.00000 0.00000 0.00000 0.00000   -1444   13.99   30.60  1.0000
   1  14   9   11323    2785     0.00000 0.00000 0.00000 0.00000 0.00000 0.00000    9162   -0.53   10.90  1.0000
   3  14   9   10069    2389     0.00000 0.00000 0.00000 0.00000 0.00000 0.00000   11657   -4.23   -6.59  1.0000
   5  14   9    6993    2508     0.00000 0.00000 0.00000 0.00000 0.00000 0.00000    9549    6.49   12.72  1.0000
   7  14   9    3356    3236     0.00000 0.00000 0.00000 0.00000 0.00000 0.00000    6714  -21.98  -15.70  1.0000
   9  14   9    7733    3109     0.00000 0.00000 0.00000 0.00000 0.00000 0.00000   13496   58.31   32.51  1.0000
  11  14   9   23996    3254     0.00000 0.00000 0.00000 0.00000 0.00000 0.00000   28471    7.88   13.18  1.0000
  13  14   9     292    4477     0.00000 0.00000 0.00000 0.00000 0.00000 0.00000    -471   17.29    0.49  1.0000
  15  14   9      89    4487     0.00000 0.00000 0.00000 0.00000 0.00000 0.00000   -5124    7.15   -6.33  1.0000
  17  14   9    1159    5253     0.00000 0.00000 0.00000 0.00000 0.00000 0.00000    -185   20.26   27.89  1.0000
  19  14   9      36    5631     0.00000 0.00000 0.00000 0.00000 0.00000 0.00000   -8446   -1.82    5.76  1.0000
  21  14   9     197    7449     0.00000 0.00000 0.00000 0.00000 0.00000 0.00000   -3321    2.95  -13.90  1.0000
   2  15   9   21141    2421     0.00000 0.00000 0.00000 0.00000 0.00000 0.00000   22257  -11.67    3.93  1.0000
   4  15   9   11214    2441     0.00000 0.00000 0.00000 0.00000 0.00000 0.00000   15335   11.70   22.59  1.0000
   6  15   9    3309    2567     0.00000 0.00000 0.00000 0.00000 0.00000 0.00000    3013    8.36  -22.99  1.0000
   8  15   9   11074    3049     0.00000 0.00000 0.00000 0.00000 0.00000 0.00000    9781   -0.81   -9.95  1.0000
  10  15   9   15858    3073     0.00000 0.00000 0.00000 0.00000 0.00000 0.00000   17171    6.34    7.83  1.0000
  12  15   9     183    3946     0.00000 0.00000 0.00000 0.00000 0.00000 0.00000    2112    7.45  -34.59  1.0000
  14  15   9    6594    3796     0.00000 0.00000 0.00000 0.00000 0.00000 0.00000    7230   -7.69   -6.31  1.0000
  16  15   9     190    7663     0.00000 0.00000 0.00000 0.00000 0.00000 0.00000  -11204   -0.59   13.96  1.0000
  18  15   9       4    5678     0.00000 0.00000 0.00000 0.00000 0.00000 0.00000   -8095   -1.60   -1.19  1.0000
  20  15   9     126    6041     0.00000 0.00000 0.00000 0.00000 0.00000 0.00000   -1670    2.06  -11.19  1.0000
   1  16   9     839    2663     0.00000 0.00000 0.00000 0.00000 0.00000 0.00000   -1245   -3.62   29.10  1.0000
   3  16   9     260    2654     0.00000 0.00000 0.00000 0.00000 0.00000 0.00000    1702  -27.76   16.03  1.0000
   5  16   9    4723    9092     0.00000 0.00000 0.00000 0.00000 0.00000 0.00000    7091   18.05  -19.39  1.0000
   7  16   9    1358    2836     0.00000 0.00000 0.00000 0.00000 0.00000 0.00000   -2254  -11.17  -35.60  1.0000
   9  16   9     230    3206     0.00000 0.00000 0.00000 0.00000 0.00000 0.00000   -2967  -15.33    0.36  1.0000
  11  16   9    2008    3591     0.00000 0.00000 0.00000 0.00000 0.00000 0.00000     161  -37.75    1.76  1.0000
  13  16   9    2965    4016     0.00000 0.00000 0.00000 0.00000 0.00000 0.00000    2665   -7.23   -7.34  1.0000
  15  16   9     213    5233     0.00000 0.00000 0.00000 0.00000 0.00000 0.00000   -3027   -0.10   14.79  1.0000
  17  16   9      71    5548     0.00000 0.00000 0.00000 0.00000 0.00000 0.00000   -8322   -3.46   -7.81  1.0000
  19  16   9       3    5805     0.00000 0.00000 0.00000 0.00000 0.00000 0.00000   -8708    1.22    1.12  1.0000
   2  17   9    1091    2744     0.00000 0.00000 0.00000 0.00000 0.00000 0.00000    6190  -21.45  -40.93  1.0000
   4  17   9    5792    2694     0.00000 0.00000 0.00000 0.00000 0.00000 0.00000    7636   14.37    7.69  1.0000
   6  17   9    1435    2694     0.00000 0.00000 0.00000 0.00000 0.00000 0.00000    2276  -27.70    4.13  1.0000
   8  17   9   10522    3306     0.00000 0.00000 0.00000 0.00000 0.00000 0.00000    9037   -6.74   -4.21  1.0000
  10  17   9   27769    4429     0.00000 0.00000 0.00000 0.00000 0.00000 0.00000   31541    1.80  -10.95  1.0000
  12  17   9    3296    3778     0.00000 0.00000 0.00000 0.00000 0.00000 0.00000    4607   -6.00   22.52  1.0000
  14  17   9    1172    4235     0.00000 0.00000 0.00000 0.00000 0.00000 0.00000   -2918  -20.49   27.95  1.0000
  16  17   9      82    4951     0.00000 0.00000 0.00000 0.00000 0.00000 0.00000    -136    3.87   -8.30  1.0000
  18  17   9    2903    5902     0.00000 0.00000 0.00000 0.00000 0.00000 0.00000    6185  -25.43   -4.24  1.0000
   1  18   9   26934    2930     0.00000 0.00000 0.00000 0.00000 0.00000 0.00000   25220   61.12  -27.44  1.0000
   3  18   9    7034    2930     0.00000 0.00000 0.00000 0.00000 0.00000 0.00000    4578   -9.57  -16.40  1.0000
   5  18   9     203    4098     0.00000 0.00000 0.00000 0.00000 0.00000 0.00000   -1476   14.07   -3.20  1.0000
   7  18   9     413    3149     0.00000 0.00000 0.00000 0.00000 0.00000 0.00000   -2263  -19.43    6.76  1.0000
   9  18   9     263    4182     0.00000 0.00000 0.00000 0.00000 0.00000 0.00000    4249  -43.33   28.58  1.0000
  11  18   9     458    3824     0.00000 0.00000 0.00000 0.00000 0.00000 0.00000   -1270    5.59  -20.94  1.0000
  13  18   9      74    4441     0.00000 0.00000 0.00000 0.00000 0.00000 0.00000   -5233    8.69   -0.22  1.0000
  15  18   9       6    5088     0.00000 0.00000 0.00000 0.00000 0.00000 0.00000   -3883    0.94   -2.33  1.0000
  17  18   9     642    6429     0.00000 0.00000 0.00000 0.00000 0.00000 0.00000   -7644   25.10   -5.24  1.0000
   2  19   9    2727    3784     0.00000 0.00000 0.00000 0.00000 0.00000 0.00000    3435  -17.46    0.24  1.0000
   4  19   9    6809    3190     0.00000 0.00000 0.00000 0.00000 0.00000 0.00000    4673    1.13  -17.82  1.0000
   6  19   9    2543    3078     0.00000 0.00000 0.00000 0.00000 0.00000 0.00000    3167  -16.83   14.54  1.0000
   8  19   9    6046    3765     0.00000 0.00000 0.00000 0.00000 0.00000 0.00000   10005   38.18   27.89  1.0000
  10  19   9    9207    3976     0.00000 0.00000 0.00000 0.00000 0.00000 0.00000   10941   10.29   30.95  1.0000
  12  19   9     137    4527     0.00000 0.00000 0.00000 0.00000 0.00000 0.00000    -134   11.83   -0.02  1.0000
  14  19   9    2831    5348     0.00000 0.00000 0.00000 0.00000 0.00000 0.00000    2643    2.04    5.69  1.0000
  16  19   9       3    5698     0.00000 0.00000 0.00000 0.00000 0.00000 0.00000    -423   -0.71    1.55  1.0000
   1  20   9     629    3607     0.00000 0.00000 0.00000 0.00000 0.00000 0.00000    7642   68.15    7.65  1.0000
   3  20   9      26    3326     0.00000 0.00000 0.00000 0.00000 0.00000 0.00000    4393  -31.05   53.70  1.0000
   5  20   9    2036    3612     0.00000 0.00000 0.00000 0.00000 0.00000 0.00000    6847   34.49  -22.89  1.0000
   7  20   9    1341    3551     0.00000 0.00000 0.00000 0.00000 0.00000 0.00000    1068  -18.88  -23.16  1.0000
   9  20   9    3794    4183     0.00000 0.00000 0.00000 0.00000 0.00000 0.00000    2831    4.41    7.95  1.0000
  11  20   9      56    4459     0.00000 0.00000 0.00000 0.00000 0.00000 0.00000     630    3.96   17.58  1.0000
  13  20   9    4336    5512     0.00000 0.00000 0.00000 0.00000 0.00000 0.00000    1106  -13.93   30.48  1.0000
  15  20   9     647    5784     0.00000 0.00000 0.00000 0.00000 0.00000 0.00000    1204   -2.16  -11.39  1.0000
   2  21   9    5376    3586     0.00000 0.00000 0.00000 0.00000 0.00000 0.00000    6811   -6.64   61.22  1.0000
   4  21   9    1094    3392     0.00000 0.00000 0.00000 0.00000 0.00000 0.00000    3883   31.12  -12.18  1.0000
   6  21   9    1056    3982     0.00000 0.00000 0.00000 0.00000 0.00000 0.00000     366  -28.78   -4.94  1.0000
   8  21   9    1171    4037     0.00000 0.00000 0.00000 0.00000 0.00000 0.00000    3778    3.82  -31.75  1.0000
  10  21   9    8634    4871     0.00000 0.00000 0.00000 0.00000 0.00000 0.00000   11463  -19.38  -24.63  1.0000
  12  21   9    2713    5283     0.00000 0.00000 0.00000 0.00000 0.00000 0.00000    6789    3.67  -30.66  1.0000
  14  21   9    5169    6438     0.00000 0.00000 0.00000 0.00000 0.00000 0.00000    7110   -1.49  -13.71  1.0000
   1  22   9    3068    3810     0.00000 0.00000 0.00000 0.00000 0.00000 0.00000    7653    6.43  -49.50  1.0000
   3  22   9     764    3836     0.00000 0.00000 0.00000 0.00000 0.00000 0.00000    5025  -27.66  -41.51  1.0000
   5  22   9      59    3719     0.00000 0.00000 0.00000 0.00000 0.00000 0.00000     459   23.81   14.21  1.0000
   7  22   9    1746    4484     0.00000 0.00000 0.00000 0.00000 0.00000 0.00000    -394  -22.12   36.06  1.0000
   9  22   9    3025    4988     0.00000 0.00000 0.00000 0.00000 0.00000 0.00000    4992   14.78   10.27  1.0000
  11  22   9    1750    5060     0.00000 0.00000 0.00000 0.00000 0.00000 0.00000    4262    5.55   24.53  1.0000
   2  23   9     610    4116     0.00000 0.00000 0.00000 0.00000 0.00000 0.00000    7923   38.19   52.93  1.0000
   4  23   9     595    4145     0.00000 0.00000 0.00000 0.00000 0.00000 0.00000    3118   75.34   -9.46  1.0000
   6  23   9      35    4346     0.00000 0.00000 0.00000 0.00000 0.00000 0.00000     770  -22.23    2.62  1.0000
   8  23   9    1994    4860     0.00000 0.00000 0.00000 0.00000 0.00000 0.00000    2881   12.64   15.14  1.0000
  10  23   9    3439    5589     0.00000 0.00000 0.00000 0.00000 0.00000 0.00000    5960  -14.73   23.12  1.0000
   1  24   9   14494    4479     0.00000 0.00000 0.00000 0.00000 0.00000 0.00000   15528  -11.57   23.91  1.0000
   3  24   9    4595    4299     0.00000 0.00000 0.00000 0.00000 0.00000 0.00000    9965  -34.63   26.21  1.0000
   5  24   9    5297    4181     0.00000 0.00000 0.00000 0.00000 0.00000 0.00000   12184  -63.82   38.26  1.0000
   7  24   9    2783    4655     0.00000 0.00000 0.00000 0.00000 0.00000 0.00000    8110  -33.97  -17.33  1.0000
   2  25   9     244    4612     0.00000 0.00000 0.00000 0.00000 0.00000 0.00000    3723  -42.15  -19.13  1.0000
   4  25   9    4116   15663     0.00000 0.00000 0.00000 0.00000 0.00000 0.00000   19259   31.56  -69.83  1.0000
   2   0  10  203815   11948     0.00000 0.00000 0.00000 0.00000 0.00000 0.00000  352474   94.07 -118.49  1.0000
   4   0  10  172251    9207     0.00000 0.00000 0.00000 0.00000 0.00000 0.00000  212570  114.19   10.48  1.0000
   6   0  10   25303    5810     0.00000 0.00000 0.00000 0.00000 0.00000 0.00000   37357   23.09   25.82  1.0000
   8   0  10   65012    4599     0.00000 0.00000 0.00000 0.00000 0.00000 0.00000   80357  -78.50   24.24  1.0000
  10   0  10    1244    2126     0.00000 0.00000 0.00000 0.00000 0.00000 0.00000    2684    1.25  -21.23  1.0000
  12   0  10   37386    4640     0.00000 0.00000 0.00000 0.00000 0.00000 0.00000   52439   23.08  -40.81  1.0000
  14   0  10   92855    4747     0.00000 0.00000 0.00000 0.00000 0.00000 0.00000   82077    4.63  -18.82  1.0000
  16   0  10   15403    3863     0.00000 0.00000 0.00000 0.00000 0.00000 0.00000   23621   55.23   -1.65  1.0000
  18   0  10   72247    8452     0.00000 0.00000 0.00000 0.00000 0.00000 0.00000   82728    5.26   22.49  1.0000
  20   0  10     189    5036     0.00000 0.00000 0.00000 0.00000 0.00000 0.00000    7223   75.72   31.97  1.0000
  22   0  10   46887    6855     0.00000 0.00000 0.00000 0.00000 0.00000 0.00000   47481    5.74    2.75  1.0000
  24   0  10     255    7609     0.00000 0.00000 0.00000 0.00000 0.00000 0.00000    4930  -75.08  -44.11  1.0000
   1   1  10     337    3954     0.00000 0.00000 0.00000 0.00000 0.00000 0.00000   -5931  -18.58   -0.51  1.0000
   3   1  10    8632    1841     0.00000 0.00000 0.00000 0.00000 0.00000 0.00000    7555    1.01  -28.57  1.0000
   5   1  10   27331    2421     0.00000 0.00000 0.00000 0.00000 0.00000 0.00000   17693    1.12  -40.23  1.0000
   7   1  10    9136    2049     0.00000 0.00000 0.00000 0.00000 0.00000 0.00000    6722   -4.36   16.19  1.0000
   9   1  10   32131    1610     0.00000 0.00000 0.00000 0.00000 0.00000 0.00000   25836    1.85  -18.78  1.0000
  11   1  10   59398    2598     0.00000 0.00000 0.00000 0.00000 0.00000 0.00000   59510    2.53   -0.32  1.0000
  13   1  10   57726    2682     0.00000 0.00000 0.00000 0.00000 0.00000 0.00000   67350  -14.27   15.32  1.0000
  15   1  10    5130    2351     0.00000 0.00000 0.00000 0.00000 0.00000 0.00000    3074   -5.17   18.38  1.0000
  17   1  10   22097    2838     0.00000 0.00000 0.00000 0.00000 0.00000 0.00000   19914   -3.42   -6.97  1.0000
  19   1  10    3622    3731     0.00000 0.00000 0.00000 0.00000 0.00000 0.00000    8368  -31.17   -8.42  1.0000
  21   1  10    1511    3894     0.00000 0.00000 0.00000 0.00000 0.00000 0.00000    6123   -0.08   44.22  1.0000
  23   1  10    2385    4691     0.00000 0.00000 0.00000 0.00000 0.00000 0.00000    8383   11.21   52.14  1.0000
  25   1  10   12894    5756     0.00000 0.00000 0.00000 0.00000 0.00000 0.00000   26836   63.23    1.13  1.0000
   0   2  10  202491   13875     0.00000 0.00000 0.00000 0.00000 0.00000 0.00000  347226   92.91  120.18  1.0000
   2   2  10    5408    6176     0.00000 0.00000 0.00000 0.00000 0.00000 0.00000    5519    0.75   -0.53  1.0000
   4   2  10  331996   11953     0.00000 0.00000 0.00000 0.00000 0.00000 0.00000  426182   -1.68   77.69  1.0000
   6   2  10   63630    3842     0.00000 0.00000 0.00000 0.00000 0.00000 0.00000   64082   22.62   -8.69  1.0000
   8   2  10   38775    2977     0.00000 0.00000 0.00000 0.00000 0.00000 0.00000   52741   10.54  -32.81  1.0000
  10   2  10    1038    1553     0.00000 0.00000 0.00000 0.00000 0.00000 0.00000    1228    1.28   -5.70  1.0000
  12   2  10     641    2082     0.00000 0.00000 0.00000 0.00000 0.00000 0.00000     461  -27.50    2.65  1.0000
  14   2  10   22465    2302     0.00000 0.00000 0.00000 0.00000 0.00000 0.00000   26938  -29.94   11.56  1.0000
  16   2  10    5208    2441     0.00000 0.00000 0.00000 0.00000 0.00000 0.00000    4108   -7.66    4.27  1.0000
  18   2  10    8805    3296     0.00000 0.00000 0.00000 0.00000 0.00000 0.00000    8885  -26.78  -28.83  1.0000
  20   2  10   20449    3806     0.00000 0.00000 0.00000 0.00000 0.00000 0.00000   24076   26.29   -4.30  1.0000
  22   2  10   11920    4785     0.00000 0.00000 0.00000 0.00000 0.00000 0.00000   17362   28.18   -7.83  1.0000
  24   2  10   14319    4540     0.00000 0.00000 0.00000 0.00000 0.00000 0.00000   21262  -32.31  -14.53  1.0000
   1   3  10    1281    2673     0.00000 0.00000 0.00000 0.00000 0.00000 0.00000     888   -0.36   28.10  1.0000
   5   3  10   96777    4431     0.00000 0.00000 0.00000 0.00000 0.00000 0.00000   75858   32.81   16.09  1.0000
   7   3  10   98013    4104     0.00000 0.00000 0.00000 0.00000 0.00000 0.00000  101775  -23.86   -3.63  1.0000
   9   3  10    2070    1440     0.00000 0.00000 0.00000 0.00000 0.00000 0.00000    3938  -24.56   35.63  1.0000
  11   3  10   15224    1925     0.00000 0.00000 0.00000 0.00000 0.00000 0.00000   18861  -35.21   11.89  1.0000
  13   3  10    7908    2034     0.00000 0.00000 0.00000 0.00000 0.00000 0.00000   10708   35.74  -41.46  1.0000
  15   3  10    7250    2250     0.00000 0.00000 0.00000 0.00000 0.00000 0.00000    6443    6.51    8.46  1.0000
  17   3  10    1571    2778     0.00000 0.00000 0.00000 0.00000 0.00000 0.00000    5037   10.77   36.21  1.0000
  19   3  10    9023    3932     0.00000 0.00000 0.00000 0.00000 0.00000 0.00000    8804   11.52    4.07  1.0000
  21   3  10   11300    4131     0.00000 0.00000 0.00000 0.00000 0.00000 0.00000   12967  -42.65  -19.60  1.0000
  23   3  10    1296    4348     0.00000 0.00000 0.00000 0.00000 0.00000 0.00000    6292  -39.88   19.99  1.0000
  25   3  10    9953    8291     0.00000 0.00000 0.00000 0.00000 0.00000 0.00000   14198   19.93  -11.28  1.0000
   0   4  10  170701   16828     0.00000 0.00000 0.00000 0.00000 0.00000 0.00000  215275  113.05  -10.43  1.0000
   2   4  10  336224   11994     0.00000 0.00000 0.00000 0.00000 0.00000 0.00000  431707    1.88  -78.47  1.0000
   4   4  10    4132    3577     0.00000 0.00000 0.00000 0.00000 0.00000 0.00000    6416  -16.01    0.35  1.0000
   6   4  10   40832    2961     0.00000 0.00000 0.00000 0.00000 0.00000 0.00000   44015  -45.82    4.26  1.0000
   8   4  10    3259    1667     0.00000 0.00000 0.00000 0.00000 0.00000 0.00000    4724  -42.99  -70.19  1.0000
  10   4  10   12849    2063     0.00000 0.00000 0.00000 0.00000 0.00000 0.00000   16916   -5.07   18.59  1.0000
  12   4  10   42440    2396     0.00000 0.00000 0.00000 0.00000 0.00000 0.00000   30885  -15.08   30.66  1.0000
  14   4  10    8221    2189     0.00000 0.00000 0.00000 0.00000 0.00000 0.00000    4142   32.97  -14.04  1.0000
  16   4  10    8144    2703     0.00000 0.00000 0.00000 0.00000 0.00000 0.00000    8479   -0.70   -2.33  1.0000
  18   4  10   13492    3604     0.00000 0.00000 0.00000 0.00000 0.00000 0.00000    9714   34.05    5.87  1.0000
  20   4  10    6229    3969     0.00000 0.00000 0.00000 0.00000 0.00000 0.00000    6400   -3.00    0.80  1.0000
  22   4  10   14002    4162     0.00000 0.00000 0.00000 0.00000 0.00000 0.00000   15468    8.09   10.22  1.0000
  24   4  10    3231    4911     0.00000 0.00000 0.00000 0.00000 0.00000 0.00000   13800  -33.03   52.09  1.0000
   1   5  10   23921    3744     0.00000 0.00000 0.00000 0.00000 0.00000 0.00000   14399    3.37   40.39  1.0000
   3   5  10   88417    5936     0.00000 0.00000 0.00000 0.00000 0.00000 0.00000   68631   33.54  -14.59  1.0000
   5   5  10   88477    4031     0.00000 0.00000 0.00000 0.00000 0.00000 0.00000   80348  -14.23    2.17  1.0000
   7   5  10    1311    2178     0.00000 0.00000 0.00000 0.00000 0.00000 0.00000    2273  -12.77    9.78  1.0000
   9   5  10    9079    2247     0.00000 0.00000 0.00000 0.00000 0.00000 0.00000    6692   27.07   13.05  1.0000
  11   5  10     259    2300     0.00000 0.00000 0.00000 0.00000 0.00000 0.00000   -1194  -13.00   -9.80  1.0000
  13   5  10    7680    2291     0.00000 0.00000 0.00000 0.00000 0.00000 0.00000    8813  -18.24    7.72  1.0000
  15   5  10    5610    2509     0.00000 0.00000 0.00000 0.00000 0.00000 0.00000    6875  -11.18   14.18  1.0000
  17   5  10    2722    3426     0.00000 0.00000 0.00000 0.00000 0.00000 0.00000    4675   -4.26   19.47  1.0000
  19   5  10   10317    4265     0.00000 0.00000 0.00000 0.00000 0.00000 0.00000    9175    4.66   -4.01  1.0000
  21   5  10   14681    4367     0.00000 0.00000 0.00000 0.00000 0.00000 0.00000   13388  -21.83  -13.03  1.0000
  23   5  10    9567    5018     0.00000 0.00000 0.00000 0.00000 0.00000 0.00000   10464   35.15   20.70  1.0000
   0   6  10   28310    4834     0.00000 0.00000 0.00000 0.00000 0.00000 0.00000   41249   23.47  -27.04  1.0000
   2   6  10   63813    7946     0.00000 0.00000 0.00000 0.00000 0.00000 0.00000   65223   20.27    9.26  1.0000
   4   6  10   39746    3031     0.00000 0.00000 0.00000 0.00000 0.00000 0.00000   43211  -49.96   -4.83  1.0000
   6   6  10   25377    2505     0.00000 0.00000 0.00000 0.00000 0.00000 0.00000   26943    4.72   -3.49  1.0000
   8   6  10    2304    1942     0.00000 0.00000 0.00000 0.00000 0.00000 0.00000    3377  -29.58  -13.55  1.0000
  10   6  10     577    2874     0.00000 0.00000 0.00000 0.00000 0.00000 0.00000    -809  -14.76  -19.33  1.0000
  12   6  10     994    2266     0.00000 0.00000 0.00000 0.00000 0.00000 0.00000   -2254   -8.06  -30.89  1.0000
  14   6  10    3094    2399     0.00000 0.00000 0.00000 0.00000 0.00000 0.00000    3125    1.28   -7.38  1.0000
  16   6  10    3843    3788     0.00000 0.00000 0.00000 0.00000 0.00000 0.00000    9491  -62.20  -39.76  1.0000
  18   6  10    7004    3851     0.00000 0.00000 0.00000 0.00000 0.00000 0.00000   17011   47.88  -17.98  1.0000
  20   6  10     192    4655     0.00000 0.00000 0.00000 0.00000 0.00000 0.00000     -62    9.89    9.94  1.0000
  22   6  10    4125    5335     0.00000 0.00000 0.00000 0.00000 0.00000 0.00000    5021    7.84    4.56  1.0000
  24   6  10   15970    4882     0.00000 0.00000 0.00000 0.00000 0.00000 0.00000   19145  -27.84    6.39  1.0000
   1   7  10    5983    1340     0.00000 0.00000 0.00000 0.00000 0.00000 0.00000    4000   -4.01  -14.18  1.0000
   3   7  10  100969    3339     0.00000 0.00000 0.00000 0.00000 0.00000 0.00000  103420  -24.49    1.69  1.0000
   5   7  10     430    1635     0.00000 0.00000 0.00000 0.00000 0.00000 0.00000    1223  -13.19  -10.76  1.0000
   7   7  10    3788    2049     0.00000 0.00000 0.00000 0.00000 0.00000 0.00000    6066   16.69    1.02  1.0000
   9   7  10   55837    3471     0.00000 0.00000 0.00000 0.00000 0.00000 0.00000   60406    8.23  -10.05  1.0000
  11   7  10   13485    2170     0.00000 0.00000 0.00000 0.00000 0.00000 0.00000   14058   11.35   21.39  1.0000
  13   7  10   26404    2506     0.00000 0.00000 0.00000 0.00000 0.00000 0.00000   20728  -24.81   27.28  1.0000
  15   7  10    5766    2962     0.00000 0.00000 0.00000 0.00000 0.00000 0.00000    4713    8.89    6.35  1.0000
  17   7  10    3015    3929     0.00000 0.00000 0.00000 0.00000 0.00000 0.00000    1987    3.53   16.71  1.0000
  19   7  10    8216    4602     0.00000 0.00000 0.00000 0.00000 0.00000 0.00000    8405   -0.60   -1.64  1.0000
  21   7  10    5481    6099     0.00000 0.00000 0.00000 0.00000 0.00000 0.00000    4367   -1.75    7.96  1.0000
  23   7  10     667    5136     0.00000 0.00000 0.00000 0.00000 0.00000 0.00000     335   -1.74   12.26  1.0000
   0   8  10   69743    4167     0.00000 0.00000 0.00000 0.00000 0.00000 0.00000   84127  -77.84  -22.83  1.0000
   2   8  10   41834    3783     0.00000 0.00000 0.00000 0.00000 0.00000 0.00000   55974   12.78   31.96  1.0000
   4   8  10    5592    1717     0.00000 0.00000 0.00000 0.00000 0.00000 0.00000    7158  -41.32   70.13  1.0000
   6   8  10    2340    1895     0.00000 0.00000 0.00000 0.00000 0.00000 0.00000    3014  -37.17   11.07  1.0000
   8   8  10   35504    3171     0.00000 0.00000 0.00000 0.00000 0.00000 0.00000   24069  -33.70   -0.08  1.0000
  10   8  10    3085    2060     0.00000 0.00000 0.00000 0.00000 0.00000 0.00000    6007  -20.80   31.38  1.0000
  12   8  10     494    2262     0.00000 0.00000 0.00000 0.00000 0.00000 0.00000    -242  -19.22  -11.70  1.0000
  14   8  10      23    2691     0.00000 0.00000 0.00000 0.00000 0.00000 0.00000    -796    4.87   -0.05  1.0000
  16   8  10    3607    3780     0.00000 0.00000 0.00000 0.00000 0.00000 0.00000    6147   17.46   35.01  1.0000
  18   8  10    2257    4129     0.00000 0.00000 0.00000 0.00000 0.00000 0.00000    8974   23.49  -44.31  1.0000
  20   8  10    3315    4978     0.00000 0.00000 0.00000 0.00000 0.00000 0.00000    1256  -14.76  -26.30  1.0000
  22   8  10    1807    5539     0.00000 0.00000 0.00000 0.00000 0.00000 0.00000    5266  -22.76   21.58  1.0000
   1   9  10   30774    2106     0.00000 0.00000 0.00000 0.00000 0.00000 0.00000   24461    1.48   19.28  1.0000
   3   9  10    1288    1777     0.00000 0.00000 0.00000 0.00000 0.00000 0.00000    4754  -23.30  -38.53  1.0000
   5   9  10   12121    2011     0.00000 0.00000 0.00000 0.00000 0.00000 0.00000   10177   19.91  -10.01  1.0000
   7   9  10   55333    4102     0.00000 0.00000 0.00000 0.00000 0.00000 0.00000   62600   11.63   14.12  1.0000
   9   9  10    2881    2315     0.00000 0.00000 0.00000 0.00000 0.00000 0.00000    2369    4.98   -1.36  1.0000
  11   9  10   28549    2408     0.00000 0.00000 0.00000 0.00000 0.00000 0.00000   38815   17.43   31.12  1.0000
  13   9  10   21571    3290     0.00000 0.00000 0.00000 0.00000 0.00000 0.00000   29186  -24.45   -1.67  1.0000
  15   9  10      95    4410     0.00000 0.00000 0.00000 0.00000 0.00000 0.00000   -1189   -7.42    6.49  1.0000
  17   9  10    3581    4681     0.00000 0.00000 0.00000 0.00000 0.00000 0.00000    2114   18.08   10.56  1.0000
  19   9  10    9019    4689     0.00000 0.00000 0.00000 0.00000 0.00000 0.00000   10961    4.86    9.43  1.0000
  21   9  10    8825    5516     0.00000 0.00000 0.00000 0.00000 0.00000 0.00000    8781   -2.40   -1.57  1.0000
  23   9  10    5597    5425     0.00000 0.00000 0.00000 0.00000 0.00000 0.00000    6535  -12.41    2.28  1.0000
   0  10  10    1294    2423     0.00000 0.00000 0.00000 0.00000 0.00000 0.00000    2472    3.83   21.27  1.0000
   2  10  10    2218    1975     0.00000 0.00000 0.00000 0.00000 0.00000 0.00000    2491    1.73    5.43  1.0000
   4  10  10   13585    2148     0.00000 0.00000 0.00000 0.00000 0.00000 0.00000   18385  -11.04  -16.05  1.0000
   6  10  10    1400    2312     0.00000 0.00000 0.00000 0.00000 0.00000 0.00000    3142  -10.35   20.85  1.0000
   8  10  10    3537    2256     0.00000 0.00000 0.00000 0.00000 0.00000 0.00000    6743  -15.66  -30.42  1.0000
  10  10  10    4395    2290     0.00000 0.00000 0.00000 0.00000 0.00000 0.00000    3303   -8.93    0.08  1.0000
  12  10  10     565    2354     0.00000 0.00000 0.00000 0.00000 0.00000 0.00000   -2733    7.83  -22.76  1.0000
  14  10  10    4315    2917     0.00000 0.00000 0.00000 0.00000 0.00000 0.00000    3636   11.43   -5.51  1.0000
  16  10  10    7013    4408     0.00000 0.00000 0.00000 0.00000 0.00000 0.00000    9544  -12.54    7.89  1.0000
  18  10  10     162    4296     0.00000 0.00000 0.00000 0.00000 0.00000 0.00000    -493  -10.96    6.77  1.0000
  20  10  10     442    4896     0.00000 0.00000 0.00000 0.00000 0.00000 0.00000    -436   14.84   15.26  1.0000
  22  10  10     458    5399     0.00000 0.00000 0.00000 0.00000 0.00000 0.00000   -4387  -17.33   13.01  1.0000
   1  11  10   57871    2670     0.00000 0.00000 0.00000 0.00000 0.00000 0.00000   58346    3.09    1.09  1.0000
   3  11  10   17433    2100     0.00000 0.00000 0.00000 0.00000 0.00000 0.00000   19579  -34.63  -11.93  1.0000
   5  11  10     255    2386     0.00000 0.00000 0.00000 0.00000 0.00000 0.00000    -205  -12.01   10.82  1.0000
   7  11  10   15817    2188     0.00000 0.00000 0.00000 0.00000 0.00000 0.00000   16971   14.62  -23.33  1.0000
   9  11  10   24695    2601     0.00000 0.00000 0.00000 0.00000 0.00000 0.00000   33724   14.04  -30.95  1.0000
  11  11  10   18689    2582     0.00000 0.00000 0.00000 0.00000 0.00000 0.00000   26060  -25.01    1.62  1.0000
  13  11  10   10688    2865     0.00000 0.00000 0.00000 0.00000 0.00000 0.00000   10133   -5.14    8.87  1.0000
  15  11  10   13147    4124     0.00000 0.00000 0.00000 0.00000 0.00000 0.00000    9209   19.68    2.29  1.0000
  17  11  10    2487    4268     0.00000 0.00000 0.00000 0.00000 0.00000 0.00000    1409   -1.62   20.58  1.0000
  19  11  10    4035    4905     0.00000 0.00000 0.00000 0.00000 0.00000 0.00000    3150  -26.56    9.56  1.0000
  21  11  10    8963    5292     0.00000 0.00000 0.00000 0.00000 0.00000 0.00000    8257    4.67    7.94  1.0000
   0  12  10   44681    4938     0.00000 0.00000 0.00000 0.00000 0.00000 0.00000   60999   23.04   40.33  1.0000
   2  12  10    3532    2159     0.00000 0.00000 0.00000 0.00000 0.00000 0.00000    3962  -25.10   -2.59  1.0000
   4  12  10   37469    2507     0.00000 0.00000 0.00000 0.00000 0.00000 0.00000   26948  -14.01  -29.69  1.0000
   6  12  10     938    2785     0.00000 0.00000 0.00000 0.00000 0.00000 0.00000   -1691   -4.79   30.63  1.0000
   8  12  10     874    2529     0.00000 0.00000 0.00000 0.00000 0.00000 0.00000      34  -21.26   11.34  1.0000
  10  12  10    3760    2557     0.00000 0.00000 0.00000 0.00000 0.00000 0.00000    2386    7.96   24.24  1.0000
  12  12  10     374    3081     0.00000 0.00000 0.00000 0.00000 0.00000 0.00000    1112  -14.14    0.93  1.0000
  14  12  10     688    3777     0.00000 0.00000 0.00000 0.00000 0.00000 0.00000   -1438   26.03   -5.28  1.0000
  16  12  10     974    4071     0.00000 0.00000 0.00000 0.00000 0.00000 0.00000    3011   15.87  -24.83  1.0000
  18  12  10      99    4417     0.00000 0.00000 0.00000 0.00000 0.00000 0.00000    -787    9.96    1.46  1.0000
  20  12  10     365    4703     0.00000 0.00000 0.00000 0.00000 0.00000 0.00000   -5127   17.99   -7.12  1.0000
  22  12  10    4321    6098     0.00000 0.00000 0.00000 0.00000 0.00000 0.00000    6784  -13.25  -10.79  1.0000
   1  13  10   55623    3041     0.00000 0.00000 0.00000 0.00000 0.00000 0.00000   65471  -16.61  -15.73  1.0000
   3  13  10    6852    2404     0.00000 0.00000 0.00000 0.00000 0.00000 0.00000    5566   36.61   43.92  1.0000
   5  13  10    9179    2384     0.00000 0.00000 0.00000 0.00000 0.00000 0.00000   10202  -17.96   -8.30  1.0000
   7  13  10   20130    2565     0.00000 0.00000 0.00000 0.00000 0.00000 0.00000   14135  -27.11  -31.55  1.0000
   9  13  10   23843    3244     0.00000 0.00000 0.00000 0.00000 0.00000 0.00000   31031  -22.43    2.04  1.0000
  11  13  10    8977    3181     0.00000 0.00000 0.00000 0.00000 0.00000 0.00000    8271   -6.59   -9.55  1.0000
  13  13  10   27877    3760     0.00000 0.00000 0.00000 0.00000 0.00000 0.00000   21593   20.33   -1.35  1.0000
  15  13  10    3189    4364     0.00000 0.00000 0.00000 0.00000 0.00000 0.00000    5783   21.39    8.50  1.0000
  17  13  10    2771    4875     0.00000 0.00000 0.00000 0.00000 0.00000 0.00000    4807   18.24   37.91  1.0000
  19  13  10      80    5555     0.00000 0.00000 0.00000 0.00000 0.00000 0.00000   -1437    4.99    7.54  1.0000
  21  13  10     556    6263     0.00000 0.00000 0.00000 0.00000 0.00000 0.00000   -9394   -6.79  -22.90  1.0000
   0  14  10  103028    4757     0.00000 0.00000 0.00000 0.00000 0.00000 0.00000   91612    2.82   19.71  1.0000
   2  14  10   24545    3579     0.00000 0.00000 0.00000 0.00000 0.00000 0.00000   29229  -30.55  -12.10  1.0000
   4  14  10    2955    2738     0.00000 0.00000 0.00000 0.00000 0.00000 0.00000     654   32.67   13.65  1.0000
   6  14  10      53    2545     0.00000 0.00000 0.00000 0.00000 0.00000 0.00000    -912    1.84    7.13  1.0000
   8  14  10      19    2740     0.00000 0.00000 0.00000 0.00000 0.00000 0.00000    -660    4.37    0.80  1.0000
  10  14  10     123    2995     0.00000 0.00000 0.00000 0.00000 0.00000 0.00000   -3211   10.37    4.32  1.0000
  12  14  10     710    3384     0.00000 0.00000 0.00000 0.00000 0.00000 0.00000   -2610   26.46    5.23  1.0000
  14  14  10     639    4289     0.00000 0.00000 0.00000 0.00000 0.00000 0.00000   -6434   25.59    0.30  1.0000
  16  14  10     149    4880     0.00000 0.00000 0.00000 0.00000 0.00000 0.00000   -3285   12.17    2.13  1.0000
  18  14  10      84    5426     0.00000 0.00000 0.00000 0.00000 0.00000 0.00000   -5164    6.49    6.64  1.0000
  20  14  10      21    5948     0.00000 0.00000 0.00000 0.00000 0.00000 0.00000   -8922    4.30    1.60  1.0000
   1  15  10    8409    2455     0.00000 0.00000 0.00000 0.00000 0.00000 0.00000    5462   -2.96  -18.92  1.0000
   3  15  10    5419    2686     0.00000 0.00000 0.00000 0.00000 0.00000 0.00000    4579    5.78   -8.42  1.0000
   5  15  10     914    2507     0.00000 0.00000 0.00000 0.00000 0.00000 0.00000    1277  -13.10  -14.68  1.0000
   7  15  10    2095    3172     0.00000 0.00000 0.00000 0.00000 0.00000 0.00000    1492    9.20   -6.49  1.0000
   9  15  10      76    4786     0.00000 0.00000 0.00000 0.00000 0.00000 0.00000   -3987   -7.28   -4.95  1.0000
  11  15  10    6815    3973     0.00000 0.00000 0.00000 0.00000 0.00000 0.00000    4029   20.04   -3.52  1.0000
  13  15  10    5909    3847     0.00000 0.00000 0.00000 0.00000 0.00000 0.00000    9391   22.26   -9.51  1.0000
  15  15  10     602    4631     0.00000 0.00000 0.00000 0.00000 0.00000 0.00000   -4972   24.83   -0.39  1.0000
  17  15  10     539    6063     0.00000 0.00000 0.00000 0.00000 0.00000 0.00000   -4173  -21.85    8.68  1.0000
  19  15  10     817    5827     0.00000 0.00000 0.00000 0.00000 0.00000 0.00000     716  -18.58    4.55  1.0000
   0  16  10    4749    4000     0.00000 0.00000 0.00000 0.00000 0.00000 0.00000    7407   54.56    1.50  1.0000
   2  16  10   15515    3142     0.00000 0.00000 0.00000 0.00000 0.00000 0.00000   13891   -5.97   -4.40  1.0000
   4  16  10    9607    2431     0.00000 0.00000 0.00000 0.00000 0.00000 0.00000    9757   -0.86    1.22  1.0000
   6  16  10    2751    4393     0.00000 0.00000 0.00000 0.00000 0.00000 0.00000    6721  -61.60   38.46  1.0000
   8  16  10    1466    3045     0.00000 0.00000 0.00000 0.00000 0.00000 0.00000    -330   16.84  -34.91  1.0000
  10  16  10    1230    3330     0.00000 0.00000 0.00000 0.00000 0.00000 0.00000    2416  -11.87   -9.29  1.0000
  12  16  10      82    3697     0.00000 0.00000 0.00000 0.00000 0.00000 0.00000     719   15.30   23.58  1.0000
  14  16  10    1646    4448     0.00000 0.00000 0.00000 0.00000 0.00000 0.00000    2784   12.50   -1.97  1.0000
  16  16  10     168    5601     0.00000 0.00000 0.00000 0.00000 0.00000 0.00000   -4014  -13.09    0.63  1.0000
  18  16  10      48    5589     0.00000 0.00000 0.00000 0.00000 0.00000 0.00000    2044   13.24  -38.90  1.0000
   1  17  10   22782    3216     0.00000 0.00000 0.00000 0.00000 0.00000 0.00000   20542   -4.00    6.95  1.0000
   3  17  10    1926    2675     0.00000 0.00000 0.00000 0.00000 0.00000 0.00000    5235    9.16  -35.59  1.0000
   5  17  10     248    3368     0.00000 0.00000 0.00000 0.00000 0.00000 0.00000    1050   -4.65  -18.87  1.0000
   7  17  10     264    2960     0.00000 0.00000 0.00000 0.00000 0.00000 0.00000    -686    1.86  -16.35  1.0000
   9  17  10    2144    3327     0.00000 0.00000 0.00000 0.00000 0.00000 0.00000    1294   17.02  -10.11  1.0000
  11  17  10     367    3899     0.00000 0.00000 0.00000 0.00000 0.00000 0.00000   -3288   -1.93  -19.29  1.0000
  13  17  10    3947    4583     0.00000 0.00000 0.00000 0.00000 0.00000 0.00000    7030   18.05  -37.14  1.0000
  15  17  10     535    4945     0.00000 0.00000 0.00000 0.00000 0.00000 0.00000   -3153  -21.65   -8.95  1.0000
  17  17  10     264    5804     0.00000 0.00000 0.00000 0.00000 0.00000 0.00000   -1810   16.46    0.18  1.0000
   0  18  10   73032    5581     0.00000 0.00000 0.00000 0.00000 0.00000 0.00000   83496    5.80  -21.65  1.0000
   2  18  10    3385    2948     0.00000 0.00000 0.00000 0.00000 0.00000 0.00000    3020  -27.19   28.85  1.0000
   4  18  10    5298    3014     0.00000 0.00000 0.00000 0.00000 0.00000 0.00000    3137   34.11   -4.95  1.0000
   6  18  10    2568    2989     0.00000 0.00000 0.00000 0.00000 0.00000 0.00000    8591   46.99   19.71  1.0000
   8  18  10     361    3333     0.00000 0.00000 0.00000 0.00000 0.00000 0.00000    4197   22.32   45.24  1.0000
  10  18  10    3189    3860     0.00000 0.00000 0.00000 0.00000 0.00000 0.00000    2253  -11.10   -6.05  1.0000
  12  18  10     104    4166     0.00000 0.00000 0.00000 0.00000 0.00000 0.00000     -14   10.16   -1.81  1.0000
  14  18  10    1452    4979     0.00000 0.00000 0.00000 0.00000 0.00000 0.00000    1683    6.39   -6.51  1.0000
  16  18  10    6459    5879     0.00000 0.00000 0.00000 0.00000 0.00000 0.00000   14381   12.50   38.68  1.0000
   1  19  10    3760    3430     0.00000 0.00000 0.00000 0.00000 0.00000 0.00000    8650  -30.65    9.72  1.0000
   3  19  10   11419    3268     0.00000 0.00000 0.00000 0.00000 0.00000 0.00000   11160   11.73   -3.78  1.0000
   5  19  10    6497    3277     0.00000 0.00000 0.00000 0.00000 0.00000 0.00000    5584    6.25    3.69  1.0000
   7  19  10    6594    3177     0.00000 0.00000 0.00000 0.00000 0.00000 0.00000    6780   -0.24    1.41  1.0000
   9  19  10    6168    3721     0.00000 0.00000 0.00000 0.00000 0.00000 0.00000    7918    5.72  -10.26  1.0000
  11  19  10   14548    4392     0.00000 0.00000 0.00000 0.00000 0.00000 0.00000   13089  -28.41   -9.72  1.0000
  13  19  10    3459    5531     0.00000 0.00000 0.00000 0.00000 0.00000 0.00000    4295    5.20   -8.00  1.0000
  15  19  10    5536    5599     0.00000 0.00000 0.00000 0.00000 0.00000 0.00000    5622  -17.85   -4.02  1.0000
   0  20  10    1086    5376     0.00000 0.00000 0.00000 0.00000 0.00000 0.00000    7674   76.02  -31.76  1.0000
   2  20  10   14917    3395     0.00000 0.00000 0.00000 0.00000 0.00000 0.00000   17182   27.75    3.98  1.0000
   4  20  10     261    3304     0.00000 0.00000 0.00000 0.00000 0.00000 0.00000     269   -1.89   -0.27  1.0000
   6  20  10    1790    3286     0.00000 0.00000 0.00000 0.00000 0.00000 0.00000    1105   10.36  -10.51  1.0000
   8  20  10    5022    3710     0.00000 0.00000 0.00000 0.00000 0.00000 0.00000    2206  -13.41   26.31  1.0000
  10  20  10    3308    4538     0.00000 0.00000 0.00000 0.00000 0.00000 0.00000    3152   16.20  -15.13  1.0000
  12  20  10    5094    5413     0.00000 0.00000 0.00000 0.00000 0.00000 0.00000    7945   18.60    7.17  1.0000
  14  20  10      20    5640     0.00000 0.00000 0.00000 0.00000 0.00000 0.00000   -1291    4.31   -1.56  1.0000
   1  21  10    1526    4185     0.00000 0.00000 0.00000 0.00000 0.00000 0.00000    6144    0.59  -43.98  1.0000
   3  21  10    4920    3548     0.00000 0.00000 0.00000 0.00000 0.00000 0.00000    5248  -43.14   19.41  1.0000
   5  21  10    3448    3439     0.00000 0.00000 0.00000 0.00000 0.00000 0.00000    2442  -23.19   12.15  1.0000
   7  21  10    8522    3853     0.00000 0.00000 0.00000 0.00000 0.00000 0.00000    7215   -1.40   -7.39  1.0000
   9  21  10   18511    4530     0.00000 0.00000 0.00000 0.00000 0.00000 0.00000   18282   -1.86    1.72  1.0000
  11  21  10   11433    5315     0.00000 0.00000 0.00000 0.00000 0.00000 0.00000   10344    4.33   -8.27  1.0000
  13  21  10     548    5508     0.00000 0.00000 0.00000 0.00000 0.00000 0.00000    -797   -6.35   22.83  1.0000
   0  22  10   45414    5810     0.00000 0.00000 0.00000 0.00000 0.00000 0.00000   46123    4.89   -2.61  1.0000
   2  22  10   14831    3750     0.00000 0.00000 0.00000 0.00000 0.00000 0.00000   20357   29.61    6.73  1.0000
   4  22  10   13344    3957     0.00000 0.00000 0.00000 0.00000 0.00000 0.00000   15091    9.13  -11.09  1.0000
   6  22  10     634    4296     0.00000 0.00000 0.00000 0.00000 0.00000 0.00000     838    8.69   -4.98  1.0000
   8  22  10     271    4519     0.00000 0.00000 0.00000 0.00000 0.00000 0.00000    2008  -23.93  -20.86  1.0000
  10  22  10    3304    5192     0.00000 0.00000 0.00000 0.00000 0.00000 0.00000    5586  -16.51  -13.34  1.0000
  12  22  10    1998    6070     0.00000 0.00000 0.00000 0.00000 0.00000 0.00000    3675  -13.39   10.24  1.0000
   1  23  10    3039    4257     0.00000 0.00000 0.00000 0.00000 0.00000 0.00000   10097   11.63  -52.88  1.0000
   3  23  10    1542    3792     0.00000 0.00000 0.00000 0.00000 0.00000 0.00000    7020  -41.39  -18.40  1.0000
   5  23  10    4008    3994     0.00000 0.00000 0.00000 0.00000 0.00000 0.00000    4295   32.37  -20.36  1.0000
   7  23  10     155    4341     0.00000 0.00000 0.00000 0.00000 0.00000 0.00000   -5432   -2.07  -12.42  1.0000
   9  23  10    2386    6035     0.00000 0.00000 0.00000 0.00000 0.00000 0.00000    2912  -12.85   -3.02  1.0000
   0  24  10     575    5271     0.00000 0.00000 0.00000 0.00000 0.00000 0.00000   11990  -73.94   45.13  1.0000
   2  24  10    4697    4584     0.00000 0.00000 0.00000 0.00000 0.00000 0.00000    8058  -33.83   14.17  1.0000
   4  24  10    1144    4162     0.00000 0.00000 0.00000 0.00000 0.00000 0.00000    8957  -32.70  -52.23  1.0000
   6  24  10    4374    5160     0.00000 0.00000 0.00000 0.00000 0.00000 0.00000    5498  -26.92   -6.31  1.0000
   1  25  10    2585    4547     0.00000 0.00000 0.00000 0.00000 0.00000 0.00000    7667   63.00   -1.74  1.0000
   3  25  10     484   15004     0.00000 0.00000 0.00000 0.00000 0.00000 0.00000   -9575   18.77   12.00  1.0000
   2   1  11   18498    2073     0.00000 0.00000 0.00000 0.00000 0.00000 0.00000   13899   25.49   96.91  1.0000
   4   1  11   34911    2776     0.00000 0.00000 0.00000 0.00000 0.00000 0.00000   33467  -17.39  -18.92  1.0000
   6   1  11   12050    1983     0.00000 0.00000 0.00000 0.00000 0.00000 0.00000   18813  -10.07   26.03  1.0000
   8   1  11  353474   11289     0.00000 0.00000 0.00000 0.00000 0.00000 0.00000  427190   24.81   55.50  1.0000
  10   1  11   16723    1650     0.00000 0.00000 0.00000 0.00000 0.00000 0.00000   18413   -6.59   10.52  1.0000
  12   1  11  203122    7015     0.00000 0.00000 0.00000 0.00000 0.00000 0.00000  245204    7.35   53.47  1.0000
  14   1  11    4762    2011     0.00000 0.00000 0.00000 0.00000 0.00000 0.00000    5355   -2.39   65.77  1.0000
  16   1  11    9079    2284     0.00000 0.00000 0.00000 0.00000 0.00000 0.00000    6795   12.40    4.37  1.0000
  18   1  11    4850    3203     0.00000 0.00000 0.00000 0.00000 0.00000 0.00000    6214  -29.48   -0.84  1.0000
  20   1  11    5748    3582     0.00000 0.00000 0.00000 0.00000 0.00000 0.00000    8664   52.50  -32.33  1.0000
  22   1  11    5282    4354     0.00000 0.00000 0.00000 0.00000 0.00000 0.00000   13536  -41.29   38.56  1.0000
  24   1  11    9562    5551     0.00000 0.00000 0.00000 0.00000 0.00000 0.00000   18338  -38.00  -11.29  1.0000
   1   2  11   17200    2639     0.00000 0.00000 0.00000 0.00000 0.00000 0.00000   13995  -26.12   96.74  1.0000
   3   2  11   72717    5048     0.00000 0.00000 0.00000 0.00000 0.00000 0.00000  144405  -55.12  103.35  1.0000
   5   2  11   75528    5495     0.00000 0.00000 0.00000 0.00000 0.00000 0.00000   58394   29.19  -40.71  1.0000
   7   2  11   48903    3627     0.00000 0.00000 0.00000 0.00000 0.00000 0.00000   76801   -5.41   57.12  1.0000
   9   2  11   83492    2696     0.00000 0.00000 0.00000 0.00000 0.00000 0.00000   74646  -13.42   -9.52  1.0000
  11   2  11    3846    1773     0.00000 0.00000 0.00000 0.00000 0.00000 0.00000    2553   -0.36  -25.53  1.0000
  13   2  11     753    1954     0.00000 0.00000 0.00000 0.00000 0.00000 0.00000    6198  -23.42   52.86  1.0000
  15   2  11     647    2309     0.00000 0.00000 0.00000 0.00000 0.00000 0.00000    -434   25.56   -3.16  1.0000
  17   2  11    4178    2777     0.00000 0.00000 0.00000 0.00000 0.00000 0.00000    3772   -4.92   15.47  1.0000
  19   2  11    6268    3859     0.00000 0.00000 0.00000 0.00000 0.00000 0.00000    7597   -2.15   -8.07  1.0000
  21   2  11    3152    3856     0.00000 0.00000 0.00000 0.00000 0.00000 0.00000    5520    1.30  -25.63  1.0000
  23   2  11    3350    4404     0.00000 0.00000 0.00000 0.00000 0.00000 0.00000   12567   -4.83   65.81  1.0000
  25   2  11    3606   10137     0.00000 0.00000 0.00000 0.00000 0.00000 0.00000   16116  -69.72    2.68  1.0000
   2   3  11   74762    7429     0.00000 0.00000 0.00000 0.00000 0.00000 0.00000  146299   56.02  102.59  1.0000
   4   3  11  151328    5056     0.00000 0.00000 0.00000 0.00000 0.00000 0.00000  133196  -37.89   -6.49  1.0000
   6   3  11    3537    1738     0.00000 0.00000 0.00000 0.00000 0.00000 0.00000    9664  -37.15   62.94  1.0000
   8   3  11   40561    1966     0.00000 0.00000 0.00000 0.00000 0.00000 0.00000   29038   10.14   48.39  1.0000
  10   3  11   34979    1838     0.00000 0.00000 0.00000 0.00000 0.00000 0.00000   30141   13.06    7.99  1.0000
  12   3  11  211162    5079     0.00000 0.00000 0.00000 0.00000 0.00000 0.00000  203187    6.00    6.53  1.0000
  14   3  11    9601    2342     0.00000 0.00000 0.00000 0.00000 0.00000 0.00000    5179  -32.35    6.42  1.0000
  16   3  11     144    2691     0.00000 0.00000 0.00000 0.00000 0.00000 0.00000   -1196    9.85    7.11  1.0000
  18   3  11     738    3606     0.00000 0.00000 0.00000 0.00000 0.00000 0.00000    4074  -53.20   34.14  1.0000
  20   3  11    4359    4192     0.00000 0.00000 0.00000 0.00000 0.00000 0.00000    7408   33.29  -27.83  1.0000
  22   3  11    1912    4173     0.00000 0.00000 0.00000 0.00000 0.00000 0.00000    7992  -42.33   18.73  1.0000
  24   3  11    4629    4618     0.00000 0.00000 0.00000 0.00000 0.00000 0.00000   17425   73.13  -89.14  1.0000
   1   4  11   29650    3512     0.00000 0.00000 0.00000 0.00000 0.00000 0.00000   27290   16.06  -18.77  1.0000
   3   4  11  145553    5966     0.00000 0.00000 0.00000 0.00000 0.00000 0.00000  127930   38.42   -5.89  1.0000
   5   4  11  128073    6211     0.00000 0.00000 0.00000 0.00000 0.00000 0.00000  177306   69.84  -29.16  1.0000
   7   4  11   11051    2733     0.00000 0.00000 0.00000 0.00000 0.00000 0.00000   12850   -0.75   -9.98  1.0000
   9   4  11   28935    1992     0.00000 0.00000 0.00000 0.00000 0.00000 0.00000   18585   29.24   20.87  1.0000
  11   4  11   67077    3686     0.00000 0.00000 0.00000 0.00000 0.00000 0.00000   67478   15.89   -9.35  1.0000
  13   4  11     436    2266     0.00000 0.00000 0.00000 0.00000 0.00000 0.00000     509   -1.74   -2.00  1.0000
  15   4  11    4878    2450     0.00000 0.00000 0.00000 0.00000 0.00000 0.00000    5204  -11.62  -33.82  1.0000
  17   4  11    4570    2998     0.00000 0.00000 0.00000 0.00000 0.00000 0.00000    3175  -10.86   -8.03  1.0000
  19   4  11    4759    4038     0.00000 0.00000 0.00000 0.00000 0.00000 0.00000    5212    6.46   -8.95  1.0000
  21   4  11    6290    4221     0.00000 0.00000 0.00000 0.00000 0.00000 0.00000    8591   21.76  -20.55  1.0000
  23   4  11    7358    4436     0.00000 0.00000 0.00000 0.00000 0.00000 0.00000    9977   36.75   41.14  1.0000
   2   5  11   84208    4749     0.00000 0.00000 0.00000 0.00000 0.00000 0.00000   66452  -31.83  -41.67  1.0000
   4   5  11  125918    5735     0.00000 0.00000 0.00000 0.00000 0.00000 0.00000  173288  -67.98  -30.24  1.0000
   6   5  11   20200    2978     0.00000 0.00000 0.00000 0.00000 0.00000 0.00000   41263  -27.18  114.69  1.0000
   8   5  11   16947    1992     0.00000 0.00000 0.00000 0.00000 0.00000 0.00000   12849  -27.68   12.04  1.0000
  10   5  11   22479    2267     0.00000 0.00000 0.00000 0.00000 0.00000 0.00000   24233   21.67  -20.34  1.0000
  12   5  11   75869    3145     0.00000 0.00000 0.00000 0.00000 0.00000 0.00000   90090   24.22    8.84  1.0000
  14   5  11     305    2298     0.00000 0.00000 0.00000 0.00000 0.00000 0.00000     -98   12.58  -12.42  1.0000
  16   5  11    2765    3033     0.00000 0.00000 0.00000 0.00000 0.00000 0.00000    5511   13.50   18.44  1.0000
  18   5  11    3071    3862     0.00000 0.00000 0.00000 0.00000 0.00000 0.00000    3039  -13.14   -0.81  1.0000
  20   5  11     177    4090     0.00000 0.00000 0.00000 0.00000 0.00000 0.00000    4502   40.05  -41.55  1.0000
  22   5  11    3006    5222     0.00000 0.00000 0.00000 0.00000 0.00000 0.00000    6973   14.97   32.00  1.0000
  24   5  11    2983    5244     0.00000 0.00000 0.00000 0.00000 0.00000 0.00000    2279   17.86  -30.72  1.0000
   1   6  11    9620    2273     0.00000 0.00000 0.00000 0.00000 0.00000 0.00000   15810   10.47   26.25  1.0000
   3   6  11    5757    1715     0.00000 0.00000 0.00000 0.00000 0.00000 0.00000    9187   38.38   61.29  1.0000
   5   6  11   18540    2053     0.00000 0.00000 0.00000 0.00000 0.00000 0.00000   39036   25.71  114.28  1.0000
   7   6  11   18649    1860     0.00000 0.00000 0.00000 0.00000 0.00000 0.00000   17249  -41.44    7.61  1.0000
   9   6  11   45628    3013     0.00000 0.00000 0.00000 0.00000 0.00000 0.00000   52321   19.22  -12.36  1.0000
  11   6  11   55526    2832     0.00000 0.00000 0.00000 0.00000 0.00000 0.00000   48966    9.45  -30.22  1.0000
  13   6  11    5983    2391     0.00000 0.00000 0.00000 0.00000 0.00000 0.00000    2686   -6.79  -27.88  1.0000
  15   6  11    1446    2397     0.00000 0.00000 0.00000 0.00000 0.00000 0.00000     662   14.43    2.26  1.0000
  17   6  11    8134    3549     0.00000 0.00000 0.00000 0.00000 0.00000 0.00000    9932   41.81   -4.21  1.0000
  19   6  11    5494    4304     0.00000 0.00000 0.00000 0.00000 0.00000 0.00000    5135    2.01   17.81  1.0000
  21   6  11     183    6063     0.00000 0.00000 0.00000 0.00000 0.00000 0.00000   -3701   -8.73   10.54  1.0000
  23   6  11    3248    5606     0.00000 0.00000 0.00000 0.00000 0.00000 0.00000   10362  -24.02   39.65  1.0000
   2   7  11   47635    2610     0.00000 0.00000 0.00000 0.00000 0.00000 0.00000   75257    4.66   57.16  1.0000
   4   7  11    7933    1616     0.00000 0.00000 0.00000 0.00000 0.00000 0.00000    9727    1.83  -11.69  1.0000
   6   7  11   19109    1871     0.00000 0.00000 0.00000 0.00000 0.00000 0.00000   17397   37.07    5.99  1.0000
   8   7  11   23927    2241     0.00000 0.00000 0.00000 0.00000 0.00000 0.00000   22580  -14.40    4.24  1.0000
  10   7  11     530    2545     0.00000 0.00000 0.00000 0.00000 0.00000 0.00000    3008  -29.50  -20.31  1.0000
  12   7  11   26434    2524     0.00000 0.00000 0.00000 0.00000 0.00000 0.00000   37651  -27.37  -21.20  1.0000
  14   7  11    8513    2643     0.00000 0.00000 0.00000 0.00000 0.00000 0.00000    8509   11.99   -8.77  1.0000
  16   7  11    1557    3374     0.00000 0.00000 0.00000 0.00000 0.00000 0.00000    2389   -2.61  -10.62  1.0000
  18   7  11     319    4689     0.00000 0.00000 0.00000 0.00000 0.00000 0.00000   -1017  -11.50  -13.94  1.0000
  20   7  11    1364    4993     0.00000 0.00000 0.00000 0.00000 0.00000 0.00000    2976  -17.37   12.98  1.0000
  22   7  11    3707    5431     0.00000 0.00000 0.00000 0.00000 0.00000 0.00000    1275    2.94   32.70  1.0000
  24   7  11    8901    7287     0.00000 0.00000 0.00000 0.00000 0.00000 0.00000   11455  -12.28  -11.80  1.0000
   1   8  11  362615   10446     0.00000 0.00000 0.00000 0.00000 0.00000 0.00000  438271  -23.86   57.17  1.0000
   3   8  11   40386    2498     0.00000 0.00000 0.00000 0.00000 0.00000 0.00000   32313  -10.33   46.90  1.0000
   5   8  11   19841    1886     0.00000 0.00000 0.00000 0.00000 0.00000 0.00000   15107   27.18   11.62  1.0000
   7   8  11   24298    2622     0.00000 0.00000 0.00000 0.00000 0.00000 0.00000   22574   13.07    5.37  1.0000
   9   8  11   24639    2717     0.00000 0.00000 0.00000 0.00000 0.00000 0.00000   24347   18.34   -7.73  1.0000
  11   8  11   29462    2602     0.00000 0.00000 0.00000 0.00000 0.00000 0.00000   27143    4.01    5.72  1.0000
  13   8  11    8518    2608     0.00000 0.00000 0.00000 0.00000 0.00000 0.00000    6677    4.52   12.26  1.0000
  15   8  11    8802    2910     0.00000 0.00000 0.00000 0.00000 0.00000 0.00000    6754   15.03   -2.80  1.0000
  17   8  11   17042    4806     0.00000 0.00000 0.00000 0.00000 0.00000 0.00000   17018  -24.86  -31.85  1.0000
  19   8  11   14535    4543     0.00000 0.00000 0.00000 0.00000 0.00000 0.00000   14183   -1.26   -1.74  1.0000
  21   8  11   13515    5315     0.00000 0.00000 0.00000 0.00000 0.00000 0.00000   16212    7.91   -7.99  1.0000
  23   8  11      50    5342     0.00000 0.00000 0.00000 0.00000 0.00000 0.00000   -5349    1.02    7.09  1.0000
   2   9  11   86399    3056     0.00000 0.00000 0.00000 0.00000 0.00000 0.00000   77239   13.26   -9.88  1.0000
   4   9  11   33103    2038     0.00000 0.00000 0.00000 0.00000 0.00000 0.00000   21516  -29.13   22.49  1.0000
   6   9  11   44634    3803     0.00000 0.00000 0.00000 0.00000 0.00000 0.00000   51791  -18.28   -7.85  1.0000
   8   9  11   27837    2545     0.00000 0.00000 0.00000 0.00000 0.00000 0.00000   27127  -18.45   -7.50  1.0000
  10   9  11   17931    2482     0.00000 0.00000 0.00000 0.00000 0.00000 0.00000   16706    1.46   13.08  1.0000
  12   9  11   20587    2622     0.00000 0.00000 0.00000 0.00000 0.00000 0.00000   21109    2.05    5.81  1.0000
  14   9  11   24619    2988     0.00000 0.00000 0.00000 0.00000 0.00000 0.00000   20370   13.24    9.12  1.0000
  16   9  11    1877    4114     0.00000 0.00000 0.00000 0.00000 0.00000 0.00000    3853    6.41  -21.45  1.0000
  18   9  11    4305    4338     0.00000 0.00000 0.00000 0.00000 0.00000 0.00000    1450    8.30   31.83  1.0000
  20   9  11    9080    5614     0.00000 0.00000 0.00000 0.00000 0.00000 0.00000   11871  -12.26    8.39  1.0000
  22   9  11    2919    5928     0.00000 0.00000 0.00000 0.00000 0.00000 0.00000    5295    6.59  -17.93  1.0000
   1  10  11   18219    1959     0.00000 0.00000 0.00000 0.00000 0.00000 0.00000   19695    7.77   11.68  1.0000
   3  10  11   32641    2304     0.00000 0.00000 0.00000 0.00000 0.00000 0.00000   27879  -13.67    7.94  1.0000
   5  10  11   19798    2471     0.00000 0.00000 0.00000 0.00000 0.00000 0.00000   22116  -20.49  -19.06  1.0000
   9  10  11   10716    2288     0.00000 0.00000 0.00000 0.00000 0.00000 0.00000   11219   -1.43   13.46  1.0000
  11  10  11   21882    2391     0.00000 0.00000 0.00000 0.00000 0.00000 0.00000   21974  -14.36    6.57  1.0000
  13  10  11    4215    3055     0.00000 0.00000 0.00000 0.00000 0.00000 0.00000    3278   -5.84   -5.48  1.0000
  15  10  11   11925    3694     0.00000 0.00000 0.00000 0.00000 0.00000 0.00000   11536  -12.33  -30.09  1.0000
  17  10  11   20093    4119     0.00000 0.00000 0.00000 0.00000 0.00000 0.00000   18003   -5.28    5.95  1.0000
  19  10  11   15223    4488     0.00000 0.00000 0.00000 0.00000 0.00000 0.00000   10382   24.16   22.09  1.0000
  21  10  11    2830    5107     0.00000 0.00000 0.00000 0.00000 0.00000 0.00000    8721   17.55   43.44  1.0000
  23  10  11    4120   15856     0.00000 0.00000 0.00000 0.00000 0.00000 0.00000    9685   34.60   -1.85  1.0000
   2  11  11    1260    2058     0.00000 0.00000 0.00000 0.00000 0.00000 0.00000     568    1.04  -23.47  1.0000
   4  11  11   69010    3237     0.00000 0.00000 0.00000 0.00000 0.00000 0.00000   69140  -16.72   -9.84  1.0000
   6  11  11   55812    2662     0.00000 0.00000 0.00000 0.00000 0.00000 0.00000   49262   -9.17  -31.47  1.0000
   8  11  11   29329    2483     0.00000 0.00000 0.00000 0.00000 0.00000 0.00000   27103   -3.34    6.01  1.0000
  10  11  11   15370    2437     0.00000 0.00000 0.00000 0.00000 0.00000 0.00000   15430   13.32    6.29  1.0000
  12  11  11   14853    3253     0.00000 0.00000 0.00000 0.00000 0.00000 0.00000   21095   12.15  -33.34  1.0000
  14  11  11   23130    3261     0.00000 0.00000 0.00000 0.00000 0.00000 0.00000   26863   21.43   14.24  1.0000
  16  11  11    5174    4230     0.00000 0.00000 0.00000 0.00000 0.00000 0.00000    4648   -4.76   12.52  1.0000
  18  11  11     963    4144     0.00000 0.00000 0.00000 0.00000 0.00000 0.00000   -1128   30.06    9.16  1.0000
  20  11  11    1837    5042     0.00000 0.00000 0.00000 0.00000 0.00000 0.00000    4333   15.54  -28.70  1.0000
  22  11  11     332    5152     0.00000 0.00000 0.00000 0.00000 0.00000 0.00000    3861  -39.14  -24.00  1.0000
   1  12  11  222116    6188     0.00000 0.00000 0.00000 0.00000 0.00000 0.00000  266259   -7.67   54.21  1.0000
   3  12  11  214190    5540     0.00000 0.00000 0.00000 0.00000 0.00000 0.00000  205765   -7.81    5.30  1.0000
   5  12  11   72058    3669     0.00000 0.00000 0.00000 0.00000 0.00000 0.00000   85525  -24.04    7.17  1.0000
   7  12  11   27611    2596     0.00000 0.00000 0.00000 0.00000 0.00000 0.00000   38946   27.17  -22.34  1.0000
   9  12  11   23430    2714     0.00000 0.00000 0.00000 0.00000 0.00000 0.00000   23209   -2.14    6.23  1.0000
  11  12  11   16172    3057     0.00000 0.00000 0.00000 0.00000 0.00000 0.00000   25161  -12.68  -33.01  1.0000
  13  12  11     626    3128     0.00000 0.00000 0.00000 0.00000 0.00000 0.00000     895   17.06   -6.72  1.0000
  15  12  11    4483    3902     0.00000 0.00000 0.00000 0.00000 0.00000 0.00000    9684  -36.29    7.82  1.0000
  17  12  11    4469    4253     0.00000 0.00000 0.00000 0.00000 0.00000 0.00000    9495   28.48   17.11  1.0000
  19  12  11    6948    4730     0.00000 0.00000 0.00000 0.00000 0.00000 0.00000    8952   -9.86    7.60  1.0000
  21  12  11    6481    5309     0.00000 0.00000 0.00000 0.00000 0.00000 0.00000    5550    7.87   22.62  1.0000
   2  13  11     622    3022     0.00000 0.00000 0.00000 0.00000 0.00000 0.00000    5998   24.16   54.63  1.0000
   4  13  11       8    2362     0.00000 0.00000 0.00000 0.00000 0.00000 0.00000   -2127    1.80   -2.34  1.0000
   6  13  11    3432    2715     0.00000 0.00000 0.00000 0.00000 0.00000 0.00000    1607    5.26  -27.28  1.0000
   8  13  11    3758    2714     0.00000 0.00000 0.00000 0.00000 0.00000 0.00000    2476   -3.17   12.39  1.0000
  10  13  11    8110    2900     0.00000 0.00000 0.00000 0.00000 0.00000 0.00000    7351    4.93   -8.73  1.0000
  12  13  11    1856    2845     0.00000 0.00000 0.00000 0.00000 0.00000 0.00000    2604  -17.44   -8.27  1.0000
  14  13  11    8994    7513     0.00000 0.00000 0.00000 0.00000 0.00000 0.00000    6314   15.18  -11.11  1.0000
  16  13  11    8783    5662     0.00000 0.00000 0.00000 0.00000 0.00000 0.00000    8601    3.13   17.82  1.0000
  18  13  11    1418    4505     0.00000 0.00000 0.00000 0.00000 0.00000 0.00000    3240  -18.03    7.82  1.0000
  20  13  11     197    4979     0.00000 0.00000 0.00000 0.00000 0.00000 0.00000   -4047   -1.71  -14.12  1.0000
   1  14  11    6281    2380     0.00000 0.00000 0.00000 0.00000 0.00000 0.00000    6179    2.19   64.70  1.0000
   3  14  11    6724    2428     0.00000 0.00000 0.00000 0.00000 0.00000 0.00000    2858   31.78    6.38  1.0000
   5  14  11     284    2662     0.00000 0.00000 0.00000 0.00000 0.00000 0.00000   -1898  -11.96  -12.19  1.0000
   7  14  11    5603    2703     0.00000 0.00000 0.00000 0.00000 0.00000 0.00000    5009   -9.06   -8.41  1.0000
   9  14  11   21750    2975     0.00000 0.00000 0.00000 0.00000 0.00000 0.00000   18152  -14.83    9.88  1.0000
  11  14  11   24008    3107     0.00000 0.00000 0.00000 0.00000 0.00000 0.00000   27827  -20.64   14.03  1.0000
  13  14  11     367   16065     0.00000 0.00000 0.00000 0.00000 0.00000 0.00000    -802  -14.99  -12.32  1.0000
  15  14  11     179    4677     0.00000 0.00000 0.00000 0.00000 0.00000 0.00000   -2658   -3.18  -13.16  1.0000
  17  14  11     439    5675     0.00000 0.00000 0.00000 0.00000 0.00000 0.00000   -5615   13.36   16.48  1.0000
  19  14  11     261    5606     0.00000 0.00000 0.00000 0.00000 0.00000 0.00000   -4968   -7.35   14.63  1.0000
   2  15  11     966    2303     0.00000 0.00000 0.00000 0.00000 0.00000 0.00000     257  -25.61   -3.78  1.0000
   4  15  11    4006    2973     0.00000 0.00000 0.00000 0.00000 0.00000 0.00000    4475   11.51  -33.39  1.0000
   6  15  11     227    2616     0.00000 0.00000 0.00000 0.00000 0.00000 0.00000    -476  -14.99    2.83  1.0000
   8  15  11    5825    3768     0.00000 0.00000 0.00000 0.00000 0.00000 0.00000    4408  -14.71   -3.19  1.0000
  10  15  11   13088    3068     0.00000 0.00000 0.00000 0.00000 0.00000 0.00000   10085   12.12  -29.92  1.0000
  12  15  11    5503    3979     0.00000 0.00000 0.00000 0.00000 0.00000 0.00000    9934   36.27    8.84  1.0000
  14  15  11     405    5062     0.00000 0.00000 0.00000 0.00000 0.00000 0.00000      64    3.31  -12.88  1.0000
  16  15  11    1597    5727     0.00000 0.00000 0.00000 0.00000 0.00000 0.00000   -5545  -39.05  -10.61  1.0000
  18  15  11      15    5532     0.00000 0.00000 0.00000 0.00000 0.00000 0.00000   -2017    3.93    0.13  1.0000
  20  15  11     214    7495     0.00000 0.00000 0.00000 0.00000 0.00000 0.00000   -5120   14.79   -0.42  1.0000
   1  16  11    2351    2964     0.00000 0.00000 0.00000 0.00000 0.00000 0.00000    1349  -11.95    2.94  1.0000
   3  16  11    1442    2489     0.00000 0.00000 0.00000 0.00000 0.00000 0.00000     808  -10.15    7.44  1.0000
   5  16  11     847    2766     0.00000 0.00000 0.00000 0.00000 0.00000 0.00000    2705  -17.18   15.59  1.0000
   7  16  11    5905    3237     0.00000 0.00000 0.00000 0.00000 0.00000 0.00000    7687    2.38  -11.08  1.0000
   9  16  11     899    3922     0.00000 0.00000 0.00000 0.00000 0.00000 0.00000    2602   -7.14  -20.50  1.0000
  11  16  11     205    3830     0.00000 0.00000 0.00000 0.00000 0.00000 0.00000     -73    4.79   13.67  1.0000
  13  16  11     298    4920     0.00000 0.00000 0.00000 0.00000 0.00000 0.00000   -5189   -2.80   17.26  1.0000
  15  16  11    4215    6046     0.00000 0.00000 0.00000 0.00000 0.00000 0.00000   10832   39.03   -9.76  1.0000
  17  16  11     374    5337     0.00000 0.00000 0.00000 0.00000 0.00000 0.00000   -8005  -17.24    9.26  1.0000
  19  16  11      72    6992     0.00000 0.00000 0.00000 0.00000 0.00000 0.00000   -1436   -4.57   -7.27  1.0000
   2  17  11    5952    2833     0.00000 0.00000 0.00000 0.00000 0.00000 0.00000    5959    5.03   15.03  1.0000
   4  17  11    4410    2709     0.00000 0.00000 0.00000 0.00000 0.00000 0.00000    2913   12.12   -8.41  1.0000
   6  17  11    3697    2913     0.00000 0.00000 0.00000 0.00000 0.00000 0.00000    4140  -40.52   -4.06  1.0000
   8  17  11   12473    3415     0.00000 0.00000 0.00000 0.00000 0.00000 0.00000   14830   25.32  -32.32  1.0000
  10  17  11   12840    3479     0.00000 0.00000 0.00000 0.00000 0.00000 0.00000   11345    4.77    5.62  1.0000
  12  17  11   15148    4577     0.00000 0.00000 0.00000 0.00000 0.00000 0.00000   21327  -28.10   17.04  1.0000
  14  17  11     417    5626     0.00000 0.00000 0.00000 0.00000 0.00000 0.00000    -189  -13.10   16.00  1.0000
  16  17  11     345    5650     0.00000 0.00000 0.00000 0.00000 0.00000 0.00000   -1799   16.40    9.22  1.0000
  18  17  11      78    6316     0.00000 0.00000 0.00000 0.00000 0.00000 0.00000   -4727   -8.16   -3.64  1.0000
   1  18  11    1912    3162     0.00000 0.00000 0.00000 0.00000 0.00000 0.00000    2935   29.16   -1.45  1.0000
   3  18  11     293    2853     0.00000 0.00000 0.00000 0.00000 0.00000 0.00000    2868   53.92   33.76  1.0000
   5  18  11     832    3479     0.00000 0.00000 0.00000 0.00000 0.00000 0.00000     769   13.39   -1.48  1.0000
   7  18  11    2658    3333     0.00000 0.00000 0.00000 0.00000 0.00000 0.00000    2296   10.80  -13.26  1.0000
   9  18  11    3505    3569     0.00000 0.00000 0.00000 0.00000 0.00000 0.00000    1292   -9.08   31.40  1.0000
  11  18  11    4750    4610     0.00000 0.00000 0.00000 0.00000 0.00000 0.00000    7777  -30.92    8.77  1.0000
  13  18  11    5478    6026     0.00000 0.00000 0.00000 0.00000 0.00000 0.00000    8577   17.87    7.20  1.0000
  15  18  11      19    5139     0.00000 0.00000 0.00000 0.00000 0.00000 0.00000   -1454   -4.42    0.05  1.0000
  17  18  11      75    6409     0.00000 0.00000 0.00000 0.00000 0.00000 0.00000   -5650    8.10   -3.35  1.0000
   2  19  11      85    3197     0.00000 0.00000 0.00000 0.00000 0.00000 0.00000     267    1.56   -7.66  1.0000
   4  19  11     130    3467     0.00000 0.00000 0.00000 0.00000 0.00000 0.00000   -4443   -6.47   -9.56  1.0000
   6  19  11    2068    3229     0.00000 0.00000 0.00000 0.00000 0.00000 0.00000    2507   -1.15   19.08  1.0000
   8  19  11   10836    3541     0.00000 0.00000 0.00000 0.00000 0.00000 0.00000   10466    2.85   -2.27  1.0000
  10  19  11    6506    4717     0.00000 0.00000 0.00000 0.00000 0.00000 0.00000    5273  -23.41   21.23  1.0000
  12  19  11    3884    5153     0.00000 0.00000 0.00000 0.00000 0.00000 0.00000    5293    9.86    7.45  1.0000
  14  19  11     255    5254     0.00000 0.00000 0.00000 0.00000 0.00000 0.00000   -6430    7.73   14.20  1.0000
  16  19  11      76    7267     0.00000 0.00000 0.00000 0.00000 0.00000 0.00000   -3351    5.34   -7.03  1.0000
   1  20  11    7784    5180     0.00000 0.00000 0.00000 0.00000 0.00000 0.00000   11883  -52.21  -32.14  1.0000
   3  20  11    1000    3806     0.00000 0.00000 0.00000 0.00000 0.00000 0.00000    1867  -32.70  -27.29  1.0000
   5  20  11    3243    3403     0.00000 0.00000 0.00000 0.00000 0.00000 0.00000   -2095  -41.27  -40.25  1.0000
   7  20  11     122    3365     0.00000 0.00000 0.00000 0.00000 0.00000 0.00000     216   17.25   13.69  1.0000
   9  20  11     215    5504     0.00000 0.00000 0.00000 0.00000 0.00000 0.00000   -5296   12.25    8.39  1.0000
  11  20  11    3531    5082     0.00000 0.00000 0.00000 0.00000 0.00000 0.00000    6795  -15.05  -28.61  1.0000
  13  20  11    2141    5489     0.00000 0.00000 0.00000 0.00000 0.00000 0.00000    2922    2.19  -14.02  1.0000
  15  20  11    5945    6710     0.00000 0.00000 0.00000 0.00000 0.00000 0.00000    7856  -15.18    0.60  1.0000
   2  21  11     630    3948     0.00000 0.00000 0.00000 0.00000 0.00000 0.00000    -491    0.92  -25.39  1.0000
   4  21  11    1795    3744     0.00000 0.00000 0.00000 0.00000 0.00000 0.00000    2778  -21.33  -20.95  1.0000
   6  21  11     173    3748     0.00000 0.00000 0.00000 0.00000 0.00000 0.00000    -362    8.34   10.39  1.0000
   8  21  11    8562    5200     0.00000 0.00000 0.00000 0.00000 0.00000 0.00000   10967   -9.83   -8.42  1.0000
  10  21  11    1538    4979     0.00000 0.00000 0.00000 0.00000 0.00000 0.00000    2774  -16.92   44.92  1.0000
  12  21  11   10263    5589     0.00000 0.00000 0.00000 0.00000 0.00000 0.00000    8083   -7.72   23.60  1.0000
   1  22  11    2922    3694     0.00000 0.00000 0.00000 0.00000 0.00000 0.00000    9318   41.15   38.15  1.0000
   3  22  11     455    3882     0.00000 0.00000 0.00000 0.00000 0.00000 0.00000    4519   42.02   19.82  1.0000
   5  22  11     737    3873     0.00000 0.00000 0.00000 0.00000 0.00000 0.00000    2749  -15.64   31.72  1.0000
   7  22  11    8587    5355     0.00000 0.00000 0.00000 0.00000 0.00000 0.00000    4335   -1.21   32.95  1.0000
   9  22  11    3734    5169     0.00000 0.00000 0.00000 0.00000 0.00000 0.00000    6454   -6.29  -18.43  1.0000
  11  22  11     211    5380     0.00000 0.00000 0.00000 0.00000 0.00000 0.00000    3408   39.33  -23.77  1.0000
   2  23  11    2139    4344     0.00000 0.00000 0.00000 0.00000 0.00000 0.00000    9446    5.12   65.94  1.0000
   4  23  11    3688    4943     0.00000 0.00000 0.00000 0.00000 0.00000 0.00000    4604  -36.33   39.87  1.0000
   6  23  11     101    5026     0.00000 0.00000 0.00000 0.00000 0.00000 0.00000    1422   25.95   39.18  1.0000
   8  23  11     131    5436     0.00000 0.00000 0.00000 0.00000 0.00000 0.00000     318   -0.94    6.64  1.0000
  10  23  11    1126   14205     0.00000 0.00000 0.00000 0.00000 0.00000 0.00000   -5882  -33.97   -0.87  1.0000
   1  24  11     843    4461     0.00000 0.00000 0.00000 0.00000 0.00000 0.00000    4689   38.22  -12.80  1.0000
   3  24  11    3794    6126     0.00000 0.00000 0.00000 0.00000 0.00000 0.00000   15262  -73.46  -89.66  1.0000
   5  24  11    1966    4765     0.00000 0.00000 0.00000 0.00000 0.00000 0.00000    1319  -18.77  -31.39  1.0000
   7  24  11     264    8606     0.00000 0.00000 0.00000 0.00000 0.00000 0.00000   -2310   12.07  -11.16  1.0000
   0   0  12  248237   12792     0.00000 0.00000 0.00000 0.00000 0.00000 0.00000   55743 -691.10   -0.56  1.0000
   2   0  12  360879    9943     0.00000 0.00000 0.00000 0.00000 0.00000 0.00000  278953   74.03   30.58  1.0000
   4   0  12  109968    7191     0.00000 0.00000 0.00000 0.00000 0.00000 0.00000  148389  -59.06    6.27  1.0000
   6   0  12   64946    4702     0.00000 0.00000 0.00000 0.00000 0.00000 0.00000   58834  -11.71    4.39  1.0000
   8   0  12   85815    5332     0.00000 0.00000 0.00000 0.00000 0.00000 0.00000   76315  -21.54   44.15  1.0000
  10   0  12   10292    2239     0.00000 0.00000 0.00000 0.00000 0.00000 0.00000    6667  -36.27   78.74  1.0000
  12   0  12    6400    4441     0.00000 0.00000 0.00000 0.00000 0.00000 0.00000    9482  -44.47  -14.44  1.0000
  14   0  12   26111    3599     0.00000 0.00000 0.00000 0.00000 0.00000 0.00000   25995   20.72   37.37  1.0000
  16   0  12   20410    3392     0.00000 0.00000 0.00000 0.00000 0.00000 0.00000   16513   -2.20  -19.11  1.0000
  18   0  12    4404    5230     0.00000 0.00000 0.00000 0.00000 0.00000 0.00000    9032   39.48   40.50  1.0000
  20   0  12   41376    6362     0.00000 0.00000 0.00000 0.00000 0.00000 0.00000   47541    4.60   23.05  1.0000
  22   0  12   10945    5939     0.00000 0.00000 0.00000 0.00000 0.00000 0.00000   13896   13.98  -11.17  1.0000
  24   0  12    3906    7068     0.00000 0.00000 0.00000 0.00000 0.00000 0.00000   17435  -43.42  -56.36  1.0000
   1   1  12   23806    2081     0.00000 0.00000 0.00000 0.00000 0.00000 0.00000   20937  -11.14   -6.36  1.0000
   5   1  12   17496    2222     0.00000 0.00000 0.00000 0.00000 0.00000 0.00000   27908    3.15  -36.86  1.0000
   7   1  12   89923    3334     0.00000 0.00000 0.00000 0.00000 0.00000 0.00000   74047  -27.83  -24.23  1.0000
   9   1  12    5578    1338     0.00000 0.00000 0.00000 0.00000 0.00000 0.00000    6511   -5.11   22.61  1.0000
  11   1  12   54193    2494     0.00000 0.00000 0.00000 0.00000 0.00000 0.00000   50553  -10.06    9.81  1.0000
  13   1  12   40016    2371     0.00000 0.00000 0.00000 0.00000 0.00000 0.00000   40831   -1.63  -18.15  1.0000
  15   1  12   14011    2359     0.00000 0.00000 0.00000 0.00000 0.00000 0.00000   14340    4.60  -26.38  1.0000
  17   1  12   17882    2632     0.00000 0.00000 0.00000 0.00000 0.00000 0.00000   16187    8.64    3.54  1.0000
  19   1  12   10538    3708     0.00000 0.00000 0.00000 0.00000 0.00000 0.00000    9064   -7.99   -0.84  1.0000
  21   1  12    4038    3892     0.00000 0.00000 0.00000 0.00000 0.00000 0.00000    8498    8.58   29.45  1.0000
  23   1  12    2504    4548     0.00000 0.00000 0.00000 0.00000 0.00000 0.00000   11021    0.72  109.31  1.0000
   0   2  12  348632   11628     0.00000 0.00000 0.00000 0.00000 0.00000 0.00000  267466   73.81  -29.27  1.0000
   2   2  12  542452   22354     0.00000 0.00000 0.00000 0.00000 0.00000 0.00000  903683  217.95    0.64  1.0000
   4   2  12   17341    2100     0.00000 0.00000 0.00000 0.00000 0.00000 0.00000   18448  -52.37  -91.42  1.0000
   6   2  12    7229    1761     0.00000 0.00000 0.00000 0.00000 0.00000 0.00000   13366   48.81  -10.41  1.0000
   8   2  12   30028    1965     0.00000 0.00000 0.00000 0.00000 0.00000 0.00000   22450   21.28  -10.67  1.0000
  10   2  12     158    1738     0.00000 0.00000 0.00000 0.00000 0.00000 0.00000      23    8.26    1.65  1.0000
  12   2  12   47180    2169     0.00000 0.00000 0.00000 0.00000 0.00000 0.00000   36875  -23.65  -33.60  1.0000
  14   2  12   36495    2290     0.00000 0.00000 0.00000 0.00000 0.00000 0.00000   38382   -3.43   -3.95  1.0000
  16   2  12    9385    2706     0.00000 0.00000 0.00000 0.00000 0.00000 0.00000    9674    2.47  -27.32  1.0000
  18   2  12   20006    3260     0.00000 0.00000 0.00000 0.00000 0.00000 0.00000   18509   -5.80   29.27  1.0000
  20   2  12    3151    3785     0.00000 0.00000 0.00000 0.00000 0.00000 0.00000    6641  -30.75  -11.07  1.0000
  22   2  12   34180    4264     0.00000 0.00000 0.00000 0.00000 0.00000 0.00000   28717   15.65   21.52  1.0000
  24   2  12    5287    4806     0.00000 0.00000 0.00000 0.00000 0.00000 0.00000   14746    6.06  -48.96  1.0000
   1   3  12    6089    3111     0.00000 0.00000 0.00000 0.00000 0.00000 0.00000   13487   -4.20   40.84  1.0000
   3   3  12   18262    2230     0.00000 0.00000 0.00000 0.00000 0.00000 0.00000   29891  -38.71    0.47  1.0000
   5   3  12   26719    1806     0.00000 0.00000 0.00000 0.00000 0.00000 0.00000   23574    6.89   -8.02  1.0000
   7   3  12   52416    4299     0.00000 0.00000 0.00000 0.00000 0.00000 0.00000   76396  -49.21   32.03  1.0000
   9   3  12    7955    1372     0.00000 0.00000 0.00000 0.00000 0.00000 0.00000   10976  -15.69   -2.57  1.0000
  11   3  12    6965    1850     0.00000 0.00000 0.00000 0.00000 0.00000 0.00000    7823   14.63   -9.05  1.0000
  13   3  12     281    1845     0.00000 0.00000 0.00000 0.00000 0.00000 0.00000   -1846   16.25    4.88  1.0000
  15   3  12     940    2315     0.00000 0.00000 0.00000 0.00000 0.00000 0.00000    1065   -5.76   -1.10  1.0000
  17   3  12    8086    3064     0.00000 0.00000 0.00000 0.00000 0.00000 0.00000   12681  -26.77   19.72  1.0000
  19   3  12    1747    4048     0.00000 0.00000 0.00000 0.00000 0.00000 0.00000    7838   30.90  -47.57  1.0000
  21   3  12    6780    4333     0.00000 0.00000 0.00000 0.00000 0.00000 0.00000    6950   11.08  -35.18  1.0000
  23   3  12    6857    4459     0.00000 0.00000 0.00000 0.00000 0.00000 0.00000   13236    3.63  -32.51  1.0000
   0   4  12  105973   11762     0.00000 0.00000 0.00000 0.00000 0.00000 0.00000  146579  -58.11   -4.33  1.0000
   2   4  12   19502    2774     0.00000 0.00000 0.00000 0.00000 0.00000 0.00000   14623  -53.60   93.56  1.0000
   4   4  12  387707   12652     0.00000 0.00000 0.00000 0.00000 0.00000 0.00000  463179  -58.69    0.75  1.0000
   6   4  12   18835    2552     0.00000 0.00000 0.00000 0.00000 0.00000 0.00000   26650   22.42   14.48  1.0000
   8   4  12    5666    1670     0.00000 0.00000 0.00000 0.00000 0.00000 0.00000    3874  -22.71   -3.47  1.0000
  10   4  12      33    1996     0.00000 0.00000 0.00000 0.00000 0.00000 0.00000   -1922   -5.45   -1.93  1.0000
  12   4  12    7317    2210     0.00000 0.00000 0.00000 0.00000 0.00000 0.00000    5286   -4.23  -12.77  1.0000
  14   4  12    5411    2292     0.00000 0.00000 0.00000 0.00000 0.00000 0.00000    3969   11.81   -9.18  1.0000
  16   4  12     440    2749     0.00000 0.00000 0.00000 0.00000 0.00000 0.00000    3861   38.80   18.70  1.0000
  18   4  12      10    3725     0.00000 0.00000 0.00000 0.00000 0.00000 0.00000   -4163   -2.66    1.79  1.0000
  20   4  12    9877    4034     0.00000 0.00000 0.00000 0.00000 0.00000 0.00000    7853  -13.34   -1.56  1.0000
  22   4  12    4340    4548     0.00000 0.00000 0.00000 0.00000 0.00000 0.00000   13615   26.91   64.57  1.0000
  24   4  12    9741    5159     0.00000 0.00000 0.00000 0.00000 0.00000 0.00000    7960   -2.44  -13.54  1.0000
   1   5  12   18822    3095     0.00000 0.00000 0.00000 0.00000 0.00000 0.00000   28835    6.19   35.65  1.0000
   3   5  12   23883    1788     0.00000 0.00000 0.00000 0.00000 0.00000 0.00000   21072    7.95    5.44  1.0000
   5   5  12    2518    2253     0.00000 0.00000 0.00000 0.00000 0.00000 0.00000    6509   30.87   -0.96  1.0000
   7   5  12   29648    2267     0.00000 0.00000 0.00000 0.00000 0.00000 0.00000   36623  -41.53  -28.70  1.0000
   9   5  12    7106    2070     0.00000 0.00000 0.00000 0.00000 0.00000 0.00000   13115  -28.28   27.31  1.0000
  11   5  12     634    2299     0.00000 0.00000 0.00000 0.00000 0.00000 0.00000   -1501  -24.74    6.14  1.0000
  13   5  12     729    2168     0.00000 0.00000 0.00000 0.00000 0.00000 0.00000    -306   -5.19  -26.84  1.0000
  15   5  12    1038    2569     0.00000 0.00000 0.00000 0.00000 0.00000 0.00000    1200   -5.52   -5.50  1.0000
  17   5  12    1143    3117     0.00000 0.00000 0.00000 0.00000 0.00000 0.00000    6131  -20.18   40.27  1.0000
  19   5  12   11678    4241     0.00000 0.00000 0.00000 0.00000 0.00000 0.00000    8604   -8.72  -14.91  1.0000
  21   5  12    5872    5586     0.00000 0.00000 0.00000 0.00000 0.00000 0.00000    5450  -26.38   36.45  1.0000
  23   5  12     587    4964     0.00000 0.00000 0.00000 0.00000 0.00000 0.00000     317  -11.58  -10.01  1.0000
   0   6  12   61088    4136     0.00000 0.00000 0.00000 0.00000 0.00000 0.00000   55555  -11.29   -4.46  1.0000
   2   6  12    5119    1697     0.00000 0.00000 0.00000 0.00000 0.00000 0.00000   11484   47.67    7.21  1.0000
   4   6  12   20773    1896     0.00000 0.00000 0.00000 0.00000 0.00000 0.00000   28094   21.82  -15.26  1.0000
   6   6  12    3221    1593     0.00000 0.00000 0.00000 0.00000 0.00000 0.00000    4600   11.67   13.35  1.0000
   8   6  12   26286    2494     0.00000 0.00000 0.00000 0.00000 0.00000 0.00000   34572  -20.13  -13.26  1.0000
  10   6  12     639    2415     0.00000 0.00000 0.00000 0.00000 0.00000 0.00000    1460   38.78   -0.72  1.0000
  12   6  12    3800    2763     0.00000 0.00000 0.00000 0.00000 0.00000 0.00000    5872   35.85   59.51  1.0000
  14   6  12     602    2406     0.00000 0.00000 0.00000 0.00000 0.00000 0.00000    -137  -18.03   17.10  1.0000
  16   6  12    1256    3017     0.00000 0.00000 0.00000 0.00000 0.00000 0.00000    1955    9.13   11.81  1.0000
  18   6  12      15    4155     0.00000 0.00000 0.00000 0.00000 0.00000 0.00000   -2371   -2.67    2.80  1.0000
  20   6  12    1958    4770     0.00000 0.00000 0.00000 0.00000 0.00000 0.00000    1405    1.18   10.65  1.0000
  22   6  12   10888    5301     0.00000 0.00000 0.00000 0.00000 0.00000 0.00000    6861   24.21   -3.58  1.0000
  24   6  12    4843    6051     0.00000 0.00000 0.00000 0.00000 0.00000 0.00000    9279  -24.52  -14.45  1.0000
   1   7  12   82286    2858     0.00000 0.00000 0.00000 0.00000 0.00000 0.00000   71114  -28.77   27.02  1.0000
   3   7  12   51541    2991     0.00000 0.00000 0.00000 0.00000 0.00000 0.00000   76561  -50.61  -31.79  1.0000
   5   7  12   31597    2568     0.00000 0.00000 0.00000 0.00000 0.00000 0.00000   39421  -39.18   29.29  1.0000
   7   7  12   10500    1972     0.00000 0.00000 0.00000 0.00000 0.00000 0.00000   13372  -13.37   -1.09  1.0000
   9   7  12   13129    3407     0.00000 0.00000 0.00000 0.00000 0.00000 0.00000   17321  -26.72   -4.79  1.0000
  11   7  12   36373    2799     0.00000 0.00000 0.00000 0.00000 0.00000 0.00000   50263  -30.96  -28.46  1.0000
  13   7  12    8251    2399     0.00000 0.00000 0.00000 0.00000 0.00000 0.00000    3584  -30.67  -19.64  1.0000
  15   7  12    7059    2745     0.00000 0.00000 0.00000 0.00000 0.00000 0.00000    7127   -2.80    0.56  1.0000
  17   7  12     138    3933     0.00000 0.00000 0.00000 0.00000 0.00000 0.00000    -971   11.86    1.02  1.0000
  19   7  12    4184    4739     0.00000 0.00000 0.00000 0.00000 0.00000 0.00000    5718   -6.81  -10.57  1.0000
  21   7  12    9273    5329     0.00000 0.00000 0.00000 0.00000 0.00000 0.00000    7306    6.50   24.10  1.0000
  23   7  12    5462    5732     0.00000 0.00000 0.00000 0.00000 0.00000 0.00000    4248   -1.60   13.25  1.0000
   0   8  12   82125    4984     0.00000 0.00000 0.00000 0.00000 0.00000 0.00000   70629  -23.00  -49.35  1.0000
   2   8  12   25339    1689     0.00000 0.00000 0.00000 0.00000 0.00000 0.00000   18813   20.80   10.72  1.0000
   4   8  12    7111    1819     0.00000 0.00000 0.00000 0.00000 0.00000 0.00000    4940  -18.84    3.95  1.0000
   6   8  12   28636    2526     0.00000 0.00000 0.00000 0.00000 0.00000 0.00000   37332  -23.24    8.11  1.0000
   8   8  12     410    2440     0.00000 0.00000 0.00000 0.00000 0.00000 0.00000    3608  -32.58  -29.68  1.0000
  10   8  12   27582    2486     0.00000 0.00000 0.00000 0.00000 0.00000 0.00000   32347  -33.39   -5.87  1.0000
  12   8  12    3603    2375     0.00000 0.00000 0.00000 0.00000 0.00000 0.00000    5370  -29.87    9.02  1.0000
  14   8  12    4265    2833     0.00000 0.00000 0.00000 0.00000 0.00000 0.00000    3901   -2.15   -1.99  1.0000
  16   8  12    6824    4302     0.00000 0.00000 0.00000 0.00000 0.00000 0.00000    6985   26.33  -10.20  1.0000
  18   8  12    9274    3855     0.00000 0.00000 0.00000 0.00000 0.00000 0.00000   10675   -7.97   23.37  1.0000
  20   8  12    1637    5498     0.00000 0.00000 0.00000 0.00000 0.00000 0.00000    4921   32.57   -2.35  1.0000
  22   8  12    3916    5552     0.00000 0.00000 0.00000 0.00000 0.00000 0.00000    3145   -6.95   -1.65  1.0000
   1   9  12    3111    1818     0.00000 0.00000 0.00000 0.00000 0.00000 0.00000    5388   -5.96  -21.37  1.0000
   3   9  12    9425    1881     0.00000 0.00000 0.00000 0.00000 0.00000 0.00000   12283  -18.16    3.71  1.0000
   5   9  12    8412    2121     0.00000 0.00000 0.00000 0.00000 0.00000 0.00000   15415  -26.67  -29.19  1.0000
   7   9  12   15201    2591     0.00000 0.00000 0.00000 0.00000 0.00000 0.00000   20839  -22.87   11.43  1.0000
   9   9  12    3618    3063     0.00000 0.00000 0.00000 0.00000 0.00000 0.00000    7996   19.66   25.62  1.0000
  11   9  12    4931    2524     0.00000 0.00000 0.00000 0.00000 0.00000 0.00000    9357   10.80  -33.57  1.0000
  13   9  12     349    2625     0.00000 0.00000 0.00000 0.00000 0.00000 0.00000    2664  -28.39   21.14  1.0000
  15   9  12    2805    3181     0.00000 0.00000 0.00000 0.00000 0.00000 0.00000    4028   18.96   -7.04  1.0000
  17   9  12    3033    3883     0.00000 0.00000 0.00000 0.00000 0.00000 0.00000    5115    6.66  -20.80  1.0000
  19   9  12   15275    4330     0.00000 0.00000 0.00000 0.00000 0.00000 0.00000   14668   -5.64    3.17  1.0000
  21   9  12   10864    5697     0.00000 0.00000 0.00000 0.00000 0.00000 0.00000   10972    0.54  -21.61  1.0000
  23   9  12       5    6925     0.00000 0.00000 0.00000 0.00000 0.00000 0.00000    -968    1.91    1.35  1.0000
   0  10  12   15207    2852     0.00000 0.00000 0.00000 0.00000 0.00000 0.00000   11143  -36.67  -78.24  1.0000
   2  10  12    3349    1965     0.00000 0.00000 0.00000 0.00000 0.00000 0.00000    2761    7.93   -1.72  1.0000
   4  10  12    4337    3113     0.00000 0.00000 0.00000 0.00000 0.00000 0.00000    4510   -1.78    0.16  1.0000
   6  10  12    2827    4143     0.00000 0.00000 0.00000 0.00000 0.00000 0.00000    6511   33.04    8.30  1.0000
   8  10  12   30318    2290     0.00000 0.00000 0.00000 0.00000 0.00000 0.00000   33543  -38.85   -1.27  1.0000
  10  10  12    3709    2955     0.00000 0.00000 0.00000 0.00000 0.00000 0.00000    3021    6.00    0.34  1.0000
  12  10  12     395    2671     0.00000 0.00000 0.00000 0.00000 0.00000 0.00000   -1261   20.07    1.33  1.0000
  14  10  12    2417    3561     0.00000 0.00000 0.00000 0.00000 0.00000 0.00000    7558   44.44    6.71  1.0000
  16  10  12    1001    3791     0.00000 0.00000 0.00000 0.00000 0.00000 0.00000     301   -9.42  -11.00  1.0000
  18  10  12    2099    5424     0.00000 0.00000 0.00000 0.00000 0.00000 0.00000    6426  -33.33   10.82  1.0000
  20  10  12     511    4931     0.00000 0.00000 0.00000 0.00000 0.00000 0.00000   -5091  -14.11   18.01  1.0000
  22  10  12       7    5937     0.00000 0.00000 0.00000 0.00000 0.00000 0.00000     892  -23.61   19.09  1.0000
   1  11  12   56995    2870     0.00000 0.00000 0.00000 0.00000 0.00000 0.00000   51640  -10.62   -9.62  1.0000
   3  11  12    3103    2600     0.00000 0.00000 0.00000 0.00000 0.00000 0.00000    5041   15.46    6.47  1.0000
   5  11  12     955    2395     0.00000 0.00000 0.00000 0.00000 0.00000 0.00000     320  -23.24   -4.04  1.0000
   7  11  12   42358    3348     0.00000 0.00000 0.00000 0.00000 0.00000 0.00000   56024  -30.49   25.31  1.0000
   9  11  12    4238    2592     0.00000 0.00000 0.00000 0.00000 0.00000 0.00000    8673   14.83   38.18  1.0000
  11  11  12    5185    2590     0.00000 0.00000 0.00000 0.00000 0.00000 0.00000    4486    5.15   -2.38  1.0000
  13  11  12     297    3083     0.00000 0.00000 0.00000 0.00000 0.00000 0.00000     533    9.66    8.83  1.0000
  15  11  12     213    3497     0.00000 0.00000 0.00000 0.00000 0.00000 0.00000    2634   28.99   36.18  1.0000
  17  11  12     707    5116     0.00000 0.00000 0.00000 0.00000 0.00000 0.00000   -3021   21.03   16.81  1.0000
  19  11  12    4904    5088     0.00000 0.00000 0.00000 0.00000 0.00000 0.00000    4751    2.93   -5.33  1.0000
  21  11  12    3560    5285     0.00000 0.00000 0.00000 0.00000 0.00000 0.00000    4549   -9.10    6.05  1.0000
   0  12  12    4060    3612     0.00000 0.00000 0.00000 0.00000 0.00000 0.00000    6925  -43.11   12.23  1.0000
   2  12  12   39782    2823     0.00000 0.00000 0.00000 0.00000 0.00000 0.00000   32766  -23.74   36.40  1.0000
   4  12  12    6714    3115     0.00000 0.00000 0.00000 0.00000 0.00000 0.00000    4798   -5.75   11.51  1.0000
   6  12  12    6746    2703     0.00000 0.00000 0.00000 0.00000 0.00000 0.00000    9555   35.34  -61.37  1.0000
   8  12  12    2778    2923     0.00000 0.00000 0.00000 0.00000 0.00000 0.00000    4956  -31.67   -9.74  1.0000
  10  12  12    3106    2568     0.00000 0.00000 0.00000 0.00000 0.00000 0.00000    1985   17.35   -3.31  1.0000
  12  12  12    1712    2931     0.00000 0.00000 0.00000 0.00000 0.00000 0.00000    3022  -13.45   -4.31  1.0000
  14  12  12     418    3502     0.00000 0.00000 0.00000 0.00000 0.00000 0.00000   -1547   -0.95   20.69  1.0000
  16  12  12     557    5714     0.00000 0.00000 0.00000 0.00000 0.00000 0.00000     846   -6.41    6.75  1.0000
  18  12  12    3000    6142     0.00000 0.00000 0.00000 0.00000 0.00000 0.00000   10857   48.58  -13.66  1.0000
  20  12  12    1187    4802     0.00000 0.00000 0.00000 0.00000 0.00000 0.00000    2687   20.10    0.47  1.0000
   1  13  12   47936    3665     0.00000 0.00000 0.00000 0.00000 0.00000 0.00000   46457   -0.49   14.28  1.0000
   3  13  12     336    2804     0.00000 0.00000 0.00000 0.00000 0.00000 0.00000   -3202   17.76   -5.36  1.0000
   5  13  12     919    2413     0.00000 0.00000 0.00000 0.00000 0.00000 0.00000   -3124   -6.70   29.95  1.0000
   7  13  12    1501    2478     0.00000 0.00000 0.00000 0.00000 0.00000 0.00000   -1501  -32.43   22.07  1.0000
   9  13  12    4202    3451     0.00000 0.00000 0.00000 0.00000 0.00000 0.00000   10062  -25.72  -26.35  1.0000
  11  13  12     917    3776     0.00000 0.00000 0.00000 0.00000 0.00000 0.00000    1222    9.65   -7.62  1.0000
  13  13  12    5311    3253     0.00000 0.00000 0.00000 0.00000 0.00000 0.00000   -1295   73.78    0.86  1.0000
  15  13  12    3306    4476     0.00000 0.00000 0.00000 0.00000 0.00000 0.00000    2637    7.94  -35.53  1.0000
  17  13  12    1789    4335     0.00000 0.00000 0.00000 0.00000 0.00000 0.00000    1454    0.70   -7.17  1.0000
  19  13  12    7232    4707     0.00000 0.00000 0.00000 0.00000 0.00000 0.00000    6425   -5.18    0.55  1.0000
  21  13  12    2426    5326     0.00000 0.00000 0.00000 0.00000 0.00000 0.00000    3708   -2.99   13.59  1.0000
   0  14  12   21743    3439     0.00000 0.00000 0.00000 0.00000 0.00000 0.00000   25785   19.28  -36.95  1.0000
   2  14  12   43017    2431     0.00000 0.00000 0.00000 0.00000 0.00000 0.00000   45020   -3.21    4.36  1.0000
   4  14  12    4582    2353     0.00000 0.00000 0.00000 0.00000 0.00000 0.00000    2809   11.96    9.83  1.0000
   6  14  12     551    2795     0.00000 0.00000 0.00000 0.00000 0.00000 0.00000   -4193  -17.77  -15.79  1.0000
   8  14  12       8    2971     0.00000 0.00000 0.00000 0.00000 0.00000 0.00000    -872   -0.95    2.67  1.0000
  10  14  12    1992    3261     0.00000 0.00000 0.00000 0.00000 0.00000 0.00000    -765   45.10   -2.82  1.0000
  12  14  12     426    3649     0.00000 0.00000 0.00000 0.00000 0.00000 0.00000   -2811   -1.52  -20.84  1.0000
  14  14  12     238   11084     0.00000 0.00000 0.00000 0.00000 0.00000 0.00000    2656  -36.55   -0.36  1.0000
  16  14  12     440    4909     0.00000 0.00000 0.00000 0.00000 0.00000 0.00000   -2364    4.78  -20.70  1.0000
  18  14  12     791    5415     0.00000 0.00000 0.00000 0.00000 0.00000 0.00000    1823   19.90   16.75  1.0000
  20  14  12     275    5780     0.00000 0.00000 0.00000 0.00000 0.00000 0.00000    -424  -16.23   -4.35  1.0000
   1  15  12   12398    2847     0.00000 0.00000 0.00000 0.00000 0.00000 0.00000   14460    3.80   27.92  1.0000
   3  15  12      20    2585     0.00000 0.00000 0.00000 0.00000 0.00000 0.00000   -1465   -3.90    2.33  1.0000
   5  15  12      57    2424     0.00000 0.00000 0.00000 0.00000 0.00000 0.00000   -2587   -5.51    5.26  1.0000
   7  15  12    2043    2958     0.00000 0.00000 0.00000 0.00000 0.00000 0.00000    2127   -4.50   -0.52  1.0000
   9  15  12     394    3200     0.00000 0.00000 0.00000 0.00000 0.00000 0.00000   -2015   19.19    6.00  1.0000
  11  15  12    2187    3676     0.00000 0.00000 0.00000 0.00000 0.00000 0.00000   -5443   30.01  -36.63  1.0000
  13  15  12    4406    4486     0.00000 0.00000 0.00000 0.00000 0.00000 0.00000    3510    7.81   36.78  1.0000
  15  15  12      60    6400     0.00000 0.00000 0.00000 0.00000 0.00000 0.00000   -7997    7.81    0.41  1.0000
  17  15  12     606    4965     0.00000 0.00000 0.00000 0.00000 0.00000 0.00000   -4358   23.32    8.79  1.0000
  19  15  12     248    5765     0.00000 0.00000 0.00000 0.00000 0.00000 0.00000   -5970   14.42   -6.81  1.0000
   0  16  12   10836    4372     0.00000 0.00000 0.00000 0.00000 0.00000 0.00000    8991   -2.13   19.97  1.0000
   2  16  12    5445    2706     0.00000 0.00000 0.00000 0.00000 0.00000 0.00000    7330    2.38   26.86  1.0000
   4  16  12    1808    2864     0.00000 0.00000 0.00000 0.00000 0.00000 0.00000    -252   38.59  -19.10  1.0000
   6  16  12     264    2937     0.00000 0.00000 0.00000 0.00000 0.00000 0.00000   -1629    9.29  -13.57  1.0000
   8  16  12    3744    4295     0.00000 0.00000 0.00000 0.00000 0.00000 0.00000    3437   26.76    9.51  1.0000
  10  16  12     181    3717     0.00000 0.00000 0.00000 0.00000 0.00000 0.00000    -945   -9.44    9.79  1.0000
  12  16  12      74    6600     0.00000 0.00000 0.00000 0.00000 0.00000 0.00000   -8847   -6.10   -6.25  1.0000
  14  16  12    2501    5195     0.00000 0.00000 0.00000 0.00000 0.00000 0.00000    1415    5.64   20.14  1.0000
  16  16  12     383    5532     0.00000 0.00000 0.00000 0.00000 0.00000 0.00000   -1629   19.81   -0.08  1.0000
  18  16  12     234    5488     0.00000 0.00000 0.00000 0.00000 0.00000 0.00000   -8232   15.33    2.14  1.0000
   1  17  12    9395    3081     0.00000 0.00000 0.00000 0.00000 0.00000 0.00000    8247    9.87   -5.02  1.0000
   3  17  12    8078    4505     0.00000 0.00000 0.00000 0.00000 0.00000 0.00000   13833  -26.90  -19.17  1.0000
   5  17  12     387    2904     0.00000 0.00000 0.00000 0.00000 0.00000 0.00000     644  -19.66  -40.24  1.0000
   7  17  12     127    3340     0.00000 0.00000 0.00000 0.00000 0.00000 0.00000   -3135   11.30   -1.63  1.0000
   9  17  12    2294    3721     0.00000 0.00000 0.00000 0.00000 0.00000 0.00000    4706    6.51   22.22  1.0000
  11  17  12     338    4392     0.00000 0.00000 0.00000 0.00000 0.00000 0.00000     976   21.33  -17.60  1.0000
  13  17  12      57    4755     0.00000 0.00000 0.00000 0.00000 0.00000 0.00000   -1145    0.74    7.59  1.0000
  15  17  12     595    5770     0.00000 0.00000 0.00000 0.00000 0.00000 0.00000   -8654   22.87   -9.29  1.0000
  17  17  12      28    5675     0.00000 0.00000 0.00000 0.00000 0.00000 0.00000   -2344    5.31    0.07  1.0000
   0  18  12    3207    5214     0.00000 0.00000 0.00000 0.00000 0.00000 0.00000    7011   40.77  -41.56  1.0000
   2  18  12   14627    2963     0.00000 0.00000 0.00000 0.00000 0.00000 0.00000   17514   -5.77  -29.94  1.0000
   4  18  12     564    3101     0.00000 0.00000 0.00000 0.00000 0.00000 0.00000     669   -3.83   -1.72  1.0000
   6  18  12      17    3321     0.00000 0.00000 0.00000 0.00000 0.00000 0.00000   -4982   -2.52   -3.35  1.0000
   8  18  12    5847    3461     0.00000 0.00000 0.00000 0.00000 0.00000 0.00000    6491   -8.21  -24.90  1.0000
  10  18  12    1043    4119     0.00000 0.00000 0.00000 0.00000 0.00000 0.00000    4479  -33.62  -10.74  1.0000
  12  18  12    2443    4943     0.00000 0.00000 0.00000 0.00000 0.00000 0.00000   -3470   48.01   14.14  1.0000
  14  18  12     636    5031     0.00000 0.00000 0.00000 0.00000 0.00000 0.00000   -7546   19.48  -16.52  1.0000
  16  18  12    1091    6080     0.00000 0.00000 0.00000 0.00000 0.00000 0.00000     701   15.86   -2.11  1.0000
   1  19  12    5302    4248     0.00000 0.00000 0.00000 0.00000 0.00000 0.00000    4187   -9.80    1.86  1.0000
   3  19  12    1166    3331     0.00000 0.00000 0.00000 0.00000 0.00000 0.00000    6979   28.80   47.91  1.0000
   5  19  12    7264    3342     0.00000 0.00000 0.00000 0.00000 0.00000 0.00000    5319   -9.42   15.49  1.0000
   7  19  12   10694    4032     0.00000 0.00000 0.00000 0.00000 0.00000 0.00000   12339   -6.60   12.15  1.0000
   9  19  12    8380    4129     0.00000 0.00000 0.00000 0.00000 0.00000 0.00000    7654   -5.64   -4.22  1.0000
  11  19  12    8537    5434     0.00000 0.00000 0.00000 0.00000 0.00000 0.00000    8062    2.32    3.56  1.0000
  13  19  12    2041    5247     0.00000 0.00000 0.00000 0.00000 0.00000 0.00000    1607   -5.35    1.07  1.0000
  15  19  12    1507    6123     0.00000 0.00000 0.00000 0.00000 0.00000 0.00000     710   13.60    6.56  1.0000
   0  20  12   41656    6004     0.00000 0.00000 0.00000 0.00000 0.00000 0.00000   42964    5.22  -22.75  1.0000
   2  20  12    1455    3416     0.00000 0.00000 0.00000 0.00000 0.00000 0.00000    4801  -30.21   11.52  1.0000
   4  20  12     351    3702     0.00000 0.00000 0.00000 0.00000 0.00000 0.00000      37  -12.73    2.65  1.0000
   6  20  12      99    3977     0.00000 0.00000 0.00000 0.00000 0.00000 0.00000    -129    2.58   -9.73  1.0000
   8  20  12     460    4311     0.00000 0.00000 0.00000 0.00000 0.00000 0.00000     184   32.71    1.88  1.0000
  10  20  12    3800    4882     0.00000 0.00000 0.00000 0.00000 0.00000 0.00000    6606  -14.79  -15.90  1.0000
  12  20  12     368    5288     0.00000 0.00000 0.00000 0.00000 0.00000 0.00000    -256   19.42   -0.64  1.0000
  14  20  12     273    5520     0.00000 0.00000 0.00000 0.00000 0.00000 0.00000   -1133  -16.20    4.16  1.0000
   1  21  12    3389    4041     0.00000 0.00000 0.00000 0.00000 0.00000 0.00000    7076    7.50  -30.00  1.0000
   3  21  12    4053    3783     0.00000 0.00000 0.00000 0.00000 0.00000 0.00000    2535   12.02   35.21  1.0000
   5  21  12    4580    4130     0.00000 0.00000 0.00000 0.00000 0.00000 0.00000    1162  -26.08  -34.54  1.0000
   7  21  12    7695    4954     0.00000 0.00000 0.00000 0.00000 0.00000 0.00000    8302    7.13  -26.13  1.0000
   9  21  12    8021    5207     0.00000 0.00000 0.00000 0.00000 0.00000 0.00000   10197    0.44   21.58  1.0000
  11  21  12    5332    5239     0.00000 0.00000 0.00000 0.00000 0.00000 0.00000    7060   -8.93   -6.84  1.0000
  13  21  12     174    6157     0.00000 0.00000 0.00000 0.00000 0.00000 0.00000    -669   -2.23  -13.16  1.0000
   0  22  12   11503    5780     0.00000 0.00000 0.00000 0.00000 0.00000 0.00000   15230   13.89   11.17  1.0000
   2  22  12   22627    4720     0.00000 0.00000 0.00000 0.00000 0.00000 0.00000   21994   15.53  -22.72  1.0000
   4  22  12    4356    4859     0.00000 0.00000 0.00000 0.00000 0.00000 0.00000    7102   26.69  -65.78  1.0000
   6  22  12     571    5475     0.00000 0.00000 0.00000 0.00000 0.00000 0.00000    -902   24.13    1.73  1.0000
   8  22  12      45    5601     0.00000 0.00000 0.00000 0.00000 0.00000 0.00000   -4038   -6.80    0.54  1.0000
  10  22  12     892    5379     0.00000 0.00000 0.00000 0.00000 0.00000 0.00000   -1953  -22.82  -19.86  1.0000
   1  23  12    2128    3849     0.00000 0.00000 0.00000 0.00000 0.00000 0.00000    7015    0.92 -108.19  1.0000
   3  23  12    1431    5029     0.00000 0.00000 0.00000 0.00000 0.00000 0.00000    5015    4.58   33.11  1.0000
   5  23  12     525    4927     0.00000 0.00000 0.00000 0.00000 0.00000 0.00000    1287  -13.68   12.16  1.0000
   7  23  12     179    6379     0.00000 0.00000 0.00000 0.00000 0.00000 0.00000   -2708   -1.75  -13.42  1.0000
   9  23  12    7113    7570     0.00000 0.00000 0.00000 0.00000 0.00000 0.00000    7362    1.40    2.17  1.0000
   0  24  12    1202    5920     0.00000 0.00000 0.00000 0.00000 0.00000 0.00000    9285  -46.29   56.12  1.0000
   2  24  12    6075    4318     0.00000 0.00000 0.00000 0.00000 0.00000 0.00000   15904    6.05   48.39  1.0000
   4  24  12    5873    6499     0.00000 0.00000 0.00000 0.00000 0.00000 0.00000    4996   -2.09   12.49  1.0000
   6  24  12     771    5171     0.00000 0.00000 0.00000 0.00000 0.00000 0.00000    -475  -24.39   13.98  1.0000
   4   1  13  132389    5926     0.00000 0.00000 0.00000 0.00000 0.00000 0.00000  183593    9.30   73.40  1.0000
   6   1  13   77520    3244     0.00000 0.00000 0.00000 0.00000 0.00000 0.00000   92732   38.79   39.23  1.0000
   8   1  13  141032    4138     0.00000 0.00000 0.00000 0.00000 0.00000 0.00000  112910  -39.42   12.60  1.0000
  10   1  13  134223    3461     0.00000 0.00000 0.00000 0.00000 0.00000 0.00000  112412  -16.08   29.52  1.0000
  12   1  13  198219    4900     0.00000 0.00000 0.00000 0.00000 0.00000 0.00000  180840  -16.15   12.18  1.0000
  14   1  13   22343    3201     0.00000 0.00000 0.00000 0.00000 0.00000 0.00000   27918    5.68   26.88  1.0000
  16   1  13    4083    2404     0.00000 0.00000 0.00000 0.00000 0.00000 0.00000    3966   18.93  -17.51  1.0000
  18   1  13    1569    3085     0.00000 0.00000 0.00000 0.00000 0.00000 0.00000    1426    1.05  -31.07  1.0000
  20   1  13    3347    3914     0.00000 0.00000 0.00000 0.00000 0.00000 0.00000    9498  -43.67    5.63  1.0000
  22   1  13     915    4208     0.00000 0.00000 0.00000 0.00000 0.00000 0.00000    9966  -29.35   65.50  1.0000
  24   1  13    8871    4765     0.00000 0.00000 0.00000 0.00000 0.00000 0.00000   13114  -16.69  -34.29  1.0000
   3   2  13   13380    2426     0.00000 0.00000 0.00000 0.00000 0.00000 0.00000   36790  -92.33   28.86  1.0000
   5   2  13   27635    1893     0.00000 0.00000 0.00000 0.00000 0.00000 0.00000   33796  -35.97   88.00  1.0000
   7   2  13   80053    4072     0.00000 0.00000 0.00000 0.00000 0.00000 0.00000  103999   23.58  -38.78  1.0000
   9   2  13   29771    1615     0.00000 0.00000 0.00000 0.00000 0.00000 0.00000   20703  -20.66   23.06  1.0000
  11   2  13   67388    2812     0.00000 0.00000 0.00000 0.00000 0.00000 0.00000   64539   -7.87    0.89  1.0000
  13   2  13    5390    1824     0.00000 0.00000 0.00000 0.00000 0.00000 0.00000    7513   -8.76   10.94  1.0000
  15   2  13    3918    2413     0.00000 0.00000 0.00000 0.00000 0.00000 0.00000    5101  -48.78  -22.05  1.0000
  17   2  13     260    2804     0.00000 0.00000 0.00000 0.00000 0.00000 0.00000    3105   27.33   31.47  1.0000
  19   2  13    2336    3276     0.00000 0.00000 0.00000 0.00000 0.00000 0.00000    4826   -0.55   26.93  1.0000
  21   2  13     628    3839     0.00000 0.00000 0.00000 0.00000 0.00000 0.00000    4857   12.81  -46.19  1.0000
  23   2  13    3875    4769     0.00000 0.00000 0.00000 0.00000 0.00000 0.00000   13209   50.10  -29.25  1.0000
   2   3  13   12312    2791     0.00000 0.00000 0.00000 0.00000 0.00000 0.00000   35574   92.79   29.09  1.0000
   4   3  13   39733    2123     0.00000 0.00000 0.00000 0.00000 0.00000 0.00000   36839  -35.11   -2.49  1.0000
   6   3  13   11912    2232     0.00000 0.00000 0.00000 0.00000 0.00000 0.00000   24882   28.65  -40.64  1.0000
   8   3  13  103724    3513     0.00000 0.00000 0.00000 0.00000 0.00000 0.00000  101241  -12.60  -23.31  1.0000
  10   3  13   18078    1527     0.00000 0.00000 0.00000 0.00000 0.00000 0.00000   13438   26.94    2.62  1.0000
  12   3  13  175393    3526     0.00000 0.00000 0.00000 0.00000 0.00000 0.00000  149611   18.39  -30.31  1.0000
  14   3  13    1484    2212     0.00000 0.00000 0.00000 0.00000 0.00000 0.00000     662    1.26  -13.82  1.0000
  16   3  13    1131    2641     0.00000 0.00000 0.00000 0.00000 0.00000 0.00000    2411   38.74  -11.81  1.0000
  18   3  13    2141    3168     0.00000 0.00000 0.00000 0.00000 0.00000 0.00000    4980   19.31   15.51  1.0000
  20   3  13    1576    3967     0.00000 0.00000 0.00000 0.00000 0.00000 0.00000    7846  -47.29  -36.91  1.0000
  22   3  13    1507    4269     0.00000 0.00000 0.00000 0.00000 0.00000 0.00000    8084   -9.54   50.87  1.0000
  24   3  13    6523    4608     0.00000 0.00000 0.00000 0.00000 0.00000 0.00000   14312   10.68   37.91  1.0000
   1   4  13  128481    6072     0.00000 0.00000 0.00000 0.00000 0.00000 0.00000  178725  -11.35   73.32  1.0000
   5   4  13    4188    1822     0.00000 0.00000 0.00000 0.00000 0.00000 0.00000     442   46.62   36.44  1.0000
   7   4  13   61552    4012     0.00000 0.00000 0.00000 0.00000 0.00000 0.00000   62448   -4.93   17.49  1.0000
   9   4  13   48856    3084     0.00000 0.00000 0.00000 0.00000 0.00000 0.00000   62885  -21.19   22.15  1.0000
  11   4  13   21009    2837     0.00000 0.00000 0.00000 0.00000 0.00000 0.00000   22641  -12.89   -5.17  1.0000
  13   4  13   14016    2348     0.00000 0.00000 0.00000 0.00000 0.00000 0.00000   11685   39.20   34.14  1.0000
  15   4  13    1436    2522     0.00000 0.00000 0.00000 0.00000 0.00000 0.00000    2222    2.51   12.74  1.0000
  17   4  13    1208    3125     0.00000 0.00000 0.00000 0.00000 0.00000 0.00000     562   -9.11    6.59  1.0000
  19   4  13    9584    4249     0.00000 0.00000 0.00000 0.00000 0.00000 0.00000    6994  -47.44  -14.01  1.0000
  21   4  13    1871    4632     0.00000 0.00000 0.00000 0.00000 0.00000 0.00000    4608  -28.14   -2.71  1.0000
  23   4  13    3834    4736     0.00000 0.00000 0.00000 0.00000 0.00000 0.00000    8610   34.04   -8.99  1.0000
   2   5  13   25461    2026     0.00000 0.00000 0.00000 0.00000 0.00000 0.00000   31310   36.92   88.80  1.0000
   4   5  13    3430    2125     0.00000 0.00000 0.00000 0.00000 0.00000 0.00000    -283  -46.12   37.27  1.0000
   6   5  13   28369    2246     0.00000 0.00000 0.00000 0.00000 0.00000 0.00000   29560   -7.25   40.33  1.0000
   8   5  13   52600    3234     0.00000 0.00000 0.00000 0.00000 0.00000 0.00000   41672   18.11   58.93  1.0000
  10   5  13    8926    2386     0.00000 0.00000 0.00000 0.00000 0.00000 0.00000   10356    8.37   -2.87  1.0000
  12   5  13  146650    3599     0.00000 0.00000 0.00000 0.00000 0.00000 0.00000  138057  -13.75    0.86  1.0000
  14   5  13    9890    2523     0.00000 0.00000 0.00000 0.00000 0.00000 0.00000   14293  -23.83    1.57  1.0000
  16   5  13    1978    2877     0.00000 0.00000 0.00000 0.00000 0.00000 0.00000    7837   51.07   -1.10  1.0000
  18   5  13    1732    3756     0.00000 0.00000 0.00000 0.00000 0.00000 0.00000    5085   15.87   26.81  1.0000
  20   5  13    5551    4411     0.00000 0.00000 0.00000 0.00000 0.00000 0.00000    6178   17.14   17.86  1.0000
  22   5  13    8229    4941     0.00000 0.00000 0.00000 0.00000 0.00000 0.00000   11014    9.70   20.09  1.0000
  24   5  13   12383    5665     0.00000 0.00000 0.00000 0.00000 0.00000 0.00000   15524   -9.07  -14.04  1.0000
   1   6  13   75478    2984     0.00000 0.00000 0.00000 0.00000 0.00000 0.00000   87669  -37.83   37.08  1.0000
   3   6  13   10091    1624     0.00000 0.00000 0.00000 0.00000 0.00000 0.00000   22351  -30.09  -39.57  1.0000
   5   6  13   32756    2478     0.00000 0.00000 0.00000 0.00000 0.00000 0.00000   33342    5.77   37.81  1.0000
   7   6  13     589    1877     0.00000 0.00000 0.00000 0.00000 0.00000 0.00000    2589  -70.95    1.00  1.0000
   9   6  13   53576    3130     0.00000 0.00000 0.00000 0.00000 0.00000 0.00000   52308  -11.74  -33.26  1.0000
  11   6  13   67302    2952     0.00000 0.00000 0.00000 0.00000 0.00000 0.00000   78845   21.30   -8.74  1.0000
  13   6  13   14712    2587     0.00000 0.00000 0.00000 0.00000 0.00000 0.00000   16862   10.12    2.38  1.0000
  15   6  13    1211    2804     0.00000 0.00000 0.00000 0.00000 0.00000 0.00000    2789  -13.84   11.94  1.0000
  17   6  13    1545    4516     0.00000 0.00000 0.00000 0.00000 0.00000 0.00000    3593  -16.61   17.96  1.0000
  19   6  13   10971    4288     0.00000 0.00000 0.00000 0.00000 0.00000 0.00000   11121   -1.98  -12.72  1.0000
  21   6  13    8565    5190     0.00000 0.00000 0.00000 0.00000 0.00000 0.00000    3629  -11.34  -30.71  1.0000
  23   6  13    4441    5596     0.00000 0.00000 0.00000 0.00000 0.00000 0.00000    6169   16.43   -7.33  1.0000
   2   7  13   80679    3106     0.00000 0.00000 0.00000 0.00000 0.00000 0.00000  106069  -24.83  -38.69  1.0000
   4   7  13   58033    2760     0.00000 0.00000 0.00000 0.00000 0.00000 0.00000   59464    3.94   15.50  1.0000
   6   7  13    4349    1799     0.00000 0.00000 0.00000 0.00000 0.00000 0.00000    5678   71.07    1.24  1.0000
   8   7  13   32849    2724     0.00000 0.00000 0.00000 0.00000 0.00000 0.00000   41809   23.73   22.37  1.0000
  10   7  13    7183    2308     0.00000 0.00000 0.00000 0.00000 0.00000 0.00000    4269  -17.20  -19.60  1.0000
  12   7  13   10429    2360     0.00000 0.00000 0.00000 0.00000 0.00000 0.00000    6168   22.75  -14.28  1.0000
  14   7  13    7570    2692     0.00000 0.00000 0.00000 0.00000 0.00000 0.00000    9856   11.56   -5.87  1.0000
  16   7  13     820    2829     0.00000 0.00000 0.00000 0.00000 0.00000 0.00000    3175   17.70  -23.02  1.0000
  18   7  13    2143    3822     0.00000 0.00000 0.00000 0.00000 0.00000 0.00000    2324   -2.97  -12.89  1.0000
  20   7  13     716    5163     0.00000 0.00000 0.00000 0.00000 0.00000 0.00000   -2242   23.10   14.15  1.0000
  22   7  13     882    5532     0.00000 0.00000 0.00000 0.00000 0.00000 0.00000    3109   14.17   22.32  1.0000
   1   8  13  142017    3593     0.00000 0.00000 0.00000 0.00000 0.00000 0.00000  114861   38.96   14.17  1.0000
   3   8  13  106020    3568     0.00000 0.00000 0.00000 0.00000 0.00000 0.00000  101252   12.44  -22.92  1.0000
   5   8  13   63038    2740     0.00000 0.00000 0.00000 0.00000 0.00000 0.00000   46324  -17.78   58.55  1.0000
   7   8  13   34126    3415     0.00000 0.00000 0.00000 0.00000 0.00000 0.00000   43619  -22.36   23.56  1.0000
   9   8  13   56528    3406     0.00000 0.00000 0.00000 0.00000 0.00000 0.00000   51846    3.08  -10.35  1.0000
  11   8  13   34857    2907     0.00000 0.00000 0.00000 0.00000 0.00000 0.00000   27033   14.88  -16.97  1.0000
  13   8  13    5174    2608     0.00000 0.00000 0.00000 0.00000 0.00000 0.00000    7138   -1.47   12.64  1.0000
  15   8  13   11301    3090     0.00000 0.00000 0.00000 0.00000 0.00000 0.00000   19766    2.26  -38.05  1.0000
  17   8  13   14850    4214     0.00000 0.00000 0.00000 0.00000 0.00000 0.00000   17738   14.77   -8.64  1.0000
  19   8  13    6532    4936     0.00000 0.00000 0.00000 0.00000 0.00000 0.00000    5181    9.54    7.37  1.0000
  21   8  13      74    5513     0.00000 0.00000 0.00000 0.00000 0.00000 0.00000    1500    2.45  -30.43  1.0000
  23   8  13    9011    5816     0.00000 0.00000 0.00000 0.00000 0.00000 0.00000   10225   -6.07  -10.20  1.0000
   2   9  13   31718    1920     0.00000 0.00000 0.00000 0.00000 0.00000 0.00000   21696   21.42   23.28  1.0000
   4   9  13   48569    4403     0.00000 0.00000 0.00000 0.00000 0.00000 0.00000   62745   21.16   21.94  1.0000
   6   9  13   51362    3712     0.00000 0.00000 0.00000 0.00000 0.00000 0.00000   54085   12.85  -34.00  1.0000
   8   9  13   55656    3024     0.00000 0.00000 0.00000 0.00000 0.00000 0.00000   50724   -5.21   -9.51  1.0000
  10   9  13   15189    2370     0.00000 0.00000 0.00000 0.00000 0.00000 0.00000   10980    8.69   20.21  1.0000
  12   9  13   24257    2774     0.00000 0.00000 0.00000 0.00000 0.00000 0.00000   27643   11.34    3.01  1.0000
  14   9  13   13521    2944     0.00000 0.00000 0.00000 0.00000 0.00000 0.00000   18778  -21.20   -2.09  1.0000
  16   9  13    4359    4999     0.00000 0.00000 0.00000 0.00000 0.00000 0.00000    6126  -16.38    8.94  1.0000
  18   9  13    1825    4221     0.00000 0.00000 0.00000 0.00000 0.00000 0.00000   -3274   19.99  -38.35  1.0000
  20   9  13     551    5472     0.00000 0.00000 0.00000 0.00000 0.00000 0.00000   -1063   22.90    6.34  1.0000
  22   9  13     498    5845     0.00000 0.00000 0.00000 0.00000 0.00000 0.00000    4719   -4.38   47.81  1.0000
   1  10  13  139589    4502     0.00000 0.00000 0.00000 0.00000 0.00000 0.00000  116458   14.97   29.87  1.0000
   3  10  13   14218    2255     0.00000 0.00000 0.00000 0.00000 0.00000 0.00000   11765  -26.69    2.48  1.0000
   5  10  13   10616    2529     0.00000 0.00000 0.00000 0.00000 0.00000 0.00000   11811   -9.14   -2.12  1.0000
   7  10  13    8064    2263     0.00000 0.00000 0.00000 0.00000 0.00000 0.00000    4724   17.39  -20.30  1.0000
   9  10  13   13844    2519     0.00000 0.00000 0.00000 0.00000 0.00000 0.00000    9898   -9.77   19.13  1.0000
  11  10  13   25025    3269     0.00000 0.00000 0.00000 0.00000 0.00000 0.00000   30341  -38.86  -37.57  1.0000
  13  10  13   11287    2857     0.00000 0.00000 0.00000 0.00000 0.00000 0.00000    7415  -19.94  -12.98  1.0000
  15  10  13    7488    4289     0.00000 0.00000 0.00000 0.00000 0.00000 0.00000    9119  -15.23    0.09  1.0000
  17  10  13   11653    4322     0.00000 0.00000 0.00000 0.00000 0.00000 0.00000   15664  -20.40   16.35  1.0000
  19  10  13   10960    5040     0.00000 0.00000 0.00000 0.00000 0.00000 0.00000   11090   -3.98    8.02  1.0000
  21  10  13    9658    5766     0.00000 0.00000 0.00000 0.00000 0.00000 0.00000   10958   10.72    0.54  1.0000
   2  11  13   72564    3562     0.00000 0.00000 0.00000 0.00000 0.00000 0.00000   69672    5.54    2.83  1.0000
   4  11  13   26008    2750     0.00000 0.00000 0.00000 0.00000 0.00000 0.00000   26659   11.78   -5.31  1.0000
   6  11  13   64160    3024     0.00000 0.00000 0.00000 0.00000 0.00000 0.00000   74730  -18.95  -11.10  1.0000
   8  11  13   34013    2782     0.00000 0.00000 0.00000 0.00000 0.00000 0.00000   26644  -14.90  -16.45  1.0000
  10  11  13   25568    2829     0.00000 0.00000 0.00000 0.00000 0.00000 0.00000   33062   37.79  -37.46  1.0000
  12  11  13   17243    2837     0.00000 0.00000 0.00000 0.00000 0.00000 0.00000   25713   23.63   20.67  1.0000
  14  11  13   24189    3655     0.00000 0.00000 0.00000 0.00000 0.00000 0.00000   29063  -15.49  -16.47  1.0000
  16  11  13    6408    5401     0.00000 0.00000 0.00000 0.00000 0.00000 0.00000    7300    0.92    8.25  1.0000
  18  11  13    6770    4339     0.00000 0.00000 0.00000 0.00000 0.00000 0.00000    4226   -5.24   17.20  1.0000
  20  11  13     442    5841     0.00000 0.00000 0.00000 0.00000 0.00000 0.00000   -5699   -9.26   19.16  1.0000
  22  11  13    6469    6667     0.00000 0.00000 0.00000 0.00000 0.00000 0.00000    7850    2.43   19.85  1.0000
   1  12  13  207815    5055     0.00000 0.00000 0.00000 0.00000 0.00000 0.00000  189719   17.29   12.01  1.0000
   3  12  13  178832    4229     0.00000 0.00000 0.00000 0.00000 0.00000 0.00000  152131  -17.27  -30.56  1.0000
   5  12  13  141131    3998     0.00000 0.00000 0.00000 0.00000 0.00000 0.00000  133478   14.66   -0.04  1.0000
   7  12  13   10972    2742     0.00000 0.00000 0.00000 0.00000 0.00000 0.00000    6727  -24.94  -13.57  1.0000
   9  12  13   26718    4370     0.00000 0.00000 0.00000 0.00000 0.00000 0.00000   30448  -11.85    2.02  1.0000
  11  12  13   17983    3405     0.00000 0.00000 0.00000 0.00000 0.00000 0.00000   26683  -23.61   19.87  1.0000
  13  12  13    3748    3212     0.00000 0.00000 0.00000 0.00000 0.00000 0.00000    4484  -17.04   -1.43  1.0000
  15  12  13   17118    4712     0.00000 0.00000 0.00000 0.00000 0.00000 0.00000   18964   -2.98   -6.31  1.0000
  17  12  13   10239    5158     0.00000 0.00000 0.00000 0.00000 0.00000 0.00000    8316   -7.92   -9.41  1.0000
  19  12  13    3181    4557     0.00000 0.00000 0.00000 0.00000 0.00000 0.00000    5063   16.18  -14.37  1.0000
  21  12  13    2793    5392     0.00000 0.00000 0.00000 0.00000 0.00000 0.00000    4871   30.12   -8.56  1.0000
   2  13  13    5140    2382     0.00000 0.00000 0.00000 0.00000 0.00000 0.00000    6969    8.59   11.02  1.0000
   4  13  13    8671    2357     0.00000 0.00000 0.00000 0.00000 0.00000 0.00000    7745  -38.97   34.39  1.0000
   6  13  13   17587    2390     0.00000 0.00000 0.00000 0.00000 0.00000 0.00000   19208  -10.10    2.82  1.0000
   8  13  13    1309    2731     0.00000 0.00000 0.00000 0.00000 0.00000 0.00000    2392    1.29   12.81  1.0000
  10  13  13   11956    2806     0.00000 0.00000 0.00000 0.00000 0.00000 0.00000    9572   19.04  -11.09  1.0000
  12  13  13    9372    3219     0.00000 0.00000 0.00000 0.00000 0.00000 0.00000   10038   16.59   -1.95  1.0000
  14  13  13    5962    4687     0.00000 0.00000 0.00000 0.00000 0.00000 0.00000    7258  -14.14    7.29  1.0000
  16  13  13    6104   18305     0.00000 0.00000 0.00000 0.00000 0.00000 0.00000   23931   38.59   67.25  1.0000
  18  13  13    2521    4750     0.00000 0.00000 0.00000 0.00000 0.00000 0.00000   -3541   35.65   36.24  1.0000
  20  13  13    2756    4875     0.00000 0.00000 0.00000 0.00000 0.00000 0.00000    1983  -15.65   -4.88  1.0000
   1  14  13   20279    2624     0.00000 0.00000 0.00000 0.00000 0.00000 0.00000   24723   -5.13   26.47  1.0000
   3  14  13    1338    2914     0.00000 0.00000 0.00000 0.00000 0.00000 0.00000     537   -0.90  -13.75  1.0000
   5  14  13   10286    3566     0.00000 0.00000 0.00000 0.00000 0.00000 0.00000   14876   22.39    2.47  1.0000
   7  14  13    7890    2831     0.00000 0.00000 0.00000 0.00000 0.00000 0.00000   10677  -13.71   -5.75  1.0000
   9  14  13   12720    3153     0.00000 0.00000 0.00000 0.00000 0.00000 0.00000   18164   22.40   -1.96  1.0000
  11  14  13   15254    3683     0.00000 0.00000 0.00000 0.00000 0.00000 0.00000   19045   17.32  -16.35  1.0000
  13  14  13    6831    5283     0.00000 0.00000 0.00000 0.00000 0.00000 0.00000    8762   14.85    6.98  1.0000
  15  14  13    2614   10670     0.00000 0.00000 0.00000 0.00000 0.00000 0.00000   13862   58.00  -51.01  1.0000
  17  14  13    3172    4472     0.00000 0.00000 0.00000 0.00000 0.00000 0.00000    3553   -3.96    0.00  1.0000
  19  14  13      26    5845     0.00000 0.00000 0.00000 0.00000 0.00000 0.00000   -3064   -5.03   -1.02  1.0000
   2  15  13    3872    2595     0.00000 0.00000 0.00000 0.00000 0.00000 0.00000    4774   50.15  -23.60  1.0000
   4  15  13     160    2653     0.00000 0.00000 0.00000 0.00000 0.00000 0.00000   -2174   -2.24   12.60  1.0000
   6  15  13    2997    3586     0.00000 0.00000 0.00000 0.00000 0.00000 0.00000    5105   13.47   10.81  1.0000
   8  15  13    7845    3499     0.00000 0.00000 0.00000 0.00000 0.00000 0.00000   14871   -2.70  -38.04  1.0000
  10  15  13    4103    4108     0.00000 0.00000 0.00000 0.00000 0.00000 0.00000    5370   15.66    0.94  1.0000
  12  15  13   14604    3685     0.00000 0.00000 0.00000 0.00000 0.00000 0.00000   16144    1.85   -6.28  1.0000
  14  15  13    1056   11920     0.00000 0.00000 0.00000 0.00000 0.00000 0.00000    2374  -58.67  -49.24  1.0000
  16  15  13    1613    5155     0.00000 0.00000 0.00000 0.00000 0.00000 0.00000   -1536  -37.08  -16.69  1.0000
  18  15  13    3091    5357     0.00000 0.00000 0.00000 0.00000 0.00000 0.00000    4154   -9.71    1.86  1.0000
   1  16  13     729    2747     0.00000 0.00000 0.00000 0.00000 0.00000 0.00000   -2095  -20.21  -18.41  1.0000
   3  16  13    1291    2602     0.00000 0.00000 0.00000 0.00000 0.00000 0.00000    1992  -37.76  -12.89  1.0000
   5  16  13     857    3020     0.00000 0.00000 0.00000 0.00000 0.00000 0.00000    5886  -51.02   -0.15  1.0000
   7  16  13     553    3374     0.00000 0.00000 0.00000 0.00000 0.00000 0.00000    2670  -15.14  -26.00  1.0000
   9  16  13     380    6193     0.00000 0.00000 0.00000 0.00000 0.00000 0.00000   -9134   17.60    8.93  1.0000
  11  16  13      55    6672     0.00000 0.00000 0.00000 0.00000 0.00000 0.00000   -5835   -1.74    7.33  1.0000
  13  16  13    2776   17465     0.00000 0.00000 0.00000 0.00000 0.00000 0.00000   16426  -38.87   65.93  1.0000
  15  16  13    1647    6663     0.00000 0.00000 0.00000 0.00000 0.00000 0.00000   -1738   38.05  -15.50  1.0000
  17  16  13     655    5861     0.00000 0.00000 0.00000 0.00000 0.00000 0.00000      51   10.19   23.97  1.0000
   2  17  13     300    2945     0.00000 0.00000 0.00000 0.00000 0.00000 0.00000    3017  -27.36   32.11  1.0000
   4  17  13     124    2700     0.00000 0.00000 0.00000 0.00000 0.00000 0.00000   -1668    9.50    6.07  1.0000
   6  17  13    3819    4158     0.00000 0.00000 0.00000 0.00000 0.00000 0.00000    6781   16.83   18.28  1.0000
   8  17  13    7953    3711     0.00000 0.00000 0.00000 0.00000 0.00000 0.00000   10926  -15.24   -7.01  1.0000
  10  17  13   11339    4136     0.00000 0.00000 0.00000 0.00000 0.00000 0.00000   15140   21.71   15.87  1.0000
  12  17  13   12489    5367     0.00000 0.00000 0.00000 0.00000 0.00000 0.00000   10596    9.00   -7.59  1.0000
  14  17  13       6    6159     0.00000 0.00000 0.00000 0.00000 0.00000 0.00000    -416    2.00    1.51  1.0000
  16  17  13    4394    5979     0.00000 0.00000 0.00000 0.00000 0.00000 0.00000    3712  -10.33   22.65  1.0000
  18  17  13       8   14327     0.00000 0.00000 0.00000 0.00000 0.00000 0.00000  -19005   -2.87   -0.17  1.0000
   1  18  13    2303    3150     0.00000 0.00000 0.00000 0.00000 0.00000 0.00000     690   -0.98  -32.54  1.0000
   3  18  13    2481    4030     0.00000 0.00000 0.00000 0.00000 0.00000 0.00000    4993  -20.13   13.23  1.0000
   5  18  13    2417    5361     0.00000 0.00000 0.00000 0.00000 0.00000 0.00000    6089  -18.54   26.91  1.0000
   7  18  13     188    3764     0.00000 0.00000 0.00000 0.00000 0.00000 0.00000   -1353    3.68  -13.39  1.0000
   9  18  13    1783    3900     0.00000 0.00000 0.00000 0.00000 0.00000 0.00000   -5850  -19.90  -37.83  1.0000
  11  18  13     309    4533     0.00000 0.00000 0.00000 0.00000 0.00000 0.00000   -2061    3.54   17.44  1.0000
  13  18  13    4244    5003     0.00000 0.00000 0.00000 0.00000 0.00000 0.00000    7138  -35.43   34.39  1.0000
  15  18  13     100    5988     0.00000 0.00000 0.00000 0.00000 0.00000 0.00000     400   10.14    0.53  1.0000
  17  18  13    1090   14363     0.00000 0.00000 0.00000 0.00000 0.00000 0.00000     933    2.80   -0.76  1.0000
   2  19  13    9455    5049     0.00000 0.00000 0.00000 0.00000 0.00000 0.00000   14607    0.52   27.46  1.0000
   4  19  13    4162    4102     0.00000 0.00000 0.00000 0.00000 0.00000 0.00000    1782   49.38  -13.96  1.0000
   6  19  13    8626    3575     0.00000 0.00000 0.00000 0.00000 0.00000 0.00000    7938    1.32  -11.93  1.0000
   8  19  13   11270    3923     0.00000 0.00000 0.00000 0.00000 0.00000 0.00000    9473   -8.84    7.72  1.0000
  10  19  13   10331    4889     0.00000 0.00000 0.00000 0.00000 0.00000 0.00000   10881    3.22    5.55  1.0000
  12  19  13    6520    5149     0.00000 0.00000 0.00000 0.00000 0.00000 0.00000    9177  -15.73  -14.48  1.0000
  14  19  13     492    5276     0.00000 0.00000 0.00000 0.00000 0.00000 0.00000     647    5.08   -0.67  1.0000
   1  20  13     697    5070     0.00000 0.00000 0.00000 0.00000 0.00000 0.00000    2826   42.86    7.61  1.0000
   3  20  13     806    6729     0.00000 0.00000 0.00000 0.00000 0.00000 0.00000    3290   46.83  -37.02  1.0000
   5  20  13     554    4135     0.00000 0.00000 0.00000 0.00000 0.00000 0.00000   -2703  -16.69   17.02  1.0000
   7  20  13    6426    4138     0.00000 0.00000 0.00000 0.00000 0.00000 0.00000    2980  -23.08   13.27  1.0000
   9  20  13     563    4801     0.00000 0.00000 0.00000 0.00000 0.00000 0.00000    -816  -22.94    7.13  1.0000
  11  20  13    3517    5008     0.00000 0.00000 0.00000 0.00000 0.00000 0.00000    5633   10.19   18.81  1.0000
  13  20  13    5861    5428     0.00000 0.00000 0.00000 0.00000 0.00000 0.00000    4831   15.86   -4.59  1.0000
   2  21  13      96    4216     0.00000 0.00000 0.00000 0.00000 0.00000 0.00000    2548  -15.49  -44.67  1.0000
   4  21  13     750    6739     0.00000 0.00000 0.00000 0.00000 0.00000 0.00000   -2007   27.70   -1.23  1.0000
   6  21  13    1085    4599     0.00000 0.00000 0.00000 0.00000 0.00000 0.00000   -2860    9.54  -31.96  1.0000
   8  21  13    1385    4551     0.00000 0.00000 0.00000 0.00000 0.00000 0.00000    4579   -1.46  -30.79  1.0000
  10  21  13    5280    5093     0.00000 0.00000 0.00000 0.00000 0.00000 0.00000    6273  -11.17    0.28  1.0000
  12  21  13    4195    5419     0.00000 0.00000 0.00000 0.00000 0.00000 0.00000    7724  -29.54   -7.17  1.0000
   1  22  13    1597    4212     0.00000 0.00000 0.00000 0.00000 0.00000 0.00000   12165   33.05   63.58  1.0000
   3  22  13     533    4612     0.00000 0.00000 0.00000 0.00000 0.00000 0.00000     777   10.87   50.39  1.0000
   5  22  13     930    4860     0.00000 0.00000 0.00000 0.00000 0.00000 0.00000    1575  -10.15   22.36  1.0000
   7  22  13     400    6350     0.00000 0.00000 0.00000 0.00000 0.00000 0.00000    2202  -12.13   24.41  1.0000
   9  22  13    2625    6590     0.00000 0.00000 0.00000 0.00000 0.00000 0.00000    9677    2.87   48.39  1.0000
  11  22  13    4348    5858     0.00000 0.00000 0.00000 0.00000 0.00000 0.00000    5256   -3.27   19.00  1.0000
   2  23  13    3315    5110     0.00000 0.00000 0.00000 0.00000 0.00000 0.00000   -2758  -50.67  -28.82  1.0000
   4  23  13    6778    4732     0.00000 0.00000 0.00000 0.00000 0.00000 0.00000   13313  -32.71  -10.41  1.0000
   6  23  13    1390    5288     0.00000 0.00000 0.00000 0.00000 0.00000 0.00000    2403  -16.72   -8.93  1.0000
   8  23  13    3727    6134     0.00000 0.00000 0.00000 0.00000 0.00000 0.00000    4070    5.91   -9.27  1.0000
   1  24  13    2177    4632     0.00000 0.00000 0.00000 0.00000 0.00000 0.00000    4426   18.01  -35.18  1.0000
   3  24  13    1530    4766     0.00000 0.00000 0.00000 0.00000 0.00000 0.00000    6114   -6.46   39.04  1.0000
   5  24  13    3271    5975     0.00000 0.00000 0.00000 0.00000 0.00000 0.00000    4870    7.29  -13.60  1.0000
   0   0  14     777    4388     0.00000 0.00000 0.00000 0.00000 0.00000 0.00000   -4999  -28.17   -1.67  1.0000
   2   0  14   56511    2859     0.00000 0.00000 0.00000 0.00000 0.00000 0.00000     475  -52.98 -251.24  1.0000
   4   0  14  164288   11948     0.00000 0.00000 0.00000 0.00000 0.00000 0.00000  353272  -45.82  193.78  1.0000
   6   0  14   17229    2795     0.00000 0.00000 0.00000 0.00000 0.00000 0.00000   30041  -20.63   70.41  1.0000
   8   0  14   25410    3671     0.00000 0.00000 0.00000 0.00000 0.00000 0.00000   43130   53.73  -37.69  1.0000
  10   0  14    3246    2231     0.00000 0.00000 0.00000 0.00000 0.00000 0.00000    5895  -29.94  -43.59  1.0000
  12   0  14   23054    2681     0.00000 0.00000 0.00000 0.00000 0.00000 0.00000   26048  -19.32    8.02  1.0000
  14   0  14   31254    3037     0.00000 0.00000 0.00000 0.00000 0.00000 0.00000   29204    0.18    9.10  1.0000
  16   0  14    2683    3574     0.00000 0.00000 0.00000 0.00000 0.00000 0.00000    7241  -21.01   27.60  1.0000
  18   0  14   18937    4557     0.00000 0.00000 0.00000 0.00000 0.00000 0.00000   27333   35.68   -9.83  1.0000
  20   0  14    4393    5320     0.00000 0.00000 0.00000 0.00000 0.00000 0.00000    6581   32.17   40.78  1.0000
  22   0  14   17708    6012     0.00000 0.00000 0.00000 0.00000 0.00000 0.00000   26364  -34.14  -35.28  1.0000
  24   0  14    2497    7124     0.00000 0.00000 0.00000 0.00000 0.00000 0.00000    4069   -6.65  -51.20  1.0000
   1   1  14     430    1870     0.00000 0.00000 0.00000 0.00000 0.00000 0.00000   -2805   20.99    0.58  1.0000
   3   1  14   21067    2488     0.00000 0.00000 0.00000 0.00000 0.00000 0.00000   44640   -0.45  -67.08  1.0000
   5   1  14    8156    1639     0.00000 0.00000 0.00000 0.00000 0.00000 0.00000    6995  -30.57    7.78  1.0000
   7   1  14   18447    1835     0.00000 0.00000 0.00000 0.00000 0.00000 0.00000   12717    6.24  -26.38  1.0000
   9   1  14   14644    1521     0.00000 0.00000 0.00000 0.00000 0.00000 0.00000   17192  -13.84  -12.16  1.0000
  11   1  14   47894    2280     0.00000 0.00000 0.00000 0.00000 0.00000 0.00000   40651    5.25  -17.36  1.0000
  13   1  14   30100    2048     0.00000 0.00000 0.00000 0.00000 0.00000 0.00000   34012   -2.68  -11.06  1.0000
  15   1  14   10955    2378     0.00000 0.00000 0.00000 0.00000 0.00000 0.00000   12297   26.31  -10.06  1.0000
  17   1  14   18221    2707     0.00000 0.00000 0.00000 0.00000 0.00000 0.00000   22734   -6.30  -15.71  1.0000
  19   1  14    4793    3282     0.00000 0.00000 0.00000 0.00000 0.00000 0.00000    6455   11.50    2.25  1.0000
  21   1  14    3844    4009     0.00000 0.00000 0.00000 0.00000 0.00000 0.00000    9674  -34.40   13.72  1.0000
  23   1  14    1663    4488     0.00000 0.00000 0.00000 0.00000 0.00000 0.00000    9938   60.44    6.88  1.0000
   0   2  14   62921    3329     0.00000 0.00000 0.00000 0.00000 0.00000 0.00000     997  -52.11  250.83  1.0000
   2   2  14     180    2061     0.00000 0.00000 0.00000 0.00000 0.00000 0.00000   -3080  -13.57    0.44  1.0000
   4   2  14  242639    6077     0.00000 0.00000 0.00000 0.00000 0.00000 0.00000  256989  -12.64  -15.47  1.0000
   6   2  14   45445    2022     0.00000 0.00000 0.00000 0.00000 0.00000 0.00000   25433  -41.15  -35.53  1.0000
   8   2  14   41848    2955     0.00000 0.00000 0.00000 0.00000 0.00000 0.00000   43314   17.79    3.34  1.0000
  10   2  14    3737    1469     0.00000 0.00000 0.00000 0.00000 0.00000 0.00000    4249    3.82    1.56  1.0000
  12   2  14   10037    1797     0.00000 0.00000 0.00000 0.00000 0.00000 0.00000   10855    0.72    9.65  1.0000
  14   2  14   26146    2403     0.00000 0.00000 0.00000 0.00000 0.00000 0.00000   30644  -18.03   -9.41  1.0000
  16   2  14   13133    2625     0.00000 0.00000 0.00000 0.00000 0.00000 0.00000   16661   -4.42   14.04  1.0000
  18   2  14   10620    3131     0.00000 0.00000 0.00000 0.00000 0.00000 0.00000   11552   23.72   -8.26  1.0000
  20   2  14   24670    4088     0.00000 0.00000 0.00000 0.00000 0.00000 0.00000   25204    7.16    4.70  1.0000
  22   2  14    9168    4248     0.00000 0.00000 0.00000 0.00000 0.00000 0.00000   20596   -5.91   50.29  1.0000
  24   2  14    3753    5065     0.00000 0.00000 0.00000 0.00000 0.00000 0.00000   10360  -58.73   23.79  1.0000
   1   3  14   17597    3192     0.00000 0.00000 0.00000 0.00000 0.00000 0.00000   39527    0.92   67.26  1.0000
   3   3  14    1984    1543     0.00000 0.00000 0.00000 0.00000 0.00000 0.00000    1542   -5.49   -3.31  1.0000
   5   3  14   45434    2474     0.00000 0.00000 0.00000 0.00000 0.00000 0.00000   46610  -12.96   18.66  1.0000
   7   3  14   51495    3159     0.00000 0.00000 0.00000 0.00000 0.00000 0.00000   58056   10.22    9.86  1.0000
   9   3  14   12360    1684     0.00000 0.00000 0.00000 0.00000 0.00000 0.00000   14246    5.35   11.17  1.0000
  11   3  14   16648    1677     0.00000 0.00000 0.00000 0.00000 0.00000 0.00000   17394   -0.46   22.27  1.0000
  13   3  14     273    2550     0.00000 0.00000 0.00000 0.00000 0.00000 0.00000    -104   -3.07   16.44  1.0000
  15   3  14    5384    2273     0.00000 0.00000 0.00000 0.00000 0.00000 0.00000    4042   10.08   -4.23  1.0000
  17   3  14    8041    3150     0.00000 0.00000 0.00000 0.00000 0.00000 0.00000    5797   -0.92   13.76  1.0000
  19   3  14   12899    3741     0.00000 0.00000 0.00000 0.00000 0.00000 0.00000   10844   -7.38  -12.80  1.0000
  21   3  14    5941    4676     0.00000 0.00000 0.00000 0.00000 0.00000 0.00000   10276   11.87   27.41  1.0000
  23   3  14    8693    4525     0.00000 0.00000 0.00000 0.00000 0.00000 0.00000   13001   29.97   10.32  1.0000
   0   4  14  154789   14192     0.00000 0.00000 0.00000 0.00000 0.00000 0.00000  339965  -46.18 -194.43  1.0000
   2   4  14  231845    7094     0.00000 0.00000 0.00000 0.00000 0.00000 0.00000  246764  -12.43   16.27  1.0000
   6   4  14   23485    2694     0.00000 0.00000 0.00000 0.00000 0.00000 0.00000   27098  -57.34  -12.81  1.0000
   8   4  14   29790    2068     0.00000 0.00000 0.00000 0.00000 0.00000 0.00000   24340  -54.95    7.52  1.0000
  10   4  14   15931    2276     0.00000 0.00000 0.00000 0.00000 0.00000 0.00000   14197  -39.61   -4.96  1.0000
  12   4  14   16401    2081     0.00000 0.00000 0.00000 0.00000 0.00000 0.00000   16757   41.25    1.40  1.0000
  14   4  14    3653    2267     0.00000 0.00000 0.00000 0.00000 0.00000 0.00000    2456  -12.21   -5.58  1.0000
  16   4  14    2354    2695     0.00000 0.00000 0.00000 0.00000 0.00000 0.00000    1017    7.45  -15.57  1.0000
  18   4  14    4417    3331     0.00000 0.00000 0.00000 0.00000 0.00000 0.00000    5111    9.36    2.45  1.0000
  20   4  14    3641    4001     0.00000 0.00000 0.00000 0.00000 0.00000 0.00000    3139  -21.32  -11.93  1.0000
  22   4  14   13925    5119     0.00000 0.00000 0.00000 0.00000 0.00000 0.00000   16147   23.27    3.84  1.0000
  24   4  14     396    5640     0.00000 0.00000 0.00000 0.00000 0.00000 0.00000    6521  -63.23   16.88  1.0000
   1   5  14    2375    1942     0.00000 0.00000 0.00000 0.00000 0.00000 0.00000    1291  -29.48   -6.14  1.0000
   3   5  14   43359    2508     0.00000 0.00000 0.00000 0.00000 0.00000 0.00000   42796  -13.29  -16.62  1.0000
   5   5  14   13592    2353     0.00000 0.00000 0.00000 0.00000 0.00000 0.00000    4613   49.28    1.09  1.0000
   7   5  14   67337    3270     0.00000 0.00000 0.00000 0.00000 0.00000 0.00000   60457   14.06    2.80  1.0000
   9   5  14   15257    2205     0.00000 0.00000 0.00000 0.00000 0.00000 0.00000   11653   15.20   20.95  1.0000
  11   5  14   42091    2467     0.00000 0.00000 0.00000 0.00000 0.00000 0.00000   43244    2.81   -6.13  1.0000
  13   5  14   13256    2359     0.00000 0.00000 0.00000 0.00000 0.00000 0.00000   20777  -30.08    3.44  1.0000
  15   5  14    3212    2907     0.00000 0.00000 0.00000 0.00000 0.00000 0.00000    5789  -14.05   25.84  1.0000
  17   5  14    4167    3051     0.00000 0.00000 0.00000 0.00000 0.00000 0.00000    3998    1.26    2.74  1.0000
  19   5  14   12759    4149     0.00000 0.00000 0.00000 0.00000 0.00000 0.00000   14493  -22.60  -10.66  1.0000
  21   5  14    4437    4737     0.00000 0.00000 0.00000 0.00000 0.00000 0.00000    6422    4.47  -13.04  1.0000
  23   5  14    4614    5551     0.00000 0.00000 0.00000 0.00000 0.00000 0.00000    3254   -9.96    7.21  1.0000
   0   6  14   10986    2643     0.00000 0.00000 0.00000 0.00000 0.00000 0.00000   24093  -21.20  -70.00  1.0000
   2   6  14   44573    1514     0.00000 0.00000 0.00000 0.00000 0.00000 0.00000   24858  -38.45   38.14  1.0000
   4   6  14   22371    1754     0.00000 0.00000 0.00000 0.00000 0.00000 0.00000   25832  -60.13   13.74  1.0000
   6   6  14   48241    3337     0.00000 0.00000 0.00000 0.00000 0.00000 0.00000   55128  -15.38   -1.45  1.0000
   8   6  14    8037    2091     0.00000 0.00000 0.00000 0.00000 0.00000 0.00000    8956   14.28  -17.09  1.0000
  10   6  14    1653    2157     0.00000 0.00000 0.00000 0.00000 0.00000 0.00000     503  -15.75  -10.13  1.0000
  12   6  14     233    2247     0.00000 0.00000 0.00000 0.00000 0.00000 0.00000     337   -7.58   -1.04  1.0000
  14   6  14   10141    2558     0.00000 0.00000 0.00000 0.00000 0.00000 0.00000   18855  -36.37   10.10  1.0000
  16   6  14    1910    2977     0.00000 0.00000 0.00000 0.00000 0.00000 0.00000    2205   -4.30  -18.98  1.0000
  18   6  14    7020    4244     0.00000 0.00000 0.00000 0.00000 0.00000 0.00000    8412  -10.56    4.83  1.0000
  20   6  14    2333    4562     0.00000 0.00000 0.00000 0.00000 0.00000 0.00000    5297   -8.13   30.83  1.0000
  22   6  14   10533    5517     0.00000 0.00000 0.00000 0.00000 0.00000 0.00000   11635   32.74   -7.80  1.0000
   1   7  14   20322    1630     0.00000 0.00000 0.00000 0.00000 0.00000 0.00000   13617    8.36   25.60  1.0000
   3   7  14   48899    2432     0.00000 0.00000 0.00000 0.00000 0.00000 0.00000   55841    8.77  -12.71  1.0000
   5   7  14   68423    3221     0.00000 0.00000 0.00000 0.00000 0.00000 0.00000   62037   10.61   -7.00  1.0000
   7   7  14    8917    3392     0.00000 0.00000 0.00000 0.00000 0.00000 0.00000    4854  -25.01   -2.12  1.0000
   9   7  14   10667    2501     0.00000 0.00000 0.00000 0.00000 0.00000 0.00000   16752  -28.43  -20.59  1.0000
  11   7  14    9888    3116     0.00000 0.00000 0.00000 0.00000 0.00000 0.00000   12594  -11.77   32.09  1.0000
  13   7  14     100    2521     0.00000 0.00000 0.00000 0.00000 0.00000 0.00000    -780    8.31   -5.75  1.0000
  15   7  14    1806    2815     0.00000 0.00000 0.00000 0.00000 0.00000 0.00000    3728  -17.98   -5.55  1.0000
  17   7  14    7691    4968     0.00000 0.00000 0.00000 0.00000 0.00000 0.00000   11435  -18.08   12.79  1.0000
  19   7  14   11045    4655     0.00000 0.00000 0.00000 0.00000 0.00000 0.00000   14844   31.09   22.81  1.0000
  21   7  14   13400    5342     0.00000 0.00000 0.00000 0.00000 0.00000 0.00000    8801    0.95  -25.68  1.0000
  23   7  14    1621    5768     0.00000 0.00000 0.00000 0.00000 0.00000 0.00000    3621   -8.72   18.71  1.0000
   0   8  14   23040    3466     0.00000 0.00000 0.00000 0.00000 0.00000 0.00000   38839   55.10   36.38  1.0000
   2   8  14   41184    2204     0.00000 0.00000 0.00000 0.00000 0.00000 0.00000   42466   14.15   -3.12  1.0000
   4   8  14   34654    2188     0.00000 0.00000 0.00000 0.00000 0.00000 0.00000   28756  -60.21   -8.39  1.0000
   6   8  14   10781    2253     0.00000 0.00000 0.00000 0.00000 0.00000 0.00000   10961   25.48   20.39  1.0000
   8   8  14     435    2203     0.00000 0.00000 0.00000 0.00000 0.00000 0.00000     136    9.18    1.57  1.0000
  10   8  14    4404    3109     0.00000 0.00000 0.00000 0.00000 0.00000 0.00000    4181   17.32  -35.11  1.0000
  12   8  14    2593    2450     0.00000 0.00000 0.00000 0.00000 0.00000 0.00000    3533    5.89  -21.90  1.0000
  14   8  14     230    2710     0.00000 0.00000 0.00000 0.00000 0.00000 0.00000     153   11.50    1.97  1.0000
  16   8  14    1037    3209     0.00000 0.00000 0.00000 0.00000 0.00000 0.00000    4440   33.78  -12.26  1.0000
  18   8  14    8830    5503     0.00000 0.00000 0.00000 0.00000 0.00000 0.00000    7462   16.59   -9.87  1.0000
  20   8  14    2270    5332     0.00000 0.00000 0.00000 0.00000 0.00000 0.00000    3040  -14.99  -25.31  1.0000
  22   8  14    4241    5658     0.00000 0.00000 0.00000 0.00000 0.00000 0.00000    5900  -24.33   14.25  1.0000
   1   9  14   13246    1900     0.00000 0.00000 0.00000 0.00000 0.00000 0.00000   15614  -12.92   11.55  1.0000
   3   9  14   17290    2006     0.00000 0.00000 0.00000 0.00000 0.00000 0.00000   18866    4.20  -14.78  1.0000
   5   9  14   17448    3768     0.00000 0.00000 0.00000 0.00000 0.00000 0.00000   14001   18.16  -20.33  1.0000
   7   9  14   12237    2375     0.00000 0.00000 0.00000 0.00000 0.00000 0.00000   17551  -31.52   24.57  1.0000
   9   9  14    3388    3076     0.00000 0.00000 0.00000 0.00000 0.00000 0.00000    9235  -38.47    0.13  1.0000
  11   9  14   47172    3018     0.00000 0.00000 0.00000 0.00000 0.00000 0.00000   41627  -13.61   24.60  1.0000
  13   9  14   17125    2935     0.00000 0.00000 0.00000 0.00000 0.00000 0.00000   12094   34.15   17.84  1.0000
  15   9  14   10588    3204     0.00000 0.00000 0.00000 0.00000 0.00000 0.00000   11065   -0.46   15.38  1.0000
  17   9  14    1003    5897     0.00000 0.00000 0.00000 0.00000 0.00000 0.00000     864   -5.58   12.21  1.0000
  19   9  14   10161    4790     0.00000 0.00000 0.00000 0.00000 0.00000 0.00000   13055   16.19  -10.92  1.0000
  21   9  14    4899    5656     0.00000 0.00000 0.00000 0.00000 0.00000 0.00000    8206    9.53  -18.67  1.0000
   0  10  14    2233    2861     0.00000 0.00000 0.00000 0.00000 0.00000 0.00000    5118  -29.98   41.68  1.0000
   2  10  14    2601    2070     0.00000 0.00000 0.00000 0.00000 0.00000 0.00000    3115    5.27    0.27  1.0000
   4  10  14   19071    2350     0.00000 0.00000 0.00000 0.00000 0.00000 0.00000   17476  -37.12    4.96  1.0000
   6  10  14    2721    3343     0.00000 0.00000 0.00000 0.00000 0.00000 0.00000    1104  -16.26   10.79  1.0000
   8  10  14    4123    2432     0.00000 0.00000 0.00000 0.00000 0.00000 0.00000    4208   11.68   29.68  1.0000
  10  10  14   38921    3856     0.00000 0.00000 0.00000 0.00000 0.00000 0.00000   45569   16.39   -0.68  1.0000
  12  10  14     303    3148     0.00000 0.00000 0.00000 0.00000 0.00000 0.00000     374    7.32   26.85  1.0000
  14  10  14    3051    3613     0.00000 0.00000 0.00000 0.00000 0.00000 0.00000    4150    7.22  -10.64  1.0000
  16  10  14     968    5276     0.00000 0.00000 0.00000 0.00000 0.00000 0.00000    3793   16.67   36.49  1.0000
  18  10  14    4698    5210     0.00000 0.00000 0.00000 0.00000 0.00000 0.00000    7344   12.50   18.44  1.0000
  20  10  14    1051    5727     0.00000 0.00000 0.00000 0.00000 0.00000 0.00000   -1287   32.10   -6.89  1.0000
  22  10  14    2468    5913     0.00000 0.00000 0.00000 0.00000 0.00000 0.00000    9646   -9.69   51.84  1.0000
   1  11  14   51459    3494     0.00000 0.00000 0.00000 0.00000 0.00000 0.00000   44078    2.79   17.06  1.0000
   3  11  14   15333    2532     0.00000 0.00000 0.00000 0.00000 0.00000 0.00000   17012   -0.89  -20.51  1.0000
   5  11  14   43742    3894     0.00000 0.00000 0.00000 0.00000 0.00000 0.00000   44795    2.19    7.45  1.0000
   7  11  14    9462    2708     0.00000 0.00000 0.00000 0.00000 0.00000 0.00000   10442  -11.32  -31.82  1.0000
   9  11  14   44931    2679     0.00000 0.00000 0.00000 0.00000 0.00000 0.00000   40082   -9.76  -25.68  1.0000
  11  11  14   16006    2910     0.00000 0.00000 0.00000 0.00000 0.00000 0.00000   19915  -14.81    1.70  1.0000
  13  11  14   31716    3187     0.00000 0.00000 0.00000 0.00000 0.00000 0.00000   33024   -4.71  -28.10  1.0000
  15  11  14   20463    3650     0.00000 0.00000 0.00000 0.00000 0.00000 0.00000   17846   10.31   -1.17  1.0000
  17  11  14    8725    4802     0.00000 0.00000 0.00000 0.00000 0.00000 0.00000    6823  -16.56   -5.38  1.0000
  19  11  14    2656    4664     0.00000 0.00000 0.00000 0.00000 0.00000 0.00000    2237    1.37   -4.55  1.0000
  21  11  14    8336    4745     0.00000 0.00000 0.00000 0.00000 0.00000 0.00000   11656   17.63   11.15  1.0000
   0  12  14   22383    6455     0.00000 0.00000 0.00000 0.00000 0.00000 0.00000   24972  -18.42   -7.29  1.0000
   2  12  14    7956    3369     0.00000 0.00000 0.00000 0.00000 0.00000 0.00000    8823    0.59   -9.48  1.0000
   4  12  14   15087    3195     0.00000 0.00000 0.00000 0.00000 0.00000 0.00000   15123   41.38   -0.67  1.0000
   6  12  14    1487    2710     0.00000 0.00000 0.00000 0.00000 0.00000 0.00000    1827   -7.92    1.47  1.0000
   8  12  14     478    2729     0.00000 0.00000 0.00000 0.00000 0.00000 0.00000   -3106    7.38   20.88  1.0000
  10  12  14     490    3031     0.00000 0.00000 0.00000 0.00000 0.00000 0.00000    1104    7.97  -25.28  1.0000
  12  12  14    8460    3338     0.00000 0.00000 0.00000 0.00000 0.00000 0.00000    4052  -28.72    2.63  1.0000
  14  12  14     134    3846     0.00000 0.00000 0.00000 0.00000 0.00000 0.00000    -342   -2.87  -11.34  1.0000
  16  12  14    1950    6989     0.00000 0.00000 0.00000 0.00000 0.00000 0.00000    1520    4.78  -16.15  1.0000
  18  12  14    2786    6605     0.00000 0.00000 0.00000 0.00000 0.00000 0.00000    4341    4.34  -12.81  1.0000
  20  12  14    6615    4897     0.00000 0.00000 0.00000 0.00000 0.00000 0.00000    6811   12.76    6.15  1.0000
   1  13  14   34706    2352     0.00000 0.00000 0.00000 0.00000 0.00000 0.00000   39239   -1.59   11.94  1.0000
   3  13  14     279    2953     0.00000 0.00000 0.00000 0.00000 0.00000 0.00000   -1700   -4.43  -16.31  1.0000
   5  13  14   13416    2616     0.00000 0.00000 0.00000 0.00000 0.00000 0.00000   21020  -30.39   -3.91  1.0000
   7  13  14     132    2657     0.00000 0.00000 0.00000 0.00000 0.00000 0.00000   -3691   10.44    5.13  1.0000
   9  13  14   14643    3187     0.00000 0.00000 0.00000 0.00000 0.00000 0.00000   11053   30.88  -17.81  1.0000
  11  13  14   32916    4019     0.00000 0.00000 0.00000 0.00000 0.00000 0.00000   34840   -2.86   26.96  1.0000
  13  13  14    2837    3379     0.00000 0.00000 0.00000 0.00000 0.00000 0.00000    4450  -13.66   -0.39  1.0000
  15  13  14   63652   54981     0.00000 0.00000 0.00000 0.00000 0.00000 0.00000  102568   65.05   24.95  1.0000
  17  13  14   19013    6251     0.00000 0.00000 0.00000 0.00000 0.00000 0.00000   11746    7.66   38.15  1.0000
  19  13  14     409    4549     0.00000 0.00000 0.00000 0.00000 0.00000 0.00000   -1030  -20.46    0.89  1.0000
   0  14  14   35312    4160     0.00000 0.00000 0.00000 0.00000 0.00000 0.00000   32732    0.55  -10.12  1.0000
   2  14  14   22216    3337     0.00000 0.00000 0.00000 0.00000 0.00000 0.00000   26300  -17.82    9.73  1.0000
   4  14  14    1182    2520     0.00000 0.00000 0.00000 0.00000 0.00000 0.00000     588  -11.95    5.29  1.0000
   6  14  14   11419    2608     0.00000 0.00000 0.00000 0.00000 0.00000 0.00000   20736  -36.70  -11.25  1.0000
   8  14  14     120    4270     0.00000 0.00000 0.00000 0.00000 0.00000 0.00000     -20   11.06   -0.59  1.0000
  10  14  14     138    3308     0.00000 0.00000 0.00000 0.00000 0.00000 0.00000    -207    7.43    9.31  1.0000
  12  14  14    4650    4310     0.00000 0.00000 0.00000 0.00000 0.00000 0.00000    6119   -3.85   10.95  1.0000
  14  14  14   20916   13072     0.00000 0.00000 0.00000 0.00000 0.00000 0.00000   80810  141.45   -0.57  1.0000
  18  14  14      47    4952     0.00000 0.00000 0.00000 0.00000 0.00000 0.00000     100    6.95  -15.50  1.0000
  20  14  14      86    6345     0.00000 0.00000 0.00000 0.00000 0.00000 0.00000   -1594    8.69    3.49  1.0000
   1  15  14   10547    3716     0.00000 0.00000 0.00000 0.00000 0.00000 0.00000   11028   24.99    8.87  1.0000
   3  15  14    3647    2678     0.00000 0.00000 0.00000 0.00000 0.00000 0.00000    2625   10.17    3.98  1.0000
   5  15  14    2472    2654     0.00000 0.00000 0.00000 0.00000 0.00000 0.00000    4553  -13.91  -25.11  1.0000
   7  15  14       8    3474     0.00000 0.00000 0.00000 0.00000 0.00000 0.00000     312  -18.98    4.52  1.0000
   9  15  14    7938    3852     0.00000 0.00000 0.00000 0.00000 0.00000 0.00000    7757   -0.85  -16.48  1.0000
  11  15  14   14865    3813     0.00000 0.00000 0.00000 0.00000 0.00000 0.00000   12486   10.34   -0.93  1.0000
  13  15  14   11572   11847     0.00000 0.00000 0.00000 0.00000 0.00000 0.00000   30712   64.92  -24.53  1.0000
  17  15  14    3975    8504     0.00000 0.00000 0.00000 0.00000 0.00000 0.00000    4153  -13.40   15.83  1.0000
  19  15  14     631    5896     0.00000 0.00000 0.00000 0.00000 0.00000 0.00000   -8740   14.17  -21.12  1.0000
   0  16  14     176    4739     0.00000 0.00000 0.00000 0.00000 0.00000 0.00000    1818  -21.76  -28.02  1.0000
   2  16  14    8238    3108     0.00000 0.00000 0.00000 0.00000 0.00000 0.00000   11027   -5.88  -13.29  1.0000
   4  16  14    2670    2827     0.00000 0.00000 0.00000 0.00000 0.00000 0.00000    1297    7.75   14.49  1.0000
   6  16  14    1598    3050     0.00000 0.00000 0.00000 0.00000 0.00000 0.00000    1803   -4.96   19.72  1.0000
   8  16  14     290    4723     0.00000 0.00000 0.00000 0.00000 0.00000 0.00000    2745   33.36   13.67  1.0000
  10  16  14    1503    6338     0.00000 0.00000 0.00000 0.00000 0.00000 0.00000   -9507   16.14  -35.78  1.0000
  12  16  14     264    9594     0.00000 0.00000 0.00000 0.00000 0.00000 0.00000   -3788    5.27   15.58  1.0000
  16  16  14     313   13670     0.00000 0.00000 0.00000 0.00000 0.00000 0.00000    -668  -17.91    0.32  1.0000
  18  16  14    1382    6400     0.00000 0.00000 0.00000 0.00000 0.00000 0.00000   -6000   27.57  -25.63  1.0000
   1  17  14   11750    3524     0.00000 0.00000 0.00000 0.00000 0.00000 0.00000   15470   -5.28   16.01  1.0000
   3  17  14     165    3554     0.00000 0.00000 0.00000 0.00000 0.00000 0.00000   -2878    0.06  -13.02  1.0000
   5  17  14    2315    3622     0.00000 0.00000 0.00000 0.00000 0.00000 0.00000    2145    1.41   -2.98  1.0000
   7  17  14    2149    4378     0.00000 0.00000 0.00000 0.00000 0.00000 0.00000    4053  -18.57  -12.90  1.0000
   9  17  14     192    5663     0.00000 0.00000 0.00000 0.00000 0.00000 0.00000   -2285   -5.53  -12.88  1.0000
  11  17  14    1167   10299     0.00000 0.00000 0.00000 0.00000 0.00000 0.00000     466  -16.59    5.85  1.0000
  13  17  14    1338   23573     0.00000 0.00000 0.00000 0.00000 0.00000 0.00000   -4751    7.97  -36.16  1.0000
  15  17  14    8482    6989     0.00000 0.00000 0.00000 0.00000 0.00000 0.00000    8941  -13.38  -15.37  1.0000
  17  17  14      92    5940     0.00000 0.00000 0.00000 0.00000 0.00000 0.00000   -7531   -9.69   -0.28  1.0000
   0  18  14   16531    5664     0.00000 0.00000 0.00000 0.00000 0.00000 0.00000   22971   34.31   10.92  1.0000
   2  18  14    4904    3374     0.00000 0.00000 0.00000 0.00000 0.00000 0.00000    5255   24.47    7.83  1.0000
   4  18  14      96    3771     0.00000 0.00000 0.00000 0.00000 0.00000 0.00000    -581    9.74   -1.77  1.0000
   6  18  14    4069    4542     0.00000 0.00000 0.00000 0.00000 0.00000 0.00000    4976  -10.79   -4.43  1.0000
   8  18  14     366    4791     0.00000 0.00000 0.00000 0.00000 0.00000 0.00000    -255   16.80    9.67  1.0000
  10  18  14     870    4732     0.00000 0.00000 0.00000 0.00000 0.00000 0.00000    1925   12.74  -17.26  1.0000
  12  18  14     170    5038     0.00000 0.00000 0.00000 0.00000 0.00000 0.00000     668    4.11   12.59  1.0000
  14  18  14    1478    6444     0.00000 0.00000 0.00000 0.00000 0.00000 0.00000    2955    6.27   15.11  1.0000
  16  18  14   11261    7589     0.00000 0.00000 0.00000 0.00000 0.00000 0.00000    9944   27.37   25.33  1.0000
   1  19  14     143    4018     0.00000 0.00000 0.00000 0.00000 0.00000 0.00000    -463   11.81   -2.59  1.0000
   3  19  14    9679    3505     0.00000 0.00000 0.00000 0.00000 0.00000 0.00000    7785   -8.15   13.12  1.0000
   5  19  14     656    4437     0.00000 0.00000 0.00000 0.00000 0.00000 0.00000   -1459  -24.30    9.04  1.0000
   7  19  14    9198    4902     0.00000 0.00000 0.00000 0.00000 0.00000 0.00000   12492   31.65  -22.18  1.0000
   9  19  14    8501    4171     0.00000 0.00000 0.00000 0.00000 0.00000 0.00000   10907   15.34   10.73  1.0000
  11  19  14    9206    4728     0.00000 0.00000 0.00000 0.00000 0.00000 0.00000    8584    1.55    2.99  1.0000
  13  19  14    2373    5221     0.00000 0.00000 0.00000 0.00000 0.00000 0.00000    1155  -20.21   -1.59  1.0000
  15  19  14    1232    6170     0.00000 0.00000 0.00000 0.00000 0.00000 0.00000      95   14.10   21.45  1.0000
   0  20  14    3575    5457     0.00000 0.00000 0.00000 0.00000 0.00000 0.00000    2895   32.00  -42.15  1.0000
   2  20  14   18902    4300     0.00000 0.00000 0.00000 0.00000 0.00000 0.00000   19344    9.75   -4.45  1.0000
   4  20  14     521    4074     0.00000 0.00000 0.00000 0.00000 0.00000 0.00000     244  -18.52   12.54  1.0000
   6  20  14    1812    4153     0.00000 0.00000 0.00000 0.00000 0.00000 0.00000    5023   -8.29  -31.38  1.0000
   8  20  14    1646    5386     0.00000 0.00000 0.00000 0.00000 0.00000 0.00000    2709  -16.33   26.79  1.0000
  10  20  14    4042    5586     0.00000 0.00000 0.00000 0.00000 0.00000 0.00000    6960   32.28    6.60  1.0000
  12  20  14    4175    5259     0.00000 0.00000 0.00000 0.00000 0.00000 0.00000    4460   13.06   -6.68  1.0000
  14  20  14      81    6863     0.00000 0.00000 0.00000 0.00000 0.00000 0.00000   -2924    8.71   -2.76  1.0000
   1  21  14      18    5288     0.00000 0.00000 0.00000 0.00000 0.00000 0.00000    1630  -35.52  -11.71  1.0000
   3  21  14     881    4633     0.00000 0.00000 0.00000 0.00000 0.00000 0.00000   -6236   10.25  -28.24  1.0000
   5  21  14    6682    4617     0.00000 0.00000 0.00000 0.00000 0.00000 0.00000    9170    4.30   13.54  1.0000
   7  21  14     619    5223     0.00000 0.00000 0.00000 0.00000 0.00000 0.00000   -1343    2.33   25.08  1.0000
   9  21  14    5190    5626     0.00000 0.00000 0.00000 0.00000 0.00000 0.00000    8626   11.63   17.90  1.0000
  11  21  14    7189    5823     0.00000 0.00000 0.00000 0.00000 0.00000 0.00000    9745   17.98  -10.39  1.0000
   0  22  14   15875    7486     0.00000 0.00000 0.00000 0.00000 0.00000 0.00000   24173  -35.78   35.49  1.0000
   2  22  14     970    5056     0.00000 0.00000 0.00000 0.00000 0.00000 0.00000    6208   -5.62  -50.51  1.0000
   4  22  14   11304    4844     0.00000 0.00000 0.00000 0.00000 0.00000 0.00000   12645   24.02   -4.62  1.0000
   6  22  14    1185    4652     0.00000 0.00000 0.00000 0.00000 0.00000 0.00000     260   32.48    7.63  1.0000
   8  22  14     679    5972     0.00000 0.00000 0.00000 0.00000 0.00000 0.00000   -6566  -23.12  -12.70  1.0000
  10  22  14     510    6188     0.00000 0.00000 0.00000 0.00000 0.00000 0.00000    4803  -10.28  -52.35  1.0000
   1  23  14     431    4251     0.00000 0.00000 0.00000 0.00000 0.00000 0.00000    4959   61.29   -6.19  1.0000
   3  23  14     983    5138     0.00000 0.00000 0.00000 0.00000 0.00000 0.00000   -5250   29.91  -10.63  1.0000
   5  23  14     152    4892     0.00000 0.00000 0.00000 0.00000 0.00000 0.00000   -7337  -10.83   -6.20  1.0000
   7  23  14     462    5589     0.00000 0.00000 0.00000 0.00000 0.00000 0.00000   -4270  -10.35  -19.16  1.0000
   0  24  14    3339    6074     0.00000 0.00000 0.00000 0.00000 0.00000 0.00000    5962   -6.28   51.74  1.0000
   2  24  14    3496    4459     0.00000 0.00000 0.00000 0.00000 0.00000 0.00000    8201  -59.05  -24.76  1.0000
   4  24  14    1753    5402     0.00000 0.00000 0.00000 0.00000 0.00000 0.00000   10276  -63.79  -16.92  1.0000
   2   1  15    1205    2078     0.00000 0.00000 0.00000 0.00000 0.00000 0.00000    -991  -13.70  -32.37  1.0000
   4   1  15   59224    3148     0.00000 0.00000 0.00000 0.00000 0.00000 0.00000   81009   22.07   50.01  1.0000
   6   1  15   14386    1837     0.00000 0.00000 0.00000 0.00000 0.00000 0.00000   13295   -3.72    9.83  1.0000
   8   1  15  146545    4395     0.00000 0.00000 0.00000 0.00000 0.00000 0.00000  131719    4.82   20.82  1.0000
  10   1  15  220031    5540     0.00000 0.00000 0.00000 0.00000 0.00000 0.00000  196772   60.27  -17.01  1.0000
  12   1  15   47465    1934     0.00000 0.00000 0.00000 0.00000 0.00000 0.00000   32276    9.28   38.30  1.0000
  14   1  15    3230    2283     0.00000 0.00000 0.00000 0.00000 0.00000 0.00000    1338   23.94   44.31  1.0000
  16   1  15    2402    2860     0.00000 0.00000 0.00000 0.00000 0.00000 0.00000    4517   20.01   -1.74  1.0000
  18   1  15    7506    2763     0.00000 0.00000 0.00000 0.00000 0.00000 0.00000    9872   29.12    5.52  1.0000
  20   1  15    3058    3972     0.00000 0.00000 0.00000 0.00000 0.00000 0.00000    6960   -5.16   33.42  1.0000
  22   1  15    1268    4224     0.00000 0.00000 0.00000 0.00000 0.00000 0.00000    7219  -63.12   35.46  1.0000
  24   1  15    2903    4650     0.00000 0.00000 0.00000 0.00000 0.00000 0.00000   12397  -60.07    4.63  1.0000
   1   2  15    1098    2162     0.00000 0.00000 0.00000 0.00000 0.00000 0.00000    -718   12.29  -31.23  1.0000
   3   2  15     532    1508     0.00000 0.00000 0.00000 0.00000 0.00000 0.00000    1169   28.15   35.58  1.0000
   5   2  15    2361    1782     0.00000 0.00000 0.00000 0.00000 0.00000 0.00000    4159   14.67    7.21  1.0000
   7   2  15   21225    2090     0.00000 0.00000 0.00000 0.00000 0.00000 0.00000   23331  -47.44  -10.49  1.0000
   9   2  15   58867    2149     0.00000 0.00000 0.00000 0.00000 0.00000 0.00000   47221   16.77   19.51  1.0000
  11   2  15     335    1556     0.00000 0.00000 0.00000 0.00000 0.00000 0.00000     347   -7.23    4.29  1.0000
  13   2  15    5715    2213     0.00000 0.00000 0.00000 0.00000 0.00000 0.00000    7102  -13.18    4.70  1.0000
  15   2  15    2357    2416     0.00000 0.00000 0.00000 0.00000 0.00000 0.00000    3993  -18.03   -2.12  1.0000
  17   2  15    3003    2682     0.00000 0.00000 0.00000 0.00000 0.00000 0.00000    4492   18.19  -14.22  1.0000
  19   2  15     649    3413     0.00000 0.00000 0.00000 0.00000 0.00000 0.00000    3530   38.35   18.82  1.0000
  21   2  15     944    4979     0.00000 0.00000 0.00000 0.00000 0.00000 0.00000     543  -31.87    2.93  1.0000
  23   2  15    6151    4440     0.00000 0.00000 0.00000 0.00000 0.00000 0.00000   10453   29.63  -12.01  1.0000
   2   3  15    4127    2361     0.00000 0.00000 0.00000 0.00000 0.00000 0.00000    3687  -27.69   34.22  1.0000
   4   3  15   15105    1666     0.00000 0.00000 0.00000 0.00000 0.00000 0.00000   15225    1.21    6.41  1.0000
   6   3  15    6470    1788     0.00000 0.00000 0.00000 0.00000 0.00000 0.00000    3858  -15.10  -18.81  1.0000
   8   3  15   42234    2838     0.00000 0.00000 0.00000 0.00000 0.00000 0.00000   43179  -32.20   18.47  1.0000
  10   3  15  215109    5739     0.00000 0.00000 0.00000 0.00000 0.00000 0.00000  215201   15.75  -18.92  1.0000
  12   3  15   78948    2487     0.00000 0.00000 0.00000 0.00000 0.00000 0.00000   75536  -35.12   11.54  1.0000
  14   3  15      43    2168     0.00000 0.00000 0.00000 0.00000 0.00000 0.00000    -120   -2.03   -6.28  1.0000
  16   3  15    1391    2437     0.00000 0.00000 0.00000 0.00000 0.00000 0.00000    7385  -14.35  -48.99  1.0000
  18   3  15    3837    3420     0.00000 0.00000 0.00000 0.00000 0.00000 0.00000    9235  -33.77   -7.90  1.0000
  20   3  15    5837    4241     0.00000 0.00000 0.00000 0.00000 0.00000 0.00000    7928   25.50  -10.89  1.0000
  22   3  15    6445    4546     0.00000 0.00000 0.00000 0.00000 0.00000 0.00000   13366   31.75  -20.45  1.0000
  24   3  15    4906    5803     0.00000 0.00000 0.00000 0.00000 0.00000 0.00000    9961  -48.04  -35.83  1.0000
   1   4  15   62046    4363     0.00000 0.00000 0.00000 0.00000 0.00000 0.00000   81824  -21.75   50.99  1.0000
   3   4  15   14070    1867     0.00000 0.00000 0.00000 0.00000 0.00000 0.00000   14532    1.01    3.76  1.0000
   5   4  15   38614    2314     0.00000 0.00000 0.00000 0.00000 0.00000 0.00000   39550   35.81   -2.66  1.0000
   7   4  15   44828    3416     0.00000 0.00000 0.00000 0.00000 0.00000 0.00000   40842   -4.50   -9.61  1.0000
   9   4  15   33306    3363     0.00000 0.00000 0.00000 0.00000 0.00000 0.00000   42661   15.59   19.61  1.0000
  11   4  15   98304    3442     0.00000 0.00000 0.00000 0.00000 0.00000 0.00000  105548   33.68  -15.49  1.0000
  13   4  15    7557    2278     0.00000 0.00000 0.00000 0.00000 0.00000 0.00000   11444    6.67   20.74  1.0000
  15   4  15    5254    2643     0.00000 0.00000 0.00000 0.00000 0.00000 0.00000    5861   -3.01    6.26  1.0000
  17   4  15     849    3211     0.00000 0.00000 0.00000 0.00000 0.00000 0.00000    1469   -7.57   -6.45  1.0000
  19   4  15    2764    3673     0.00000 0.00000 0.00000 0.00000 0.00000 0.00000    3529   -2.41   -6.48  1.0000
  21   4  15    4860    4633     0.00000 0.00000 0.00000 0.00000 0.00000 0.00000    3399    3.16   12.73  1.0000
  23   4  15    1572    4774     0.00000 0.00000 0.00000 0.00000 0.00000 0.00000    3687   20.18    6.95  1.0000
   2   5  15    1965    1881     0.00000 0.00000 0.00000 0.00000 0.00000 0.00000    3387  -14.92    5.49  1.0000
   4   5  15   37172    2338     0.00000 0.00000 0.00000 0.00000 0.00000 0.00000   37448  -37.98   -3.80  1.0000
   6   5  15   14777    1787     0.00000 0.00000 0.00000 0.00000 0.00000 0.00000   26149    5.93   50.86  1.0000
   8   5  15   67771    3445     0.00000 0.00000 0.00000 0.00000 0.00000 0.00000   63828   14.58   -6.67  1.0000
  10   5  15   73442    3532     0.00000 0.00000 0.00000 0.00000 0.00000 0.00000   65189    9.37   14.03  1.0000
  12   5  15    7279    2814     0.00000 0.00000 0.00000 0.00000 0.00000 0.00000    4681   11.14   13.74  1.0000
  14   5  15    4775    2582     0.00000 0.00000 0.00000 0.00000 0.00000 0.00000    3385   10.06   22.99  1.0000
  16   5  15    4897    3047     0.00000 0.00000 0.00000 0.00000 0.00000 0.00000    6125    5.85    9.39  1.0000
  18   5  15    1383    3533     0.00000 0.00000 0.00000 0.00000 0.00000 0.00000    4051   13.41   31.94  1.0000
  20   5  15   10877    4291     0.00000 0.00000 0.00000 0.00000 0.00000 0.00000    9846    3.85   10.94  1.0000
  22   5  15     397    5002     0.00000 0.00000 0.00000 0.00000 0.00000 0.00000     159    7.78   -4.18  1.0000
   1   6  15   11899    1540     0.00000 0.00000 0.00000 0.00000 0.00000 0.00000   10693    4.89   10.82  1.0000
   3   6  15    8578    1664     0.00000 0.00000 0.00000 0.00000 0.00000 0.00000    5562   17.99  -18.36  1.0000
   5   6  15   15092    1955     0.00000 0.00000 0.00000 0.00000 0.00000 0.00000   26405   -6.65   50.86  1.0000
   7   6  15  129129    4326     0.00000 0.00000 0.00000 0.00000 0.00000 0.00000  124348   30.59   13.40  1.0000
   9   6  15   78455    3663     0.00000 0.00000 0.00000 0.00000 0.00000 0.00000   90329  -30.52   23.34  1.0000
  11   6  15   52938    2980     0.00000 0.00000 0.00000 0.00000 0.00000 0.00000   71854   -3.51  -40.90  1.0000
  13   6  15    7509    2434     0.00000 0.00000 0.00000 0.00000 0.00000 0.00000    5865   15.71   -1.67  1.0000
  15   6  15    1077    2920     0.00000 0.00000 0.00000 0.00000 0.00000 0.00000    3250   29.56   -3.28  1.0000
  17   6  15    8960    3349     0.00000 0.00000 0.00000 0.00000 0.00000 0.00000    5778  -14.77  -15.95  1.0000
  19   6  15    8435    3972     0.00000 0.00000 0.00000 0.00000 0.00000 0.00000    6291  -12.47   -3.11  1.0000
  21   6  15     961    5215     0.00000 0.00000 0.00000 0.00000 0.00000 0.00000    2642   12.11   20.15  1.0000
  23   6  15      33    5634     0.00000 0.00000 0.00000 0.00000 0.00000 0.00000   -5295   -4.50    3.67  1.0000
   2   7  15   21924    1647     0.00000 0.00000 0.00000 0.00000 0.00000 0.00000   23676   47.41   -9.38  1.0000
   4   7  15   41249    2019     0.00000 0.00000 0.00000 0.00000 0.00000 0.00000   37727    5.77   -8.79  1.0000
   6   7  15  130133    4598     0.00000 0.00000 0.00000 0.00000 0.00000 0.00000  125832  -31.64   13.21  1.0000
   8   7  15   11629    2829     0.00000 0.00000 0.00000 0.00000 0.00000 0.00000    6969  -28.54  -17.38  1.0000
  10   7  15     287    2199     0.00000 0.00000 0.00000 0.00000 0.00000 0.00000    -672  -13.94  -10.01  1.0000
  12   7  15    3888    2388     0.00000 0.00000 0.00000 0.00000 0.00000 0.00000    1616  -50.54  -31.19  1.0000
  14   7  15    5334    2962     0.00000 0.00000 0.00000 0.00000 0.00000 0.00000    5982  -17.59    0.04  1.0000
  16   7  15    2043    2918     0.00000 0.00000 0.00000 0.00000 0.00000 0.00000    5542  -29.68   -3.28  1.0000
  18   7  15    1906    4318     0.00000 0.00000 0.00000 0.00000 0.00000 0.00000    3740   -9.20  -16.99  1.0000
  20   7  15     565    6199     0.00000 0.00000 0.00000 0.00000 0.00000 0.00000    -574  -10.58  -21.62  1.0000
  22   7  15    4054    5596     0.00000 0.00000 0.00000 0.00000 0.00000 0.00000    5225    2.28    8.82  1.0000
   1   8  15  150822    4126     0.00000 0.00000 0.00000 0.00000 0.00000 0.00000  134869   -4.90   22.30  1.0000
   3   8  15   41394    2408     0.00000 0.00000 0.00000 0.00000 0.00000 0.00000   41366   32.75   19.10  1.0000
   5   8  15   72386    4515     0.00000 0.00000 0.00000 0.00000 0.00000 0.00000   68431  -14.78   -7.95  1.0000
   7   8  15   12433    2774     0.00000 0.00000 0.00000 0.00000 0.00000 0.00000    7937   25.57  -17.21  1.0000
   9   8  15   25365    2364     0.00000 0.00000 0.00000 0.00000 0.00000 0.00000   30657    2.70   17.28  1.0000
  11   8  15   33551    2622     0.00000 0.00000 0.00000 0.00000 0.00000 0.00000   27212   -4.93  -19.71  1.0000
  13   8  15    1978    2704     0.00000 0.00000 0.00000 0.00000 0.00000 0.00000    2731   -1.92    8.28  1.0000
  15   8  15    2786    2966     0.00000 0.00000 0.00000 0.00000 0.00000 0.00000    6127   29.89   -4.07  1.0000
  17   8  15   14390    3775     0.00000 0.00000 0.00000 0.00000 0.00000 0.00000   16200   12.62   37.36  1.0000
  19   8  15   11753    4392     0.00000 0.00000 0.00000 0.00000 0.00000 0.00000   10463   19.34   10.62  1.0000
  21   8  15    5971    5484     0.00000 0.00000 0.00000 0.00000 0.00000 0.00000    6535    5.66    7.17  1.0000
  23   8  15    2538   13868     0.00000 0.00000 0.00000 0.00000 0.00000 0.00000    8499   -3.85   42.27  1.0000
   2   9  15   58745    2966     0.00000 0.00000 0.00000 0.00000 0.00000 0.00000   47567  -16.48   18.32  1.0000
   4   9  15   36814    3015     0.00000 0.00000 0.00000 0.00000 0.00000 0.00000   46723  -15.85   19.63  1.0000
   6   9  15   78287    3805     0.00000 0.00000 0.00000 0.00000 0.00000 0.00000   90217   28.12   22.37  1.0000
   8   9  15   22054    2942     0.00000 0.00000 0.00000 0.00000 0.00000 0.00000   27096   -2.77   18.32  1.0000
  10   9  15    8888    2429     0.00000 0.00000 0.00000 0.00000 0.00000 0.00000   15031   39.04   29.57  1.0000
  12   9  15   12844    2591     0.00000 0.00000 0.00000 0.00000 0.00000 0.00000   14167  -10.90  -21.35  1.0000
  14   9  15    9935    2910     0.00000 0.00000 0.00000 0.00000 0.00000 0.00000   15572   25.19   -5.32  1.0000
  16   9  15    5835    5254     0.00000 0.00000 0.00000 0.00000 0.00000 0.00000    8757   31.89   -1.14  1.0000
  18   9  15    3705    5219     0.00000 0.00000 0.00000 0.00000 0.00000 0.00000    6308   20.33   -4.07  1.0000
  20   9  15    8123    4813     0.00000 0.00000 0.00000 0.00000 0.00000 0.00000    7208   -3.23    5.47  1.0000
  22   9  15   11240    5746     0.00000 0.00000 0.00000 0.00000 0.00000 0.00000    7487   13.65  -14.47  1.0000
   1  10  15  232629    5835     0.00000 0.00000 0.00000 0.00000 0.00000 0.00000  205116  -58.92  -14.72  1.0000
   3  10  15  229058    6052     0.00000 0.00000 0.00000 0.00000 0.00000 0.00000  229637  -16.79  -19.81  1.0000
   5  10  15   69371    4230     0.00000 0.00000 0.00000 0.00000 0.00000 0.00000   60912  -11.11   13.71  1.0000
   7  10  15    4167    3370     0.00000 0.00000 0.00000 0.00000 0.00000 0.00000    3629   14.30  -10.24  1.0000
   9  10  15   11804    2401     0.00000 0.00000 0.00000 0.00000 0.00000 0.00000   12759  -36.33   27.34  1.0000
  11  10  15   29746    2776     0.00000 0.00000 0.00000 0.00000 0.00000 0.00000   28895    4.25    0.42  1.0000
  13  10  15   12184    2879     0.00000 0.00000 0.00000 0.00000 0.00000 0.00000   14437  -10.64  -14.40  1.0000
  15  10  15   27999    3284     0.00000 0.00000 0.00000 0.00000 0.00000 0.00000   26176  -39.57  -41.50  1.0000
  17  10  15   11408    5435     0.00000 0.00000 0.00000 0.00000 0.00000 0.00000   11894   -8.41   -2.38  1.0000
  19  10  15   15053    5090     0.00000 0.00000 0.00000 0.00000 0.00000 0.00000   20202   18.99   -5.42  1.0000
  21  10  15     348    5674     0.00000 0.00000 0.00000 0.00000 0.00000 0.00000    -536   18.44    4.12  1.0000
   2  11  15     842    2341     0.00000 0.00000 0.00000 0.00000 0.00000 0.00000    1079    8.37    5.52  1.0000
   4  11  15  100467    4107     0.00000 0.00000 0.00000 0.00000 0.00000 0.00000  109073  -34.00  -15.31  1.0000
   6  11  15   58286    3271     0.00000 0.00000 0.00000 0.00000 0.00000 0.00000   77162    5.84  -38.25  1.0000
   8  11  15   32227    2684     0.00000 0.00000 0.00000 0.00000 0.00000 0.00000   26290    7.03  -18.24  1.0000
  10  11  15   31895    3382     0.00000 0.00000 0.00000 0.00000 0.00000 0.00000   31267   -5.86   -1.36  1.0000
  12  11  15   29034    3174     0.00000 0.00000 0.00000 0.00000 0.00000 0.00000   35170  -26.25  -18.15  1.0000
  14  11  15    9798    3349     0.00000 0.00000 0.00000 0.00000 0.00000 0.00000   12803   20.85    2.65  1.0000
  16  11  15    6737    5101     0.00000 0.00000 0.00000 0.00000 0.00000 0.00000    3845   19.27    6.50  1.0000
  18  11  15    3908    6680     0.00000 0.00000 0.00000 0.00000 0.00000 0.00000    9723  -31.63  -18.32  1.0000
  20  11  15      60    4978     0.00000 0.00000 0.00000 0.00000 0.00000 0.00000    1379  -29.99   -8.87  1.0000
   1  12  15   46162    2525     0.00000 0.00000 0.00000 0.00000 0.00000 0.00000   31510  -11.45   36.44  1.0000
   3  12  15   72990    3497     0.00000 0.00000 0.00000 0.00000 0.00000 0.00000   67935   34.33    9.73  1.0000
   5  12  15    8993    3494     0.00000 0.00000 0.00000 0.00000 0.00000 0.00000    6033  -11.47   13.65  1.0000
   7  12  15    6396    2737     0.00000 0.00000 0.00000 0.00000 0.00000 0.00000    3185   51.72  -31.34  1.0000
   9  12  15   15157    3011     0.00000 0.00000 0.00000 0.00000 0.00000 0.00000   13369   11.53  -24.07  1.0000
  11  12  15   35741    3061     0.00000 0.00000 0.00000 0.00000 0.00000 0.00000   39989   24.96  -13.68  1.0000
  13  12  15    9049    3938     0.00000 0.00000 0.00000 0.00000 0.00000 0.00000    8210  -25.52   -7.19  1.0000
  15  12  15    1502    5137     0.00000 0.00000 0.00000 0.00000 0.00000 0.00000    1782   18.59   24.53  1.0000
  17  12  15   10570    6265     0.00000 0.00000 0.00000 0.00000 0.00000 0.00000   10888   -3.99    7.06  1.0000
  19  12  15    1793    4721     0.00000 0.00000 0.00000 0.00000 0.00000 0.00000    1158  -16.48    1.92  1.0000
  21  12  15     547    8075     0.00000 0.00000 0.00000 0.00000 0.00000 0.00000    -493   19.58   13.32  1.0000
   2  13  15    3379    2348     0.00000 0.00000 0.00000 0.00000 0.00000 0.00000    4368   14.19    7.33  1.0000
   4  13  15    4765    2949     0.00000 0.00000 0.00000 0.00000 0.00000 0.00000    7869   -6.99   20.58  1.0000
   6  13  15    9164    2495     0.00000 0.00000 0.00000 0.00000 0.00000 0.00000    6887  -16.87   -2.62  1.0000
   8  13  15    4893    2979     0.00000 0.00000 0.00000 0.00000 0.00000 0.00000    5801   -0.36    6.30  1.0000
  10  13  15   18130    3706     0.00000 0.00000 0.00000 0.00000 0.00000 0.00000   19661   10.72  -12.19  1.0000
  12  13  15    8717    3871     0.00000 0.00000 0.00000 0.00000 0.00000 0.00000    7682   24.62   -7.34  1.0000
  14  13  15    7126    3712     0.00000 0.00000 0.00000 0.00000 0.00000 0.00000    9574   12.37  -11.03  1.0000
  16  13  15    7508    9775     0.00000 0.00000 0.00000 0.00000 0.00000 0.00000   27197  -50.60   70.13  1.0000
  18  13  15   12207   17577     0.00000 0.00000 0.00000 0.00000 0.00000 0.00000   18028   29.46   20.93  1.0000
  20  13  15    3211    5175     0.00000 0.00000 0.00000 0.00000 0.00000 0.00000     219   42.14    8.74  1.0000
   1  14  15    2471    2884     0.00000 0.00000 0.00000 0.00000 0.00000 0.00000   -4326  -24.87   43.75  1.0000
   3  14  15    3017    2581     0.00000 0.00000 0.00000 0.00000 0.00000 0.00000    2417    1.67   -6.60  1.0000
   5  14  15    6841    2683     0.00000 0.00000 0.00000 0.00000 0.00000 0.00000    5263  -10.44   21.45  1.0000
   7  14  15    5629    2903     0.00000 0.00000 0.00000 0.00000 0.00000 0.00000    5956   18.74    0.96  1.0000
   9  14  15    9127    3281     0.00000 0.00000 0.00000 0.00000 0.00000 0.00000   14635  -24.67   -8.14  1.0000
  11  14  15    7843    3764     0.00000 0.00000 0.00000 0.00000 0.00000 0.00000    9392  -21.80    4.28  1.0000
  13  14  15    8277    4830     0.00000 0.00000 0.00000 0.00000 0.00000 0.00000   11246  -12.30   -9.58  1.0000
  15  14  15    4647    5419     0.00000 0.00000 0.00000 0.00000 0.00000 0.00000   10128   22.10  -24.64  1.0000
  19  14  15    1030    4842     0.00000 0.00000 0.00000 0.00000 0.00000 0.00000    2242  -21.01   13.50  1.0000
   2  15  15     299    2944     0.00000 0.00000 0.00000 0.00000 0.00000 0.00000   -3652   17.44   -1.54  1.0000
   4  15  15     712    2840     0.00000 0.00000 0.00000 0.00000 0.00000 0.00000     941    2.49    6.59  1.0000
   6  15  15    3517    3045     0.00000 0.00000 0.00000 0.00000 0.00000 0.00000    6249  -28.21   -4.38  1.0000
   8  15  15    1336    3258     0.00000 0.00000 0.00000 0.00000 0.00000 0.00000    2586  -29.86   -4.75  1.0000
  10  15  15   21780    3631     0.00000 0.00000 0.00000 0.00000 0.00000 0.00000   22375   39.78  -40.10  1.0000
  12  15  15     927    5808     0.00000 0.00000 0.00000 0.00000 0.00000 0.00000   -1200  -18.30   24.80  1.0000
  14  15  15   27091   26023     0.00000 0.00000 0.00000 0.00000 0.00000 0.00000   38897  -21.51  -25.55  1.0000
  18  15  15    1570    6961     0.00000 0.00000 0.00000 0.00000 0.00000 0.00000    4882   25.04  -41.27  1.0000
   1  16  15    2846    3190     0.00000 0.00000 0.00000 0.00000 0.00000 0.00000    5284  -19.59   -2.68  1.0000
   3  16  15     878    2903     0.00000 0.00000 0.00000 0.00000 0.00000 0.00000    5925   13.70  -49.10  1.0000
   5  16  15    2303    3228     0.00000 0.00000 0.00000 0.00000 0.00000 0.00000    2972   -5.81    9.45  1.0000
   7  16  15    1101    3622     0.00000 0.00000 0.00000 0.00000 0.00000 0.00000    3717   29.32   -2.21  1.0000
   9  16  15    4626    4356     0.00000 0.00000 0.00000 0.00000 0.00000 0.00000    6456  -32.07   -0.58  1.0000
  11  16  15     433    6666     0.00000 0.00000 0.00000 0.00000 0.00000 0.00000   -4071  -19.94    6.82  1.0000
  17  16  15    4224    8911     0.00000 0.00000 0.00000 0.00000 0.00000 0.00000    6827    4.64   24.69  1.0000
   2  17  15     503    3250     0.00000 0.00000 0.00000 0.00000 0.00000 0.00000    -339  -17.51  -14.46  1.0000
   4  17  15     624    4083     0.00000 0.00000 0.00000 0.00000 0.00000 0.00000    1082    7.45   -7.44  1.0000
   6  17  15     424    3483     0.00000 0.00000 0.00000 0.00000 0.00000 0.00000    -296   14.02  -15.42  1.0000
   8  17  15    9590    3860     0.00000 0.00000 0.00000 0.00000 0.00000 0.00000   13923  -12.90   37.94  1.0000
  10  17  15   11666    7062     0.00000 0.00000 0.00000 0.00000 0.00000 0.00000   11716    8.05   -3.50  1.0000
  12  17  15    7625    6860     0.00000 0.00000 0.00000 0.00000 0.00000 0.00000    8622    3.55    8.54  1.0000
  16  17  15     541    8555     0.00000 0.00000 0.00000 0.00000 0.00000 0.00000   -1856   -5.55   22.88  1.0000
   1  18  15     805    4005     0.00000 0.00000 0.00000 0.00000 0.00000 0.00000   -3288  -28.17    5.64  1.0000
   3  18  15     609    3586     0.00000 0.00000 0.00000 0.00000 0.00000 0.00000    2698   33.82   -8.30  1.0000
   5  18  15    3315    4117     0.00000 0.00000 0.00000 0.00000 0.00000 0.00000    7304  -13.00   32.28  1.0000
   7  18  15     203    7372     0.00000 0.00000 0.00000 0.00000 0.00000 0.00000     743    8.19  -16.85  1.0000
   9  18  15     492    7158     0.00000 0.00000 0.00000 0.00000 0.00000 0.00000  -10737  -21.63   -6.02  1.0000
  11  18  15    1358    8955     0.00000 0.00000 0.00000 0.00000 0.00000 0.00000   -2705   32.43  -18.45  1.0000
  13  18  15    4344   11830     0.00000 0.00000 0.00000 0.00000 0.00000 0.00000    7309  -28.48   18.98  1.0000
  15  18  15    2244    7464     0.00000 0.00000 0.00000 0.00000 0.00000 0.00000   -8722  -24.44  -41.26  1.0000
   2  19  15    1186    3607     0.00000 0.00000 0.00000 0.00000 0.00000 0.00000    4889  -37.46   19.88  1.0000
   4  19  15    4861    3978     0.00000 0.00000 0.00000 0.00000 0.00000 0.00000    5925    2.99   -6.71  1.0000
   6  19  15    1808    4685     0.00000 0.00000 0.00000 0.00000 0.00000 0.00000     882   12.96   -1.89  1.0000
   8  19  15    6445    4518     0.00000 0.00000 0.00000 0.00000 0.00000 0.00000    5236  -18.29   10.41  1.0000
  10  19  15   10866    4467     0.00000 0.00000 0.00000 0.00000 0.00000 0.00000   15191  -18.45   -6.98  1.0000
  12  19  15   12712    4996     0.00000 0.00000 0.00000 0.00000 0.00000 0.00000   11507   15.64    1.79  1.0000
  14  19  15     616    7023     0.00000 0.00000 0.00000 0.00000 0.00000 0.00000   -6523   20.60   14.38  1.0000
   1  20  15    1933    3915     0.00000 0.00000 0.00000 0.00000 0.00000 0.00000    4712    5.01   31.56  1.0000
   3  20  15     497    3721     0.00000 0.00000 0.00000 0.00000 0.00000 0.00000     222  -26.09  -11.79  1.0000
   5  20  15    2384    4384     0.00000 0.00000 0.00000 0.00000 0.00000 0.00000    1738   -3.29   11.22  1.0000
   7  20  15    4276    5945     0.00000 0.00000 0.00000 0.00000 0.00000 0.00000    7853   12.01  -20.22  1.0000
   9  20  15    3285    4894     0.00000 0.00000 0.00000 0.00000 0.00000 0.00000    2575    4.76    4.80  1.0000
  11  20  15    5868    6847     0.00000 0.00000 0.00000 0.00000 0.00000 0.00000   11513   31.29   -6.35  1.0000
  13  20  15    1764    5851     0.00000 0.00000 0.00000 0.00000 0.00000 0.00000   -1308  -41.62    8.72  1.0000
   2  21  15    1048    4360     0.00000 0.00000 0.00000 0.00000 0.00000 0.00000   -2407   32.69    2.47  1.0000
   4  21  15    2094    6415     0.00000 0.00000 0.00000 0.00000 0.00000 0.00000    1130   -4.27   12.66  1.0000
   6  21  15     565    4422     0.00000 0.00000 0.00000 0.00000 0.00000 0.00000   -6633  -12.95   20.29  1.0000
   8  21  15     910    5153     0.00000 0.00000 0.00000 0.00000 0.00000 0.00000    1133   -5.26    6.50  1.0000
  10  21  15    3661    6802     0.00000 0.00000 0.00000 0.00000 0.00000 0.00000    3300  -19.18    4.84  1.0000
  12  21  15   12587    6569     0.00000 0.00000 0.00000 0.00000 0.00000 0.00000   11818  -19.86   12.96  1.0000
   1  22  15    1005    4433     0.00000 0.00000 0.00000 0.00000 0.00000 0.00000    8190   62.41   37.45  1.0000
   3  22  15    1380    5748     0.00000 0.00000 0.00000 0.00000 0.00000 0.00000   -6390  -30.55  -21.94  1.0000
   5  22  15     101    4971     0.00000 0.00000 0.00000 0.00000 0.00000 0.00000   -2529   -8.99   -4.77  1.0000
   7  22  15       5    5682     0.00000 0.00000 0.00000 0.00000 0.00000 0.00000     157   -4.64    9.27  1.0000
   9  22  15     387    6519     0.00000 0.00000 0.00000 0.00000 0.00000 0.00000    -223  -13.82  -14.35  1.0000
   2  23  15     567    4843     0.00000 0.00000 0.00000 0.00000 0.00000 0.00000    1940  -29.05  -12.19  1.0000
   4  23  15     117    4863     0.00000 0.00000 0.00000 0.00000 0.00000 0.00000     111  -19.90    7.33  1.0000
   6  23  15    1478    5090     0.00000 0.00000 0.00000 0.00000 0.00000 0.00000    1010    5.77    3.68  1.0000
   1  24  15    2020    4751     0.00000 0.00000 0.00000 0.00000 0.00000 0.00000    9029   60.28    4.37  1.0000
   3  24  15    2184    5319     0.00000 0.00000 0.00000 0.00000 0.00000 0.00000     546   48.96  -35.91  1.0000
   0   0  16   68764    7788     0.00000 0.00000 0.00000 0.00000 0.00000 0.00000   80783   24.94   -0.52  1.0000
   2   0  16      87    2954     0.00000 0.00000 0.00000 0.00000 0.00000 0.00000    6205  -79.25  -25.10  1.0000
   4   0  16  206843    7602     0.00000 0.00000 0.00000 0.00000 0.00000 0.00000  166710  -50.39   17.49  1.0000
   8   0  16   33741    3560     0.00000 0.00000 0.00000 0.00000 0.00000 0.00000   25674   33.56   -5.27  1.0000
  10   0  16   29584    2632     0.00000 0.00000 0.00000 0.00000 0.00000 0.00000   30351  -11.01   42.48  1.0000
  12   0  16    3762    2335     0.00000 0.00000 0.00000 0.00000 0.00000 0.00000    4673   18.97   -9.65  1.0000
  14   0  16   19852    3245     0.00000 0.00000 0.00000 0.00000 0.00000 0.00000   21994    8.77    3.00  1.0000
  16   0  16   21534    4692     0.00000 0.00000 0.00000 0.00000 0.00000 0.00000   25854   17.25  -30.60  1.0000
  18   0  16    1635    4167     0.00000 0.00000 0.00000 0.00000 0.00000 0.00000   10688  -61.80  -55.30  1.0000
  20   0  16   11628    5237     0.00000 0.00000 0.00000 0.00000 0.00000 0.00000   15795    8.99  -43.90  1.0000
  22   0  16    1987    6248     0.00000 0.00000 0.00000 0.00000 0.00000 0.00000   18824   69.38   94.25  1.0000
  24   0  16   19368    7775     0.00000 0.00000 0.00000 0.00000 0.00000 0.00000   17103   15.33  -27.24  1.0000
   1   1  16   14965    2808     0.00000 0.00000 0.00000 0.00000 0.00000 0.00000   43270  -87.16   -1.82  1.0000
   3   1  16   15791    1613     0.00000 0.00000 0.00000 0.00000 0.00000 0.00000   12339  -21.59   12.39  1.0000
   5   1  16    4305    1820     0.00000 0.00000 0.00000 0.00000 0.00000 0.00000    6525   17.98   -3.77  1.0000
   7   1  16   30317    2456     0.00000 0.00000 0.00000 0.00000 0.00000 0.00000   35879  -22.36  -26.23  1.0000
   9   1  16    9101    2389     0.00000 0.00000 0.00000 0.00000 0.00000 0.00000   11397  -29.83   24.49  1.0000
  11   1  16   29385    1836     0.00000 0.00000 0.00000 0.00000 0.00000 0.00000   26933    5.32    5.55  1.0000
  13   1  16   19371    2373     0.00000 0.00000 0.00000 0.00000 0.00000 0.00000   21236    4.32  -19.78  1.0000
  15   1  16   14834    2991     0.00000 0.00000 0.00000 0.00000 0.00000 0.00000   17620   -4.61  -18.04  1.0000
  17   1  16    9451    3085     0.00000 0.00000 0.00000 0.00000 0.00000 0.00000   11446   10.77   26.57  1.0000
  19   1  16    5727    3622     0.00000 0.00000 0.00000 0.00000 0.00000 0.00000    5852    1.52    2.37  1.0000
  21   1  16    6172    4693     0.00000 0.00000 0.00000 0.00000 0.00000 0.00000    2583   26.74   35.26  1.0000
  23   1  16   13741    4544     0.00000 0.00000 0.00000 0.00000 0.00000 0.00000   17652   -4.68   30.65  1.0000
   0   2  16     599    3471     0.00000 0.00000 0.00000 0.00000 0.00000 0.00000    3949  -79.47   24.49  1.0000
   2   2  16   53663    3204     0.00000 0.00000 0.00000 0.00000 0.00000 0.00000   52867    0.94    2.36  1.0000
   6   2  16   28106    2229     0.00000 0.00000 0.00000 0.00000 0.00000 0.00000   32795    6.42  -32.44  1.0000
   8   2  16   15020    2318     0.00000 0.00000 0.00000 0.00000 0.00000 0.00000   12820  -10.18   -0.71  1.0000
  10   2  16   23792    2114     0.00000 0.00000 0.00000 0.00000 0.00000 0.00000   25119  -63.27   37.61  1.0000
  12   2  16   17178    1958     0.00000 0.00000 0.00000 0.00000 0.00000 0.00000   17110   10.28  -28.12  1.0000
  14   2  16    7502    2284     0.00000 0.00000 0.00000 0.00000 0.00000 0.00000    8915   16.50   -2.85  1.0000
  16   2  16   11263    2546     0.00000 0.00000 0.00000 0.00000 0.00000 0.00000    7609   27.90   16.39  1.0000
  18   2  16   18424    3134     0.00000 0.00000 0.00000 0.00000 0.00000 0.00000   20794    0.97   22.37  1.0000
  20   2  16    5447    3557     0.00000 0.00000 0.00000 0.00000 0.00000 0.00000    7856  -22.41   -5.34  1.0000
  22   2  16   16262    4378     0.00000 0.00000 0.00000 0.00000 0.00000 0.00000   22886   10.14   28.54  1.0000
  24   2  16    6327    6543     0.00000 0.00000 0.00000 0.00000 0.00000 0.00000   13382  -33.24  -32.04  1.0000
   1   3  16   15977    2581     0.00000 0.00000 0.00000 0.00000 0.00000 0.00000   14042  -19.76  -12.11  1.0000
   3   3  16   17313    1820     0.00000 0.00000 0.00000 0.00000 0.00000 0.00000   24707   26.51   -0.18  1.0000
   5   3  16    2604    1731     0.00000 0.00000 0.00000 0.00000 0.00000 0.00000    3574  -15.52   -0.74  1.0000
   7   3  16   65779    3098     0.00000 0.00000 0.00000 0.00000 0.00000 0.00000   57439   35.22   29.22  1.0000
   9   3  16    4323    1847     0.00000 0.00000 0.00000 0.00000 0.00000 0.00000    4936   19.06  -32.29  1.0000
  11   3  16   25477    2549     0.00000 0.00000 0.00000 0.00000 0.00000 0.00000   26380  -19.39   -5.09  1.0000
  13   3  16     209    2009     0.00000 0.00000 0.00000 0.00000 0.00000 0.00000    -456    1.71   14.53  1.0000
  15   3  16    5741    2570     0.00000 0.00000 0.00000 0.00000 0.00000 0.00000    5708   -0.26    4.88  1.0000
  17   3  16   13767    3041     0.00000 0.00000 0.00000 0.00000 0.00000 0.00000    9824  -10.90  -18.44  1.0000
  19   3  16    1501    3530     0.00000 0.00000 0.00000 0.00000 0.00000 0.00000    2881  -12.43   -8.80  1.0000
  21   3  16    3719    4349     0.00000 0.00000 0.00000 0.00000 0.00000 0.00000    6672   24.46   -2.18  1.0000
  23   3  16    4814    4847     0.00000 0.00000 0.00000 0.00000 0.00000 0.00000    9272  -27.27   -2.91  1.0000
   0   4  16  219142   10459     0.00000 0.00000 0.00000 0.00000 0.00000 0.00000  174036  -50.50  -18.44  1.0000
   2   4  16    1746    1795     0.00000 0.00000 0.00000 0.00000 0.00000 0.00000    2339   30.38    9.89  1.0000
   6   4  16    6455    2095     0.00000 0.00000 0.00000 0.00000 0.00000 0.00000   11351  -26.62  -29.25  1.0000
   8   4  16   18572    2342     0.00000 0.00000 0.00000 0.00000 0.00000 0.00000   18838    0.59  -15.75  1.0000
  10   4  16    7644    1932     0.00000 0.00000 0.00000 0.00000 0.00000 0.00000    8116   -4.02    0.64  1.0000
  12   4  16    4096    2184     0.00000 0.00000 0.00000 0.00000 0.00000 0.00000    5455   10.45  -11.15  1.0000
  14   4  16    8412    2251     0.00000 0.00000 0.00000 0.00000 0.00000 0.00000    7175   -4.38   10.21  1.0000
  16   4  16     477    2819     0.00000 0.00000 0.00000 0.00000 0.00000 0.00000     883  -21.65    3.62  1.0000
  18   4  16    1824    3338     0.00000 0.00000 0.00000 0.00000 0.00000 0.00000    3034  -10.48   15.85  1.0000
  20   4  16    1718    3910     0.00000 0.00000 0.00000 0.00000 0.00000 0.00000    2779  -16.21   -2.35  1.0000
  22   4  16    6795    4699     0.00000 0.00000 0.00000 0.00000 0.00000 0.00000   14435   31.27  -62.52  1.0000
   1   5  16    1885    1626     0.00000 0.00000 0.00000 0.00000 0.00000 0.00000    3822   17.55    6.39  1.0000
   3   5  16    1772    1931     0.00000 0.00000 0.00000 0.00000 0.00000 0.00000    1857  -19.28   -1.74  1.0000
   5   5  16   40429    2910     0.00000 0.00000 0.00000 0.00000 0.00000 0.00000   48088  -18.44    1.35  1.0000
   7   5  16   19674    2407     0.00000 0.00000 0.00000 0.00000 0.00000 0.00000   18635   12.15    4.25  1.0000
   9   5  16   17337    2117     0.00000 0.00000 0.00000 0.00000 0.00000 0.00000   16709  -28.85  -21.11  1.0000
  11   5  16   26792    2279     0.00000 0.00000 0.00000 0.00000 0.00000 0.00000   27610   18.87   -2.68  1.0000
  13   5  16    1370    2505     0.00000 0.00000 0.00000 0.00000 0.00000 0.00000    1199   -5.20   -7.67  1.0000
  15   5  16      40    2851     0.00000 0.00000 0.00000 0.00000 0.00000 0.00000   -2416    5.13    3.77  1.0000
  17   5  16     836    3149     0.00000 0.00000 0.00000 0.00000 0.00000 0.00000    2785   29.64   -5.89  1.0000
  19   5  16   12288    3936     0.00000 0.00000 0.00000 0.00000 0.00000 0.00000   14495  -10.99   17.49  1.0000
  21   5  16    1776    4660     0.00000 0.00000 0.00000 0.00000 0.00000 0.00000    1590  -22.07   15.61  1.0000
  23   5  16    7180    5622     0.00000 0.00000 0.00000 0.00000 0.00000 0.00000   10300   -4.11   19.40  1.0000
   0   6  16   25948    2413     0.00000 0.00000 0.00000 0.00000 0.00000 0.00000   29325  -25.96  -16.49  1.0000
   2   6  16   27305    1775     0.00000 0.00000 0.00000 0.00000 0.00000 0.00000   31215    4.89   30.77  1.0000
   4   6  16    3173    1500     0.00000 0.00000 0.00000 0.00000 0.00000 0.00000    6943  -25.32   30.89  1.0000
   6   6  16   69221    3208     0.00000 0.00000 0.00000 0.00000 0.00000 0.00000   69102    0.32    2.56  1.0000
   8   6  16   38682    2998     0.00000 0.00000 0.00000 0.00000 0.00000 0.00000   42782  -10.61   38.37  1.0000
  10   6  16    1782    2091     0.00000 0.00000 0.00000 0.00000 0.00000 0.00000     938   -1.77   17.73  1.0000
  12   6  16     179    2426     0.00000 0.00000 0.00000 0.00000 0.00000 0.00000     228    5.59    8.00  1.0000
  14   6  16    2752    2664     0.00000 0.00000 0.00000 0.00000 0.00000 0.00000    1232   17.52   26.27  1.0000
  16   6  16     409    3170     0.00000 0.00000 0.00000 0.00000 0.00000 0.00000   -2437  -14.70  -14.24  1.0000
  18   6  16     281    3569     0.00000 0.00000 0.00000 0.00000 0.00000 0.00000      32   -7.70  -14.36  1.0000
  20   6  16    2295    5551     0.00000 0.00000 0.00000 0.00000 0.00000 0.00000    5560   21.65   21.30  1.0000
  22   6  16   12680    5566     0.00000 0.00000 0.00000 0.00000 0.00000 0.00000    5309  -32.43  -23.96  1.0000
   1   7  16   30539    1882     0.00000 0.00000 0.00000 0.00000 0.00000 0.00000   30776  -22.99   27.64  1.0000
   3   7  16   59675    2913     0.00000 0.00000 0.00000 0.00000 0.00000 0.00000   52768   35.12  -28.94  1.0000
   5   7  16   18861    2121     0.00000 0.00000 0.00000 0.00000 0.00000 0.00000   18353   14.82   -6.46  1.0000
   7   7  16   28153    2548     0.00000 0.00000 0.00000 0.00000 0.00000 0.00000   37146   25.96   -3.04  1.0000
   9   7  16   20352    2151     0.00000 0.00000 0.00000 0.00000 0.00000 0.00000   17342  -27.49   -1.57  1.0000
  11   7  16   65852    3144     0.00000 0.00000 0.00000 0.00000 0.00000 0.00000   63934    5.52   -3.85  1.0000
  13   7  16   21637    3135     0.00000 0.00000 0.00000 0.00000 0.00000 0.00000   29535  -21.55  -19.46  1.0000
  15   7  16    1427    2967     0.00000 0.00000 0.00000 0.00000 0.00000 0.00000    3549   -0.98   22.11  1.0000
  17   7  16    2177    3932     0.00000 0.00000 0.00000 0.00000 0.00000 0.00000    4947    0.32   27.20  1.0000
  19   7  16   13138    4592     0.00000 0.00000 0.00000 0.00000 0.00000 0.00000   14080    2.64    9.60  1.0000
  21   7  16    2820    5428     0.00000 0.00000 0.00000 0.00000 0.00000 0.00000    4705   -4.21   21.44  1.0000
  23   7  16    3340    9344     0.00000 0.00000 0.00000 0.00000 0.00000 0.00000    3739    2.79    2.00  1.0000
   0   8  16   36393    2614     0.00000 0.00000 0.00000 0.00000 0.00000 0.00000   28256   33.23    6.02  1.0000
   2   8  16   11711    1739     0.00000 0.00000 0.00000 0.00000 0.00000 0.00000   10308   -8.93    0.30  1.0000
   4   8  16   17962    2032     0.00000 0.00000 0.00000 0.00000 0.00000 0.00000   17046    1.96   19.23  1.0000
   6   8  16   44791    3508     0.00000 0.00000 0.00000 0.00000 0.00000 0.00000   47502  -12.70  -40.50  1.0000
   8   8  16    3284    2437     0.00000 0.00000 0.00000 0.00000 0.00000 0.00000    1512  -22.48   -8.94  1.0000
  10   8  16    8523    2408     0.00000 0.00000 0.00000 0.00000 0.00000 0.00000   11306    1.76   14.18  1.0000
  12   8  16     196    2528     0.00000 0.00000 0.00000 0.00000 0.00000 0.00000   -2363   -0.63  -14.16  1.0000
  14   8  16    2717    2841     0.00000 0.00000 0.00000 0.00000 0.00000 0.00000    3148   -2.88   -3.81  1.0000
  16   8  16    2335    3315     0.00000 0.00000 0.00000 0.00000 0.00000 0.00000    1697   24.24  -15.48  1.0000
  18   8  16   21516    4828     0.00000 0.00000 0.00000 0.00000 0.00000 0.00000   21113   -0.26    6.63  1.0000
  20   8  16    4998    4631     0.00000 0.00000 0.00000 0.00000 0.00000 0.00000    6067   11.50  -20.39  1.0000
  22   8  16    2562    5770     0.00000 0.00000 0.00000 0.00000 0.00000 0.00000    1362    9.48   10.29  1.0000
   1   9  16    6490    2223     0.00000 0.00000 0.00000 0.00000 0.00000 0.00000    6702  -30.60  -25.33  1.0000
   3   9  16    2037    2187     0.00000 0.00000 0.00000 0.00000 0.00000 0.00000    5733   20.29   33.01  1.0000
   5   9  16   17212    2243     0.00000 0.00000 0.00000 0.00000 0.00000 0.00000   15853  -26.24   20.76  1.0000
   7   9  16   21584    2415     0.00000 0.00000 0.00000 0.00000 0.00000 0.00000   18776  -28.32    2.38  1.0000
   9   9  16    1915    2283     0.00000 0.00000 0.00000 0.00000 0.00000 0.00000    3402  -20.53    6.27  1.0000
  11   9  16   10340    2636     0.00000 0.00000 0.00000 0.00000 0.00000 0.00000   12272   16.78   18.19  1.0000
  13   9  16     350    2788     0.00000 0.00000 0.00000 0.00000 0.00000 0.00000     998   -7.30  -13.31  1.0000
  15   9  16     628    3107     0.00000 0.00000 0.00000 0.00000 0.00000 0.00000    -539   -7.87   24.13  1.0000
  17   9  16    5928    5356     0.00000 0.00000 0.00000 0.00000 0.00000 0.00000    6492   -0.83   -7.26  1.0000
  19   9  16    1072    5272     0.00000 0.00000 0.00000 0.00000 0.00000 0.00000   -4700   11.50  -31.09  1.0000
  21   9  16    6671    5402     0.00000 0.00000 0.00000 0.00000 0.00000 0.00000    7788    7.10  -18.20  1.0000
   0  10  16   24955    3864     0.00000 0.00000 0.00000 0.00000 0.00000 0.00000   26898  -11.93  -44.08  1.0000
   2  10  16   25788    2413     0.00000 0.00000 0.00000 0.00000 0.00000 0.00000   26363  -62.10  -36.64  1.0000
   4  10  16    2741    2593     0.00000 0.00000 0.00000 0.00000 0.00000 0.00000    2979   -3.95   -0.42  1.0000
   6  10  16     265    2589     0.00000 0.00000 0.00000 0.00000 0.00000 0.00000    -834   -1.46  -16.42  1.0000
   8  10  16    7443    2287     0.00000 0.00000 0.00000 0.00000 0.00000 0.00000   10305   -2.48  -15.38  1.0000
  10  10  16    4372    2550     0.00000 0.00000 0.00000 0.00000 0.00000 0.00000    2773  -13.75    2.53  1.0000
  12  10  16    2502    2677     0.00000 0.00000 0.00000 0.00000 0.00000 0.00000    3013   21.54    8.36  1.0000
  14  10  16    2136    3388     0.00000 0.00000 0.00000 0.00000 0.00000 0.00000    4944   10.59   28.36  1.0000
  16  10  16    1754    4690     0.00000 0.00000 0.00000 0.00000 0.00000 0.00000    4597    8.67  -24.76  1.0000
  18  10  16     610    5733     0.00000 0.00000 0.00000 0.00000 0.00000 0.00000    -548   -3.48   24.77  1.0000
  20  10  16       2    5577     0.00000 0.00000 0.00000 0.00000 0.00000 0.00000     233  -15.16   -5.70  1.0000
   1  11  16   26162    2563     0.00000 0.00000 0.00000 0.00000 0.00000 0.00000   24484    4.79   -6.00  1.0000
   3  11  16   26997    3575     0.00000 0.00000 0.00000 0.00000 0.00000 0.00000   27516  -20.51    4.75  1.0000
   5  11  16   27502    2369     0.00000 0.00000 0.00000 0.00000 0.00000 0.00000   28486   17.87    3.14  1.0000
   7  11  16   68170    3059     0.00000 0.00000 0.00000 0.00000 0.00000 0.00000   66934    4.97    2.44  1.0000
   9  11  16   10243    2812     0.00000 0.00000 0.00000 0.00000 0.00000 0.00000   11372   15.18  -15.40  1.0000
  11  11  16     951    2876     0.00000 0.00000 0.00000 0.00000 0.00000 0.00000    1951  -13.40   -2.96  1.0000
  13  11  16    1067    3256     0.00000 0.00000 0.00000 0.00000 0.00000 0.00000    4364   28.66   25.85  1.0000
  15  11  16    2471    6339     0.00000 0.00000 0.00000 0.00000 0.00000 0.00000     517   43.63  -27.91  1.0000
  17  11  16    8686    5697     0.00000 0.00000 0.00000 0.00000 0.00000 0.00000    7779   -7.49    1.20  1.0000
  19  11  16   13042    6063     0.00000 0.00000 0.00000 0.00000 0.00000 0.00000   11743   -3.01   30.06  1.0000
  21  11  16      28    5154     0.00000 0.00000 0.00000 0.00000 0.00000 0.00000   -2347   -2.28    4.85  1.0000
   0  12  16    4617    3566     0.00000 0.00000 0.00000 0.00000 0.00000 0.00000    5426   18.51    8.00  1.0000
   2  12  16   18934    2424     0.00000 0.00000 0.00000 0.00000 0.00000 0.00000   16595   10.60   28.69  1.0000
   4  12  16    1667    2390     0.00000 0.00000 0.00000 0.00000 0.00000 0.00000    2420   10.76   10.14  1.0000
   6  12  16      76    2536     0.00000 0.00000 0.00000 0.00000 0.00000 0.00000    -737    4.90   -7.36  1.0000
   8  12  16    1655    2667     0.00000 0.00000 0.00000 0.00000 0.00000 0.00000    1962   -1.27   14.55  1.0000
  10  12  16     555    2913     0.00000 0.00000 0.00000 0.00000 0.00000 0.00000     359   21.56   -8.78  1.0000
  12  12  16      33    3174     0.00000 0.00000 0.00000 0.00000 0.00000 0.00000   -1149    5.77   -0.97  1.0000
  14  12  16      68    3539     0.00000 0.00000 0.00000 0.00000 0.00000 0.00000    1626   26.05  -21.86  1.0000
  16  12  16    1935    5090     0.00000 0.00000 0.00000 0.00000 0.00000 0.00000    -472   26.62   35.71  1.0000
  18  12  16    3490   10151     0.00000 0.00000 0.00000 0.00000 0.00000 0.00000   11030   28.17   40.88  1.0000
  20  12  16    3261    5944     0.00000 0.00000 0.00000 0.00000 0.00000 0.00000    6228    0.42  -38.72  1.0000
   1  13  16   19039    2815     0.00000 0.00000 0.00000 0.00000 0.00000 0.00000   23128    2.90   22.67  1.0000
   3  13  16    3732    2665     0.00000 0.00000 0.00000 0.00000 0.00000 0.00000    2934    2.33  -15.98  1.0000
   5  13  16    5832    2731     0.00000 0.00000 0.00000 0.00000 0.00000 0.00000    6188   -5.89    9.42  1.0000
   7  13  16   19442    2968     0.00000 0.00000 0.00000 0.00000 0.00000 0.00000   27525  -23.04   19.35  1.0000
   9  13  16       3    3898     0.00000 0.00000 0.00000 0.00000 0.00000 0.00000     211   -7.77   12.42  1.0000
  11  13  16    1411    3689     0.00000 0.00000 0.00000 0.00000 0.00000 0.00000   -1421   27.70  -26.06  1.0000
  13  13  16     536    3447     0.00000 0.00000 0.00000 0.00000 0.00000 0.00000    1999   23.56   -0.43  1.0000
  15  13  16   10991   22582     0.00000 0.00000 0.00000 0.00000 0.00000 0.00000   29932   -6.01  -70.04  1.0000
  19  13  16    2472    6417     0.00000 0.00000 0.00000 0.00000 0.00000 0.00000     843   -2.47  -45.49  1.0000
   0  14  16   23464    3898     0.00000 0.00000 0.00000 0.00000 0.00000 0.00000   24924    9.72   -4.99  1.0000
   2  14  16    4570    2643     0.00000 0.00000 0.00000 0.00000 0.00000 0.00000    5839   17.28    2.82  1.0000
   4  14  16    8270    2631     0.00000 0.00000 0.00000 0.00000 0.00000 0.00000    6691   -4.76   -9.24  1.0000
   6  14  16     904    2742     0.00000 0.00000 0.00000 0.00000 0.00000 0.00000   -1007   17.28  -25.06  1.0000
   8  14  16    5641    3419     0.00000 0.00000 0.00000 0.00000 0.00000 0.00000    6298   -0.41    4.29  1.0000
  10  14  16    1626    4049     0.00000 0.00000 0.00000 0.00000 0.00000 0.00000    4086   11.60  -28.11  1.0000
  12  14  16    1135    3802     0.00000 0.00000 0.00000 0.00000 0.00000 0.00000   -5704   25.38   22.79  1.0000
   1  15  16   10951    3025     0.00000 0.00000 0.00000 0.00000 0.00000 0.00000   11936   -3.77   20.00  1.0000
   3  15  16    4600    2892     0.00000 0.00000 0.00000 0.00000 0.00000 0.00000    4868   -0.03   -7.67  1.0000
   5  15  16      56    2872     0.00000 0.00000 0.00000 0.00000 0.00000 0.00000   -2829    6.12   -4.43  1.0000
   7  15  16     865    3245     0.00000 0.00000 0.00000 0.00000 0.00000 0.00000    2647   -1.14  -22.32  1.0000
   9  15  16     683    3585     0.00000 0.00000 0.00000 0.00000 0.00000 0.00000   -1155   -8.28  -25.13  1.0000
  11  15  16    2709    4427     0.00000 0.00000 0.00000 0.00000 0.00000 0.00000   -2102   44.56   28.12  1.0000
  13  15  16    1512    8306     0.00000 0.00000 0.00000 0.00000 0.00000 0.00000   11274   -4.70   69.85  1.0000
  17  15  16   12803   22602     0.00000 0.00000 0.00000 0.00000 0.00000 0.00000   40444   69.40   55.85  1.0000
   0  16  16   13090    4697     0.00000 0.00000 0.00000 0.00000 0.00000 0.00000   14134   16.99   29.23  1.0000
   2  16  16    4009    3351     0.00000 0.00000 0.00000 0.00000 0.00000 0.00000    2507   28.76  -16.55  1.0000
   4  16  16    1438    3185     0.00000 0.00000 0.00000 0.00000 0.00000 0.00000    3553  -21.91   -1.73  1.0000
   6  16  16     359    3523     0.00000 0.00000 0.00000 0.00000 0.00000 0.00000    -679  -14.21   12.87  1.0000
   8  16  16     772    4679     0.00000 0.00000 0.00000 0.00000 0.00000 0.00000    -210   24.04   14.61  1.0000
  10  16  16     689    6769     0.00000 0.00000 0.00000 0.00000 0.00000 0.00000   -6209    9.52   24.82  1.0000
  12  16  16    1915    7096     0.00000 0.00000 0.00000 0.00000 0.00000 0.00000   -6781   26.78  -35.30  1.0000
  16  16  16   10251   19439     0.00000 0.00000 0.00000 0.00000 0.00000 0.00000   36581   91.77    0.64  1.0000
  18  16  16       7    7933     0.00000 0.00000 0.00000 0.00000 0.00000 0.00000    -245   -1.99   -1.87  1.0000
   1  17  16    2706    3454     0.00000 0.00000 0.00000 0.00000 0.00000 0.00000    2918   11.23  -24.68  1.0000
   3  17  16    8389    3951     0.00000 0.00000 0.00000 0.00000 0.00000 0.00000    5729  -10.53   18.36  1.0000
   5  17  16     803    3712     0.00000 0.00000 0.00000 0.00000 0.00000 0.00000    3114   29.05    6.91  1.0000
   7  17  16     212    5871     0.00000 0.00000 0.00000 0.00000 0.00000 0.00000     462    0.38  -27.10  1.0000
   9  17  16   14376    7211     0.00000 0.00000 0.00000 0.00000 0.00000 0.00000   15038   -1.30    8.15  1.0000
  11  17  16      66    6956     0.00000 0.00000 0.00000 0.00000 0.00000 0.00000   -5647   -7.95   -2.22  1.0000
  13  17  16    5473   18614     0.00000 0.00000 0.00000 0.00000 0.00000 0.00000    5358   -5.98  -14.82  1.0000
  17  17  16     852    7112     0.00000 0.00000 0.00000 0.00000 0.00000 0.00000    -238   29.55    0.12  1.0000
   0  18  16    1775    5474     0.00000 0.00000 0.00000 0.00000 0.00000 0.00000    2344  -62.96   54.38  1.0000
   2  18  16   16054    3883     0.00000 0.00000 0.00000 0.00000 0.00000 0.00000   15225    0.53  -24.48  1.0000
   4  18  16    1006    3544     0.00000 0.00000 0.00000 0.00000 0.00000 0.00000    2224  -11.13  -16.11  1.0000
   6  18  16    4093    4091     0.00000 0.00000 0.00000 0.00000 0.00000 0.00000    4434   -7.07   12.96  1.0000
   8  18  16      46   10134     0.00000 0.00000 0.00000 0.00000 0.00000 0.00000   -8275   -0.24   -6.89  1.0000
  10  18  16     608    7512     0.00000 0.00000 0.00000 0.00000 0.00000 0.00000   -3377   -3.47  -24.73  1.0000
  12  18  16      57   16723     0.00000 0.00000 0.00000 0.00000 0.00000 0.00000    2469   26.51  -41.15  1.0000
  16  18  16       4    8286     0.00000 0.00000 0.00000 0.00000 0.00000 0.00000   -9320   -1.66    1.02  1.0000
   1  19  16       4    3954     0.00000 0.00000 0.00000 0.00000 0.00000 0.00000   -4459    0.90   -1.93  1.0000
   3  19  16    1359    4733     0.00000 0.00000 0.00000 0.00000 0.00000 0.00000    2689  -12.89    9.16  1.0000
   5  19  16   12557    4951     0.00000 0.00000 0.00000 0.00000 0.00000 0.00000   16161  -11.66  -15.96  1.0000
   7  19  16   12795    4815     0.00000 0.00000 0.00000 0.00000 0.00000 0.00000   12853    2.73  -10.06  1.0000
   9  19  16   15723    5777     0.00000 0.00000 0.00000 0.00000 0.00000 0.00000   11457   11.81   31.55  1.0000
  11  19  16     950    8725     0.00000 0.00000 0.00000 0.00000 0.00000 0.00000   -3499   -3.12  -31.05  1.0000
  13  19  16   12952    8799     0.00000 0.00000 0.00000 0.00000 0.00000 0.00000    7662   -2.14   46.65  1.0000
   0  20  16   18376    5671     0.00000 0.00000 0.00000 0.00000 0.00000 0.00000   13055    9.23   45.44  1.0000
   2  20  16     498    4867     0.00000 0.00000 0.00000 0.00000 0.00000 0.00000   -2675  -21.99    5.12  1.0000
   4  20  16    4044    5107     0.00000 0.00000 0.00000 0.00000 0.00000 0.00000    6345  -16.60    2.52  1.0000
   6  20  16     903    4865     0.00000 0.00000 0.00000 0.00000 0.00000 0.00000   -6524   21.79  -21.22  1.0000
   8  20  16    3208    4818     0.00000 0.00000 0.00000 0.00000 0.00000 0.00000    3535   11.90   18.32  1.0000
  10  20  16    3691    8366     0.00000 0.00000 0.00000 0.00000 0.00000 0.00000    5946  -15.62    5.67  1.0000
  12  20  16     402   10424     0.00000 0.00000 0.00000 0.00000 0.00000 0.00000    1093   -0.30   37.99  1.0000
   1  21  16    2019    4626     0.00000 0.00000 0.00000 0.00000 0.00000 0.00000    -701   27.37  -36.34  1.0000
   3  21  16    4104    5377     0.00000 0.00000 0.00000 0.00000 0.00000 0.00000    7637   24.13    1.68  1.0000
   5  21  16    3384    5956     0.00000 0.00000 0.00000 0.00000 0.00000 0.00000    6448  -21.30  -12.92  1.0000
   7  21  16    5267    9385     0.00000 0.00000 0.00000 0.00000 0.00000 0.00000    5983   -3.70  -22.05  1.0000
   9  21  16     398    5884     0.00000 0.00000 0.00000 0.00000 0.00000 0.00000   -1001    6.47   19.13  1.0000
  11  21  16    4880    7095     0.00000 0.00000 0.00000 0.00000 0.00000 0.00000    4926   -1.78   -4.43  1.0000
   0  22  16   13272    6239     0.00000 0.00000 0.00000 0.00000 0.00000 0.00000    -288   67.80  -94.91  1.0000
   2  22  16   13777    4453     0.00000 0.00000 0.00000 0.00000 0.00000 0.00000   15390    8.97  -29.99  1.0000
   4  22  16    3205    4709     0.00000 0.00000 0.00000 0.00000 0.00000 0.00000    4639   31.04   62.47  1.0000
   6  22  16    1655    4999     0.00000 0.00000 0.00000 0.00000 0.00000 0.00000   -6293  -32.51   25.28  1.0000
   8  22  16    1701    5955     0.00000 0.00000 0.00000 0.00000 0.00000 0.00000     854    9.11  -10.35  1.0000
  10  22  16    5327   13403     0.00000 0.00000 0.00000 0.00000 0.00000 0.00000   21452   16.16  -74.31  1.0000
   1  23  16    6808    4584     0.00000 0.00000 0.00000 0.00000 0.00000 0.00000    8813   -2.45  -28.09  1.0000
   3  23  16    5277    5700     0.00000 0.00000 0.00000 0.00000 0.00000 0.00000    9671  -27.11    2.08  1.0000
   5  23  16     417    4919     0.00000 0.00000 0.00000 0.00000 0.00000 0.00000   -1912   -4.12  -20.26  1.0000
   7  23  16      17    6539     0.00000 0.00000 0.00000 0.00000 0.00000 0.00000   -9809    2.38   -3.49  1.0000
   0  24  16     934    6908     0.00000 0.00000 0.00000 0.00000 0.00000 0.00000   -2532   15.63   26.70  1.0000
   2  24  16    1447    8710     0.00000 0.00000 0.00000 0.00000 0.00000 0.00000    4762  -34.28   30.93  1.0000
   2   1  17    9986    1569     0.00000 0.00000 0.00000 0.00000 0.00000 0.00000    7068   10.76   32.02  1.0000
   4   1  17    6765    2253     0.00000 0.00000 0.00000 0.00000 0.00000 0.00000    9276  -16.15  -10.63  1.0000
   6   1  17   65840    3304     0.00000 0.00000 0.00000 0.00000 0.00000 0.00000   74686  -29.49  -29.30  1.0000
   8   1  17  144225    4664     0.00000 0.00000 0.00000 0.00000 0.00000 0.00000  120286   43.65    0.83  1.0000
  10   1  17  310588    5671     0.00000 0.00000 0.00000 0.00000 0.00000 0.00000  293200   -0.78  -26.27  1.0000
  12   1  17    8732    1862     0.00000 0.00000 0.00000 0.00000 0.00000 0.00000    4986   18.23  -14.25  1.0000
  14   1  17   11837    2295     0.00000 0.00000 0.00000 0.00000 0.00000 0.00000   11453    2.58    1.46  1.0000
  16   1  17    2736    2611     0.00000 0.00000 0.00000 0.00000 0.00000 0.00000    4595   23.82   10.85  1.0000
  18   1  17    1833    2860     0.00000 0.00000 0.00000 0.00000 0.00000 0.00000    6343   43.54   10.81  1.0000
  20   1  17    5429    4022     0.00000 0.00000 0.00000 0.00000 0.00000 0.00000    6721  -17.99  -23.41  1.0000
  22   1  17    1995    4279     0.00000 0.00000 0.00000 0.00000 0.00000 0.00000    8564  -54.57  -35.43  1.0000
   1   2  17   12442    2362     0.00000 0.00000 0.00000 0.00000 0.00000 0.00000    8348  -10.53   31.14  1.0000
   3   2  17    6915    1715     0.00000 0.00000 0.00000 0.00000 0.00000 0.00000   12746  -11.25   28.81  1.0000
   5   2  17   10247    1950     0.00000 0.00000 0.00000 0.00000 0.00000 0.00000   12109  -13.56    7.81  1.0000
   7   2  17   19502    2360     0.00000 0.00000 0.00000 0.00000 0.00000 0.00000   22086   -2.37   16.74  1.0000
   9   2  17    8509    1903     0.00000 0.00000 0.00000 0.00000 0.00000 0.00000   18300  -18.38   43.70  1.0000
  11   2  17   26701    2324     0.00000 0.00000 0.00000 0.00000 0.00000 0.00000   30490   -1.81   14.46  1.0000
  13   2  17     904    2342     0.00000 0.00000 0.00000 0.00000 0.00000 0.00000    2137   11.97   14.05  1.0000
  15   2  17    1396    2442     0.00000 0.00000 0.00000 0.00000 0.00000 0.00000    2511  -12.86  -10.67  1.0000
  17   2  17    3916    2858     0.00000 0.00000 0.00000 0.00000 0.00000 0.00000    5030  -17.27   -4.07  1.0000
  19   2  17    1083    3393     0.00000 0.00000 0.00000 0.00000 0.00000 0.00000    -284  -32.91    5.21  1.0000
  21   2  17    1899    4489     0.00000 0.00000 0.00000 0.00000 0.00000 0.00000    4717    2.71   27.09  1.0000
  23   2  17    2196    4758     0.00000 0.00000 0.00000 0.00000 0.00000 0.00000   12843   48.45  -49.36  1.0000
   2   3  17    6690    1808     0.00000 0.00000 0.00000 0.00000 0.00000 0.00000   12323   10.70   28.37  1.0000
   4   3  17    7170    1787     0.00000 0.00000 0.00000 0.00000 0.00000 0.00000    7393   54.57  -28.53  1.0000
   6   3  17   70618    4147     0.00000 0.00000 0.00000 0.00000 0.00000 0.00000   60059   -1.23  -21.52  1.0000
   8   3  17  170586    5261     0.00000 0.00000 0.00000 0.00000 0.00000 0.00000  167426   -9.01   -5.29  1.0000
  10   3  17  237403    4518     0.00000 0.00000 0.00000 0.00000 0.00000 0.00000  217713  -41.55  -14.60  1.0000
  12   3  17    8655    2143     0.00000 0.00000 0.00000 0.00000 0.00000 0.00000   14378   19.89  -19.93  1.0000
  14   3  17   21182    2737     0.00000 0.00000 0.00000 0.00000 0.00000 0.00000   18381   -8.74    5.23  1.0000
  16   3  17    1112    2506     0.00000 0.00000 0.00000 0.00000 0.00000 0.00000    2542  -15.07   20.24  1.0000
  18   3  17    1667    3291     0.00000 0.00000 0.00000 0.00000 0.00000 0.00000   -4936   41.32   -1.15  1.0000
  20   3  17    1320    3704     0.00000 0.00000 0.00000 0.00000 0.00000 0.00000    4510   38.37  -22.28  1.0000
  22   3  17    2703    4825     0.00000 0.00000 0.00000 0.00000 0.00000 0.00000    7339  -27.68   23.74  1.0000
   1   4  17    4031    1773     0.00000 0.00000 0.00000 0.00000 0.00000 0.00000    6377   15.97   -8.95  1.0000
   3   4  17    9270    1936     0.00000 0.00000 0.00000 0.00000 0.00000 0.00000    7106  -52.84  -28.09  1.0000
   5   4  17    6444    2083     0.00000 0.00000 0.00000 0.00000 0.00000 0.00000    7072   10.26   -6.32  1.0000
   7   4  17   85564    3969     0.00000 0.00000 0.00000 0.00000 0.00000 0.00000   79284  -14.76   25.37  1.0000
   9   4  17  101373    4298     0.00000 0.00000 0.00000 0.00000 0.00000 0.00000  117742   32.05    5.66  1.0000
  11   4  17   22221    2349     0.00000 0.00000 0.00000 0.00000 0.00000 0.00000   28708    1.57  -30.16  1.0000
  13   4  17    7796    2235     0.00000 0.00000 0.00000 0.00000 0.00000 0.00000    8724    5.77   -0.91  1.0000
  15   4  17    3012    2528     0.00000 0.00000 0.00000 0.00000 0.00000 0.00000    5419   25.56    5.05  1.0000
  17   4  17    2664    3108     0.00000 0.00000 0.00000 0.00000 0.00000 0.00000    5102  -14.44   14.07  1.0000
  19   4  17    2427    3725     0.00000 0.00000 0.00000 0.00000 0.00000 0.00000    6083  -36.29   -3.88  1.0000
  21   4  17     787    4554     0.00000 0.00000 0.00000 0.00000 0.00000 0.00000    3736   30.05   22.28  1.0000
  23   4  17    2872    5024     0.00000 0.00000 0.00000 0.00000 0.00000 0.00000    4518   -1.43   14.33  1.0000
   2   5  17    4882    1636     0.00000 0.00000 0.00000 0.00000 0.00000 0.00000    6277   15.01    8.33  1.0000
   4   5  17    4361    2320     0.00000 0.00000 0.00000 0.00000 0.00000 0.00000    4973   -8.46   -4.78  1.0000
   6   5  17   33733    3604     0.00000 0.00000 0.00000 0.00000 0.00000 0.00000   38742    4.14   49.60  1.0000
   8   5  17   14569    2457     0.00000 0.00000 0.00000 0.00000 0.00000 0.00000   11642    3.09  -13.75  1.0000
  10   5  17  102663    3364     0.00000 0.00000 0.00000 0.00000 0.00000 0.00000  101266    3.63    0.51  1.0000
  12   5  17   11697    2296     0.00000 0.00000 0.00000 0.00000 0.00000 0.00000   10349    7.18   -1.40  1.0000
  14   5  17    7925    3111     0.00000 0.00000 0.00000 0.00000 0.00000 0.00000    6227   18.20   -8.26  1.0000
  16   5  17     370    3159     0.00000 0.00000 0.00000 0.00000 0.00000 0.00000     808    8.10    7.83  1.0000
  18   5  17    3889    3395     0.00000 0.00000 0.00000 0.00000 0.00000 0.00000     503   -1.94   40.60  1.0000
  20   5  17    1031    4829     0.00000 0.00000 0.00000 0.00000 0.00000 0.00000    1184   18.07  -26.21  1.0000
  22   5  17    1635    4970     0.00000 0.00000 0.00000 0.00000 0.00000 0.00000    3080  -15.44   -3.38  1.0000
   1   6  17   61357    2741     0.00000 0.00000 0.00000 0.00000 0.00000 0.00000   69332   27.57  -28.69  1.0000
   3   6  17   65741    2450     0.00000 0.00000 0.00000 0.00000 0.00000 0.00000   55512    0.96  -21.73  1.0000
   5   6  17   27315    2390     0.00000 0.00000 0.00000 0.00000 0.00000 0.00000   31512   -4.15   48.04  1.0000
   7   6  17   22639    2435     0.00000 0.00000 0.00000 0.00000 0.00000 0.00000   34703  -32.89   29.78  1.0000
   9   6  17   73437    3031     0.00000 0.00000 0.00000 0.00000 0.00000 0.00000   81686  -15.49   -5.93  1.0000
  11   6  17   52595    3558     0.00000 0.00000 0.00000 0.00000 0.00000 0.00000   56491  -17.80   -6.35  1.0000
  13   6  17   25218    2456     0.00000 0.00000 0.00000 0.00000 0.00000 0.00000   28696    0.81   27.72  1.0000
  15   6  17     498    3116     0.00000 0.00000 0.00000 0.00000 0.00000 0.00000   -2122  -21.83    5.86  1.0000
  17   6  17    5583    3533     0.00000 0.00000 0.00000 0.00000 0.00000 0.00000    7650   11.22   -9.28  1.0000
  19   6  17    8780    3740     0.00000 0.00000 0.00000 0.00000 0.00000 0.00000   12342   -2.20  -25.18  1.0000
  21   6  17     137    5421     0.00000 0.00000 0.00000 0.00000 0.00000 0.00000     173   -5.69  -14.09  1.0000
  23   6  17     397    6466     0.00000 0.00000 0.00000 0.00000 0.00000 0.00000   -3931  -10.56   17.18  1.0000
   2   7  17   16226    1750     0.00000 0.00000 0.00000 0.00000 0.00000 0.00000   18881    1.15   17.38  1.0000
   4   7  17   80188    3040     0.00000 0.00000 0.00000 0.00000 0.00000 0.00000   73396   13.41   24.95  1.0000
   6   7  17   22218    2223     0.00000 0.00000 0.00000 0.00000 0.00000 0.00000   33199   31.10   29.52  1.0000
   8   7  17    5159    1997     0.00000 0.00000 0.00000 0.00000 0.00000 0.00000    7642   13.68  -23.94  1.0000
  10   7  17   38335    2722     0.00000 0.00000 0.00000 0.00000 0.00000 0.00000   44215   15.30   -4.56  1.0000
  12   7  17   17286    3184     0.00000 0.00000 0.00000 0.00000 0.00000 0.00000   21826  -14.18   13.02  1.0000
  14   7  17    1237    2807     0.00000 0.00000 0.00000 0.00000 0.00000 0.00000    1713    5.82   -9.12  1.0000
  16   7  17    8645    3661     0.00000 0.00000 0.00000 0.00000 0.00000 0.00000    7260   23.44   12.23  1.0000
  18   7  17    1977    5326     0.00000 0.00000 0.00000 0.00000 0.00000 0.00000    4757  -13.60   21.10  1.0000
  20   7  17    3196    4421     0.00000 0.00000 0.00000 0.00000 0.00000 0.00000    5693   19.85    6.14  1.0000
  22   7  17     494    5591     0.00000 0.00000 0.00000 0.00000 0.00000 0.00000     665    4.31   -4.41  1.0000
   1   8  17  142778    3784     0.00000 0.00000 0.00000 0.00000 0.00000 0.00000  121712  -42.79   -0.35  1.0000
   3   8  17  172691    4609     0.00000 0.00000 0.00000 0.00000 0.00000 0.00000  170509   10.63   -7.32  1.0000
   5   8  17   12932    2439     0.00000 0.00000 0.00000 0.00000 0.00000 0.00000   10228   -4.11  -12.08  1.0000
   7   8  17    4430    2515     0.00000 0.00000 0.00000 0.00000 0.00000 0.00000    6946  -13.83  -24.62  1.0000
   9   8  17   33789    2991     0.00000 0.00000 0.00000 0.00000 0.00000 0.00000   28021  -25.15   -7.11  1.0000
  11   8  17   16672    3142     0.00000 0.00000 0.00000 0.00000 0.00000 0.00000   19497  -10.41  -25.60  1.0000
  13   8  17    7585    2891     0.00000 0.00000 0.00000 0.00000 0.00000 0.00000   11542   26.71   -6.35  1.0000
  15   8  17    4952    3199     0.00000 0.00000 0.00000 0.00000 0.00000 0.00000    5092  -33.67    2.20  1.0000
  17   8  17    6694    4812     0.00000 0.00000 0.00000 0.00000 0.00000 0.00000   11128  -12.49  -35.76  1.0000
  19   8  17   23163    8641     0.00000 0.00000 0.00000 0.00000 0.00000 0.00000   17282   -7.00  -19.79  1.0000
  21   8  17    3477    5343     0.00000 0.00000 0.00000 0.00000 0.00000 0.00000    4968  -17.98   10.59  1.0000
   2   9  17    3671    2239     0.00000 0.00000 0.00000 0.00000 0.00000 0.00000   11582   15.38   46.83  1.0000
   4   9  17  110556    4198     0.00000 0.00000 0.00000 0.00000 0.00000 0.00000  124504  -30.18    5.24  1.0000
   6   9  17   75011    3333     0.00000 0.00000 0.00000 0.00000 0.00000 0.00000   82729   17.60   -9.41  1.0000
   8   9  17   32221    2520     0.00000 0.00000 0.00000 0.00000 0.00000 0.00000   28957   24.40   -7.27  1.0000
  10   9  17   23529    2647     0.00000 0.00000 0.00000 0.00000 0.00000 0.00000   26095    6.78    7.12  1.0000
  12   9  17   23022    3507     0.00000 0.00000 0.00000 0.00000 0.00000 0.00000   22935  -32.55   21.53  1.0000
  14   9  17    7433    3055     0.00000 0.00000 0.00000 0.00000 0.00000 0.00000    4650    3.48  -23.05  1.0000
  16   9  17    7053    3816     0.00000 0.00000 0.00000 0.00000 0.00000 0.00000   13391   31.39  -19.70  1.0000
  18   9  17    2045    5608     0.00000 0.00000 0.00000 0.00000 0.00000 0.00000     708   -7.07   17.77  1.0000
  20   9  17    5882    5634     0.00000 0.00000 0.00000 0.00000 0.00000 0.00000   13375   20.59   36.15  1.0000
  22   9  17    1150    6644     0.00000 0.00000 0.00000 0.00000 0.00000 0.00000    2604   17.81  -15.80  1.0000
   1  10  17  331684    7303     0.00000 0.00000 0.00000 0.00000 0.00000 0.00000  311097    0.81  -25.98  1.0000
   3  10  17  252607    5683     0.00000 0.00000 0.00000 0.00000 0.00000 0.00000  237166   42.87  -15.67  1.0000
   5  10  17  112021    3671     0.00000 0.00000 0.00000 0.00000 0.00000 0.00000  110753   -5.12    1.69  1.0000
   7  10  17   39998    2566     0.00000 0.00000 0.00000 0.00000 0.00000 0.00000   45510  -13.37   -6.71  1.0000
   9  10  17   23595    2567     0.00000 0.00000 0.00000 0.00000 0.00000 0.00000   25784   -6.93    5.81  1.0000
  11  10  17   27647    2974     0.00000 0.00000 0.00000 0.00000 0.00000 0.00000   26496   -1.65   -6.87  1.0000
  13  10  17   18733    2980     0.00000 0.00000 0.00000 0.00000 0.00000 0.00000   20719   -7.37    0.19  1.0000
  15  10  17   12249    3280     0.00000 0.00000 0.00000 0.00000 0.00000 0.00000   13249    3.47    2.86  1.0000
  17  10  17   30196    5491     0.00000 0.00000 0.00000 0.00000 0.00000 0.00000   24812   14.37   16.51  1.0000
  19  10  17   19413    6093     0.00000 0.00000 0.00000 0.00000 0.00000 0.00000   15367  -11.44  -12.12  1.0000
  21  10  17    8399    7218     0.00000 0.00000 0.00000 0.00000 0.00000 0.00000   11225  -26.23    7.70  1.0000
   2  11  17   23665    2505     0.00000 0.00000 0.00000 0.00000 0.00000 0.00000   27681    0.60   15.82  1.0000
   4  11  17   19738    2442     0.00000 0.00000 0.00000 0.00000 0.00000 0.00000   26786   -1.87  -28.61  1.0000
   6  11  17   51781    2830     0.00000 0.00000 0.00000 0.00000 0.00000 0.00000   53879   17.20   -6.64  1.0000
   8  11  17   15615    2735     0.00000 0.00000 0.00000 0.00000 0.00000 0.00000   20209    7.25  -23.85  1.0000
  10  11  17   30650    3023     0.00000 0.00000 0.00000 0.00000 0.00000 0.00000   29343    2.45   -6.13  1.0000
  12  11  17   28968    3254     0.00000 0.00000 0.00000 0.00000 0.00000 0.00000   30844  -11.55    4.73  1.0000
  14  11  17   11876    3367     0.00000 0.00000 0.00000 0.00000 0.00000 0.00000   18468  -19.57   30.69  1.0000
  16  11  17    6823    5263     0.00000 0.00000 0.00000 0.00000 0.00000 0.00000   10249  -18.88   -0.44  1.0000
  18  11  17     557    6235     0.00000 0.00000 0.00000 0.00000 0.00000 0.00000    -297    2.82  -23.73  1.0000
  20  11  17    2474    5170     0.00000 0.00000 0.00000 0.00000 0.00000 0.00000    8126   35.76  -20.03  1.0000
   1  12  17    9047    2441     0.00000 0.00000 0.00000 0.00000 0.00000 0.00000    5568  -17.18  -14.16  1.0000
   3  12  17    8456    2536     0.00000 0.00000 0.00000 0.00000 0.00000 0.00000   14186  -18.22  -20.58  1.0000
   5  12  17   14497    2687     0.00000 0.00000 0.00000 0.00000 0.00000 0.00000   13438   -7.84   -0.32  1.0000
   7  12  17   13942    3150     0.00000 0.00000 0.00000 0.00000 0.00000 0.00000   17597   14.62   12.36  1.0000
   9  12  17   20479    3181     0.00000 0.00000 0.00000 0.00000 0.00000 0.00000   21535   31.71   21.75  1.0000
  11  12  17   31264    3357     0.00000 0.00000 0.00000 0.00000 0.00000 0.00000   33981   12.14    3.95  1.0000
  13  12  17   15589    3315     0.00000 0.00000 0.00000 0.00000 0.00000 0.00000   13039  -38.48    7.48  1.0000
  15  12  17   14511    4278     0.00000 0.00000 0.00000 0.00000 0.00000 0.00000    8445   22.78  -73.63  1.0000
  17  12  17    5197    7578     0.00000 0.00000 0.00000 0.00000 0.00000 0.00000    5463   -1.02   16.22  1.0000
  19  12  17    9486    5539     0.00000 0.00000 0.00000 0.00000 0.00000 0.00000   11831   38.71   -2.55  1.0000
   2  13  17    2477    2599     0.00000 0.00000 0.00000 0.00000 0.00000 0.00000    4570  -11.86   13.66  1.0000
   4  13  17   13519    2897     0.00000 0.00000 0.00000 0.00000 0.00000 0.00000   14498   -5.84   -0.25  1.0000
   6  13  17   25619    2836     0.00000 0.00000 0.00000 0.00000 0.00000 0.00000   30902    0.52   25.87  1.0000
   8  13  17    7942    2887     0.00000 0.00000 0.00000 0.00000 0.00000 0.00000   11182  -29.00   -5.57  1.0000
  10  13  17   23764    3623     0.00000 0.00000 0.00000 0.00000 0.00000 0.00000   26197    7.75    0.88  1.0000
  12  13  17   15945    3455     0.00000 0.00000 0.00000 0.00000 0.00000 0.00000   13287   36.77    7.30  1.0000
  14  13  17    5155    3496     0.00000 0.00000 0.00000 0.00000 0.00000 0.00000    3812  -96.54   28.99  1.0000
  18  13  17    8564    9264     0.00000 0.00000 0.00000 0.00000 0.00000 0.00000   13774   -8.06   24.31  1.0000
  20  13  17      19    7692     0.00000 0.00000 0.00000 0.00000 0.00000 0.00000  -11537   -2.84   -3.37  1.0000
   1  14  17    5071    2893     0.00000 0.00000 0.00000 0.00000 0.00000 0.00000    4938   -2.87    2.50  1.0000
   3  14  17   13278    2598     0.00000 0.00000 0.00000 0.00000 0.00000 0.00000   11003   10.74    4.34  1.0000
   5  14  17     425    2668     0.00000 0.00000 0.00000 0.00000 0.00000 0.00000    -265  -19.23   -8.12  1.0000
   7  14  17    1249    3021     0.00000 0.00000 0.00000 0.00000 0.00000 0.00000    2028   -5.31   -8.97  1.0000
   9  14  17     495    3921     0.00000 0.00000 0.00000 0.00000 0.00000 0.00000    -654   -1.48  -22.47  1.0000
  11  14  17    5066    3884     0.00000 0.00000 0.00000 0.00000 0.00000 0.00000    9554   21.55   31.90  1.0000
  13  14  17    4272    4084     0.00000 0.00000 0.00000 0.00000 0.00000 0.00000    3496   95.42   29.41  1.0000
  15  14  17   18464   15895     0.00000 0.00000 0.00000 0.00000 0.00000 0.00000  114283  188.58  -84.85  1.0000
  19  14  17    4806    4807     0.00000 0.00000 0.00000 0.00000 0.00000 0.00000    5159  -24.99   30.32  1.0000
   2  15  17     339    3208     0.00000 0.00000 0.00000 0.00000 0.00000 0.00000   -3574   12.73  -13.61  1.0000
   4  15  17    1526    2928     0.00000 0.00000 0.00000 0.00000 0.00000 0.00000    3062  -26.10    5.44  1.0000
   6  15  17     535    3097     0.00000 0.00000 0.00000 0.00000 0.00000 0.00000   -1285   22.52    6.39  1.0000
   8  15  17    2139    3648     0.00000 0.00000 0.00000 0.00000 0.00000 0.00000    1913   32.83    2.34  1.0000
  10  15  17   15158    4111     0.00000 0.00000 0.00000 0.00000 0.00000 0.00000   16119   -4.08    1.23  1.0000
  12  15  17    8290    4915     0.00000 0.00000 0.00000 0.00000 0.00000 0.00000    4853  -23.79  -74.95  1.0000
   1  16  17     686    3175     0.00000 0.00000 0.00000 0.00000 0.00000 0.00000   -4762  -23.71   11.88  1.0000
   3  16  17    1055    3377     0.00000 0.00000 0.00000 0.00000 0.00000 0.00000    2420   16.35   20.38  1.0000
   5  16  17    2616    3222     0.00000 0.00000 0.00000 0.00000 0.00000 0.00000    3653   -9.01    6.49  1.0000
   7  16  17     646    3824     0.00000 0.00000 0.00000 0.00000 0.00000 0.00000   -2725  -23.09   11.37  1.0000
   9  16  17    3944    3901     0.00000 0.00000 0.00000 0.00000 0.00000 0.00000    9031  -31.40  -20.02  1.0000
  11  16  17     381    8416     0.00000 0.00000 0.00000 0.00000 0.00000 0.00000   -9547   19.76   -0.35  1.0000
  13  16  17    1963   18086     0.00000 0.00000 0.00000 0.00000 0.00000 0.00000    3442   14.04   62.03  1.0000
   2  17  17     304    3512     0.00000 0.00000 0.00000 0.00000 0.00000 0.00000   -4369   16.91   -5.07  1.0000
   4  17  17    2733    3278     0.00000 0.00000 0.00000 0.00000 0.00000 0.00000    5105   12.75   14.66  1.0000
   6  17  17    5272    4140     0.00000 0.00000 0.00000 0.00000 0.00000 0.00000    7188  -10.66   -9.38  1.0000
   8  17  17    5967    6645     0.00000 0.00000 0.00000 0.00000 0.00000 0.00000    7914   12.73  -36.25  1.0000
  10  17  17   16591    8510     0.00000 0.00000 0.00000 0.00000 0.00000 0.00000   12603  -14.54   16.52  1.0000
  12  17  17    6949   15297     0.00000 0.00000 0.00000 0.00000 0.00000 0.00000    8287    1.58   18.05  1.0000
   1  18  17    1371    4405     0.00000 0.00000 0.00000 0.00000 0.00000 0.00000    2393  -43.25   10.81  1.0000
   3  18  17    1670    3574     0.00000 0.00000 0.00000 0.00000 0.00000 0.00000   -1247  -41.36   -1.22  1.0000
   5  18  17    7112    5101     0.00000 0.00000 0.00000 0.00000 0.00000 0.00000    2028    1.44   39.86  1.0000
   7  18  17     618    4324     0.00000 0.00000 0.00000 0.00000 0.00000 0.00000   -1207   14.87   20.31  1.0000
   9  18  17     350    7037     0.00000 0.00000 0.00000 0.00000 0.00000 0.00000  -10202    7.13   17.55  1.0000
  11  18  17     543    7459     0.00000 0.00000 0.00000 0.00000 0.00000 0.00000  -10828   -3.89  -23.27  1.0000
  13  18  17     577   23336     0.00000 0.00000 0.00000 0.00000 0.00000 0.00000   -6633    7.12   23.24  1.0000
  15  18  17     372   20807     0.00000 0.00000 0.00000 0.00000 0.00000 0.00000   -2169   17.84    7.94  1.0000
   2  19  17    1136    3841     0.00000 0.00000 0.00000 0.00000 0.00000 0.00000   -2458   33.65    5.64  1.0000
   4  19  17    2095    4025     0.00000 0.00000 0.00000 0.00000 0.00000 0.00000    4924   36.16   -3.92  1.0000
   6  19  17    1468    4308     0.00000 0.00000 0.00000 0.00000 0.00000 0.00000    3337    1.63  -24.63  1.0000
   8  19  17     434   10065     0.00000 0.00000 0.00000 0.00000 0.00000 0.00000    -787    6.42  -20.10  1.0000
  10  19  17     294    7689     0.00000 0.00000 0.00000 0.00000 0.00000 0.00000   -6035   12.60  -11.96  1.0000
  12  19  17    3908    6592     0.00000 0.00000 0.00000 0.00000 0.00000 0.00000    4524  -37.21   -1.48  1.0000
  14  19  17    1452    5765     0.00000 0.00000 0.00000 0.00000 0.00000 0.00000   -1446   24.73   29.62  1.0000
   1  20  17     828    4024     0.00000 0.00000 0.00000 0.00000 0.00000 0.00000   -2625   18.43  -22.55  1.0000
   3  20  17    3691    5135     0.00000 0.00000 0.00000 0.00000 0.00000 0.00000    7058  -39.15  -21.53  1.0000
   5  20  17    1326    4680     0.00000 0.00000 0.00000 0.00000 0.00000 0.00000    3385  -18.65  -25.60  1.0000
   7  20  17     381    6532     0.00000 0.00000 0.00000 0.00000 0.00000 0.00000   -2370  -18.18    7.74  1.0000
   9  20  17    1667    8926     0.00000 0.00000 0.00000 0.00000 0.00000 0.00000   -6106  -22.05   34.97  1.0000
  11  20  17    1647    8478     0.00000 0.00000 0.00000 0.00000 0.00000 0.00000   -6436  -35.67  -20.39  1.0000
  13  20  17    1562    8669     0.00000 0.00000 0.00000 0.00000 0.00000 0.00000    1679    2.30   -3.55  1.0000
   2  21  17     211    5248     0.00000 0.00000 0.00000 0.00000 0.00000 0.00000    1471   -4.19   27.44  1.0000
   4  21  17    1351    4748     0.00000 0.00000 0.00000 0.00000 0.00000 0.00000    -646  -29.68   22.45  1.0000
   6  21  17     220    5016     0.00000 0.00000 0.00000 0.00000 0.00000 0.00000   -5647    5.93  -13.80  1.0000
   8  21  17     324    5933     0.00000 0.00000 0.00000 0.00000 0.00000 0.00000     969   18.55   11.01  1.0000
  10  21  17   10626    6356     0.00000 0.00000 0.00000 0.00000 0.00000 0.00000   14313   27.91    7.94  1.0000
   1  22  17    2032    4522     0.00000 0.00000 0.00000 0.00000 0.00000 0.00000    7236   54.12  -36.11  1.0000
   3  22  17     303    4595     0.00000 0.00000 0.00000 0.00000 0.00000 0.00000    2040   27.69   22.84  1.0000
   5  22  17     713    4929     0.00000 0.00000 0.00000 0.00000 0.00000 0.00000    1631   15.40   -3.11  1.0000
   7  22  17      40    5559     0.00000 0.00000 0.00000 0.00000 0.00000 0.00000   -8338   -4.59   -4.48  1.0000
   9  22  17    1551    8020     0.00000 0.00000 0.00000 0.00000 0.00000 0.00000    3641  -22.03  -16.96  1.0000
   2  23  17    2165    5831     0.00000 0.00000 0.00000 0.00000 0.00000 0.00000   12473  -46.48  -50.39  1.0000
   4  23  17    5677    6376     0.00000 0.00000 0.00000 0.00000 0.00000 0.00000    7755    2.81   13.33  1.0000
   6  23  17     403    6580     0.00000 0.00000 0.00000 0.00000 0.00000 0.00000   -4955   10.52   17.38  1.0000
   0   0  18   10463    4397     0.00000 0.00000 0.00000 0.00000 0.00000 0.00000    4345  -37.34   -2.57  1.0000
   2   0  18  294380   10702     0.00000 0.00000 0.00000 0.00000 0.00000 0.00000  326916  -69.07  -37.07  1.0000
   4   0  18   26247    2910     0.00000 0.00000 0.00000 0.00000 0.00000 0.00000   24480   28.96   13.91  1.0000
   6   0  18  175151    7767     0.00000 0.00000 0.00000 0.00000 0.00000 0.00000  153197  -46.73   19.19  1.0000
   8   0  18   47649    3994     0.00000 0.00000 0.00000 0.00000 0.00000 0.00000   43322   28.68  -13.22  1.0000
  10   0  18   19094    3530     0.00000 0.00000 0.00000 0.00000 0.00000 0.00000   16298   22.46   25.65  1.0000
  12   0  18   16734    3188     0.00000 0.00000 0.00000 0.00000 0.00000 0.00000   17144   22.83   -7.08  1.0000
  14   0  18   11546    3377     0.00000 0.00000 0.00000 0.00000 0.00000 0.00000   11635  -16.45   -8.38  1.0000
  16   0  18   27054    4742     0.00000 0.00000 0.00000 0.00000 0.00000 0.00000   28150    6.53   -6.77  1.0000
  18   0  18   33640    4445     0.00000 0.00000 0.00000 0.00000 0.00000 0.00000   42443   75.26   24.95  1.0000
  20   0  18     709    4473     0.00000 0.00000 0.00000 0.00000 0.00000 0.00000    1382   14.17  -16.69  1.0000
  22   0  18   14807    6293     0.00000 0.00000 0.00000 0.00000 0.00000 0.00000   12256   31.56  -38.74  1.0000
   1   1  18    4658    2279     0.00000 0.00000 0.00000 0.00000 0.00000 0.00000    4054   -4.65    1.10  1.0000
   3   1  18    4520    1994     0.00000 0.00000 0.00000 0.00000 0.00000 0.00000    5413   -5.78   -3.71  1.0000
   7   1  18   11417    3245     0.00000 0.00000 0.00000 0.00000 0.00000 0.00000   13257   -0.67  -13.72  1.0000
   9   1  18    9586    2495     0.00000 0.00000 0.00000 0.00000 0.00000 0.00000   11474  -10.13    2.60  1.0000
  11   1  18   16738    1658     0.00000 0.00000 0.00000 0.00000 0.00000 0.00000   15844   -7.69    4.17  1.0000
  13   1  18   17660    2318     0.00000 0.00000 0.00000 0.00000 0.00000 0.00000   15879  -10.64  -13.27  1.0000
  15   1  18    8475    2424     0.00000 0.00000 0.00000 0.00000 0.00000 0.00000   13569   23.19  -15.34  1.0000
  17   1  18    5837    2879     0.00000 0.00000 0.00000 0.00000 0.00000 0.00000    5337   10.01    1.33  1.0000
  19   1  18    1982    3592     0.00000 0.00000 0.00000 0.00000 0.00000 0.00000    4470  -21.32    8.28  1.0000
  21   1  18    3758    4127     0.00000 0.00000 0.00000 0.00000 0.00000 0.00000    5711    3.04  -14.62  1.0000
  23   1  18    3310    4558     0.00000 0.00000 0.00000 0.00000 0.00000 0.00000   11082   -1.09   49.05  1.0000
   0   2  18  297482   16825     0.00000 0.00000 0.00000 0.00000 0.00000 0.00000  330854  -67.07   36.96  1.0000
   2   2  18    1296    1655     0.00000 0.00000 0.00000 0.00000 0.00000 0.00000    4895  -34.36   -1.60  1.0000
   4   2  18    7346    1872     0.00000 0.00000 0.00000 0.00000 0.00000 0.00000   10016   37.51  -18.40  1.0000
   6   2  18   24083    2874     0.00000 0.00000 0.00000 0.00000 0.00000 0.00000   45501  -88.08   -1.04  1.0000
   8   2  18   43349    3215     0.00000 0.00000 0.00000 0.00000 0.00000 0.00000   52358  -12.40  -18.45  1.0000
  10   2  18   11336    1478     0.00000 0.00000 0.00000 0.00000 0.00000 0.00000   12585    7.47   -0.91  1.0000
  12   2  18    9820    1935     0.00000 0.00000 0.00000 0.00000 0.00000 0.00000   12963   10.62  -28.37  1.0000
  14   2  18   18486    2531     0.00000 0.00000 0.00000 0.00000 0.00000 0.00000   16147  -21.54  -13.38  1.0000
  16   2  18    9872    2640     0.00000 0.00000 0.00000 0.00000 0.00000 0.00000    7809   -8.18   10.60  1.0000
  18   2  18     698    3031     0.00000 0.00000 0.00000 0.00000 0.00000 0.00000     409   -1.23   26.70  1.0000
  20   2  18   16608    3788     0.00000 0.00000 0.00000 0.00000 0.00000 0.00000   10499  -18.56   19.53  1.0000
  22   2  18    2408    4326     0.00000 0.00000 0.00000 0.00000 0.00000 0.00000    9143   11.87  -45.65  1.0000
   1   3  18    4399    1716     0.00000 0.00000 0.00000 0.00000 0.00000 0.00000    5158   -1.28    5.46  1.0000
   5   3  18   28830    2311     0.00000 0.00000 0.00000 0.00000 0.00000 0.00000   25454  -30.76   31.66  1.0000
   7   3  18   16964    2547     0.00000 0.00000 0.00000 0.00000 0.00000 0.00000   17879   35.95  -10.86  1.0000
   9   3  18    5191    1475     0.00000 0.00000 0.00000 0.00000 0.00000 0.00000    5339  -16.90   29.16  1.0000
  11   3  18   21414    2660     0.00000 0.00000 0.00000 0.00000 0.00000 0.00000   27405   19.20   -3.74  1.0000
  13   3  18   20888    2463     0.00000 0.00000 0.00000 0.00000 0.00000 0.00000   24015    4.33   10.03  1.0000
  15   3  18    6007    2632     0.00000 0.00000 0.00000 0.00000 0.00000 0.00000    7732  -19.53  -13.70  1.0000
  17   3  18    1536    2946     0.00000 0.00000 0.00000 0.00000 0.00000 0.00000   -1176   -9.46  -38.54  1.0000
  19   3  18   15530    3549     0.00000 0.00000 0.00000 0.00000 0.00000 0.00000   11645   23.89   27.42  1.0000
  21   3  18    3728    4454     0.00000 0.00000 0.00000 0.00000 0.00000 0.00000    8918    9.89   32.32  1.0000
  23   3  18    4016    5691     0.00000 0.00000 0.00000 0.00000 0.00000 0.00000   10289  -22.48   31.75  1.0000
   0   4  18   21525    2897     0.00000 0.00000 0.00000 0.00000 0.00000 0.00000   20282   25.01  -10.72  1.0000
   2   4  18    8929    1989     0.00000 0.00000 0.00000 0.00000 0.00000 0.00000    5848   34.43   17.53  1.0000
   4   4  18   14048    2297     0.00000 0.00000 0.00000 0.00000 0.00000 0.00000    8344   27.58    0.16  1.0000
   6   4  18   33175    2797     0.00000 0.00000 0.00000 0.00000 0.00000 0.00000   24688  -46.88   12.48  1.0000
   8   4  18   17342    1941     0.00000 0.00000 0.00000 0.00000 0.00000 0.00000   23662   29.71    3.15  1.0000
  10   4  18   14606    2810     0.00000 0.00000 0.00000 0.00000 0.00000 0.00000   22016   11.75   26.63  1.0000
  12   4  18    3340    2996     0.00000 0.00000 0.00000 0.00000 0.00000 0.00000    3146    5.38   16.33  1.0000
  14   4  18    5419    2421     0.00000 0.00000 0.00000 0.00000 0.00000 0.00000    4240  -20.01    0.45  1.0000
  16   4  18    4186    2948     0.00000 0.00000 0.00000 0.00000 0.00000 0.00000     828   28.48   22.67  1.0000
  18   4  18    3488    3392     0.00000 0.00000 0.00000 0.00000 0.00000 0.00000     638  -14.47  -36.42  1.0000
  20   4  18    1591    6556     0.00000 0.00000 0.00000 0.00000 0.00000 0.00000    1727   -0.62   -7.00  1.0000
  22   4  18   10223    4740     0.00000 0.00000 0.00000 0.00000 0.00000 0.00000   13391   -7.03   13.16  1.0000
   1   5  18      82    1410     0.00000 0.00000 0.00000 0.00000 0.00000 0.00000    -318   -4.82    7.77  1.0000
   3   5  18   22552    2494     0.00000 0.00000 0.00000 0.00000 0.00000 0.00000   21607  -31.65  -30.16  1.0000
   5   5  18     400    1493     0.00000 0.00000 0.00000 0.00000 0.00000 0.00000    1632   24.66   -0.62  1.0000
   7   5  18   40488    2820     0.00000 0.00000 0.00000 0.00000 0.00000 0.00000   45232   24.49  -34.23  1.0000
   9   5  18   16885    2313     0.00000 0.00000 0.00000 0.00000 0.00000 0.00000   13183  -20.90   -5.39  1.0000
  11   5  18   11358    2101     0.00000 0.00000 0.00000 0.00000 0.00000 0.00000   10431    4.94   10.58  1.0000
  13   5  18    1379    2450     0.00000 0.00000 0.00000 0.00000 0.00000 0.00000    3374    5.43   30.23  1.0000
  15   5  18   10161    2779     0.00000 0.00000 0.00000 0.00000 0.00000 0.00000    5964    0.35   24.02  1.0000
  17   5  18    5864    3327     0.00000 0.00000 0.00000 0.00000 0.00000 0.00000    6857  -17.42   -0.35  1.0000
  19   5  18    6955    3844     0.00000 0.00000 0.00000 0.00000 0.00000 0.00000    7191    8.62    8.64  1.0000
  21   5  18    7337    4812     0.00000 0.00000 0.00000 0.00000 0.00000 0.00000    4252   11.26  -17.77  1.0000
  23   5  18    5021    6710     0.00000 0.00000 0.00000 0.00000 0.00000 0.00000    7635   -8.92   15.54  1.0000
   0   6  18  170978    6884     0.00000 0.00000 0.00000 0.00000 0.00000 0.00000  149895  -45.68  -18.97  1.0000
   2   6  18   19374    2355     0.00000 0.00000 0.00000 0.00000 0.00000 0.00000   42016  -85.75   -1.79  1.0000
   4   6  18   34294    1964     0.00000 0.00000 0.00000 0.00000 0.00000 0.00000   25790  -41.75  -13.20  1.0000
   6   6  18    2512    2513     0.00000 0.00000 0.00000 0.00000 0.00000 0.00000    2457   -0.57   -0.06  1.0000
   8   6  18    4039    1805     0.00000 0.00000 0.00000 0.00000 0.00000 0.00000    7067   33.71   25.40  1.0000
  10   6  18    2939    2402     0.00000 0.00000 0.00000 0.00000 0.00000 0.00000    4974   15.01  -19.52  1.0000
  12   6  18     415    2365     0.00000 0.00000 0.00000 0.00000 0.00000 0.00000     278    0.40   -3.73  1.0000
  14   6  18    1511    2695     0.00000 0.00000 0.00000 0.00000 0.00000 0.00000    2172  -35.61  -16.67  1.0000
  16   6  18    2926    3708     0.00000 0.00000 0.00000 0.00000 0.00000 0.00000    2907  -13.70   13.84  1.0000
  18   6  18    5214    3534     0.00000 0.00000 0.00000 0.00000 0.00000 0.00000    5019  -12.98    2.33  1.0000
  20   6  18    4113    4016     0.00000 0.00000 0.00000 0.00000 0.00000 0.00000    9369   29.34  -15.89  1.0000
  22   6  18    2251    5454     0.00000 0.00000 0.00000 0.00000 0.00000 0.00000    2655  -17.85    1.90  1.0000
   1   7  18    8027    2064     0.00000 0.00000 0.00000 0.00000 0.00000 0.00000   10339    0.46   14.85  1.0000
   3   7  18   14519    1858     0.00000 0.00000 0.00000 0.00000 0.00000 0.00000   15550   32.75   11.28  1.0000
   5   7  18   40546    2580     0.00000 0.00000 0.00000 0.00000 0.00000 0.00000   44658   24.13   31.96  1.0000
   7   7  18   37296    2723     0.00000 0.00000 0.00000 0.00000 0.00000 0.00000   57961  -48.34    0.78  1.0000
  11   7  18    3652    2319     0.00000 0.00000 0.00000 0.00000 0.00000 0.00000    2538   22.61  -20.65  1.0000
  13   7  18    6113    2519     0.00000 0.00000 0.00000 0.00000 0.00000 0.00000    7411    8.84    0.46  1.0000
  15   7  18    2103    3364     0.00000 0.00000 0.00000 0.00000 0.00000 0.00000    3587    6.18   31.61  1.0000
  17   7  18   11737    3910     0.00000 0.00000 0.00000 0.00000 0.00000 0.00000   13415  -36.03   -6.52  1.0000
  19   7  18   15521    4532     0.00000 0.00000 0.00000 0.00000 0.00000 0.00000   10805  -42.91   24.65  1.0000
  21   7  18    9658    5604     0.00000 0.00000 0.00000 0.00000 0.00000 0.00000    7540   -5.36   10.27  1.0000
   0   8  18   41731    4369     0.00000 0.00000 0.00000 0.00000 0.00000 0.00000   37656   28.74   12.66  1.0000
   2   8  18   41413    2634     0.00000 0.00000 0.00000 0.00000 0.00000 0.00000   50112  -15.22   17.33  1.0000
   4   8  18   22116    2981     0.00000 0.00000 0.00000 0.00000 0.00000 0.00000   28903   28.05   -4.27  1.0000
   6   8  18    3968    1903     0.00000 0.00000 0.00000 0.00000 0.00000 0.00000    7061   32.20  -25.48  1.0000
   8   8  18    3883    2369     0.00000 0.00000 0.00000 0.00000 0.00000 0.00000    9992  -38.10    1.47  1.0000
  10   8  18     228    2258     0.00000 0.00000 0.00000 0.00000 0.00000 0.00000     980  -18.55  -17.61  1.0000
  12   8  18     377    2596     0.00000 0.00000 0.00000 0.00000 0.00000 0.00000     209   10.21   -9.34  1.0000
  14   8  18    1205    3014     0.00000 0.00000 0.00000 0.00000 0.00000 0.00000     248   41.30    5.58  1.0000
  16   8  18    1758    3113     0.00000 0.00000 0.00000 0.00000 0.00000 0.00000    1910   -5.71   -0.71  1.0000
  18   8  18    8166    5971     0.00000 0.00000 0.00000 0.00000 0.00000 0.00000   11919    8.99  -25.33  1.0000
  20   8  18     336    5995     0.00000 0.00000 0.00000 0.00000 0.00000 0.00000    1637   18.69  -24.81  1.0000
  22   8  18    1399    6092     0.00000 0.00000 0.00000 0.00000 0.00000 0.00000    2465    5.97   10.86  1.0000
   1   9  18    3000    2078     0.00000 0.00000 0.00000 0.00000 0.00000 0.00000    3946  -11.26   -2.84  1.0000
   3   9  18    1409    2028     0.00000 0.00000 0.00000 0.00000 0.00000 0.00000    2279  -16.91  -29.60  1.0000
   5   9  18   17306    2513     0.00000 0.00000 0.00000 0.00000 0.00000 0.00000   13867  -17.72    5.34  1.0000
   7   9  18   15488    2818     0.00000 0.00000 0.00000 0.00000 0.00000 0.00000   12977   11.30   -2.97  1.0000
   9   9  18    4037    2392     0.00000 0.00000 0.00000 0.00000 0.00000 0.00000    4714    5.17    0.41  1.0000
  11   9  18   12567    3482     0.00000 0.00000 0.00000 0.00000 0.00000 0.00000   11619    4.55    2.04  1.0000
  13   9  18    4280    2823     0.00000 0.00000 0.00000 0.00000 0.00000 0.00000    6521   -5.10  -14.81  1.0000
  15   9  18    1788    3627     0.00000 0.00000 0.00000 0.00000 0.00000 0.00000    3175   24.84    2.87  1.0000
  17   9  18    4175    7365     0.00000 0.00000 0.00000 0.00000 0.00000 0.00000    5335   17.85    3.66  1.0000
  19   9  18   40109   20488     0.00000 0.00000 0.00000 0.00000 0.00000 0.00000   49318   35.92   19.05  1.0000
  21   9  18     324    5229     0.00000 0.00000 0.00000 0.00000 0.00000 0.00000   -5107   12.28  -13.48  1.0000
   0  10  18   17626    3396     0.00000 0.00000 0.00000 0.00000 0.00000 0.00000   15105   22.55  -24.04  1.0000
   2  10  18    6310    2344     0.00000 0.00000 0.00000 0.00000 0.00000 0.00000    7184    7.63    0.46  1.0000
   4  10  18   13711    2796     0.00000 0.00000 0.00000 0.00000 0.00000 0.00000   20743   16.10  -25.35  1.0000
   6  10  18    4291    2344     0.00000 0.00000 0.00000 0.00000 0.00000 0.00000    6586   13.04   18.38  1.0000
   8  10  18    1497    2227     0.00000 0.00000 0.00000 0.00000 0.00000 0.00000    3329  -18.72   17.15  1.0000
  10  10  18    8536    3532     0.00000 0.00000 0.00000 0.00000 0.00000 0.00000    7910    3.55   -1.81  1.0000
  12  10  18     622    2884     0.00000 0.00000 0.00000 0.00000 0.00000 0.00000    1485  -13.87   -5.23  1.0000
  14  10  18     184    3171     0.00000 0.00000 0.00000 0.00000 0.00000 0.00000     812  -13.44   14.87  1.0000
  16  10  18    4862    4553     0.00000 0.00000 0.00000 0.00000 0.00000 0.00000    7454   17.48  -10.76  1.0000
  18  10  18    5800    6450     0.00000 0.00000 0.00000 0.00000 0.00000 0.00000    8931   39.97    4.25  1.0000
  20  10  18    1613    6193     0.00000 0.00000 0.00000 0.00000 0.00000 0.00000    4318  -24.01   18.23  1.0000
   1  11  18   19685    2557     0.00000 0.00000 0.00000 0.00000 0.00000 0.00000   18436   -8.63   -5.05  1.0000
   3  11  18   22271    2351     0.00000 0.00000 0.00000 0.00000 0.00000 0.00000   28249   18.74    3.63  1.0000
   5  11  18   11130    2450     0.00000 0.00000 0.00000 0.00000 0.00000 0.00000   10582    4.39  -12.05  1.0000
   7  11  18     773    2553     0.00000 0.00000 0.00000 0.00000 0.00000 0.00000   -1101   20.77   18.99  1.0000
   9  11  18   14453    2920     0.00000 0.00000 0.00000 0.00000 0.00000 0.00000   13577    5.01   -4.08  1.0000
  11  11  18     588    3086     0.00000 0.00000 0.00000 0.00000 0.00000 0.00000   -1583   24.55   -0.10  1.0000
  13  11  18    4968    3051     0.00000 0.00000 0.00000 0.00000 0.00000 0.00000    7281   19.12   -2.11  1.0000
  15  11  18     203    3784     0.00000 0.00000 0.00000 0.00000 0.00000 0.00000   -3230  -14.08    3.10  1.0000
  17  11  18    9244    6058     0.00000 0.00000 0.00000 0.00000 0.00000 0.00000    6163    2.52   21.00  1.0000
  19  11  18    5079    7896     0.00000 0.00000 0.00000 0.00000 0.00000 0.00000   13684   17.61  -42.88  1.0000
   0  12  18    8983    3499     0.00000 0.00000 0.00000 0.00000 0.00000 0.00000    9274   23.62    7.61  1.0000
   2  12  18    9095    2520     0.00000 0.00000 0.00000 0.00000 0.00000 0.00000   12496    9.70   27.63  1.0000
   4  12  18    2847    2581     0.00000 0.00000 0.00000 0.00000 0.00000 0.00000    2493    4.73  -16.48  1.0000
   6  12  18    2874    2544     0.00000 0.00000 0.00000 0.00000 0.00000 0.00000    2536   -1.97    3.71  1.0000
   8  12  18     225    2770     0.00000 0.00000 0.00000 0.00000 0.00000 0.00000    -396   11.66    9.75  1.0000
  10  12  18     218    3170     0.00000 0.00000 0.00000 0.00000 0.00000 0.00000   -1750  -14.06    5.12  1.0000
  12  12  18     770    3422     0.00000 0.00000 0.00000 0.00000 0.00000 0.00000   -1792   28.09    0.47  1.0000
  14  12  18      13    3614     0.00000 0.00000 0.00000 0.00000 0.00000 0.00000    -464    1.61    3.21  1.0000
  16  12  18      44    4832     0.00000 0.00000 0.00000 0.00000 0.00000 0.00000    2513   54.39   14.58  1.0000
  18  12  18    2368   12008     0.00000 0.00000 0.00000 0.00000 0.00000 0.00000    5804  -36.17    9.68  1.0000
  20  12  18    1251    4854     0.00000 0.00000 0.00000 0.00000 0.00000 0.00000   -3011   -9.63   34.49  1.0000
   1  13  18   16122    2655     0.00000 0.00000 0.00000 0.00000 0.00000 0.00000   14145  -11.26   12.79  1.0000
   3  13  18   18285    2557     0.00000 0.00000 0.00000 0.00000 0.00000 0.00000   20826    3.36   -8.85  1.0000
   5  13  18     901    2537     0.00000 0.00000 0.00000 0.00000 0.00000 0.00000    -339    5.22  -29.93  1.0000
   7  13  18    4560    2888     0.00000 0.00000 0.00000 0.00000 0.00000 0.00000    5939    9.85   -0.43  1.0000
   9  13  18    3137    3268     0.00000 0.00000 0.00000 0.00000 0.00000 0.00000    5156   -6.01   15.19  1.0000
  11  13  18    4641    3796     0.00000 0.00000 0.00000 0.00000 0.00000 0.00000    6885   19.42    2.99  1.0000
  13  13  18   21343    3564     0.00000 0.00000 0.00000 0.00000 0.00000 0.00000   11647   38.94   -0.98  1.0000
  15  13  18     154    5539     0.00000 0.00000 0.00000 0.00000 0.00000 0.00000    6737  -78.24    4.67  1.0000
   0  14  18   10248    3877     0.00000 0.00000 0.00000 0.00000 0.00000 0.00000    9862  -16.25    8.56  1.0000
   2  14  18   12713    2861     0.00000 0.00000 0.00000 0.00000 0.00000 0.00000   10646  -22.28   13.12  1.0000
   4  14  18     358    2682     0.00000 0.00000 0.00000 0.00000 0.00000 0.00000    -410  -19.14   -1.02  1.0000
   6  14  18    1514    2910     0.00000 0.00000 0.00000 0.00000 0.00000 0.00000    -381  -35.63   16.81  1.0000
   8  14  18    1821    3113     0.00000 0.00000 0.00000 0.00000 0.00000 0.00000    1921   40.92   -5.30  1.0000
  10  14  18     871    3815     0.00000 0.00000 0.00000 0.00000 0.00000 0.00000    2141  -14.23  -14.51  1.0000
  12  14  18      11    3937     0.00000 0.00000 0.00000 0.00000 0.00000 0.00000   -2674    1.29   -3.05  1.0000
  14  14  18    6514    4183     0.00000 0.00000 0.00000 0.00000 0.00000 0.00000   -3375   81.71    0.23  1.0000
  16  14  18   31976   25015     0.00000 0.00000 0.00000 0.00000 0.00000 0.00000  150246  187.93  -97.97  1.0000
  18  14  18    1746    7575     0.00000 0.00000 0.00000 0.00000 0.00000 0.00000  -11363   36.21  -21.87  1.0000
   1  15  18    4126    3229     0.00000 0.00000 0.00000 0.00000 0.00000 0.00000    7541   25.30   14.77  1.0000
   3  15  18    6151    3279     0.00000 0.00000 0.00000 0.00000 0.00000 0.00000    7915  -19.74   13.72  1.0000
   5  15  18     526    3004     0.00000 0.00000 0.00000 0.00000 0.00000 0.00000    -264    1.35  -23.18  1.0000
   7  15  18    3506    3228     0.00000 0.00000 0.00000 0.00000 0.00000 0.00000    5742    5.21  -30.56  1.0000
   9  15  18     571    3799     0.00000 0.00000 0.00000 0.00000 0.00000 0.00000    -495   24.03   -2.82  1.0000
  11  15  18     191    4424     0.00000 0.00000 0.00000 0.00000 0.00000 0.00000   -1683  -13.57   -3.48  1.0000
   0  16  18   18361    4585     0.00000 0.00000 0.00000 0.00000 0.00000 0.00000   19251    5.20    5.95  1.0000
   2  16  18    4547    3167     0.00000 0.00000 0.00000 0.00000 0.00000 0.00000    2934   -9.38   -9.86  1.0000
   4  16  18    7252    4004     0.00000 0.00000 0.00000 0.00000 0.00000 0.00000    2444   28.79  -21.90  1.0000
   6  16  18     384    3845     0.00000 0.00000 0.00000 0.00000 0.00000 0.00000    -879  -13.85  -14.20  1.0000
   8  16  18    4745    4058     0.00000 0.00000 0.00000 0.00000 0.00000 0.00000    5015   -3.56   -0.76  1.0000
  10  16  18     399    7024     0.00000 0.00000 0.00000 0.00000 0.00000 0.00000   -8934   17.08   10.84  1.0000
  12  16  18    1160    8579     0.00000 0.00000 0.00000 0.00000 0.00000 0.00000    8001   55.00  -13.19  1.0000
   1  17  18     742    3762     0.00000 0.00000 0.00000 0.00000 0.00000 0.00000     544   10.62   -1.64  1.0000
   3  17  18    3725    3481     0.00000 0.00000 0.00000 0.00000 0.00000 0.00000     688   -9.88   38.96  1.0000
   5  17  18    4491    3311     0.00000 0.00000 0.00000 0.00000 0.00000 0.00000    5190  -17.08    0.22  1.0000
   7  17  18    5454    6880     0.00000 0.00000 0.00000 0.00000 0.00000 0.00000    5935  -36.88    6.71  1.0000
   9  17  18     315    7745     0.00000 0.00000 0.00000 0.00000 0.00000 0.00000   -7597   17.73   -2.85  1.0000
  11  17  18     418    8604     0.00000 0.00000 0.00000 0.00000 0.00000 0.00000   -4561    0.98  -20.67  1.0000
   0  18  18   32982    5507     0.00000 0.00000 0.00000 0.00000 0.00000 0.00000   40547   75.38  -25.35  1.0000
   2  18  18     707    4322     0.00000 0.00000 0.00000 0.00000 0.00000 0.00000   -4646   -0.72  -26.91  1.0000
   4  18  18    4441    4272     0.00000 0.00000 0.00000 0.00000 0.00000 0.00000     998  -13.32   36.49  1.0000
   6  18  18    4989    4247     0.00000 0.00000 0.00000 0.00000 0.00000 0.00000    4792  -14.32   -1.88  1.0000
   8  18  18     694    7886     0.00000 0.00000 0.00000 0.00000 0.00000 0.00000   -9734    9.83   24.80  1.0000
  10  18  18    1546    7339     0.00000 0.00000 0.00000 0.00000 0.00000 0.00000  -11009   39.54   -4.62  1.0000
  12  18  18    1386   15394     0.00000 0.00000 0.00000 0.00000 0.00000 0.00000   -3834  -36.18  -10.57  1.0000
  14  18  18    1778    7050     0.00000 0.00000 0.00000 0.00000 0.00000 0.00000   -4476   36.72   21.76  1.0000
   1  19  18     511    4122     0.00000 0.00000 0.00000 0.00000 0.00000 0.00000   -3216  -21.43   -8.05  1.0000
   3  19  18    9941    3674     0.00000 0.00000 0.00000 0.00000 0.00000 0.00000    6394   25.17  -27.57  1.0000
   5  19  18     141    3912     0.00000 0.00000 0.00000 0.00000 0.00000 0.00000      73    9.26   -8.86  1.0000
   7  19  18    5866    5698     0.00000 0.00000 0.00000 0.00000 0.00000 0.00000    1983  -43.37  -24.94  1.0000
   9  19  18    1614    8944     0.00000 0.00000 0.00000 0.00000 0.00000 0.00000  -13416   36.10  -18.73  1.0000
   0  20  18     517   10221     0.00000 0.00000 0.00000 0.00000 0.00000 0.00000   -4641   15.31   17.19  1.0000
   2  20  18    5158    4426     0.00000 0.00000 0.00000 0.00000 0.00000 0.00000    2121  -20.78  -19.46  1.0000
   4  20  18      33    4332     0.00000 0.00000 0.00000 0.00000 0.00000 0.00000   -2766   -0.38    5.79  1.0000
   6  20  18     338    5466     0.00000 0.00000 0.00000 0.00000 0.00000 0.00000     236   29.04   16.02  1.0000
   8  20  18     942    8666     0.00000 0.00000 0.00000 0.00000 0.00000 0.00000   -8739   18.00   25.33  1.0000
  10  20  18    3257   10624     0.00000 0.00000 0.00000 0.00000 0.00000 0.00000    6796  -22.88  -18.62  1.0000
  12  20  18    1247    5658     0.00000 0.00000 0.00000 0.00000 0.00000 0.00000   -6375   -9.13  -34.56  1.0000
   1  21  18    1417    4522     0.00000 0.00000 0.00000 0.00000 0.00000 0.00000    2716    4.30   14.33  1.0000
   3  21  18    1391    4377     0.00000 0.00000 0.00000 0.00000 0.00000 0.00000    4823   10.61  -31.24  1.0000
   5  21  18     445    4634     0.00000 0.00000 0.00000 0.00000 0.00000 0.00000    -553   11.77   17.82  1.0000
   7  21  18     126    5652     0.00000 0.00000 0.00000 0.00000 0.00000 0.00000   -6092   -4.20  -10.54  1.0000
   9  21  18     310    6600     0.00000 0.00000 0.00000 0.00000 0.00000 0.00000   -3198   12.13   13.07  1.0000
   0  22  18   11848    6720     0.00000 0.00000 0.00000 0.00000 0.00000 0.00000    5838   30.62   37.32  1.0000
   2  22  18    1511    4663     0.00000 0.00000 0.00000 0.00000 0.00000 0.00000    7155    8.71   45.52  1.0000
   4  22  18    5537    5573     0.00000 0.00000 0.00000 0.00000 0.00000 0.00000    8006   -6.84  -13.92  1.0000
   6  22  18     368    5483     0.00000 0.00000 0.00000 0.00000 0.00000 0.00000   -7292  -19.13   -3.28  1.0000
   8  22  18     131    6185     0.00000 0.00000 0.00000 0.00000 0.00000 0.00000   -1915    5.11  -10.42  1.0000
   1  23  18    2500    4684     0.00000 0.00000 0.00000 0.00000 0.00000 0.00000    9550   -0.84  -48.83  1.0000
   3  23  18    1420    6346     0.00000 0.00000 0.00000 0.00000 0.00000 0.00000   -4557  -22.53  -30.79  1.0000
   5  23  18     284    5771     0.00000 0.00000 0.00000 0.00000 0.00000 0.00000   -3754   -6.99  -15.57  1.0000
   2   1  19    7118    1670     0.00000 0.00000 0.00000 0.00000 0.00000 0.00000    6074    7.62    1.61  1.0000
   4   1  19   17962    2590     0.00000 0.00000 0.00000 0.00000 0.00000 0.00000   18239   52.07  -41.60  1.0000
   6   1  19   34177    3351     0.00000 0.00000 0.00000 0.00000 0.00000 0.00000   44663  -28.44    4.27  1.0000
   8   1  19  147554    5564     0.00000 0.00000 0.00000 0.00000 0.00000 0.00000  160655   33.66   -2.48  1.0000
  10   1  19  182269    4134     0.00000 0.00000 0.00000 0.00000 0.00000 0.00000  194134   18.09    2.64  1.0000
  12   1  19   16089    2345     0.00000 0.00000 0.00000 0.00000 0.00000 0.00000    9994  -28.65  -15.11  1.0000
  14   1  19    1734    2338     0.00000 0.00000 0.00000 0.00000 0.00000 0.00000    2119    1.00    4.98  1.0000
  16   1  19    6393    3451     0.00000 0.00000 0.00000 0.00000 0.00000 0.00000    9834    5.40   18.73  1.0000
  18   1  19   14080    3052     0.00000 0.00000 0.00000 0.00000 0.00000 0.00000    8734   19.20   17.67  1.0000
  20   1  19    5881    3443     0.00000 0.00000 0.00000 0.00000 0.00000 0.00000    7028    6.87  -23.22  1.0000
  22   1  19    4571    4379     0.00000 0.00000 0.00000 0.00000 0.00000 0.00000    5930    3.62  -11.48  1.0000
   1   2  19    5629    1641     0.00000 0.00000 0.00000 0.00000 0.00000 0.00000    4873   -8.62    3.28  1.0000
   3   2  19   11827    1881     0.00000 0.00000 0.00000 0.00000 0.00000 0.00000   12153  -12.54   13.61  1.0000
   5   2  19    2598    2210     0.00000 0.00000 0.00000 0.00000 0.00000 0.00000    6157   41.35   -8.20  1.0000
   7   2  19   13538    2674     0.00000 0.00000 0.00000 0.00000 0.00000 0.00000   14410   18.66    0.30  1.0000
   9   2  19   35996    2117     0.00000 0.00000 0.00000 0.00000 0.00000 0.00000   35144   16.33  -13.61  1.0000
  11   2  19    2798    2609     0.00000 0.00000 0.00000 0.00000 0.00000 0.00000    5729  -13.89  -18.47  1.0000
  13   2  19    4456    2313     0.00000 0.00000 0.00000 0.00000 0.00000 0.00000    7696   20.63   14.48  1.0000
  15   2  19      39    2529     0.00000 0.00000 0.00000 0.00000 0.00000 0.00000    1395   30.19  -12.21  1.0000
  17   2  19     149    2815     0.00000 0.00000 0.00000 0.00000 0.00000 0.00000     562    1.07  -13.94  1.0000
  19   2  19     349    3024     0.00000 0.00000 0.00000 0.00000 0.00000 0.00000    -567   14.64   11.98  1.0000
  21   2  19    4581    4053     0.00000 0.00000 0.00000 0.00000 0.00000 0.00000    9310   33.23   -1.48  1.0000
  23   2  19    3786    4738     0.00000 0.00000 0.00000 0.00000 0.00000 0.00000   11871  -44.82   19.99  1.0000
   2   3  19    9218    2045     0.00000 0.00000 0.00000 0.00000 0.00000 0.00000   10566   11.41   10.18  1.0000
   4   3  19   23841    2094     0.00000 0.00000 0.00000 0.00000 0.00000 0.00000   19722  -14.88   19.16  1.0000
   6   3  19    6326    2200     0.00000 0.00000 0.00000 0.00000 0.00000 0.00000    8049  -81.69   33.82  1.0000
   8   3  19   71887    3481     0.00000 0.00000 0.00000 0.00000 0.00000 0.00000   87191    6.90  -38.81  1.0000
  10   3  19  194826    4072     0.00000 0.00000 0.00000 0.00000 0.00000 0.00000  186942   -4.26   16.89  1.0000
  12   3  19   41675    3467     0.00000 0.00000 0.00000 0.00000 0.00000 0.00000   55751  -48.19    5.00  1.0000
  14   3  19    5052    2335     0.00000 0.00000 0.00000 0.00000 0.00000 0.00000    6288    7.91   -9.05  1.0000
  16   3  19     139    2764     0.00000 0.00000 0.00000 0.00000 0.00000 0.00000    -798  -11.76   -2.05  1.0000
  18   3  19    5939    3426     0.00000 0.00000 0.00000 0.00000 0.00000 0.00000    7711    8.15    9.73  1.0000
  20   3  19   12384    5362     0.00000 0.00000 0.00000 0.00000 0.00000 0.00000   17250  -20.02    7.98  1.0000
  22   3  19    1601    4830     0.00000 0.00000 0.00000 0.00000 0.00000 0.00000    3060   14.28   -6.17  1.0000
   1   4  19   16586    2105     0.00000 0.00000 0.00000 0.00000 0.00000 0.00000   13921  -51.85  -40.01  1.0000
   3   4  19   20486    2462     0.00000 0.00000 0.00000 0.00000 0.00000 0.00000   16717   17.38   19.67  1.0000
   5   4  19   30355    3666     0.00000 0.00000 0.00000 0.00000 0.00000 0.00000   39552   43.33  -43.69  1.0000
   7   4  19   40294    3117     0.00000 0.00000 0.00000 0.00000 0.00000 0.00000   44541   16.32  -24.31  1.0000
   9   4  19   56222    3383     0.00000 0.00000 0.00000 0.00000 0.00000 0.00000   67764  -44.11    8.38  1.0000
  11   4  19   36687    2634     0.00000 0.00000 0.00000 0.00000 0.00000 0.00000   36990    8.12   -8.13  1.0000
  13   4  19   15305    2580     0.00000 0.00000 0.00000 0.00000 0.00000 0.00000   15341    4.52   -2.18  1.0000
  15   4  19    1987    2683     0.00000 0.00000 0.00000 0.00000 0.00000 0.00000    1903    3.76   -4.42  1.0000
  17   4  19    1677    2907     0.00000 0.00000 0.00000 0.00000 0.00000 0.00000    3764   22.85   -7.79  1.0000
  19   4  19    4967    3654     0.00000 0.00000 0.00000 0.00000 0.00000 0.00000    4792   -3.13    1.83  1.0000
  21   4  19      11    4232     0.00000 0.00000 0.00000 0.00000 0.00000 0.00000   -2076    2.95   -1.43  1.0000
  23   4  19    8514    7056     0.00000 0.00000 0.00000 0.00000 0.00000 0.00000   14662   -4.14   35.69  1.0000
   2   5  19     991    1504     0.00000 0.00000 0.00000 0.00000 0.00000 0.00000    1575  -42.00   -8.52  1.0000
   4   5  19   20862    1967     0.00000 0.00000 0.00000 0.00000 0.00000 0.00000   28550  -43.65  -43.42  1.0000
   6   5  19   34968    2720     0.00000 0.00000 0.00000 0.00000 0.00000 0.00000   28683    7.49   23.64  1.0000
   8   5  19   16722    1789     0.00000 0.00000 0.00000 0.00000 0.00000 0.00000   17579   19.84   -1.19  1.0000
  10   5  19   92709    3371     0.00000 0.00000 0.00000 0.00000 0.00000 0.00000   96704    4.25    5.07  1.0000
  12   5  19     191    2261     0.00000 0.00000 0.00000 0.00000 0.00000 0.00000   -2492  -13.91   -1.58  1.0000
  14   5  19   17692    2753     0.00000 0.00000 0.00000 0.00000 0.00000 0.00000   23926   23.36    2.67  1.0000
  16   5  19    6969    3313     0.00000 0.00000 0.00000 0.00000 0.00000 0.00000    7890   -1.88   27.94  1.0000
  18   5  19    6590    3559     0.00000 0.00000 0.00000 0.00000 0.00000 0.00000    4870    2.29   14.27  1.0000
  20   5  19    3621    3897     0.00000 0.00000 0.00000 0.00000 0.00000 0.00000    9189  -35.52   10.08  1.0000
  22   5  19    1630    4760     0.00000 0.00000 0.00000 0.00000 0.00000 0.00000    7719   36.49  -31.64  1.0000
   1   6  19   29467    2726     0.00000 0.00000 0.00000 0.00000 0.00000 0.00000   39348   28.64    4.21  1.0000
   3   6  19    4458    2256     0.00000 0.00000 0.00000 0.00000 0.00000 0.00000    7832   82.52   34.66  1.0000
   5   6  19   35691    2040     0.00000 0.00000 0.00000 0.00000 0.00000 0.00000   29320   -8.02   24.55  1.0000
   7   6  19   57774    2577     0.00000 0.00000 0.00000 0.00000 0.00000 0.00000   55115   48.59    2.20  1.0000
   9   6  19   47085    2444     0.00000 0.00000 0.00000 0.00000 0.00000 0.00000   44974  -28.43    5.30  1.0000
  11   6  19   31552    2511     0.00000 0.00000 0.00000 0.00000 0.00000 0.00000   38297   18.81   12.63  1.0000
  13   6  19   14257    2431     0.00000 0.00000 0.00000 0.00000 0.00000 0.00000   14859   -3.68    6.60  1.0000
  15   6  19    4402    3186     0.00000 0.00000 0.00000 0.00000 0.00000 0.00000    5171   -4.82   12.56  1.0000
  17   6  19    8038    3658     0.00000 0.00000 0.00000 0.00000 0.00000 0.00000    6154    6.20    9.69  1.0000
  19   6  19    9646    4952     0.00000 0.00000 0.00000 0.00000 0.00000 0.00000    9256    7.97  -16.82  1.0000
  21   6  19     273    4805     0.00000 0.00000 0.00000 0.00000 0.00000 0.00000    2033  -11.52  -28.29  1.0000
   2   7  19   13239    2275     0.00000 0.00000 0.00000 0.00000 0.00000 0.00000   14031  -15.71    1.16  1.0000
   4   7  19   42005    2996     0.00000 0.00000 0.00000 0.00000 0.00000 0.00000   45669  -17.16  -24.09  1.0000
   6   7  19   57780    2624     0.00000 0.00000 0.00000 0.00000 0.00000 0.00000   54453  -51.06    1.01  1.0000
   8   7  19    8028    2421     0.00000 0.00000 0.00000 0.00000 0.00000 0.00000    8575  -28.97    1.09  1.0000
  10   7  19   27582    2458     0.00000 0.00000 0.00000 0.00000 0.00000 0.00000   31802  -17.38   14.47  1.0000
  12   7  19    3837    2721     0.00000 0.00000 0.00000 0.00000 0.00000 0.00000    2555  -10.68    5.61  1.0000
  14   7  19     396    2678     0.00000 0.00000 0.00000 0.00000 0.00000 0.00000   -4017  -14.05  -14.43  1.0000
  16   7  19     919    3571     0.00000 0.00000 0.00000 0.00000 0.00000 0.00000    -357  -23.29  -19.98  1.0000
  18   7  19    6066    4536     0.00000 0.00000 0.00000 0.00000 0.00000 0.00000    7767    9.32  -14.79  1.0000
  20   7  19    5205    4773     0.00000 0.00000 0.00000 0.00000 0.00000 0.00000    8065   -7.64   17.98  1.0000
  22   7  19     162    5633     0.00000 0.00000 0.00000 0.00000 0.00000 0.00000      28   -4.13    6.31  1.0000
   1   8  19  150422    4867     0.00000 0.00000 0.00000 0.00000 0.00000 0.00000  164451  -31.94   -0.09  1.0000
   3   8  19   72398    3173     0.00000 0.00000 0.00000 0.00000 0.00000 0.00000   86762   -6.87  -39.20  1.0000
   5   8  19   18964    2262     0.00000 0.00000 0.00000 0.00000 0.00000 0.00000   19477  -17.51   -2.32  1.0000
   7   8  19    6187    1985     0.00000 0.00000 0.00000 0.00000 0.00000 0.00000    5992   29.00    1.35  1.0000
   9   8  19   27625    2307     0.00000 0.00000 0.00000 0.00000 0.00000 0.00000   24589   -3.77   11.85  1.0000
  11   8  19   23985    2676     0.00000 0.00000 0.00000 0.00000 0.00000 0.00000   20469    9.40    7.60  1.0000
  13   8  19   26106    2971     0.00000 0.00000 0.00000 0.00000 0.00000 0.00000   32446    7.12  -17.46  1.0000
  15   8  19    7631    3202     0.00000 0.00000 0.00000 0.00000 0.00000 0.00000    6523   21.95   17.44  1.0000
  17   8  19   18977    6531     0.00000 0.00000 0.00000 0.00000 0.00000 0.00000   14867  -19.34   10.39  1.0000
  19   8  19    8423    5296     0.00000 0.00000 0.00000 0.00000 0.00000 0.00000   10168   -2.48    8.88  1.0000
  21   8  19    1132    5122     0.00000 0.00000 0.00000 0.00000 0.00000 0.00000    -513  -11.31   32.12  1.0000
   2   9  19   33871    2173     0.00000 0.00000 0.00000 0.00000 0.00000 0.00000   33447  -16.09  -13.19  1.0000
   4   9  19   57064    2833     0.00000 0.00000 0.00000 0.00000 0.00000 0.00000   69981   44.75    6.86  1.0000
   6   9  19   50836    2722     0.00000 0.00000 0.00000 0.00000 0.00000 0.00000   48279   26.48    4.60  1.0000
   8   9  19   27006    2295     0.00000 0.00000 0.00000 0.00000 0.00000 0.00000   23929    4.07   12.83  1.0000
  10   9  19   27138    2594     0.00000 0.00000 0.00000 0.00000 0.00000 0.00000   25732  -12.82  -17.24  1.0000
  12   9  19   26941    2792     0.00000 0.00000 0.00000 0.00000 0.00000 0.00000   27163    1.75    0.78  1.0000
  14   9  19    5453    3194     0.00000 0.00000 0.00000 0.00000 0.00000 0.00000    6341   -5.17    2.79  1.0000
  16   9  19    7564    4377     0.00000 0.00000 0.00000 0.00000 0.00000 0.00000    6392   19.94    3.87  1.0000
  18   9  19    1341    6683     0.00000 0.00000 0.00000 0.00000 0.00000 0.00000   -1966   26.76  -25.67  1.0000
  20   9  19    2414    5932     0.00000 0.00000 0.00000 0.00000 0.00000 0.00000    7425   43.20  -19.13  1.0000
   1  10  19  180508    5154     0.00000 0.00000 0.00000 0.00000 0.00000 0.00000  193470  -16.54    5.00  1.0000
   3  10  19  194952    5005     0.00000 0.00000 0.00000 0.00000 0.00000 0.00000  188157    3.55   14.51  1.0000
   5  10  19   95891    3609     0.00000 0.00000 0.00000 0.00000 0.00000 0.00000  100636   -5.03    5.82  1.0000
   7  10  19   19488    2533     0.00000 0.00000 0.00000 0.00000 0.00000 0.00000   24320   16.71   15.76  1.0000
   9  10  19   28105    2521     0.00000 0.00000 0.00000 0.00000 0.00000 0.00000   24849   16.38  -20.23  1.0000
  11  10  19   25058    2724     0.00000 0.00000 0.00000 0.00000 0.00000 0.00000   27723   16.82   -0.10  1.0000
  13  10  19   15875    3564     0.00000 0.00000 0.00000 0.00000 0.00000 0.00000    9757  -23.54  -18.73  1.0000
  15  10  19    8203    3358     0.00000 0.00000 0.00000 0.00000 0.00000 0.00000   10369  -15.43   -7.16  1.0000
  17  10  19   19918    5120     0.00000 0.00000 0.00000 0.00000 0.00000 0.00000   16617  -19.49    9.38  1.0000
  19  10  19   56877   24276     0.00000 0.00000 0.00000 0.00000 0.00000 0.00000   73949  -35.69    3.68  1.0000
  21  10  19    4367    5843     0.00000 0.00000 0.00000 0.00000 0.00000 0.00000    2504  -11.73   11.27  1.0000
   2  11  19     232    2234     0.00000 0.00000 0.00000 0.00000 0.00000 0.00000    1313   12.86  -17.54  1.0000
   4  11  19   30674    2547     0.00000 0.00000 0.00000 0.00000 0.00000 0.00000   30551   -8.70   -8.20  1.0000
   6  11  19   33428    2770     0.00000 0.00000 0.00000 0.00000 0.00000 0.00000   40203  -18.76   11.91  1.0000
   8  11  19   22423    2816     0.00000 0.00000 0.00000 0.00000 0.00000 0.00000   19126   -9.50    6.68  1.0000
  10  11  19   20326    2856     0.00000 0.00000 0.00000 0.00000 0.00000 0.00000   23020  -17.43    0.60  1.0000
  12  11  19   13986    3321     0.00000 0.00000 0.00000 0.00000 0.00000 0.00000   15355    6.76    5.49  1.0000
  14  11  19   12456    3351     0.00000 0.00000 0.00000 0.00000 0.00000 0.00000    7907   15.04  -17.46  1.0000
  16  11  19   17197    4749     0.00000 0.00000 0.00000 0.00000 0.00000 0.00000   12158  -22.59   15.30  1.0000
  18  11  19    4292    5938     0.00000 0.00000 0.00000 0.00000 0.00000 0.00000    3876   -2.72   -8.16  1.0000
  20  11  19    5124   16343     0.00000 0.00000 0.00000 0.00000 0.00000 0.00000    9262   32.67   20.46  1.0000
   1  12  19   18841    2559     0.00000 0.00000 0.00000 0.00000 0.00000 0.00000   12120   28.93  -14.79  1.0000
   3  12  19   38638    2659     0.00000 0.00000 0.00000 0.00000 0.00000 0.00000   54638   48.36    3.99  1.0000
   5  12  19     480    2628     0.00000 0.00000 0.00000 0.00000 0.00000 0.00000      82   13.69   -0.93  1.0000
   7  12  19     133    2672     0.00000 0.00000 0.00000 0.00000 0.00000 0.00000   -3007   10.07    5.95  1.0000
   9  12  19   25694    2959     0.00000 0.00000 0.00000 0.00000 0.00000 0.00000   25989   -1.39   -0.20  1.0000
  11  12  19   20223    3443     0.00000 0.00000 0.00000 0.00000 0.00000 0.00000   21317   -8.61    6.89  1.0000
  13  12  19   18338    3323     0.00000 0.00000 0.00000 0.00000 0.00000 0.00000   23050  -13.31  -18.50  1.0000
  15  12  19   13161    5112     0.00000 0.00000 0.00000 0.00000 0.00000 0.00000    9604    3.85  -17.35  1.0000
  17  12  19   17957   20359     0.00000 0.00000 0.00000 0.00000 0.00000 0.00000   32979   42.89  -58.75  1.0000
   2  13  19    2570    2471     0.00000 0.00000 0.00000 0.00000 0.00000 0.00000    5084  -20.22   14.78  1.0000
   4  13  19   13231    2708     0.00000 0.00000 0.00000 0.00000 0.00000 0.00000   13048   -5.64   -1.76  1.0000
   6  13  19   12909    2852     0.00000 0.00000 0.00000 0.00000 0.00000 0.00000   13265    3.95    6.81  1.0000
   8  13  19   24511    3164     0.00000 0.00000 0.00000 0.00000 0.00000 0.00000   30926   -6.61  -18.46  1.0000
  10  13  19   19344    3847     0.00000 0.00000 0.00000 0.00000 0.00000 0.00000   13986   23.85  -18.23  1.0000
  12  13  19   18914    5037     0.00000 0.00000 0.00000 0.00000 0.00000 0.00000   23616   14.00  -18.16  1.0000
  14  13  19    1483    3967     0.00000 0.00000 0.00000 0.00000 0.00000 0.00000    3127  -14.46   11.25  1.0000
  16  13  19    1586    5746     0.00000 0.00000 0.00000 0.00000 0.00000 0.00000    6191  -32.27   36.99  1.0000
   1  14  19      26    2794     0.00000 0.00000 0.00000 0.00000 0.00000 0.00000   -3958   -2.36    4.53  1.0000
   3  14  19    5153    2623     0.00000 0.00000 0.00000 0.00000 0.00000 0.00000    6358   -7.06   -8.69  1.0000
   5  14  19   12211    2986     0.00000 0.00000 0.00000 0.00000 0.00000 0.00000   17304  -23.18    1.27  1.0000
   7  14  19     433    3064     0.00000 0.00000 0.00000 0.00000 0.00000 0.00000   -2338   13.88  -15.86  1.0000
   9  14  19    5554    3694     0.00000 0.00000 0.00000 0.00000 0.00000 0.00000    6477    5.62    2.83  1.0000
  11  14  19     588    4068     0.00000 0.00000 0.00000 0.00000 0.00000 0.00000   -4906  -17.96  -16.74  1.0000
  13  14  19    1583    4767     0.00000 0.00000 0.00000 0.00000 0.00000 0.00000    3007   13.20   10.77  1.0000
  15  14  19    4708   13345     0.00000 0.00000 0.00000 0.00000 0.00000 0.00000   33084   63.01  103.52  1.0000
   2  15  19     239    3196     0.00000 0.00000 0.00000 0.00000 0.00000 0.00000    2141  -30.81  -11.02  1.0000
   4  15  19      29    3022     0.00000 0.00000 0.00000 0.00000 0.00000 0.00000   -4533   -3.07   -4.56  1.0000
   6  15  19    1679    3941     0.00000 0.00000 0.00000 0.00000 0.00000 0.00000    2382    4.94   12.93  1.0000
   8  15  19    5956    3972     0.00000 0.00000 0.00000 0.00000 0.00000 0.00000    5814  -22.88   18.39  1.0000
  10  15  19    7222    4267     0.00000 0.00000 0.00000 0.00000 0.00000 0.00000    8272   16.30   -7.77  1.0000
  12  15  19     328    6582     0.00000 0.00000 0.00000 0.00000 0.00000 0.00000   -2047   -2.41  -18.17  1.0000
   1  16  19    4366    3321     0.00000 0.00000 0.00000 0.00000 0.00000 0.00000    7189   -5.12   18.34  1.0000
   3  16  19     136    3712     0.00000 0.00000 0.00000 0.00000 0.00000 0.00000   -3145   11.58   -2.33  1.0000
   5  16  19    2700    3902     0.00000 0.00000 0.00000 0.00000 0.00000 0.00000    3339    1.12   28.31  1.0000
   7  16  19    1769    3565     0.00000 0.00000 0.00000 0.00000 0.00000 0.00000     282   23.49  -20.43  1.0000
   9  16  19    1623    4216     0.00000 0.00000 0.00000 0.00000 0.00000 0.00000     985  -19.02    3.47  1.0000
  11  16  19    2845    6428     0.00000 0.00000 0.00000 0.00000 0.00000 0.00000     716   22.75   16.48  1.0000
  13  16  19    2364   17720     0.00000 0.00000 0.00000 0.00000 0.00000 0.00000  -23630   32.49   36.98  1.0000
  17  16  19    1551    9096     0.00000 0.00000 0.00000 0.00000 0.00000 0.00000    -686  -20.15  -34.40  1.0000
   2  17  19     196    3791     0.00000 0.00000 0.00000 0.00000 0.00000 0.00000   -5687   -1.02  -14.14  1.0000
   4  17  19    3011    3746     0.00000 0.00000 0.00000 0.00000 0.00000 0.00000    5974  -22.21   -8.44  1.0000
   6  17  19    6931    3697     0.00000 0.00000 0.00000 0.00000 0.00000 0.00000    5103   -6.86    9.92  1.0000
   8  17  19   12063    6629     0.00000 0.00000 0.00000 0.00000 0.00000 0.00000    8120   18.52   10.41  1.0000
  10  17  19    5224    7751     0.00000 0.00000 0.00000 0.00000 0.00000 0.00000    3558   18.26    9.16  1.0000
  16  17  19    1591    9285     0.00000 0.00000 0.00000 0.00000 0.00000 0.00000   -7598   20.68  -34.69  1.0000
   1  18  19    2183    3847     0.00000 0.00000 0.00000 0.00000 0.00000 0.00000     439  -18.79   18.15  1.0000
   3  18  19    1898    3549     0.00000 0.00000 0.00000 0.00000 0.00000 0.00000    2627   -8.19   10.51  1.0000
   5  18  19     227    4408     0.00000 0.00000 0.00000 0.00000 0.00000 0.00000    -181   -2.34   15.07  1.0000
   7  18  19     278    7452     0.00000 0.00000 0.00000 0.00000 0.00000 0.00000  -11096   -8.55  -14.54  1.0000
   9  18  19    1418    6863     0.00000 0.00000 0.00000 0.00000 0.00000 0.00000   -7280  -27.22  -26.68  1.0000
  11  18  19     119   11148     0.00000 0.00000 0.00000 0.00000 0.00000 0.00000  -11608    4.47  -10.12  1.0000
   2  19  19     305    4150     0.00000 0.00000 0.00000 0.00000 0.00000 0.00000   -3535  -13.84   10.99  1.0000
   4  19  19      16    3696     0.00000 0.00000 0.00000 0.00000 0.00000 0.00000    -236    3.28    2.34  1.0000
   6  19  19     320   10045     0.00000 0.00000 0.00000 0.00000 0.00000 0.00000  -12128   -7.70  -16.39  1.0000
   8  19  19      88   10412     0.00000 0.00000 0.00000 0.00000 0.00000 0.00000  -15215    3.62    8.76  1.0000
  10  19  19   14339   14983     0.00000 0.00000 0.00000 0.00000 0.00000 0.00000   22058   34.85    4.14  1.0000
   1  20  19     541    4607     0.00000 0.00000 0.00000 0.00000 0.00000 0.00000   -2823   -6.60  -22.61  1.0000
   3  20  19     429    4457     0.00000 0.00000 0.00000 0.00000 0.00000 0.00000   -2439   19.78    6.95  1.0000
   5  20  19    2706    7348     0.00000 0.00000 0.00000 0.00000 0.00000 0.00000    7335   35.35    9.34  1.0000
   7  20  19     375    6164     0.00000 0.00000 0.00000 0.00000 0.00000 0.00000   -5373    8.08   17.85  1.0000
   9  20  19    2211    9603     0.00000 0.00000 0.00000 0.00000 0.00000 0.00000   -6931  -44.00  -18.18  1.0000
   2  21  19     530    4429     0.00000 0.00000 0.00000 0.00000 0.00000 0.00000    2557  -32.56   -2.71  1.0000
   4  21  19    2784    4126     0.00000 0.00000 0.00000 0.00000 0.00000 0.00000    2409   -3.54   -1.26  1.0000
   6  21  19     582    6497     0.00000 0.00000 0.00000 0.00000 0.00000 0.00000    2748   10.66  -28.61  1.0000
   8  21  19    1135    6113     0.00000 0.00000 0.00000 0.00000 0.00000 0.00000   -6947   11.42   32.14  1.0000
  10  21  19     223    5922     0.00000 0.00000 0.00000 0.00000 0.00000 0.00000   -5197   10.51   10.84  1.0000
   1  22  19    1399    4888     0.00000 0.00000 0.00000 0.00000 0.00000 0.00000    2168   -2.89  -10.98  1.0000
   3  22  19    1036    5078     0.00000 0.00000 0.00000 0.00000 0.00000 0.00000    2227  -13.26   -7.66  1.0000
   5  22  19     634    6210     0.00000 0.00000 0.00000 0.00000 0.00000 0.00000    5251  -37.17  -30.85  1.0000
   7  22  19      64    5799     0.00000 0.00000 0.00000 0.00000 0.00000 0.00000   -5111    4.74    6.55  1.0000
   2  23  19     740    4794     0.00000 0.00000 0.00000 0.00000 0.00000 0.00000     459   44.98   19.81  1.0000
   4  23  19    2891   14018     0.00000 0.00000 0.00000 0.00000 0.00000 0.00000    6726    5.06   35.78  1.0000
   0   0  20  297176   18875     0.00000 0.00000 0.00000 0.00000 0.00000 0.00000  374832  -69.44    1.19  1.0000
   2   0  20    2542    2418     0.00000 0.00000 0.00000 0.00000 0.00000 0.00000    3586  -27.10  -36.26  1.0000
   4   0  20   75459    5469     0.00000 0.00000 0.00000 0.00000 0.00000 0.00000   80808   -8.77  -48.22  1.0000
   6   0  20    6067    3434     0.00000 0.00000 0.00000 0.00000 0.00000 0.00000   11998  -35.65  -10.15  1.0000
   8   0  20   17614    3358     0.00000 0.00000 0.00000 0.00000 0.00000 0.00000   22475   18.97   11.01  1.0000
  10   0  20   24229    2301     0.00000 0.00000 0.00000 0.00000 0.00000 0.00000   26761   19.70   -1.84  1.0000
  12   0  20   18909    3163     0.00000 0.00000 0.00000 0.00000 0.00000 0.00000   20964   26.94  -11.25  1.0000
  14   0  20   22095    4419     0.00000 0.00000 0.00000 0.00000 0.00000 0.00000   21017    4.48   16.34  1.0000
  16   0  20   15118    4210     0.00000 0.00000 0.00000 0.00000 0.00000 0.00000   16058    0.06    5.30  1.0000
  18   0  20     428    4223     0.00000 0.00000 0.00000 0.00000 0.00000 0.00000   -1704   20.20   -5.53  1.0000
  20   0  20   19927    6319     0.00000 0.00000 0.00000 0.00000 0.00000 0.00000   18525   -3.67   -7.66  1.0000
  22   0  20     275    6659     0.00000 0.00000 0.00000 0.00000 0.00000 0.00000    -654   -9.09   14.10  1.0000
   1   1  20    1624    1607     0.00000 0.00000 0.00000 0.00000 0.00000 0.00000    5026   33.12    8.68  1.0000
   3   1  20    3294    1938     0.00000 0.00000 0.00000 0.00000 0.00000 0.00000    5040  -20.05    6.84  1.0000
   5   1  20    5279    2382     0.00000 0.00000 0.00000 0.00000 0.00000 0.00000    9813  -25.32   10.80  1.0000
   7   1  20    8670    3332     0.00000 0.00000 0.00000 0.00000 0.00000 0.00000   11171   -7.35   19.18  1.0000
   9   1  20    6755    2798     0.00000 0.00000 0.00000 0.00000 0.00000 0.00000    3092    0.28   32.20  1.0000
  11   1  20   18572    2340     0.00000 0.00000 0.00000 0.00000 0.00000 0.00000   15954   10.21  -23.16  1.0000
  13   1  20   10737    2961     0.00000 0.00000 0.00000 0.00000 0.00000 0.00000   18128  -28.64  -15.46  1.0000
  15   1  20    8928    2876     0.00000 0.00000 0.00000 0.00000 0.00000 0.00000   11660    4.26   16.69  1.0000
  17   1  20    2140    3007     0.00000 0.00000 0.00000 0.00000 0.00000 0.00000    3063    2.44  -16.25  1.0000
  19   1  20    2546    3041     0.00000 0.00000 0.00000 0.00000 0.00000 0.00000    3041    4.45    1.87  1.0000
  21   1  20    3088    4301     0.00000 0.00000 0.00000 0.00000 0.00000 0.00000    7558   20.84   26.30  1.0000
  23   1  20    3743   10129     0.00000 0.00000 0.00000 0.00000 0.00000 0.00000    8273   34.46   50.41  1.0000
   0   2  20    1913    2610     0.00000 0.00000 0.00000 0.00000 0.00000 0.00000    3139  -28.47   38.61  1.0000
   2   2  20   83163    3504     0.00000 0.00000 0.00000 0.00000 0.00000 0.00000   88397    8.82    2.04  1.0000
   4   2  20   12644    2087     0.00000 0.00000 0.00000 0.00000 0.00000 0.00000    8636   23.19    0.31  1.0000
   6   2  20   20081    2477     0.00000 0.00000 0.00000 0.00000 0.00000 0.00000   19346    9.82  -14.13  1.0000
   8   2  20   19062    2765     0.00000 0.00000 0.00000 0.00000 0.00000 0.00000   26437  -27.12   -7.81  1.0000
  10   2  20   10731    1998     0.00000 0.00000 0.00000 0.00000 0.00000 0.00000   12437   -6.52   -5.21  1.0000
  12   2  20    6332    2032     0.00000 0.00000 0.00000 0.00000 0.00000 0.00000    8308   15.28   13.65  1.0000
  14   2  20    6966    2951     0.00000 0.00000 0.00000 0.00000 0.00000 0.00000    5097   -4.39   12.28  1.0000
  16   2  20    9606    2704     0.00000 0.00000 0.00000 0.00000 0.00000 0.00000   11800    5.33  -18.94  1.0000
  18   2  20   13522    3285     0.00000 0.00000 0.00000 0.00000 0.00000 0.00000   14062    4.02   -8.77  1.0000
  20   2  20    8660    4261     0.00000 0.00000 0.00000 0.00000 0.00000 0.00000   12923  -20.71   -3.16  1.0000
  22   2  20    9071    4613     0.00000 0.00000 0.00000 0.00000 0.00000 0.00000   11361  -11.35  -12.68  1.0000
   1   3  20    3904    1942     0.00000 0.00000 0.00000 0.00000 0.00000 0.00000    4766  -20.88   -7.50  1.0000
   3   3  20    6207    2124     0.00000 0.00000 0.00000 0.00000 0.00000 0.00000    8153  -12.98   -3.22  1.0000
   5   3  20    7825    2238     0.00000 0.00000 0.00000 0.00000 0.00000 0.00000    7486   18.33   14.77  1.0000
   7   3  20   10123    2286     0.00000 0.00000 0.00000 0.00000 0.00000 0.00000    9367   30.71    3.01  1.0000
   9   3  20    3562    2094     0.00000 0.00000 0.00000 0.00000 0.00000 0.00000    3014    2.40   19.04  1.0000
  11   3  20   16623    1924     0.00000 0.00000 0.00000 0.00000 0.00000 0.00000   23909  -23.61  -31.87  1.0000
  13   3  20    7908    2380     0.00000 0.00000 0.00000 0.00000 0.00000 0.00000    9650   21.24  -17.59  1.0000
  15   3  20   12778    2709     0.00000 0.00000 0.00000 0.00000 0.00000 0.00000   13785    4.25   16.69  1.0000
  17   3  20   11628    2841     0.00000 0.00000 0.00000 0.00000 0.00000 0.00000   10608    5.43   -2.60  1.0000
  19   3  20     356    3527     0.00000 0.00000 0.00000 0.00000 0.00000 0.00000     125   10.23   22.34  1.0000
  21   3  20    4691    4251     0.00000 0.00000 0.00000 0.00000 0.00000 0.00000    7397  -16.02  -10.72  1.0000
   0   4  20   83281    6124     0.00000 0.00000 0.00000 0.00000 0.00000 0.00000   80037   -9.01   44.95  1.0000
   2   4  20    9288    1453     0.00000 0.00000 0.00000 0.00000 0.00000 0.00000    5548   22.00   -3.04  1.0000
   4   4  20    3691    3150     0.00000 0.00000 0.00000 0.00000 0.00000 0.00000   14185  -61.17   -2.26  1.0000
   6   4  20    1972    2678     0.00000 0.00000 0.00000 0.00000 0.00000 0.00000    4992   18.68  -19.53  1.0000
   8   4  20   20723    3236     0.00000 0.00000 0.00000 0.00000 0.00000 0.00000   26930    7.72  -20.93  1.0000
  10   4  20    4452    2122     0.00000 0.00000 0.00000 0.00000 0.00000 0.00000    5603   -2.91  -15.65  1.0000
  12   4  20    5885    2337     0.00000 0.00000 0.00000 0.00000 0.00000 0.00000    4004    4.55   17.87  1.0000
  14   4  20    6880    2550     0.00000 0.00000 0.00000 0.00000 0.00000 0.00000    8237   -7.90   -0.43  1.0000
  16   4  20     490    3090     0.00000 0.00000 0.00000 0.00000 0.00000 0.00000   -1511  -22.16   -3.31  1.0000
  18   4  20    1257    3403     0.00000 0.00000 0.00000 0.00000 0.00000 0.00000    2725  -25.08   10.78  1.0000
  20   4  20   13440    3978     0.00000 0.00000 0.00000 0.00000 0.00000 0.00000   14108    5.08  -15.97  1.0000
  22   4  20     998    4738     0.00000 0.00000 0.00000 0.00000 0.00000 0.00000    5441   -1.41  -42.72  1.0000
   1   5  20    1884    2674     0.00000 0.00000 0.00000 0.00000 0.00000 0.00000    4764  -26.94  -10.89  1.0000
   3   5  20    4736    1873     0.00000 0.00000 0.00000 0.00000 0.00000 0.00000    4989   18.00  -12.69  1.0000
   5   5  20   14141    2262     0.00000 0.00000 0.00000 0.00000 0.00000 0.00000   17822   14.77   -0.31  1.0000
   7   5  20   14169    1623     0.00000 0.00000 0.00000 0.00000 0.00000 0.00000   16915   21.69   21.60  1.0000
   9   5  20   16077    2477     0.00000 0.00000 0.00000 0.00000 0.00000 0.00000   18758   21.35    2.73  1.0000
  11   5  20    1328    3107     0.00000 0.00000 0.00000 0.00000 0.00000 0.00000    3330  -36.31    7.32  1.0000
  13   5  20   24612    2639     0.00000 0.00000 0.00000 0.00000 0.00000 0.00000   27478  -16.52   -4.84  1.0000
  15   5  20    1924    3028     0.00000 0.00000 0.00000 0.00000 0.00000 0.00000    2171   15.78   17.20  1.0000
  17   5  20    1910    3388     0.00000 0.00000 0.00000 0.00000 0.00000 0.00000    2120   -8.72    5.23  1.0000
  19   5  20    9471    3751     0.00000 0.00000 0.00000 0.00000 0.00000 0.00000   12254   13.60    3.19  1.0000
  21   5  20     595    4439     0.00000 0.00000 0.00000 0.00000 0.00000 0.00000    2280   -5.06  -23.11  1.0000
   0   6  20    2364    3390     0.00000 0.00000 0.00000 0.00000 0.00000 0.00000    6983  -35.93    9.65  1.0000
   2   6  20   16868    2398     0.00000 0.00000 0.00000 0.00000 0.00000 0.00000   16217   10.12   16.06  1.0000
   4   6  20    1712    1854     0.00000 0.00000 0.00000 0.00000 0.00000 0.00000    4066   18.82   18.67  1.0000
   6   6  20   13575    2121     0.00000 0.00000 0.00000 0.00000 0.00000 0.00000   22360   33.54    0.79  1.0000
   8   6  20    3785    2155     0.00000 0.00000 0.00000 0.00000 0.00000 0.00000    5749   -2.61   20.76  1.0000
  10   6  20     155    2619     0.00000 0.00000 0.00000 0.00000 0.00000 0.00000   -2142   12.52    1.29  1.0000
  12   6  20    2078    2548     0.00000 0.00000 0.00000 0.00000 0.00000 0.00000    3096   21.38    8.10  1.0000
  14   6  20     851    2783     0.00000 0.00000 0.00000 0.00000 0.00000 0.00000    1717   22.35   -7.82  1.0000
  16   6  20     753    3512     0.00000 0.00000 0.00000 0.00000 0.00000 0.00000   -2196   27.26    5.30  1.0000
  18   6  20    2983    4029     0.00000 0.00000 0.00000 0.00000 0.00000 0.00000    9958  -39.94   24.99  1.0000
  20   6  20    6859    4731     0.00000 0.00000 0.00000 0.00000 0.00000 0.00000    8548   -2.45   23.08  1.0000
  22   6  20    3705    5288     0.00000 0.00000 0.00000 0.00000 0.00000 0.00000    2281   15.31    7.92  1.0000
   1   7  20    4176    2163     0.00000 0.00000 0.00000 0.00000 0.00000 0.00000    3742   -6.65  -20.11  1.0000
   3   7  20    5704    1792     0.00000 0.00000 0.00000 0.00000 0.00000 0.00000    4802   33.25   -3.18  1.0000
   5   7  20   15727    2415     0.00000 0.00000 0.00000 0.00000 0.00000 0.00000   17076   23.14  -22.74  1.0000
   7   7  20    7165    1855     0.00000 0.00000 0.00000 0.00000 0.00000 0.00000    7173    0.86   -2.94  1.0000
   9   7  20    8295    2549     0.00000 0.00000 0.00000 0.00000 0.00000 0.00000    9598  -19.33    4.61  1.0000
  11   7  20    2642    2427     0.00000 0.00000 0.00000 0.00000 0.00000 0.00000    8197  -25.84   31.03  1.0000
  13   7  20    6938    2534     0.00000 0.00000 0.00000 0.00000 0.00000 0.00000    5894    0.50   12.99  1.0000
  15   7  20     540    3472     0.00000 0.00000 0.00000 0.00000 0.00000 0.00000   -2555   21.87   -8.64  1.0000
  17   7  20    6138    3691     0.00000 0.00000 0.00000 0.00000 0.00000 0.00000   11074  -20.73  -30.60  1.0000
  19   7  20   32912   14279     0.00000 0.00000 0.00000 0.00000 0.00000 0.00000   41399  -16.51  -15.51  1.0000
  21   7  20    3454    5506     0.00000 0.00000 0.00000 0.00000 0.00000 0.00000    7672  -29.34   -8.48  1.0000
   0   8  20   22503    4989     0.00000 0.00000 0.00000 0.00000 0.00000 0.00000   27266   18.77  -10.70  1.0000
   2   8  20   16239    2006     0.00000 0.00000 0.00000 0.00000 0.00000 0.00000   21080  -27.53   10.80  1.0000
   4   8  20   20382    2127     0.00000 0.00000 0.00000 0.00000 0.00000 0.00000   26746    7.23   21.15  1.0000
   6   8  20    2872    2229     0.00000 0.00000 0.00000 0.00000 0.00000 0.00000    4956   -2.59  -20.37  1.0000
   8   8  20    1770    2425     0.00000 0.00000 0.00000 0.00000 0.00000 0.00000    1879    1.51   -0.54  1.0000
  10   8  20      84    2330     0.00000 0.00000 0.00000 0.00000 0.00000 0.00000    1764   34.71  -29.47  1.0000
  12   8  20     906    2651     0.00000 0.00000 0.00000 0.00000 0.00000 0.00000      95   19.62   -6.54  1.0000
  14   8  20      23    3446     0.00000 0.00000 0.00000 0.00000 0.00000 0.00000    -830    0.14   -4.84  1.0000
  16   8  20    1459    3536     0.00000 0.00000 0.00000 0.00000 0.00000 0.00000    4442    9.92   27.04  1.0000
  18   8  20    4869    6374     0.00000 0.00000 0.00000 0.00000 0.00000 0.00000    8510   23.17   -3.71  1.0000
  20   8  20      48    5860     0.00000 0.00000 0.00000 0.00000 0.00000 0.00000    1082   32.87  -10.55  1.0000
   1   9  20     369    2062     0.00000 0.00000 0.00000 0.00000 0.00000 0.00000     198   -0.13  -32.08  1.0000
   3   9  20    3355    1934     0.00000 0.00000 0.00000 0.00000 0.00000 0.00000    4395    2.72  -18.88  1.0000
   5   9  20   12120    2382     0.00000 0.00000 0.00000 0.00000 0.00000 0.00000   14436   20.67   -1.23  1.0000
   7   9  20    9546    2192     0.00000 0.00000 0.00000 0.00000 0.00000 0.00000   10953  -19.00   -4.97  1.0000
   9   9  20    8575    2329     0.00000 0.00000 0.00000 0.00000 0.00000 0.00000    9651    6.09   -0.92  1.0000
  11   9  20    6601    2645     0.00000 0.00000 0.00000 0.00000 0.00000 0.00000   10156   -9.56  -17.62  1.0000
  13   9  20   18278    3001     0.00000 0.00000 0.00000 0.00000 0.00000 0.00000   19467   14.52    7.13  1.0000
  15   9  20    3408    3870     0.00000 0.00000 0.00000 0.00000 0.00000 0.00000    1530   18.40   14.38  1.0000
  17   9  20   19112    4533     0.00000 0.00000 0.00000 0.00000 0.00000 0.00000   20707    1.65   29.45  1.0000
  19   9  20    1131    5924     0.00000 0.00000 0.00000 0.00000 0.00000 0.00000   -3293  -26.95   20.80  1.0000
  21   9  20    3107    5223     0.00000 0.00000 0.00000 0.00000 0.00000 0.00000    1223  -20.05   -6.87  1.0000
   0  10  20   14032    3161     0.00000 0.00000 0.00000 0.00000 0.00000 0.00000   16240   16.52   -0.93  1.0000
   2  10  20    9163    2276     0.00000 0.00000 0.00000 0.00000 0.00000 0.00000   11043   -8.43    5.10  1.0000
   4  10  20    6567    2220     0.00000 0.00000 0.00000 0.00000 0.00000 0.00000    8284   -1.41   15.06  1.0000
   6  10  20    1314    2358     0.00000 0.00000 0.00000 0.00000 0.00000 0.00000    1711   13.55   -1.57  1.0000
   8  10  20      73    2368     0.00000 0.00000 0.00000 0.00000 0.00000 0.00000    2696   33.72   30.15  1.0000
  10  10  20      43    2705     0.00000 0.00000 0.00000 0.00000 0.00000 0.00000     821   22.49    1.11  1.0000
  12  10  20    3178    3366     0.00000 0.00000 0.00000 0.00000 0.00000 0.00000    6630   -2.94  -37.06  1.0000
  14  10  20    1277    3383     0.00000 0.00000 0.00000 0.00000 0.00000 0.00000    4705   31.08  -19.52  1.0000
  16  10  20    5353    4223     0.00000 0.00000 0.00000 0.00000 0.00000 0.00000    7519  -18.72    0.03  1.0000
  18  10  20    3107    5755     0.00000 0.00000 0.00000 0.00000 0.00000 0.00000    5104    9.94   12.95  1.0000
  20  10  20    1087    9013     0.00000 0.00000 0.00000 0.00000 0.00000 0.00000    2045   19.15    6.02  1.0000
   1  11  20   14877    2430     0.00000 0.00000 0.00000 0.00000 0.00000 0.00000   15453   10.76   24.17  1.0000
   3  11  20   15710    2537     0.00000 0.00000 0.00000 0.00000 0.00000 0.00000   23501  -23.01   33.26  1.0000
   5  11  20    1392    2443     0.00000 0.00000 0.00000 0.00000 0.00000 0.00000   -2622  -37.14   -6.91  1.0000
   7  11  20    2818    2759     0.00000 0.00000 0.00000 0.00000 0.00000 0.00000    8566  -25.54  -31.16  1.0000
   9  11  20    5569    2743     0.00000 0.00000 0.00000 0.00000 0.00000 0.00000    8742   -9.86   17.06  1.0000
  11  11  20      25    2997     0.00000 0.00000 0.00000 0.00000 0.00000 0.00000     481  -17.16    1.12  1.0000
  13  11  20    4341    3133     0.00000 0.00000 0.00000 0.00000 0.00000 0.00000    7220   20.41   -6.46  1.0000
  15  11  20    1378    3626     0.00000 0.00000 0.00000 0.00000 0.00000 0.00000    1169  -10.64   14.67  1.0000
  17  11  20    7199    6054     0.00000 0.00000 0.00000 0.00000 0.00000 0.00000    6168   21.51   13.99  1.0000
  19  11  20    4840    7301     0.00000 0.00000 0.00000 0.00000 0.00000 0.00000    5388   -8.12    0.45  1.0000
   0  12  20   13190    3383     0.00000 0.00000 0.00000 0.00000 0.00000 0.00000   15083   26.98   10.87  1.0000
   2  12  20    5609    2352     0.00000 0.00000 0.00000 0.00000 0.00000 0.00000    6133   15.35  -14.31  1.0000
   4  12  20     396    2388     0.00000 0.00000 0.00000 0.00000 0.00000 0.00000   -1341    3.84  -19.79  1.0000
   6  12  20    3498    2712     0.00000 0.00000 0.00000 0.00000 0.00000 0.00000    5105   21.34   -8.36  1.0000
   8  12  20    1880    2932     0.00000 0.00000 0.00000 0.00000 0.00000 0.00000     550   19.86    6.56  1.0000
  10  12  20     663    3683     0.00000 0.00000 0.00000 0.00000 0.00000 0.00000    1669   -3.31   36.80  1.0000
  12  12  20     335    3640     0.00000 0.00000 0.00000 0.00000 0.00000 0.00000   -3974  -18.54   -0.32  1.0000
  14  12  20     156    3611     0.00000 0.00000 0.00000 0.00000 0.00000 0.00000    3400   27.61   65.04  1.0000
  16  12  20    4450    5075     0.00000 0.00000 0.00000 0.00000 0.00000 0.00000    2219  -22.45  -71.96  1.0000
  18  12  20   10791    7796     0.00000 0.00000 0.00000 0.00000 0.00000 0.00000   13677  -14.07   -6.21  1.0000
   1  13  20    5951    2596     0.00000 0.00000 0.00000 0.00000 0.00000 0.00000    9538  -28.54   18.29  1.0000
   3  13  20   10618    2634     0.00000 0.00000 0.00000 0.00000 0.00000 0.00000   12469   20.59   17.61  1.0000
   5  13  20   25068    2996     0.00000 0.00000 0.00000 0.00000 0.00000 0.00000   27494  -16.74    4.92  1.0000
   7  13  20    1819    2965     0.00000 0.00000 0.00000 0.00000 0.00000 0.00000    1101   -0.39  -12.13  1.0000
   9  13  20   13629    3204     0.00000 0.00000 0.00000 0.00000 0.00000 0.00000   14487   12.06   -6.03  1.0000
  11  13  20    5275    3786     0.00000 0.00000 0.00000 0.00000 0.00000 0.00000    8223   20.49    6.88  1.0000
  13  13  20    2051    3639     0.00000 0.00000 0.00000 0.00000 0.00000 0.00000   -2097   45.85   -0.18  1.0000
  15  13  20   11391    5289     0.00000 0.00000 0.00000 0.00000 0.00000 0.00000    3106   -8.42  -54.22  1.0000
  19  13  20     199    7369     0.00000 0.00000 0.00000 0.00000 0.00000 0.00000    -416   -2.51  -14.04  1.0000
   0  14  20   15107    4102     0.00000 0.00000 0.00000 0.00000 0.00000 0.00000   15798    4.77  -17.54  1.0000
   2  14  20     162    2795     0.00000 0.00000 0.00000 0.00000 0.00000 0.00000    -593   -3.52  -12.39  1.0000
   4  14  20    5038    2729     0.00000 0.00000 0.00000 0.00000 0.00000 0.00000    6205   -8.30   -0.35  1.0000
   6  14  20     543    3092     0.00000 0.00000 0.00000 0.00000 0.00000 0.00000   -2227   22.38    7.47  1.0000
   8  14  20      15    3401     0.00000 0.00000 0.00000 0.00000 0.00000 0.00000    -757   -0.20    3.97  1.0000
  10  14  20     346    3959     0.00000 0.00000 0.00000 0.00000 0.00000 0.00000    2811   31.53   18.64  1.0000
  12  14  20    4953    4085     0.00000 0.00000 0.00000 0.00000 0.00000 0.00000   -1784   27.53  -65.72  1.0000
  14  14  20    1225    6771     0.00000 0.00000 0.00000 0.00000 0.00000 0.00000   11455   72.93    0.19  1.0000
  18  14  20     301    4892     0.00000 0.00000 0.00000 0.00000 0.00000 0.00000    5230    2.55   74.52  1.0000
   1  15  20    5745    3097     0.00000 0.00000 0.00000 0.00000 0.00000 0.00000    7263    4.03  -17.30  1.0000
   3  15  20    4810    3061     0.00000 0.00000 0.00000 0.00000 0.00000 0.00000    4774    5.38  -16.49  1.0000
   5  15  20     514    3063     0.00000 0.00000 0.00000 0.00000 0.00000 0.00000   -4313   15.73  -16.72  1.0000
   7  15  20    1826    3800     0.00000 0.00000 0.00000 0.00000 0.00000 0.00000    2985   21.72    8.05  1.0000
   9  15  20     543    4038     0.00000 0.00000 0.00000 0.00000 0.00000 0.00000   -3576   18.55  -14.58  1.0000
  11  15  20     290    5108     0.00000 0.00000 0.00000 0.00000 0.00000 0.00000   -3204   -9.45  -14.42  1.0000
  13  15  20    2846    7291     0.00000 0.00000 0.00000 0.00000 0.00000 0.00000   -1893   -8.76   53.29  1.0000
   0  16  20   14507    4958     0.00000 0.00000 0.00000 0.00000 0.00000 0.00000   15172    0.59   -4.44  1.0000
   2  16  20    1790    3884     0.00000 0.00000 0.00000 0.00000 0.00000 0.00000    3370    5.93   19.29  1.0000
   4  16  20    1298    4654     0.00000 0.00000 0.00000 0.00000 0.00000 0.00000     280  -22.51    2.61  1.0000
   6  16  20     813    4038     0.00000 0.00000 0.00000 0.00000 0.00000 0.00000   -2997   28.36   -5.38  1.0000
   8  16  20     804    3971     0.00000 0.00000 0.00000 0.00000 0.00000 0.00000   -1815   10.19  -26.83  1.0000
  10  16  20    3539    5229     0.00000 0.00000 0.00000 0.00000 0.00000 0.00000    5205  -17.39    0.81  1.0000
  12  16  20    5561    6994     0.00000 0.00000 0.00000 0.00000 0.00000 0.00000   -5264  -23.23   71.84  1.0000
   1  17  20     225    3685     0.00000 0.00000 0.00000 0.00000 0.00000 0.00000   -2303    1.09   15.15  1.0000
   3  17  20    9664    3527     0.00000 0.00000 0.00000 0.00000 0.00000 0.00000    8428    6.50    3.32  1.0000
   5  17  20      93    3806     0.00000 0.00000 0.00000 0.00000 0.00000 0.00000   -1670   -8.01   -5.57  1.0000
   7  17  20    4464    4271     0.00000 0.00000 0.00000 0.00000 0.00000 0.00000    7956  -20.90   31.02  1.0000
   9  17  20    3207    7289     0.00000 0.00000 0.00000 0.00000 0.00000 0.00000    2696    1.20  -29.61  1.0000
  11  17  20     612    7553     0.00000 0.00000 0.00000 0.00000 0.00000 0.00000  -11329   21.07  -13.53  1.0000
  13  17  20    7282   19937     0.00000 0.00000 0.00000 0.00000 0.00000 0.00000   18917   33.25   41.51  1.0000
   0  18  20     424    5422     0.00000 0.00000 0.00000 0.00000 0.00000 0.00000   -1402   20.20    5.14  1.0000
   2  18  20    7748    4169     0.00000 0.00000 0.00000 0.00000 0.00000 0.00000    6960    3.56   10.09  1.0000
   4  18  20    1350    3802     0.00000 0.00000 0.00000 0.00000 0.00000 0.00000    3105  -26.70  -10.44  1.0000
   6  18  20      91    7058     0.00000 0.00000 0.00000 0.00000 0.00000 0.00000    3058  -39.96  -24.94  1.0000
   8  18  20     526    9607     0.00000 0.00000 0.00000 0.00000 0.00000 0.00000   -6323   22.98    3.27  1.0000
  10  18  20     260    8129     0.00000 0.00000 0.00000 0.00000 0.00000 0.00000  -12193    9.54  -13.24  1.0000
  12  18  20     261    8150     0.00000 0.00000 0.00000 0.00000 0.00000 0.00000   -7598  -15.29    5.85  1.0000
  14  18  20    5483    5355     0.00000 0.00000 0.00000 0.00000 0.00000 0.00000   -5443    3.13  -74.90  1.0000
   1  19  20      17    4116     0.00000 0.00000 0.00000 0.00000 0.00000 0.00000   -5903    3.74   -1.80  1.0000
   3  19  20     580    3957     0.00000 0.00000 0.00000 0.00000 0.00000 0.00000   -1164   10.11  -22.19  1.0000
   5  19  20    6535    4032     0.00000 0.00000 0.00000 0.00000 0.00000 0.00000    8898   13.52   -2.39  1.0000
   7  19  20     485   20647     0.00000 0.00000 0.00000 0.00000 0.00000 0.00000   -5242  -16.16   15.37  1.0000
   9  19  20    1102    8775     0.00000 0.00000 0.00000 0.00000 0.00000 0.00000  -11854  -26.58  -20.57  1.0000
  11  19  20    2415   11231     0.00000 0.00000 0.00000 0.00000 0.00000 0.00000    3051   -7.09    0.43  1.0000
  13  19  20     203    6631     0.00000 0.00000 0.00000 0.00000 0.00000 0.00000   -2369   -2.05   14.30  1.0000
   0  20  20   23715    6576     0.00000 0.00000 0.00000 0.00000 0.00000 0.00000   23518   -3.88    5.99  1.0000
   2  20  20     288    4468     0.00000 0.00000 0.00000 0.00000 0.00000 0.00000    1266  -21.72    4.26  1.0000
   4  20  20    5294    4911     0.00000 0.00000 0.00000 0.00000 0.00000 0.00000    7037    5.62   14.63  1.0000
   6  20  20     905    6643     0.00000 0.00000 0.00000 0.00000 0.00000 0.00000    2081   -2.09  -24.35  1.0000
   8  20  20    1137    7095     0.00000 0.00000 0.00000 0.00000 0.00000 0.00000   -3795   32.66    9.95  1.0000
  10  20  20     418   12695     0.00000 0.00000 0.00000 0.00000 0.00000 0.00000   -7626   19.77   -6.11  1.0000
   1  21  20    1117    4546     0.00000 0.00000 0.00000 0.00000 0.00000 0.00000   -4480   20.78  -26.71  1.0000
   3  21  20     363    5516     0.00000 0.00000 0.00000 0.00000 0.00000 0.00000   -1910  -15.82   11.03  1.0000
   5  21  20     121    4390     0.00000 0.00000 0.00000 0.00000 0.00000 0.00000     190   -6.21   23.68  1.0000
   7  21  20    4668    6575     0.00000 0.00000 0.00000 0.00000 0.00000 0.00000    7112  -29.26    9.15  1.0000
   9  21  20     464    7033     0.00000 0.00000 0.00000 0.00000 0.00000 0.00000  -10549  -20.44    7.63  1.0000
   0  22  20    8829    6650     0.00000 0.00000 0.00000 0.00000 0.00000 0.00000    6594   -9.13  -14.36  1.0000
   2  22  20     269    5245     0.00000 0.00000 0.00000 0.00000 0.00000 0.00000   -3938  -11.18   12.28  1.0000
   4  22  20    2050    5772     0.00000 0.00000 0.00000 0.00000 0.00000 0.00000    7486   -0.01   41.77  1.0000
   6  22  20     282    5489     0.00000 0.00000 0.00000 0.00000 0.00000 0.00000   -8233   15.46   -7.05  1.0000
   1  23  20    1644    6927     0.00000 0.00000 0.00000 0.00000 0.00000 0.00000    1374   35.02  -50.93  1.0000
   2   1  21    2807    1938     0.00000 0.00000 0.00000 0.00000 0.00000 0.00000   10352  -50.12    5.77  1.0000
   4   1  21    4988    2228     0.00000 0.00000 0.00000 0.00000 0.00000 0.00000    5345   14.14   -9.26  1.0000
   6   1  21    4064    2545     0.00000 0.00000 0.00000 0.00000 0.00000 0.00000   12302  -19.45   55.60  1.0000
   8   1  21   51118    3335     0.00000 0.00000 0.00000 0.00000 0.00000 0.00000   48691  -16.36  -16.23  1.0000
  10   1  21  182491    5573     0.00000 0.00000 0.00000 0.00000 0.00000 0.00000  200157   19.32   -8.31  1.0000
  12   1  21   16556    2041     0.00000 0.00000 0.00000 0.00000 0.00000 0.00000   21996   22.59    3.38  1.0000
  14   1  21   12718    3117     0.00000 0.00000 0.00000 0.00000 0.00000 0.00000   20256   22.92  -20.30  1.0000
  16   1  21   10211    2730     0.00000 0.00000 0.00000 0.00000 0.00000 0.00000    8200    3.72  -10.22  1.0000
  18   1  21    3018    3086     0.00000 0.00000 0.00000 0.00000 0.00000 0.00000    6076   22.66   -9.23  1.0000
  20   1  21   16991    3585     0.00000 0.00000 0.00000 0.00000 0.00000 0.00000   12704   21.11   16.78  1.0000
  22   1  21    5093    4646     0.00000 0.00000 0.00000 0.00000 0.00000 0.00000    9056   29.27   -6.44  1.0000
   1   2  21    3886    2029     0.00000 0.00000 0.00000 0.00000 0.00000 0.00000   11419   50.33    6.30  1.0000
   3   2  21   14855    2047     0.00000 0.00000 0.00000 0.00000 0.00000 0.00000    7429   22.76   46.19  1.0000
   5   2  21    5910    2411     0.00000 0.00000 0.00000 0.00000 0.00000 0.00000   13979   10.10  -51.50  1.0000
   7   2  21   13053    2398     0.00000 0.00000 0.00000 0.00000 0.00000 0.00000   15455    4.83   -9.42  1.0000
   9   2  21   20363    2791     0.00000 0.00000 0.00000 0.00000 0.00000 0.00000   22914    9.77   -0.79  1.0000
  11   2  21   10320    1920     0.00000 0.00000 0.00000 0.00000 0.00000 0.00000   12006   14.49   26.64  1.0000
  13   2  21    1128    2364     0.00000 0.00000 0.00000 0.00000 0.00000 0.00000     958   -3.67   -3.83  1.0000
  15   2  21    1788    2789     0.00000 0.00000 0.00000 0.00000 0.00000 0.00000    3703  -23.42  -32.28  1.0000
  17   2  21    7490    2981     0.00000 0.00000 0.00000 0.00000 0.00000 0.00000    7965   -1.57    2.30  1.0000
  19   2  21      14    3286     0.00000 0.00000 0.00000 0.00000 0.00000 0.00000   -1790    1.09    3.62  1.0000
  21   2  21    5590    4849     0.00000 0.00000 0.00000 0.00000 0.00000 0.00000   11492  -32.40   -5.53  1.0000
   2   3  21   15352    2488     0.00000 0.00000 0.00000 0.00000 0.00000 0.00000    7422  -19.51   46.31  1.0000
   4   3  21   24143    2935     0.00000 0.00000 0.00000 0.00000 0.00000 0.00000   30334    3.02  -19.83  1.0000
   6   3  21    5662    2154     0.00000 0.00000 0.00000 0.00000 0.00000 0.00000    7627  -12.22    2.49  1.0000
   8   3  21   17986    2466     0.00000 0.00000 0.00000 0.00000 0.00000 0.00000   20595  -12.09  -27.40  1.0000
  10   3  21  105432    4550     0.00000 0.00000 0.00000 0.00000 0.00000 0.00000  128711  -25.02   23.87  1.0000
  12   3  21   15921    2612     0.00000 0.00000 0.00000 0.00000 0.00000 0.00000   17895    3.18   16.15  1.0000
  14   3  21   13037    2455     0.00000 0.00000 0.00000 0.00000 0.00000 0.00000   13029    4.55    2.10  1.0000
  16   3  21    4962    2819     0.00000 0.00000 0.00000 0.00000 0.00000 0.00000    2958    0.83   16.35  1.0000
  18   3  21    2278    3066     0.00000 0.00000 0.00000 0.00000 0.00000 0.00000    4937   24.52    2.56  1.0000
  20   3  21     693    4150     0.00000 0.00000 0.00000 0.00000 0.00000 0.00000    2285   16.02   16.25  1.0000
  22   3  21    3436    4903     0.00000 0.00000 0.00000 0.00000 0.00000 0.00000    5691  -13.68  -13.48  1.0000
   1   4  21    4025    2477     0.00000 0.00000 0.00000 0.00000 0.00000 0.00000    4048  -14.70   -8.88  1.0000
   3   4  21   25038    3194     0.00000 0.00000 0.00000 0.00000 0.00000 0.00000   31256   -2.37  -19.51  1.0000
   5   4  21    8127    2634     0.00000 0.00000 0.00000 0.00000 0.00000 0.00000    8536    3.87    3.29  1.0000
   7   4  21   35031    2229     0.00000 0.00000 0.00000 0.00000 0.00000 0.00000   34314   -9.54  -22.54  1.0000
   9   4  21   27126    2183     0.00000 0.00000 0.00000 0.00000 0.00000 0.00000   30073  -15.92  -39.19  1.0000
  11   4  21   10025    1966     0.00000 0.00000 0.00000 0.00000 0.00000 0.00000   10301   -9.15  -36.84  1.0000
  13   4  21    2221    2373     0.00000 0.00000 0.00000 0.00000 0.00000 0.00000     169   29.39  -18.36  1.0000
  15   4  21    4749    2761     0.00000 0.00000 0.00000 0.00000 0.00000 0.00000    4459    3.36    0.01  1.0000
  17   4  21   13438    3261     0.00000 0.00000 0.00000 0.00000 0.00000 0.00000   12495   -5.47    1.36  1.0000
  19   4  21      58    3608     0.00000 0.00000 0.00000 0.00000 0.00000 0.00000    -646    0.17    7.71  1.0000
  21   4  21     732    4403     0.00000 0.00000 0.00000 0.00000 0.00000 0.00000   -2435  -22.67   15.38  1.0000
   2   5  21    4503    2086     0.00000 0.00000 0.00000 0.00000 0.00000 0.00000   11036  -11.70  -49.42  1.0000
   4   5  21    7368    3104     0.00000 0.00000 0.00000 0.00000 0.00000 0.00000    7764   -1.83    2.78  1.0000
   6   5  21    2791    1427     0.00000 0.00000 0.00000 0.00000 0.00000 0.00000    6604  -18.44   22.38  1.0000
   8   5  21   10787    1971     0.00000 0.00000 0.00000 0.00000 0.00000 0.00000   11768   -1.82  -13.86  1.0000
  10   5  21   35104    2323     0.00000 0.00000 0.00000 0.00000 0.00000 0.00000   40113   14.71   -3.66  1.0000
  12   5  21   52341    2992     0.00000 0.00000 0.00000 0.00000 0.00000 0.00000   59301   12.03   -8.92  1.0000
  14   5  21    3006    2673     0.00000 0.00000 0.00000 0.00000 0.00000 0.00000    3145  -21.43    8.73  1.0000
  16   5  21    2736    3011     0.00000 0.00000 0.00000 0.00000 0.00000 0.00000    2597   -3.49   12.33  1.0000
  18   5  21    5092    3879     0.00000 0.00000 0.00000 0.00000 0.00000 0.00000    4433   -4.09   -3.78  1.0000
  20   5  21   12102    4298     0.00000 0.00000 0.00000 0.00000 0.00000 0.00000    9607   39.70   -5.13  1.0000
  22   5  21    7903    5570     0.00000 0.00000 0.00000 0.00000 0.00000 0.00000    4803  -14.29  -13.81  1.0000
   1   6  21    1612    2843     0.00000 0.00000 0.00000 0.00000 0.00000 0.00000    6427   19.71   54.15  1.0000
   3   6  21    3506    2009     0.00000 0.00000 0.00000 0.00000 0.00000 0.00000    5049   11.76    4.72  1.0000
   5   6  21    3695    2232     0.00000 0.00000 0.00000 0.00000 0.00000 0.00000    7961   19.14   21.93  1.0000
   7   6  21   19244    2042     0.00000 0.00000 0.00000 0.00000 0.00000 0.00000   14923   -4.46   23.89  1.0000
   9   6  21   21042    2700     0.00000 0.00000 0.00000 0.00000 0.00000 0.00000   20868    6.45   38.76  1.0000
  11   6  21   28927    2398     0.00000 0.00000 0.00000 0.00000 0.00000 0.00000   27148    1.41   10.81  1.0000
  13   6  21   19871    2718     0.00000 0.00000 0.00000 0.00000 0.00000 0.00000   18419   -2.44   11.83  1.0000
  15   6  21     193    3114     0.00000 0.00000 0.00000 0.00000 0.00000 0.00000   -1045   12.75    5.91  1.0000
  17   6  21    4247    3580     0.00000 0.00000 0.00000 0.00000 0.00000 0.00000    3036   13.54   -6.74  1.0000
  19   6  21    2318    4205     0.00000 0.00000 0.00000 0.00000 0.00000 0.00000    5185   -6.94   27.31  1.0000
  21   6  21    3111    4545     0.00000 0.00000 0.00000 0.00000 0.00000 0.00000    6181   19.20   16.22  1.0000
   2   7  21   10361    2000     0.00000 0.00000 0.00000 0.00000 0.00000 0.00000   12367   -2.95   -9.61  1.0000
   4   7  21   28028    2461     0.00000 0.00000 0.00000 0.00000 0.00000 0.00000   26203    9.84  -24.24  1.0000
   6   7  21   18060    1841     0.00000 0.00000 0.00000 0.00000 0.00000 0.00000   12784    2.73   26.58  1.0000
   8   7  21    6889    1986     0.00000 0.00000 0.00000 0.00000 0.00000 0.00000    7069    8.30   -5.24  1.0000
  10   7  21   23152    2500     0.00000 0.00000 0.00000 0.00000 0.00000 0.00000   33856  -33.14   14.03  1.0000
  12   7  21   10093    2631     0.00000 0.00000 0.00000 0.00000 0.00000 0.00000   16121  -28.99   14.13  1.0000
  14   7  21     593    2638     0.00000 0.00000 0.00000 0.00000 0.00000 0.00000    -821   -7.32   23.54  1.0000
  16   7  21    3177    3661     0.00000 0.00000 0.00000 0.00000 0.00000 0.00000    3032    6.28    4.64  1.0000
  18   7  21    3361    4300     0.00000 0.00000 0.00000 0.00000 0.00000 0.00000    9783  -26.12  -32.35  1.0000
  20   7  21    7978    5459     0.00000 0.00000 0.00000 0.00000 0.00000 0.00000   12309    3.39  -22.14  1.0000
   1   8  21   45389    2409     0.00000 0.00000 0.00000 0.00000 0.00000 0.00000   45475   16.59  -16.99  1.0000
   3   8  21   17076    2218     0.00000 0.00000 0.00000 0.00000 0.00000 0.00000   16532   11.70  -26.83  1.0000
   5   8  21    7828    2218     0.00000 0.00000 0.00000 0.00000 0.00000 0.00000    9620    0.67  -13.69  1.0000
   7   8  21    5983    2562     0.00000 0.00000 0.00000 0.00000 0.00000 0.00000    6065   -9.22   -5.72  1.0000
   9   8  21   27353    2468     0.00000 0.00000 0.00000 0.00000 0.00000 0.00000   27433  -10.26  -29.96  1.0000
  11   8  21   32581    2741     0.00000 0.00000 0.00000 0.00000 0.00000 0.00000   31700    3.17  -22.50  1.0000
  13   8  21   21337    3109     0.00000 0.00000 0.00000 0.00000 0.00000 0.00000   29210  -28.04    8.19  1.0000
  15   8  21    3482    3107     0.00000 0.00000 0.00000 0.00000 0.00000 0.00000    1975    2.44   15.49  1.0000
  17   8  21    8685    4354     0.00000 0.00000 0.00000 0.00000 0.00000 0.00000   12598   20.45   -6.46  1.0000
  19   8  21   40656   17217     0.00000 0.00000 0.00000 0.00000 0.00000 0.00000   45046  -15.63   -6.67  1.0000
  21   8  21    5404    4904     0.00000 0.00000 0.00000 0.00000 0.00000 0.00000    4242   -6.40   -5.64  1.0000
   2   9  21   16424    2386     0.00000 0.00000 0.00000 0.00000 0.00000 0.00000   18470   -9.77   -0.46  1.0000
   4   9  21   31273    2699     0.00000 0.00000 0.00000 0.00000 0.00000 0.00000   30070   15.16  -35.22  1.0000
   6   9  21   24924    2310     0.00000 0.00000 0.00000 0.00000 0.00000 0.00000   20726   -5.85   38.45  1.0000
   8   9  21   27273    2519     0.00000 0.00000 0.00000 0.00000 0.00000 0.00000   23668   10.50  -31.13  1.0000
  10   9  21   28977    2750     0.00000 0.00000 0.00000 0.00000 0.00000 0.00000   28866  -19.64   21.53  1.0000
  12   9  21    8470    2969     0.00000 0.00000 0.00000 0.00000 0.00000 0.00000    7071    3.52  -13.76  1.0000
  14   9  21    5598    3044     0.00000 0.00000 0.00000 0.00000 0.00000 0.00000    8338   -6.37  -25.76  1.0000
  16   9  21   10424    3362     0.00000 0.00000 0.00000 0.00000 0.00000 0.00000   10204  -13.93   -0.40  1.0000
  18   9  21    7958    6332     0.00000 0.00000 0.00000 0.00000 0.00000 0.00000   15089  -33.95   20.91  1.0000
  20   9  21      61    5631     0.00000 0.00000 0.00000 0.00000 0.00000 0.00000   -2007    7.41    2.80  1.0000
   1  10  21  186152    5089     0.00000 0.00000 0.00000 0.00000 0.00000 0.00000  203783  -19.40   -9.26  1.0000
   3  10  21  103428    3901     0.00000 0.00000 0.00000 0.00000 0.00000 0.00000  126480   25.50   23.59  1.0000
   5  10  21   34072    2550     0.00000 0.00000 0.00000 0.00000 0.00000 0.00000   38228  -13.07   -3.87  1.0000
   7  10  21   21694    2761     0.00000 0.00000 0.00000 0.00000 0.00000 0.00000   33274   33.07   13.78  1.0000
   9  10  21   23425    2835     0.00000 0.00000 0.00000 0.00000 0.00000 0.00000   23835   19.93   20.51  1.0000
  11  10  21   20915    2765     0.00000 0.00000 0.00000 0.00000 0.00000 0.00000   21745   10.96    4.72  1.0000
  13  10  21   18735    3044     0.00000 0.00000 0.00000 0.00000 0.00000 0.00000   19636    1.81    4.56  1.0000
  15  10  21   13156    3409     0.00000 0.00000 0.00000 0.00000 0.00000 0.00000   10677    3.19   18.57  1.0000
  17  10  21   24109    6836     0.00000 0.00000 0.00000 0.00000 0.00000 0.00000   19411   -1.73  -16.19  1.0000
  19  10  21    5279    6057     0.00000 0.00000 0.00000 0.00000 0.00000 0.00000    5739   -3.42   -0.28  1.0000
   2  11  21    8657    2335     0.00000 0.00000 0.00000 0.00000 0.00000 0.00000    8619  -14.92   25.85  1.0000
   4  11  21    9220    2345     0.00000 0.00000 0.00000 0.00000 0.00000 0.00000    5986    9.08  -37.63  1.0000
   6  11  21   31770    3053     0.00000 0.00000 0.00000 0.00000 0.00000 0.00000   29386   -1.37    9.95  1.0000
   8  11  21   39529    3007     0.00000 0.00000 0.00000 0.00000 0.00000 0.00000   35270   -2.95  -23.32  1.0000
  10  11  21   24494    2890     0.00000 0.00000 0.00000 0.00000 0.00000 0.00000   24616  -10.44    4.48  1.0000
  12  11  21   18231    3347     0.00000 0.00000 0.00000 0.00000 0.00000 0.00000   20388    4.14    6.79  1.0000
  14  11  21    9163    3277     0.00000 0.00000 0.00000 0.00000 0.00000 0.00000    7699  -12.57   18.08  1.0000
  16  11  21    6563    9395     0.00000 0.00000 0.00000 0.00000 0.00000 0.00000    9042    4.15  -22.99  1.0000
  18  11  21      22    5727     0.00000 0.00000 0.00000 0.00000 0.00000 0.00000    -709   -4.42   -1.61  1.0000
  20  11  21     892   11286     0.00000 0.00000 0.00000 0.00000 0.00000 0.00000  -16928   27.11  -13.40  1.0000
   1  12  21   13886    2684     0.00000 0.00000 0.00000 0.00000 0.00000 0.00000   16973  -21.91    3.73  1.0000
   3  12  21   18998    2476     0.00000 0.00000 0.00000 0.00000 0.00000 0.00000   22193   -3.20   16.68  1.0000
   5  12  21   51803    3048     0.00000 0.00000 0.00000 0.00000 0.00000 0.00000   58500  -12.80   -8.22  1.0000
   7  12  21    6146    2981     0.00000 0.00000 0.00000 0.00000 0.00000 0.00000   10766   28.38   15.00  1.0000
   9  12  21    4887    3189     0.00000 0.00000 0.00000 0.00000 0.00000 0.00000    4184   -4.03  -13.56  1.0000
  11  12  21   13809    3770     0.00000 0.00000 0.00000 0.00000 0.00000 0.00000   15733   -5.39    5.97  1.0000
  13  12  21    3482    3320     0.00000 0.00000 0.00000 0.00000 0.00000 0.00000    4172    9.92   10.24  1.0000
  15  12  21    7175    4156     0.00000 0.00000 0.00000 0.00000 0.00000 0.00000    7021   93.42    1.26  1.0000
  17  12  21   17819    7055     0.00000 0.00000 0.00000 0.00000 0.00000 0.00000   14208  -14.70    1.00  1.0000
  19  12  21    5258    4864     0.00000 0.00000 0.00000 0.00000 0.00000 0.00000    3348   32.90   -0.56  1.0000
   2  13  21      32    2805     0.00000 0.00000 0.00000 0.00000 0.00000 0.00000   -1220    4.36   -3.71  1.0000
   4  13  21    1093    2719     0.00000 0.00000 0.00000 0.00000 0.00000 0.00000     -93  -27.54  -19.02  1.0000
   6  13  21   23032    3216     0.00000 0.00000 0.00000 0.00000 0.00000 0.00000   20811    2.47   10.65  1.0000
   8  13  21   15140    3240     0.00000 0.00000 0.00000 0.00000 0.00000 0.00000   21235   28.68    8.15  1.0000
  10  13  21   16883    3904     0.00000 0.00000 0.00000 0.00000 0.00000 0.00000   17211   -1.35    7.20  1.0000
  12  13  21    6082    3934     0.00000 0.00000 0.00000 0.00000 0.00000 0.00000    7130  -10.84   10.07  1.0000
  14  13  21    3491    4044     0.00000 0.00000 0.00000 0.00000 0.00000 0.00000    1267   24.67    9.93  1.0000
  16  13  21    1221    5177     0.00000 0.00000 0.00000 0.00000 0.00000 0.00000    5782   38.60  -19.48  1.0000
   1  14  21    7137    2909     0.00000 0.00000 0.00000 0.00000 0.00000 0.00000   12961  -22.96  -18.96  1.0000
   3  14  21    5851    2793     0.00000 0.00000 0.00000 0.00000 0.00000 0.00000    5919   -4.28    2.03  1.0000
   5  14  21     454    2955     0.00000 0.00000 0.00000 0.00000 0.00000 0.00000   -1072   19.98    8.15  1.0000
   7  14  21     588    3277     0.00000 0.00000 0.00000 0.00000 0.00000 0.00000   -1264    6.87   23.57  1.0000
   9  14  21    4911    3433     0.00000 0.00000 0.00000 0.00000 0.00000 0.00000    7514    7.32  -26.24  1.0000
  11  14  21    6283    4231     0.00000 0.00000 0.00000 0.00000 0.00000 0.00000    5278   13.27   17.72  1.0000
  13  14  21    4855    4367     0.00000 0.00000 0.00000 0.00000 0.00000 0.00000    2596  -23.96    9.37  1.0000
  17  14  21   31050   19553     0.00000 0.00000 0.00000 0.00000 0.00000 0.00000  158706 -207.97   85.79  1.0000
   2  15  21    1715    3031     0.00000 0.00000 0.00000 0.00000 0.00000 0.00000   -2307   24.76  -33.84  1.0000
   4  15  21       5    3907     0.00000 0.00000 0.00000 0.00000 0.00000 0.00000     -25   -2.13    1.01  1.0000
   6  15  21     209    3783     0.00000 0.00000 0.00000 0.00000 0.00000 0.00000    -284  -12.72    7.25  1.0000
   8  15  21    1885    3552     0.00000 0.00000 0.00000 0.00000 0.00000 0.00000     896   -3.26   14.73  1.0000
  10  15  21     897    4373     0.00000 0.00000 0.00000 0.00000 0.00000 0.00000     294   -2.80   17.60  1.0000
  12  15  21    7013    5660     0.00000 0.00000 0.00000 0.00000 0.00000 0.00000     238  -93.73    0.69  1.0000
   1  16  21     570    3829     0.00000 0.00000 0.00000 0.00000 0.00000 0.00000     167   -4.27  -10.26  1.0000
   3  16  21    1625    3328     0.00000 0.00000 0.00000 0.00000 0.00000 0.00000     600   -0.93   16.02  1.0000
   5  16  21     274    3106     0.00000 0.00000 0.00000 0.00000 0.00000 0.00000     183    3.00   10.87  1.0000
   7  16  21      51    3869     0.00000 0.00000 0.00000 0.00000 0.00000 0.00000   -1647   -6.40    3.30  1.0000
   9  16  21    6250    4274     0.00000 0.00000 0.00000 0.00000 0.00000 0.00000    5901   13.76   -1.32  1.0000
  11  16  21     436    7657     0.00000 0.00000 0.00000 0.00000 0.00000 0.00000   -9586   -5.40  -20.44  1.0000
  13  16  21    1903    8789     0.00000 0.00000 0.00000 0.00000 0.00000 0.00000  -13183  -38.65  -21.36  1.0000
   2  17  21       3    3654     0.00000 0.00000 0.00000 0.00000 0.00000 0.00000   -5482    1.48    1.06  1.0000
   4  17  21    5979    3756     0.00000 0.00000 0.00000 0.00000 0.00000 0.00000    5514    4.31    1.19  1.0000
   6  17  21    9843    3779     0.00000 0.00000 0.00000 0.00000 0.00000 0.00000    8192  -11.85   -6.28  1.0000
   8  17  21    2208    5775     0.00000 0.00000 0.00000 0.00000 0.00000 0.00000    4610  -20.26   -6.38  1.0000
  10  17  21    2608    9279     0.00000 0.00000 0.00000 0.00000 0.00000 0.00000    1201    2.00  -16.62  1.0000
  12  17  21    9756    9464     0.00000 0.00000 0.00000 0.00000 0.00000 0.00000    6915   15.89    0.61  1.0000
   1  18  21     568    3860     0.00000 0.00000 0.00000 0.00000 0.00000 0.00000   -5789  -22.56   -8.56  1.0000
   3  18  21     312    3873     0.00000 0.00000 0.00000 0.00000 0.00000 0.00000     313  -24.36    3.94  1.0000
   5  18  21    7581    3761     0.00000 0.00000 0.00000 0.00000 0.00000 0.00000    6776    3.59   -4.06  1.0000
   7  18  21    1603   10417     0.00000 0.00000 0.00000 0.00000 0.00000 0.00000  -14272   25.96  -31.13  1.0000
   9  18  21    1557    9153     0.00000 0.00000 0.00000 0.00000 0.00000 0.00000  -13730   34.19   20.67  1.0000
  11  18  21      24    8009     0.00000 0.00000 0.00000 0.00000 0.00000 0.00000  -12014    4.51   -2.01  1.0000
   2  19  21      11    4353     0.00000 0.00000 0.00000 0.00000 0.00000 0.00000   -6521   -1.07    3.19  1.0000
   4  19  21      66    4554     0.00000 0.00000 0.00000 0.00000 0.00000 0.00000   -2363   -0.79    8.17  1.0000
   6  19  21    1876    4653     0.00000 0.00000 0.00000 0.00000 0.00000 0.00000    4874    6.86   27.21  1.0000
   8  19  21    3097    9108     0.00000 0.00000 0.00000 0.00000 0.00000 0.00000    4256   14.21   -7.30  1.0000
  10  19  21      18    9227     0.00000 0.00000 0.00000 0.00000 0.00000 0.00000  -13840    4.04    1.61  1.0000
  12  19  21   15314    5281     0.00000 0.00000 0.00000 0.00000 0.00000 0.00000   12761  -32.25   -0.44  1.0000
   1  20  21    1173    4589     0.00000 0.00000 0.00000 0.00000 0.00000 0.00000     148  -21.98   17.22  1.0000
   3  20  21     512    4336     0.00000 0.00000 0.00000 0.00000 0.00000 0.00000   -6503  -16.29   16.10  1.0000
   5  20  21    1554    4351     0.00000 0.00000 0.00000 0.00000 0.00000 0.00000   -1951  -39.61   -4.92  1.0000
   7  20  21     210    9699     0.00000 0.00000 0.00000 0.00000 0.00000 0.00000    1288   -3.06  -22.14  1.0000
   9  20  21      59    9793     0.00000 0.00000 0.00000 0.00000 0.00000 0.00000  -14690   -7.33    2.58  1.0000
  11  20  21    5508   12171     0.00000 0.00000 0.00000 0.00000 0.00000 0.00000   10642  -26.77  -15.53  1.0000
   2  21  21      42    4581     0.00000 0.00000 0.00000 0.00000 0.00000 0.00000    1477   31.77   -5.93  1.0000
   4  21  21     758    4384     0.00000 0.00000 0.00000 0.00000 0.00000 0.00000   -1847   22.73   16.12  1.0000
   6  21  21     595    8508     0.00000 0.00000 0.00000 0.00000 0.00000 0.00000   -1317  -17.62   17.29  1.0000
   8  21  21      64    6130     0.00000 0.00000 0.00000 0.00000 0.00000 0.00000   -9196    6.26   -5.18  1.0000
   1  22  21    1628    4940     0.00000 0.00000 0.00000 0.00000 0.00000 0.00000    3761  -28.96   -6.72  1.0000
   3  22  21     390    5187     0.00000 0.00000 0.00000 0.00000 0.00000 0.00000    -956   14.21  -14.07  1.0000
   5  22  21     380    6224     0.00000 0.00000 0.00000 0.00000 0.00000 0.00000   -1364   14.01  -13.89  1.0000
   0   0  22    7059    2627     0.00000 0.00000 0.00000 0.00000 0.00000 0.00000    4357   18.33    1.19  1.0000
   2   0  22  113103    5987     0.00000 0.00000 0.00000 0.00000 0.00000 0.00000  109735   21.19   -2.68  1.0000
   4   0  22    7815    3480     0.00000 0.00000 0.00000 0.00000 0.00000 0.00000    8314   14.93  -18.31  1.0000
   6   0  22   19814    4283     0.00000 0.00000 0.00000 0.00000 0.00000 0.00000   22927    1.26  -10.73  1.0000
   8   0  22    6962    4336     0.00000 0.00000 0.00000 0.00000 0.00000 0.00000   10812   13.35  -24.41  1.0000
  10   0  22   32672    4552     0.00000 0.00000 0.00000 0.00000 0.00000 0.00000   33082   20.05    5.95  1.0000
  12   0  22   29461    3677     0.00000 0.00000 0.00000 0.00000 0.00000 0.00000   30183  -24.91    5.67  1.0000
  14   0  22   14534    4320     0.00000 0.00000 0.00000 0.00000 0.00000 0.00000   16445   17.23   32.08  1.0000
  16   0  22   14044    4182     0.00000 0.00000 0.00000 0.00000 0.00000 0.00000   13261  -18.60  -10.27  1.0000
  18   0  22   15177    4812     0.00000 0.00000 0.00000 0.00000 0.00000 0.00000   19152   -1.66  -18.57  1.0000
  20   0  22   10660    5395     0.00000 0.00000 0.00000 0.00000 0.00000 0.00000    9911    4.40    3.96  1.0000
  22   0  22    4968    6228     0.00000 0.00000 0.00000 0.00000 0.00000 0.00000    6364   15.05  -12.93  1.0000
   1   1  22    7254    3169     0.00000 0.00000 0.00000 0.00000 0.00000 0.00000   13374  -30.86    0.77  1.0000
   3   1  22    3754    2188     0.00000 0.00000 0.00000 0.00000 0.00000 0.00000    5304   35.21   29.16  1.0000
   5   1  22    6393    2657     0.00000 0.00000 0.00000 0.00000 0.00000 0.00000    8412   12.95   -3.12  1.0000
   7   1  22    3966    2728     0.00000 0.00000 0.00000 0.00000 0.00000 0.00000    9324  -30.46  -15.13  1.0000
   9   1  22    7336    2820     0.00000 0.00000 0.00000 0.00000 0.00000 0.00000    8725   14.85    8.23  1.0000
  11   1  22    8920    2669     0.00000 0.00000 0.00000 0.00000 0.00000 0.00000   11887  -18.51   -0.41  1.0000
  13   1  22    9937    2244     0.00000 0.00000 0.00000 0.00000 0.00000 0.00000   12512   14.16    2.97  1.0000
  15   1  22   11183    2919     0.00000 0.00000 0.00000 0.00000 0.00000 0.00000   10298   -6.86   -9.32  1.0000
  17   1  22    7798    2935     0.00000 0.00000 0.00000 0.00000 0.00000 0.00000    7551   -8.78   -0.98  1.0000
  19   1  22    1200    3237     0.00000 0.00000 0.00000 0.00000 0.00000 0.00000    2950   10.68   19.05  1.0000
  21   1  22    2548    3806     0.00000 0.00000 0.00000 0.00000 0.00000 0.00000    4471   -1.59  -16.52  1.0000
   0   2  22  112091    6239     0.00000 0.00000 0.00000 0.00000 0.00000 0.00000  108281   23.32    3.69  1.0000
   2   2  22    4473    2082     0.00000 0.00000 0.00000 0.00000 0.00000 0.00000    4905   -3.19    0.37  1.0000
   4   2  22   99537    3966     0.00000 0.00000 0.00000 0.00000 0.00000 0.00000   92424   12.31   18.16  1.0000
   6   2  22   35613    2578     0.00000 0.00000 0.00000 0.00000 0.00000 0.00000   36283    6.94    3.36  1.0000
   8   2  22    8246    2989     0.00000 0.00000 0.00000 0.00000 0.00000 0.00000    9712    2.60  -16.14  1.0000
  10   2  22    8252    2764     0.00000 0.00000 0.00000 0.00000 0.00000 0.00000   12567    0.02   24.54  1.0000
  12   2  22    4919    3236     0.00000 0.00000 0.00000 0.00000 0.00000 0.00000    8585  -14.49  -19.20  1.0000
  14   2  22    5485    2989     0.00000 0.00000 0.00000 0.00000 0.00000 0.00000    9132  -12.29  -18.86  1.0000
  16   2  22   11185    3045     0.00000 0.00000 0.00000 0.00000 0.00000 0.00000    9332   17.30    2.36  1.0000
  18   2  22     516    3115     0.00000 0.00000 0.00000 0.00000 0.00000 0.00000    -465   22.99    0.26  1.0000
  20   2  22   21579    3632     0.00000 0.00000 0.00000 0.00000 0.00000 0.00000   21222    4.84    0.18  1.0000
  22   2  22   12913    4640     0.00000 0.00000 0.00000 0.00000 0.00000 0.00000   12781   -0.41   -6.44  1.0000
   1   3  22    2498    2705     0.00000 0.00000 0.00000 0.00000 0.00000 0.00000    8011   33.62  -29.26  1.0000
   3   3  22   13063    3385     0.00000 0.00000 0.00000 0.00000 0.00000 0.00000   12855   -0.88   -2.21  1.0000
   5   3  22    4004    2042     0.00000 0.00000 0.00000 0.00000 0.00000 0.00000   12195  -31.65   38.53  1.0000
   7   3  22   24233    2920     0.00000 0.00000 0.00000 0.00000 0.00000 0.00000   27392    7.44    8.87  1.0000
   9   3  22    3155    2260     0.00000 0.00000 0.00000 0.00000 0.00000 0.00000   10716   44.57  -25.64  1.0000
  11   3  22    7142    1885     0.00000 0.00000 0.00000 0.00000 0.00000 0.00000    7251   15.98   13.05  1.0000
  13   3  22   20986    2334     0.00000 0.00000 0.00000 0.00000 0.00000 0.00000   19593   -2.15    8.00  1.0000
  15   3  22    6859    2825     0.00000 0.00000 0.00000 0.00000 0.00000 0.00000    9304   -8.68   11.45  1.0000
  17   3  22     725    2996     0.00000 0.00000 0.00000 0.00000 0.00000 0.00000    1875   -6.09  -28.61  1.0000
  19   3  22    4808    3835     0.00000 0.00000 0.00000 0.00000 0.00000 0.00000    6809  -23.43    2.77  1.0000
  21   3  22    5815    4329     0.00000 0.00000 0.00000 0.00000 0.00000 0.00000   10962  -15.48   24.93  1.0000
   0   4  22    1996    2662     0.00000 0.00000 0.00000 0.00000 0.00000 0.00000    2647   15.10   23.01  1.0000
   2   4  22   93459    4525     0.00000 0.00000 0.00000 0.00000 0.00000 0.00000   87108   15.42  -16.95  1.0000
   4   4  22    7052    2182     0.00000 0.00000 0.00000 0.00000 0.00000 0.00000    4647   16.08    0.31  1.0000
   6   4  22    3031    2633     0.00000 0.00000 0.00000 0.00000 0.00000 0.00000    5064   -1.86  -40.21  1.0000
   8   4  22    6818    1944     0.00000 0.00000 0.00000 0.00000 0.00000 0.00000    7322   -4.91    0.03  1.0000
  10   4  22    6382    2140     0.00000 0.00000 0.00000 0.00000 0.00000 0.00000    7010  -22.23   23.33  1.0000
  12   4  22    1628    2159     0.00000 0.00000 0.00000 0.00000 0.00000 0.00000     989   25.92    5.43  1.0000
  14   4  22     265    2908     0.00000 0.00000 0.00000 0.00000 0.00000 0.00000     408   -3.23   -9.84  1.0000
  16   4  22    6781    3293     0.00000 0.00000 0.00000 0.00000 0.00000 0.00000    7355    8.08    0.44  1.0000
  18   4  22    5577    3344     0.00000 0.00000 0.00000 0.00000 0.00000 0.00000    5160    0.46    2.94  1.0000
  20   4  22    3585    4556     0.00000 0.00000 0.00000 0.00000 0.00000 0.00000    7416   28.86   23.79  1.0000
  22   4  22   13610    6820     0.00000 0.00000 0.00000 0.00000 0.00000 0.00000   11738    3.29    7.77  1.0000
   1   5  22    4985    2717     0.00000 0.00000 0.00000 0.00000 0.00000 0.00000    7043   16.14    5.17  1.0000
   3   5  22    4483    1830     0.00000 0.00000 0.00000 0.00000 0.00000 0.00000   11443  -28.70  -43.11  1.0000
   5   5  22     920    1667     0.00000 0.00000 0.00000 0.00000 0.00000 0.00000    2231  -17.52   -1.74  1.0000
   7   5  22    7490    1610     0.00000 0.00000 0.00000 0.00000 0.00000 0.00000    5045   13.69    9.06  1.0000
   9   5  22    7044    2162     0.00000 0.00000 0.00000 0.00000 0.00000 0.00000    4885   11.23   17.51  1.0000
  11   5  22    1056    2272     0.00000 0.00000 0.00000 0.00000 0.00000 0.00000    4800   34.60   14.38  1.0000
  13   5  22    1246    2483     0.00000 0.00000 0.00000 0.00000 0.00000 0.00000   -2260  -33.64  -12.03  1.0000
  15   5  22    3771    2891     0.00000 0.00000 0.00000 0.00000 0.00000 0.00000    3018  -26.44    3.81  1.0000
  17   5  22    6937    4379     0.00000 0.00000 0.00000 0.00000 0.00000 0.00000    7398    3.67   -1.92  1.0000
  19   5  22    5468    4019     0.00000 0.00000 0.00000 0.00000 0.00000 0.00000   10313    7.02  -27.77  1.0000
  21   5  22    8500    4483     0.00000 0.00000 0.00000 0.00000 0.00000 0.00000   11096   -7.47  -12.38  1.0000
   0   6  22   16566    3299     0.00000 0.00000 0.00000 0.00000 0.00000 0.00000   19701    0.49   11.99  1.0000
   2   6  22   32140    1963     0.00000 0.00000 0.00000 0.00000 0.00000 0.00000   33239    8.19   -4.77  1.0000
   4   6  22    1421    2073     0.00000 0.00000 0.00000 0.00000 0.00000 0.00000    1491    0.34   42.88  1.0000
   6   6  22    3892    1828     0.00000 0.00000 0.00000 0.00000 0.00000 0.00000    5610   12.88   -0.18  1.0000
   8   6  22    9912    2594     0.00000 0.00000 0.00000 0.00000 0.00000 0.00000   13942   -3.24   18.50  1.0000
  10   6  22    2709    2417     0.00000 0.00000 0.00000 0.00000 0.00000 0.00000    3030   -0.51  -15.33  1.0000
  12   6  22    4843    2483     0.00000 0.00000 0.00000 0.00000 0.00000 0.00000    5750   21.52    4.36  1.0000
  14   6  22    1751    2839     0.00000 0.00000 0.00000 0.00000 0.00000 0.00000    1281  -10.68   11.61  1.0000
  16   6  22    1707    3246     0.00000 0.00000 0.00000 0.00000 0.00000 0.00000    4112   20.49   13.81  1.0000
  18   6  22    1898    3788     0.00000 0.00000 0.00000 0.00000 0.00000 0.00000    5608   -6.60   32.49  1.0000
  20   6  22    3488    5348     0.00000 0.00000 0.00000 0.00000 0.00000 0.00000    5623   -9.43   13.66  1.0000
   1   7  22    1092    1963     0.00000 0.00000 0.00000 0.00000 0.00000 0.00000    2469  -28.75   15.65  1.0000
   3   7  22   19781    2597     0.00000 0.00000 0.00000 0.00000 0.00000 0.00000   22801    5.86   -9.79  1.0000
   5   7  22    5354    1888     0.00000 0.00000 0.00000 0.00000 0.00000 0.00000    3483   13.47   -8.08  1.0000
   7   7  22    4360    2473     0.00000 0.00000 0.00000 0.00000 0.00000 0.00000   11061   40.34   -1.06  1.0000
   9   7  22   15952    2484     0.00000 0.00000 0.00000 0.00000 0.00000 0.00000   17605   30.87  -14.89  1.0000
  11   7  22    2164    2391     0.00000 0.00000 0.00000 0.00000 0.00000 0.00000    4577   27.12    5.66  1.0000
  13   7  22    2227    3379     0.00000 0.00000 0.00000 0.00000 0.00000 0.00000    1903   17.15   -9.67  1.0000
  15   7  22    2419    3095     0.00000 0.00000 0.00000 0.00000 0.00000 0.00000    1808   -6.58   -2.08  1.0000
  17   7  22    6361    4001     0.00000 0.00000 0.00000 0.00000 0.00000 0.00000    8855   -8.33   13.96  1.0000
  19   7  22   10366    4670     0.00000 0.00000 0.00000 0.00000 0.00000 0.00000   10922   -5.01    2.05  1.0000
  21   7  22    1280    4971     0.00000 0.00000 0.00000 0.00000 0.00000 0.00000    5393  -37.64  -13.05  1.0000
   0   8  22    2352    3111     0.00000 0.00000 0.00000 0.00000 0.00000 0.00000    5359    9.56   26.93  1.0000
   2   8  22    3062    2310     0.00000 0.00000 0.00000 0.00000 0.00000 0.00000    3908    2.09   14.97  1.0000
   4   8  22    4719    2049     0.00000 0.00000 0.00000 0.00000 0.00000 0.00000    5120   -7.00   -1.70  1.0000
   6   8  22    4762    2733     0.00000 0.00000 0.00000 0.00000 0.00000 0.00000    7688   -1.43  -19.01  1.0000
   8   8  22     434    2233     0.00000 0.00000 0.00000 0.00000 0.00000 0.00000     682   -5.33    5.31  1.0000
  10   8  22    2692    2473     0.00000 0.00000 0.00000 0.00000 0.00000 0.00000    3462   12.35   -1.95  1.0000
  12   8  22      64    2754     0.00000 0.00000 0.00000 0.00000 0.00000 0.00000   -3319   -6.66   -4.65  1.0000
  14   8  22     146    3174     0.00000 0.00000 0.00000 0.00000 0.00000 0.00000     -81  -10.76   -5.83  1.0000
  16   8  22    3810    3591     0.00000 0.00000 0.00000 0.00000 0.00000 0.00000    4743   10.91   -7.90  1.0000
  18   8  22    7839    5010     0.00000 0.00000 0.00000 0.00000 0.00000 0.00000   10898   14.93    7.98  1.0000
  20   8  22    4818    4652     0.00000 0.00000 0.00000 0.00000 0.00000 0.00000    3850    9.37    6.84  1.0000
   1   9  22    5795    2347     0.00000 0.00000 0.00000 0.00000 0.00000 0.00000    6070   13.71   -7.47  1.0000
   3   9  22     507    2283     0.00000 0.00000 0.00000 0.00000 0.00000 0.00000    3406   42.91   25.79  1.0000
   5   9  22    2099    2245     0.00000 0.00000 0.00000 0.00000 0.00000 0.00000    1009   11.42  -18.70  1.0000
   7   9  22   18020    2416     0.00000 0.00000 0.00000 0.00000 0.00000 0.00000   18975   32.62   13.20  1.0000
   9   9  22   14451    2622     0.00000 0.00000 0.00000 0.00000 0.00000 0.00000   11262   14.29    0.09  1.0000
  11   9  22     535    2724     0.00000 0.00000 0.00000 0.00000 0.00000 0.00000   -1037  -13.81   18.91  1.0000
  13   9  22    7240    3020     0.00000 0.00000 0.00000 0.00000 0.00000 0.00000    4913   26.24  -17.51  1.0000
  15   9  22     553    3237     0.00000 0.00000 0.00000 0.00000 0.00000 0.00000     753   -1.03   -3.98  1.0000
  17   9  22    1375    5466     0.00000 0.00000 0.00000 0.00000 0.00000 0.00000    2867  -26.89   -3.66  1.0000
  19   9  22    7996    5775     0.00000 0.00000 0.00000 0.00000 0.00000 0.00000    4078    5.05   46.49  1.0000
   0  10  22   27783    3287     0.00000 0.00000 0.00000 0.00000 0.00000 0.00000   27833   20.05   -6.68  1.0000
   2  10  22    4588    2342     0.00000 0.00000 0.00000 0.00000 0.00000 0.00000    7956    2.00  -25.88  1.0000
   4  10  22    2133    2494     0.00000 0.00000 0.00000 0.00000 0.00000 0.00000    1795  -21.32  -22.23  1.0000
   6  10  22     695    2406     0.00000 0.00000 0.00000 0.00000 0.00000 0.00000     636   -2.25   15.25  1.0000
   8  10  22     170    2790     0.00000 0.00000 0.00000 0.00000 0.00000 0.00000   -1908   13.05    1.90  1.0000
  10  10  22     190    2691     0.00000 0.00000 0.00000 0.00000 0.00000 0.00000     110   24.42   -0.08  1.0000
  12  10  22    2390    3141     0.00000 0.00000 0.00000 0.00000 0.00000 0.00000    2680    6.61   -0.30  1.0000
  14  10  22    7291    3154     0.00000 0.00000 0.00000 0.00000 0.00000 0.00000    6020   11.24    0.77  1.0000
  16  10  22     872    3851     0.00000 0.00000 0.00000 0.00000 0.00000 0.00000    1833   -4.39   14.43  1.0000
  18  10  22    5647   11030     0.00000 0.00000 0.00000 0.00000 0.00000 0.00000   22993   -9.28  -78.21  1.0000
  20  10  22    2796    7056     0.00000 0.00000 0.00000 0.00000 0.00000 0.00000    6306  -13.59  -44.93  1.0000
   1  11  22     382    2609     0.00000 0.00000 0.00000 0.00000 0.00000 0.00000   -1122  -19.77    0.87  1.0000
   3  11  22    3696    2369     0.00000 0.00000 0.00000 0.00000 0.00000 0.00000    3858   18.31  -13.93  1.0000
   5  11  22     183    2612     0.00000 0.00000 0.00000 0.00000 0.00000 0.00000    1041   33.65  -17.15  1.0000
   7  11  22    1480    2819     0.00000 0.00000 0.00000 0.00000 0.00000 0.00000    2909   26.32   -4.56  1.0000
   9  11  22    2285    2876     0.00000 0.00000 0.00000 0.00000 0.00000 0.00000     626  -14.90  -17.81  1.0000
  11  11  22    2860    3930     0.00000 0.00000 0.00000 0.00000 0.00000 0.00000    2895    0.03   -2.48  1.0000
  13  11  22   12826    3422     0.00000 0.00000 0.00000 0.00000 0.00000 0.00000   12025   -1.17   10.21  1.0000
  15  11  22     485    4000     0.00000 0.00000 0.00000 0.00000 0.00000 0.00000     372    0.94    4.64  1.0000
  17  11  22    5573    5332     0.00000 0.00000 0.00000 0.00000 0.00000 0.00000    5333    3.97   -0.60  1.0000
  19  11  22    5026   16993     0.00000 0.00000 0.00000 0.00000 0.00000 0.00000   27686   57.76   78.12  1.0000
   0  12  22   26456    3804     0.00000 0.00000 0.00000 0.00000 0.00000 0.00000   26629  -24.35   -4.05  1.0000
   2  12  22    3491    2793     0.00000 0.00000 0.00000 0.00000 0.00000 0.00000    6360  -14.94   17.49  1.0000
   4  12  22    4042    3118     0.00000 0.00000 0.00000 0.00000 0.00000 0.00000    3394   24.62   -4.64  1.0000
   6  12  22     446    2729     0.00000 0.00000 0.00000 0.00000 0.00000 0.00000   -2000   20.83   -4.84  1.0000
   8  12  22      37    3148     0.00000 0.00000 0.00000 0.00000 0.00000 0.00000   -1288   -5.43    2.86  1.0000
  10  12  22      38    3310     0.00000 0.00000 0.00000 0.00000 0.00000 0.00000   -2977    6.27    0.32  1.0000
  12  12  22     844    3820     0.00000 0.00000 0.00000 0.00000 0.00000 0.00000    3298  -28.82    0.47  1.0000
  14  12  22    3997    3627     0.00000 0.00000 0.00000 0.00000 0.00000 0.00000    5016   -1.64  -10.88  1.0000
  16  12  22     383    5094     0.00000 0.00000 0.00000 0.00000 0.00000 0.00000   -4345   19.82    0.16  1.0000
   1  13  22    3277    2965     0.00000 0.00000 0.00000 0.00000 0.00000 0.00000    4401   14.17   -2.93  1.0000
   3  13  22   17623    2843     0.00000 0.00000 0.00000 0.00000 0.00000 0.00000   16295   -2.04   -7.80  1.0000
   5  13  22    1307    3091     0.00000 0.00000 0.00000 0.00000 0.00000 0.00000   -1640  -34.42   12.44  1.0000
   7  13  22    2995    3187     0.00000 0.00000 0.00000 0.00000 0.00000 0.00000    2368   16.42    9.28  1.0000
   9  13  22    2394    3371     0.00000 0.00000 0.00000 0.00000 0.00000 0.00000     799   26.78   17.75  1.0000
  11  13  22    2860    3876     0.00000 0.00000 0.00000 0.00000 0.00000 0.00000    2452   -2.17  -12.55  1.0000
  13  13  22   17964    5080     0.00000 0.00000 0.00000 0.00000 0.00000 0.00000   20194    8.20   -0.13  1.0000
  15  13  22     703    6698     0.00000 0.00000 0.00000 0.00000 0.00000 0.00000   -2188   24.23   11.53  1.0000
  17  13  22   23376   12857     0.00000 0.00000 0.00000 0.00000 0.00000 0.00000   24484   -1.59   -8.07  1.0000
   0  14  22   10730    4352     0.00000 0.00000 0.00000 0.00000 0.00000 0.00000   10389   17.12  -31.17  1.0000
   2  14  22    7646    3016     0.00000 0.00000 0.00000 0.00000 0.00000 0.00000   11816  -12.25   18.82  1.0000
   4  14  22     548    2988     0.00000 0.00000 0.00000 0.00000 0.00000 0.00000     877   -3.17    9.74  1.0000
   6  14  22     199    3155     0.00000 0.00000 0.00000 0.00000 0.00000 0.00000   -4733   -8.96  -11.11  1.0000
   8  14  22     167    3349     0.00000 0.00000 0.00000 0.00000 0.00000 0.00000   -2602  -11.22    6.75  1.0000
  10  14  22     137    4009     0.00000 0.00000 0.00000 0.00000 0.00000 0.00000    -212   11.79   -1.12  1.0000
  12  14  22     129    4161     0.00000 0.00000 0.00000 0.00000 0.00000 0.00000   -1879   -1.33   11.43  1.0000
  14  14  22    1060   16470     0.00000 0.00000 0.00000 0.00000 0.00000 0.00000   10316   70.36    0.01  1.0000
   1  15  22     151    3359     0.00000 0.00000 0.00000 0.00000 0.00000 0.00000    -625   -8.07    9.46  1.0000
   3  15  22    2753    3506     0.00000 0.00000 0.00000 0.00000 0.00000 0.00000    4306   -8.97  -11.21  1.0000
   5  15  22    5782    3589     0.00000 0.00000 0.00000 0.00000 0.00000 0.00000    4789  -27.35   -3.19  1.0000
   7  15  22     759    3381     0.00000 0.00000 0.00000 0.00000 0.00000 0.00000     444   -6.51    1.64  1.0000
   9  15  22    2002    4655     0.00000 0.00000 0.00000 0.00000 0.00000 0.00000    2447    1.35    5.35  1.0000
  11  15  22       4    4627     0.00000 0.00000 0.00000 0.00000 0.00000 0.00000   -2379   -0.25   -2.03  1.0000
  13  15  22     668   14941     0.00000 0.00000 0.00000 0.00000 0.00000 0.00000  -19364   23.71  -11.07  1.0000
   0  16  22     409    5110     0.00000 0.00000 0.00000 0.00000 0.00000 0.00000   -6209  -17.52   10.58  1.0000
   2  16  22     345    3562     0.00000 0.00000 0.00000 0.00000 0.00000 0.00000    -395   18.65   -2.41  1.0000
   4  16  22    3382    4629     0.00000 0.00000 0.00000 0.00000 0.00000 0.00000    3769    8.58    0.34  1.0000
   6  16  22    1467    3659     0.00000 0.00000 0.00000 0.00000 0.00000 0.00000    3731   20.42  -13.77  1.0000
   8  16  22     182    3894     0.00000 0.00000 0.00000 0.00000 0.00000 0.00000   -2460   11.35    7.61  1.0000
  10  16  22     214    5924     0.00000 0.00000 0.00000 0.00000 0.00000 0.00000    -686   -5.06  -13.92  1.0000
  12  16  22     374    7202     0.00000 0.00000 0.00000 0.00000 0.00000 0.00000   -8172   19.59    0.19  1.0000
   1  17  22    1281    3744     0.00000 0.00000 0.00000 0.00000 0.00000 0.00000    1173   -9.93    1.70  1.0000
   3  17  22     811    3749     0.00000 0.00000 0.00000 0.00000 0.00000 0.00000   -2289   -5.25   28.34  1.0000
   5  17  22    6522    3927     0.00000 0.00000 0.00000 0.00000 0.00000 0.00000    7097    3.15    2.92  1.0000
   7  17  22    3791    3984     0.00000 0.00000 0.00000 0.00000 0.00000 0.00000    5754   -8.96  -14.18  1.0000
   9  17  22     739    8803     0.00000 0.00000 0.00000 0.00000 0.00000 0.00000  -13205  -27.36    2.90  1.0000
  11  17  22      18    9277     0.00000 0.00000 0.00000 0.00000 0.00000 0.00000   -7267    4.21    0.87  1.0000
  13  17  22      58   19413     0.00000 0.00000 0.00000 0.00000 0.00000 0.00000  -17230   -2.51    7.29  1.0000
   0  18  22   11459    5732     0.00000 0.00000 0.00000 0.00000 0.00000 0.00000   15227   -1.08   18.13  1.0000
   2  18  22     544    4010     0.00000 0.00000 0.00000 0.00000 0.00000 0.00000   -3008   23.60   -0.48  1.0000
   4  18  22     889    3687     0.00000 0.00000 0.00000 0.00000 0.00000 0.00000     739    0.48   -2.70  1.0000
   6  18  22     140    4969     0.00000 0.00000 0.00000 0.00000 0.00000 0.00000    1968   -6.52  -33.15  1.0000
   8  18  22     287   10268     0.00000 0.00000 0.00000 0.00000 0.00000 0.00000  -10575   15.13   -8.09  1.0000
  10  18  22     259   18226     0.00000 0.00000 0.00000 0.00000 0.00000 0.00000    4088   -9.85   77.53  1.0000
  12  18  22    3441   18010     0.00000 0.00000 0.00000 0.00000 0.00000 0.00000    9886   37.39   17.49  1.0000
   1  19  22     438    5123     0.00000 0.00000 0.00000 0.00000 0.00000 0.00000   -5484    9.97  -18.69  1.0000
   3  19  22    2972    6196     0.00000 0.00000 0.00000 0.00000 0.00000 0.00000    4223  -22.77   -3.38  1.0000
   5  19  22     749    3967     0.00000 0.00000 0.00000 0.00000 0.00000 0.00000   -3326    5.30   27.20  1.0000
   7  19  22      29    9148     0.00000 0.00000 0.00000 0.00000 0.00000 0.00000  -13627   -5.07   -1.93  1.0000
   9  19  22    2074    8755     0.00000 0.00000 0.00000 0.00000 0.00000 0.00000   -4989    5.04  -45.83  1.0000
   0  20  22    4516    7836     0.00000 0.00000 0.00000 0.00000 0.00000 0.00000    4042    5.53   -3.84  1.0000
   2  20  22    9195    4547     0.00000 0.00000 0.00000 0.00000 0.00000 0.00000    9102    3.48   -0.31  1.0000
   4  20  22    1423    4582     0.00000 0.00000 0.00000 0.00000 0.00000 0.00000   -4304   28.57  -25.33  1.0000
   6  20  22     248    5406     0.00000 0.00000 0.00000 0.00000 0.00000 0.00000   -4597   -8.09  -13.74  1.0000
   8  20  22    1877    7065     0.00000 0.00000 0.00000 0.00000 0.00000 0.00000    1259    8.31   -7.03  1.0000
  10  20  22    1351    7097     0.00000 0.00000 0.00000 0.00000 0.00000 0.00000    3433  -14.61   43.89  1.0000
   1  21  22     286    5149     0.00000 0.00000 0.00000 0.00000 0.00000 0.00000   -2674   -1.79   17.02  1.0000
   3  21  22     788    6260     0.00000 0.00000 0.00000 0.00000 0.00000 0.00000   -2817  -14.57  -24.40  1.0000
   5  21  22     208    4793     0.00000 0.00000 0.00000 0.00000 0.00000 0.00000   -1260   -7.36   12.61  1.0000
   7  21  22    1527    5165     0.00000 0.00000 0.00000 0.00000 0.00000 0.00000    -907  -37.06   13.84  1.0000
   0  22  22    8389    8512     0.00000 0.00000 0.00000 0.00000 0.00000 0.00000   10488   14.45   13.17  1.0000
   2  22  22      60    4706     0.00000 0.00000 0.00000 0.00000 0.00000 0.00000   -4103   -1.42    7.70  1.0000
   4  22  22    1955    6509     0.00000 0.00000 0.00000 0.00000 0.00000 0.00000    1272    3.44   -7.96  1.0000
   2   1  23    9317    2093     0.00000 0.00000 0.00000 0.00000 0.00000 0.00000    6892  -14.06   -2.84  1.0000
   4   1  23   12783    2294     0.00000 0.00000 0.00000 0.00000 0.00000 0.00000   17259   -2.85   33.00  1.0000
   6   1  23   18964    2739     0.00000 0.00000 0.00000 0.00000 0.00000 0.00000   15294  -19.90   15.96  1.0000
   8   1  23   62002    3781     0.00000 0.00000 0.00000 0.00000 0.00000 0.00000   67577    2.20  -13.56  1.0000
  10   1  23   56522    3376     0.00000 0.00000 0.00000 0.00000 0.00000 0.00000   55847   -4.02    4.16  1.0000
  12   1  23   55218    6548     0.00000 0.00000 0.00000 0.00000 0.00000 0.00000   68822  -31.02  -14.69  1.0000
  14   1  23     403    2714     0.00000 0.00000 0.00000 0.00000 0.00000 0.00000    2958    8.15  -34.34  1.0000
  16   1  23    2368    3513     0.00000 0.00000 0.00000 0.00000 0.00000 0.00000    5819   28.98    5.60  1.0000
  18   1  23    3449    3368     0.00000 0.00000 0.00000 0.00000 0.00000 0.00000    5738   18.60    2.02  1.0000
  20   1  23    2658    3527     0.00000 0.00000 0.00000 0.00000 0.00000 0.00000    2725   14.16   11.87  1.0000
  22   1  23    6563    7895     0.00000 0.00000 0.00000 0.00000 0.00000 0.00000    7380   -7.04    0.12  1.0000
   1   2  23    8435    1883     0.00000 0.00000 0.00000 0.00000 0.00000 0.00000    6420   13.51    2.61  1.0000
   3   2  23   15759    2385     0.00000 0.00000 0.00000 0.00000 0.00000 0.00000   26618   47.68   31.36  1.0000
   5   2  23   13023    2162     0.00000 0.00000 0.00000 0.00000 0.00000 0.00000   14824  -19.94  -31.72  1.0000
   7   2  23   50892    2829     0.00000 0.00000 0.00000 0.00000 0.00000 0.00000   54770   11.83  -13.84  1.0000
   9   2  23    9923    2706     0.00000 0.00000 0.00000 0.00000 0.00000 0.00000   10951   -3.53   -3.94  1.0000
  11   2  23   13579    2746     0.00000 0.00000 0.00000 0.00000 0.00000 0.00000   13806  -10.01    3.43  1.0000
  13   2  23    1925    2674     0.00000 0.00000 0.00000 0.00000 0.00000 0.00000    4718   17.80  -19.17  1.0000
  15   2  23    3213    3832     0.00000 0.00000 0.00000 0.00000 0.00000 0.00000    4328   -2.63    9.19  1.0000
  17   2  23    2750    3079     0.00000 0.00000 0.00000 0.00000 0.00000 0.00000    5107   14.42   13.24  1.0000
  19   2  23    4980    4381     0.00000 0.00000 0.00000 0.00000 0.00000 0.00000    4399  -20.07  -27.95  1.0000
  21   2  23    5371    4324     0.00000 0.00000 0.00000 0.00000 0.00000 0.00000    5065   26.82    7.43  1.0000
   2   3  23   15411    2180     0.00000 0.00000 0.00000 0.00000 0.00000 0.00000   22640  -48.11   33.55  1.0000
   4   3  23    8030    2316     0.00000 0.00000 0.00000 0.00000 0.00000 0.00000   12333   33.71   11.57  1.0000
   6   3  23   23393    2217     0.00000 0.00000 0.00000 0.00000 0.00000 0.00000   19555   11.24    8.53  1.0000
   8   3  23   41711    2775     0.00000 0.00000 0.00000 0.00000 0.00000 0.00000   34526    3.62  -37.98  1.0000
  10   3  23   17638    3566     0.00000 0.00000 0.00000 0.00000 0.00000 0.00000   15297   -6.02   -7.31  1.0000
  12   3  23   70876    3420     0.00000 0.00000 0.00000 0.00000 0.00000 0.00000   81467   11.52   15.79  1.0000
  14   3  23    7379    2690     0.00000 0.00000 0.00000 0.00000 0.00000 0.00000    7840   20.20    8.92  1.0000
  16   3  23     326    3167     0.00000 0.00000 0.00000 0.00000 0.00000 0.00000    1001  -17.65    6.44  1.0000
  18   3  23    7820    3265     0.00000 0.00000 0.00000 0.00000 0.00000 0.00000    5443   16.05   -0.76  1.0000
  20   3  23    1065    4704     0.00000 0.00000 0.00000 0.00000 0.00000 0.00000    -434   22.80   23.91  1.0000
   1   4  23    9445    2245     0.00000 0.00000 0.00000 0.00000 0.00000 0.00000   11698    0.57   31.02  1.0000
   3   4  23   10490    2038     0.00000 0.00000 0.00000 0.00000 0.00000 0.00000   14936  -31.96   11.05  1.0000
   5   4  23     686    2603     0.00000 0.00000 0.00000 0.00000 0.00000 0.00000    4687  -34.46  -34.81  1.0000
   7   4  23   10682    2270     0.00000 0.00000 0.00000 0.00000 0.00000 0.00000    8168   -9.06   -9.69  1.0000
   9   4  23   14236    2791     0.00000 0.00000 0.00000 0.00000 0.00000 0.00000   10965  -21.78   -0.52  1.0000
  11   4  23   13813    2800     0.00000 0.00000 0.00000 0.00000 0.00000 0.00000    9980   -9.57  -16.94  1.0000
  13   4  23    7809    2516     0.00000 0.00000 0.00000 0.00000 0.00000 0.00000    6940   10.31  -14.38  1.0000
  15   4  23    6690    2796     0.00000 0.00000 0.00000 0.00000 0.00000 0.00000    7411   -4.24    8.26  1.0000
  17   4  23     872    3227     0.00000 0.00000 0.00000 0.00000 0.00000 0.00000    1012   20.06   15.25  1.0000
  19   4  23    7772    4307     0.00000 0.00000 0.00000 0.00000 0.00000 0.00000   13413    0.45  -29.47  1.0000
  21   4  23    5717    5570     0.00000 0.00000 0.00000 0.00000 0.00000 0.00000    9599    9.66  -20.76  1.0000
   2   5  23    7634    2006     0.00000 0.00000 0.00000 0.00000 0.00000 0.00000    7689   20.14  -32.94  1.0000
   4   5  23      73    1760     0.00000 0.00000 0.00000 0.00000 0.00000 0.00000    3203   34.18  -34.97  1.0000
   6   5  23    7526    2612     0.00000 0.00000 0.00000 0.00000 0.00000 0.00000    3330  -42.78   15.77  1.0000
   8   5  23   13579    2429     0.00000 0.00000 0.00000 0.00000 0.00000 0.00000   12508   11.77   -1.03  1.0000
  10   5  23   15920    2598     0.00000 0.00000 0.00000 0.00000 0.00000 0.00000   16113    1.55   -1.43  1.0000
  12   5  23   31604    2853     0.00000 0.00000 0.00000 0.00000 0.00000 0.00000   37343  -16.34   -5.86  1.0000
  14   5  23    6337    2734     0.00000 0.00000 0.00000 0.00000 0.00000 0.00000    9240  -14.01   16.15  1.0000
  16   5  23     802    3399     0.00000 0.00000 0.00000 0.00000 0.00000 0.00000    -740  -27.98    6.31  1.0000
  18   5  23    4055    4254     0.00000 0.00000 0.00000 0.00000 0.00000 0.00000    5709  -12.90    9.44  1.0000
  20   5  23    6018    4145     0.00000 0.00000 0.00000 0.00000 0.00000 0.00000    4557  -10.59   25.86  1.0000
   1   6  23    9590    2112     0.00000 0.00000 0.00000 0.00000 0.00000 0.00000    7139   19.30   14.53  1.0000
   3   6  23   18649    2685     0.00000 0.00000 0.00000 0.00000 0.00000 0.00000   16031   -9.90   14.32  1.0000
   5   6  23    9361    2501     0.00000 0.00000 0.00000 0.00000 0.00000 0.00000    4722   43.77   16.06  1.0000
   7   6  23    6621    2247     0.00000 0.00000 0.00000 0.00000 0.00000 0.00000    5813   32.79   -0.05  1.0000
   9   6  23   27532    2636     0.00000 0.00000 0.00000 0.00000 0.00000 0.00000   25967  -31.94   22.40  1.0000
  11   6  23   15062    3180     0.00000 0.00000 0.00000 0.00000 0.00000 0.00000   10426  -20.87   25.20  1.0000
  13   6  23   16195    2819     0.00000 0.00000 0.00000 0.00000 0.00000 0.00000   12081   16.07    7.58  1.0000
  15   6  23    1974    3015     0.00000 0.00000 0.00000 0.00000 0.00000 0.00000    3301   12.68   -3.60  1.0000
  17   6  23    8927    3676     0.00000 0.00000 0.00000 0.00000 0.00000 0.00000    9663   14.29  -15.77  1.0000
  19   6  23    6047    4640     0.00000 0.00000 0.00000 0.00000 0.00000 0.00000    7900    2.40  -25.42  1.0000
  21   6  23    2216    4791     0.00000 0.00000 0.00000 0.00000 0.00000 0.00000     239  -31.21  -15.83  1.0000
   2   7  23   41944    2490     0.00000 0.00000 0.00000 0.00000 0.00000 0.00000   45721   -8.27  -13.05  1.0000
   4   7  23    8618    2119     0.00000 0.00000 0.00000 0.00000 0.00000 0.00000    6165    9.86  -10.66  1.0000
   6   7  23    4623    2373     0.00000 0.00000 0.00000 0.00000 0.00000 0.00000    3818  -32.61   -0.36  1.0000
   8   7  23   27239    2580     0.00000 0.00000 0.00000 0.00000 0.00000 0.00000   29572    4.22    8.80  1.0000
  10   7  23   10800    2477     0.00000 0.00000 0.00000 0.00000 0.00000 0.00000   12049    5.18   13.19  1.0000
  12   7  23   29549    2844     0.00000 0.00000 0.00000 0.00000 0.00000 0.00000   31055   21.60   -5.54  1.0000
  14   7  23     686    2993     0.00000 0.00000 0.00000 0.00000 0.00000 0.00000    2154  -21.26   -1.39  1.0000
  16   7  23      92    3723     0.00000 0.00000 0.00000 0.00000 0.00000 0.00000   -4008    2.32    9.46  1.0000
  18   7  23    4470    4338     0.00000 0.00000 0.00000 0.00000 0.00000 0.00000    5170    1.22   18.88  1.0000
  20   7  23    6404    5316     0.00000 0.00000 0.00000 0.00000 0.00000 0.00000    6455    9.34   27.54  1.0000
   1   8  23   56421    3060     0.00000 0.00000 0.00000 0.00000 0.00000 0.00000   61245   -2.86  -12.74  1.0000
   3   8  23   34423    2548     0.00000 0.00000 0.00000 0.00000 0.00000 0.00000   29837   -3.90  -38.29  1.0000
   5   8  23    7364    2847     0.00000 0.00000 0.00000 0.00000 0.00000 0.00000    6776  -10.97   -2.39  1.0000
   7   8  23   29405    2339     0.00000 0.00000 0.00000 0.00000 0.00000 0.00000   31981   -4.80    9.01  1.0000
   9   8  23   28163    2501     0.00000 0.00000 0.00000 0.00000 0.00000 0.00000   26316  -17.68   -3.08  1.0000
  11   8  23   34900    2762     0.00000 0.00000 0.00000 0.00000 0.00000 0.00000   36947  -13.82   16.88  1.0000
  13   8  23   19247    3034     0.00000 0.00000 0.00000 0.00000 0.00000 0.00000   20216   10.48    2.05  1.0000
  15   8  23     110    3425     0.00000 0.00000 0.00000 0.00000 0.00000 0.00000     600    3.09  -15.06  1.0000
  17   8  23    9085    4055     0.00000 0.00000 0.00000 0.00000 0.00000 0.00000   13490  -21.01   -7.89  1.0000
  19   8  23    8089    5451     0.00000 0.00000 0.00000 0.00000 0.00000 0.00000   11260   23.24    0.79  1.0000
   2   9  23    5723    2325     0.00000 0.00000 0.00000 0.00000 0.00000 0.00000    6608    1.91   -5.47  1.0000
   4   9  23    8478    2325     0.00000 0.00000 0.00000 0.00000 0.00000 0.00000    5774   21.88   -1.04  1.0000
   6   9  23   25178    2421     0.00000 0.00000 0.00000 0.00000 0.00000 0.00000   24202   30.75   22.30  1.0000
   8   9  23   30085    2688     0.00000 0.00000 0.00000 0.00000 0.00000 0.00000   28036   16.25   -3.50  1.0000
  10   9  23    8372    2577     0.00000 0.00000 0.00000 0.00000 0.00000 0.00000    6115  -15.88   -5.04  1.0000
  12   9  23    6708    3482     0.00000 0.00000 0.00000 0.00000 0.00000 0.00000    5314    8.92   -1.91  1.0000
  14   9  23    9817    2945     0.00000 0.00000 0.00000 0.00000 0.00000 0.00000    7870  -11.22   -4.62  1.0000
  16   9  23    1527    3496     0.00000 0.00000 0.00000 0.00000 0.00000 0.00000     918   -0.29   -9.60  1.0000
  18   9  23    7284    4741     0.00000 0.00000 0.00000 0.00000 0.00000 0.00000    7143  -15.33  -13.54  1.0000
  20   9  23     585    5500     0.00000 0.00000 0.00000 0.00000 0.00000 0.00000     213    0.05  -10.26  1.0000
   1  10  23   51935    2918     0.00000 0.00000 0.00000 0.00000 0.00000 0.00000   51360    5.04    5.43  1.0000
   3  10  23    5326    2333     0.00000 0.00000 0.00000 0.00000 0.00000 0.00000    4048    5.09   -8.02  1.0000
   5  10  23   13441    2574     0.00000 0.00000 0.00000 0.00000 0.00000 0.00000   13570   -3.28   -2.05  1.0000
   7  10  23    9190    2595     0.00000 0.00000 0.00000 0.00000 0.00000 0.00000    8950   -4.10   12.67  1.0000
   9  10  23   13068    2794     0.00000 0.00000 0.00000 0.00000 0.00000 0.00000   11257   17.32   -6.73  1.0000
  11  10  23   33078    3134     0.00000 0.00000 0.00000 0.00000 0.00000 0.00000   30207   -6.15    8.88  1.0000
  13  10  23    9042    3345     0.00000 0.00000 0.00000 0.00000 0.00000 0.00000    9100    6.83  -17.63  1.0000
  15  10  23   14044    3396     0.00000 0.00000 0.00000 0.00000 0.00000 0.00000   15261    5.54    0.94  1.0000
  17  10  23    6226    5080     0.00000 0.00000 0.00000 0.00000 0.00000 0.00000    5438  -20.54  -24.37  1.0000
  19  10  23   10701    5723     0.00000 0.00000 0.00000 0.00000 0.00000 0.00000    7095  -15.41   14.19  1.0000
   2  11  23    7510    3003     0.00000 0.00000 0.00000 0.00000 0.00000 0.00000    7798   10.53    3.28  1.0000
   4  11  23    7288    2587     0.00000 0.00000 0.00000 0.00000 0.00000 0.00000    4643   11.46  -16.21  1.0000
   6  11  23   12200    2694     0.00000 0.00000 0.00000 0.00000 0.00000 0.00000    7978   20.77   25.99  1.0000
   8  11  23   28591    3030     0.00000 0.00000 0.00000 0.00000 0.00000 0.00000   29673   13.08   16.60  1.0000
  10  11  23   31527    3480     0.00000 0.00000 0.00000 0.00000 0.00000 0.00000   28996    7.68    8.28  1.0000
  12  11  23    9079    3012     0.00000 0.00000 0.00000 0.00000 0.00000 0.00000   11292    9.64   31.70  1.0000
  14  11  23    3220    3324     0.00000 0.00000 0.00000 0.00000 0.00000 0.00000    3399    1.84   -0.89  1.0000
  16  11  23    6748    4579     0.00000 0.00000 0.00000 0.00000 0.00000 0.00000    8219   -4.44   10.09  1.0000
  18  11  23   10147    5925     0.00000 0.00000 0.00000 0.00000 0.00000 0.00000   10557    5.92    1.73  1.0000
   1  12  23   51074    3165     0.00000 0.00000 0.00000 0.00000 0.00000 0.00000   64248   31.50  -13.97  1.0000
   3  12  23   67363    3356     0.00000 0.00000 0.00000 0.00000 0.00000 0.00000   77453  -11.45   15.62  1.0000
   5  12  23   32344    3306     0.00000 0.00000 0.00000 0.00000 0.00000 0.00000   38209   16.37   -5.54  1.0000
   7  12  23   27260    3244     0.00000 0.00000 0.00000 0.00000 0.00000 0.00000   28314  -20.72   -5.17  1.0000
   9  12  23    5717    3200     0.00000 0.00000 0.00000 0.00000 0.00000 0.00000    4475   -9.20   -2.43  1.0000
  11  12  23   11365    3433     0.00000 0.00000 0.00000 0.00000 0.00000 0.00000   15866  -11.04   33.41  1.0000
  13  12  23    7057    3414     0.00000 0.00000 0.00000 0.00000 0.00000 0.00000    8603  -33.55   -5.07  1.0000
  15  12  23    7811    4407     0.00000 0.00000 0.00000 0.00000 0.00000 0.00000    6076    1.03   11.61  1.0000
  17  12  23    6579    5362     0.00000 0.00000 0.00000 0.00000 0.00000 0.00000    4241   32.58   20.17  1.0000
   2  13  23     149    2813     0.00000 0.00000 0.00000 0.00000 0.00000 0.00000     196  -16.96  -19.32  1.0000
   4  13  23    5246    2900     0.00000 0.00000 0.00000 0.00000 0.00000 0.00000    4618  -11.33  -15.25  1.0000
   6  13  23   10303    3248     0.00000 0.00000 0.00000 0.00000 0.00000 0.00000    7028  -15.81    8.54  1.0000
   8  13  23   21671    3332     0.00000 0.00000 0.00000 0.00000 0.00000 0.00000   22640  -10.52    2.04  1.0000
  10  13  23    9764    3489     0.00000 0.00000 0.00000 0.00000 0.00000 0.00000    8529   -6.90  -17.21  1.0000
  12  13  23    4295    4024     0.00000 0.00000 0.00000 0.00000 0.00000 0.00000    4828   33.02   -4.61  1.0000
  14  13  23     770    4528     0.00000 0.00000 0.00000 0.00000 0.00000 0.00000   -2752  -15.07   23.72  1.0000
  16  13  23   45176   30145     0.00000 0.00000 0.00000 0.00000 0.00000 0.00000  107907  -28.86  113.91  1.0000
   1  14  23    1278    3064     0.00000 0.00000 0.00000 0.00000 0.00000 0.00000   -3601   -8.60  -35.16  1.0000
   3  14  23     446    3477     0.00000 0.00000 0.00000 0.00000 0.00000 0.00000   -5179  -19.21    9.41  1.0000
   5  14  23    4189    3717     0.00000 0.00000 0.00000 0.00000 0.00000 0.00000    6649   14.56   15.25  1.0000
   7  14  23     211    3394     0.00000 0.00000 0.00000 0.00000 0.00000 0.00000     748   19.75   -2.39  1.0000
   9  14  23    4229    3418     0.00000 0.00000 0.00000 0.00000 0.00000 0.00000    3326   10.93   -5.67  1.0000
  11  14  23   14443    4249     0.00000 0.00000 0.00000 0.00000 0.00000 0.00000   14709   -2.76   -0.28  1.0000
  13  14  23     760    4279     0.00000 0.00000 0.00000 0.00000 0.00000 0.00000   -2751   14.11   24.08  1.0000
  15  14  23    5828   16820     0.00000 0.00000 0.00000 0.00000 0.00000 0.00000   30420   31.30  -99.60  1.0000
  17  14  23    2050    8292     0.00000 0.00000 0.00000 0.00000 0.00000 0.00000   -2405   13.80  -43.71  1.0000
   2  15  23     125    3490     0.00000 0.00000 0.00000 0.00000 0.00000 0.00000   -5234    0.24   11.33  1.0000
   4  15  23     233    3350     0.00000 0.00000 0.00000 0.00000 0.00000 0.00000     377    4.13    7.30  1.0000
   6  15  23     339    3714     0.00000 0.00000 0.00000 0.00000 0.00000 0.00000     899  -13.21   -3.46  1.0000
   8  15  23    7390    3549     0.00000 0.00000 0.00000 0.00000 0.00000 0.00000   10126   -1.62  -15.09  1.0000
  10  15  23   10769    4632     0.00000 0.00000 0.00000 0.00000 0.00000 0.00000   11605   -4.50   -0.62  1.0000
  12  15  23    3490    4775     0.00000 0.00000 0.00000 0.00000 0.00000 0.00000    2377   -0.21   10.87  1.0000
  16  15  23    3004    5286     0.00000 0.00000 0.00000 0.00000 0.00000 0.00000   -7592  -15.74   53.21  1.0000
   1  16  23     792    3594     0.00000 0.00000 0.00000 0.00000 0.00000 0.00000   -2131  -28.06    5.00  1.0000
   3  16  23     354    4095     0.00000 0.00000 0.00000 0.00000 0.00000 0.00000   -2789   17.66    7.11  1.0000
   5  16  23     803    4292     0.00000 0.00000 0.00000 0.00000 0.00000 0.00000     -93   27.95    6.51  1.0000
   7  16  23     122    4063     0.00000 0.00000 0.00000 0.00000 0.00000 0.00000   -4327   -2.69   10.84  1.0000
   9  16  23      88    4643     0.00000 0.00000 0.00000 0.00000 0.00000 0.00000   -6632   -0.06   -9.51  1.0000
  11  16  23     109    9128     0.00000 0.00000 0.00000 0.00000 0.00000 0.00000   -7907    6.15    8.58  1.0000
  13  16  23    2939   19625     0.00000 0.00000 0.00000 0.00000 0.00000 0.00000    3923   28.45  114.54  1.0000
  15  16  23     623    5625     0.00000 0.00000 0.00000 0.00000 0.00000 0.00000    6041   17.16   52.72  1.0000
   2  17  23     366    3805     0.00000 0.00000 0.00000 0.00000 0.00000 0.00000    -292  -14.06   13.34  1.0000
   4  17  23     543    3468     0.00000 0.00000 0.00000 0.00000 0.00000 0.00000   -4687  -18.10   15.13  1.0000
   6  17  23    2514    4026     0.00000 0.00000 0.00000 0.00000 0.00000 0.00000    2762  -14.20  -15.58  1.0000
   8  17  23    8883    4856     0.00000 0.00000 0.00000 0.00000 0.00000 0.00000   12456   21.93   -7.80  1.0000
  10  17  23     907    9118     0.00000 0.00000 0.00000 0.00000 0.00000 0.00000      -5   19.23  -23.65  1.0000
  12  17  23    3363    9864     0.00000 0.00000 0.00000 0.00000 0.00000 0.00000    2111  -34.55   22.18  1.0000
  14  17  23    2037    6709     0.00000 0.00000 0.00000 0.00000 0.00000 0.00000   -3830  -14.99  -43.17  1.0000
   1  18  23     967    4107     0.00000 0.00000 0.00000 0.00000 0.00000 0.00000    2402  -18.26    1.50  1.0000
   3  18  23     292    4315     0.00000 0.00000 0.00000 0.00000 0.00000 0.00000    -309  -17.30    0.08  1.0000
   5  18  23     199    4857     0.00000 0.00000 0.00000 0.00000 0.00000 0.00000   -7285   10.50    9.68  1.0000
   7  18  23     374    7473     0.00000 0.00000 0.00000 0.00000 0.00000 0.00000   -3120   -1.37   19.53  1.0000
   9  18  23     362   12351     0.00000 0.00000 0.00000 0.00000 0.00000 0.00000  -13977   13.98  -13.26  1.0000
  11  18  23      19    9379     0.00000 0.00000 0.00000 0.00000 0.00000 0.00000    -723   -4.42    0.11  1.0000
   2  19  23    1158    4783     0.00000 0.00000 0.00000 0.00000 0.00000 0.00000   -4119   19.77  -28.22  1.0000
   4  19  23     402    4431     0.00000 0.00000 0.00000 0.00000 0.00000 0.00000    2171    0.16  -30.06  1.0000
   6  19  23    2148    5598     0.00000 0.00000 0.00000 0.00000 0.00000 0.00000    4009   -0.78  -27.03  1.0000
   8  19  23    1044    9537     0.00000 0.00000 0.00000 0.00000 0.00000 0.00000    1771  -21.07    0.35  1.0000
  10  19  23     460    8809     0.00000 0.00000 0.00000 0.00000 0.00000 0.00000   -8470   15.95   14.72  1.0000
   1  20  23     312    4784     0.00000 0.00000 0.00000 0.00000 0.00000 0.00000   -3567  -13.19   12.08  1.0000
   3  20  23    1057    4927     0.00000 0.00000 0.00000 0.00000 0.00000 0.00000   -2716  -22.55   23.97  1.0000
   5  20  23    2277    5945     0.00000 0.00000 0.00000 0.00000 0.00000 0.00000     868    9.89   25.31  1.0000
   7  20  23     809    9737     0.00000 0.00000 0.00000 0.00000 0.00000 0.00000  -13228  -10.08   26.97  1.0000
   9  20  23      91    6887     0.00000 0.00000 0.00000 0.00000 0.00000 0.00000  -10331   -0.78   -9.61  1.0000
   2  21  23     734    4730     0.00000 0.00000 0.00000 0.00000 0.00000 0.00000   -3072  -26.61    6.62  1.0000
   4  21  23     530    4785     0.00000 0.00000 0.00000 0.00000 0.00000 0.00000   -4451   -9.00  -21.51  1.0000
   6  21  23    1134    5861     0.00000 0.00000 0.00000 0.00000 0.00000 0.00000   -4343   30.59  -15.06  1.0000
   1  22  23      54    6320     0.00000 0.00000 0.00000 0.00000 0.00000 0.00000   -4202    7.38    0.59  1.0000
   0   0  24    8917    3850     0.00000 0.00000 0.00000 0.00000 0.00000 0.00000   16545   67.03   -3.79  1.0000
   2   0  24  132446    7693     0.00000 0.00000 0.00000 0.00000 0.00000 0.00000  139851    2.18  -26.80  1.0000
   4   0  24    5950    3126     0.00000 0.00000 0.00000 0.00000 0.00000 0.00000    8422   23.09    4.02  1.0000
   6   0  24    4158    3830     0.00000 0.00000 0.00000 0.00000 0.00000 0.00000    5438   11.26   -5.17  1.0000
   8   0  24   82332    6235     0.00000 0.00000 0.00000 0.00000 0.00000 0.00000   93856   -8.96   57.55  1.0000
  10   0  24    7056    4394     0.00000 0.00000 0.00000 0.00000 0.00000 0.00000   12946   20.52  -33.94  1.0000
  12   0  24   21034    5630     0.00000 0.00000 0.00000 0.00000 0.00000 0.00000   18997    4.06    6.38  1.0000
  14   0  24   17832    4472     0.00000 0.00000 0.00000 0.00000 0.00000 0.00000   13118  -18.22    9.09  1.0000
  16   0  24   10780    5549     0.00000 0.00000 0.00000 0.00000 0.00000 0.00000   17838  -31.13  -12.21  1.0000
  18   0  24    7270    5404     0.00000 0.00000 0.00000 0.00000 0.00000 0.00000    7040   13.85  -24.14  1.0000
  20   0  24   10958    5489     0.00000 0.00000 0.00000 0.00000 0.00000 0.00000   12854   -7.34  -17.47  1.0000
   1   1  24    2070    1410     0.00000 0.00000 0.00000 0.00000 0.00000 0.00000    4263   18.77   32.40  1.0000
   3   1  24    3003    2344     0.00000 0.00000 0.00000 0.00000 0.00000 0.00000    5488   18.09  -19.41  1.0000
   5   1  24    2986    2571     0.00000 0.00000 0.00000 0.00000 0.00000 0.00000   13402   44.48  -43.61  1.0000
   7   1  24   11971    2659     0.00000 0.00000 0.00000 0.00000 0.00000 0.00000   12813   -3.85   -0.48  1.0000
   9   1  24    9288    4343     0.00000 0.00000 0.00000 0.00000 0.00000 0.00000   12374   -8.60   13.03  1.0000
  11   1  24    7063    3082     0.00000 0.00000 0.00000 0.00000 0.00000 0.00000    5146   22.16    3.54  1.0000
  13   1  24    3648    3152     0.00000 0.00000 0.00000 0.00000 0.00000 0.00000    3577    1.73   -3.44  1.0000
  15   1  24    6682    2916     0.00000 0.00000 0.00000 0.00000 0.00000 0.00000    3689   18.67   10.19  1.0000
  17   1  24    1392    4150     0.00000 0.00000 0.00000 0.00000 0.00000 0.00000     688  -11.30   -1.32  1.0000
  19   1  24    6083    3814     0.00000 0.00000 0.00000 0.00000 0.00000 0.00000    4911    8.25   -2.00  1.0000
  21   1  24    2858    3786     0.00000 0.00000 0.00000 0.00000 0.00000 0.00000    4907    8.97   14.21  1.0000
   0   2  24  134120    6529     0.00000 0.00000 0.00000 0.00000 0.00000 0.00000  140182    5.39   12.25  1.0000
   2   2  24  391993    7627     0.00000 0.00000 0.00000 0.00000 0.00000 0.00000  389537    2.67   -5.79  1.0000
   4   2  24   85151    3370     0.00000 0.00000 0.00000 0.00000 0.00000 0.00000   96027   19.19   37.41  1.0000
   6   2  24   48242    2648     0.00000 0.00000 0.00000 0.00000 0.00000 0.00000   44653   -3.56   36.62  1.0000
   8   2  24   33365    3554     0.00000 0.00000 0.00000 0.00000 0.00000 0.00000   40340  -26.55   53.21  1.0000
  10   2  24    2322    3411     0.00000 0.00000 0.00000 0.00000 0.00000 0.00000    2801    6.39  -11.02  1.0000
  12   2  24    6613    2299     0.00000 0.00000 0.00000 0.00000 0.00000 0.00000    6889   -9.98  -16.87  1.0000
  14   2  24   10831    3399     0.00000 0.00000 0.00000 0.00000 0.00000 0.00000    8169   -4.22  -14.56  1.0000
  16   2  24    6879    4144     0.00000 0.00000 0.00000 0.00000 0.00000 0.00000    9740  -15.14    7.76  1.0000
  18   2  24   23662    4830     0.00000 0.00000 0.00000 0.00000 0.00000 0.00000   22629   -8.84   15.14  1.0000
  20   2  24    7166    3608     0.00000 0.00000 0.00000 0.00000 0.00000 0.00000    9189    6.63  -10.23  1.0000
   1   3  24    5683    2853     0.00000 0.00000 0.00000 0.00000 0.00000 0.00000    7593   17.58   19.42  1.0000
   3   3  24    2326    2416     0.00000 0.00000 0.00000 0.00000 0.00000 0.00000    3222   -4.77   -7.38  1.0000
   5   3  24   14475    2334     0.00000 0.00000 0.00000 0.00000 0.00000 0.00000   14327    6.28   14.44  1.0000
   7   3  24    8679    2500     0.00000 0.00000 0.00000 0.00000 0.00000 0.00000    6906   10.48   -4.64  1.0000
   9   3  24    6979    2961     0.00000 0.00000 0.00000 0.00000 0.00000 0.00000    8142    7.77   -3.06  1.0000
  11   3  24   10523    2954     0.00000 0.00000 0.00000 0.00000 0.00000 0.00000    8664   10.90   10.10  1.0000
  13   3  24    6583    2660     0.00000 0.00000 0.00000 0.00000 0.00000 0.00000    7604  -25.60   17.35  1.0000
  15   3  24   12216    3618     0.00000 0.00000 0.00000 0.00000 0.00000 0.00000   12658   14.67   20.93  1.0000
  17   3  24   16087    4412     0.00000 0.00000 0.00000 0.00000 0.00000 0.00000   19007   12.66  -11.54  1.0000
  19   3  24   11063    3685     0.00000 0.00000 0.00000 0.00000 0.00000 0.00000    9890   -6.30   10.32  1.0000
  21   3  24    3196    4743     0.00000 0.00000 0.00000 0.00000 0.00000 0.00000    8007  -29.57  -16.88  1.0000
   0   4  24    7482    3441     0.00000 0.00000 0.00000 0.00000 0.00000 0.00000   11741   20.99   -8.40  1.0000
   2   4  24   86378    3830     0.00000 0.00000 0.00000 0.00000 0.00000 0.00000   93410   18.54  -39.82  1.0000
   4   4  24    4236    1609     0.00000 0.00000 0.00000 0.00000 0.00000 0.00000    3972   -1.33   -2.16  1.0000
   6   4  24    3317    2308     0.00000 0.00000 0.00000 0.00000 0.00000 0.00000    3287   -3.83  -40.26  1.0000
   8   4  24    7138    2070     0.00000 0.00000 0.00000 0.00000 0.00000 0.00000    7880   13.58  -44.11  1.0000
  10   4  24    9703    2349     0.00000 0.00000 0.00000 0.00000 0.00000 0.00000    5612    9.57  -36.41  1.0000
  12   4  24    1617    2923     0.00000 0.00000 0.00000 0.00000 0.00000 0.00000    3749  -18.10  -17.66  1.0000
  14   4  24    4700    2710     0.00000 0.00000 0.00000 0.00000 0.00000 0.00000    5174    4.09    6.56  1.0000
  16   4  24    2805    3506     0.00000 0.00000 0.00000 0.00000 0.00000 0.00000    5461    2.85  -22.71  1.0000
  18   4  24    3195    3495     0.00000 0.00000 0.00000 0.00000 0.00000 0.00000    4028   -0.46   -7.46  1.0000
  20   4  24    4407    4261     0.00000 0.00000 0.00000 0.00000 0.00000 0.00000    1443   30.30    7.17  1.0000
   1   5  24    2946    2957     0.00000 0.00000 0.00000 0.00000 0.00000 0.00000   11449   40.30   46.88  1.0000
   3   5  24   20825    2624     0.00000 0.00000 0.00000 0.00000 0.00000 0.00000   19972    3.32   -8.47  1.0000
   5   5  24     915    2117     0.00000 0.00000 0.00000 0.00000 0.00000 0.00000     -91   30.61    0.86  1.0000
   7   5  24    1040    1901     0.00000 0.00000 0.00000 0.00000 0.00000 0.00000    2671   25.64  -26.93  1.0000
   9   5  24    1655    2281     0.00000 0.00000 0.00000 0.00000 0.00000 0.00000    1128   14.54   -1.33  1.0000
  11   5  24    2610    3347     0.00000 0.00000 0.00000 0.00000 0.00000 0.00000    3045    3.17    2.82  1.0000
  13   5  24   10892    2736     0.00000 0.00000 0.00000 0.00000 0.00000 0.00000    6322  -11.05   26.76  1.0000
  15   5  24    7467    3159     0.00000 0.00000 0.00000 0.00000 0.00000 0.00000    5657    7.80    9.63  1.0000
  17   5  24    1753    3519     0.00000 0.00000 0.00000 0.00000 0.00000 0.00000    3536    4.57  -20.82  1.0000
  19   5  24    7635    4762     0.00000 0.00000 0.00000 0.00000 0.00000 0.00000   10597  -16.82   10.93  1.0000
  21   5  24    3031    5954     0.00000 0.00000 0.00000 0.00000 0.00000 0.00000    2930   -0.73    1.72  1.0000
   0   6  24     120    2757     0.00000 0.00000 0.00000 0.00000 0.00000 0.00000     245   12.10    7.49  1.0000
   2   6  24   42822    2610     0.00000 0.00000 0.00000 0.00000 0.00000 0.00000   39948   -3.68  -37.25  1.0000
   4   6  24    3001    1914     0.00000 0.00000 0.00000 0.00000 0.00000 0.00000     711   -3.49   37.19  1.0000
   6   6  24   19278    2410     0.00000 0.00000 0.00000 0.00000 0.00000 0.00000   19887    2.31   -1.51  1.0000
   8   6  24    5549    1903     0.00000 0.00000 0.00000 0.00000 0.00000 0.00000    7092   28.62   25.87  1.0000
  10   6  24    2092    2443     0.00000 0.00000 0.00000 0.00000 0.00000 0.00000    3230   11.21   -1.91  1.0000
  12   6  24    5535    3142     0.00000 0.00000 0.00000 0.00000 0.00000 0.00000    5675    2.62   -2.08  1.0000
  14   6  24     926    2872     0.00000 0.00000 0.00000 0.00000 0.00000 0.00000   -1061   11.83   28.45  1.0000
  16   6  24      73    3291     0.00000 0.00000 0.00000 0.00000 0.00000 0.00000     957  -22.78   -1.25  1.0000
  18   6  24    1511    4379     0.00000 0.00000 0.00000 0.00000 0.00000 0.00000    1782  -10.69    4.61  1.0000
  20   6  24    6517    4606     0.00000 0.00000 0.00000 0.00000 0.00000 0.00000    9939    9.07   22.45  1.0000
   1   7  24   11516    2469     0.00000 0.00000 0.00000 0.00000 0.00000 0.00000   12279   -3.80    0.27  1.0000
   3   7  24    1865    2372     0.00000 0.00000 0.00000 0.00000 0.00000 0.00000     920   10.92    8.40  1.0000
   5   7  24    1218    2944     0.00000 0.00000 0.00000 0.00000 0.00000 0.00000   -2202   23.41   26.47  1.0000
   7   7  24   20259    2801     0.00000 0.00000 0.00000 0.00000 0.00000 0.00000   24774   15.60   -1.50  1.0000
   9   7  24    6699    2574     0.00000 0.00000 0.00000 0.00000 0.00000 0.00000    7041    5.81   -1.63  1.0000
  11   7  24    1445    2712     0.00000 0.00000 0.00000 0.00000 0.00000 0.00000    2042    7.92    0.41  1.0000
  13   7  24    5073    2778     0.00000 0.00000 0.00000 0.00000 0.00000 0.00000    3818   13.93    4.40  1.0000
  15   7  24    3667    3301     0.00000 0.00000 0.00000 0.00000 0.00000 0.00000    6491   -9.87   18.33  1.0000
  17   7  24    3597    3970     0.00000 0.00000 0.00000 0.00000 0.00000 0.00000    2253  -12.27    4.77  1.0000
  19   7  24   14741    4800     0.00000 0.00000 0.00000 0.00000 0.00000 0.00000   14187   -4.88  -23.64  1.0000
   0   8  24   79560    4595     0.00000 0.00000 0.00000 0.00000 0.00000 0.00000   93591   -9.34  -58.08  1.0000
   2   8  24   24345    2314     0.00000 0.00000 0.00000 0.00000 0.00000 0.00000   25501  -26.20  -53.51  1.0000
   4   8  24    8200    2538     0.00000 0.00000 0.00000 0.00000 0.00000 0.00000    6565   15.65   44.14  1.0000
   6   8  24    6252    2272     0.00000 0.00000 0.00000 0.00000 0.00000 0.00000    6251   27.94  -25.28  1.0000
   8   8  24    2963    2398     0.00000 0.00000 0.00000 0.00000 0.00000 0.00000    3223   -2.94    6.19  1.0000
  10   8  24    1942    2557     0.00000 0.00000 0.00000 0.00000 0.00000 0.00000    2892    9.90    6.91  1.0000
  12   8  24    5292    2821     0.00000 0.00000 0.00000 0.00000 0.00000 0.00000    4591   -5.01    0.83  1.0000
  14   8  24    1249    2796     0.00000 0.00000 0.00000 0.00000 0.00000 0.00000    -506   35.72   -2.20  1.0000
  16   8  24    1852    3705     0.00000 0.00000 0.00000 0.00000 0.00000 0.00000    3911   24.97    5.81  1.0000
  18   8  24    4289    5415     0.00000 0.00000 0.00000 0.00000 0.00000 0.00000    4654   -7.67  -11.89  1.0000
  20   8  24    1574    4903     0.00000 0.00000 0.00000 0.00000 0.00000 0.00000    5282  -30.40   14.09  1.0000
   1   9  24     282    2733     0.00000 0.00000 0.00000 0.00000 0.00000 0.00000     903   -7.46  -12.47  1.0000
   3   9  24   14461    2471     0.00000 0.00000 0.00000 0.00000 0.00000 0.00000   16143    6.58    2.10  1.0000
   5   9  24    2302    2397     0.00000 0.00000 0.00000 0.00000 0.00000 0.00000    1679   11.20    2.85  1.0000
   7   9  24    6199    2466     0.00000 0.00000 0.00000 0.00000 0.00000 0.00000    6318    8.95    0.06  1.0000
   9   9  24    5946    2589     0.00000 0.00000 0.00000 0.00000 0.00000 0.00000    7244   -7.81   -2.24  1.0000
  11   9  24    4595    2847     0.00000 0.00000 0.00000 0.00000 0.00000 0.00000    4307   14.18  -19.29  1.0000
  13   9  24     626    2998     0.00000 0.00000 0.00000 0.00000 0.00000 0.00000    2262   18.93  -17.49  1.0000
  15   9  24    1606    3175     0.00000 0.00000 0.00000 0.00000 0.00000 0.00000    1602  -11.72   10.67  1.0000
  17   9  24    8521    4468     0.00000 0.00000 0.00000 0.00000 0.00000 0.00000    9245   -7.70    9.84  1.0000
  19   9  24    1473    5132     0.00000 0.00000 0.00000 0.00000 0.00000 0.00000   -1064   27.69  -27.27  1.0000
   0  10  24    1632    3649     0.00000 0.00000 0.00000 0.00000 0.00000 0.00000    3973   20.54   34.26  1.0000
   2  10  24     960    2523     0.00000 0.00000 0.00000 0.00000 0.00000 0.00000    1341    6.32   10.73  1.0000
   4  10  24    1525    2801     0.00000 0.00000 0.00000 0.00000 0.00000 0.00000    -129    9.43   38.40  1.0000
   6  10  24      57    2568     0.00000 0.00000 0.00000 0.00000 0.00000 0.00000      52   13.39   -1.04  1.0000
   8  10  24     836    2874     0.00000 0.00000 0.00000 0.00000 0.00000 0.00000    1569    8.31  -11.15  1.0000
  10  10  24    1350    3099     0.00000 0.00000 0.00000 0.00000 0.00000 0.00000   -2327   37.20   -0.52  1.0000
  12  10  24    2871    2860     0.00000 0.00000 0.00000 0.00000 0.00000 0.00000    3791   -6.46    8.12  1.0000
  14  10  24    4607    3333     0.00000 0.00000 0.00000 0.00000 0.00000 0.00000    3593  -11.12   -6.23  1.0000
  16  10  24     484    3539     0.00000 0.00000 0.00000 0.00000 0.00000 0.00000    1145   -5.62   22.54  1.0000
  18  10  24     105    5002     0.00000 0.00000 0.00000 0.00000 0.00000 0.00000   -2370    6.86   -7.75  1.0000
   1  11  24     531    2632     0.00000 0.00000 0.00000 0.00000 0.00000 0.00000    -230   23.20   -2.41  1.0000
   3  11  24    6251    2563     0.00000 0.00000 0.00000 0.00000 0.00000 0.00000    5492   10.77   -9.59  1.0000
   5  11  24      21    2981     0.00000 0.00000 0.00000 0.00000 0.00000 0.00000   -1805    3.52   -3.00  1.0000
   7  11  24    2163    2884     0.00000 0.00000 0.00000 0.00000 0.00000 0.00000    2944    8.68   -0.15  1.0000
   9  11  24    4213    3112     0.00000 0.00000 0.00000 0.00000 0.00000 0.00000    4204   13.02   20.06  1.0000
  11  11  24    1654    3991     0.00000 0.00000 0.00000 0.00000 0.00000 0.00000    9131  -55.56    1.15  1.0000
  13  11  24    6158    3675     0.00000 0.00000 0.00000 0.00000 0.00000 0.00000    4339   12.24  -12.43  1.0000
  15  11  24     464    3624     0.00000 0.00000 0.00000 0.00000 0.00000 0.00000    2877   11.76  -30.52  1.0000
  17  11  24    5842    4996     0.00000 0.00000 0.00000 0.00000 0.00000 0.00000    6732  -11.82    7.59  1.0000
   0  12  24    7172    3825     0.00000 0.00000 0.00000 0.00000 0.00000 0.00000    5977    3.99   -6.82  1.0000
   2  12  24    5646    2867     0.00000 0.00000 0.00000 0.00000 0.00000 0.00000    4767   -9.66   16.50  1.0000
   4  12  24     601    2682     0.00000 0.00000 0.00000 0.00000 0.00000 0.00000    1903  -18.40   18.02  1.0000
   6  12  24      12    3113     0.00000 0.00000 0.00000 0.00000 0.00000 0.00000   -1415    2.46    2.57  1.0000
   8  12  24      36    3265     0.00000 0.00000 0.00000 0.00000 0.00000 0.00000   -3324   -5.82   -1.89  1.0000
  10  12  24    1016    3307     0.00000 0.00000 0.00000 0.00000 0.00000 0.00000    1503   -6.76   -7.20  1.0000
  12  12  24     163    3762     0.00000 0.00000 0.00000 0.00000 0.00000 0.00000     -38   12.91   -0.07  1.0000
  14  12  24     248    4416     0.00000 0.00000 0.00000 0.00000 0.00000 0.00000    -635   15.78   -2.23  1.0000
  16  12  24    3692    4875     0.00000 0.00000 0.00000 0.00000 0.00000 0.00000    6286  -12.85  -13.68  1.0000
  18  12  24     153    5415     0.00000 0.00000 0.00000 0.00000 0.00000 0.00000   -2761  -12.44    1.56  1.0000
   1  13  24      26    3502     0.00000 0.00000 0.00000 0.00000 0.00000 0.00000   -1381    1.64    4.90  1.0000
   3  13  24    2486    3067     0.00000 0.00000 0.00000 0.00000 0.00000 0.00000    2511  -26.58  -17.95  1.0000
   5  13  24     837    3252     0.00000 0.00000 0.00000 0.00000 0.00000 0.00000    -481  -11.09  -27.11  1.0000
   7  13  24     188    3233     0.00000 0.00000 0.00000 0.00000 0.00000 0.00000   -1340   13.36   -3.73  1.0000
   9  13  24     732    3341     0.00000 0.00000 0.00000 0.00000 0.00000 0.00000   -2229   20.88   17.75  1.0000
  11  13  24     366    3538     0.00000 0.00000 0.00000 0.00000 0.00000 0.00000    -436   14.04   13.33  1.0000
  13  13  24      57    4560     0.00000 0.00000 0.00000 0.00000 0.00000 0.00000    2496   50.01    0.59  1.0000
  15  13  24    7758    5563     0.00000 0.00000 0.00000 0.00000 0.00000 0.00000   10011   -1.39  -12.11  1.0000
  17  13  24     950    4260     0.00000 0.00000 0.00000 0.00000 0.00000 0.00000     727    3.68    1.81  1.0000
   0  14  24     408    4545     0.00000 0.00000 0.00000 0.00000 0.00000 0.00000    -516  -18.29   -9.12  1.0000
   2  14  24     206    3197     0.00000 0.00000 0.00000 0.00000 0.00000 0.00000   -3818   -3.93   14.00  1.0000
   4  14  24    1302    3146     0.00000 0.00000 0.00000 0.00000 0.00000 0.00000    1282    4.30   -6.99  1.0000
   6  14  24     959    3554     0.00000 0.00000 0.00000 0.00000 0.00000 0.00000   -5330   12.18  -28.88  1.0000
   8  14  24    1217    3495     0.00000 0.00000 0.00000 0.00000 0.00000 0.00000   -5242   35.20    2.76  1.0000
  10  14  24     150    3947     0.00000 0.00000 0.00000 0.00000 0.00000 0.00000   -4988  -10.81    6.10  1.0000
  12  14  24     250    4698     0.00000 0.00000 0.00000 0.00000 0.00000 0.00000   -5552   15.91    1.58  1.0000
  14  14  24     151    6582     0.00000 0.00000 0.00000 0.00000 0.00000 0.00000   -3623   12.45   -0.48  1.0000
   1  15  24     463    3404     0.00000 0.00000 0.00000 0.00000 0.00000 0.00000    -567   19.24  -10.23  1.0000
   3  15  24    2228    3231     0.00000 0.00000 0.00000 0.00000 0.00000 0.00000    2531   14.39  -20.74  1.0000
   5  15  24     159    3859     0.00000 0.00000 0.00000 0.00000 0.00000 0.00000   -5607    8.71   -9.35  1.0000
   7  15  24     424    3599     0.00000 0.00000 0.00000 0.00000 0.00000 0.00000   -4878  -11.22  -17.58  1.0000
   9  15  24     259    3620     0.00000 0.00000 0.00000 0.00000 0.00000 0.00000   -4821  -11.92  -11.11  1.0000
  11  15  24    1041    4962     0.00000 0.00000 0.00000 0.00000 0.00000 0.00000   -7444   11.74   30.49  1.0000
  13  15  24     162    6392     0.00000 0.00000 0.00000 0.00000 0.00000 0.00000    -295   -1.90   12.74  1.0000
   0  16  24     339    5246     0.00000 0.00000 0.00000 0.00000 0.00000 0.00000    2612  -30.42   13.11  1.0000
   2  16  24    1102    4512     0.00000 0.00000 0.00000 0.00000 0.00000 0.00000    2537  -15.51   -7.86  1.0000
   4  16  24     450    4287     0.00000 0.00000 0.00000 0.00000 0.00000 0.00000   -6431    1.41   21.43  1.0000
   6  16  24     510    4775     0.00000 0.00000 0.00000 0.00000 0.00000 0.00000   -3618  -22.83    1.11  1.0000
   8  16  24     665    4272     0.00000 0.00000 0.00000 0.00000 0.00000 0.00000   -5461   25.27   -6.57  1.0000
  10  16  24     536    4737     0.00000 0.00000 0.00000 0.00000 0.00000 0.00000    -663   -5.45  -22.79  1.0000
  12  16  24     374    6517     0.00000 0.00000 0.00000 0.00000 0.00000 0.00000   -8725  -14.54   13.13  1.0000
   1  17  24     133    4089     0.00000 0.00000 0.00000 0.00000 0.00000 0.00000   -6133  -11.69    0.22  1.0000
   3  17  24    2736    3923     0.00000 0.00000 0.00000 0.00000 0.00000 0.00000    4150   11.97   12.84  1.0000
   5  17  24     151    4305     0.00000 0.00000 0.00000 0.00000 0.00000 0.00000     455    7.47   22.37  1.0000
   7  17  24     165    4721     0.00000 0.00000 0.00000 0.00000 0.00000 0.00000   -1209  -12.12   -4.76  1.0000
   9  17  24    2726    6121     0.00000 0.00000 0.00000 0.00000 0.00000 0.00000    3361   -8.14  -10.57  1.0000
  11  17  24     163    7527     0.00000 0.00000 0.00000 0.00000 0.00000 0.00000   -9761  -10.41   -7.65  1.0000
  13  17  24     224    4770     0.00000 0.00000 0.00000 0.00000 0.00000 0.00000     139    3.30   -1.49  1.0000
   0  18  24    1773    7281     0.00000 0.00000 0.00000 0.00000 0.00000 0.00000    1285   14.44   23.28  1.0000
   2  18  24   11334    4843     0.00000 0.00000 0.00000 0.00000 0.00000 0.00000    9159   -8.77  -13.98  1.0000
   4  18  24      57    4515     0.00000 0.00000 0.00000 0.00000 0.00000 0.00000   -3740   -1.92    7.40  1.0000
   6  18  24     210    6261     0.00000 0.00000 0.00000 0.00000 0.00000 0.00000   -2069  -13.24   -6.31  1.0000
   8  18  24     248    9269     0.00000 0.00000 0.00000 0.00000 0.00000 0.00000  -12254   -8.12   13.71  1.0000
  10  18  24     119    8498     0.00000 0.00000 0.00000 0.00000 0.00000 0.00000  -12747    7.32    8.28  1.0000
  12  18  24     167    6631     0.00000 0.00000 0.00000 0.00000 0.00000 0.00000   -1671  -12.95   -1.82  1.0000
   1  19  24      70    4595     0.00000 0.00000 0.00000 0.00000 0.00000 0.00000   -6770    8.36    1.41  1.0000
   3  19  24     117    4397     0.00000 0.00000 0.00000 0.00000 0.00000 0.00000   -1801   -6.60   -8.75  1.0000
   5  19  24    7624    6733     0.00000 0.00000 0.00000 0.00000 0.00000 0.00000   11188  -16.37  -10.61  1.0000
   7  19  24     461    9612     0.00000 0.00000 0.00000 0.00000 0.00000 0.00000  -10031   -2.48   21.60  1.0000
   9  19  24    1472   14373     0.00000 0.00000 0.00000 0.00000 0.00000 0.00000  -12029   28.26   26.65  1.0000
   0  20  24   15795    6625     0.00000 0.00000 0.00000 0.00000 0.00000 0.00000   14239   -7.23   17.81  1.0000
   2  20  24     146    4550     0.00000 0.00000 0.00000 0.00000 0.00000 0.00000   -6826    6.72   10.24  1.0000
   4  20  24    1031    4538     0.00000 0.00000 0.00000 0.00000 0.00000 0.00000   -4081   31.68   -7.27  1.0000
   6  20  24    1010    6795     0.00000 0.00000 0.00000 0.00000 0.00000 0.00000    1496    9.15  -23.76  1.0000
   8  20  24    1079    7766     0.00000 0.00000 0.00000 0.00000 0.00000 0.00000   -9975  -31.66  -10.22  1.0000
   1  21  24     282    4874     0.00000 0.00000 0.00000 0.00000 0.00000 0.00000   -2685   10.25  -13.57  1.0000
   3  21  24    1132    4673     0.00000 0.00000 0.00000 0.00000 0.00000 0.00000    -577  -29.52   16.99  1.0000
   5  21  24      24    6787     0.00000 0.00000 0.00000 0.00000 0.00000 0.00000  -10181   -3.80   -3.23  1.0000
   2   1  25   12817    1845     0.00000 0.00000 0.00000 0.00000 0.00000 0.00000   14932   24.35   20.82  1.0000
   4   1  25   16357    2313     0.00000 0.00000 0.00000 0.00000 0.00000 0.00000   19410  -13.38   -9.90  1.0000
   6   1  25   16213    2696     0.00000 0.00000 0.00000 0.00000 0.00000 0.00000   11834  -60.68   27.30  1.0000
   8   1  25   78821    4202     0.00000 0.00000 0.00000 0.00000 0.00000 0.00000   96024  -25.26   15.25  1.0000
  10   1  25   13606    3475     0.00000 0.00000 0.00000 0.00000 0.00000 0.00000   12232    9.89   16.59  1.0000
  12   1  25   64540    3008     0.00000 0.00000 0.00000 0.00000 0.00000 0.00000   55012   20.02   -5.60  1.0000
  14   1  25    2815    3811     0.00000 0.00000 0.00000 0.00000 0.00000 0.00000    6319  -19.00  -20.21  1.0000
  16   1  25    4386    3583     0.00000 0.00000 0.00000 0.00000 0.00000 0.00000    6223    0.48   13.87  1.0000
  18   1  25    9021    3411     0.00000 0.00000 0.00000 0.00000 0.00000 0.00000    9875    6.37    1.35  1.0000
  20   1  25     970    3720     0.00000 0.00000 0.00000 0.00000 0.00000 0.00000     925    0.85   -3.02  1.0000
   1   2  25   12838    1876     0.00000 0.00000 0.00000 0.00000 0.00000 0.00000   13993  -26.25   22.22  1.0000
   3   2  25   19027    2331     0.00000 0.00000 0.00000 0.00000 0.00000 0.00000   24084   10.07   16.75  1.0000
   5   2  25   20340    2452     0.00000 0.00000 0.00000 0.00000 0.00000 0.00000   16713   15.39  -22.38  1.0000
   7   2  25    5165    3559     0.00000 0.00000 0.00000 0.00000 0.00000 0.00000    8229   19.82    0.99  1.0000
   9   2  25   28803    3167     0.00000 0.00000 0.00000 0.00000 0.00000 0.00000   30867  -16.30  -31.30  1.0000
  11   2  25    4877    3601     0.00000 0.00000 0.00000 0.00000 0.00000 0.00000    3463   17.84   -7.83  1.0000
  13   2  25   13583    3438     0.00000 0.00000 0.00000 0.00000 0.00000 0.00000   13062   11.45    5.48  1.0000
  15   2  25    2912    2797     0.00000 0.00000 0.00000 0.00000 0.00000 0.00000    3447   17.20   14.84  1.0000
  17   2  25    2268    3639     0.00000 0.00000 0.00000 0.00000 0.00000 0.00000    2492   10.04  -30.00  1.0000
  19   2  25    2969    3602     0.00000 0.00000 0.00000 0.00000 0.00000 0.00000    2148   -8.33    1.53  1.0000
  21   2  25    6108    6046     0.00000 0.00000 0.00000 0.00000 0.00000 0.00000    6004    2.18  -12.37  1.0000
   2   3  25   18106    2588     0.00000 0.00000 0.00000 0.00000 0.00000 0.00000   22993   -9.86   16.63  1.0000
   4   3  25   37217    3198     0.00000 0.00000 0.00000 0.00000 0.00000 0.00000   33533   20.17   -4.91  1.0000
   6   3  25    5900    2399     0.00000 0.00000 0.00000 0.00000 0.00000 0.00000    5998    0.69   20.78  1.0000
   8   3  25   16959    3452     0.00000 0.00000 0.00000 0.00000 0.00000 0.00000   23691    5.74  -42.45  1.0000
  10   3  25   19810    3298     0.00000 0.00000 0.00000 0.00000 0.00000 0.00000   18621    3.76    9.65  1.0000
  12   3  25   20894    2758     0.00000 0.00000 0.00000 0.00000 0.00000 0.00000   18901   -4.26    8.05  1.0000
  14   3  25    3764    2925     0.00000 0.00000 0.00000 0.00000 0.00000 0.00000    8930  -18.55  -34.92  1.0000
  16   3  25    9992    3945     0.00000 0.00000 0.00000 0.00000 0.00000 0.00000   12475   15.74   -5.07  1.0000
  18   3  25   12593    3855     0.00000 0.00000 0.00000 0.00000 0.00000 0.00000    7437   28.41   -9.52  1.0000
  20   3  25    9403    5327     0.00000 0.00000 0.00000 0.00000 0.00000 0.00000   11574    8.75    6.69  1.0000
   1   4  25   11915    2286     0.00000 0.00000 0.00000 0.00000 0.00000 0.00000   15018   14.39  -12.99  1.0000
   3   4  25   31414    2486     0.00000 0.00000 0.00000 0.00000 0.00000 0.00000   27924  -17.38   -6.18  1.0000
   5   4  25    9824    3432     0.00000 0.00000 0.00000 0.00000 0.00000 0.00000    7391  -13.91   -7.25  1.0000
   7   4  25   15497    2838     0.00000 0.00000 0.00000 0.00000 0.00000 0.00000   12872  -25.99    2.48  1.0000
   9   4  25   14476    2286     0.00000 0.00000 0.00000 0.00000 0.00000 0.00000   17539    6.57  -16.60  1.0000
  11   4  25    7622    2588     0.00000 0.00000 0.00000 0.00000 0.00000 0.00000    6267   -9.71   -1.22  1.0000
  13   4  25    3117    2659     0.00000 0.00000 0.00000 0.00000 0.00000 0.00000    2247   -9.27   -8.32  1.0000
  15   4  25    4176    3623     0.00000 0.00000 0.00000 0.00000 0.00000 0.00000    7872   -2.31   24.44  1.0000
  17   4  25    7447    3360     0.00000 0.00000 0.00000 0.00000 0.00000 0.00000    7340   -2.04   -2.83  1.0000
  19   4  25    5962    4689     0.00000 0.00000 0.00000 0.00000 0.00000 0.00000   14451  -38.61   20.31  1.0000
  21   4  25     473    9795     0.00000 0.00000 0.00000 0.00000 0.00000 0.00000   -5533   21.68    3.88  1.0000
   2   5  25   19199    3085     0.00000 0.00000 0.00000 0.00000 0.00000 0.00000   16236  -14.50  -21.27  1.0000
   4   5  25     243    1950     0.00000 0.00000 0.00000 0.00000 0.00000 0.00000    -269   14.47   -6.29  1.0000
   6   5  25     409    2407     0.00000 0.00000 0.00000 0.00000 0.00000 0.00000    2900  -33.07    8.83  1.0000
   8   5  25   23788    2114     0.00000 0.00000 0.00000 0.00000 0.00000 0.00000   32552  -29.87   -5.33  1.0000
  10   5  25    8227    2608     0.00000 0.00000 0.00000 0.00000 0.00000 0.00000   10614    4.76   21.27  1.0000
  12   5  25   29755    4060     0.00000 0.00000 0.00000 0.00000 0.00000 0.00000   27399   -4.22  -17.14  1.0000
  14   5  25      84    3489     0.00000 0.00000 0.00000 0.00000 0.00000 0.00000   -1439    3.04   -8.80  1.0000
  16   5  25    1351    3547     0.00000 0.00000 0.00000 0.00000 0.00000 0.00000    3235  -19.20    8.94  1.0000
  18   5  25    9285    3764     0.00000 0.00000 0.00000 0.00000 0.00000 0.00000    9833    7.08   -3.03  1.0000
  20   5  25    3258    4444     0.00000 0.00000 0.00000 0.00000 0.00000 0.00000    7088   25.95   -8.95  1.0000
   1   6  25   14847    2295     0.00000 0.00000 0.00000 0.00000 0.00000 0.00000   11487   61.20   28.18  1.0000
   3   6  25    2166    2726     0.00000 0.00000 0.00000 0.00000 0.00000 0.00000    1308   -1.13   23.12  1.0000
   5   6  25     606    2660     0.00000 0.00000 0.00000 0.00000 0.00000 0.00000    3539   33.25   12.03  1.0000
   7   6  25   24955    2058     0.00000 0.00000 0.00000 0.00000 0.00000 0.00000   27913    3.94   23.82  1.0000
   9   6  25   13490    2614     0.00000 0.00000 0.00000 0.00000 0.00000 0.00000   16070   -6.89   13.44  1.0000
  11   6  25   21908    2439     0.00000 0.00000 0.00000 0.00000 0.00000 0.00000   19813   10.29    4.73  1.0000
  13   6  25    2809    3391     0.00000 0.00000 0.00000 0.00000 0.00000 0.00000    1141   15.72  -19.57  1.0000
  15   6  25    1527    3582     0.00000 0.00000 0.00000 0.00000 0.00000 0.00000   -2900  -21.40   33.28  1.0000
  17   6  25    4321    3522     0.00000 0.00000 0.00000 0.00000 0.00000 0.00000    1909   22.38   18.53  1.0000
  19   6  25    8954    4032     0.00000 0.00000 0.00000 0.00000 0.00000 0.00000    9629   -3.61  -11.87  1.0000
   2   7  25     449    2483     0.00000 0.00000 0.00000 0.00000 0.00000 0.00000   -1946  -21.45    0.70  1.0000
   4   7  25    1173    2879     0.00000 0.00000 0.00000 0.00000 0.00000 0.00000     296   24.91    2.79  1.0000
   6   7  25   27496    2687     0.00000 0.00000 0.00000 0.00000 0.00000 0.00000   31868   -3.74   22.92  1.0000
   8   7  25    6235    2483     0.00000 0.00000 0.00000 0.00000 0.00000 0.00000    5763    5.92    0.56  1.0000
  10   7  25   10459    2841     0.00000 0.00000 0.00000 0.00000 0.00000 0.00000   10351   -0.81    1.29  1.0000
  12   7  25   15072    2978     0.00000 0.00000 0.00000 0.00000 0.00000 0.00000    9707  -33.60   11.50  1.0000
  14   7  25    5098    3529     0.00000 0.00000 0.00000 0.00000 0.00000 0.00000    7204   11.24   23.99  1.0000
  16   7  25    1219    3387     0.00000 0.00000 0.00000 0.00000 0.00000 0.00000   -1657   -5.31  -34.95  1.0000
  18   7  25    3047    4522     0.00000 0.00000 0.00000 0.00000 0.00000 0.00000    6329  -25.06   -2.18  1.0000
  20   7  25    8640    6686     0.00000 0.00000 0.00000 0.00000 0.00000 0.00000    7142   -7.24   -7.83  1.0000
   1   8  25   76496    3354     0.00000 0.00000 0.00000 0.00000 0.00000 0.00000   93783   26.97   14.49  1.0000
   3   8  25    7698    2357     0.00000 0.00000 0.00000 0.00000 0.00000 0.00000   13890   -5.43  -42.62  1.0000
   5   8  25   23061    2444     0.00000 0.00000 0.00000 0.00000 0.00000 0.00000   29723   29.33   -4.68  1.0000
   7   8  25   10057    2407     0.00000 0.00000 0.00000 0.00000 0.00000 0.00000    9575   -7.98   -0.77  1.0000
   9   8  25   30558    2506     0.00000 0.00000 0.00000 0.00000 0.00000 0.00000   23369  -35.03   -5.59  1.0000
  11   8  25   35055    3305     0.00000 0.00000 0.00000 0.00000 0.00000 0.00000   34358    0.96   15.34  1.0000
  13   8  25   12341    3022     0.00000 0.00000 0.00000 0.00000 0.00000 0.00000   14811   23.56    6.71  1.0000
  15   8  25    6751    3293     0.00000 0.00000 0.00000 0.00000 0.00000 0.00000    9166  -13.97   16.93  1.0000
  17   8  25    2535    4560     0.00000 0.00000 0.00000 0.00000 0.00000 0.00000    2708    0.59   -4.15  1.0000
  19   8  25   12223    6180     0.00000 0.00000 0.00000 0.00000 0.00000 0.00000    9857   -5.62  -11.87  1.0000
   2   9  25   18402    2766     0.00000 0.00000 0.00000 0.00000 0.00000 0.00000   18468   16.29  -30.38  1.0000
   4   9  25    3020    2795     0.00000 0.00000 0.00000 0.00000 0.00000 0.00000    4787   -4.99  -16.55  1.0000
   6   9  25    6703    2509     0.00000 0.00000 0.00000 0.00000 0.00000 0.00000    9122    8.07   11.77  1.0000
   8   9  25   22844    2718     0.00000 0.00000 0.00000 0.00000 0.00000 0.00000   18631   35.59   -6.04  1.0000
  10   9  25   18013    2979     0.00000 0.00000 0.00000 0.00000 0.00000 0.00000   21631   15.48   -6.45  1.0000
  12   9  25    3133    2945     0.00000 0.00000 0.00000 0.00000 0.00000 0.00000    5893  -17.77  -11.41  1.0000
  14   9  25    2915    2999     0.00000 0.00000 0.00000 0.00000 0.00000 0.00000    4358    1.11   18.56  1.0000
  16   9  25    4561    4095     0.00000 0.00000 0.00000 0.00000 0.00000 0.00000    5070    5.00   -4.49  1.0000
  18   9  25    5015    4725     0.00000 0.00000 0.00000 0.00000 0.00000 0.00000    6447    4.58   13.36  1.0000
   1  10  25    6609    2697     0.00000 0.00000 0.00000 0.00000 0.00000 0.00000    7229   -8.53   14.06  1.0000
   3  10  25   15869    3075     0.00000 0.00000 0.00000 0.00000 0.00000 0.00000   14210   -5.58   10.10  1.0000
   5  10  25    7118    2766     0.00000 0.00000 0.00000 0.00000 0.00000 0.00000   10071   -5.19   22.15  1.0000
   7  10  25   11664    2735     0.00000 0.00000 0.00000 0.00000 0.00000 0.00000   11281    1.36    1.95  1.0000
   9  10  25   14603    3436     0.00000 0.00000 0.00000 0.00000 0.00000 0.00000   17929  -14.95   -5.40  1.0000
  11  10  25   21822    3312     0.00000 0.00000 0.00000 0.00000 0.00000 0.00000   29268  -18.00   16.07  1.0000
  13  10  25   18210    3928     0.00000 0.00000 0.00000 0.00000 0.00000 0.00000   23159  -13.76  -13.92  1.0000
  15  10  25    4789    4043     0.00000 0.00000 0.00000 0.00000 0.00000 0.00000    7688   18.27    4.53  1.0000
  17  10  25    9433    4483     0.00000 0.00000 0.00000 0.00000 0.00000 0.00000   12577  -16.75   -8.52  1.0000
   2  11  25     403    2828     0.00000 0.00000 0.00000 0.00000 0.00000 0.00000   -2584  -18.61   -8.17  1.0000
   4  11  25     144    2715     0.00000 0.00000 0.00000 0.00000 0.00000 0.00000    -340   12.00   -1.81  1.0000
   6  11  25   10087    2981     0.00000 0.00000 0.00000 0.00000 0.00000 0.00000    9470   -9.14    5.27  1.0000
   8  11  25   33188    3372     0.00000 0.00000 0.00000 0.00000 0.00000 0.00000   30958   -0.95   14.55  1.0000
  10  11  25   13932    3294     0.00000 0.00000 0.00000 0.00000 0.00000 0.00000   19920   18.04   17.18  1.0000
  12  11  25   11895    3428     0.00000 0.00000 0.00000 0.00000 0.00000 0.00000    7105   12.03   23.08  1.0000
  14  11  25    6915    3576     0.00000 0.00000 0.00000 0.00000 0.00000 0.00000   10779   16.84   16.11  1.0000
  16  11  25   11221    4516     0.00000 0.00000 0.00000 0.00000 0.00000 0.00000    7895   14.80    8.96  1.0000
  18  11  25     247    4394     0.00000 0.00000 0.00000 0.00000 0.00000 0.00000   -1089    1.74  -15.82  1.0000
   1  12  25   65787    3285     0.00000 0.00000 0.00000 0.00000 0.00000 0.00000   56798  -21.63   -4.40  1.0000
   3  12  25   14316    2997     0.00000 0.00000 0.00000 0.00000 0.00000 0.00000   12205    4.29    9.47  1.0000
   5  12  25   29204    3418     0.00000 0.00000 0.00000 0.00000 0.00000 0.00000   26067    3.24  -15.14  1.0000
   7  12  25    9603    3089     0.00000 0.00000 0.00000 0.00000 0.00000 0.00000    5468   33.06   11.34  1.0000
   9  12  25    5312    3981     0.00000 0.00000 0.00000 0.00000 0.00000 0.00000    8617   16.91  -11.44  1.0000
  11  12  25    9506    3474     0.00000 0.00000 0.00000 0.00000 0.00000 0.00000    5564  -12.78   20.68  1.0000
  13  12  25    1954    4116     0.00000 0.00000 0.00000 0.00000 0.00000 0.00000    1108  -28.70    0.48  1.0000
  15  12  25   13375    4101     0.00000 0.00000 0.00000 0.00000 0.00000 0.00000   11390   26.10  -13.03  1.0000
  17  12  25    7665    5834     0.00000 0.00000 0.00000 0.00000 0.00000 0.00000   13149  -25.08  -13.12  1.0000
   2  13  25    1738    3147     0.00000 0.00000 0.00000 0.00000 0.00000 0.00000    1613  -10.11    5.55  1.0000
   4  13  25     178    3082     0.00000 0.00000 0.00000 0.00000 0.00000 0.00000   -2084    9.92   -9.16  1.0000
   6  13  25     630    3396     0.00000 0.00000 0.00000 0.00000 0.00000 0.00000   -5094  -16.08  -19.68  1.0000
   8  13  25    7866    3432     0.00000 0.00000 0.00000 0.00000 0.00000 0.00000    9080  -23.14    5.84  1.0000
  10  13  25   10051    3590     0.00000 0.00000 0.00000 0.00000 0.00000 0.00000   12837   13.78  -14.02  1.0000
  12  13  25    7497    4646     0.00000 0.00000 0.00000 0.00000 0.00000 0.00000    6527   29.29    0.93  1.0000
  14  13  25    1862    4610     0.00000 0.00000 0.00000 0.00000 0.00000 0.00000   -6914  -41.35   14.10  1.0000
  16  13  25   10205    9101     0.00000 0.00000 0.00000 0.00000 0.00000 0.00000   13410  -24.42   -4.07  1.0000
   1  14  25       1    3595     0.00000 0.00000 0.00000 0.00000 0.00000 0.00000     753   18.92  -19.17  1.0000
   3  14  25    2860    3222     0.00000 0.00000 0.00000 0.00000 0.00000 0.00000    7479   19.21  -35.69  1.0000
   5  14  25     101    3826     0.00000 0.00000 0.00000 0.00000 0.00000 0.00000   -4022   -3.68   -9.48  1.0000
   7  14  25    2270    4003     0.00000 0.00000 0.00000 0.00000 0.00000 0.00000    2425  -10.20   22.79  1.0000
   9  14  25     299    3556     0.00000 0.00000 0.00000 0.00000 0.00000 0.00000   -4443   -1.77   17.40  1.0000
  11  14  25    6479    5570     0.00000 0.00000 0.00000 0.00000 0.00000 0.00000   10391  -17.83   16.31  1.0000
  13  14  25    1910    5065     0.00000 0.00000 0.00000 0.00000 0.00000 0.00000   -1404   41.88   14.29  1.0000
  15  14  25    4394   11533     0.00000 0.00000 0.00000 0.00000 0.00000 0.00000   14453   52.55   14.88  1.0000
   2  15  25     481    3728     0.00000 0.00000 0.00000 0.00000 0.00000 0.00000   -5591  -16.15   15.24  1.0000
   4  15  25     560    3723     0.00000 0.00000 0.00000 0.00000 0.00000 0.00000   -1007    2.19   23.85  1.0000
   6  15  25    1570    3784     0.00000 0.00000 0.00000 0.00000 0.00000 0.00000   -1270   21.62   33.79  1.0000
   8  15  25    6351    3821     0.00000 0.00000 0.00000 0.00000 0.00000 0.00000    8501   14.21   16.20  1.0000
  10  15  25    1345    4507     0.00000 0.00000 0.00000 0.00000 0.00000 0.00000    3114  -18.46    5.89  1.0000
  12  15  25    2339    5006     0.00000 0.00000 0.00000 0.00000 0.00000 0.00000    1272  -25.03  -12.31  1.0000
  14  15  25    9327   17366     0.00000 0.00000 0.00000 0.00000 0.00000 0.00000   22707  -52.80   14.75  1.0000
   1  16  25     174    3989     0.00000 0.00000 0.00000 0.00000 0.00000 0.00000   -5983   -0.44   13.35  1.0000
   3  16  25     285    3642     0.00000 0.00000 0.00000 0.00000 0.00000 0.00000    -344  -16.37   -4.88  1.0000
   5  16  25     452    4130     0.00000 0.00000 0.00000 0.00000 0.00000 0.00000   -5564   19.67    8.74  1.0000
   7  16  25     516    4231     0.00000 0.00000 0.00000 0.00000 0.00000 0.00000    2548    6.29  -34.21  1.0000
   9  16  25      50    4158     0.00000 0.00000 0.00000 0.00000 0.00000 0.00000   -6237   -5.67   -4.33  1.0000
  11  16  25     307    6133     0.00000 0.00000 0.00000 0.00000 0.00000 0.00000   -1517  -14.95    9.54  1.0000
  13  16  25     588   13622     0.00000 0.00000 0.00000 0.00000 0.00000 0.00000   -6242   24.10   -4.68  1.0000
   2  17  25     968    3963     0.00000 0.00000 0.00000 0.00000 0.00000 0.00000   -5944   -9.66  -29.98  1.0000
   4  17  25      12    4297     0.00000 0.00000 0.00000 0.00000 0.00000 0.00000   -3485    1.84   -3.03  1.0000
   6  17  25     872    4528     0.00000 0.00000 0.00000 0.00000 0.00000 0.00000   -3907  -23.08   19.00  1.0000
   8  17  25      30    4430     0.00000 0.00000 0.00000 0.00000 0.00000 0.00000   -2862   -0.89   -5.50  1.0000
  10  17  25   16263    8003     0.00000 0.00000 0.00000 0.00000 0.00000 0.00000   20184   16.72   -8.28  1.0000
  12  17  25     791   12268     0.00000 0.00000 0.00000 0.00000 0.00000 0.00000  -12634   24.85  -13.90  1.0000
   1  18  25      43    4419     0.00000 0.00000 0.00000 0.00000 0.00000 0.00000   -1365   -6.53    1.08  1.0000
   3  18  25     860    4137     0.00000 0.00000 0.00000 0.00000 0.00000 0.00000   -6206  -28.40   -8.68  1.0000
   5  18  25      63    4718     0.00000 0.00000 0.00000 0.00000 0.00000 0.00000   -1601   -7.22   -3.47  1.0000
   7  18  25     791    5979     0.00000 0.00000 0.00000 0.00000 0.00000 0.00000    2794   24.95   -2.57  1.0000
   9  18  25     206   11759     0.00000 0.00000 0.00000 0.00000 0.00000 0.00000  -16028   -3.76   14.02  1.0000
  11  18  25     239    5389     0.00000 0.00000 0.00000 0.00000 0.00000 0.00000   -3005   -1.40  -15.58  1.0000
   2  19  25      72    4393     0.00000 0.00000 0.00000 0.00000 0.00000 0.00000   -6590    8.55    0.61  1.0000
   4  19  25    2218    7187     0.00000 0.00000 0.00000 0.00000 0.00000 0.00000    8151   38.23   21.25  1.0000
   6  19  25     136    5032     0.00000 0.00000 0.00000 0.00000 0.00000 0.00000    -341    3.68  -11.23  1.0000
   8  19  25     165    9702     0.00000 0.00000 0.00000 0.00000 0.00000 0.00000  -14085    5.02  -11.99  1.0000
   1  20  25      20    4596     0.00000 0.00000 0.00000 0.00000 0.00000 0.00000   -5433   -0.65   -4.48  1.0000
   3  20  25     114    4756     0.00000 0.00000 0.00000 0.00000 0.00000 0.00000   -4073   -7.69    7.61  1.0000
   5  20  25     739    5584     0.00000 0.00000 0.00000 0.00000 0.00000 0.00000   -5535  -25.91   -9.29  1.0000
   7  20  25     108    6651     0.00000 0.00000 0.00000 0.00000 0.00000 0.00000   -9977    6.99   -7.84  1.0000
   2  21  25     162    5422     0.00000 0.00000 0.00000 0.00000 0.00000 0.00000   -3692   -2.39  -12.66  1.0000
   0   0  26    8186    3666     0.00000 0.00000 0.00000 0.00000 0.00000 0.00000    8856   -3.72    0.87  1.0000
   2   0  26  148400    4242     0.00000 0.00000 0.00000 0.00000 0.00000 0.00000  112562   52.30   85.88  1.0000
   4   0  26    8141    3720     0.00000 0.00000 0.00000 0.00000 0.00000 0.00000    4518   68.51  -40.89  1.0000
   6   0  26     149    3796     0.00000 0.00000 0.00000 0.00000 0.00000 0.00000     636   13.41   -1.48  1.0000
   8   0  26    5681    4198     0.00000 0.00000 0.00000 0.00000 0.00000 0.00000    4043   36.26   20.98  1.0000
  10   0  26   14949    6455     0.00000 0.00000 0.00000 0.00000 0.00000 0.00000   18024   26.79    6.78  1.0000
  12   0  26    9846    3971     0.00000 0.00000 0.00000 0.00000 0.00000 0.00000   10355  -33.71    2.99  1.0000
  14   0  26    1720    4515     0.00000 0.00000 0.00000 0.00000 0.00000 0.00000    5215  -30.89    3.97  1.0000
  16   0  26      46    5390     0.00000 0.00000 0.00000 0.00000 0.00000 0.00000   -2271    2.02    6.60  1.0000
  18   0  26   21954    8401     0.00000 0.00000 0.00000 0.00000 0.00000 0.00000   24218   23.41    9.82  1.0000
  20   0  26   12552    6015     0.00000 0.00000 0.00000 0.00000 0.00000 0.00000   11457   -8.07   -0.22  1.0000
   1   1  26    4940    1790     0.00000 0.00000 0.00000 0.00000 0.00000 0.00000    9673   28.41   -0.26  1.0000
   3   1  26    2095    2494     0.00000 0.00000 0.00000 0.00000 0.00000 0.00000    6888   13.00   36.63  1.0000
   5   1  26    4621    2645     0.00000 0.00000 0.00000 0.00000 0.00000 0.00000    6072    0.57   10.93  1.0000
   7   1  26    5597    3668     0.00000 0.00000 0.00000 0.00000 0.00000 0.00000    6964   -0.33   -8.94  1.0000
   9   1  26   14003    3647     0.00000 0.00000 0.00000 0.00000 0.00000 0.00000   13689   -3.67   -5.12  1.0000
  11   1  26    4023    3748     0.00000 0.00000 0.00000 0.00000 0.00000 0.00000    1590  -27.83    4.37  1.0000
  13   1  26    4229    4233     0.00000 0.00000 0.00000 0.00000 0.00000 0.00000    7630    4.79   25.76  1.0000
  15   1  26    3149    4004     0.00000 0.00000 0.00000 0.00000 0.00000 0.00000    3785  -11.89   -5.76  1.0000
  17   1  26    8112    3846     0.00000 0.00000 0.00000 0.00000 0.00000 0.00000    4906    2.61  -20.11  1.0000
  19   1  26    1386    4241     0.00000 0.00000 0.00000 0.00000 0.00000 0.00000    2449    2.88  -12.21  1.0000
   0   2  26  164784    5404     0.00000 0.00000 0.00000 0.00000 0.00000 0.00000  120238   51.47  -85.63  1.0000
   2   2  26    1706    2334     0.00000 0.00000 0.00000 0.00000 0.00000 0.00000    4974   29.48    4.56  1.0000
   4   2  26   74128    2952     0.00000 0.00000 0.00000 0.00000 0.00000 0.00000   69451   -4.81  -12.94  1.0000
   6   2  26   23012    2900     0.00000 0.00000 0.00000 0.00000 0.00000 0.00000   25059  -12.40  -10.87  1.0000
   8   2  26    3930    2915     0.00000 0.00000 0.00000 0.00000 0.00000 0.00000    5521    1.29  -17.61  1.0000
  10   2  26    4624    3920     0.00000 0.00000 0.00000 0.00000 0.00000 0.00000    8071   16.25   22.04  1.0000
  12   2  26    8529    3337     0.00000 0.00000 0.00000 0.00000 0.00000 0.00000    7434   -6.88   -0.20  1.0000
  14   2  26   11668    3283     0.00000 0.00000 0.00000 0.00000 0.00000 0.00000   10976    6.39   -6.10  1.0000
  16   2  26    8466    4886     0.00000 0.00000 0.00000 0.00000 0.00000 0.00000    9106   -0.89   -9.98  1.0000
  18   2  26    4430    5146     0.00000 0.00000 0.00000 0.00000 0.00000 0.00000    4090   -9.22    3.74  1.0000
  20   2  26   15125    6143     0.00000 0.00000 0.00000 0.00000 0.00000 0.00000   16682   -0.83   -6.20  1.0000
   1   3  26    2061    2700     0.00000 0.00000 0.00000 0.00000 0.00000 0.00000    5951   21.90  -36.57  1.0000
   3   3  26    9899    1812     0.00000 0.00000 0.00000 0.00000 0.00000 0.00000    5827   23.47   -0.11  1.0000
   5   3  26    5539    2821     0.00000 0.00000 0.00000 0.00000 0.00000 0.00000    5896    8.13    7.01  1.0000
   7   3  26   17297    3557     0.00000 0.00000 0.00000 0.00000 0.00000 0.00000   20808    6.80  -10.95  1.0000
   9   3  26   11521    3365     0.00000 0.00000 0.00000 0.00000 0.00000 0.00000   11670   10.41    5.64  1.0000
  11   3  26    7143    2575     0.00000 0.00000 0.00000 0.00000 0.00000 0.00000   12456   12.09  -24.69  1.0000
  13   3  26   11873    3290     0.00000 0.00000 0.00000 0.00000 0.00000 0.00000   12185   -8.21    0.90  1.0000
  15   3  26   13551    4154     0.00000 0.00000 0.00000 0.00000 0.00000 0.00000   10781  -10.48    7.40  1.0000
  17   3  26     680    3631     0.00000 0.00000 0.00000 0.00000 0.00000 0.00000    1715  -17.78    5.14  1.0000
  19   3  26    7018    3793     0.00000 0.00000 0.00000 0.00000 0.00000 0.00000    5724    6.06   10.18  1.0000
   0   4  26   12754    4149     0.00000 0.00000 0.00000 0.00000 0.00000 0.00000    6908   71.50   44.99  1.0000
   2   4  26   77250    4202     0.00000 0.00000 0.00000 0.00000 0.00000 0.00000   70589   -6.90   16.89  1.0000
   4   4  26    9781    2544     0.00000 0.00000 0.00000 0.00000 0.00000 0.00000    6052  -21.38   -1.18  1.0000
   6   4  26    4306    2677     0.00000 0.00000 0.00000 0.00000 0.00000 0.00000    9954   39.40    7.42  1.0000
   8   4  26   12746    6186     0.00000 0.00000 0.00000 0.00000 0.00000 0.00000   16478   36.88  -14.38  1.0000
  10   4  26    1355    2849     0.00000 0.00000 0.00000 0.00000 0.00000 0.00000    3706   14.43   20.76  1.0000
  12   4  26    5527    2384     0.00000 0.00000 0.00000 0.00000 0.00000 0.00000    6915   -8.92   -9.19  1.0000
  14   4  26    4834    2986     0.00000 0.00000 0.00000 0.00000 0.00000 0.00000    5263   -3.12    0.26  1.0000
  16   4  26    5340    3837     0.00000 0.00000 0.00000 0.00000 0.00000 0.00000    5483    9.96   -3.22  1.0000
  18   4  26   11653    4009     0.00000 0.00000 0.00000 0.00000 0.00000 0.00000   11578   -2.39   -0.81  1.0000
  20   4  26    4258    4354     0.00000 0.00000 0.00000 0.00000 0.00000 0.00000    6096   17.81   -6.05  1.0000
   1   5  26    4302    2536     0.00000 0.00000 0.00000 0.00000 0.00000 0.00000    5786   -0.79  -10.72  1.0000
   3   5  26    2720    1796     0.00000 0.00000 0.00000 0.00000 0.00000 0.00000    2850   15.98   -7.41  1.0000
   5   5  26   18628    2124     0.00000 0.00000 0.00000 0.00000 0.00000 0.00000   22453   13.67   -1.49  1.0000
   7   5  26   12069    1730     0.00000 0.00000 0.00000 0.00000 0.00000 0.00000   13134   -9.48  -12.25  1.0000
   9   5  26    5464    2719     0.00000 0.00000 0.00000 0.00000 0.00000 0.00000    5317   -1.14   -0.01  1.0000
  11   5  26    1227    2658     0.00000 0.00000 0.00000 0.00000 0.00000 0.00000     626   24.15    6.80  1.0000
  13   5  26    2240    2683     0.00000 0.00000 0.00000 0.00000 0.00000 0.00000    3140    3.94    9.11  1.0000
  15   5  26   15267    3478     0.00000 0.00000 0.00000 0.00000 0.00000 0.00000   12162   16.99   -6.78  1.0000
  17   5  26    5165    3712     0.00000 0.00000 0.00000 0.00000 0.00000 0.00000    4231    6.45   -7.24  1.0000
  19   5  26    8308    4704     0.00000 0.00000 0.00000 0.00000 0.00000 0.00000   10949   -1.19   13.64  1.0000
   0   6  26     382    2981     0.00000 0.00000 0.00000 0.00000 0.00000 0.00000     741   12.46    3.54  1.0000
   2   6  26   20596    2486     0.00000 0.00000 0.00000 0.00000 0.00000 0.00000   22329   -8.47    8.84  1.0000
   4   6  26     673    1989     0.00000 0.00000 0.00000 0.00000 0.00000 0.00000    3438   36.47   -9.56  1.0000
   6   6  26    4838    2210     0.00000 0.00000 0.00000 0.00000 0.00000 0.00000    6210   -9.90    4.04  1.0000
   8   6  26   13182    2192     0.00000 0.00000 0.00000 0.00000 0.00000 0.00000   14209    6.02   -3.58  1.0000
  10   6  26    4462    2165     0.00000 0.00000 0.00000 0.00000 0.00000 0.00000    4890    8.51   15.95  1.0000
  12   6  26    5273    3870     0.00000 0.00000 0.00000 0.00000 0.00000 0.00000    5487    1.12    4.88  1.0000
  14   6  26     747    3348     0.00000 0.00000 0.00000 0.00000 0.00000 0.00000   -1234   13.18  -24.32  1.0000
  16   6  26    2513    3894     0.00000 0.00000 0.00000 0.00000 0.00000 0.00000    3823   -2.21   14.81  1.0000
  18   6  26    2477    4485     0.00000 0.00000 0.00000 0.00000 0.00000 0.00000    1208  -14.33    5.48  1.0000
  20   6  26    9854    5560     0.00000 0.00000 0.00000 0.00000 0.00000 0.00000    9594    2.92   -1.84  1.0000
   1   7  26     166    2259     0.00000 0.00000 0.00000 0.00000 0.00000 0.00000     395   -1.18    7.33  1.0000
   3   7  26    8785    2239     0.00000 0.00000 0.00000 0.00000 0.00000 0.00000   11113    8.13    9.07  1.0000
   5   7  26    4438    2627     0.00000 0.00000 0.00000 0.00000 0.00000 0.00000    4910   -9.48   10.10  1.0000
   7   7  26    4183    2854     0.00000 0.00000 0.00000 0.00000 0.00000 0.00000    4750    2.71   -5.22  1.0000
   9   7  26    9962    2366     0.00000 0.00000 0.00000 0.00000 0.00000 0.00000   10863    6.90   -5.61  1.0000
  11   7  26   11475    2705     0.00000 0.00000 0.00000 0.00000 0.00000 0.00000    9033   10.26   -6.69  1.0000
  13   7  26    2164    3084     0.00000 0.00000 0.00000 0.00000 0.00000 0.00000    2797    2.22   10.31  1.0000
  15   7  26    4986    3242     0.00000 0.00000 0.00000 0.00000 0.00000 0.00000    5034  -11.77    3.20  1.0000
  17   7  26    3788    4055     0.00000 0.00000 0.00000 0.00000 0.00000 0.00000    4895   -0.03  -10.13  1.0000
  19   7  26   11722    4212     0.00000 0.00000 0.00000 0.00000 0.00000 0.00000   10522  -11.72   10.35  1.0000
   0   8  26    5871    3508     0.00000 0.00000 0.00000 0.00000 0.00000 0.00000    5011   33.24  -21.19  1.0000
   2   8  26     787    3016     0.00000 0.00000 0.00000 0.00000 0.00000 0.00000    1373    2.36   20.02  1.0000
   4   8  26    4657    4119     0.00000 0.00000 0.00000 0.00000 0.00000 0.00000    6469   37.62   14.21  1.0000
   6   8  26   10902    2564     0.00000 0.00000 0.00000 0.00000 0.00000 0.00000   12128    2.68    5.49  1.0000
   8   8  26    4002    2999     0.00000 0.00000 0.00000 0.00000 0.00000 0.00000    7092   21.00    3.06  1.0000
  10   8  26    4289    2834     0.00000 0.00000 0.00000 0.00000 0.00000 0.00000    5117    3.23  -11.27  1.0000
  12   8  26     214    3087     0.00000 0.00000 0.00000 0.00000 0.00000 0.00000   -1906    0.65   14.81  1.0000
  14   8  26      33    2932     0.00000 0.00000 0.00000 0.00000 0.00000 0.00000     -47    5.58    1.67  1.0000
  16   8  26    4675    5233     0.00000 0.00000 0.00000 0.00000 0.00000 0.00000    9173    2.17   29.62  1.0000
  18   8  26    8585    4767     0.00000 0.00000 0.00000 0.00000 0.00000 0.00000   12308  -16.89  -10.62  1.0000
   1   9  26      42    2660     0.00000 0.00000 0.00000 0.00000 0.00000 0.00000    -242   -4.37    4.89  1.0000
   3   9  26     575    2648     0.00000 0.00000 0.00000 0.00000 0.00000 0.00000     646    7.09   -5.80  1.0000
   5   9  26    2125    2637     0.00000 0.00000 0.00000 0.00000 0.00000 0.00000    1942   -2.20   -0.02  1.0000
   7   9  26   10951    2664     0.00000 0.00000 0.00000 0.00000 0.00000 0.00000   11595    8.34    4.15  1.0000
   9   9  26    2646    3009     0.00000 0.00000 0.00000 0.00000 0.00000 0.00000    9087   44.36    3.86  1.0000
  11   9  26    2766    2859     0.00000 0.00000 0.00000 0.00000 0.00000 0.00000    5054   17.85   -9.89  1.0000
  13   9  26    1581    3110     0.00000 0.00000 0.00000 0.00000 0.00000 0.00000    2120  -17.03  -27.13  1.0000
  15   9  26    2489    3200     0.00000 0.00000 0.00000 0.00000 0.00000 0.00000    4156  -14.32  -20.07  1.0000
  17   9  26     110    4374     0.00000 0.00000 0.00000 0.00000 0.00000 0.00000     153    2.67  -12.88  1.0000
   0  10  26    7437    3880     0.00000 0.00000 0.00000 0.00000 0.00000 0.00000    9550   25.34   -7.91  1.0000
   2  10  26     826    2734     0.00000 0.00000 0.00000 0.00000 0.00000 0.00000   -4102   16.98  -23.63  1.0000
   4  10  26     649    2652     0.00000 0.00000 0.00000 0.00000 0.00000 0.00000    -128   15.27  -20.79  1.0000
   6  10  26    1161    2802     0.00000 0.00000 0.00000 0.00000 0.00000 0.00000    1317    8.09  -18.00  1.0000
   8  10  26     157    2915     0.00000 0.00000 0.00000 0.00000 0.00000 0.00000    -259    4.90   11.71  1.0000
  10  10  26    5644    3218     0.00000 0.00000 0.00000 0.00000 0.00000 0.00000    2410  -26.39   -0.56  1.0000
  12  10  26    2936    3091     0.00000 0.00000 0.00000 0.00000 0.00000 0.00000    3984    1.28   11.77  1.0000
  14  10  26    2704    3054     0.00000 0.00000 0.00000 0.00000 0.00000 0.00000    2132   -3.99    4.76  1.0000
  16  10  26    2774    3656     0.00000 0.00000 0.00000 0.00000 0.00000 0.00000    3049    4.97    8.08  1.0000
  18  10  26     107    4255     0.00000 0.00000 0.00000 0.00000 0.00000 0.00000   -6383   -4.54   -9.46  1.0000
   1  11  26    1802    2866     0.00000 0.00000 0.00000 0.00000 0.00000 0.00000     447  -27.33   -4.41  1.0000
   3  11  26    1662    3148     0.00000 0.00000 0.00000 0.00000 0.00000 0.00000    4587   11.68   25.00  1.0000
   5  11  26     656    3250     0.00000 0.00000 0.00000 0.00000 0.00000 0.00000   -2021   25.07   -6.61  1.0000
   7  11  26    6632    3085     0.00000 0.00000 0.00000 0.00000 0.00000 0.00000    4870    9.88    6.49  1.0000
   9  11  26    2150    3421     0.00000 0.00000 0.00000 0.00000 0.00000 0.00000    3691   17.04    7.12  1.0000
  11  11  26    1056    3345     0.00000 0.00000 0.00000 0.00000 0.00000 0.00000    2872   21.25   -5.51  1.0000
  13  11  26     362    3377     0.00000 0.00000 0.00000 0.00000 0.00000 0.00000   -2238   -7.96  -17.54  1.0000
  15  11  26    5751    3532     0.00000 0.00000 0.00000 0.00000 0.00000 0.00000    4229   -8.94   12.55  1.0000
  17  11  26    2155    4990     0.00000 0.00000 0.00000 0.00000 0.00000 0.00000    2479   14.90   13.87  1.0000
   0  12  26   11643    4363     0.00000 0.00000 0.00000 0.00000 0.00000 0.00000   12396  -32.68   -1.34  1.0000
   2  12  26      55    3080     0.00000 0.00000 0.00000 0.00000 0.00000 0.00000   -2024   -7.43    1.11  1.0000
   4  12  26      80    2934     0.00000 0.00000 0.00000 0.00000 0.00000 0.00000     100   -9.34    8.99  1.0000
   6  12  26      19    3246     0.00000 0.00000 0.00000 0.00000 0.00000 0.00000   -4870    1.47   -4.10  1.0000
   8  12  26     208    3301     0.00000 0.00000 0.00000 0.00000 0.00000 0.00000   -3427   -0.36  -14.58  1.0000
  10  12  26    2001    3475     0.00000 0.00000 0.00000 0.00000 0.00000 0.00000    2815    2.30  -10.12  1.0000
  12  12  26      37    3651     0.00000 0.00000 0.00000 0.00000 0.00000 0.00000   -2514    6.16    0.43  1.0000
  14  12  26      97    3896     0.00000 0.00000 0.00000 0.00000 0.00000 0.00000   -3710    9.91   -1.27  1.0000
  16  12  26     137    6581     0.00000 0.00000 0.00000 0.00000 0.00000 0.00000   -2252   10.73    5.00  1.0000
   1  13  26     685    3239     0.00000 0.00000 0.00000 0.00000 0.00000 0.00000   -2170    5.79  -25.85  1.0000
   3  13  26     345    3338     0.00000 0.00000 0.00000 0.00000 0.00000 0.00000     411   -6.74   -2.44  1.0000
   5  13  26     103    3422     0.00000 0.00000 0.00000 0.00000 0.00000 0.00000   -3641    4.41   -9.29  1.0000
   7  13  26      90    3531     0.00000 0.00000 0.00000 0.00000 0.00000 0.00000   -4809    0.89   -9.54  1.0000
   9  13  26    3669    3597     0.00000 0.00000 0.00000 0.00000 0.00000 0.00000    5355  -16.35   27.61  1.0000
  11  13  26     362    3734     0.00000 0.00000 0.00000 0.00000 0.00000 0.00000   -3855   -8.32   17.38  1.0000
  13  13  26     284    3899     0.00000 0.00000 0.00000 0.00000 0.00000 0.00000     538   -6.96    1.21  1.0000
  15  13  26     140    5201     0.00000 0.00000 0.00000 0.00000 0.00000 0.00000   -1341    3.76  -11.35  1.0000
   0  14  26     263    5547     0.00000 0.00000 0.00000 0.00000 0.00000 0.00000    1774  -32.04   -3.58  1.0000
   2  14  26    6010    3325     0.00000 0.00000 0.00000 0.00000 0.00000 0.00000    5435    6.09    6.19  1.0000
   4  14  26       7    3485     0.00000 0.00000 0.00000 0.00000 0.00000 0.00000   -5228   -2.66   -0.22  1.0000
   6  14  26     772    3483     0.00000 0.00000 0.00000 0.00000 0.00000 0.00000   -2318   12.79   25.05  1.0000
   8  14  26      42    3546     0.00000 0.00000 0.00000 0.00000 0.00000 0.00000   -4675    6.37   -1.53  1.0000
  10  14  26      35    4541     0.00000 0.00000 0.00000 0.00000 0.00000 0.00000   -5269   -4.11   -4.36  1.0000
  12  14  26      92    4337     0.00000 0.00000 0.00000 0.00000 0.00000 0.00000   -2329    9.57    1.73  1.0000
  14  14  26    1511    7413     0.00000 0.00000 0.00000 0.00000 0.00000 0.00000    2658   12.88   -0.79  1.0000
   1  15  26     185    3704     0.00000 0.00000 0.00000 0.00000 0.00000 0.00000    -530  -12.35    6.10  1.0000
   3  15  26    1797    3406     0.00000 0.00000 0.00000 0.00000 0.00000 0.00000     897  -10.83   -6.49  1.0000
   5  15  26    2030    4843     0.00000 0.00000 0.00000 0.00000 0.00000 0.00000     841   17.21    6.81  1.0000
   7  15  26     146    3752     0.00000 0.00000 0.00000 0.00000 0.00000 0.00000   -3203  -11.80   -3.21  1.0000
   9  15  26     615    4101     0.00000 0.00000 0.00000 0.00000 0.00000 0.00000   -6152  -13.91   20.89  1.0000
  11  15  26     228    5574     0.00000 0.00000 0.00000 0.00000 0.00000 0.00000   -5095   -9.54  -11.94  1.0000
  13  15  26     146    5682     0.00000 0.00000 0.00000 0.00000 0.00000 0.00000   -4144    3.71   11.66  1.0000
   0  16  26      45    5926     0.00000 0.00000 0.00000 0.00000 0.00000 0.00000   -3020    2.78   -6.22  1.0000
   2  16  26      77    4056     0.00000 0.00000 0.00000 0.00000 0.00000 0.00000    -552    0.55    8.87  1.0000
   4  16  26     113    4005     0.00000 0.00000 0.00000 0.00000 0.00000 0.00000   -2942   10.22    3.39  1.0000
   6  16  26     208    4845     0.00000 0.00000 0.00000 0.00000 0.00000 0.00000   -7267   -3.01  -14.30  1.0000
   8  16  26    2405    4785     0.00000 0.00000 0.00000 0.00000 0.00000 0.00000    5962    1.57  -30.11  1.0000
  10  16  26      96    4775     0.00000 0.00000 0.00000 0.00000 0.00000 0.00000    -814    5.00   -8.55  1.0000
  12  16  26     133    6517     0.00000 0.00000 0.00000 0.00000 0.00000 0.00000   -5845   10.70   -4.68  1.0000
   1  17  26     405    4984     0.00000 0.00000 0.00000 0.00000 0.00000 0.00000   -1596    2.58   20.20  1.0000
   3  17  26     336    4325     0.00000 0.00000 0.00000 0.00000 0.00000 0.00000   -6488  -18.08   -4.24  1.0000
   5  17  26    2006    4002     0.00000 0.00000 0.00000 0.00000 0.00000 0.00000    1463    5.22    6.64  1.0000
   7  17  26      97    4739     0.00000 0.00000 0.00000 0.00000 0.00000 0.00000   -7109   -0.37    9.95  1.0000
   9  17  26     760    6112     0.00000 0.00000 0.00000 0.00000 0.00000 0.00000     690    3.42   11.35  1.0000
  11  17  26     430    7469     0.00000 0.00000 0.00000 0.00000 0.00000 0.00000  -10078   15.58  -14.06  1.0000
   0  18  26   21705    6144     0.00000 0.00000 0.00000 0.00000 0.00000 0.00000   24042   23.37  -10.01  1.0000
   2  18  26      84    4303     0.00000 0.00000 0.00000 0.00000 0.00000 0.00000   -6203   -8.50   -3.69  1.0000
   4  18  26       1    4111     0.00000 0.00000 0.00000 0.00000 0.00000 0.00000   -6166   -0.92    0.50  1.0000
   6  18  26     220    5224     0.00000 0.00000 0.00000 0.00000 0.00000 0.00000   -5671  -13.75   -6.00  1.0000
   8  18  26     346    7907     0.00000 0.00000 0.00000 0.00000 0.00000 0.00000   -3401  -15.39   10.83  1.0000
  10  18  26     650    5320     0.00000 0.00000 0.00000 0.00000 0.00000 0.00000    1045   -4.75   10.43  1.0000
   1  19  26     163    4525     0.00000 0.00000 0.00000 0.00000 0.00000 0.00000   -1279    2.04   12.75  1.0000
   3  19  26     140    4829     0.00000 0.00000 0.00000 0.00000 0.00000 0.00000    -954    5.02  -10.89  1.0000
   5  19  26     183    7011     0.00000 0.00000 0.00000 0.00000 0.00000 0.00000   -2774   -3.33  -13.29  1.0000
   7  19  26     707    5372     0.00000 0.00000 0.00000 0.00000 0.00000 0.00000     255  -12.70  -10.47  1.0000
   0  20  26      82    6819     0.00000 0.00000 0.00000 0.00000 0.00000 0.00000   -4677   -9.13   -0.54  1.0000
   2  20  26   11937    5576     0.00000 0.00000 0.00000 0.00000 0.00000 0.00000   13242   -1.10    5.80  1.0000
   4  20  26     378    4564     0.00000 0.00000 0.00000 0.00000 0.00000 0.00000   -5523   18.51    6.66  1.0000
   6  20  26       6    7142     0.00000 0.00000 0.00000 0.00000 0.00000 0.00000   -5525    1.69    1.71  1.0000
   2   1  27    5713    2057     0.00000 0.00000 0.00000 0.00000 0.00000 0.00000    6329   11.88   41.88  1.0000
   4   1  27   42285    2731     0.00000 0.00000 0.00000 0.00000 0.00000 0.00000   43125  -12.34   20.06  1.0000
   6   1  27   30470    2978     0.00000 0.00000 0.00000 0.00000 0.00000 0.00000   29712   -4.22   -1.69  1.0000
   8   1  27    8009    3608     0.00000 0.00000 0.00000 0.00000 0.00000 0.00000    5353   -4.60  -17.40  1.0000
  10   1  27   66602    4518     0.00000 0.00000 0.00000 0.00000 0.00000 0.00000   72318  -33.24   24.26  1.0000
  12   1  27    9171    3718     0.00000 0.00000 0.00000 0.00000 0.00000 0.00000    8339    1.11   -8.05  1.0000
  14   1  27   17750    4482     0.00000 0.00000 0.00000 0.00000 0.00000 0.00000   19808   15.72    0.57  1.0000
  16   1  27    9967    5660     0.00000 0.00000 0.00000 0.00000 0.00000 0.00000    7339   11.84    9.10  1.0000
  18   1  27    1452    3789     0.00000 0.00000 0.00000 0.00000 0.00000 0.00000    2195    8.05   -4.35  1.0000
  20   1  27    3804    3996     0.00000 0.00000 0.00000 0.00000 0.00000 0.00000    1673   21.45    6.82  1.0000
   1   2  27    4268    1937     0.00000 0.00000 0.00000 0.00000 0.00000 0.00000    6431  -13.69   46.58  1.0000
   3   2  27    6707    2653     0.00000 0.00000 0.00000 0.00000 0.00000 0.00000    7525   -3.93   -5.02  1.0000
   5   2  27    5176    3750     0.00000 0.00000 0.00000 0.00000 0.00000 0.00000    8390  -16.53   27.26  1.0000
   7   2  27   20971    3630     0.00000 0.00000 0.00000 0.00000 0.00000 0.00000   22810   24.00  -13.57  1.0000
   9   2  27    2450    3741     0.00000 0.00000 0.00000 0.00000 0.00000 0.00000    1410  -17.78   -6.97  1.0000
  11   2  27   18417    4768     0.00000 0.00000 0.00000 0.00000 0.00000 0.00000   14683   -9.21  -11.74  1.0000
  13   2  27    2977    3653     0.00000 0.00000 0.00000 0.00000 0.00000 0.00000    2568    4.48   12.69  1.0000
  15   2  27    1433    4301     0.00000 0.00000 0.00000 0.00000 0.00000 0.00000    2683  -11.29  -22.34  1.0000
  17   2  27   10777    4840     0.00000 0.00000 0.00000 0.00000 0.00000 0.00000   10382    5.33   -0.09  1.0000
  19   2  27    5199    4445     0.00000 0.00000 0.00000 0.00000 0.00000 0.00000    5587    5.53    0.61  1.0000
   2   3  27   10218    2993     0.00000 0.00000 0.00000 0.00000 0.00000 0.00000   10817    3.06   -0.67  1.0000
   4   3  27    5675    2961     0.00000 0.00000 0.00000 0.00000 0.00000 0.00000    6074   -9.67   -3.08  1.0000
   6   3  27    1269    2805     0.00000 0.00000 0.00000 0.00000 0.00000 0.00000    3184   28.45   14.93  1.0000
   8   3  27    7889    3437     0.00000 0.00000 0.00000 0.00000 0.00000 0.00000    9392   19.51  -14.98  1.0000
  10   3  27   16282    3583     0.00000 0.00000 0.00000 0.00000 0.00000 0.00000   21179   -2.60  -18.75  1.0000
  12   3  27   15898    3822     0.00000 0.00000 0.00000 0.00000 0.00000 0.00000   15734   15.63  -14.92  1.0000
  14   3  27   19223    2985     0.00000 0.00000 0.00000 0.00000 0.00000 0.00000   11205   15.97   36.74  1.0000
  16   3  27    3173    3856     0.00000 0.00000 0.00000 0.00000 0.00000 0.00000    5020   16.02    7.21  1.0000
  18   3  27    5516    3657     0.00000 0.00000 0.00000 0.00000 0.00000 0.00000    7825    8.05  -11.92  1.0000
  20   3  27   10066    6779     0.00000 0.00000 0.00000 0.00000 0.00000 0.00000   13575   13.19    9.72  1.0000
   1   4  27   38546    3461     0.00000 0.00000 0.00000 0.00000 0.00000 0.00000   40321   10.68   21.87  1.0000
   3   4  27     964    2949     0.00000 0.00000 0.00000 0.00000 0.00000 0.00000    1085   11.52   -3.57  1.0000
   5   4  27   13843    2734     0.00000 0.00000 0.00000 0.00000 0.00000 0.00000   11432  -15.94   -0.48  1.0000
   7   4  27    9197    3707     0.00000 0.00000 0.00000 0.00000 0.00000 0.00000   13053  -17.12  -11.72  1.0000
   9   4  27    5669    3340     0.00000 0.00000 0.00000 0.00000 0.00000 0.00000    5204  -22.78    9.84  1.0000
  11   4  27    8566    2778     0.00000 0.00000 0.00000 0.00000 0.00000 0.00000    9848  -17.07   -7.32  1.0000
  13   4  27    2226    3107     0.00000 0.00000 0.00000 0.00000 0.00000 0.00000    4657   -9.93  -19.70  1.0000
  15   4  27    2893    3321     0.00000 0.00000 0.00000 0.00000 0.00000 0.00000    3039    2.18    2.33  1.0000
  17   4  27    5115    4994     0.00000 0.00000 0.00000 0.00000 0.00000 0.00000    4860    6.23  -10.18  1.0000
  19   4  27    2501    3890     0.00000 0.00000 0.00000 0.00000 0.00000 0.00000    4698  -15.13   15.83  1.0000
   2   5  27    2860    2604     0.00000 0.00000 0.00000 0.00000 0.00000 0.00000    4639   16.57   31.58  1.0000
   4   5  27   13729    2134     0.00000 0.00000 0.00000 0.00000 0.00000 0.00000   11860   16.31   -1.47  1.0000
   6   5  27   33312    2268     0.00000 0.00000 0.00000 0.00000 0.00000 0.00000   33552  -24.54   10.62  1.0000
   8   5  27    5478    2593     0.00000 0.00000 0.00000 0.00000 0.00000 0.00000    8923  -16.95   17.56  1.0000
  10   5  27   31588    2853     0.00000 0.00000 0.00000 0.00000 0.00000 0.00000   27621  -12.00   -6.35  1.0000
  12   5  27    3974    3587     0.00000 0.00000 0.00000 0.00000 0.00000 0.00000    4304   -2.90   15.05  1.0000
  14   5  27   10167    3841     0.00000 0.00000 0.00000 0.00000 0.00000 0.00000   13445    1.41   15.55  1.0000
  16   5  27    5835    3783     0.00000 0.00000 0.00000 0.00000 0.00000 0.00000    7527   -9.76   -4.70  1.0000
  18   5  27    3530    4401     0.00000 0.00000 0.00000 0.00000 0.00000 0.00000    3785   -0.13   -2.63  1.0000
   1   6  27   25102    2253     0.00000 0.00000 0.00000 0.00000 0.00000 0.00000   23692    3.50   -4.15  1.0000
   3   6  27    3144    2736     0.00000 0.00000 0.00000 0.00000 0.00000 0.00000    4142  -28.82   15.41  1.0000
   5   6  27   32287    2786     0.00000 0.00000 0.00000 0.00000 0.00000 0.00000   33161   26.30   12.82  1.0000
   7   6  27   12032    2223     0.00000 0.00000 0.00000 0.00000 0.00000 0.00000   14550   11.71   -1.52  1.0000
   9   6  27   24375    2521     0.00000 0.00000 0.00000 0.00000 0.00000 0.00000   28810   -3.33   14.79  1.0000
  11   6  27    9897    2402     0.00000 0.00000 0.00000 0.00000 0.00000 0.00000   10339   -9.59    8.55  1.0000
  13   6  27    3815    2880     0.00000 0.00000 0.00000 0.00000 0.00000 0.00000    5810  -19.38  -15.61  1.0000
  15   6  27    4641    3529     0.00000 0.00000 0.00000 0.00000 0.00000 0.00000    5315   -8.26   -5.95  1.0000
  17   6  27    7019    3717     0.00000 0.00000 0.00000 0.00000 0.00000 0.00000   10286   -9.07  -15.68  1.0000
  19   6  27    2643    3998     0.00000 0.00000 0.00000 0.00000 0.00000 0.00000    3335   -2.39   10.51  1.0000
   2   7  27   15442    2710     0.00000 0.00000 0.00000 0.00000 0.00000 0.00000   16667  -23.77  -12.60  1.0000
   4   7  27     939    2862     0.00000 0.00000 0.00000 0.00000 0.00000 0.00000    2099   17.15  -12.34  1.0000
   6   7  27   11231    2362     0.00000 0.00000 0.00000 0.00000 0.00000 0.00000   14032  -13.35   -2.04  1.0000
   8   7  27    9089    2371     0.00000 0.00000 0.00000 0.00000 0.00000 0.00000   14955   33.38    0.35  1.0000
  10   7  27    5089    2517     0.00000 0.00000 0.00000 0.00000 0.00000 0.00000    2929   18.21   -0.37  1.0000
  12   7  27   16216    2946     0.00000 0.00000 0.00000 0.00000 0.00000 0.00000   15778   10.91   -1.18  1.0000
  14   7  27    2440    3437     0.00000 0.00000 0.00000 0.00000 0.00000 0.00000    2568    6.70   -5.58  1.0000
  16   7  27      11    4657     0.00000 0.00000 0.00000 0.00000 0.00000 0.00000   -1107   -1.12    3.18  1.0000
  18   7  27    4237    3967     0.00000 0.00000 0.00000 0.00000 0.00000 0.00000    8255   26.15  -14.99  1.0000
   1   8  27     355    2634     0.00000 0.00000 0.00000 0.00000 0.00000 0.00000   -1443    4.35  -18.58  1.0000
   3   8  27     499    2402     0.00000 0.00000 0.00000 0.00000 0.00000 0.00000   -1627  -18.08  -13.60  1.0000
   5   8  27     306    2496     0.00000 0.00000 0.00000 0.00000 0.00000 0.00000    1199   21.81   17.26  1.0000
   7   8  27   10946    3014     0.00000 0.00000 0.00000 0.00000 0.00000 0.00000   16272  -33.51   -0.13  1.0000
   9   8  27   17738    4386     0.00000 0.00000 0.00000 0.00000 0.00000 0.00000   13638   -2.98   17.71  1.0000
  11   8  27   23688    3498     0.00000 0.00000 0.00000 0.00000 0.00000 0.00000   25989  -25.03   15.06  1.0000
  13   8  27   16663    3055     0.00000 0.00000 0.00000 0.00000 0.00000 0.00000   14716    0.33    8.06  1.0000
  15   8  27      13    3527     0.00000 0.00000 0.00000 0.00000 0.00000 0.00000   -1789    3.51   -1.15  1.0000
  17   8  27    6072    3904     0.00000 0.00000 0.00000 0.00000 0.00000 0.00000    5431   -5.57  -19.43  1.0000
   2   9  27     334    2871     0.00000 0.00000 0.00000 0.00000 0.00000 0.00000   -1822   16.95   -7.45  1.0000
   4   9  27     529    2736     0.00000 0.00000 0.00000 0.00000 0.00000 0.00000    -389   21.32    9.34  1.0000
   6   9  27   23164    3181     0.00000 0.00000 0.00000 0.00000 0.00000 0.00000   27401    2.96   14.56  1.0000
   8   9  27   12635    4226     0.00000 0.00000 0.00000 0.00000 0.00000 0.00000    9359    1.99   16.88  1.0000
  10   9  27   11134    3089     0.00000 0.00000 0.00000 0.00000 0.00000 0.00000   12475   -6.75   -0.07  1.0000
  12   9  27    4981    3055     0.00000 0.00000 0.00000 0.00000 0.00000 0.00000    9898   31.66   -0.94  1.0000
  14   9  27    2370    3135     0.00000 0.00000 0.00000 0.00000 0.00000 0.00000    1902    6.07    0.30  1.0000
  16   9  27     877    3787     0.00000 0.00000 0.00000 0.00000 0.00000 0.00000   -4590  -17.07   24.65  1.0000
  18   9  27    2314    4252     0.00000 0.00000 0.00000 0.00000 0.00000 0.00000    5032   -3.18   23.23  1.0000
   1  10  27   64601    3497     0.00000 0.00000 0.00000 0.00000 0.00000 0.00000   69716   33.22   25.04  1.0000
   3  10  27    5180    3024     0.00000 0.00000 0.00000 0.00000 0.00000 0.00000    7904    3.64  -17.96  1.0000
   5  10  27   20337    3128     0.00000 0.00000 0.00000 0.00000 0.00000 0.00000   16953   11.59   -7.17  1.0000
   7  10  27     736    2989     0.00000 0.00000 0.00000 0.00000 0.00000 0.00000      95  -18.08   -0.55  1.0000
   9  10  27    7551    3412     0.00000 0.00000 0.00000 0.00000 0.00000 0.00000    8547    7.14    0.49  1.0000
  11  10  27   27676    4739     0.00000 0.00000 0.00000 0.00000 0.00000 0.00000   34110   21.32   16.44  1.0000
  13  10  27    8101    3673     0.00000 0.00000 0.00000 0.00000 0.00000 0.00000   11354   14.22   15.11  1.0000
  15  10  27   10121    3593     0.00000 0.00000 0.00000 0.00000 0.00000 0.00000   11545   -7.36    0.84  1.0000
  17  10  27   12388    5215     0.00000 0.00000 0.00000 0.00000 0.00000 0.00000   11064  -25.14   -9.63  1.0000
   2  11  27   10054    3165     0.00000 0.00000 0.00000 0.00000 0.00000 0.00000    7201   10.67  -11.62  1.0000
   4  11  27    3855    2916     0.00000 0.00000 0.00000 0.00000 0.00000 0.00000    4629   17.07   -7.18  1.0000
   6  11  27    4988    3235     0.00000 0.00000 0.00000 0.00000 0.00000 0.00000    5180    8.80    8.09  1.0000
   8  11  27   22071    3303     0.00000 0.00000 0.00000 0.00000 0.00000 0.00000   25220   23.39   14.96  1.0000
  10  11  27   24160    3458     0.00000 0.00000 0.00000 0.00000 0.00000 0.00000   30293  -21.36   16.75  1.0000
  12  11  27    4139    3561     0.00000 0.00000 0.00000 0.00000 0.00000 0.00000    1760  -20.43   10.31  1.0000
  14  11  27    6190    3646     0.00000 0.00000 0.00000 0.00000 0.00000 0.00000    6303  -10.17   -6.04  1.0000
  16  11  27    2690    3654     0.00000 0.00000 0.00000 0.00000 0.00000 0.00000    3161   12.52   15.54  1.0000
   1  12  27      34    4020     0.00000 0.00000 0.00000 0.00000 0.00000 0.00000    -302   -0.52   -5.87  1.0000
   3  12  27    3703    4094     0.00000 0.00000 0.00000 0.00000 0.00000 0.00000    2785  -16.72  -16.18  1.0000
   5  12  27    4258    3316     0.00000 0.00000 0.00000 0.00000 0.00000 0.00000    4413    2.82   15.80  1.0000
   7  12  27    9946    3297     0.00000 0.00000 0.00000 0.00000 0.00000 0.00000    9464  -10.05   -0.05  1.0000
   9  12  27    4262    3534     0.00000 0.00000 0.00000 0.00000 0.00000 0.00000    7469  -30.60   -1.30  1.0000
  11  12  27    9345    3656     0.00000 0.00000 0.00000 0.00000 0.00000 0.00000    5682   19.85   10.38  1.0000
  13  12  27      96    3945     0.00000 0.00000 0.00000 0.00000 0.00000 0.00000   -3605   -9.11    3.97  1.0000
  15  12  27    2992    4039     0.00000 0.00000 0.00000 0.00000 0.00000 0.00000    2563   -3.81  -12.78  1.0000
   2  13  27     180    3173     0.00000 0.00000 0.00000 0.00000 0.00000 0.00000   -4080   -4.12   12.94  1.0000
   4  13  27     481    3546     0.00000 0.00000 0.00000 0.00000 0.00000 0.00000   -3533    9.55  -20.04  1.0000
   6  13  27     687    3453     0.00000 0.00000 0.00000 0.00000 0.00000 0.00000     -93   19.57  -17.91  1.0000
   8  13  27    3781    3501     0.00000 0.00000 0.00000 0.00000 0.00000 0.00000    2926   -0.38    7.62  1.0000
  10  13  27    3928    3818     0.00000 0.00000 0.00000 0.00000 0.00000 0.00000    5261  -14.25   16.63  1.0000
  12  13  27     108    3904     0.00000 0.00000 0.00000 0.00000 0.00000 0.00000   -3044    9.67    4.16  1.0000
  14  13  27      27    4187     0.00000 0.00000 0.00000 0.00000 0.00000 0.00000   -3251   -0.33    5.28  1.0000
   1  14  27   12431    3542     0.00000 0.00000 0.00000 0.00000 0.00000 0.00000   14296  -14.96    1.45  1.0000
   3  14  27    2247    3626     0.00000 0.00000 0.00000 0.00000 0.00000 0.00000      91  -16.59   36.52  1.0000
   5  14  27    4020    3929     0.00000 0.00000 0.00000 0.00000 0.00000 0.00000    6157    0.50   16.10  1.0000
   7  14  27     356    3827     0.00000 0.00000 0.00000 0.00000 0.00000 0.00000     277   -6.49   -5.05  1.0000
   9  14  27      43    4482     0.00000 0.00000 0.00000 0.00000 0.00000 0.00000   -2132   -6.66   -0.03  1.0000
  11  14  27    9402    3995     0.00000 0.00000 0.00000 0.00000 0.00000 0.00000    8975   10.27   -7.13  1.0000
  13  14  27      34    4342     0.00000 0.00000 0.00000 0.00000 0.00000 0.00000   -2405   -0.26    5.92  1.0000
  15  14  27    1078    9552     0.00000 0.00000 0.00000 0.00000 0.00000 0.00000     985    2.97    8.97  1.0000
   2  15  27     617    3747     0.00000 0.00000 0.00000 0.00000 0.00000 0.00000   -5621   11.01  -22.60  1.0000
   4  15  27      17    3338     0.00000 0.00000 0.00000 0.00000 0.00000 0.00000   -5007   -2.68    3.13  1.0000
   6  15  27    1235    3976     0.00000 0.00000 0.00000 0.00000 0.00000 0.00000    1341    7.81   -6.02  1.0000
   8  15  27      16    4041     0.00000 0.00000 0.00000 0.00000 0.00000 0.00000   -2067   -3.69   -1.52  1.0000
  10  15  27   14817    4148     0.00000 0.00000 0.00000 0.00000 0.00000 0.00000   16124    7.58   -0.42  1.0000
  12  15  27     202    4400     0.00000 0.00000 0.00000 0.00000 0.00000 0.00000   -3696    4.43  -13.69  1.0000
  14  15  27    2360    9955     0.00000 0.00000 0.00000 0.00000 0.00000 0.00000    2524   -2.37    7.84  1.0000
   1  16  27     208    3842     0.00000 0.00000 0.00000 0.00000 0.00000 0.00000   -5763  -11.67    8.77  1.0000
   3  16  27     296    4404     0.00000 0.00000 0.00000 0.00000 0.00000 0.00000   -6606  -15.44    8.07  1.0000
   5  16  27     112    4366     0.00000 0.00000 0.00000 0.00000 0.00000 0.00000   -6203    9.81   -4.32  1.0000
   7  16  27      12    4050     0.00000 0.00000 0.00000 0.00000 0.00000 0.00000   -3740    0.93    3.33  1.0000
   9  16  27     885    4569     0.00000 0.00000 0.00000 0.00000 0.00000 0.00000   -2218   17.35   24.63  1.0000
  11  16  27    1069    5001     0.00000 0.00000 0.00000 0.00000 0.00000 0.00000     758  -12.68   15.32  1.0000
   2  17  27      34    4144     0.00000 0.00000 0.00000 0.00000 0.00000 0.00000   -5114   -5.84   -0.90  1.0000
   4  17  27     115    3886     0.00000 0.00000 0.00000 0.00000 0.00000 0.00000   -5829   -5.84   -9.17  1.0000
   6  17  27    3723    6152     0.00000 0.00000 0.00000 0.00000 0.00000 0.00000    6237   10.11  -15.41  1.0000
   8  17  27    6644    5438     0.00000 0.00000 0.00000 0.00000 0.00000 0.00000    7393    5.12  -17.82  1.0000
  10  17  27     742    9251     0.00000 0.00000 0.00000 0.00000 0.00000 0.00000   -1178   25.78   -9.83  1.0000
   1  18  27      72    4333     0.00000 0.00000 0.00000 0.00000 0.00000 0.00000   -6500   -7.65   -3.87  1.0000
   3  18  27     203    4628     0.00000 0.00000 0.00000 0.00000 0.00000 0.00000   -2868   -7.38  -12.38  1.0000
   5  18  27      16    4552     0.00000 0.00000 0.00000 0.00000 0.00000 0.00000   -6828   -1.00   -3.90  1.0000
   7  18  27     768    6245     0.00000 0.00000 0.00000 0.00000 0.00000 0.00000    2993  -26.17  -14.65  1.0000
   9  18  27     579    5330     0.00000 0.00000 0.00000 0.00000 0.00000 0.00000   -5461    3.98   24.03  1.0000
   2  19  27      39    4604     0.00000 0.00000 0.00000 0.00000 0.00000 0.00000   -6905   -6.33   -0.03  1.0000
   4  19  27     480    4549     0.00000 0.00000 0.00000 0.00000 0.00000 0.00000   -5891   15.02   16.34  1.0000
   6  19  27     867    4770     0.00000 0.00000 0.00000 0.00000 0.00000 0.00000    1430    2.96    9.22  1.0000
   1  20  27     488    4698     0.00000 0.00000 0.00000 0.00000 0.00000 0.00000   -7046  -21.30    6.77  1.0000
   3  20  27     235    5678     0.00000 0.00000 0.00000 0.00000 0.00000 0.00000   -8517  -12.49    9.21  1.0000
   0   0  28  629268   21968     0.00000 0.00000 0.00000 0.00000 0.00000 0.00000  647924  -12.07    1.95  1.0000
   2   0  28   19778    2593     0.00000 0.00000 0.00000 0.00000 0.00000 0.00000   28537   28.12   10.48  1.0000
   4   0  28  153254    5587     0.00000 0.00000 0.00000 0.00000 0.00000 0.00000  139414   21.34   -4.02  1.0000
   6   0  28   54175    5400     0.00000 0.00000 0.00000 0.00000 0.00000 0.00000   60238   10.94    7.43  1.0000
   8   0  28    7994    4636     0.00000 0.00000 0.00000 0.00000 0.00000 0.00000    9447   14.80   20.32  1.0000
  10   0  28    2507    5083     0.00000 0.00000 0.00000 0.00000 0.00000 0.00000    3929   -6.53   20.52  1.0000
  12   0  28   11445    6357     0.00000 0.00000 0.00000 0.00000 0.00000 0.00000   13094   14.71   -4.74  1.0000
  14   0  28    9274    5307     0.00000 0.00000 0.00000 0.00000 0.00000 0.00000   10870   -5.39    9.43  1.0000
  16   0  28    1718    8295     0.00000 0.00000 0.00000 0.00000 0.00000 0.00000    7509    6.74   49.41  1.0000
  18   0  28     370    8169     0.00000 0.00000 0.00000 0.00000 0.00000 0.00000    -851  -18.42   -6.29  1.0000
  20   0  28   27100    6252     0.00000 0.00000 0.00000 0.00000 0.00000 0.00000   27335   -3.36  -17.32  1.0000
   1   1  28   10091    1889     0.00000 0.00000 0.00000 0.00000 0.00000 0.00000   14940  -22.64    6.69  1.0000
   3   1  28     959    2360     0.00000 0.00000 0.00000 0.00000 0.00000 0.00000    7918   64.27   10.75  1.0000
   5   1  28    4053    2938     0.00000 0.00000 0.00000 0.00000 0.00000 0.00000    7947   59.55  -34.24  1.0000
   7   1  28   12995    3279     0.00000 0.00000 0.00000 0.00000 0.00000 0.00000   10605  -14.46    1.30  1.0000
   9   1  28    6663    3439     0.00000 0.00000 0.00000 0.00000 0.00000 0.00000    7639   -2.05   -5.86  1.0000
  11   1  28    9346    4712     0.00000 0.00000 0.00000 0.00000 0.00000 0.00000    8138   -7.17    2.49  1.0000
  13   1  28    7507    4046     0.00000 0.00000 0.00000 0.00000 0.00000 0.00000    8958   -8.77    4.51  1.0000
  15   1  28    6833    4799     0.00000 0.00000 0.00000 0.00000 0.00000 0.00000    4945   -5.03  -13.68  1.0000
  17   1  28    4170    4835     0.00000 0.00000 0.00000 0.00000 0.00000 0.00000    6216  -13.31  -10.80  1.0000
  19   1  28    2475    4197     0.00000 0.00000 0.00000 0.00000 0.00000 0.00000    1982   -5.94   -3.19  1.0000
   0   2  28   17327    3545     0.00000 0.00000 0.00000 0.00000 0.00000 0.00000   25552   28.37   -8.90  1.0000
   2   2  28   38545    2313     0.00000 0.00000 0.00000 0.00000 0.00000 0.00000   40009    4.15   -0.95  1.0000
   4   2  28    5424    2946     0.00000 0.00000 0.00000 0.00000 0.00000 0.00000    8299   16.03    8.36  1.0000
   6   2  28    6093    2975     0.00000 0.00000 0.00000 0.00000 0.00000 0.00000   10775    6.55   28.10  1.0000
   8   2  28    3204    3343     0.00000 0.00000 0.00000 0.00000 0.00000 0.00000    2639    4.92   27.41  1.0000
  10   2  28    4834    3868     0.00000 0.00000 0.00000 0.00000 0.00000 0.00000    4705   16.31  -21.76  1.0000
  12   2  28   17924    3238     0.00000 0.00000 0.00000 0.00000 0.00000 0.00000   17365   -2.26   -0.17  1.0000
  14   2  28    7984    4258     0.00000 0.00000 0.00000 0.00000 0.00000 0.00000    6175    2.06   11.51  1.0000
  16   2  28    3230    4738     0.00000 0.00000 0.00000 0.00000 0.00000 0.00000    2997   -1.76    3.63  1.0000
  18   2  28   11081    5306     0.00000 0.00000 0.00000 0.00000 0.00000 0.00000   11802    0.06  -16.20  1.0000
   1   3  28    1386    2570     0.00000 0.00000 0.00000 0.00000 0.00000 0.00000    3249   65.23   -9.55  1.0000
   3   3  28     764    3109     0.00000 0.00000 0.00000 0.00000 0.00000 0.00000    1855   21.57   -5.98  1.0000
   5   3  28   18278    2883     0.00000 0.00000 0.00000 0.00000 0.00000 0.00000   18697    3.62    2.20  1.0000
   7   3  28    2494    3049     0.00000 0.00000 0.00000 0.00000 0.00000 0.00000    2261  -24.70  -12.39  1.0000
   9   3  28    5907    3524     0.00000 0.00000 0.00000 0.00000 0.00000 0.00000    9217  -13.04  -14.40  1.0000
  11   3  28   12178    3996     0.00000 0.00000 0.00000 0.00000 0.00000 0.00000   11919    2.93   -5.19  1.0000
  13   3  28   16434    5680     0.00000 0.00000 0.00000 0.00000 0.00000 0.00000   12843   -8.54   25.29  1.0000
  15   3  28    5492    3020     0.00000 0.00000 0.00000 0.00000 0.00000 0.00000    7899  -14.09  -16.70  1.0000
  17   3  28    4640    5418     0.00000 0.00000 0.00000 0.00000 0.00000 0.00000    6525   -7.77  -17.30  1.0000
  19   3  28    7752    4693     0.00000 0.00000 0.00000 0.00000 0.00000 0.00000    9572   -5.51    9.19  1.0000
   0   4  28  139490    6577     0.00000 0.00000 0.00000 0.00000 0.00000 0.00000  125867   20.07    4.11  1.0000
   2   4  28    1735    2217     0.00000 0.00000 0.00000 0.00000 0.00000 0.00000    2867   -1.59  -13.65  1.0000
   4   4  28   31754    2075     0.00000 0.00000 0.00000 0.00000 0.00000 0.00000   20440   35.84    0.45  1.0000
   6   4  28   20359    3171     0.00000 0.00000 0.00000 0.00000 0.00000 0.00000   19919   -1.60    0.58  1.0000
   8   4  28    3833    3580     0.00000 0.00000 0.00000 0.00000 0.00000 0.00000    3656    0.16    7.30  1.0000
  10   4  28    1435    2563     0.00000 0.00000 0.00000 0.00000 0.00000 0.00000    7505   39.53  -29.75  1.0000
  12   4  28    3515    3722     0.00000 0.00000 0.00000 0.00000 0.00000 0.00000    5278   -5.24  -12.54  1.0000
  14   4  28    6320    2779     0.00000 0.00000 0.00000 0.00000 0.00000 0.00000    6573   -1.60    5.42  1.0000
  16   4  28    4766    3523     0.00000 0.00000 0.00000 0.00000 0.00000 0.00000    5095    6.94    1.12  1.0000
  18   4  28    3977    4466     0.00000 0.00000 0.00000 0.00000 0.00000 0.00000    6579   21.27    6.93  1.0000
   1   5  28    3994    2271     0.00000 0.00000 0.00000 0.00000 0.00000 0.00000    -483   53.32   35.37  1.0000
   3   5  28   19211    2622     0.00000 0.00000 0.00000 0.00000 0.00000 0.00000   19389    5.81   -1.37  1.0000
   5   5  28    1500    2080     0.00000 0.00000 0.00000 0.00000 0.00000 0.00000    1153    4.91    2.39  1.0000
   7   5  28    7364    3578     0.00000 0.00000 0.00000 0.00000 0.00000 0.00000    7813    4.53  -30.10  1.0000
   9   5  28   14984    2743     0.00000 0.00000 0.00000 0.00000 0.00000 0.00000   14071   14.68   -3.84  1.0000
  11   5  28   20547    2488     0.00000 0.00000 0.00000 0.00000 0.00000 0.00000   20496    0.33    0.19  1.0000
  13   5  28    4836    2678     0.00000 0.00000 0.00000 0.00000 0.00000 0.00000    6577   18.98   20.97  1.0000
  15   5  28    4488    3727     0.00000 0.00000 0.00000 0.00000 0.00000 0.00000    5091    6.08   -0.11  1.0000
  17   5  28    2077    3758     0.00000 0.00000 0.00000 0.00000 0.00000 0.00000    2236   -0.65    2.34  1.0000
  19   5  28    4979    4746     0.00000 0.00000 0.00000 0.00000 0.00000 0.00000    3589  -10.78   -0.26  1.0000
   0   6  28   52526    4107     0.00000 0.00000 0.00000 0.00000 0.00000 0.00000   58072   11.43   -7.48  1.0000
   2   6  28    1326    2753     0.00000 0.00000 0.00000 0.00000 0.00000 0.00000    3471   12.56  -27.26  1.0000
   4   6  28   13144    2426     0.00000 0.00000 0.00000 0.00000 0.00000 0.00000   13067   -0.95    2.49  1.0000
   6   6  28   28337    2419     0.00000 0.00000 0.00000 0.00000 0.00000 0.00000   25750    8.18   -3.02  1.0000
   8   6  28   15870    2358     0.00000 0.00000 0.00000 0.00000 0.00000 0.00000   15196   22.95   -8.50  1.0000
  10   6  28    4513    2358     0.00000 0.00000 0.00000 0.00000 0.00000 0.00000    4484   -0.90   12.04  1.0000
  12   6  28    7043    2706     0.00000 0.00000 0.00000 0.00000 0.00000 0.00000    5774   -8.62    0.88  1.0000
  14   6  28     105    3038     0.00000 0.00000 0.00000 0.00000 0.00000 0.00000     269   -1.01   10.67  1.0000
  16   6  28     180    4641     0.00000 0.00000 0.00000 0.00000 0.00000 0.00000   -1457    1.54   13.51  1.0000
  18   6  28    1900    3818     0.00000 0.00000 0.00000 0.00000 0.00000 0.00000    3447  -16.47    2.39  1.0000
   1   7  28   13816    2440     0.00000 0.00000 0.00000 0.00000 0.00000 0.00000   10468  -15.88   -2.37  1.0000
   3   7  28     766    2408     0.00000 0.00000 0.00000 0.00000 0.00000 0.00000    -465  -24.78   13.10  1.0000
   5   7  28    1858    2509     0.00000 0.00000 0.00000 0.00000 0.00000 0.00000    2668    3.50   32.43  1.0000
   7   7  28   14527    3585     0.00000 0.00000 0.00000 0.00000 0.00000 0.00000   13580    4.17   -0.60  1.0000
   9   7  28     389    3564     0.00000 0.00000 0.00000 0.00000 0.00000 0.00000    2201   23.15  -18.82  1.0000
  11   7  28   19438    4776     0.00000 0.00000 0.00000 0.00000 0.00000 0.00000   17360    6.58   -6.61  1.0000
  13   7  28    5058    2914     0.00000 0.00000 0.00000 0.00000 0.00000 0.00000    6419   10.03   -0.64  1.0000
  15   7  28    5908    4257     0.00000 0.00000 0.00000 0.00000 0.00000 0.00000    6587  -15.83    0.04  1.0000
  17   7  28    1311    3728     0.00000 0.00000 0.00000 0.00000 0.00000 0.00000    1763   -4.54   -5.74  1.0000
   0   8  28     558    3763     0.00000 0.00000 0.00000 0.00000 0.00000 0.00000   -5644   14.28  -19.18  1.0000
   2   8  28     868    2628     0.00000 0.00000 0.00000 0.00000 0.00000 0.00000    -478    8.27  -28.66  1.0000
   4   8  28      75    2695     0.00000 0.00000 0.00000 0.00000 0.00000 0.00000   -3945    0.27   -8.79  1.0000
   6   8  28    5714    3570     0.00000 0.00000 0.00000 0.00000 0.00000 0.00000    5033   23.35    7.54  1.0000
   8   8  28     785    3036     0.00000 0.00000 0.00000 0.00000 0.00000 0.00000    1082    3.91    3.44  1.0000
  10   8  28    3588    3752     0.00000 0.00000 0.00000 0.00000 0.00000 0.00000    4443  -12.99   -6.42  1.0000
  12   8  28    5881    3266     0.00000 0.00000 0.00000 0.00000 0.00000 0.00000    5843    0.82    0.41  1.0000
  14   8  28    1246    3302     0.00000 0.00000 0.00000 0.00000 0.00000 0.00000     907   -5.77    2.70  1.0000
  16   8  28    1180    3689     0.00000 0.00000 0.00000 0.00000 0.00000 0.00000    1606   -3.65  -16.07  1.0000
  18   8  28     453    4198     0.00000 0.00000 0.00000 0.00000 0.00000 0.00000    -152  -17.37  -12.76  1.0000
   1   9  28      22    2671     0.00000 0.00000 0.00000 0.00000 0.00000 0.00000   -2278   -1.74    4.40  1.0000
   3   9  28     970    3005     0.00000 0.00000 0.00000 0.00000 0.00000 0.00000    1947  -11.93   12.68  1.0000
   5   9  28    4255    3377     0.00000 0.00000 0.00000 0.00000 0.00000 0.00000    3668   13.50    4.00  1.0000
   7   9  28     300    2885     0.00000 0.00000 0.00000 0.00000 0.00000 0.00000     516   22.98   18.13  1.0000
   9   9  28    2491    2947     0.00000 0.00000 0.00000 0.00000 0.00000 0.00000    4896   21.36   -0.82  1.0000
  11   9  28    2244    3161     0.00000 0.00000 0.00000 0.00000 0.00000 0.00000    2092    5.88   -2.22  1.0000
  13   9  28    3057    3157     0.00000 0.00000 0.00000 0.00000 0.00000 0.00000    4219   14.26  -15.79  1.0000
  15   9  28    2738    3430     0.00000 0.00000 0.00000 0.00000 0.00000 0.00000    5453   13.85   18.37  1.0000
  17   9  28    6274    3951     0.00000 0.00000 0.00000 0.00000 0.00000 0.00000    6744    4.04    0.89  1.0000
   0  10  28     433    4177     0.00000 0.00000 0.00000 0.00000 0.00000 0.00000   -4480   -5.25  -20.40  1.0000
   2  10  28    1837    2927     0.00000 0.00000 0.00000 0.00000 0.00000 0.00000     908   16.27   22.87  1.0000
   4  10  28      81    2965     0.00000 0.00000 0.00000 0.00000 0.00000 0.00000    3004   39.84   29.65  1.0000
   6  10  28    2993    3290     0.00000 0.00000 0.00000 0.00000 0.00000 0.00000    3246   -1.40  -15.74  1.0000
   8  10  28     103    3113     0.00000 0.00000 0.00000 0.00000 0.00000 0.00000     163  -11.01    4.37  1.0000
  10  10  28     530    3959     0.00000 0.00000 0.00000 0.00000 0.00000 0.00000   -2483  -23.27   -1.35  1.0000
  12  10  28     686    3407     0.00000 0.00000 0.00000 0.00000 0.00000 0.00000    1105   -0.36   -8.00  1.0000
  14  10  28     446    3230     0.00000 0.00000 0.00000 0.00000 0.00000 0.00000     -46    0.14   21.39  1.0000
  16  10  28    1461    3858     0.00000 0.00000 0.00000 0.00000 0.00000 0.00000    3143  -25.02    3.17  1.0000
   1  11  28    1096    3170     0.00000 0.00000 0.00000 0.00000 0.00000 0.00000     580   -8.12   -4.19  1.0000
   3  11  28      44    3467     0.00000 0.00000 0.00000 0.00000 0.00000 0.00000   -1913    2.78    6.07  1.0000
   5  11  28   12980    3299     0.00000 0.00000 0.00000 0.00000 0.00000 0.00000   12901   -1.38   -0.31  1.0000
   7  11  28   11871    4744     0.00000 0.00000 0.00000 0.00000 0.00000 0.00000   10216    8.25    6.50  1.0000
   9  11  28    1449    3623     0.00000 0.00000 0.00000 0.00000 0.00000 0.00000    1221    6.72    2.16  1.0000
  11  11  28      33    3489     0.00000 0.00000 0.00000 0.00000 0.00000 0.00000    -360   -5.80   -0.16  1.0000
  13  11  28      45    3799     0.00000 0.00000 0.00000 0.00000 0.00000 0.00000   -1699   -2.64   -6.23  1.0000
  15  11  28    2092    4117     0.00000 0.00000 0.00000 0.00000 0.00000 0.00000    2080    5.63  -10.67  1.0000
   0  12  28     228    5391     0.00000 0.00000 0.00000 0.00000 0.00000 0.00000   -4043   14.44    5.05  1.0000
   2  12  28    5400    3164     0.00000 0.00000 0.00000 0.00000 0.00000 0.00000    5110   -3.36    1.32  1.0000
   4  12  28     194    3293     0.00000 0.00000 0.00000 0.00000 0.00000 0.00000   -4940   -7.02   12.22  1.0000
   6  12  28      62    3579     0.00000 0.00000 0.00000 0.00000 0.00000 0.00000   -3275   -7.95   -0.12  1.0000
   8  12  28    2118    3437     0.00000 0.00000 0.00000 0.00000 0.00000 0.00000    2123    0.12   -0.17  1.0000
  10  12  28     102    3607     0.00000 0.00000 0.00000 0.00000 0.00000 0.00000     261    0.67    8.19  1.0000
  12  12  28       9    3901     0.00000 0.00000 0.00000 0.00000 0.00000 0.00000   -5267    2.96    0.82  1.0000
  14  12  28      35    3906     0.00000 0.00000 0.00000 0.00000 0.00000 0.00000    -562    5.31    2.72  1.0000
  16  12  28      13    6211     0.00000 0.00000 0.00000 0.00000 0.00000 0.00000   -2514    2.97    2.22  1.0000
   1  13  28      89    3399     0.00000 0.00000 0.00000 0.00000 0.00000 0.00000   -5098   -8.95   -3.34  1.0000
   3  13  28     692    3514     0.00000 0.00000 0.00000 0.00000 0.00000 0.00000    -797   -9.02  -25.06  1.0000
   5  13  28     869    3481     0.00000 0.00000 0.00000 0.00000 0.00000 0.00000    1196   20.60  -20.65  1.0000
   7  13  28     104    3818     0.00000 0.00000 0.00000 0.00000 0.00000 0.00000   -5728   10.22    1.30  1.0000
   9  13  28     444    3884     0.00000 0.00000 0.00000 0.00000 0.00000 0.00000   -5827   13.65   16.40  1.0000
  11  13  28      49    3946     0.00000 0.00000 0.00000 0.00000 0.00000 0.00000   -2191   -2.57    6.58  1.0000
  13  13  28       8    4340     0.00000 0.00000 0.00000 0.00000 0.00000 0.00000   -6511    2.82    0.48  1.0000
  15  13  28    2938    4769     0.00000 0.00000 0.00000 0.00000 0.00000 0.00000    1957  -12.20   -7.32  1.0000
   0  14  28    4620    4599     0.00000 0.00000 0.00000 0.00000 0.00000 0.00000    6082   -4.47  -10.25  1.0000
   2  14  28     124    3559     0.00000 0.00000 0.00000 0.00000 0.00000 0.00000   -2534    3.85  -10.60  1.0000
   4  14  28      41    3384     0.00000 0.00000 0.00000 0.00000 0.00000 0.00000    -824   -1.80   -6.20  1.0000
   6  14  28      92    3692     0.00000 0.00000 0.00000 0.00000 0.00000 0.00000   -5538   -0.20   -9.69  1.0000
   8  14  28      55    4776     0.00000 0.00000 0.00000 0.00000 0.00000 0.00000   -5451   -6.92   -2.92  1.0000
  10  14  28     464    4109     0.00000 0.00000 0.00000 0.00000 0.00000 0.00000   -4043    0.25  -21.81  1.0000
  12  14  28    4490    4526     0.00000 0.00000 0.00000 0.00000 0.00000 0.00000    5344    6.37   -2.52  1.0000
  14  14  28       4    4698     0.00000 0.00000 0.00000 0.00000 0.00000 0.00000    -809    1.89    0.41  1.0000
   1  15  28     213    3601     0.00000 0.00000 0.00000 0.00000 0.00000 0.00000   -2648   -5.60   13.68  1.0000
   3  15  28     525    3640     0.00000 0.00000 0.00000 0.00000 0.00000 0.00000   -5461  -16.40   16.41  1.0000
   5  15  28      29    4754     0.00000 0.00000 0.00000 0.00000 0.00000 0.00000   -7021    5.41   -0.42  1.0000
   7  15  28     605    4030     0.00000 0.00000 0.00000 0.00000 0.00000 0.00000     623  -15.85    0.26  1.0000
   9  15  28      84    4324     0.00000 0.00000 0.00000 0.00000 0.00000 0.00000     631   12.98  -18.40  1.0000
  11  15  28     112    4900     0.00000 0.00000 0.00000 0.00000 0.00000 0.00000   -3747    5.55    9.16  1.0000
  13  15  28     202    5068     0.00000 0.00000 0.00000 0.00000 0.00000 0.00000   -5769  -12.47    7.18  1.0000
   0  16  28    8288    9927     0.00000 0.00000 0.00000 0.00000 0.00000 0.00000   17968    7.96  -48.18  1.0000
   2  16  28      24    4019     0.00000 0.00000 0.00000 0.00000 0.00000 0.00000   -6028   -1.10   -4.78  1.0000
   4  16  28      41    3615     0.00000 0.00000 0.00000 0.00000 0.00000 0.00000   -5422    6.15   -1.97  1.0000
   6  16  28     154    4375     0.00000 0.00000 0.00000 0.00000 0.00000 0.00000   -4348    1.70  -12.45  1.0000
   8  16  28     201    4709     0.00000 0.00000 0.00000 0.00000 0.00000 0.00000   -6326   -3.76   13.84  1.0000
  10  16  28    1464    4682     0.00000 0.00000 0.00000 0.00000 0.00000 0.00000    3207  -23.53   -4.49  1.0000
  12  16  28       9    6748     0.00000 0.00000 0.00000 0.00000 0.00000 0.00000  -10122    1.91   -2.42  1.0000
   1  17  28     309    4380     0.00000 0.00000 0.00000 0.00000 0.00000 0.00000   -6570  -13.23   11.91  1.0000
   3  17  28    1946    4452     0.00000 0.00000 0.00000 0.00000 0.00000 0.00000    2752   -7.80   18.28  1.0000
   5  17  28       8    4309     0.00000 0.00000 0.00000 0.00000 0.00000 0.00000   -2123   -0.35   -2.79  1.0000
   7  17  28      62    5062     0.00000 0.00000 0.00000 0.00000 0.00000 0.00000   -3451   -3.86    6.94  1.0000
   9  17  28      18    5483     0.00000 0.00000 0.00000 0.00000 0.00000 0.00000   -8224    4.24   -0.31  1.0000
   0  18  28     378    6269     0.00000 0.00000 0.00000 0.00000 0.00000 0.00000   -9403  -18.58    6.49  1.0000
   2  18  28    6858    4400     0.00000 0.00000 0.00000 0.00000 0.00000 0.00000    6104   -0.19   14.74  1.0000
   4  18  28     463    5368     0.00000 0.00000 0.00000 0.00000 0.00000 0.00000   -5000   20.67   -6.89  1.0000
   6  18  28     253    4861     0.00000 0.00000 0.00000 0.00000 0.00000 0.00000   -7291  -16.02   -1.55  1.0000
   8  18  28     495    5076     0.00000 0.00000 0.00000 0.00000 0.00000 0.00000   -5098  -18.14   13.34  1.0000
   1  19  28      33    4819     0.00000 0.00000 0.00000 0.00000 0.00000 0.00000     -89   -5.09    2.77  1.0000
   3  19  28     105    4767     0.00000 0.00000 0.00000 0.00000 0.00000 0.00000   -7151   -5.17   -8.98  1.0000
   5  19  28      93    5013     0.00000 0.00000 0.00000 0.00000 0.00000 0.00000   -7520   -9.69   -1.09  1.0000
   0  20  28   12681   10188     0.00000 0.00000 0.00000 0.00000 0.00000 0.00000   14422   -4.14   18.02  1.0000
   2   1  29    5630    1726     0.00000 0.00000 0.00000 0.00000 0.00000 0.00000    9291  -36.35    8.58  1.0000
   4   1  29   10520    2727     0.00000 0.00000 0.00000 0.00000 0.00000 0.00000   11510   -7.06    4.44  1.0000
   6   1  29   13322    3334     0.00000 0.00000 0.00000 0.00000 0.00000 0.00000   17149   14.68    9.32  1.0000
   8   1  29   11450    3418     0.00000 0.00000 0.00000 0.00000 0.00000 0.00000    8865  -15.40  -11.26  1.0000
  10   1  29   13814    5110     0.00000 0.00000 0.00000 0.00000 0.00000 0.00000   13058   -8.88    9.11  1.0000
  12   1  29   44361    6455     0.00000 0.00000 0.00000 0.00000 0.00000 0.00000   42383   -7.56   -1.13  1.0000
  14   1  29    6817    5236     0.00000 0.00000 0.00000 0.00000 0.00000 0.00000    5052    4.71  -16.38  1.0000
  16   1  29    1697    4481     0.00000 0.00000 0.00000 0.00000 0.00000 0.00000    2049   10.42   -7.62  1.0000
  18   1  29    6386    6026     0.00000 0.00000 0.00000 0.00000 0.00000 0.00000    6569   -8.92   -5.73  1.0000
   1   2  29    5346    1893     0.00000 0.00000 0.00000 0.00000 0.00000 0.00000    8400   37.73    8.99  1.0000
   3   2  29    3073    2536     0.00000 0.00000 0.00000 0.00000 0.00000 0.00000    5038   18.46   -2.96  1.0000
   5   2  29   18098    4189     0.00000 0.00000 0.00000 0.00000 0.00000 0.00000   16171  -11.61   11.13  1.0000
   7   2  29    1857    3888     0.00000 0.00000 0.00000 0.00000 0.00000 0.00000    3093  -11.84    6.08  1.0000
   9   2  29    6659    4450     0.00000 0.00000 0.00000 0.00000 0.00000 0.00000   10477   23.84    0.33  1.0000
  11   2  29    5502    4573     0.00000 0.00000 0.00000 0.00000 0.00000 0.00000    7676   18.28   -5.52  1.0000
  13   2  29    1793    5130     0.00000 0.00000 0.00000 0.00000 0.00000 0.00000    2079   -3.75   -5.37  1.0000
  15   2  29    7514    4614     0.00000 0.00000 0.00000 0.00000 0.00000 0.00000    9887   -3.78   12.37  1.0000
  17   2  29    4821    5438     0.00000 0.00000 0.00000 0.00000 0.00000 0.00000    5994    0.49  -11.62  1.0000
  19   2  29    5988    5435     0.00000 0.00000 0.00000 0.00000 0.00000 0.00000    6658   -1.39    5.47  1.0000
   2   3  29    2559    2106     0.00000 0.00000 0.00000 0.00000 0.00000 0.00000    4227  -16.70   -4.41  1.0000
   4   3  29   54117    3700     0.00000 0.00000 0.00000 0.00000 0.00000 0.00000   45872    2.21   22.24  1.0000
   6   3  29   19886    3288     0.00000 0.00000 0.00000 0.00000 0.00000 0.00000   20028    1.09    3.25  1.0000
   8   3  29    4758    3555     0.00000 0.00000 0.00000 0.00000 0.00000 0.00000    9998   -6.65  -40.11  1.0000
  10   3  29   20482    4105     0.00000 0.00000 0.00000 0.00000 0.00000 0.00000   17270   10.55   -5.55  1.0000
  12   3  29   13256    3645     0.00000 0.00000 0.00000 0.00000 0.00000 0.00000   17273   -4.29   18.80  1.0000
  14   3  29    3450    5606     0.00000 0.00000 0.00000 0.00000 0.00000 0.00000    3750   -0.82  -18.07  1.0000
  16   3  29    1022    3629     0.00000 0.00000 0.00000 0.00000 0.00000 0.00000    1664    3.56   -8.78  1.0000
  18   3  29    3788    5189     0.00000 0.00000 0.00000 0.00000 0.00000 0.00000    4963    0.82  -17.48  1.0000
   1   4  29    7441    2434     0.00000 0.00000 0.00000 0.00000 0.00000 0.00000    8442    9.97    5.21  1.0000
   3   4  29   50832    3518     0.00000 0.00000 0.00000 0.00000 0.00000 0.00000   42440   -3.17   23.32  1.0000
   5   4  29    8303    3603     0.00000 0.00000 0.00000 0.00000 0.00000 0.00000    7963  -24.62   16.96  1.0000
   7   4  29    1953    3773     0.00000 0.00000 0.00000 0.00000 0.00000 0.00000    2360   -4.53    0.86  1.0000
   9   4  29   15667    5398     0.00000 0.00000 0.00000 0.00000 0.00000 0.00000   24420  -24.88   19.54  1.0000
  11   4  29   10573    3965     0.00000 0.00000 0.00000 0.00000 0.00000 0.00000   14170   -7.61   15.95  1.0000
  13   4  29    5851    3997     0.00000 0.00000 0.00000 0.00000 0.00000 0.00000    5435   -8.36    7.16  1.0000
  15   4  29    1279    4927     0.00000 0.00000 0.00000 0.00000 0.00000 0.00000    1550   -9.31    1.58  1.0000
  17   4  29    5781    3729     0.00000 0.00000 0.00000 0.00000 0.00000 0.00000    4457  -13.69   -3.52  1.0000
  19   4  29    3051    7016     0.00000 0.00000 0.00000 0.00000 0.00000 0.00000    3311    1.47    4.29  1.0000
   2   5  29    4568    2460     0.00000 0.00000 0.00000 0.00000 0.00000 0.00000    3684   10.59    8.23  1.0000
   4   5  29    7237    2763     0.00000 0.00000 0.00000 0.00000 0.00000 0.00000    7781   24.69   16.47  1.0000
   6   5  29    1957    2236     0.00000 0.00000 0.00000 0.00000 0.00000 0.00000    3963  -34.51    3.81  1.0000
   8   5  29   19676    2383     0.00000 0.00000 0.00000 0.00000 0.00000 0.00000   17564  -14.94   -7.41  1.0000
  10   5  29    6284    2791     0.00000 0.00000 0.00000 0.00000 0.00000 0.00000    4121   -2.62  -16.07  1.0000
  12   5  29   23305    2738     0.00000 0.00000 0.00000 0.00000 0.00000 0.00000   22947   -3.54   -2.32  1.0000
  14   5  29    1662    2922     0.00000 0.00000 0.00000 0.00000 0.00000 0.00000    2354    9.32    1.62  1.0000
  16   5  29    2753    4659     0.00000 0.00000 0.00000 0.00000 0.00000 0.00000    7814  -19.65   30.66  1.0000
  18   5  29    6148    5153     0.00000 0.00000 0.00000 0.00000 0.00000 0.00000    4252    5.82  -15.95  1.0000
   1   6  29    3026    2376     0.00000 0.00000 0.00000 0.00000 0.00000 0.00000    4860  -15.65    8.44  1.0000
   3   6  29   13828    3087     0.00000 0.00000 0.00000 0.00000 0.00000 0.00000   14452   -0.81    5.44  1.0000
   5   6  29    1386    2369     0.00000 0.00000 0.00000 0.00000 0.00000 0.00000   -2237   36.86    7.91  1.0000
   7   6  29    8943    2396     0.00000 0.00000 0.00000 0.00000 0.00000 0.00000   15617   26.94   25.72  1.0000
   9   6  29   15421    2477     0.00000 0.00000 0.00000 0.00000 0.00000 0.00000   12114  -20.41    2.06  1.0000
  11   6  29    9656    3456     0.00000 0.00000 0.00000 0.00000 0.00000 0.00000    8709   -4.44  -16.30  1.0000
  13   6  29    1727    2823     0.00000 0.00000 0.00000 0.00000 0.00000 0.00000    2529   13.99   -0.86  1.0000
  15   6  29    1650    3610     0.00000 0.00000 0.00000 0.00000 0.00000 0.00000     227    0.74  -25.89  1.0000
  17   6  29     831    3841     0.00000 0.00000 0.00000 0.00000 0.00000 0.00000     591  -17.63   -6.86  1.0000
   2   7  29     202    2830     0.00000 0.00000 0.00000 0.00000 0.00000 0.00000    -154   11.29    8.94  1.0000
   4   7  29      17    2846     0.00000 0.00000 0.00000 0.00000 0.00000 0.00000    -275    2.84    3.01  1.0000
   6   7  29    8150    2579     0.00000 0.00000 0.00000 0.00000 0.00000 0.00000   12135  -27.39   22.58  1.0000
   8   7  29    4893    2800     0.00000 0.00000 0.00000 0.00000 0.00000 0.00000    7694    2.54   18.37  1.0000
  10   7  29    9628    2674     0.00000 0.00000 0.00000 0.00000 0.00000 0.00000    7212   15.46    5.84  1.0000
  12   7  29   19202    3950     0.00000 0.00000 0.00000 0.00000 0.00000 0.00000   15047   12.39  -12.97  1.0000
  14   7  29     580    3310     0.00000 0.00000 0.00000 0.00000 0.00000 0.00000    -628   18.43  -15.96  1.0000
  16   7  29     187    3653     0.00000 0.00000 0.00000 0.00000 0.00000 0.00000    -690    8.24   11.14  1.0000
  18   7  29    1949    4631     0.00000 0.00000 0.00000 0.00000 0.00000 0.00000    3909   16.77   -8.48  1.0000
   1   8  29    4822    2764     0.00000 0.00000 0.00000 0.00000 0.00000 0.00000    4249   17.03  -13.01  1.0000
   3   8  29    1274    3004     0.00000 0.00000 0.00000 0.00000 0.00000 0.00000    1095    6.79  -40.38  1.0000
   5   8  29   16440    3084     0.00000 0.00000 0.00000 0.00000 0.00000 0.00000   15487   13.76   -6.67  1.0000
   7   8  29    2866    2894     0.00000 0.00000 0.00000 0.00000 0.00000 0.00000    5042   -4.03   18.22  1.0000
   9   8  29   14954    2870     0.00000 0.00000 0.00000 0.00000 0.00000 0.00000   12371   10.12   -4.83  1.0000
  11   8  29   13581    3068     0.00000 0.00000 0.00000 0.00000 0.00000 0.00000   14844    2.51   27.85  1.0000
  13   8  29    3514    3497     0.00000 0.00000 0.00000 0.00000 0.00000 0.00000    5748   -2.73   16.79  1.0000
  15   8  29   16950    3625     0.00000 0.00000 0.00000 0.00000 0.00000 0.00000   10723    9.74   26.93  1.0000
  17   8  29    3681    3918     0.00000 0.00000 0.00000 0.00000 0.00000 0.00000    3920    2.16    9.61  1.0000
   2   9  29    1132    2936     0.00000 0.00000 0.00000 0.00000 0.00000 0.00000    2436  -22.22   -1.50  1.0000
   4   9  29    4365    3110     0.00000 0.00000 0.00000 0.00000 0.00000 0.00000    9463   25.53   19.73  1.0000
   6   9  29    2875    3076     0.00000 0.00000 0.00000 0.00000 0.00000 0.00000    1668   20.45    2.32  1.0000
   8   9  29   14507    3089     0.00000 0.00000 0.00000 0.00000 0.00000 0.00000   12473   -8.98   -3.72  1.0000
  10   9  29   14982    3489     0.00000 0.00000 0.00000 0.00000 0.00000 0.00000   16478   -5.57   -2.43  1.0000
  12   9  29    3610    3359     0.00000 0.00000 0.00000 0.00000 0.00000 0.00000    4837  -13.59   28.45  1.0000
  14   9  29    5600    3706     0.00000 0.00000 0.00000 0.00000 0.00000 0.00000    5434   -7.48   14.84  1.0000
  16   9  29     257    3715     0.00000 0.00000 0.00000 0.00000 0.00000 0.00000    -471  -15.68    4.17  1.0000
   1  10  29     214    3350     0.00000 0.00000 0.00000 0.00000 0.00000 0.00000    -310    9.70   11.19  1.0000
   3  10  29    9884    3448     0.00000 0.00000 0.00000 0.00000 0.00000 0.00000    7748  -12.76   -3.91  1.0000
   5  10  29     274    3177     0.00000 0.00000 0.00000 0.00000 0.00000 0.00000   -1344    2.94  -16.49  1.0000
   7  10  29     255    3230     0.00000 0.00000 0.00000 0.00000 0.00000 0.00000   -1189  -15.11    5.75  1.0000
   9  10  29    6093    3378     0.00000 0.00000 0.00000 0.00000 0.00000 0.00000    7016    5.66   -1.62  1.0000
  11  10  29   14080    3618     0.00000 0.00000 0.00000 0.00000 0.00000 0.00000   13308   -2.16    2.69  1.0000
  13  10  29    3544    4568     0.00000 0.00000 0.00000 0.00000 0.00000 0.00000     787  -26.59  -17.71  1.0000
  15  10  29    4105    3527     0.00000 0.00000 0.00000 0.00000 0.00000 0.00000    5217  -18.69    1.62  1.0000
   2  11  29     400    3066     0.00000 0.00000 0.00000 0.00000 0.00000 0.00000   -1461  -19.28   -6.18  1.0000
   4  11  29    2731    3263     0.00000 0.00000 0.00000 0.00000 0.00000 0.00000    4883    9.52   15.09  1.0000
   6  11  29   10350    3998     0.00000 0.00000 0.00000 0.00000 0.00000 0.00000   10668    5.07  -15.82  1.0000
   8  11  29   10425    3471     0.00000 0.00000 0.00000 0.00000 0.00000 0.00000   13573   -2.90   27.99  1.0000
  10  11  29   13955    3572     0.00000 0.00000 0.00000 0.00000 0.00000 0.00000   13284    2.93    2.15  1.0000
  12  11  29    5537    4714     0.00000 0.00000 0.00000 0.00000 0.00000 0.00000    5108   -2.12   -2.09  1.0000
  14  11  29    4175    3944     0.00000 0.00000 0.00000 0.00000 0.00000 0.00000    3692   22.01    7.30  1.0000
  16  11  29    9867    5472     0.00000 0.00000 0.00000 0.00000 0.00000 0.00000   10990    8.08   -7.12  1.0000
   1  12  29   40383    3578     0.00000 0.00000 0.00000 0.00000 0.00000 0.00000   39263    7.13   -1.61  1.0000
   3  12  29   10458    3413     0.00000 0.00000 0.00000 0.00000 0.00000 0.00000   14500    5.26   18.58  1.0000
   5  12  29   17341    4099     0.00000 0.00000 0.00000 0.00000 0.00000 0.00000   17186    4.46   -2.71  1.0000
   7  12  29    2858    3549     0.00000 0.00000 0.00000 0.00000 0.00000 0.00000    1375  -11.67  -13.45  1.0000
   9  12  29    4115    3785     0.00000 0.00000 0.00000 0.00000 0.00000 0.00000    4898   13.37   28.31  1.0000
  11  12  29    1795    4344     0.00000 0.00000 0.00000 0.00000 0.00000 0.00000    1582    1.76   -2.09  1.0000
  13  12  29    2023    3934     0.00000 0.00000 0.00000 0.00000 0.00000 0.00000    2495   -7.65    5.03  1.0000
  15  12  29    6218    5019     0.00000 0.00000 0.00000 0.00000 0.00000 0.00000    4898    5.96    7.70  1.0000
   2  13  29      26    3366     0.00000 0.00000 0.00000 0.00000 0.00000 0.00000   -4152    2.50   -4.46  1.0000
   4  13  29     101    3384     0.00000 0.00000 0.00000 0.00000 0.00000 0.00000   -5076    8.31    5.91  1.0000
   6  13  29     181    3688     0.00000 0.00000 0.00000 0.00000 0.00000 0.00000   -5533  -13.59   -0.48  1.0000
   8  13  29     232    4278     0.00000 0.00000 0.00000 0.00000 0.00000 0.00000   -1613    0.57   15.40  1.0000
  10  13  29    2511    4063     0.00000 0.00000 0.00000 0.00000 0.00000 0.00000     579   25.86  -18.30  1.0000
  12  13  29      83    4138     0.00000 0.00000 0.00000 0.00000 0.00000 0.00000   -3974    7.45    5.46  1.0000
  14  13  29     345    4333     0.00000 0.00000 0.00000 0.00000 0.00000 0.00000   -4387    9.02   16.49  1.0000
   1  14  29     255    3539     0.00000 0.00000 0.00000 0.00000 0.00000 0.00000   -3839   -3.48  -15.77  1.0000
   3  14  29     293    3487     0.00000 0.00000 0.00000 0.00000 0.00000 0.00000   -5231    0.44  -17.32  1.0000
   5  14  29      91    5204     0.00000 0.00000 0.00000 0.00000 0.00000 0.00000   -7363   -9.52    1.60  1.0000
   7  14  29     519    4796     0.00000 0.00000 0.00000 0.00000 0.00000 0.00000   -2225  -17.60  -14.90  1.0000
   9  14  29     379    4113     0.00000 0.00000 0.00000 0.00000 0.00000 0.00000     165    7.40   14.46  1.0000
  11  14  29     540    4232     0.00000 0.00000 0.00000 0.00000 0.00000 0.00000   -2550  -22.41    7.18  1.0000
  13  14  29     313    4433     0.00000 0.00000 0.00000 0.00000 0.00000 0.00000   -6649   -8.60   15.72  1.0000
   2  15  29     165    4164     0.00000 0.00000 0.00000 0.00000 0.00000 0.00000   -6246    3.06   12.62  1.0000
   4  15  29     100    3929     0.00000 0.00000 0.00000 0.00000 0.00000 0.00000    -237   10.06    1.31  1.0000
   6  15  29     694    4468     0.00000 0.00000 0.00000 0.00000 0.00000 0.00000   -6703   -0.80  -26.66  1.0000
   8  15  29     745    4484     0.00000 0.00000 0.00000 0.00000 0.00000 0.00000    -941   -9.77   25.84  1.0000
  10  15  29    1701    4544     0.00000 0.00000 0.00000 0.00000 0.00000 0.00000    2485   19.59    3.23  1.0000
  12  15  29      96    5157     0.00000 0.00000 0.00000 0.00000 0.00000 0.00000   -4345   -5.88    8.00  1.0000
   1  16  29     127    4095     0.00000 0.00000 0.00000 0.00000 0.00000 0.00000   -2778   -8.35   -7.79  1.0000
   3  16  29      74    4084     0.00000 0.00000 0.00000 0.00000 0.00000 0.00000   -6126   -3.30   -8.08  1.0000
   5  16  29    1277    4032     0.00000 0.00000 0.00000 0.00000 0.00000 0.00000   -4651   19.22   30.65  1.0000
   7  16  29     212    4602     0.00000 0.00000 0.00000 0.00000 0.00000 0.00000   -6902   -8.37   12.13  1.0000
   9  16  29     249    4852     0.00000 0.00000 0.00000 0.00000 0.00000 0.00000   -2516   15.55    3.63  1.0000
  11  16  29     112    6387     0.00000 0.00000 0.00000 0.00000 0.00000 0.00000   -4400   -8.00   -7.11  1.0000
   2  17  29     162    4325     0.00000 0.00000 0.00000 0.00000 0.00000 0.00000   -3692   -2.09  -12.71  1.0000
   4  17  29     215    4343     0.00000 0.00000 0.00000 0.00000 0.00000 0.00000   -6514   14.33   -3.90  1.0000
   6  17  29    4108    6982     0.00000 0.00000 0.00000 0.00000 0.00000 0.00000    3822   16.28   -6.73  1.0000
   8  17  29     109    5114     0.00000 0.00000 0.00000 0.00000 0.00000 0.00000   -7672   -2.33   10.32  1.0000
   1  18  29     101    4679     0.00000 0.00000 0.00000 0.00000 0.00000 0.00000   -1116    8.42   -5.75  1.0000
   3  18  29     255    4847     0.00000 0.00000 0.00000 0.00000 0.00000 0.00000   -7271   -1.51  -16.11  1.0000
   5  18  29     257    6396     0.00000 0.00000 0.00000 0.00000 0.00000 0.00000   -3283   -4.29  -15.66  1.0000
   7  18  29     345    5707     0.00000 0.00000 0.00000 0.00000 0.00000 0.00000   -8561  -16.63   -8.79  1.0000
   2  19  29      21    4835     0.00000 0.00000 0.00000 0.00000 0.00000 0.00000   -2151    1.28    4.42  1.0000
   4  19  29      23    6895     0.00000 0.00000 0.00000 0.00000 0.00000 0.00000   -8287   -0.91    4.73  1.0000
   0   0  30    3338    5069     0.00000 0.00000 0.00000 0.00000 0.00000 0.00000    1551  -18.57   -1.55  1.0000
   2   0  30  221694    6896     0.00000 0.00000 0.00000 0.00000 0.00000 0.00000  224989   50.53   14.44  1.0000
   4   0  30   14934    5071     0.00000 0.00000 0.00000 0.00000 0.00000 0.00000   15562   -7.21   -7.47  1.0000
   6   0  30   15390    5717     0.00000 0.00000 0.00000 0.00000 0.00000 0.00000    9490   31.99  -16.93  1.0000
   8   0  30   20943    5438     0.00000 0.00000 0.00000 0.00000 0.00000 0.00000   22412   -2.34   -5.55  1.0000
  10   0  30    3811    7130     0.00000 0.00000 0.00000 0.00000 0.00000 0.00000    5599    2.04  -19.74  1.0000
  12   0  30    9344    7648     0.00000 0.00000 0.00000 0.00000 0.00000 0.00000    6091   -6.37  -17.97  1.0000
  14   0  30    7183    7100     0.00000 0.00000 0.00000 0.00000 0.00000 0.00000    3233  -26.83   15.09  1.0000
  16   0  30      73    7104     0.00000 0.00000 0.00000 0.00000 0.00000 0.00000    -452   -1.64   -8.47  1.0000
  18   0  30   11345    4806     0.00000 0.00000 0.00000 0.00000 0.00000 0.00000    5407  -14.18   31.30  1.0000
   1   1  30    8406    2539     0.00000 0.00000 0.00000 0.00000 0.00000 0.00000   11666  -15.20  -10.76  1.0000
   3   1  30    7283    1766     0.00000 0.00000 0.00000 0.00000 0.00000 0.00000    8154   54.48  -11.00  1.0000
   5   1  30    7526    3787     0.00000 0.00000 0.00000 0.00000 0.00000 0.00000   11585   29.97   -0.88  1.0000
   7   1  30   10304    3236     0.00000 0.00000 0.00000 0.00000 0.00000 0.00000   11058   22.24   13.82  1.0000
   9   1  30   19329    4170     0.00000 0.00000 0.00000 0.00000 0.00000 0.00000   15290  -21.73    8.71  1.0000
  11   1  30    8462    4304     0.00000 0.00000 0.00000 0.00000 0.00000 0.00000   15568  -25.61   22.02  1.0000
  13   1  30    6491    4652     0.00000 0.00000 0.00000 0.00000 0.00000 0.00000    5664    3.29   14.50  1.0000
  15   1  30     326    3019     0.00000 0.00000 0.00000 0.00000 0.00000 0.00000    -761    2.51  -18.10  1.0000
  17   1  30    8897    4980     0.00000 0.00000 0.00000 0.00000 0.00000 0.00000   10594    2.83   -8.29  1.0000
  19   1  30     166    5096     0.00000 0.00000 0.00000 0.00000 0.00000 0.00000   -3742   -0.99  -12.99  1.0000
   0   2  30  230219   10024     0.00000 0.00000 0.00000 0.00000 0.00000 0.00000  236556   53.74  -16.75  1.0000
   2   2  30      56    2188     0.00000 0.00000 0.00000 0.00000 0.00000 0.00000    3357   54.97   27.50  1.0000
   4   2  30   45668    3255     0.00000 0.00000 0.00000 0.00000 0.00000 0.00000   50358  -14.17  -19.15  1.0000
   6   2  30   13726    3916     0.00000 0.00000 0.00000 0.00000 0.00000 0.00000    9894   12.69  -16.07  1.0000
   8   2  30    1697    3917     0.00000 0.00000 0.00000 0.00000 0.00000 0.00000    2909   15.45    9.96  1.0000
  10   2  30    7134    3868     0.00000 0.00000 0.00000 0.00000 0.00000 0.00000    6604  -11.24    3.77  1.0000
  12   2  30   13676    4262     0.00000 0.00000 0.00000 0.00000 0.00000 0.00000   11507   -0.96  -14.24  1.0000
  14   2  30   12248    3705     0.00000 0.00000 0.00000 0.00000 0.00000 0.00000   13860   -4.44   -6.43  1.0000
  16   2  30    3968    5661     0.00000 0.00000 0.00000 0.00000 0.00000 0.00000    3345    9.76   -1.45  1.0000
  18   2  30     568    4261     0.00000 0.00000 0.00000 0.00000 0.00000 0.00000    1629  -17.02   10.80  1.0000
   1   3  30    5272    2242     0.00000 0.00000 0.00000 0.00000 0.00000 0.00000    4992   43.68    1.01  1.0000
   3   3  30   16833    2905     0.00000 0.00000 0.00000 0.00000 0.00000 0.00000   19222    8.99    0.92  1.0000
   5   3  30    4396    3187     0.00000 0.00000 0.00000 0.00000 0.00000 0.00000    5836  -29.51   -1.48  1.0000
   7   3  30    6524    3552     0.00000 0.00000 0.00000 0.00000 0.00000 0.00000    2549    9.51  -29.38  1.0000
   9   3  30    6308    3738     0.00000 0.00000 0.00000 0.00000 0.00000 0.00000    8138   45.85   -1.30  1.0000
  11   3  30    8307    3992     0.00000 0.00000 0.00000 0.00000 0.00000 0.00000   11384   14.59    7.89  1.0000
  13   3  30    9459    3219     0.00000 0.00000 0.00000 0.00000 0.00000 0.00000   10568  -16.36    0.61  1.0000
  15   3  30    4495    3724     0.00000 0.00000 0.00000 0.00000 0.00000 0.00000    2585   22.29   -2.23  1.0000
  17   3  30    3260    5761     0.00000 0.00000 0.00000 0.00000 0.00000 0.00000    3643   -2.56   -2.42  1.0000
   0   4  30    2255    3464     0.00000 0.00000 0.00000 0.00000 0.00000 0.00000    2842   -2.39    8.29  1.0000
   2   4  30   40386    2910     0.00000 0.00000 0.00000 0.00000 0.00000 0.00000   46334   -9.80   19.69  1.0000
   4   4  30    2673    3242     0.00000 0.00000 0.00000 0.00000 0.00000 0.00000    2303   12.29  -13.76  1.0000
   6   4  30     520    4188     0.00000 0.00000 0.00000 0.00000 0.00000 0.00000    -774   18.34   14.04  1.0000
   8   4  30    4959    4312     0.00000 0.00000 0.00000 0.00000 0.00000 0.00000    4371   24.49    5.86  1.0000
  10   4  30    6521    3829     0.00000 0.00000 0.00000 0.00000 0.00000 0.00000    9060  -13.63   17.92  1.0000
  12   4  30    7073    3826     0.00000 0.00000 0.00000 0.00000 0.00000 0.00000    4145   -3.44  -21.17  1.0000
  14   4  30    4643    4556     0.00000 0.00000 0.00000 0.00000 0.00000 0.00000    6792   -4.82  -17.83  1.0000
  16   4  30     481    5553     0.00000 0.00000 0.00000 0.00000 0.00000 0.00000    -199  -19.03   11.45  1.0000
  18   4  30    7959    5237     0.00000 0.00000 0.00000 0.00000 0.00000 0.00000    8032  -12.56    6.02  1.0000
   1   5  30    1502    2448     0.00000 0.00000 0.00000 0.00000 0.00000 0.00000    2804   25.16    5.43  1.0000
   3   5  30    2454    2718     0.00000 0.00000 0.00000 0.00000 0.00000 0.00000    3017  -25.73    3.90  1.0000
   5   5  30   14380    2310     0.00000 0.00000 0.00000 0.00000 0.00000 0.00000   18881  -17.74   -0.55  1.0000
   7   5  30    4543    3825     0.00000 0.00000 0.00000 0.00000 0.00000 0.00000    4398    1.55   11.72  1.0000
   9   5  30    2681    2148     0.00000 0.00000 0.00000 0.00000 0.00000 0.00000    3453   12.71  -18.19  1.0000
  11   5  30    5074    2837     0.00000 0.00000 0.00000 0.00000 0.00000 0.00000    4235    8.05    0.85  1.0000
  13   5  30    2760    3848     0.00000 0.00000 0.00000 0.00000 0.00000 0.00000    6114    3.45   30.90  1.0000
  15   5  30   11825    3337     0.00000 0.00000 0.00000 0.00000 0.00000 0.00000   10780    4.29   28.73  1.0000
  17   5  30    5313    3837     0.00000 0.00000 0.00000 0.00000 0.00000 0.00000    7324    3.29  -12.47  1.0000
   0   6  30    1373    3635     0.00000 0.00000 0.00000 0.00000 0.00000 0.00000    -662   33.48   16.92  1.0000
   2   6  30    5890    2648     0.00000 0.00000 0.00000 0.00000 0.00000 0.00000    3772   10.71   13.80  1.0000
   4   6  30    3574    2468     0.00000 0.00000 0.00000 0.00000 0.00000 0.00000    1380   18.03  -14.27  1.0000
   6   6  30    1376    2446     0.00000 0.00000 0.00000 0.00000 0.00000 0.00000    1071   -4.76    1.50  1.0000
   8   6  30    9607    2698     0.00000 0.00000 0.00000 0.00000 0.00000 0.00000    6592   -1.59  -18.51  1.0000
  10   6  30    4799    2929     0.00000 0.00000 0.00000 0.00000 0.00000 0.00000    7168   17.31    0.99  1.0000
  12   6  30    4809    3417     0.00000 0.00000 0.00000 0.00000 0.00000 0.00000    6795   -2.71  -17.18  1.0000
  14   6  30    2333    3232     0.00000 0.00000 0.00000 0.00000 0.00000 0.00000    2622    4.79    0.02  1.0000
  16   6  30    3875    3652     0.00000 0.00000 0.00000 0.00000 0.00000 0.00000    4603    1.21   -5.90  1.0000
  18   6  30    2992    7991     0.00000 0.00000 0.00000 0.00000 0.00000 0.00000    3131   -3.01   -1.89  1.0000
   1   7  30    1690    2717     0.00000 0.00000 0.00000 0.00000 0.00000 0.00000    1639   21.92  -11.57  1.0000
   3   7  30     978    3051     0.00000 0.00000 0.00000 0.00000 0.00000 0.00000   -1866    9.08   30.33  1.0000
   5   7  30    1532    2776     0.00000 0.00000 0.00000 0.00000 0.00000 0.00000    1209    1.84  -14.20  1.0000
   7   7  30    7043    2566     0.00000 0.00000 0.00000 0.00000 0.00000 0.00000    5783    8.44    0.13  1.0000
   9   7  30    7806    2676     0.00000 0.00000 0.00000 0.00000 0.00000 0.00000    7728  -13.82   -8.62  1.0000
  11   7  30   10524    2888     0.00000 0.00000 0.00000 0.00000 0.00000 0.00000    9307   -4.27   10.10  1.0000
  13   7  30    1107    3211     0.00000 0.00000 0.00000 0.00000 0.00000 0.00000    3131   13.71  -18.41  1.0000
  15   7  30     398    3519     0.00000 0.00000 0.00000 0.00000 0.00000 0.00000   -3242   16.47  -11.69  1.0000
  17   7  30    4984    3846     0.00000 0.00000 0.00000 0.00000 0.00000 0.00000    4095    6.04   -5.06  1.0000
   0   8  30   20913    4338     0.00000 0.00000 0.00000 0.00000 0.00000 0.00000   21977   -7.53    4.83  1.0000
   2   8  30    3418    3024     0.00000 0.00000 0.00000 0.00000 0.00000 0.00000    5440   14.60  -11.91  1.0000
   4   8  30     864    3819     0.00000 0.00000 0.00000 0.00000 0.00000 0.00000   -2291   29.35   -4.86  1.0000
   6   8  30    6512    3157     0.00000 0.00000 0.00000 0.00000 0.00000 0.00000    4203   -6.48   18.92  1.0000
   8   8  30     251    2855     0.00000 0.00000 0.00000 0.00000 0.00000 0.00000    -607   16.03   -0.72  1.0000
  10   8  30     523    3056     0.00000 0.00000 0.00000 0.00000 0.00000 0.00000    1787   20.18   -2.40  1.0000
  12   8  30    3515    3272     0.00000 0.00000 0.00000 0.00000 0.00000 0.00000    1816  -14.32   -9.56  1.0000
  14   8  30      81    4711     0.00000 0.00000 0.00000 0.00000 0.00000 0.00000     -16    3.50   -8.42  1.0000
  16   8  30      51    3746     0.00000 0.00000 0.00000 0.00000 0.00000 0.00000     151    1.78    5.81  1.0000
   1   9  30    4067    2993     0.00000 0.00000 0.00000 0.00000 0.00000 0.00000    2242  -21.64   -9.60  1.0000
   3   9  30    1660    2983     0.00000 0.00000 0.00000 0.00000 0.00000 0.00000     240   44.82    2.65  1.0000
   5   9  30     498    3230     0.00000 0.00000 0.00000 0.00000 0.00000 0.00000   -1844   12.79   18.63  1.0000
   7   9  30     185    3178     0.00000 0.00000 0.00000 0.00000 0.00000 0.00000   -2448  -11.40    7.76  1.0000
   9   9  30     549    3914     0.00000 0.00000 0.00000 0.00000 0.00000 0.00000   -2619  -23.72    0.51  1.0000
  11   9  30    2725    3568     0.00000 0.00000 0.00000 0.00000 0.00000 0.00000    1944    8.04    1.68  1.0000
  13   9  30    7850    4918     0.00000 0.00000 0.00000 0.00000 0.00000 0.00000   12406  -33.76    0.05  1.0000
  15   9  30     141    4339     0.00000 0.00000 0.00000 0.00000 0.00000 0.00000   -1392  -11.81   -2.16  1.0000
   0  10  30     394    4533     0.00000 0.00000 0.00000 0.00000 0.00000 0.00000   -4358    2.29   19.96  1.0000
   2  10  30     112    3280     0.00000 0.00000 0.00000 0.00000 0.00000 0.00000   -1089  -10.12   -3.49  1.0000
   4  10  30     599    3371     0.00000 0.00000 0.00000 0.00000 0.00000 0.00000    1035  -12.87  -20.02  1.0000
   6  10  30     296    3316     0.00000 0.00000 0.00000 0.00000 0.00000 0.00000    1019   16.53    1.10  1.0000
   8  10  30     537    3335     0.00000 0.00000 0.00000 0.00000 0.00000 0.00000    1906   20.86    1.22  1.0000
  10  10  30       4    3487     0.00000 0.00000 0.00000 0.00000 0.00000 0.00000    -938    2.05   -0.54  1.0000
  12  10  30    1986    4190     0.00000 0.00000 0.00000 0.00000 0.00000 0.00000    1329    6.94    4.46  1.0000
  14  10  30    5331    3437     0.00000 0.00000 0.00000 0.00000 0.00000 0.00000    5746   -4.18    4.97  1.0000
  16  10  30    6682    4963     0.00000 0.00000 0.00000 0.00000 0.00000 0.00000    8420  -13.83   19.30  1.0000
   1  11  30    3941    3669     0.00000 0.00000 0.00000 0.00000 0.00000 0.00000    8627  -25.66  -20.77  1.0000
   3  11  30     989    3234     0.00000 0.00000 0.00000 0.00000 0.00000 0.00000    2221   13.92   -9.86  1.0000
   5  11  30      59    3997     0.00000 0.00000 0.00000 0.00000 0.00000 0.00000    -803    7.77   -0.64  1.0000
   7  11  30    3968    3565     0.00000 0.00000 0.00000 0.00000 0.00000 0.00000    3159   -3.34   -9.50  1.0000
   9  11  30      62    3777     0.00000 0.00000 0.00000 0.00000 0.00000 0.00000   -5665    7.32   -3.16  1.0000
  11  11  30     271    5016     0.00000 0.00000 0.00000 0.00000 0.00000 0.00000     594    7.62   -2.54  1.0000
  13  11  30     116    3876     0.00000 0.00000 0.00000 0.00000 0.00000 0.00000   -1225  -10.70    2.15  1.0000
  15  11  30     230    4325     0.00000 0.00000 0.00000 0.00000 0.00000 0.00000    -269   15.20   -2.20  1.0000
   0  12  30    4014    4664     0.00000 0.00000 0.00000 0.00000 0.00000 0.00000    1998   -6.25   17.93  1.0000
   2  12  30     191    3488     0.00000 0.00000 0.00000 0.00000 0.00000 0.00000    -946    0.66   13.99  1.0000
   4  12  30     423    3212     0.00000 0.00000 0.00000 0.00000 0.00000 0.00000    -449   -3.74   20.48  1.0000
   6  12  30     273    3634     0.00000 0.00000 0.00000 0.00000 0.00000 0.00000   -2290   -1.84   16.63  1.0000
   8  12  30     320    3748     0.00000 0.00000 0.00000 0.00000 0.00000 0.00000   -5622  -15.48    9.40  1.0000
  10  12  30      56    4729     0.00000 0.00000 0.00000 0.00000 0.00000 0.00000   -7094    6.45   -3.91  1.0000
  12  12  30      13    4073     0.00000 0.00000 0.00000 0.00000 0.00000 0.00000   -3280   -3.62    0.22  1.0000
  14  12  30     145    5905     0.00000 0.00000 0.00000 0.00000 0.00000 0.00000   -5444   -9.99   -6.97  1.0000
   1  13  30     200    3476     0.00000 0.00000 0.00000 0.00000 0.00000 0.00000   -1700    2.45  -14.09  1.0000
   3  13  30     234    3307     0.00000 0.00000 0.00000 0.00000 0.00000 0.00000    -797  -15.48   -0.26  1.0000
   5  13  30     944    4040     0.00000 0.00000 0.00000 0.00000 0.00000 0.00000   -6060    4.78  -30.74  1.0000
   7  13  30     524    4264     0.00000 0.00000 0.00000 0.00000 0.00000 0.00000   -5625   12.51   19.50  1.0000
   9  13  30    1114    4148     0.00000 0.00000 0.00000 0.00000 0.00000 0.00000   -6222  -33.79    0.41  1.0000
  11  13  30     150    4135     0.00000 0.00000 0.00000 0.00000 0.00000 0.00000   -2493  -12.24   -1.97  1.0000
  13  13  30     198    4124     0.00000 0.00000 0.00000 0.00000 0.00000 0.00000    -732   14.25    0.09  1.0000
   0  14  30     944    5058     0.00000 0.00000 0.00000 0.00000 0.00000 0.00000   -4008  -26.46  -16.35  1.0000
   2  14  30    5672    3938     0.00000 0.00000 0.00000 0.00000 0.00000 0.00000    6620   -4.46    5.43  1.0000
   4  14  30     367    3921     0.00000 0.00000 0.00000 0.00000 0.00000 0.00000   -5882   -6.37   18.31  1.0000
   6  14  30      33    4466     0.00000 0.00000 0.00000 0.00000 0.00000 0.00000   -6144    5.78   -0.92  1.0000
   8  14  30      90    4262     0.00000 0.00000 0.00000 0.00000 0.00000 0.00000   -6392    4.09    8.71  1.0000
  10  14  30      52    4237     0.00000 0.00000 0.00000 0.00000 0.00000 0.00000   -6355   -5.09   -5.27  1.0000
  12  14  30     144    4649     0.00000 0.00000 0.00000 0.00000 0.00000 0.00000     -57   -9.51    7.58  1.0000
   1  15  30     320    4034     0.00000 0.00000 0.00000 0.00000 0.00000 0.00000   -6051    2.11   18.00  1.0000
   3  15  30     463    3830     0.00000 0.00000 0.00000 0.00000 0.00000 0.00000   -5745   21.62    2.62  1.0000
   5  15  30    1077    4007     0.00000 0.00000 0.00000 0.00000 0.00000 0.00000     110    4.87  -29.09  1.0000
   7  15  30     383    4609     0.00000 0.00000 0.00000 0.00000 0.00000 0.00000   -6913   16.22   11.38  1.0000
   9  15  30     144    4772     0.00000 0.00000 0.00000 0.00000 0.00000 0.00000   -1317  -11.89    2.47  1.0000
  11  15  30    4337    5084     0.00000 0.00000 0.00000 0.00000 0.00000 0.00000    2582   15.12    2.09  1.0000
   0  16  30      81    7084     0.00000 0.00000 0.00000 0.00000 0.00000 0.00000   -9258   -1.07    9.06  1.0000
   2  16  30      97    4138     0.00000 0.00000 0.00000 0.00000 0.00000 0.00000   -6208    9.88    1.16  1.0000
   4  16  30     520    4310     0.00000 0.00000 0.00000 0.00000 0.00000 0.00000   -6465  -20.22  -11.15  1.0000
   6  16  30      33    4487     0.00000 0.00000 0.00000 0.00000 0.00000 0.00000   -6730    1.43    5.65  1.0000
   8  16  30      34    4996     0.00000 0.00000 0.00000 0.00000 0.00000 0.00000   -2353    2.42   -5.43  1.0000
  10  16  30     587    6244     0.00000 0.00000 0.00000 0.00000 0.00000 0.00000   -5157  -13.64  -20.39  1.0000
   1  17  30      80    4601     0.00000 0.00000 0.00000 0.00000 0.00000 0.00000   -1852    3.79    8.20  1.0000
   3  17  30      18    4514     0.00000 0.00000 0.00000 0.00000 0.00000 0.00000   -6771   -3.46    2.64  1.0000
   5  17  30     171    4683     0.00000 0.00000 0.00000 0.00000 0.00000 0.00000   -7024    3.13   12.87  1.0000
   7  17  30      54    5250     0.00000 0.00000 0.00000 0.00000 0.00000 0.00000   -7875    6.06    4.33  1.0000
   0  18  30    1128    7027     0.00000 0.00000 0.00000 0.00000 0.00000 0.00000   -2822  -13.51  -31.20  1.0000
   2  18  30     428    4651     0.00000 0.00000 0.00000 0.00000 0.00000 0.00000   -6977  -17.31  -11.79  1.0000
   4  18  30     179    4802     0.00000 0.00000 0.00000 0.00000 0.00000 0.00000   -6362  -12.56   -5.06  1.0000
   6  18  30       9    6742     0.00000 0.00000 0.00000 0.00000 0.00000 0.00000   -8821   -2.84    0.86  1.0000
   1  19  30     180   10928     0.00000 0.00000 0.00000 0.00000 0.00000 0.00000  -15583   -0.69   13.55  1.0000
   2   1  31   12537    2251     0.00000 0.00000 0.00000 0.00000 0.00000 0.00000   11631  -10.46    8.76  1.0000
   4   1  31   23475    3263     0.00000 0.00000 0.00000 0.00000 0.00000 0.00000   27033    4.23   31.72  1.0000
   6   1  31    7914    3260     0.00000 0.00000 0.00000 0.00000 0.00000 0.00000    7179   26.15   33.43  1.0000
   8   1  31   21509    3946     0.00000 0.00000 0.00000 0.00000 0.00000 0.00000   13013  -15.04   30.33  1.0000
  10   1  31   16702    5115     0.00000 0.00000 0.00000 0.00000 0.00000 0.00000   15188  -26.41   20.93  1.0000
  12   1  31   33389    7478     0.00000 0.00000 0.00000 0.00000 0.00000 0.00000   32634   14.87   -2.30  1.0000
  14   1  31    2475    8698     0.00000 0.00000 0.00000 0.00000 0.00000 0.00000    5324   15.88   26.28  1.0000
  16   1  31    7177    7846     0.00000 0.00000 0.00000 0.00000 0.00000 0.00000   12119   20.31   17.84  1.0000
  18   1  31    1849    5351     0.00000 0.00000 0.00000 0.00000 0.00000 0.00000    3478   -2.83   18.29  1.0000
   1   2  31    6501    2211     0.00000 0.00000 0.00000 0.00000 0.00000 0.00000    5506   10.96   11.38  1.0000
   3   2  31    9004    2893     0.00000 0.00000 0.00000 0.00000 0.00000 0.00000   11426   12.20   -5.03  1.0000
   5   2  31    2814    4703     0.00000 0.00000 0.00000 0.00000 0.00000 0.00000    6764  -26.16   52.26  1.0000
   7   2  31    4783    4089     0.00000 0.00000 0.00000 0.00000 0.00000 0.00000    7903  -21.61  -18.01  1.0000
   9   2  31    8916    5798     0.00000 0.00000 0.00000 0.00000 0.00000 0.00000    6677  -10.59   19.11  1.0000
  11   2  31   14155    5954     0.00000 0.00000 0.00000 0.00000 0.00000 0.00000   15338    2.77  -12.03  1.0000
  13   2  31     427    6797     0.00000 0.00000 0.00000 0.00000 0.00000 0.00000    -108  -14.00  -15.54  1.0000
  15   2  31      73    5107     0.00000 0.00000 0.00000 0.00000 0.00000 0.00000   -1605   -4.02   -7.66  1.0000
  17   2  31    9069    6644     0.00000 0.00000 0.00000 0.00000 0.00000 0.00000    7801   -1.38  -13.75  1.0000
   2   3  31   11165    2360     0.00000 0.00000 0.00000 0.00000 0.00000 0.00000   13967  -12.50   -2.26  1.0000
   4   3  31    6011    3134     0.00000 0.00000 0.00000 0.00000 0.00000 0.00000    1279   -5.71  -42.72  1.0000
   6   3  31    2575    3558     0.00000 0.00000 0.00000 0.00000 0.00000 0.00000    1514   27.47   -4.08  1.0000
   8   3  31   18898    4051     0.00000 0.00000 0.00000 0.00000 0.00000 0.00000   17951    8.42   -9.48  1.0000
  10   3  31    5468    5850     0.00000 0.00000 0.00000 0.00000 0.00000 0.00000    9514  -23.04   -7.68  1.0000
  12   3  31   34644    6329     0.00000 0.00000 0.00000 0.00000 0.00000 0.00000   40364   12.70   10.55  1.0000
  14   3  31    6144    4068     0.00000 0.00000 0.00000 0.00000 0.00000 0.00000    7926  -15.15   26.43  1.0000
  16   3  31   10508    5252     0.00000 0.00000 0.00000 0.00000 0.00000 0.00000   11716   10.01  -17.92  1.0000
  18   3  31    3851    4539     0.00000 0.00000 0.00000 0.00000 0.00000 0.00000    4175   -3.21    1.21  1.0000
   1   4  31   15941    2916     0.00000 0.00000 0.00000 0.00000 0.00000 0.00000   16722   -4.92   28.90  1.0000
   3   4  31    4402    2728     0.00000 0.00000 0.00000 0.00000 0.00000 0.00000     581    4.66  -42.87  1.0000
   5   4  31    8005    2226     0.00000 0.00000 0.00000 0.00000 0.00000 0.00000    8329   16.66   19.60  1.0000
   7   4  31    2545    3694     0.00000 0.00000 0.00000 0.00000 0.00000 0.00000    4164   11.04  -14.95  1.0000
   9   4  31    5296    4341     0.00000 0.00000 0.00000 0.00000 0.00000 0.00000   10290  -11.50   33.03  1.0000
  11   4  31    4725    4208     0.00000 0.00000 0.00000 0.00000 0.00000 0.00000    5159  -24.22  -24.10  1.0000
  13   4  31    3803    3443     0.00000 0.00000 0.00000 0.00000 0.00000 0.00000    9057    2.74  -41.50  1.0000
  15   4  31    5506    4606     0.00000 0.00000 0.00000 0.00000 0.00000 0.00000    5919   -2.43  -10.71  1.0000
  17   4  31    5685    5049     0.00000 0.00000 0.00000 0.00000 0.00000 0.00000    6580    6.72    9.29  1.0000
   2   5  31    3576    3718     0.00000 0.00000 0.00000 0.00000 0.00000 0.00000   -1146   28.34   53.50  1.0000
   4   5  31   10427    2928     0.00000 0.00000 0.00000 0.00000 0.00000 0.00000   11492  -14.32   16.96  1.0000
   6   5  31   20195    2466     0.00000 0.00000 0.00000 0.00000 0.00000 0.00000   18076  -24.09   44.29  1.0000
   8   5  31    3328    2702     0.00000 0.00000 0.00000 0.00000 0.00000 0.00000    3115   -5.97    6.23  1.0000
  10   5  31    2874    4104     0.00000 0.00000 0.00000 0.00000 0.00000 0.00000    2178    9.84    3.38  1.0000
  12   5  31   19135    2681     0.00000 0.00000 0.00000 0.00000 0.00000 0.00000   12804   24.87   14.01  1.0000
  14   5  31    2769    3949     0.00000 0.00000 0.00000 0.00000 0.00000 0.00000    4328   -7.52   14.48  1.0000
  16   5  31    2447    6697     0.00000 0.00000 0.00000 0.00000 0.00000 0.00000    2975   -1.26   -6.59  1.0000
   1   6  31    1933    2714     0.00000 0.00000 0.00000 0.00000 0.00000 0.00000    -885  -29.07   33.70  1.0000
   3   6  31     794    2676     0.00000 0.00000 0.00000 0.00000 0.00000 0.00000    -404  -28.32   -3.41  1.0000
   5   6  31   14710    3503     0.00000 0.00000 0.00000 0.00000 0.00000 0.00000   12010   24.72   45.24  1.0000
   7   6  31    4794    2512     0.00000 0.00000 0.00000 0.00000 0.00000 0.00000    7286  -18.68   -4.46  1.0000
   9   6  31   19614    2866     0.00000 0.00000 0.00000 0.00000 0.00000 0.00000   18118   10.59    4.08  1.0000
  11   6  31    6348    2780     0.00000 0.00000 0.00000 0.00000 0.00000 0.00000   10290    0.88  -23.26  1.0000
  13   6  31    3026    3017     0.00000 0.00000 0.00000 0.00000 0.00000 0.00000    7275   26.20  -15.95  1.0000
  15   6  31   12806    3615     0.00000 0.00000 0.00000 0.00000 0.00000 0.00000   10866   -8.98    1.10  1.0000
  17   6  31    3878    5034     0.00000 0.00000 0.00000 0.00000 0.00000 0.00000    4457   10.67   -5.26  1.0000
   2   7  31     616    3313     0.00000 0.00000 0.00000 0.00000 0.00000 0.00000   -2046   16.41  -19.04  1.0000
   4   7  31     328    3530     0.00000 0.00000 0.00000 0.00000 0.00000 0.00000   -3070   -9.03  -15.94  1.0000
   6   7  31    3458    2842     0.00000 0.00000 0.00000 0.00000 0.00000 0.00000    5571   18.07   -3.39  1.0000
   8   7  31    6403    3373     0.00000 0.00000 0.00000 0.00000 0.00000 0.00000    5445   21.29   -7.24  1.0000
  10   7  31    4804    3094     0.00000 0.00000 0.00000 0.00000 0.00000 0.00000    4630   -3.79   17.48  1.0000
  12   7  31    8997    3249     0.00000 0.00000 0.00000 0.00000 0.00000 0.00000    9054  -15.42   -1.28  1.0000
  14   7  31     832    4877     0.00000 0.00000 0.00000 0.00000 0.00000 0.00000     587   -7.18    9.97  1.0000
  16   7  31     856    4206     0.00000 0.00000 0.00000 0.00000 0.00000 0.00000    1530    1.97   10.00  1.0000
   1   8  31    1290    2890     0.00000 0.00000 0.00000 0.00000 0.00000 0.00000   -2646   16.64   32.33  1.0000
   3   8  31   11712    3093     0.00000 0.00000 0.00000 0.00000 0.00000 0.00000   11366   -6.95   -7.62  1.0000
   5   8  31      57    3321     0.00000 0.00000 0.00000 0.00000 0.00000 0.00000   -1064    6.42    4.20  1.0000
   7   8  31    2443    2960     0.00000 0.00000 0.00000 0.00000 0.00000 0.00000    1491  -23.12   -8.18  1.0000
   9   8  31   14523    3024     0.00000 0.00000 0.00000 0.00000 0.00000 0.00000   13643  -17.30    5.63  1.0000
  11   8  31    7210    3541     0.00000 0.00000 0.00000 0.00000 0.00000 0.00000    7525  -17.18   11.54  1.0000
  13   8  31    4475    3648     0.00000 0.00000 0.00000 0.00000 0.00000 0.00000    5596   -9.18    2.79  1.0000
  15   8  31    1232    3531     0.00000 0.00000 0.00000 0.00000 0.00000 0.00000    1420   -2.12   -3.60  1.0000
   2   9  31     490    3059     0.00000 0.00000 0.00000 0.00000 0.00000 0.00000   -1954   11.38   19.31  1.0000
   4   9  31    1194    3736     0.00000 0.00000 0.00000 0.00000 0.00000 0.00000    3608   12.13   32.50  1.0000
   6   9  31    9885    3636     0.00000 0.00000 0.00000 0.00000 0.00000 0.00000    8756  -10.89    4.19  1.0000
   8   9  31    9782    3499     0.00000 0.00000 0.00000 0.00000 0.00000 0.00000    8671   18.02    5.06  1.0000
  10   9  31    6726    3619     0.00000 0.00000 0.00000 0.00000 0.00000 0.00000    6511    1.75   10.40  1.0000
  12   9  31    5652    4009     0.00000 0.00000 0.00000 0.00000 0.00000 0.00000    5988   -0.09    2.89  1.0000
  14   9  31    5461    3720     0.00000 0.00000 0.00000 0.00000 0.00000 0.00000    5587   13.31    8.37  1.0000
  16   9  31    2395    5972     0.00000 0.00000 0.00000 0.00000 0.00000 0.00000    2309    1.75    1.11  1.0000
   1  10  31    3260    3446     0.00000 0.00000 0.00000 0.00000 0.00000 0.00000    3296   24.97   19.61  1.0000
   3  10  31    4131    4034     0.00000 0.00000 0.00000 0.00000 0.00000 0.00000    7628   22.64   -7.74  1.0000
   5  10  31    4347    4125     0.00000 0.00000 0.00000 0.00000 0.00000 0.00000    3419   -9.78    3.45  1.0000
   7  10  31     328    3557     0.00000 0.00000 0.00000 0.00000 0.00000 0.00000     -47    4.14   17.88  1.0000
   9  10  31   11919    3662     0.00000 0.00000 0.00000 0.00000 0.00000 0.00000   11047   -3.03   11.10  1.0000
  11  10  31    8690    4250     0.00000 0.00000 0.00000 0.00000 0.00000 0.00000    9389   18.25    1.47  1.0000
  13  10  31    5659    3562     0.00000 0.00000 0.00000 0.00000 0.00000 0.00000    6442   -3.00    5.06  1.0000
  15  10  31    9151    4052     0.00000 0.00000 0.00000 0.00000 0.00000 0.00000   10396    4.18   -4.94  1.0000
   2  11  31    1425    3475     0.00000 0.00000 0.00000 0.00000 0.00000 0.00000    1598   -2.65  -10.87  1.0000
   4  11  31    2639    3739     0.00000 0.00000 0.00000 0.00000 0.00000 0.00000    3162   23.24  -23.82  1.0000
   6  11  31      43    3642     0.00000 0.00000 0.00000 0.00000 0.00000 0.00000     527   -0.02  -23.23  1.0000
   8  11  31    5179    4306     0.00000 0.00000 0.00000 0.00000 0.00000 0.00000    5041   17.63   12.11  1.0000
  10  11  31    2046    5461     0.00000 0.00000 0.00000 0.00000 0.00000 0.00000    2196  -19.60    2.12  1.0000
  12  11  31    2587    4161     0.00000 0.00000 0.00000 0.00000 0.00000 0.00000    4224  -14.66    4.09  1.0000
  14  11  31      49    3673     0.00000 0.00000 0.00000 0.00000 0.00000 0.00000     490   18.20   -3.53  1.0000
   1  12  31   16015    4694     0.00000 0.00000 0.00000 0.00000 0.00000 0.00000   15146  -13.77   -1.03  1.0000
   3  12  31   30710    3686     0.00000 0.00000 0.00000 0.00000 0.00000 0.00000   36350  -11.74   11.27  1.0000
   5  12  31     850    4023     0.00000 0.00000 0.00000 0.00000 0.00000 0.00000    -345  -25.90   14.17  1.0000
   7  12  31     878    4206     0.00000 0.00000 0.00000 0.00000 0.00000 0.00000     686   17.66   -0.93  1.0000
   9  12  31    1702    4906     0.00000 0.00000 0.00000 0.00000 0.00000 0.00000    1919   -0.43    3.09  1.0000
  11  12  31    1916    4119     0.00000 0.00000 0.00000 0.00000 0.00000 0.00000    3257   14.35    1.95  1.0000
  13  12  31     209    4103     0.00000 0.00000 0.00000 0.00000 0.00000 0.00000   -3006   -2.60   14.39  1.0000
   2  13  31     448    3854     0.00000 0.00000 0.00000 0.00000 0.00000 0.00000    -843   14.58  -15.71  1.0000
   4  13  31    1717    3554     0.00000 0.00000 0.00000 0.00000 0.00000 0.00000   -5330   -4.61  -41.70  1.0000
   6  13  31     949    5026     0.00000 0.00000 0.00000 0.00000 0.00000 0.00000   -7538  -25.93  -17.32  1.0000
   8  13  31     100    4133     0.00000 0.00000 0.00000 0.00000 0.00000 0.00000   -1727    9.61    3.18  1.0000
  10  13  31    1645    4379     0.00000 0.00000 0.00000 0.00000 0.00000 0.00000    2050    3.33    3.42  1.0000
  12  13  31     200    4309     0.00000 0.00000 0.00000 0.00000 0.00000 0.00000   -6463    2.82   14.02  1.0000
   1  14  31     963    5350     0.00000 0.00000 0.00000 0.00000 0.00000 0.00000   -7483  -16.16   26.95  1.0000
   3  14  31     880    4273     0.00000 0.00000 0.00000 0.00000 0.00000 0.00000   -6409   14.94   26.06  1.0000
   5  14  31     257    4130     0.00000 0.00000 0.00000 0.00000 0.00000 0.00000   -6195    7.35   14.49  1.0000
   7  14  31     190    4530     0.00000 0.00000 0.00000 0.00000 0.00000 0.00000   -6794    7.94   11.46  1.0000
   9  14  31     247    4531     0.00000 0.00000 0.00000 0.00000 0.00000 0.00000   -1756  -13.73    8.07  1.0000
  11  14  31    3740    4633     0.00000 0.00000 0.00000 0.00000 0.00000 0.00000    5432  -17.15   -4.08  1.0000
   2  15  31      70    3965     0.00000 0.00000 0.00000 0.00000 0.00000 0.00000   -5947    4.11   -7.43  1.0000
   4  15  31     101    4261     0.00000 0.00000 0.00000 0.00000 0.00000 0.00000   -6391    1.28  -10.11  1.0000
   6  15  31      89    4191     0.00000 0.00000 0.00000 0.00000 0.00000 0.00000   -6287    9.54   -0.21  1.0000
   8  15  31      17    5336     0.00000 0.00000 0.00000 0.00000 0.00000 0.00000   -5929    1.67   -3.78  1.0000
  10  15  31    4068    5674     0.00000 0.00000 0.00000 0.00000 0.00000 0.00000    4921   -4.26   -4.88  1.0000
   1  16  31     537    5250     0.00000 0.00000 0.00000 0.00000 0.00000 0.00000    1612  -20.32   19.46  1.0000
   3  16  31     348    4008     0.00000 0.00000 0.00000 0.00000 0.00000 0.00000   -6012   -9.15  -16.52  1.0000
   5  16  31      66    4609     0.00000 0.00000 0.00000 0.00000 0.00000 0.00000   -6914    1.70   -8.08  1.0000
   7  16  31     110    4734     0.00000 0.00000 0.00000 0.00000 0.00000 0.00000   -7102   -2.20   10.40  1.0000
   9  16  31       8    7781     0.00000 0.00000 0.00000 0.00000 0.00000 0.00000  -10641   -2.55    1.36  1.0000
   2  17  31     188    4359     0.00000 0.00000 0.00000 0.00000 0.00000 0.00000   -6538    0.91  -13.84  1.0000
   4  17  31     136    4795     0.00000 0.00000 0.00000 0.00000 0.00000 0.00000   -6131   -6.58    9.78  1.0000
   6  17  31     120    4623     0.00000 0.00000 0.00000 0.00000 0.00000 0.00000   -6934   -9.83   -5.16  1.0000
   1  18  31     330    4530     0.00000 0.00000 0.00000 0.00000 0.00000 0.00000   -6796    3.32   18.09  1.0000
   3  18  31      12    5735     0.00000 0.00000 0.00000 0.00000 0.00000 0.00000   -6066    3.40    0.57  1.0000
   0   0  32  536336   28405     0.00000 0.00000 0.00000 0.00000 0.00000 0.00000  572769   24.97   -0.71  1.0000
   2   0  32    3258    3198     0.00000 0.00000 0.00000 0.00000 0.00000 0.00000   12836    6.00  -61.09  1.0000
   4   0  32   71607    6207     0.00000 0.00000 0.00000 0.00000 0.00000 0.00000   98734   37.30   33.59  1.0000
   6   0  32   44500    5207     0.00000 0.00000 0.00000 0.00000 0.00000 0.00000   47580   -6.99   -7.17  1.0000
   8   0  32    6503   10847     0.00000 0.00000 0.00000 0.00000 0.00000 0.00000   18645   57.89  -30.16  1.0000
  10   0  32     589    6894     0.00000 0.00000 0.00000 0.00000 0.00000 0.00000     926   -4.02    4.79  1.0000
  12   0  32   11017    7064     0.00000 0.00000 0.00000 0.00000 0.00000 0.00000    7993    4.37   15.19  1.0000
  14   0  32   21366    8583     0.00000 0.00000 0.00000 0.00000 0.00000 0.00000   22737   -4.67  -14.27  1.0000
  16   0  32    3585    9842     0.00000 0.00000 0.00000 0.00000 0.00000 0.00000    3102   17.49   -8.32  1.0000
   1   1  32   17680    2624     0.00000 0.00000 0.00000 0.00000 0.00000 0.00000   21034   12.21    0.66  1.0000
   3   1  32    6713    2573     0.00000 0.00000 0.00000 0.00000 0.00000 0.00000    7619   31.13   17.43  1.0000
   5   1  32    8667    3573     0.00000 0.00000 0.00000 0.00000 0.00000 0.00000   12235   20.87    0.05  1.0000
   7   1  32    8490    3738     0.00000 0.00000 0.00000 0.00000 0.00000 0.00000    7587    6.01   -1.80  1.0000
   9   1  32   10020    3750     0.00000 0.00000 0.00000 0.00000 0.00000 0.00000   10939    3.76    2.56  1.0000
  11   1  32   11717    5192     0.00000 0.00000 0.00000 0.00000 0.00000 0.00000   11683   -3.55    6.71  1.0000
  13   1  32   10846    6053     0.00000 0.00000 0.00000 0.00000 0.00000 0.00000   10453   -2.26  -14.19  1.0000
  15   1  32    6558    6948     0.00000 0.00000 0.00000 0.00000 0.00000 0.00000    5461   -8.81   19.94  1.0000
  17   1  32    7058    4924     0.00000 0.00000 0.00000 0.00000 0.00000 0.00000    5722   -8.51   -0.36  1.0000
   0   2  32    2044    4452     0.00000 0.00000 0.00000 0.00000 0.00000 0.00000   10371    5.43   62.73  1.0000
   2   2  32  101637    3883     0.00000 0.00000 0.00000 0.00000 0.00000 0.00000   99579    3.51   -1.09  1.0000
   4   2  32    1749    3182     0.00000 0.00000 0.00000 0.00000 0.00000 0.00000    5560   33.29   -8.54  1.0000
   6   2  32    9450    3714     0.00000 0.00000 0.00000 0.00000 0.00000 0.00000    9981  -17.37    0.07  1.0000
   8   2  32   11345    4146     0.00000 0.00000 0.00000 0.00000 0.00000 0.00000   16215   28.94   -2.48  1.0000
  10   2  32   18553    4916     0.00000 0.00000 0.00000 0.00000 0.00000 0.00000   17511    0.50   19.40  1.0000
  12   2  32   16935    4529     0.00000 0.00000 0.00000 0.00000 0.00000 0.00000   14387   10.60   -0.38  1.0000
  14   2  32   10994    6678     0.00000 0.00000 0.00000 0.00000 0.00000 0.00000   10687   -5.86    2.21  1.0000
  16   2  32    1032    6123     0.00000 0.00000 0.00000 0.00000 0.00000 0.00000    1014    0.28   -1.60  1.0000
   1   3  32    4009    2504     0.00000 0.00000 0.00000 0.00000 0.00000 0.00000    4522   10.59  -11.01  1.0000
   3   3  32    4990    2752     0.00000 0.00000 0.00000 0.00000 0.00000 0.00000    7497  -15.12   -6.22  1.0000
   5   3  32   12771    4284     0.00000 0.00000 0.00000 0.00000 0.00000 0.00000   11293    4.28   11.89  1.0000
   7   3  32    2801    3915     0.00000 0.00000 0.00000 0.00000 0.00000 0.00000    3549   -9.18   -5.08  1.0000
   9   3  32   11983    5314     0.00000 0.00000 0.00000 0.00000 0.00000 0.00000   15994  -32.37  -39.84  1.0000
  11   3  32   10361    5424     0.00000 0.00000 0.00000 0.00000 0.00000 0.00000   13049  -11.49  -14.30  1.0000
  13   3  32     285    5304     0.00000 0.00000 0.00000 0.00000 0.00000 0.00000   -2289  -15.64    6.88  1.0000
  15   3  32    9340    4416     0.00000 0.00000 0.00000 0.00000 0.00000 0.00000    5870    3.38  -21.14  1.0000
  17   3  32    8151    7608     0.00000 0.00000 0.00000 0.00000 0.00000 0.00000    8608   -2.46    9.28  1.0000
   0   4  32   61851    7077     0.00000 0.00000 0.00000 0.00000 0.00000 0.00000   84856   37.47  -34.60  1.0000
   2   4  32    1623    2787     0.00000 0.00000 0.00000 0.00000 0.00000 0.00000    5515   36.41    7.45  1.0000
   4   4  32    5254    4057     0.00000 0.00000 0.00000 0.00000 0.00000 0.00000   12611   40.00    6.17  1.0000
   6   4  32      12    3830     0.00000 0.00000 0.00000 0.00000 0.00000 0.00000   -1350    2.70    2.20  1.0000
   8   4  32    7799    4128     0.00000 0.00000 0.00000 0.00000 0.00000 0.00000    7191    3.42    1.12  1.0000
  10   4  32    5974    4598     0.00000 0.00000 0.00000 0.00000 0.00000 0.00000   14103   22.38   35.78  1.0000
  12   4  32    8679    5451     0.00000 0.00000 0.00000 0.00000 0.00000 0.00000    9212   -4.66    5.17  1.0000
  14   4  32    5940    4496     0.00000 0.00000 0.00000 0.00000 0.00000 0.00000    6254    2.68  -12.73  1.0000
  16   4  32     156    6328     0.00000 0.00000 0.00000 0.00000 0.00000 0.00000   -1197   10.89   -6.46  1.0000
   1   5  32     706    2765     0.00000 0.00000 0.00000 0.00000 0.00000 0.00000    2601   24.59    4.05  1.0000
   3   5  32    5415    2791     0.00000 0.00000 0.00000 0.00000 0.00000 0.00000    3912    7.04  -15.61  1.0000
   5   5  32       6    3309     0.00000 0.00000 0.00000 0.00000 0.00000 0.00000    2493  -48.03   -0.82  1.0000
   7   5  32    2919    3110     0.00000 0.00000 0.00000 0.00000 0.00000 0.00000    5960   -8.46  -24.49  1.0000
   9   5  32    2244    3078     0.00000 0.00000 0.00000 0.00000 0.00000 0.00000    6941    2.88  -36.32  1.0000
  11   5  32    2711    3014     0.00000 0.00000 0.00000 0.00000 0.00000 0.00000    4899   21.04    6.07  1.0000
  13   5  32    4945    3022     0.00000 0.00000 0.00000 0.00000 0.00000 0.00000    6299  -17.81    2.00  1.0000
  15   5  32    3786    3699     0.00000 0.00000 0.00000 0.00000 0.00000 0.00000    6429  -13.35  -13.39  1.0000
  17   5  32    1443    5191     0.00000 0.00000 0.00000 0.00000 0.00000 0.00000    1748   -5.58    1.99  1.0000
   0   6  32   45786    7439     0.00000 0.00000 0.00000 0.00000 0.00000 0.00000   47842   -6.77    7.40  1.0000
   2   6  32     352    3311     0.00000 0.00000 0.00000 0.00000 0.00000 0.00000      82  -19.23   -0.26  1.0000
   4   6  32    3935    3944     0.00000 0.00000 0.00000 0.00000 0.00000 0.00000    3822    2.87   -1.46  1.0000
   6   6  32    6754    2756     0.00000 0.00000 0.00000 0.00000 0.00000 0.00000   12888   31.87   -0.84  1.0000
   8   6  32    5740    2697     0.00000 0.00000 0.00000 0.00000 0.00000 0.00000    6197   -2.07   -3.49  1.0000
  10   6  32    4224    2608     0.00000 0.00000 0.00000 0.00000 0.00000 0.00000    4604    0.61   -9.33  1.0000
  12   6  32    2047    3129     0.00000 0.00000 0.00000 0.00000 0.00000 0.00000    4149   -9.50   18.05  1.0000
  14   6  32    6231    4824     0.00000 0.00000 0.00000 0.00000 0.00000 0.00000    5093    8.44   -1.13  1.0000
  16   6  32    4153    3652     0.00000 0.00000 0.00000 0.00000 0.00000 0.00000    4493    1.79    2.04  1.0000
   1   7  32    7052    2927     0.00000 0.00000 0.00000 0.00000 0.00000 0.00000    5948    6.91    0.78  1.0000
   3   7  32    2369    3373     0.00000 0.00000 0.00000 0.00000 0.00000 0.00000    2801   -8.93    4.27  1.0000
   5   7  32     672    2988     0.00000 0.00000 0.00000 0.00000 0.00000 0.00000   -1391   -8.59   24.80  1.0000
   7   7  32    4469    3903     0.00000 0.00000 0.00000 0.00000 0.00000 0.00000   10967   38.85    1.79  1.0000
   9   7  32    2436    2827     0.00000 0.00000 0.00000 0.00000 0.00000 0.00000    2749    1.07   -3.10  1.0000
  11   7  32    2276    3178     0.00000 0.00000 0.00000 0.00000 0.00000 0.00000    2209    1.54   -5.18  1.0000
  13   7  32   11668    3390     0.00000 0.00000 0.00000 0.00000 0.00000 0.00000    8097   21.36   15.88  1.0000
  15   7  32   13145    4186     0.00000 0.00000 0.00000 0.00000 0.00000 0.00000   21724    5.85   32.78  1.0000
   0   8  32    2317    4431     0.00000 0.00000 0.00000 0.00000 0.00000 0.00000    7075   59.03   27.61  1.0000
   2   8  32     892    3107     0.00000 0.00000 0.00000 0.00000 0.00000 0.00000   -2720   30.02    3.67  1.0000
   4   8  32      23    3546     0.00000 0.00000 0.00000 0.00000 0.00000 0.00000   -4569    3.90   -2.83  1.0000
   6   8  32      44    3197     0.00000 0.00000 0.00000 0.00000 0.00000 0.00000   -4389   -6.24    2.56  1.0000
   8   8  32     123    3130     0.00000 0.00000 0.00000 0.00000 0.00000 0.00000    -216   11.22   -0.04  1.0000
  10   8  32     783    3480     0.00000 0.00000 0.00000 0.00000 0.00000 0.00000    2225   -0.71  -22.48  1.0000
  12   8  32    3236    3483     0.00000 0.00000 0.00000 0.00000 0.00000 0.00000    4418    8.00   -5.76  1.0000
  14   8  32    2321    4607     0.00000 0.00000 0.00000 0.00000 0.00000 0.00000    4177   12.96  -11.98  1.0000
  16   8  32     140    5563     0.00000 0.00000 0.00000 0.00000 0.00000 0.00000    -231   -3.19  -11.57  1.0000
   1   9  32    8024    3357     0.00000 0.00000 0.00000 0.00000 0.00000 0.00000    8883    3.85   -6.51  1.0000
   3   9  32    1429    3154     0.00000 0.00000 0.00000 0.00000 0.00000 0.00000    1257  -29.52   38.74  1.0000
   5   9  32    1291    3827     0.00000 0.00000 0.00000 0.00000 0.00000 0.00000   -4364    4.60   36.09  1.0000
   7   9  32    1275    3568     0.00000 0.00000 0.00000 0.00000 0.00000 0.00000    1487    3.73    2.84  1.0000
   9   9  32    1185    3507     0.00000 0.00000 0.00000 0.00000 0.00000 0.00000    1372   -4.17    1.58  1.0000
  11   9  32      61    3639     0.00000 0.00000 0.00000 0.00000 0.00000 0.00000    1456  -18.91  -32.34  1.0000
  13   9  32    5485    3642     0.00000 0.00000 0.00000 0.00000 0.00000 0.00000    4080   -7.85   -8.24  1.0000
  15   9  32    8457    4271     0.00000 0.00000 0.00000 0.00000 0.00000 0.00000    8831  -16.10    2.33  1.0000
   0  10  32    3510    4959     0.00000 0.00000 0.00000 0.00000 0.00000 0.00000    4179   -3.89   -3.89  1.0000
   2  10  32     252    3266     0.00000 0.00000 0.00000 0.00000 0.00000 0.00000    -734   -0.11  -16.06  1.0000
   4  10  32      37    4493     0.00000 0.00000 0.00000 0.00000 0.00000 0.00000    2292   20.11  -37.78  1.0000
   6  10  32      25    3600     0.00000 0.00000 0.00000 0.00000 0.00000 0.00000   -3081    0.99    4.96  1.0000
   8  10  32     451    3799     0.00000 0.00000 0.00000 0.00000 0.00000 0.00000   -5415    0.92   21.49  1.0000
  10  10  32       5    4237     0.00000 0.00000 0.00000 0.00000 0.00000 0.00000    -308   -2.18   -0.52  1.0000
  12  10  32     150    5218     0.00000 0.00000 0.00000 0.00000 0.00000 0.00000    -949   -5.78   10.99  1.0000
  14  10  32    6377    3668     0.00000 0.00000 0.00000 0.00000 0.00000 0.00000    7758   -5.07    7.40  1.0000
   1  11  32    1345    3532     0.00000 0.00000 0.00000 0.00000 0.00000 0.00000    1631   -3.86   -8.01  1.0000
   3  11  32    4341    3455     0.00000 0.00000 0.00000 0.00000 0.00000 0.00000    5198  -11.74   11.38  1.0000
   5  11  32     376    4212     0.00000 0.00000 0.00000 0.00000 0.00000 0.00000   -5144   18.09   -7.62  1.0000
   7  11  32      35    4139     0.00000 0.00000 0.00000 0.00000 0.00000 0.00000   -4373    0.45    5.96  1.0000
   9  11  32    1626    5832     0.00000 0.00000 0.00000 0.00000 0.00000 0.00000    5596  -18.31   32.34  1.0000
  11  11  32     269    3978     0.00000 0.00000 0.00000 0.00000 0.00000 0.00000   -2031  -16.59   -0.29  1.0000
  13  11  32    1728    4041     0.00000 0.00000 0.00000 0.00000 0.00000 0.00000    1175    8.15    1.90  1.0000
   0  12  32     254    6640     0.00000 0.00000 0.00000 0.00000 0.00000 0.00000   -2081    3.20  -15.81  1.0000
   2  12  32    4654    3698     0.00000 0.00000 0.00000 0.00000 0.00000 0.00000    3537    8.53    3.08  1.0000
   4  12  32      18    3619     0.00000 0.00000 0.00000 0.00000 0.00000 0.00000   -3373   -3.89   -1.83  1.0000
   6  12  32     418    4390     0.00000 0.00000 0.00000 0.00000 0.00000 0.00000   -5752   -6.86  -19.52  1.0000
   8  12  32     114    4341     0.00000 0.00000 0.00000 0.00000 0.00000 0.00000   -5174    9.83    4.45  1.0000
  10  12  32     147    4123     0.00000 0.00000 0.00000 0.00000 0.00000 0.00000   -6184   -5.02  -11.19  1.0000
  12  12  32       1    4270     0.00000 0.00000 0.00000 0.00000 0.00000 0.00000    -434   -0.69   -0.38  1.0000
   1  13  32     219    3954     0.00000 0.00000 0.00000 0.00000 0.00000 0.00000   -5931   -2.34   14.81  1.0000
   3  13  32     273    4135     0.00000 0.00000 0.00000 0.00000 0.00000 0.00000   -6203  -15.32   -6.71  1.0000
   5  13  32     331    4181     0.00000 0.00000 0.00000 0.00000 0.00000 0.00000   -6271  -18.35   -1.66  1.0000
   7  13  32     718    5175     0.00000 0.00000 0.00000 0.00000 0.00000 0.00000   -1510   22.95  -14.48  1.0000
   9  13  32     171    4334     0.00000 0.00000 0.00000 0.00000 0.00000 0.00000   -6501  -10.78    7.71  1.0000
  11  13  32      85    4375     0.00000 0.00000 0.00000 0.00000 0.00000 0.00000   -4973    9.21   -1.65  1.0000
   0  14  32    4789    7498     0.00000 0.00000 0.00000 0.00000 0.00000 0.00000    5904   -3.57   12.96  1.0000
   2  14  32      42    3802     0.00000 0.00000 0.00000 0.00000 0.00000 0.00000   -3363   -5.62   -3.40  1.0000
   4  14  32     151    4605     0.00000 0.00000 0.00000 0.00000 0.00000 0.00000   -5887    2.71   12.13  1.0000
   6  14  32      55    4106     0.00000 0.00000 0.00000 0.00000 0.00000 0.00000   -6159    7.33    1.62  1.0000
   8  14  32    1850    5580     0.00000 0.00000 0.00000 0.00000 0.00000 0.00000    3649   13.71   11.65  1.0000
  10  14  32      74    4663     0.00000 0.00000 0.00000 0.00000 0.00000 0.00000   -6995   -4.93   -7.19  1.0000
   1  15  32     425    3975     0.00000 0.00000 0.00000 0.00000 0.00000 0.00000   -5963   -8.72  -18.97  1.0000
   3  15  32     466    3993     0.00000 0.00000 0.00000 0.00000 0.00000 0.00000   -5989    3.37   21.59  1.0000
   5  15  32     356    4154     0.00000 0.00000 0.00000 0.00000 0.00000 0.00000   -6231  -14.35   12.63  1.0000
   7  15  32    1870    5501     0.00000 0.00000 0.00000 0.00000 0.00000 0.00000    5815    5.53  -33.12  1.0000
   9  15  32     344    6715     0.00000 0.00000 0.00000 0.00000 0.00000 0.00000  -10073  -18.58   -2.69  1.0000
   0  16  32     347    6842     0.00000 0.00000 0.00000 0.00000 0.00000 0.00000   -4999   17.06    8.05  1.0000
   2  16  32       1    4486     0.00000 0.00000 0.00000 0.00000 0.00000 0.00000   -5819    0.16    1.21  1.0000
   4  16  32     166    4667     0.00000 0.00000 0.00000 0.00000 0.00000 0.00000   -7000   11.60    5.94  1.0000
   6  16  32       5    4560     0.00000 0.00000 0.00000 0.00000 0.00000 0.00000   -6840    1.99   -1.17  1.0000
   8  16  32     137   13478     0.00000 0.00000 0.00000 0.00000 0.00000 0.00000  -11323   -2.08   11.65  1.0000
   1  17  32      79    4916     0.00000 0.00000 0.00000 0.00000 0.00000 0.00000   -4382   -8.97    0.86  1.0000
   3  17  32      81    5127     0.00000 0.00000 0.00000 0.00000 0.00000 0.00000   -7691   -2.81   -8.68  1.0000
   5  17  32      42    6518     0.00000 0.00000 0.00000 0.00000 0.00000 0.00000   -6619   -5.96   -2.84  1.0000
   2   1  33   20504    2473     0.00000 0.00000 0.00000 0.00000 0.00000 0.00000   20983   -7.61   -1.77  1.0000
   4   1  33    5243    3908     0.00000 0.00000 0.00000 0.00000 0.00000 0.00000    7690  -20.36   -1.98  1.0000
   6   1  33   15118    3727     0.00000 0.00000 0.00000 0.00000 0.00000 0.00000   10182   -4.48   22.40  1.0000
   8   1  33    6417    4248     0.00000 0.00000 0.00000 0.00000 0.00000 0.00000   15485  -43.74  -10.08  1.0000
  10   1  33    6008    7039     0.00000 0.00000 0.00000 0.00000 0.00000 0.00000   10401  -24.33  -35.36  1.0000
  12   1  33    9982    7437     0.00000 0.00000 0.00000 0.00000 0.00000 0.00000    3700   44.80  -13.96  1.0000
  14   1  33   11194    8492     0.00000 0.00000 0.00000 0.00000 0.00000 0.00000   16503   25.47   21.39  1.0000
  16   1  33   11641    8587     0.00000 0.00000 0.00000 0.00000 0.00000 0.00000   20225  -22.72  -28.96  1.0000
   1   2  33   17132    2583     0.00000 0.00000 0.00000 0.00000 0.00000 0.00000   16951    8.66    0.60  1.0000
   3   2  33    6023    2675     0.00000 0.00000 0.00000 0.00000 0.00000 0.00000    7459  -13.38   -3.77  1.0000
   5   2  33    6686    3727     0.00000 0.00000 0.00000 0.00000 0.00000 0.00000    8913  -25.44   -6.06  1.0000
   7   2  33    1747    5784     0.00000 0.00000 0.00000 0.00000 0.00000 0.00000    5011  -12.24  -28.18  1.0000
   9   2  33    4582    4665     0.00000 0.00000 0.00000 0.00000 0.00000 0.00000   14824   54.60    3.93  1.0000
  11   2  33   10667    5092     0.00000 0.00000 0.00000 0.00000 0.00000 0.00000   14117  -15.99   -0.52  1.0000
  13   2  33    3461    5178     0.00000 0.00000 0.00000 0.00000 0.00000 0.00000   11372  -47.57   10.97  1.0000
  15   2  33   11520    7687     0.00000 0.00000 0.00000 0.00000 0.00000 0.00000   12268   -8.96   -1.77  1.0000
  17   2  33    8604   19439     0.00000 0.00000 0.00000 0.00000 0.00000 0.00000   11808   -4.89   15.38  1.0000
   2   3  33    3119    2875     0.00000 0.00000 0.00000 0.00000 0.00000 0.00000    4091   13.98   -3.44  1.0000
   4   3  33   15971    3202     0.00000 0.00000 0.00000 0.00000 0.00000 0.00000   16485   -2.41    0.85  1.0000
   6   3  33    9950    4134     0.00000 0.00000 0.00000 0.00000 0.00000 0.00000   14913   30.08   41.97  1.0000
   8   3  33   11960    4125     0.00000 0.00000 0.00000 0.00000 0.00000 0.00000   13864    1.35    8.47  1.0000
  10   3  33   32288    5189     0.00000 0.00000 0.00000 0.00000 0.00000 0.00000   30953  -14.69   -9.38  1.0000
  12   3  33    9631    6787     0.00000 0.00000 0.00000 0.00000 0.00000 0.00000    5814  -15.52  -19.71  1.0000
  14   3  33   26006    6076     0.00000 0.00000 0.00000 0.00000 0.00000 0.00000   24510   12.06   10.77  1.0000
  16   3  33    7233    4891     0.00000 0.00000 0.00000 0.00000 0.00000 0.00000    4997   -6.85  -26.28  1.0000
   1   4  33    1369    3210     0.00000 0.00000 0.00000 0.00000 0.00000 0.00000    2517   23.61    0.56  1.0000
   3   4  33   17074    3293     0.00000 0.00000 0.00000 0.00000 0.00000 0.00000   17144    1.23   -0.38  1.0000
   5   4  33    4029    4312     0.00000 0.00000 0.00000 0.00000 0.00000 0.00000    7947   -8.53   29.77  1.0000
   7   4  33    1199    3990     0.00000 0.00000 0.00000 0.00000 0.00000 0.00000    4886    3.48   35.65  1.0000
   9   4  33    6470    4131     0.00000 0.00000 0.00000 0.00000 0.00000 0.00000    6750   -7.17   27.73  1.0000
  11   4  33   11559    6313     0.00000 0.00000 0.00000 0.00000 0.00000 0.00000   11044  -18.00  -12.74  1.0000
  13   4  33    3760    4393     0.00000 0.00000 0.00000 0.00000 0.00000 0.00000    3239   -7.61   -4.16  1.0000
  15   4  33    5472    6739     0.00000 0.00000 0.00000 0.00000 0.00000 0.00000   10273   31.74   13.63  1.0000
   2   5  33    2735    3236     0.00000 0.00000 0.00000 0.00000 0.00000 0.00000    3801   21.02   -6.74  1.0000
   4   5  33    3117    2792     0.00000 0.00000 0.00000 0.00000 0.00000 0.00000    6395    8.05   29.47  1.0000
   6   5  33     217    2767     0.00000 0.00000 0.00000 0.00000 0.00000 0.00000   -1065   12.39   -8.33  1.0000
   8   5  33   12463    3421     0.00000 0.00000 0.00000 0.00000 0.00000 0.00000   11454    1.51  -28.86  1.0000
  10   5  33   16058    4515     0.00000 0.00000 0.00000 0.00000 0.00000 0.00000   21350    7.65   25.53  1.0000
  12   5  33    6832    3883     0.00000 0.00000 0.00000 0.00000 0.00000 0.00000    6580  -15.14   22.30  1.0000
  14   5  33    9241    4834     0.00000 0.00000 0.00000 0.00000 0.00000 0.00000    8280   14.23   -2.85  1.0000
  16   5  33    3491    3898     0.00000 0.00000 0.00000 0.00000 0.00000 0.00000    4228   -8.39   -5.10  1.0000
   1   6  33     412    2942     0.00000 0.00000 0.00000 0.00000 0.00000 0.00000   -2444    1.80   20.47  1.0000
   3   6  33    7878    3057     0.00000 0.00000 0.00000 0.00000 0.00000 0.00000    8788  -31.68   48.32  1.0000
   5   6  33     108    3539     0.00000 0.00000 0.00000 0.00000 0.00000 0.00000   -3036   -8.88   -5.62  1.0000
   7   6  33    5434    3158     0.00000 0.00000 0.00000 0.00000 0.00000 0.00000    4182    7.22    7.13  1.0000
   9   6  33    5931    4510     0.00000 0.00000 0.00000 0.00000 0.00000 0.00000    7846  -13.42   -0.51  1.0000
  11   6  33   12466    2913     0.00000 0.00000 0.00000 0.00000 0.00000 0.00000    7861   42.31   25.14  1.0000
  13   6  33    3239    3238     0.00000 0.00000 0.00000 0.00000 0.00000 0.00000    3773   -3.28   -6.10  1.0000
  15   6  33    6983    3519     0.00000 0.00000 0.00000 0.00000 0.00000 0.00000    6693   -1.53    2.29  1.0000
   2   7  33     676    3186     0.00000 0.00000 0.00000 0.00000 0.00000 0.00000    2417   10.39  -30.61  1.0000
   4   7  33     287    3154     0.00000 0.00000 0.00000 0.00000 0.00000 0.00000    2591   -4.78   34.53  1.0000
   6   7  33    1099    3050     0.00000 0.00000 0.00000 0.00000 0.00000 0.00000     812   -8.52    9.95  1.0000
   8   7  33    3606    2962     0.00000 0.00000 0.00000 0.00000 0.00000 0.00000    5020  -17.82   -8.34  1.0000
  10   7  33    5077    3192     0.00000 0.00000 0.00000 0.00000 0.00000 0.00000    7413    4.47  -23.66  1.0000
  12   7  33    2691    3317     0.00000 0.00000 0.00000 0.00000 0.00000 0.00000    4877  -14.25  -11.28  1.0000
  14   7  33    8050    3617     0.00000 0.00000 0.00000 0.00000 0.00000 0.00000   12034    7.95  -20.71  1.0000
   1   8  33    3669    5314     0.00000 0.00000 0.00000 0.00000 0.00000 0.00000    9345   44.03   -9.46  1.0000
   3   8  33      86    3774     0.00000 0.00000 0.00000 0.00000 0.00000 0.00000   -1138   -0.85    9.37  1.0000
   5   8  33    1039    4094     0.00000 0.00000 0.00000 0.00000 0.00000 0.00000   -2464   -0.05  -32.63  1.0000
   7   8  33    2142    3338     0.00000 0.00000 0.00000 0.00000 0.00000 0.00000    3100   18.45   -7.44  1.0000
   9   8  33    7925    3505     0.00000 0.00000 0.00000 0.00000 0.00000 0.00000   10225   12.14   -2.50  1.0000
  11   8  33    3388    3836     0.00000 0.00000 0.00000 0.00000 0.00000 0.00000    5736   21.37   17.29  1.0000
  13   8  33    3298    3608     0.00000 0.00000 0.00000 0.00000 0.00000 0.00000    4873  -12.05   -4.13  1.0000
  15   8  33   10488    4465     0.00000 0.00000 0.00000 0.00000 0.00000 0.00000   12335   -1.67   11.22  1.0000
   2   9  33    2838    3361     0.00000 0.00000 0.00000 0.00000 0.00000 0.00000   -5041  -53.39    7.65  1.0000
   4   9  33     801    3502     0.00000 0.00000 0.00000 0.00000 0.00000 0.00000   -1281    6.95   27.81  1.0000
   6   9  33    5199    4072     0.00000 0.00000 0.00000 0.00000 0.00000 0.00000    6489   12.39    0.45  1.0000
   8   9  33    8535    3890     0.00000 0.00000 0.00000 0.00000 0.00000 0.00000   10676  -12.56   -2.79  1.0000
  10   9  33    5225    3871     0.00000 0.00000 0.00000 0.00000 0.00000 0.00000    5083   -5.22    1.14  1.0000
  12   9  33   15979    4363     0.00000 0.00000 0.00000 0.00000 0.00000 0.00000   10510   -1.58   26.20  1.0000
  14   9  33    3259    4056     0.00000 0.00000 0.00000 0.00000 0.00000 0.00000    2809    3.18   -5.31  1.0000
   1  10  33    9379    4283     0.00000 0.00000 0.00000 0.00000 0.00000 0.00000    9170   24.56  -32.33  1.0000
   3  10  33   32072    3744     0.00000 0.00000 0.00000 0.00000 0.00000 0.00000   32125   14.79   -9.81  1.0000
   5  10  33    1688    4266     0.00000 0.00000 0.00000 0.00000 0.00000 0.00000    3555   -8.24   25.69  1.0000
   7  10  33    3039    4122     0.00000 0.00000 0.00000 0.00000 0.00000 0.00000    5613   -4.48  -22.78  1.0000
   9  10  33    3853    4629     0.00000 0.00000 0.00000 0.00000 0.00000 0.00000    3705    4.88    0.90  1.0000
  11  10  33     135    3954     0.00000 0.00000 0.00000 0.00000 0.00000 0.00000   -2614   11.78   -0.13  1.0000
  13  10  33     159    4427     0.00000 0.00000 0.00000 0.00000 0.00000 0.00000    -460   -8.35   -9.64  1.0000
   2  11  33     244    3720     0.00000 0.00000 0.00000 0.00000 0.00000 0.00000    -853   15.55   -2.85  1.0000
   4  11  33     440    3605     0.00000 0.00000 0.00000 0.00000 0.00000 0.00000   -4495   17.84  -11.55  1.0000
   6  11  33    2245    4477     0.00000 0.00000 0.00000 0.00000 0.00000 0.00000   -6716  -40.89   25.09  1.0000
   8  11  33    5336    5735     0.00000 0.00000 0.00000 0.00000 0.00000 0.00000    5832  -20.41   16.14  1.0000
  10  11  33    2313    4172     0.00000 0.00000 0.00000 0.00000 0.00000 0.00000    1804  -11.65    0.19  1.0000
  12  11  33    1632    4124     0.00000 0.00000 0.00000 0.00000 0.00000 0.00000    2051   10.34   18.75  1.0000
   1  12  33    2198    3654     0.00000 0.00000 0.00000 0.00000 0.00000 0.00000   -4980  -45.30  -14.19  1.0000
   3  12  33    2558    4191     0.00000 0.00000 0.00000 0.00000 0.00000 0.00000     697   16.13  -20.23  1.0000
   5  12  33     711    4861     0.00000 0.00000 0.00000 0.00000 0.00000 0.00000   -3746   15.94   21.80  1.0000
   7  12  33     321    4396     0.00000 0.00000 0.00000 0.00000 0.00000 0.00000   -6593   12.65  -12.98  1.0000
   9  12  33     652    4206     0.00000 0.00000 0.00000 0.00000 0.00000 0.00000   -2953    0.96   25.84  1.0000
  11  12  33     735    4321     0.00000 0.00000 0.00000 0.00000 0.00000 0.00000    1081  -10.46   19.85  1.0000
   2  13  33    2201    4105     0.00000 0.00000 0.00000 0.00000 0.00000 0.00000   -4631   46.07   11.56  1.0000
   4  13  33      77    3883     0.00000 0.00000 0.00000 0.00000 0.00000 0.00000   -5824    7.22   -5.20  1.0000
   6  13  33      50    4076     0.00000 0.00000 0.00000 0.00000 0.00000 0.00000   -6115    3.94   -5.99  1.0000
   8  13  33     899    5551     0.00000 0.00000 0.00000 0.00000 0.00000 0.00000    1550   11.16   -4.34  1.0000
  10  13  33     153    4404     0.00000 0.00000 0.00000 0.00000 0.00000 0.00000   -6606    9.07   -8.63  1.0000
   1  14  33    1036    4050     0.00000 0.00000 0.00000 0.00000 0.00000 0.00000   -2591  -25.04   20.87  1.0000
   3  14  33   11328    4980     0.00000 0.00000 0.00000 0.00000 0.00000 0.00000    9968  -11.16   10.72  1.0000
   5  14  33     258    4219     0.00000 0.00000 0.00000 0.00000 0.00000 0.00000   -6328  -16.07   -2.49  1.0000
   7  14  33    1467    5070     0.00000 0.00000 0.00000 0.00000 0.00000 0.00000    3476   -8.60  -19.95  1.0000
   9  14  33      33    4736     0.00000 0.00000 0.00000 0.00000 0.00000 0.00000   -6529   -3.35   -4.71  1.0000
   2  15  33      73    4350     0.00000 0.00000 0.00000 0.00000 0.00000 0.00000   -3012    8.58   -1.18  1.0000
   4  15  33    1139    4406     0.00000 0.00000 0.00000 0.00000 0.00000 0.00000   -6610  -31.13   14.09  1.0000
   6  15  33      28    4441     0.00000 0.00000 0.00000 0.00000 0.00000 0.00000   -6662    4.70    2.50  1.0000
   8  15  33    4160    6723     0.00000 0.00000 0.00000 0.00000 0.00000 0.00000    5213    1.52   10.68  1.0000
   1  16  33    1334    4563     0.00000 0.00000 0.00000 0.00000 0.00000 0.00000   -5839   22.55  -29.31  1.0000
   3  16  33     709    4538     0.00000 0.00000 0.00000 0.00000 0.00000 0.00000   -5750    6.65  -26.12  1.0000
   5  16  33      79    5399     0.00000 0.00000 0.00000 0.00000 0.00000 0.00000   -8098    6.75   -5.92  1.0000
   2  17  33     242    5645     0.00000 0.00000 0.00000 0.00000 0.00000 0.00000   -1231    5.14   14.87  1.0000
   0   0  34     877    7653     0.00000 0.00000 0.00000 0.00000 0.00000 0.00000    3827   32.96    1.98  1.0000
   2   0  34  252315   12557     0.00000 0.00000 0.00000 0.00000 0.00000 0.00000  241906  -10.75    9.24  1.0000
   4   0  34   24879    5185     0.00000 0.00000 0.00000 0.00000 0.00000 0.00000   18516   18.83  -20.91  1.0000
   6   0  34   24241    6702     0.00000 0.00000 0.00000 0.00000 0.00000 0.00000   29888    8.49  -15.55  1.0000
   8   0  34   18902    6616     0.00000 0.00000 0.00000 0.00000 0.00000 0.00000   21571  -14.56    6.57  1.0000
  10   0  34    6806    8761     0.00000 0.00000 0.00000 0.00000 0.00000 0.00000    8195   -7.65    5.80  1.0000
  12   0  34     267   19813     0.00000 0.00000 0.00000 0.00000 0.00000 0.00000  -14085   15.95    4.42  1.0000
  14   0  34   18091   14112     0.00000 0.00000 0.00000 0.00000 0.00000 0.00000   19884   -5.66   -3.95  1.0000
  16   0  34    8078   13511     0.00000 0.00000 0.00000 0.00000 0.00000 0.00000    8814   12.94  -16.40  1.0000
   1   1  34    7612    2663     0.00000 0.00000 0.00000 0.00000 0.00000 0.00000    9399    9.53    5.06  1.0000
   3   1  34   11727    2489     0.00000 0.00000 0.00000 0.00000 0.00000 0.00000   17474   12.70  -22.42  1.0000
   5   1  34   11943    3741     0.00000 0.00000 0.00000 0.00000 0.00000 0.00000   14530   50.11  -25.49  1.0000
   7   1  34   15882    4307     0.00000 0.00000 0.00000 0.00000 0.00000 0.00000   16024   13.99    2.77  1.0000
   9   1  34   16535    5768     0.00000 0.00000 0.00000 0.00000 0.00000 0.00000   20140   -6.73   12.24  1.0000
  11   1  34   11172    9005     0.00000 0.00000 0.00000 0.00000 0.00000 0.00000   12867   13.93   -0.85  1.0000
  13   1  34   10308    6119     0.00000 0.00000 0.00000 0.00000 0.00000 0.00000   11362  -30.33  -17.49  1.0000
  15   1  34    9778    7365     0.00000 0.00000 0.00000 0.00000 0.00000 0.00000    8502   19.58    5.49  1.0000
   0   2  34  271420   12309     0.00000 0.00000 0.00000 0.00000 0.00000 0.00000  263637   -5.21   -7.03  1.0000
   2   2  34    1807    2670     0.00000 0.00000 0.00000 0.00000 0.00000 0.00000    2268    2.35   12.43  1.0000
   4   2  34   14143    4328     0.00000 0.00000 0.00000 0.00000 0.00000 0.00000   18403   12.19   24.54  1.0000
   6   2  34   11580    4041     0.00000 0.00000 0.00000 0.00000 0.00000 0.00000   12133   -0.86   -2.46  1.0000
   8   2  34   10467    4435     0.00000 0.00000 0.00000 0.00000 0.00000 0.00000   17595  -18.80  -24.34  1.0000
  10   2  34    8170    4908     0.00000 0.00000 0.00000 0.00000 0.00000 0.00000    9681    7.86    5.13  1.0000
  12   2  34    8789    5288     0.00000 0.00000 0.00000 0.00000 0.00000 0.00000    4423   -9.07   29.47  1.0000
  14   2  34   23679    9437     0.00000 0.00000 0.00000 0.00000 0.00000 0.00000   24228  -13.67    2.89  1.0000
  16   2  34   20108   14159     0.00000 0.00000 0.00000 0.00000 0.00000 0.00000   27837   -3.34  -26.37  1.0000
   1   3  34   11595    3194     0.00000 0.00000 0.00000 0.00000 0.00000 0.00000   16425   12.48   19.30  1.0000
   3   3  34    5643    3044     0.00000 0.00000 0.00000 0.00000 0.00000 0.00000    6245   -3.18   -7.37  1.0000
   5   3  34    4990    3965     0.00000 0.00000 0.00000 0.00000 0.00000 0.00000    9865   -3.95   29.02  1.0000
   7   3  34    5996    4339     0.00000 0.00000 0.00000 0.00000 0.00000 0.00000    9261    7.08  -19.29  1.0000
   9   3  34   16279    4732     0.00000 0.00000 0.00000 0.00000 0.00000 0.00000   17638   23.57    7.10  1.0000
  11   3  34    1653    5566     0.00000 0.00000 0.00000 0.00000 0.00000 0.00000    5350   25.04  -21.77  1.0000
  13   3  34    6386    6453     0.00000 0.00000 0.00000 0.00000 0.00000 0.00000    7590   -6.82    7.24  1.0000
  15   3  34    8446    6867     0.00000 0.00000 0.00000 0.00000 0.00000 0.00000   10827   11.84   -4.47  1.0000
   0   4  34   20471    7322     0.00000 0.00000 0.00000 0.00000 0.00000 0.00000   14431   27.97   22.24  1.0000
   2   4  34   10810    3157     0.00000 0.00000 0.00000 0.00000 0.00000 0.00000   15040   11.10  -24.27  1.0000
   4   4  34    1177    3037     0.00000 0.00000 0.00000 0.00000 0.00000 0.00000     -15  -34.50   -4.02  1.0000
   6   4  34    8566    3727     0.00000 0.00000 0.00000 0.00000 0.00000 0.00000    6760   -1.16  -12.51  1.0000
   8   4  34     304    5729     0.00000 0.00000 0.00000 0.00000 0.00000 0.00000     326  -15.19   -0.22  1.0000
  10   4  34    6745    4477     0.00000 0.00000 0.00000 0.00000 0.00000 0.00000    6863   -1.68    0.58  1.0000
  12   4  34    1963    5072     0.00000 0.00000 0.00000 0.00000 0.00000 0.00000    3716   -8.00  -17.42  1.0000
  14   4  34    5876    4858     0.00000 0.00000 0.00000 0.00000 0.00000 0.00000    9724    8.00  -22.79  1.0000
  16   4  34    5269   12677     0.00000 0.00000 0.00000 0.00000 0.00000 0.00000    7139  -10.86    8.76  1.0000
   1   5  34    3388    3142     0.00000 0.00000 0.00000 0.00000 0.00000 0.00000   -1484   51.66   28.37  1.0000
   3   5  34     288    3094     0.00000 0.00000 0.00000 0.00000 0.00000 0.00000     136   -5.81  -28.38  1.0000
   5   5  34    6156    3480     0.00000 0.00000 0.00000 0.00000 0.00000 0.00000    6039    0.15   -7.75  1.0000
   7   5  34    1453    4041     0.00000 0.00000 0.00000 0.00000 0.00000 0.00000    4674   35.22  -12.59  1.0000
   9   5  34    6327    4748     0.00000 0.00000 0.00000 0.00000 0.00000 0.00000   12618   28.10   22.73  1.0000
  11   5  34   12737    4806     0.00000 0.00000 0.00000 0.00000 0.00000 0.00000   14354    0.46  -14.07  1.0000
  13   5  34   10523    5839     0.00000 0.00000 0.00000 0.00000 0.00000 0.00000    8444  -18.02   12.22  1.0000
  15   5  34   10393    3337     0.00000 0.00000 0.00000 0.00000 0.00000 0.00000    7827   13.65   -1.06  1.0000
   0   6  34   19241    7473     0.00000 0.00000 0.00000 0.00000 0.00000 0.00000   24389    8.51   16.05  1.0000
   2   6  34    3074    3568     0.00000 0.00000 0.00000 0.00000 0.00000 0.00000    3509   -5.73    2.86  1.0000
   4   6  34     220    3083     0.00000 0.00000 0.00000 0.00000 0.00000 0.00000   -2351   -0.84   14.99  1.0000
   6   6  34      15    3853     0.00000 0.00000 0.00000 0.00000 0.00000 0.00000    -849    2.98    2.47  1.0000
   8   6  34    3421    3395     0.00000 0.00000 0.00000 0.00000 0.00000 0.00000    3556   -2.38   -2.21  1.0000
  10   6  34    7159    3344     0.00000 0.00000 0.00000 0.00000 0.00000 0.00000   10389   -1.27  -18.73  1.0000
  12   6  34    2798    5337     0.00000 0.00000 0.00000 0.00000 0.00000 0.00000    5404    4.31  -20.42  1.0000
  14   6  34    9242    3399     0.00000 0.00000 0.00000 0.00000 0.00000 0.00000    7516   -0.28   -9.55  1.0000
   1   7  34    5516    3305     0.00000 0.00000 0.00000 0.00000 0.00000 0.00000    5165    7.43   -3.41  1.0000
   3   7  34    1598    3605     0.00000 0.00000 0.00000 0.00000 0.00000 0.00000    3756   10.11   22.26  1.0000
   5   7  34    1042    3828     0.00000 0.00000 0.00000 0.00000 0.00000 0.00000   -2035   31.34    9.29  1.0000
   7   7  34      25    3248     0.00000 0.00000 0.00000 0.00000 0.00000 0.00000   -2662   -4.50    2.35  1.0000
   9   7  34    2322    3383     0.00000 0.00000 0.00000 0.00000 0.00000 0.00000    3099  -13.53   -3.46  1.0000
  11   7  34    1398    3221     0.00000 0.00000 0.00000 0.00000 0.00000 0.00000    3314   -6.27   19.62  1.0000
  13   7  34    8454    4179     0.00000 0.00000 0.00000 0.00000 0.00000 0.00000    7274    2.27   10.68  1.0000
  15   7  34   13382    8300     0.00000 0.00000 0.00000 0.00000 0.00000 0.00000   17844   18.00    3.66  1.0000
   0   8  34    4095    4765     0.00000 0.00000 0.00000 0.00000 0.00000 0.00000    5173  -15.49   -5.87  1.0000
   2   8  34      12    3375     0.00000 0.00000 0.00000 0.00000 0.00000 0.00000     848  -19.26   22.98  1.0000
   4   8  34     974    3742     0.00000 0.00000 0.00000 0.00000 0.00000 0.00000    1309  -16.55    1.54  1.0000
   6   8  34       9    4004     0.00000 0.00000 0.00000 0.00000 0.00000 0.00000    -580   -0.88    2.82  1.0000
   8   8  34    1270    4005     0.00000 0.00000 0.00000 0.00000 0.00000 0.00000     840   -6.24   -3.32  1.0000
  10   8  34     901    3469     0.00000 0.00000 0.00000 0.00000 0.00000 0.00000    3524  -29.72   -1.27  1.0000
  12   8  34    3118    3594     0.00000 0.00000 0.00000 0.00000 0.00000 0.00000    4942  -14.55   -3.92  1.0000
  14   8  34    8085    5273     0.00000 0.00000 0.00000 0.00000 0.00000 0.00000    7157    0.56    5.40  1.0000
   1   9  34    7734    3536     0.00000 0.00000 0.00000 0.00000 0.00000 0.00000   10193   -5.79  -12.36  1.0000
   3   9  34     866    3640     0.00000 0.00000 0.00000 0.00000 0.00000 0.00000   -1696   28.91   -7.23  1.0000
   5   9  34     562    3882     0.00000 0.00000 0.00000 0.00000 0.00000 0.00000    2340   29.00  -22.08  1.0000
   7   9  34     234    4866     0.00000 0.00000 0.00000 0.00000 0.00000 0.00000     279  -12.13    2.72  1.0000
   9   9  34    5017    3918     0.00000 0.00000 0.00000 0.00000 0.00000 0.00000   10270   31.34   -4.38  1.0000
  11   9  34    7448    4065     0.00000 0.00000 0.00000 0.00000 0.00000 0.00000    8184   11.27   27.07  1.0000
  13   9  34    9219    3741     0.00000 0.00000 0.00000 0.00000 0.00000 0.00000    9227   -5.45  -18.71  1.0000
   0  10  34     128    5297     0.00000 0.00000 0.00000 0.00000 0.00000 0.00000    -419  -10.37   -4.88  1.0000
   2  10  34      86    3597     0.00000 0.00000 0.00000 0.00000 0.00000 0.00000   -5395    7.32   -5.91  1.0000
   4  10  34    2880    3647     0.00000 0.00000 0.00000 0.00000 0.00000 0.00000    3186   -3.69   -2.49  1.0000
   6  10  34     385    4478     0.00000 0.00000 0.00000 0.00000 0.00000 0.00000   -1088   -0.64   19.85  1.0000
   8  10  34     910    5358     0.00000 0.00000 0.00000 0.00000 0.00000 0.00000   -7805  -30.44    2.54  1.0000
  10  10  34     108    4692     0.00000 0.00000 0.00000 0.00000 0.00000 0.00000   -1704  -10.52    0.52  1.0000
  12  10  34      71    4151     0.00000 0.00000 0.00000 0.00000 0.00000 0.00000   -6226   -3.38   -7.82  1.0000
   1  11  34     316    3706     0.00000 0.00000 0.00000 0.00000 0.00000 0.00000     347   15.27    0.38  1.0000
   3  11  34     188    4128     0.00000 0.00000 0.00000 0.00000 0.00000 0.00000    2152   27.09   19.83  1.0000
   5  11  34     232    4234     0.00000 0.00000 0.00000 0.00000 0.00000 0.00000   -3581    1.46   15.34  1.0000
   7  11  34     360    4739     0.00000 0.00000 0.00000 0.00000 0.00000 0.00000   -2102   -6.27  -18.15  1.0000
   9  11  34     929    4117     0.00000 0.00000 0.00000 0.00000 0.00000 0.00000   -3715   11.24  -28.75  1.0000
  11  11  34    7001    4258     0.00000 0.00000 0.00000 0.00000 0.00000 0.00000    8596    9.10    1.36  1.0000
   0  12  34     258    6102     0.00000 0.00000 0.00000 0.00000 0.00000 0.00000   -7168   15.63   -4.53  1.0000
   2  12  34     924    4136     0.00000 0.00000 0.00000 0.00000 0.00000 0.00000   -3529   -8.43  -29.59  1.0000
   4  12  34     326    4097     0.00000 0.00000 0.00000 0.00000 0.00000 0.00000   -6146   -9.00   15.92  1.0000
   6  12  34     426    4182     0.00000 0.00000 0.00000 0.00000 0.00000 0.00000   -6274    4.11   20.50  1.0000
   8  12  34     201    4902     0.00000 0.00000 0.00000 0.00000 0.00000 0.00000   -7354  -13.94    3.41  1.0000
  10  12  34      69    4545     0.00000 0.00000 0.00000 0.00000 0.00000 0.00000   -6477   -4.08    7.38  1.0000
   1  13  34    1153    4120     0.00000 0.00000 0.00000 0.00000 0.00000 0.00000   -3359  -29.82   17.12  1.0000
   3  13  34     118    4031     0.00000 0.00000 0.00000 0.00000 0.00000 0.00000   -6047   -7.80   -7.77  1.0000
   5  13  34     465    4651     0.00000 0.00000 0.00000 0.00000 0.00000 0.00000   -6977  -17.79  -12.67  1.0000
   7  13  34     128    4585     0.00000 0.00000 0.00000 0.00000 0.00000 0.00000   -6878    2.97  -11.05  1.0000
   9  13  34     409    5054     0.00000 0.00000 0.00000 0.00000 0.00000 0.00000      59   -5.76   19.55  1.0000
   0  14  34      58    6494     0.00000 0.00000 0.00000 0.00000 0.00000 0.00000   -6853   -5.87    5.03  1.0000
   2  14  34    7651    4948     0.00000 0.00000 0.00000 0.00000 0.00000 0.00000    7839  -13.56   -2.64  1.0000
   4  14  34     538    4797     0.00000 0.00000 0.00000 0.00000 0.00000 0.00000   -7195    7.38   22.30  1.0000
   6  14  34      90    4491     0.00000 0.00000 0.00000 0.00000 0.00000 0.00000   -6737    0.49    9.59  1.0000
   8  14  34      38    5307     0.00000 0.00000 0.00000 0.00000 0.00000 0.00000   -7960    1.14   -6.10  1.0000
   1  15  34     398    4134     0.00000 0.00000 0.00000 0.00000 0.00000 0.00000   -6201   19.63   -4.74  1.0000
   3  15  34     143    4490     0.00000 0.00000 0.00000 0.00000 0.00000 0.00000   -5197   11.15    4.67  1.0000
   5  15  34     172    4911     0.00000 0.00000 0.00000 0.00000 0.00000 0.00000   -7367   13.22    1.14  1.0000
   7  15  34     310    6976     0.00000 0.00000 0.00000 0.00000 0.00000 0.00000    -346   16.76   -6.07  1.0000
   0  16  34     447    6283     0.00000 0.00000 0.00000 0.00000 0.00000 0.00000   -9424   13.27   16.79  1.0000
   2  16  34    8765    4937     0.00000 0.00000 0.00000 0.00000 0.00000 0.00000   14098   -3.55   26.31  1.0000
   4  16  34     211    6409     0.00000 0.00000 0.00000 0.00000 0.00000 0.00000   -9614  -12.15   -8.31  1.0000
   2   1  35   11946    2803     0.00000 0.00000 0.00000 0.00000 0.00000 0.00000   12871   22.76   32.83  1.0000
   4   1  35   13923    3731     0.00000 0.00000 0.00000 0.00000 0.00000 0.00000   14934   -3.43   -2.58  1.0000
   6   1  35    7927    4721     0.00000 0.00000 0.00000 0.00000 0.00000 0.00000    7861   14.10    1.91  1.0000
   8   1  35   27446    5386     0.00000 0.00000 0.00000 0.00000 0.00000 0.00000   27022    1.56   -5.39  1.0000
  10   1  35   43377   12748     0.00000 0.00000 0.00000 0.00000 0.00000 0.00000   41921  -26.73   12.33  1.0000
  12   1  35   16532    6640     0.00000 0.00000 0.00000 0.00000 0.00000 0.00000   15776   -2.28   29.03  1.0000
  14   1  35   34874   10189     0.00000 0.00000 0.00000 0.00000 0.00000 0.00000   46905   12.74   30.18  1.0000
   1   2  35    8527    2839     0.00000 0.00000 0.00000 0.00000 0.00000 0.00000    9847  -21.05   30.72  1.0000
   3   2  35   18894    3952     0.00000 0.00000 0.00000 0.00000 0.00000 0.00000   19154   -6.70   20.63  1.0000
   5   2  35    8133    4874     0.00000 0.00000 0.00000 0.00000 0.00000 0.00000   10816   -2.09   14.49  1.0000
   7   2  35    9584    5273     0.00000 0.00000 0.00000 0.00000 0.00000 0.00000   11100   25.86  -34.19  1.0000
   9   2  35   18828    4904     0.00000 0.00000 0.00000 0.00000 0.00000 0.00000   17370   22.64  -15.49  1.0000
  11   2  35    4047    5487     0.00000 0.00000 0.00000 0.00000 0.00000 0.00000   14587  -22.08   65.43  1.0000
  13   2  35    4423    5303     0.00000 0.00000 0.00000 0.00000 0.00000 0.00000   11201  -36.56  -31.07  1.0000
  15   2  35    4667    5630     0.00000 0.00000 0.00000 0.00000 0.00000 0.00000   10697  -19.09  -34.95  1.0000
   2   3  35   15310    3168     0.00000 0.00000 0.00000 0.00000 0.00000 0.00000   16220    4.59   16.29  1.0000
   4   3  35    3922    3680     0.00000 0.00000 0.00000 0.00000 0.00000 0.00000   11252  -35.10  -26.73  1.0000
   6   3  35    8862    4112     0.00000 0.00000 0.00000 0.00000 0.00000 0.00000    9452   -2.29    7.93  1.0000
   8   3  35   12446    4656     0.00000 0.00000 0.00000 0.00000 0.00000 0.00000   13615  -27.79   40.20  1.0000
  10   3  35   20203    5320     0.00000 0.00000 0.00000 0.00000 0.00000 0.00000   25793  -25.38   -5.92  1.0000
  12   3  35    4795    4792     0.00000 0.00000 0.00000 0.00000 0.00000 0.00000   10147   19.13  -40.95  1.0000
  14   3  35   13933    8111     0.00000 0.00000 0.00000 0.00000 0.00000 0.00000   12890   33.52   -0.40  1.0000
   1   4  35    9835    3150     0.00000 0.00000 0.00000 0.00000 0.00000 0.00000   10390    2.52   -1.54  1.0000
   3   4  35    3189    3282     0.00000 0.00000 0.00000 0.00000 0.00000 0.00000   10121   37.27  -25.15  1.0000
   5   4  35     476    3380     0.00000 0.00000 0.00000 0.00000 0.00000 0.00000    5471   48.05   36.55  1.0000
   7   4  35    9300    4146     0.00000 0.00000 0.00000 0.00000 0.00000 0.00000   10569   -3.41  -15.71  1.0000
   9   4  35    2976    5059     0.00000 0.00000 0.00000 0.00000 0.00000 0.00000    3810   -4.43   -6.26  1.0000
  11   4  35    9383    5171     0.00000 0.00000 0.00000 0.00000 0.00000 0.00000    9488   20.30   16.06  1.0000
  13   4  35    4805    6694     0.00000 0.00000 0.00000 0.00000 0.00000 0.00000    9523   24.94  -15.19  1.0000
  15   4  35    6601    8218     0.00000 0.00000 0.00000 0.00000 0.00000 0.00000    6234   -4.19   -3.16  1.0000
   2   5  35    1378    3393     0.00000 0.00000 0.00000 0.00000 0.00000 0.00000    2480    6.49   14.21  1.0000
   4   5  35    2412    3123     0.00000 0.00000 0.00000 0.00000 0.00000 0.00000    6516  -48.39   33.97  1.0000
   6   5  35    3687    3624     0.00000 0.00000 0.00000 0.00000 0.00000 0.00000    6317    1.32   19.39  1.0000
   8   5  35    1537    4735     0.00000 0.00000 0.00000 0.00000 0.00000 0.00000    3128    4.50   20.35  1.0000
  10   5  35   28039    5059     0.00000 0.00000 0.00000 0.00000 0.00000 0.00000   27157   -0.46   -3.48  1.0000
  12   5  35   19426    6221     0.00000 0.00000 0.00000 0.00000 0.00000 0.00000   19327   -7.31   12.73  1.0000
  14   5  35   22696    7390     0.00000 0.00000 0.00000 0.00000 0.00000 0.00000   22752    0.68   -0.79  1.0000
   1   6  35    2841    4126     0.00000 0.00000 0.00000 0.00000 0.00000 0.00000    2590  -18.45    0.85  1.0000
   3   6  35    2253    3244     0.00000 0.00000 0.00000 0.00000 0.00000 0.00000    2324    0.13    4.41  1.0000
   5   6  35    2342    3180     0.00000 0.00000 0.00000 0.00000 0.00000 0.00000    4634   -3.40   19.74  1.0000
   7   6  35     706    3215     0.00000 0.00000 0.00000 0.00000 0.00000 0.00000     -74  -13.52  -23.25  1.0000
   9   6  35    5068    3361     0.00000 0.00000 0.00000 0.00000 0.00000 0.00000    4558   -7.93   -1.63  1.0000
  11   6  35    6460    2991     0.00000 0.00000 0.00000 0.00000 0.00000 0.00000    5731    5.01   -8.73  1.0000
  13   6  35    4862    3580     0.00000 0.00000 0.00000 0.00000 0.00000 0.00000    6359   -5.62   12.90  1.0000
   2   7  35    2521    3361     0.00000 0.00000 0.00000 0.00000 0.00000 0.00000    1734  -18.57  -27.13  1.0000
   4   7  35     338    3385     0.00000 0.00000 0.00000 0.00000 0.00000 0.00000   -1721    2.01  -18.50  1.0000
   6   7  35     718    4103     0.00000 0.00000 0.00000 0.00000 0.00000 0.00000   -4189   14.23  -23.11  1.0000
   8   7  35    6716    3371     0.00000 0.00000 0.00000 0.00000 0.00000 0.00000    4319  -10.03   14.04  1.0000
  10   7  35   17785    3359     0.00000 0.00000 0.00000 0.00000 0.00000 0.00000   18195   -1.76    0.60  1.0000
  12   7  35   20918    4166     0.00000 0.00000 0.00000 0.00000 0.00000 0.00000   16660  -17.18  -13.97  1.0000
  14   7  35   11115    4322     0.00000 0.00000 0.00000 0.00000 0.00000 0.00000   17023  -24.25   -8.60  1.0000
   1   8  35     233    3582     0.00000 0.00000 0.00000 0.00000 0.00000 0.00000     170   -2.00   -2.47  1.0000
   3   8  35    2257    4197     0.00000 0.00000 0.00000 0.00000 0.00000 0.00000    -670   26.04   40.44  1.0000
   5   8  35     431    3664     0.00000 0.00000 0.00000 0.00000 0.00000 0.00000   -4042   -5.30   20.35  1.0000
   7   8  35    3033    4465     0.00000 0.00000 0.00000 0.00000 0.00000 0.00000    1555    8.45   14.13  1.0000
   9   8  35    8528    3693     0.00000 0.00000 0.00000 0.00000 0.00000 0.00000    7681   -2.16    7.88  1.0000
  11   8  35    4964    4279     0.00000 0.00000 0.00000 0.00000 0.00000 0.00000    7185   36.73  -25.68  1.0000
  13   8  35    3771    3488     0.00000 0.00000 0.00000 0.00000 0.00000 0.00000    4858    8.88    0.67  1.0000
   2   9  35     738    3495     0.00000 0.00000 0.00000 0.00000 0.00000 0.00000   -2911  -23.78  -13.82  1.0000
   4   9  35      58    3785     0.00000 0.00000 0.00000 0.00000 0.00000 0.00000   -2072    3.19   -7.05  1.0000
   6   9  35     112    4625     0.00000 0.00000 0.00000 0.00000 0.00000 0.00000   -1366   10.70   -0.03  1.0000
   8   9  35    1245    4125     0.00000 0.00000 0.00000 0.00000 0.00000 0.00000    1003    1.72    6.55  1.0000
  10   9  35    8368    3958     0.00000 0.00000 0.00000 0.00000 0.00000 0.00000   10849    2.89   14.10  1.0000
  12   9  35   11842    4095     0.00000 0.00000 0.00000 0.00000 0.00000 0.00000   10418   -4.14   11.42  1.0000
   1  10  35   46490    4561     0.00000 0.00000 0.00000 0.00000 0.00000 0.00000   44298   24.97   11.76  1.0000
   3  10  35    6374    4277     0.00000 0.00000 0.00000 0.00000 0.00000 0.00000    9736   25.72   -7.12  1.0000
   5  10  35   15012    5494     0.00000 0.00000 0.00000 0.00000 0.00000 0.00000   14486   -0.50   -4.31  1.0000
   7  10  35   11421    5320     0.00000 0.00000 0.00000 0.00000 0.00000 0.00000   11916    2.35    1.37  1.0000
   9  10  35    3978    4137     0.00000 0.00000 0.00000 0.00000 0.00000 0.00000    5707   -3.34   13.44  1.0000
  11  10  35    3838    4193     0.00000 0.00000 0.00000 0.00000 0.00000 0.00000    5057   10.40   -2.27  1.0000
   2  11  35    4604    4610     0.00000 0.00000 0.00000 0.00000 0.00000 0.00000   -3792   22.53   64.89  1.0000
   4  11  35     783    4543     0.00000 0.00000 0.00000 0.00000 0.00000 0.00000   -6108  -22.36   17.40  1.0000
   6  11  35      61    4148     0.00000 0.00000 0.00000 0.00000 0.00000 0.00000   -6122   -4.45   -6.55  1.0000
   8  11  35    1833    6470     0.00000 0.00000 0.00000 0.00000 0.00000 0.00000   -3165  -35.11  -25.41  1.0000
  10  11  35     146    4123     0.00000 0.00000 0.00000 0.00000 0.00000 0.00000     497  -11.43   -0.47  1.0000
   1  12  35     889    5375     0.00000 0.00000 0.00000 0.00000 0.00000 0.00000     -49    1.57   30.15  1.0000
   3  12  35    1967    4632     0.00000 0.00000 0.00000 0.00000 0.00000 0.00000   -5985  -18.81  -40.77  1.0000
   5  12  35    3513    4971     0.00000 0.00000 0.00000 0.00000 0.00000 0.00000    3386    7.37   11.15  1.0000
   7  12  35     499    5433     0.00000 0.00000 0.00000 0.00000 0.00000 0.00000   -3846   18.17  -13.48  1.0000
   9  12  35     121    5152     0.00000 0.00000 0.00000 0.00000 0.00000 0.00000   -5430    3.50   10.57  1.0000
   2  13  35    2246    4502     0.00000 0.00000 0.00000 0.00000 0.00000 0.00000   -1000   36.57  -31.06  1.0000
   4  13  35     853    4862     0.00000 0.00000 0.00000 0.00000 0.00000 0.00000   -7293  -25.28  -15.35  1.0000
   6  13  35     192    4444     0.00000 0.00000 0.00000 0.00000 0.00000 0.00000   -6666    6.73   12.32  1.0000
   8  13  35      85    4946     0.00000 0.00000 0.00000 0.00000 0.00000 0.00000   -7419   -9.30    0.86  1.0000
   1  14  35   22418    4495     0.00000 0.00000 0.00000 0.00000 0.00000 0.00000   32492  -12.72   31.67  1.0000
   3  14  35    2342    4369     0.00000 0.00000 0.00000 0.00000 0.00000 0.00000    1286  -34.03   -0.95  1.0000
   5  14  35    8692    6247     0.00000 0.00000 0.00000 0.00000 0.00000 0.00000    8790   -1.40   -1.42  1.0000
   7  14  35    6798    6853     0.00000 0.00000 0.00000 0.00000 0.00000 0.00000   11555   24.96   -8.68  1.0000
   2  15  35    1536    4817     0.00000 0.00000 0.00000 0.00000 0.00000 0.00000   -4993   19.84  -34.36  1.0000
   4  15  35      17    7086     0.00000 0.00000 0.00000 0.00000 0.00000 0.00000   -6659    3.62   -2.17  1.0000
   0   0  36  462759   22940     0.00000 0.00000 0.00000 0.00000 0.00000 0.00000  450625    9.40   -2.86  1.0000
   2   0  36    6786    4092     0.00000 0.00000 0.00000 0.00000 0.00000 0.00000   16269   45.79    2.13  1.0000
   4   0  36   51444    7465     0.00000 0.00000 0.00000 0.00000 0.00000 0.00000   44912   11.59   40.88  1.0000
   6   0  36   27181    7150     0.00000 0.00000 0.00000 0.00000 0.00000 0.00000   31503   12.55   30.82  1.0000
   8   0  36   11270    9986     0.00000 0.00000 0.00000 0.00000 0.00000 0.00000   20748   40.65  -32.14  1.0000
  10   0  36    5122   11636     0.00000 0.00000 0.00000 0.00000 0.00000 0.00000    6530  -36.75  -15.96  1.0000
  12   0  36   10295   18289     0.00000 0.00000 0.00000 0.00000 0.00000 0.00000   10798    2.90    1.01  1.0000
  14   0  36   20673   12592     0.00000 0.00000 0.00000 0.00000 0.00000 0.00000   18937    4.63   -6.34  1.0000
   1   1  36   18129    3284     0.00000 0.00000 0.00000 0.00000 0.00000 0.00000   24075  -20.03   -7.71  1.0000
   3   1  36   10695    4480     0.00000 0.00000 0.00000 0.00000 0.00000 0.00000   13740   20.29   14.79  1.0000
   5   1  36   10001    3930     0.00000 0.00000 0.00000 0.00000 0.00000 0.00000   15363  -18.20  -23.60  1.0000
   7   1  36   23827    4410     0.00000 0.00000 0.00000 0.00000 0.00000 0.00000   26874    5.75   27.48  1.0000
   9   1  36    8559    8069     0.00000 0.00000 0.00000 0.00000 0.00000 0.00000    7171    8.73    0.34  1.0000
  11   1  36   17780    5748     0.00000 0.00000 0.00000 0.00000 0.00000 0.00000   19800    9.12   -2.13  1.0000
  13   1  36   15553    8630     0.00000 0.00000 0.00000 0.00000 0.00000 0.00000   12496   13.80    0.92  1.0000
  15   1  36   19171    9807     0.00000 0.00000 0.00000 0.00000 0.00000 0.00000   23717   16.65    3.54  1.0000
   0   2  36    1650    7436     0.00000 0.00000 0.00000 0.00000 0.00000 0.00000    6987   44.42   -5.48  1.0000
   2   2  36   63905    4356     0.00000 0.00000 0.00000 0.00000 0.00000 0.00000   75770   23.19   -0.17  1.0000
   4   2  36    6926    3541     0.00000 0.00000 0.00000 0.00000 0.00000 0.00000   10302   -5.65  -33.36  1.0000
   6   2  36    6923    4182     0.00000 0.00000 0.00000 0.00000 0.00000 0.00000    4066   -8.71  -18.68  1.0000
   8   2  36    4932    4537     0.00000 0.00000 0.00000 0.00000 0.00000 0.00000   11819   38.93    9.90  1.0000
  10   2  36   22818    5452     0.00000 0.00000 0.00000 0.00000 0.00000 0.00000   20251    9.71    2.98  1.0000
  12   2  36    9594    8821     0.00000 0.00000 0.00000 0.00000 0.00000 0.00000   11453    2.05   15.37  1.0000
  14   2  36    9881    7572     0.00000 0.00000 0.00000 0.00000 0.00000 0.00000   15789  -17.83  -22.47  1.0000
   1   3  36    4510    3103     0.00000 0.00000 0.00000 0.00000 0.00000 0.00000    5870   22.73  -11.78  1.0000
   3   3  36     412    3437     0.00000 0.00000 0.00000 0.00000 0.00000 0.00000    5620  -81.55    9.89  1.0000
   5   3  36    5034    4216     0.00000 0.00000 0.00000 0.00000 0.00000 0.00000    6073   10.13    7.95  1.0000
   7   3  36    7855    4441     0.00000 0.00000 0.00000 0.00000 0.00000 0.00000    7337   -3.26  -25.10  1.0000
   9   3  36    3642    4813     0.00000 0.00000 0.00000 0.00000 0.00000 0.00000   13566   13.65  -63.07  1.0000
  11   3  36    9204    5924     0.00000 0.00000 0.00000 0.00000 0.00000 0.00000   17402  -57.40  -34.53  1.0000
  13   3  36    7028    5384     0.00000 0.00000 0.00000 0.00000 0.00000 0.00000   10022  -19.94   19.64  1.0000
   0   4  36   52884    6681     0.00000 0.00000 0.00000 0.00000 0.00000 0.00000   49984   12.54  -41.65  1.0000
   2   4  36    2366    3384     0.00000 0.00000 0.00000 0.00000 0.00000 0.00000    2288   -5.96   35.45  1.0000
   4   4  36    1070    3481     0.00000 0.00000 0.00000 0.00000 0.00000 0.00000    7385   56.03    2.07  1.0000
   6   4  36    2012    4051     0.00000 0.00000 0.00000 0.00000 0.00000 0.00000    5146   -8.50  -31.38  1.0000
   8   4  36    6350    6789     0.00000 0.00000 0.00000 0.00000 0.00000 0.00000    2050  -29.23   22.97  1.0000
  10   4  36    6084    4916     0.00000 0.00000 0.00000 0.00000 0.00000 0.00000   10008   10.41   20.66  1.0000
  12   4  36    5978    4944     0.00000 0.00000 0.00000 0.00000 0.00000 0.00000    9963   17.10   33.17  1.0000
  14   4  36   16831    8069     0.00000 0.00000 0.00000 0.00000 0.00000 0.00000   18938    1.01  -24.13  1.0000
   1   5  36    6234    3850     0.00000 0.00000 0.00000 0.00000 0.00000 0.00000    8724  -18.36   16.36  1.0000
   3   5  36     245    3270     0.00000 0.00000 0.00000 0.00000 0.00000 0.00000   -1674   14.89   -5.41  1.0000
   5   5  36     489    3281     0.00000 0.00000 0.00000 0.00000 0.00000 0.00000    5174   50.38   -2.73  1.0000
   7   5  36    4123    3943     0.00000 0.00000 0.00000 0.00000 0.00000 0.00000    4241  -22.81   -4.74  1.0000
   9   5  36    4295    5032     0.00000 0.00000 0.00000 0.00000 0.00000 0.00000    8255   29.78    9.18  1.0000
  11   5  36   10701    5256     0.00000 0.00000 0.00000 0.00000 0.00000 0.00000   10273    1.06    1.85  1.0000
  13   5  36    6759    5114     0.00000 0.00000 0.00000 0.00000 0.00000 0.00000    6492   28.11  -21.72  1.0000
   0   6  36   34979    5925     0.00000 0.00000 0.00000 0.00000 0.00000 0.00000   35957   12.77  -37.19  1.0000
   2   6  36     376    3741     0.00000 0.00000 0.00000 0.00000 0.00000 0.00000     -42  -11.41   15.96  1.0000
   4   6  36     285    3347     0.00000 0.00000 0.00000 0.00000 0.00000 0.00000    1844   -4.61   30.18  1.0000
   6   6  36     698    3423     0.00000 0.00000 0.00000 0.00000 0.00000 0.00000    2284  -21.86   -1.03  1.0000
   8   6  36    4145    4963     0.00000 0.00000 0.00000 0.00000 0.00000 0.00000    2576   -7.05  -20.39  1.0000
  10   6  36    9497    4155     0.00000 0.00000 0.00000 0.00000 0.00000 0.00000    8767    4.89   11.90  1.0000
  12   6  36    7646    4775     0.00000 0.00000 0.00000 0.00000 0.00000 0.00000   13391   -7.59   29.03  1.0000
   1   7  36   12229    3485     0.00000 0.00000 0.00000 0.00000 0.00000 0.00000   12440    7.72  -26.68  1.0000
   3   7  36     453    3616     0.00000 0.00000 0.00000 0.00000 0.00000 0.00000   -3166   -1.82   21.47  1.0000
   5   7  36    1334    3934     0.00000 0.00000 0.00000 0.00000 0.00000 0.00000     848  -28.79    2.74  1.0000
   7   7  36     222    4285     0.00000 0.00000 0.00000 0.00000 0.00000 0.00000   -1244   15.07   -0.17  1.0000
   9   7  36    4925    3459     0.00000 0.00000 0.00000 0.00000 0.00000 0.00000    2151   11.38  -26.13  1.0000
  11   7  36    7026    3571     0.00000 0.00000 0.00000 0.00000 0.00000 0.00000    6901  -12.31   -4.58  1.0000
  13   7  36    7266    4274     0.00000 0.00000 0.00000 0.00000 0.00000 0.00000    9489  -10.04   -7.57  1.0000
   0   8  36    1435    5317     0.00000 0.00000 0.00000 0.00000 0.00000 0.00000    3834   42.95   33.12  1.0000
   2   8  36     606    4009     0.00000 0.00000 0.00000 0.00000 0.00000 0.00000     856   39.51   -8.86  1.0000
   4   8  36    1394    4130     0.00000 0.00000 0.00000 0.00000 0.00000 0.00000   -4329  -29.24  -23.96  1.0000
   6   8  36     428    4002     0.00000 0.00000 0.00000 0.00000 0.00000 0.00000   -3674   -8.38   19.21  1.0000
   8   8  36     572    4696     0.00000 0.00000 0.00000 0.00000 0.00000 0.00000     184   12.72    2.63  1.0000
  10   8  36     629    3729     0.00000 0.00000 0.00000 0.00000 0.00000 0.00000   -1195   -3.20  -25.18  1.0000
  12   8  36    5524    3756     0.00000 0.00000 0.00000 0.00000 0.00000 0.00000    8122  -13.84  -10.83  1.0000
   1   9  36    6000    5169     0.00000 0.00000 0.00000 0.00000 0.00000 0.00000    4699    9.02   -0.07  1.0000
   3   9  36    3946    4072     0.00000 0.00000 0.00000 0.00000 0.00000 0.00000    -267   12.27   62.40  1.0000
   5   9  36     584    4080     0.00000 0.00000 0.00000 0.00000 0.00000 0.00000    2298   32.29   -6.79  1.0000
   7   9  36     745    5319     0.00000 0.00000 0.00000 0.00000 0.00000 0.00000    -702    8.11   26.42  1.0000
   9   9  36    2725    3910     0.00000 0.00000 0.00000 0.00000 0.00000 0.00000     632  -27.86    0.19  1.0000
  11   9  36    3873    4290     0.00000 0.00000 0.00000 0.00000 0.00000 0.00000    2946    6.68    5.93  1.0000
   0  10  36    1485    7673     0.00000 0.00000 0.00000 0.00000 0.00000 0.00000   -4320  -35.73   15.66  1.0000
   2  10  36     107    4388     0.00000 0.00000 0.00000 0.00000 0.00000 0.00000    -327    9.36   -4.65  1.0000
   4  10  36     543    6110     0.00000 0.00000 0.00000 0.00000 0.00000 0.00000   -9165   11.33  -20.69  1.0000
   6  10  36     404    4906     0.00000 0.00000 0.00000 0.00000 0.00000 0.00000   -1213    7.69  -18.85  1.0000
   8  10  36     602    4936     0.00000 0.00000 0.00000 0.00000 0.00000 0.00000   -6877   -3.25   24.62  1.0000
  10  10  36       2    4184     0.00000 0.00000 0.00000 0.00000 0.00000 0.00000   -2854   -1.43    0.05  1.0000
   1  11  36     588    4576     0.00000 0.00000 0.00000 0.00000 0.00000 0.00000    1139    9.55    1.28  1.0000
   3  11  36    4483    4783     0.00000 0.00000 0.00000 0.00000 0.00000 0.00000   -7175  -58.67   33.96  1.0000
   5  11  36      10    4589     0.00000 0.00000 0.00000 0.00000 0.00000 0.00000   -4904   -2.03   -2.50  1.0000
   7  11  36     173    4450     0.00000 0.00000 0.00000 0.00000 0.00000 0.00000   -6675  -12.44    4.79  1.0000
   9  11  36     109    4821     0.00000 0.00000 0.00000 0.00000 0.00000 0.00000   -4920    8.74   -5.95  1.0000
   0  12  36       8    5694     0.00000 0.00000 0.00000 0.00000 0.00000 0.00000   -3898    2.71   -0.92  1.0000
   2  12  36     174    5049     0.00000 0.00000 0.00000 0.00000 0.00000 0.00000   -2873    1.29  -13.29  1.0000
   4  12  36    1188    4563     0.00000 0.00000 0.00000 0.00000 0.00000 0.00000   -6845   17.52  -30.17  1.0000
   6  12  36     938    6199     0.00000 0.00000 0.00000 0.00000 0.00000 0.00000   -2137   -5.80  -30.46  1.0000
   8  12  36     265    4454     0.00000 0.00000 0.00000 0.00000 0.00000 0.00000   -6681  -13.95    8.76  1.0000
   1  13  36     193    5747     0.00000 0.00000 0.00000 0.00000 0.00000 0.00000   -4234   14.00   -1.29  1.0000
   3  13  36     733    4233     0.00000 0.00000 0.00000 0.00000 0.00000 0.00000   -5193  -18.90  -19.86  1.0000
   5  13  36    1226    5859     0.00000 0.00000 0.00000 0.00000 0.00000 0.00000   -6496   27.90   21.88  1.0000
   7  13  36     194    5993     0.00000 0.00000 0.00000 0.00000 0.00000 0.00000     729   -8.47   10.21  1.0000
   0  14  36   15897   10801     0.00000 0.00000 0.00000 0.00000 0.00000 0.00000   14208    5.16    4.82  1.0000
   2  14  36     797    4728     0.00000 0.00000 0.00000 0.00000 0.00000 0.00000   -7092  -19.21   21.15  1.0000
   4  14  36     564    5140     0.00000 0.00000 0.00000 0.00000 0.00000 0.00000   -7710    0.36   24.04  1.0000
   1  15  36      62    7040     0.00000 0.00000 0.00000 0.00000 0.00000 0.00000     573   16.51   -3.72  1.0000
   2   1  37   21324    3233     0.00000 0.00000 0.00000 0.00000 0.00000 0.00000   22280  -32.86   -1.37  1.0000
   4   1  37    3767    3283     0.00000 0.00000 0.00000 0.00000 0.00000 0.00000    8427  -58.40   -1.03  1.0000
   6   1  37    9632    4390     0.00000 0.00000 0.00000 0.00000 0.00000 0.00000   16879   45.12   11.31  1.0000
   8   1  37   12005    4855     0.00000 0.00000 0.00000 0.00000 0.00000 0.00000   16159   18.93  -31.21  1.0000
  10   1  37   23861    7224     0.00000 0.00000 0.00000 0.00000 0.00000 0.00000   25498   -6.13  -28.77  1.0000
  12   1  37   10223    8647     0.00000 0.00000 0.00000 0.00000 0.00000 0.00000   18539  -23.77  -27.76  1.0000
  14   1  37   33656    9432     0.00000 0.00000 0.00000 0.00000 0.00000 0.00000   40074    4.57  -21.13  1.0000
   1   2  37   21224    3525     0.00000 0.00000 0.00000 0.00000 0.00000 0.00000   22902   42.59   -0.97  1.0000
   3   2  37    4528    3480     0.00000 0.00000 0.00000 0.00000 0.00000 0.00000   11054  -54.59  -56.15  1.0000
   5   2  37    8665    4242     0.00000 0.00000 0.00000 0.00000 0.00000 0.00000   17920  -39.41   22.79  1.0000
   7   2  37    9447    5773     0.00000 0.00000 0.00000 0.00000 0.00000 0.00000   13284   18.36    2.06  1.0000
   9   2  37   11428    5084     0.00000 0.00000 0.00000 0.00000 0.00000 0.00000   21408  -27.66   28.78  1.0000
  11   2  37   12203    5469     0.00000 0.00000 0.00000 0.00000 0.00000 0.00000   21456    6.73  -44.88  1.0000
  13   2  37    8631    9204     0.00000 0.00000 0.00000 0.00000 0.00000 0.00000   19587  -47.42   -6.49  1.0000
   2   3  37    2467    3421     0.00000 0.00000 0.00000 0.00000 0.00000 0.00000    2637   52.87  -54.79  1.0000
   4   3  37   14170    4412     0.00000 0.00000 0.00000 0.00000 0.00000 0.00000   12918  -26.08   -3.94  1.0000
   6   3  37    8004    4464     0.00000 0.00000 0.00000 0.00000 0.00000 0.00000   10532   21.96   23.24  1.0000
   8   3  37   11636    4618     0.00000 0.00000 0.00000 0.00000 0.00000 0.00000   11491   -8.95   -1.67  1.0000
  10   3  37   38555    6248     0.00000 0.00000 0.00000 0.00000 0.00000 0.00000   37726    6.76    5.16  1.0000
  12   3  37   17113    6235     0.00000 0.00000 0.00000 0.00000 0.00000 0.00000   22870   19.18  -10.88  1.0000
   1   4  37    2707    4000     0.00000 0.00000 0.00000 0.00000 0.00000 0.00000      32   56.62   -0.12  1.0000
   3   4  37   10690    3533     0.00000 0.00000 0.00000 0.00000 0.00000 0.00000    9597   23.57   -2.72  1.0000
   5   4  37    1215    3561     0.00000 0.00000 0.00000 0.00000 0.00000 0.00000    4297  -19.37   48.83  1.0000
   7   4  37    4253    4716     0.00000 0.00000 0.00000 0.00000 0.00000 0.00000    4647   -4.64   33.35  1.0000
   9   4  37    9130    4932     0.00000 0.00000 0.00000 0.00000 0.00000 0.00000   12087   -3.85   22.61  1.0000
  11   4  37    6038    5259     0.00000 0.00000 0.00000 0.00000 0.00000 0.00000   14658   33.82   31.17  1.0000
  13   4  37   17802    5423     0.00000 0.00000 0.00000 0.00000 0.00000 0.00000   22580  -21.85   39.03  1.0000
   2   5  37     645    3796     0.00000 0.00000 0.00000 0.00000 0.00000 0.00000    3567   34.25   25.20  1.0000
   4   5  37     348    3491     0.00000 0.00000 0.00000 0.00000 0.00000 0.00000    1459   21.67   48.52  1.0000
   6   5  37    1366    4440     0.00000 0.00000 0.00000 0.00000 0.00000 0.00000    4059    6.44  -30.02  1.0000
   8   5  37    6058    4853     0.00000 0.00000 0.00000 0.00000 0.00000 0.00000    8076   16.29    5.46  1.0000
  10   5  37   15643    5224     0.00000 0.00000 0.00000 0.00000 0.00000 0.00000   14669    2.61   14.54  1.0000
  12   5  37   11103    5436     0.00000 0.00000 0.00000 0.00000 0.00000 0.00000   18027  -27.49  -12.80  1.0000
   1   6  37    1005    3802     0.00000 0.00000 0.00000 0.00000 0.00000 0.00000    2774  -46.41    6.16  1.0000
   3   6  37     931    3911     0.00000 0.00000 0.00000 0.00000 0.00000 0.00000    1148  -24.77   23.94  1.0000
   5   6  37     401    4065     0.00000 0.00000 0.00000 0.00000 0.00000 0.00000    1833   -6.03  -28.10  1.0000
   7   6  37    4914    4184     0.00000 0.00000 0.00000 0.00000 0.00000 0.00000    5148    0.83  -26.41  1.0000
   9   6  37    6256    5152     0.00000 0.00000 0.00000 0.00000 0.00000 0.00000    9179    5.03  -18.23  1.0000
  11   6  37    3618    5462     0.00000 0.00000 0.00000 0.00000 0.00000 0.00000    4243    6.37   -8.02  1.0000
   2   7  37    2498    3996     0.00000 0.00000 0.00000 0.00000 0.00000 0.00000    4443  -17.03   -2.23  1.0000
   4   7  37    1507    4955     0.00000 0.00000 0.00000 0.00000 0.00000 0.00000   -4901    2.92   39.19  1.0000
   6   7  37    3214    3871     0.00000 0.00000 0.00000 0.00000 0.00000 0.00000    4636    1.94  -28.77  1.0000
   8   7  37    7862    4530     0.00000 0.00000 0.00000 0.00000 0.00000 0.00000    3559  -16.24  -24.48  1.0000
  10   7  37    9727    3689     0.00000 0.00000 0.00000 0.00000 0.00000 0.00000   10066    4.06  -26.08  1.0000
  12   7  37   19026    5864     0.00000 0.00000 0.00000 0.00000 0.00000 0.00000   14264  -15.24  -13.82  1.0000
   1   8  37    1295    3945     0.00000 0.00000 0.00000 0.00000 0.00000 0.00000   -4363  -19.08  -31.04  1.0000
   3   8  37      27    4038     0.00000 0.00000 0.00000 0.00000 0.00000 0.00000   -4876    5.27   -0.37  1.0000
   5   8  37     939    4016     0.00000 0.00000 0.00000 0.00000 0.00000 0.00000    1060  -15.71    4.98  1.0000
   7   8  37     750    5216     0.00000 0.00000 0.00000 0.00000 0.00000 0.00000   -3082   16.26  -22.45  1.0000
   9   8  37    2951    4624     0.00000 0.00000 0.00000 0.00000 0.00000 0.00000    5907   10.29   33.20  1.0000
  11   8  37    4020    4174     0.00000 0.00000 0.00000 0.00000 0.00000 0.00000    6168    7.40   16.73  1.0000
   2   9  37     161    5128     0.00000 0.00000 0.00000 0.00000 0.00000 0.00000     729   31.21   24.77  1.0000
   4   9  37     613    4858     0.00000 0.00000 0.00000 0.00000 0.00000 0.00000   -3072    2.57   24.93  1.0000
   6   9  37    1889    4557     0.00000 0.00000 0.00000 0.00000 0.00000 0.00000    3756   -3.65  -18.33  1.0000
   8   9  37    2634    4804     0.00000 0.00000 0.00000 0.00000 0.00000 0.00000    6174  -12.82   33.48  1.0000
  10   9  37    8255    3974     0.00000 0.00000 0.00000 0.00000 0.00000 0.00000    8007   15.76   12.88  1.0000
   1  10  37    5986    4262     0.00000 0.00000 0.00000 0.00000 0.00000 0.00000    8104    5.04  -26.50  1.0000
   3  10  37   19197    5448     0.00000 0.00000 0.00000 0.00000 0.00000 0.00000   19335   -6.77    5.97  1.0000
   5  10  37     185    5045     0.00000 0.00000 0.00000 0.00000 0.00000 0.00000   -4332   -2.15   13.62  1.0000
   7  10  37    5249    6441     0.00000 0.00000 0.00000 0.00000 0.00000 0.00000    4086   -3.26  -25.83  1.0000
   9  10  37    3532    6163     0.00000 0.00000 0.00000 0.00000 0.00000 0.00000    3360  -15.57   12.02  1.0000
   2  11  37    2011    4158     0.00000 0.00000 0.00000 0.00000 0.00000 0.00000   -6237   -7.37  -44.79  1.0000
   4  11  37    2190    4252     0.00000 0.00000 0.00000 0.00000 0.00000 0.00000   -6378  -36.00   30.81  1.0000
   6  11  37     136    4691     0.00000 0.00000 0.00000 0.00000 0.00000 0.00000   -5788   -6.68   -9.72  1.0000
   8  11  37     330    5624     0.00000 0.00000 0.00000 0.00000 0.00000 0.00000   -5810   -8.45   16.34  1.0000
   1  12  37    1231    4266     0.00000 0.00000 0.00000 0.00000 0.00000 0.00000   -6399   24.14  -26.06  1.0000
   3  12  37     444    4010     0.00000 0.00000 0.00000 0.00000 0.00000 0.00000   -3379  -18.00  -11.44  1.0000
   5  12  37     894    5550     0.00000 0.00000 0.00000 0.00000 0.00000 0.00000   -8326   27.70  -12.20  1.0000
   7  12  37    5873    9340     0.00000 0.00000 0.00000 0.00000 0.00000 0.00000    3367   14.59  -14.39  1.0000
   2  13  37    2156    4812     0.00000 0.00000 0.00000 0.00000 0.00000 0.00000   -7218   46.29   -8.16  1.0000
   4  13  37    2023    5998     0.00000 0.00000 0.00000 0.00000 0.00000 0.00000   -5836   21.62   40.08  1.0000
   1  14  37    4030    6285     0.00000 0.00000 0.00000 0.00000 0.00000 0.00000    6446   -4.28  -21.16  1.0000
   0   0  38    4357    7718     0.00000 0.00000 0.00000 0.00000 0.00000 0.00000   10106   32.09   14.26  1.0000
   2   0  38  117275    7532     0.00000 0.00000 0.00000 0.00000 0.00000 0.00000  117120  -40.24  -10.62  1.0000
   4   0  38   17301    4327     0.00000 0.00000 0.00000 0.00000 0.00000 0.00000   10818  -68.13   59.75  1.0000
   6   0  38   16560    6888     0.00000 0.00000 0.00000 0.00000 0.00000 0.00000   16463  -14.34  -11.39  1.0000
   8   0  38    5661    7934     0.00000 0.00000 0.00000 0.00000 0.00000 0.00000   12014    2.18  -34.77  1.0000
  10   0  38   11479    9732     0.00000 0.00000 0.00000 0.00000 0.00000 0.00000    8976   -3.23   21.70  1.0000
  12   0  38   15676    7873     0.00000 0.00000 0.00000 0.00000 0.00000 0.00000   20739   16.52   17.80  1.0000
   1   1  38    1317    3418     0.00000 0.00000 0.00000 0.00000 0.00000 0.00000   10842  -68.68    0.03  1.0000
   3   1  38    3935    3299     0.00000 0.00000 0.00000 0.00000 0.00000 0.00000    8420   63.36  -32.19  1.0000
   5   1  38    9422    6388     0.00000 0.00000 0.00000 0.00000 0.00000 0.00000   10691   32.12    0.30  1.0000
   7   1  38   21347    4603     0.00000 0.00000 0.00000 0.00000 0.00000 0.00000   17581   -2.68  -14.68  1.0000
   9   1  38   23942    5701     0.00000 0.00000 0.00000 0.00000 0.00000 0.00000   19627  -38.14    8.86  1.0000
  11   1  38   18366    5828     0.00000 0.00000 0.00000 0.00000 0.00000 0.00000   16653   22.32   -3.20  1.0000
  13   1  38   23547    8021     0.00000 0.00000 0.00000 0.00000 0.00000 0.00000   33259    4.19  -29.84  1.0000
   0   2  38  119942    9234     0.00000 0.00000 0.00000 0.00000 0.00000 0.00000  115199  -37.32   14.80  1.0000
   2   2  38    1675    3401     0.00000 0.00000 0.00000 0.00000 0.00000 0.00000    4246   24.50    1.82  1.0000
   4   2  38   15297    4392     0.00000 0.00000 0.00000 0.00000 0.00000 0.00000   13312    8.74   11.62  1.0000
   6   2  38    7900    5659     0.00000 0.00000 0.00000 0.00000 0.00000 0.00000    5471   26.36  -27.93  1.0000
   8   2  38   15992    4926     0.00000 0.00000 0.00000 0.00000 0.00000 0.00000   13601    4.49  -17.22  1.0000
  10   2  38   13420    6842     0.00000 0.00000 0.00000 0.00000 0.00000 0.00000   15527  -13.29   14.03  1.0000
  12   2  38    9049    5599     0.00000 0.00000 0.00000 0.00000 0.00000 0.00000   19005   14.77   47.35  1.0000
   1   3  38    5201    3475     0.00000 0.00000 0.00000 0.00000 0.00000 0.00000    6298   65.27   37.71  1.0000
   3   3  38    6047    4156     0.00000 0.00000 0.00000 0.00000 0.00000 0.00000   10381   24.20   -7.93  1.0000
   5   3  38    2922    4887     0.00000 0.00000 0.00000 0.00000 0.00000 0.00000    6311  -19.52  -17.12  1.0000
   7   3  38    5550    5563     0.00000 0.00000 0.00000 0.00000 0.00000 0.00000   12512  -29.13   44.50  1.0000
   9   3  38    3005    6263     0.00000 0.00000 0.00000 0.00000 0.00000 0.00000    5850   29.13  -23.62  1.0000
  11   3  38    7081    5060     0.00000 0.00000 0.00000 0.00000 0.00000 0.00000   13516   20.93  -29.22  1.0000
  13   3  38   19578   13543     0.00000 0.00000 0.00000 0.00000 0.00000 0.00000   50213  -41.23  -83.34  1.0000
   0   4  38   15726    8717     0.00000 0.00000 0.00000 0.00000 0.00000 0.00000    7871  -71.08  -61.07  1.0000
   2   4  38   14436    4440     0.00000 0.00000 0.00000 0.00000 0.00000 0.00000   12802    8.09   -9.01  1.0000
   4   4  38    1640    3529     0.00000 0.00000 0.00000 0.00000 0.00000 0.00000    4714  -29.10    0.40  1.0000
   6   4  38    2906    4423     0.00000 0.00000 0.00000 0.00000 0.00000 0.00000    5848   34.45   -6.16  1.0000
   8   4  38    4779    5524     0.00000 0.00000 0.00000 0.00000 0.00000 0.00000    2623   29.98   -5.31  1.0000
  10   4  38   14147    5060     0.00000 0.00000 0.00000 0.00000 0.00000 0.00000   15818   -7.97  -15.12  1.0000
  12   4  38    8947    6852     0.00000 0.00000 0.00000 0.00000 0.00000 0.00000   17032   11.79   39.31  1.0000
   1   5  38    6946    4546     0.00000 0.00000 0.00000 0.00000 0.00000 0.00000    7708   34.12    0.87  1.0000
   3   5  38     255    3743     0.00000 0.00000 0.00000 0.00000 0.00000 0.00000     264  -26.90    5.75  1.0000
   5   5  38    2093    3592     0.00000 0.00000 0.00000 0.00000 0.00000 0.00000    4188  -19.40   -1.11  1.0000
   7   5  38    2516    4625     0.00000 0.00000 0.00000 0.00000 0.00000 0.00000    4644   -1.83   33.61  1.0000
   9   5  38    5802    5072     0.00000 0.00000 0.00000 0.00000 0.00000 0.00000   12131    3.13  -34.55  1.0000
  11   5  38    2570    5222     0.00000 0.00000 0.00000 0.00000 0.00000 0.00000    7258   -6.96   35.77  1.0000
   0   6  38    7402    6123     0.00000 0.00000 0.00000 0.00000 0.00000 0.00000    6399  -13.01   12.72  1.0000
   2   6  38    8237    3881     0.00000 0.00000 0.00000 0.00000 0.00000 0.00000    5510   26.02   28.96  1.0000
   4   6  38     963    3838     0.00000 0.00000 0.00000 0.00000 0.00000 0.00000   -1011   29.56   10.64  1.0000
   6   6  38      26    3803     0.00000 0.00000 0.00000 0.00000 0.00000 0.00000    -698   -4.15    3.00  1.0000
   8   6  38    9796    4414     0.00000 0.00000 0.00000 0.00000 0.00000 0.00000    8643   -7.74   -0.62  1.0000
  10   6  38    2930    5326     0.00000 0.00000 0.00000 0.00000 0.00000 0.00000    2867   -7.13  -21.06  1.0000
   1   7  38   15568    4566     0.00000 0.00000 0.00000 0.00000 0.00000 0.00000   12276  -12.85   17.17  1.0000
   3   7  38    1096    4362     0.00000 0.00000 0.00000 0.00000 0.00000 0.00000    3873  -18.05  -42.81  1.0000
   5   7  38     841    4185     0.00000 0.00000 0.00000 0.00000 0.00000 0.00000    1157   -4.32  -36.34  1.0000
   7   7  38    5938    5095     0.00000 0.00000 0.00000 0.00000 0.00000 0.00000    6108    0.87    1.31  1.0000
   9   7  38    6739    4493     0.00000 0.00000 0.00000 0.00000 0.00000 0.00000    8103  -15.34  -13.93  1.0000
  11   7  38   16392    8172     0.00000 0.00000 0.00000 0.00000 0.00000 0.00000   19092   10.75   -5.34  1.0000
   0   8  38    1225    6061     0.00000 0.00000 0.00000 0.00000 0.00000 0.00000   -1764    4.63   35.14  1.0000
   2   8  38     250    5275     0.00000 0.00000 0.00000 0.00000 0.00000 0.00000   -1141    2.80   15.75  1.0000
   4   8  38     850    5023     0.00000 0.00000 0.00000 0.00000 0.00000 0.00000   -5432   28.98    5.60  1.0000
   6   8  38      54    4294     0.00000 0.00000 0.00000 0.00000 0.00000 0.00000   -1233   -7.44   -0.17  1.0000
   8   8  38     694    3997     0.00000 0.00000 0.00000 0.00000 0.00000 0.00000    -850   26.67    0.05  1.0000
  10   8  38    2317    5801     0.00000 0.00000 0.00000 0.00000 0.00000 0.00000    4359   13.23   15.45  1.0000
   1   9  38    2866    4173     0.00000 0.00000 0.00000 0.00000 0.00000 0.00000     742  -37.13  -10.97  1.0000
   3   9  38    1556    5152     0.00000 0.00000 0.00000 0.00000 0.00000 0.00000   -1519   30.97   25.21  1.0000
   5   9  38      25    4347     0.00000 0.00000 0.00000 0.00000 0.00000 0.00000     901    2.92   33.81  1.0000
   7   9  38     310    4413     0.00000 0.00000 0.00000 0.00000 0.00000 0.00000   -3122  -13.89   11.16  1.0000
   9   9  38     350    6059     0.00000 0.00000 0.00000 0.00000 0.00000 0.00000    4250  -51.84  -12.56  1.0000
   0  10  38    1817    6729     0.00000 0.00000 0.00000 0.00000 0.00000 0.00000     773   -2.53  -21.54  1.0000
   2  10  38     442    4386     0.00000 0.00000 0.00000 0.00000 0.00000 0.00000   -6530  -14.52  -15.56  1.0000
   4  10  38     223    4498     0.00000 0.00000 0.00000 0.00000 0.00000 0.00000   -4094   -5.50   14.08  1.0000
   6  10  38     578    4448     0.00000 0.00000 0.00000 0.00000 0.00000 0.00000   -1527   -7.71   23.09  1.0000
   8  10  38    1076    5348     0.00000 0.00000 0.00000 0.00000 0.00000 0.00000    2468   14.94  -10.28  1.0000
   1  11  38     501    4097     0.00000 0.00000 0.00000 0.00000 0.00000 0.00000   -4642   22.41    3.33  1.0000
   3  11  38    1198    4946     0.00000 0.00000 0.00000 0.00000 0.00000 0.00000   -4372   20.89   28.13  1.0000
   5  11  38      99    4805     0.00000 0.00000 0.00000 0.00000 0.00000 0.00000    1653   -6.49  -35.58  1.0000
   7  11  38     875    5784     0.00000 0.00000 0.00000 0.00000 0.00000 0.00000    1629   10.35    8.06  1.0000
   0  12  38     593    5513     0.00000 0.00000 0.00000 0.00000 0.00000 0.00000   -8269   15.71  -19.00  1.0000
   2  12  38    2345    4532     0.00000 0.00000 0.00000 0.00000 0.00000 0.00000   -2342   14.19  -46.93  1.0000
   4  12  38    1679    5862     0.00000 0.00000 0.00000 0.00000 0.00000 0.00000   -4063   12.63  -39.51  1.0000
   1  13  38    3265    5715     0.00000 0.00000 0.00000 0.00000 0.00000 0.00000    7337    4.58   29.06  1.0000
   2   1  39    3585    3596     0.00000 0.00000 0.00000 0.00000 0.00000 0.00000    7498  -23.35  -67.40  1.0000
   4   1  39   25587    4178     0.00000 0.00000 0.00000 0.00000 0.00000 0.00000   17005  -29.70    5.11  1.0000
   6   1  39    5828    5211     0.00000 0.00000 0.00000 0.00000 0.00000 0.00000   12018   33.53  -17.90  1.0000
   8   1  39   11788    6875     0.00000 0.00000 0.00000 0.00000 0.00000 0.00000   17165   20.11  -12.37  1.0000
  10   1  39    5495    6767     0.00000 0.00000 0.00000 0.00000 0.00000 0.00000    9640    5.36  -26.04  1.0000
  12   1  39   38672    9043     0.00000 0.00000 0.00000 0.00000 0.00000 0.00000   46953   -4.80  -28.12  1.0000
   1   2  39    2673    3613     0.00000 0.00000 0.00000 0.00000 0.00000 0.00000    7284   25.04  -68.84  1.0000
   3   2  39    6246    3909     0.00000 0.00000 0.00000 0.00000 0.00000 0.00000    7535    5.47   42.33  1.0000
   5   2  39    1937    4658     0.00000 0.00000 0.00000 0.00000 0.00000 0.00000    9124   74.89   -1.94  1.0000
   7   2  39   10602    6816     0.00000 0.00000 0.00000 0.00000 0.00000 0.00000    8726  -16.91   -2.84  1.0000
   9   2  39    6895    4993     0.00000 0.00000 0.00000 0.00000 0.00000 0.00000   20877   59.00   51.37  1.0000
  11   2  39   10032    5634     0.00000 0.00000 0.00000 0.00000 0.00000 0.00000   15920  -25.34   13.85  1.0000
   2   3  39   10158    4010     0.00000 0.00000 0.00000 0.00000 0.00000 0.00000    9536   -6.89   40.14  1.0000
   4   3  39    1064    4765     0.00000 0.00000 0.00000 0.00000 0.00000 0.00000    5418  -22.07   43.86  1.0000
   6   3  39    3445    4694     0.00000 0.00000 0.00000 0.00000 0.00000 0.00000   10849  -21.15  -42.33  1.0000
   8   3  39   17966    4976     0.00000 0.00000 0.00000 0.00000 0.00000 0.00000    9751  -33.55  -21.80  1.0000
  10   3  39   18550    5051     0.00000 0.00000 0.00000 0.00000 0.00000 0.00000   23647  -19.11   -4.59  1.0000
   1   4  39    9786    4042     0.00000 0.00000 0.00000 0.00000 0.00000 0.00000    5281   31.09   -4.19  1.0000
   3   4  39     323    4799     0.00000 0.00000 0.00000 0.00000 0.00000 0.00000    3975   22.51   45.71  1.0000
   5   4  39    7609    3499     0.00000 0.00000 0.00000 0.00000 0.00000 0.00000    3045   33.04    3.42  1.0000
   7   4  39    3320    4862     0.00000 0.00000 0.00000 0.00000 0.00000 0.00000    2236  -25.14   -5.03  1.0000
   9   4  39    5677    5302     0.00000 0.00000 0.00000 0.00000 0.00000 0.00000   11359  -28.42   18.35  1.0000
  11   4  39   10056    7656     0.00000 0.00000 0.00000 0.00000 0.00000 0.00000   18876  -34.01   19.55  1.0000
   2   5  39    1023    4407     0.00000 0.00000 0.00000 0.00000 0.00000 0.00000    2920  -75.70   -0.31  1.0000
   4   5  39    1102    3763     0.00000 0.00000 0.00000 0.00000 0.00000 0.00000    -714  -32.82   -7.24  1.0000
   6   5  39    4494    3665     0.00000 0.00000 0.00000 0.00000 0.00000 0.00000    5212  -16.95    5.81  1.0000
   8   5  39    6085    4992     0.00000 0.00000 0.00000 0.00000 0.00000 0.00000    3099   29.50    0.35  1.0000
  10   5  39    6733    5336     0.00000 0.00000 0.00000 0.00000 0.00000 0.00000    8616   10.27  -10.34  1.0000
   1   6  39     420    4889     0.00000 0.00000 0.00000 0.00000 0.00000 0.00000     569  -34.93  -15.82  1.0000
   3   6  39     778    3985     0.00000 0.00000 0.00000 0.00000 0.00000 0.00000    3326   22.14  -41.44  1.0000
   5   6  39    5387    4879     0.00000 0.00000 0.00000 0.00000 0.00000 0.00000    6022   15.79    4.70  1.0000
   7   6  39     363    4703     0.00000 0.00000 0.00000 0.00000 0.00000 0.00000   -1799   17.11    8.94  1.0000
   9   6  39   10035    5288     0.00000 0.00000 0.00000 0.00000 0.00000 0.00000   15411   -0.32  -24.31  1.0000
   2   7  39     444    4598     0.00000 0.00000 0.00000 0.00000 0.00000 0.00000   -1213   21.08   -3.34  1.0000
   4   7  39    1025    4184     0.00000 0.00000 0.00000 0.00000 0.00000 0.00000     229   23.94   -6.21  1.0000
   6   7  39    8312    4313     0.00000 0.00000 0.00000 0.00000 0.00000 0.00000    5265  -18.98    7.77  1.0000
   8   7  39    6251    4035     0.00000 0.00000 0.00000 0.00000 0.00000 0.00000   11264   32.39   18.82  1.0000
  10   7  39   14592    6184     0.00000 0.00000 0.00000 0.00000 0.00000 0.00000   25911   36.81  -19.03  1.0000
   1   8  39     687    4257     0.00000 0.00000 0.00000 0.00000 0.00000 0.00000   -2552  -25.25   -8.18  1.0000
   3   8  39    1383    4343     0.00000 0.00000 0.00000 0.00000 0.00000 0.00000    -206   32.60  -18.83  1.0000
   5   8  39    1130    5069     0.00000 0.00000 0.00000 0.00000 0.00000 0.00000      37  -29.48    0.51  1.0000
   7   8  39    4906    4180     0.00000 0.00000 0.00000 0.00000 0.00000 0.00000    8732  -33.45   17.97  1.0000
   9   8  39    9999    5061     0.00000 0.00000 0.00000 0.00000 0.00000 0.00000   18046   32.83   12.08  1.0000
   2   9  39    6164    4657     0.00000 0.00000 0.00000 0.00000 0.00000 0.00000   -1381  -61.01   50.95  1.0000
   4   9  39    1294    4237     0.00000 0.00000 0.00000 0.00000 0.00000 0.00000   -6355   28.32   22.89  1.0000
   6   9  39     620    4414     0.00000 0.00000 0.00000 0.00000 0.00000 0.00000   -6621    1.35  -25.18  1.0000
   8   9  39    4585    5564     0.00000 0.00000 0.00000 0.00000 0.00000 0.00000   10329  -32.67   10.58  1.0000
   1  10  39     792    4431     0.00000 0.00000 0.00000 0.00000 0.00000 0.00000   -2432   -6.49  -27.75  1.0000
   3  10  39     405    4200     0.00000 0.00000 0.00000 0.00000 0.00000 0.00000   -3418   19.17   -6.88  1.0000
   5  10  39     158    4906     0.00000 0.00000 0.00000 0.00000 0.00000 0.00000   -5031   -8.91   -9.10  1.0000
   7  10  39     213    6070     0.00000 0.00000 0.00000 0.00000 0.00000 0.00000     681  -36.70  -17.73  1.0000
   2  11  39     751    4678     0.00000 0.00000 0.00000 0.00000 0.00000 0.00000   -6070   22.30   16.52  1.0000
   4  11  39    1439    6006     0.00000 0.00000 0.00000 0.00000 0.00000 0.00000   -9009   34.04   17.78  1.0000
   1  12  39    3703    6239     0.00000 0.00000 0.00000 0.00000 0.00000 0.00000    6157    5.96  -27.93  1.0000
   0   0  40  111988   10215     0.00000 0.00000 0.00000 0.00000 0.00000 0.00000  109355   -2.85   -7.80  1.0000
   2   0  40    3035    6293     0.00000 0.00000 0.00000 0.00000 0.00000 0.00000   -8451  -12.11  -54.44  1.0000
   4   0  40   26078    7467     0.00000 0.00000 0.00000 0.00000 0.00000 0.00000   21788  -19.37    5.90  1.0000
   6   0  40   11108   13609     0.00000 0.00000 0.00000 0.00000 0.00000 0.00000   15487  -23.16   48.38  1.0000
   8   0  40   17838    7670     0.00000 0.00000 0.00000 0.00000 0.00000 0.00000   14359   23.90    8.08  1.0000
  10   0  40    6925    8198     0.00000 0.00000 0.00000 0.00000 0.00000 0.00000   15937   39.17   30.26  1.0000
   1   1  40    2440    3985     0.00000 0.00000 0.00000 0.00000 0.00000 0.00000    5675   26.85   -6.91  1.0000
   3   1  40    1431    4222     0.00000 0.00000 0.00000 0.00000 0.00000 0.00000    6646   -2.19  -70.93  1.0000
   5   1  40    8353    5075     0.00000 0.00000 0.00000 0.00000 0.00000 0.00000    9183  -44.23  -26.19  1.0000
   7   1  40   25489    5478     0.00000 0.00000 0.00000 0.00000 0.00000 0.00000   21937   15.13   23.94  1.0000
   9   1  40   12715    7344     0.00000 0.00000 0.00000 0.00000 0.00000 0.00000   10363   -4.39  -15.91  1.0000
  11   1  40   24413    8859     0.00000 0.00000 0.00000 0.00000 0.00000 0.00000   39457  -33.37  -31.20  1.0000
   0   2  40     835    6477     0.00000 0.00000 0.00000 0.00000 0.00000 0.00000    6769   -7.13   54.46  1.0000
   2   2  40   54948    5964     0.00000 0.00000 0.00000 0.00000 0.00000 0.00000   51014   10.88  -10.11  1.0000
   4   2  40    7869    3999     0.00000 0.00000 0.00000 0.00000 0.00000 0.00000    6124    4.35   47.43  1.0000
   6   2  40    4564    4874     0.00000 0.00000 0.00000 0.00000 0.00000 0.00000    9225  -15.24  -24.64  1.0000
   8   2  40    6952    4864     0.00000 0.00000 0.00000 0.00000 0.00000 0.00000   14781   25.64  -30.19  1.0000
  10   2  40   12622    5791     0.00000 0.00000 0.00000 0.00000 0.00000 0.00000   15239   12.02    6.24  1.0000
   1   3  40    5304    5041     0.00000 0.00000 0.00000 0.00000 0.00000 0.00000   -1484   -0.49   73.73  1.0000
   3   3  40    1080    4699     0.00000 0.00000 0.00000 0.00000 0.00000 0.00000    7666   12.82   54.23  1.0000
   5   3  40    5303    4866     0.00000 0.00000 0.00000 0.00000 0.00000 0.00000    8753   16.59  -12.86  1.0000
   7   3  40    3543    6232     0.00000 0.00000 0.00000 0.00000 0.00000 0.00000    2522   25.52   -6.92  1.0000
   9   3  40   11392    5098     0.00000 0.00000 0.00000 0.00000 0.00000 0.00000   18097   -4.00  -30.14  1.0000
   0   4  40   27674    8397     0.00000 0.00000 0.00000 0.00000 0.00000 0.00000   21568  -22.19   -7.48  1.0000
   2   4  40    8246    5187     0.00000 0.00000 0.00000 0.00000 0.00000 0.00000    3722    6.89  -68.96  1.0000
   4   4  40    7449    5471     0.00000 0.00000 0.00000 0.00000 0.00000 0.00000    6570   -4.84   -9.05  1.0000
   6   4  40    4589    4633     0.00000 0.00000 0.00000 0.00000 0.00000 0.00000    5412   -8.45  -14.21  1.0000
   8   4  40    4441    5074     0.00000 0.00000 0.00000 0.00000 0.00000 0.00000    9780    1.27   59.42  1.0000
  10   4  40    5936    7716     0.00000 0.00000 0.00000 0.00000 0.00000 0.00000   17964  -53.02   22.81  1.0000
   1   5  40    1365    4777     0.00000 0.00000 0.00000 0.00000 0.00000 0.00000   -1526  -34.30   14.92  1.0000
   3   5  40    3184    5713     0.00000 0.00000 0.00000 0.00000 0.00000 0.00000    6833   13.83   22.85  1.0000
   5   5  40      53    4974     0.00000 0.00000 0.00000 0.00000 0.00000 0.00000   -2151    3.09   -6.73  1.0000
   7   5  40     884    5108     0.00000 0.00000 0.00000 0.00000 0.00000 0.00000     484    9.73   -5.55  1.0000
   9   5  40    2263    5319     0.00000 0.00000 0.00000 0.00000 0.00000 0.00000    3491   -8.29  -12.09  1.0000
   0   6  40    6155    6800     0.00000 0.00000 0.00000 0.00000 0.00000 0.00000   13840  -24.03  -56.00  1.0000
   2   6  40     283    4162     0.00000 0.00000 0.00000 0.00000 0.00000 0.00000    1744  -16.08   19.50  1.0000
   4   6  40    1452    4814     0.00000 0.00000 0.00000 0.00000 0.00000 0.00000    1438   -6.98    9.41  1.0000
   6   6  40    5822    4133     0.00000 0.00000 0.00000 0.00000 0.00000 0.00000    6445    4.30   -4.57  1.0000
   8   6  40    1004    5207     0.00000 0.00000 0.00000 0.00000 0.00000 0.00000    3027   -4.37  -41.29  1.0000
   1   7  40    4384    4682     0.00000 0.00000 0.00000 0.00000 0.00000 0.00000    3636   13.81  -18.29  1.0000
   3   7  40     676    4444     0.00000 0.00000 0.00000 0.00000 0.00000 0.00000   -4412   25.79    5.24  1.0000
   5   7  40    2352    4453     0.00000 0.00000 0.00000 0.00000 0.00000 0.00000    1340   11.13   10.47  1.0000
   7   7  40    6721    4097     0.00000 0.00000 0.00000 0.00000 0.00000 0.00000   10534   21.62   -2.04  1.0000
   0   8  40    2436    7806     0.00000 0.00000 0.00000 0.00000 0.00000 0.00000    1284   26.29  -12.00  1.0000
   2   8  40    1589    4357     0.00000 0.00000 0.00000 0.00000 0.00000 0.00000   -4771   24.41   32.14  1.0000
   4   8  40    3188    4648     0.00000 0.00000 0.00000 0.00000 0.00000 0.00000   -1097    0.70  -57.16  1.0000
   6   8  40    1990    4315     0.00000 0.00000 0.00000 0.00000 0.00000 0.00000    5929   -1.38   40.86  1.0000
   1   9  40     426    4844     0.00000 0.00000 0.00000 0.00000 0.00000 0.00000    -247   -5.00   20.30  1.0000
   3   9  40     737    4363     0.00000 0.00000 0.00000 0.00000 0.00000 0.00000   -6544   -4.01   27.18  1.0000
   5   9  40     281    4485     0.00000 0.00000 0.00000 0.00000 0.00000 0.00000   -6353  -10.55   13.27  1.0000
   0  10  40    2493    6417     0.00000 0.00000 0.00000 0.00000 0.00000 0.00000   -9626   39.69  -31.30  1.0000
   2  10  40     201    5365     0.00000 0.00000 0.00000 0.00000 0.00000 0.00000   -8047   12.52   -7.00  1.0000
   4  10  40      10    7739     0.00000 0.00000 0.00000 0.00000 0.00000 0.00000    3051  -51.59  -26.62  1.0000
   1  11  40    2889    5846     0.00000 0.00000 0.00000 0.00000 0.00000 0.00000    7327  -33.04   29.43  1.0000
   2   1  41    5741    4680     0.00000 0.00000 0.00000 0.00000 0.00000 0.00000   13910   21.96  -36.64  1.0000
   4   1  41    6968    6228     0.00000 0.00000 0.00000 0.00000 0.00000 0.00000    9561  -21.23   -5.76  1.0000
   6   1  41    7491    6577     0.00000 0.00000 0.00000 0.00000 0.00000 0.00000    8987  -15.83    6.56  1.0000
   8   1  41   13321    8457     0.00000 0.00000 0.00000 0.00000 0.00000 0.00000   19018    6.41   25.58  1.0000
   1   2  41   15074    5762     0.00000 0.00000 0.00000 0.00000 0.00000 0.00000   27496  -23.96  -36.50  1.0000
   3   2  41    1987    4749     0.00000 0.00000 0.00000 0.00000 0.00000 0.00000    6235   39.80   -9.32  1.0000
   5   2  41    2882    4843     0.00000 0.00000 0.00000 0.00000 0.00000 0.00000   10359  -49.73   41.53  1.0000
   7   2  41    8590    5022     0.00000 0.00000 0.00000 0.00000 0.00000 0.00000   22114   -4.09   65.05  1.0000
   9   2  41   10185   12617     0.00000 0.00000 0.00000 0.00000 0.00000 0.00000   15941    3.41  -25.44  1.0000
   2   3  41    2156    4427     0.00000 0.00000 0.00000 0.00000 0.00000 0.00000    5391  -36.12   -3.03  1.0000
   4   3  41   17516    5079     0.00000 0.00000 0.00000 0.00000 0.00000 0.00000   14506  -23.39  -17.75  1.0000
   6   3  41    3333    4690     0.00000 0.00000 0.00000 0.00000 0.00000 0.00000    9490   16.24  -36.78  1.0000
   8   3  41    8812    5032     0.00000 0.00000 0.00000 0.00000 0.00000 0.00000   15687   -0.31  -31.82  1.0000
   1   4  41    8114    4817     0.00000 0.00000 0.00000 0.00000 0.00000 0.00000   11022   21.38   -6.63  1.0000
   3   4  41   18632    4725     0.00000 0.00000 0.00000 0.00000 0.00000 0.00000   15074   18.39  -16.87  1.0000
   5   4  41    6675    4118     0.00000 0.00000 0.00000 0.00000 0.00000 0.00000    5808   -4.88   10.07  1.0000
   7   4  41    4494    5163     0.00000 0.00000 0.00000 0.00000 0.00000 0.00000    5257   29.48   -2.39  1.0000
   9   4  41   20018    9125     0.00000 0.00000 0.00000 0.00000 0.00000 0.00000   30961   19.77  -33.39  1.0000
   2   5  41    8341    4938     0.00000 0.00000 0.00000 0.00000 0.00000 0.00000   19444   49.52   45.86  1.0000
   4   5  41      89    4518     0.00000 0.00000 0.00000 0.00000 0.00000 0.00000    -115    4.23    8.56  1.0000
   6   5  41    3812    4597     0.00000 0.00000 0.00000 0.00000 0.00000 0.00000    6538   -5.16   22.57  1.0000
   8   5  41   12456   10003     0.00000 0.00000 0.00000 0.00000 0.00000 0.00000   13063   -7.59   -7.54  1.0000
   1   6  41    4496    4523     0.00000 0.00000 0.00000 0.00000 0.00000 0.00000    6168   17.72    6.39  1.0000
   3   6  41     265    4375     0.00000 0.00000 0.00000 0.00000 0.00000 0.00000    3242  -18.32  -38.17  1.0000
   5   6  41    2593    4136     0.00000 0.00000 0.00000 0.00000 0.00000 0.00000    4609    6.48   21.68  1.0000
   7   6  41    5260    6439     0.00000 0.00000 0.00000 0.00000 0.00000 0.00000    6178   -6.13   -5.38  1.0000
   2   7  41     914    4559     0.00000 0.00000 0.00000 0.00000 0.00000 0.00000    1620    1.26   65.74  1.0000
   4   7  41    3180    4568     0.00000 0.00000 0.00000 0.00000 0.00000 0.00000    3859  -25.02    0.62  1.0000
   6   7  41    4557    7051     0.00000 0.00000 0.00000 0.00000 0.00000 0.00000    5057    7.89   -8.10  1.0000
   1   8  41     718    4688     0.00000 0.00000 0.00000 0.00000 0.00000 0.00000    -499   -8.42   25.79  1.0000
   3   8  41    1003    4399     0.00000 0.00000 0.00000 0.00000 0.00000 0.00000   -4162   -4.13  -31.79  1.0000
   5   8  41    6994    5410     0.00000 0.00000 0.00000 0.00000 0.00000 0.00000    6742    5.93   -6.97  1.0000
   2   9  41     688    5832     0.00000 0.00000 0.00000 0.00000 0.00000 0.00000   -5862   -2.01  -26.48  1.0000
   4   9  41    1447   11742     0.00000 0.00000 0.00000 0.00000 0.00000 0.00000   -5126  -20.19  -32.80  1.0000
   0   0  42      11    8952     0.00000 0.00000 0.00000 0.00000 0.00000 0.00000   -9990    3.16   -1.17  1.0000
   2   0  42   49198    9419     0.00000 0.00000 0.00000 0.00000 0.00000 0.00000   44543  -11.35    8.35  1.0000
   4   0  42   11166   10153     0.00000 0.00000 0.00000 0.00000 0.00000 0.00000   18543   49.17   -5.07  1.0000
   6   0  42   15819   10169     0.00000 0.00000 0.00000 0.00000 0.00000 0.00000   26402   37.83  -19.98  1.0000
   8   0  42   10012   12562     0.00000 0.00000 0.00000 0.00000 0.00000 0.00000   41489 -101.75  -29.64  1.0000
   1   1  42     202    4344     0.00000 0.00000 0.00000 0.00000 0.00000 0.00000     267  -26.38    9.82  1.0000
   3   1  42     765    5831     0.00000 0.00000 0.00000 0.00000 0.00000 0.00000    7632   26.50  -57.23  1.0000
   5   1  42   13259    7735     0.00000 0.00000 0.00000 0.00000 0.00000 0.00000   26631  -34.96   45.26  1.0000
   7   1  42   15264    5592     0.00000 0.00000 0.00000 0.00000 0.00000 0.00000   23402   10.21  -27.99  1.0000
   0   2  42   30797    7696     0.00000 0.00000 0.00000 0.00000 0.00000 0.00000   27933  -17.47   -5.15  1.0000
   2   2  42    4724    5242     0.00000 0.00000 0.00000 0.00000 0.00000 0.00000   11309  -38.04   -2.03  1.0000
   4   2  42   22522    4746     0.00000 0.00000 0.00000 0.00000 0.00000 0.00000   24714   18.96   13.19  1.0000
   6   2  42   13385    5048     0.00000 0.00000 0.00000 0.00000 0.00000 0.00000   11964   33.49    5.60  1.0000
   8   2  42   20104    8943     0.00000 0.00000 0.00000 0.00000 0.00000 0.00000   43284   44.96  -49.79  1.0000
   1   3  42    1394    7220     0.00000 0.00000 0.00000 0.00000 0.00000 0.00000    8495    2.46   56.27  1.0000
   3   3  42    6424    4366     0.00000 0.00000 0.00000 0.00000 0.00000 0.00000    5352   12.58  -11.90  1.0000
   5   3  42    1818    4796     0.00000 0.00000 0.00000 0.00000 0.00000 0.00000    7038  -39.54   13.61  1.0000
   7   3  42   23435   11180     0.00000 0.00000 0.00000 0.00000 0.00000 0.00000   20589   -2.77   16.63  1.0000
   0   4  42    8570    7213     0.00000 0.00000 0.00000 0.00000 0.00000 0.00000   13964   48.02    5.03  1.0000
   2   4  42   13826    5636     0.00000 0.00000 0.00000 0.00000 0.00000 0.00000   14729   13.29   -7.78  1.0000
   4   4  42    2050    4856     0.00000 0.00000 0.00000 0.00000 0.00000 0.00000    4449   20.90    7.06  1.0000
   6   4  42    4904    9753     0.00000 0.00000 0.00000 0.00000 0.00000 0.00000   13533  -35.26   31.08  1.0000
   1   5  42    4510    5015     0.00000 0.00000 0.00000 0.00000 0.00000 0.00000   12451  -39.53  -44.36  1.0000
   3   5  42     856    4452     0.00000 0.00000 0.00000 0.00000 0.00000 0.00000    3152    3.69  -28.32  1.0000
   5   5  42     356    5334     0.00000 0.00000 0.00000 0.00000 0.00000 0.00000     253   -2.37   -2.86  1.0000
   0   6  42     724    7192     0.00000 0.00000 0.00000 0.00000 0.00000 0.00000    4666   37.60   20.55  1.0000
   2   6  42     984    4816     0.00000 0.00000 0.00000 0.00000 0.00000 0.00000     158   30.04   -0.23  1.0000
   4   6  42     177    5861     0.00000 0.00000 0.00000 0.00000 0.00000 0.00000    1077  -39.54  -23.11  1.0000
   1   7  42    2997    6271     0.00000 0.00000 0.00000 0.00000 0.00000 0.00000    6842   11.72   26.24  1.0000
   3   7  42     392    7894     0.00000 0.00000 0.00000 0.00000 0.00000 0.00000    -190   -6.58  -18.92  1.0000
   0   8  42    3253   12668     0.00000 0.00000 0.00000 0.00000 0.00000 0.00000   26181 -104.23   30.76  1.0000
   2   8  42      64    7382     0.00000 0.00000 0.00000 0.00000 0.00000 0.00000    5233   44.62   50.12  1.0000
   2   1  43    5610    4903     0.00000 0.00000 0.00000 0.00000 0.00000 0.00000    6455   -7.58    1.88  1.0000
   4   1  43   14219    5983     0.00000 0.00000 0.00000 0.00000 0.00000 0.00000   17253  -13.38  -33.36  1.0000
   6   1  43   13209    8900     0.00000 0.00000 0.00000 0.00000 0.00000 0.00000   31529  -38.11  -53.84  1.0000
   1   2  43    2696    4821     0.00000 0.00000 0.00000 0.00000 0.00000 0.00000    3245    6.33    9.10  1.0000
   3   2  43   10892    4920     0.00000 0.00000 0.00000 0.00000 0.00000 0.00000   10108   11.27    8.30  1.0000
   5   2  43   13563    9028     0.00000 0.00000 0.00000 0.00000 0.00000 0.00000   36115   64.67   37.11  1.0000
   2   3  43    2619    6033     0.00000 0.00000 0.00000 0.00000 0.00000 0.00000    2314  -11.03    6.23  1.0000
   4   3  43    1540    7716     0.00000 0.00000 0.00000 0.00000 0.00000 0.00000    2420   -2.46   18.75  1.0000
   1   4  43    5938    4900     0.00000 0.00000 0.00000 0.00000 0.00000 0.00000    5218   16.62  -41.10  1.0000
   3   4  43     185    6290     0.00000 0.00000 0.00000 0.00000 0.00000 0.00000   -6890    0.09   13.79  1.0000
   5   4  43    5194   12146     0.00000 0.00000 0.00000 0.00000 0.00000 0.00000   22669   79.72   13.49  1.0000
   2   5  43     410    7748     0.00000 0.00000 0.00000 0.00000 0.00000 0.00000    2626  -58.82   41.98  1.0000
   4   5  43    7291   12856     0.00000 0.00000 0.00000 0.00000 0.00000 0.00000   28057  -82.94   12.08  1.0000
   1   6  43    4436    9165     0.00000 0.00000 0.00000 0.00000 0.00000 0.00000   -1948   37.80  -55.84  1.0000
   0   0  44   34253   12756     0.00000 0.00000 0.00000 0.00000 0.00000 0.00000   31426    7.76    1.51  1.0000
   2   0  44    9973   12799     0.00000 0.00000 0.00000 0.00000 0.00000 0.00000   26549   18.52  -61.50  1.0000
   1   1  44     213   10014     0.00000 0.00000 0.00000 0.00000 0.00000 0.00000    -667   14.27   -3.83  1.0000
   3   1  44    9311   11739     0.00000 0.00000 0.00000 0.00000 0.00000 0.00000   33247  -49.46  -74.21  1.0000
   0   2  44    9283   12790     0.00000 0.00000 0.00000 0.00000 0.00000 0.00000   24953    8.17   61.91  1.0000
   2   2  44   29429   15290     0.00000 0.00000 0.00000 0.00000 0.00000 0.00000   38380   25.22   -0.79  1.0000
   1   3  44    6567    8617     0.00000 0.00000 0.00000 0.00000 0.00000 0.00000   27610  -35.81   80.96  1.0000
;
_shelx_hkl_checksum              42808
_olex2_submission_special_instructions 'No special instructions were received'
loop_
_space_group_symop_operation_xyz
'x, y, z'
'-x, -y, z'
'y, -x, -z'
'-y, x, -z'
'x, -y, z+1/2'
'-x, y, z+1/2'
'y, x, -z+1/2'
'-y, -x, -z+1/2'
'x+1/2, y+1/2, z+1/2'
'-x+1/2, -y+1/2, z+1/2'
'y+1/2, -x+1/2, -z+1/2'
'-y+1/2, x+1/2, -z+1/2'
'x+1/2, -y+1/2, z+1'
'-x+1/2, y+1/2, z+1'
'y+1/2, x+1/2, -z+1'
'-y+1/2, -x+1/2, -z+1'
loop_
_atom_site_label
_atom_site_type_symbol
_atom_site_fract_x
_atom_site_fract_y
_atom_site_fract_z
_atom_site_U_iso_or_equiv
_atom_site_adp_type
_atom_site_occupancy
_atom_site_site_symmetry_order
_atom_site_calc_flag
_atom_site_refinement_flags_posn
_atom_site_refinement_flags_adp
Co01 Co 0.57217(13) 0.2748(2) 0.37287(10) 0.081(2) Uani 1 1 d . .
Co02 Co 0.47312(16) 0.27691(19) 0.37696(11) 0.0767(18) Uani 1 1 d D .
O1 O 0.5252(5) 0.2859(6) 0.4018(3) 0.055(6) Uani 1 1 d D U
O3 O 0.5209(7) 0.2877(6) 0.3507(4) 0.117(9) Uani 1 1 d D U
O2 O 0.4633(5) 0.3379(5) 0.3845(3) 0.075(7) Uani 1 1 d D U
O4 O 0.5831(6) 0.3395(7) 0.3680(5) 0.120(10) Uani 1 1 d D .
C20 C 0.6286(8) 0.2355(7) 0.4139(5) 0.101(13) Uani 1 1 d D U
H20 H 0.6096 0.2111 0.4122 0.121 Uiso 1 1 calc R .
O6 O 0.5563(6) 0.2119(6) 0.3759(4) 0.084(7) Uani 1 1 d D U
C54 C 0.5571(7) 0.3562(7) 0.3504(4) 0.112(16) Uani 1 1 d D .
C18 C 0.3525(12) 0.2770(12) 0.2643(6) 0.156(18) Uani 1 1 d . .
H18A H 0.3696 0.3013 0.2711 0.233 Uiso 1 1 calc GR .
H18B H 0.3469 0.2821 0.2465 0.233 Uiso 1 1 calc GR .
H18C H 0.3689 0.2497 0.2663 0.233 Uiso 1 1 calc GR .
C11 C 0.3145(7) 0.2710(6) 0.3033(5) 0.077(11) Uani 1 1 d D .
C36 C 0.7760(10) 0.2579(7) 0.4060(5) 0.095(11) Uani 1 1 d . U
H36A H 0.8071 0.2586 0.4017 0.143 Uiso 1 1 calc GR .
H36B H 0.7610 0.2820 0.3976 0.143 Uiso 1 1 calc GR .
H36C H 0.7634 0.2301 0.4006 0.143 Uiso 1 1 calc GR .
C32 C 0.8110(6) 0.2606(4) 0.4465(4) 0.057(9) Uani 1 1 d D U
C53 C 0.5235(7) 0.3264(8) 0.3413(4) 0.097(13) Uani 1 1 d D U
C27 C 0.8544(6) 0.2553(7) 0.4355(3) 0.048(9) Uani 1 1 d D U
C58 C 0.4962(7) 0.3411(9) 0.3212(4) 0.133(15) Uani 1 1 d D U
H58 H 0.4741 0.3224 0.3149 0.159 Uiso 1 1 calc R .
C21 C 0.6642(8) 0.2340(7) 0.4310(5) 0.099(12) Uani 1 1 d D U
H21 H 0.6675 0.2099 0.4420 0.119 Uiso 1 1 calc R .
C7 C 0.1751(7) 0.2889(6) 0.3310(4) 0.073(10) Uani 1 1 d D U
H7 H 0.1887 0.3168 0.3315 0.087 Uiso 1 1 calc R .
C8 C 0.1932(6) 0.2550(8) 0.3162(4) 0.075(11) Uani 1 1 d D U
C19 C 0.1887(11) 0.2709(11) 0.2607(6) 0.111(13) Uani 1 1 d . U
H19A H 0.1811 0.2419 0.2541 0.167 Uiso 1 1 calc GR .
H19B H 0.1924 0.2913 0.2467 0.167 Uiso 1 1 calc GR .
H19C H 0.1653 0.2812 0.2717 0.167 Uiso 1 1 calc GR .
C16 C 0.3142(8) 0.2740(7) 0.2767(5) 0.106(14) Uani 1 1 d D U
C66 C 0.5909(10) 0.4278(13) 0.3805(5) 0.151(16) Uani 1 1 d D .
H66A H 0.6094 0.4057 0.3884 0.226 Uiso 1 1 calc GR .
H66B H 0.5603 0.4224 0.3847 0.226 Uiso 1 1 calc GR .
H66C H 0.5994 0.4568 0.3865 0.226 Uiso 1 1 calc GR .
C22 C 0.6947(6) 0.2690(6) 0.4314(4) 0.079(11) Uani 1 1 d D U
C13 C 0.2352(7) 0.2611(9) 0.3029(6) 0.066(11) Uani 1 1 d D U
C28 C 0.8682(7) 0.2884(6) 0.4189(4) 0.115(14) Uani 1 1 d D U
H28 H 0.8534 0.3156 0.4184 0.138 Uiso 1 1 calc R .
C56 C 0.5348(9) 0.4115(9) 0.3199(5) 0.141(19) Uani 1 1 d D .
H56 H 0.5382 0.4397 0.3126 0.169 Uiso 1 1 calc R .
C51 C 0.4585(9) 0.4349(11) 0.3766(5) 0.143(14) Uani 1 1 d D U
H51A H 0.4848 0.4529 0.3749 0.214 Uiso 1 1 calc GR .
H51B H 0.4334 0.4506 0.3697 0.214 Uiso 1 1 calc GR .
H51C H 0.4626 0.4074 0.3675 0.214 Uiso 1 1 calc GR .
C10 C 0.1349(8) 0.2052(7) 0.3292(4) 0.092(11) Uani 1 1 d D U
H10 H 0.1213 0.1773 0.3287 0.110 Uiso 1 1 calc R .
C33 C 0.8114(6) 0.2639(5) 0.4731(4) 0.049(9) Uani 1 1 d D U
C59 C 0.4766(8) 0.4016(10) 0.2906(5) 0.189(17) Uani 1 1 d D U
C41 C 0.4846(6) 0.3944(6) 0.4132(3) 0.164(16) Uani 1 1 d D U
C40 C 0.4898(7) 0.3547(6) 0.4022(4) 0.153(15) Uani 1 1 d D U
C42 C 0.5105(8) 0.4084(8) 0.4331(4) 0.194(18) Uani 1 1 d D U
H42 H 0.5058 0.4364 0.4402 0.233 Uiso 1 1 calc DR .
C39 C 0.5228(7) 0.3265(7) 0.4114(4) 0.146(16) Uani 1 1 d D U
C9 C 0.1734(7) 0.2132(7) 0.3151(4) 0.104(12) Uani 1 1 d D U
H9 H 0.1858 0.1908 0.3050 0.125 Uiso 1 1 calc R .
C48 C 0.5721(14) 0.3936(18) 0.4638(6) 0.27(2) Uani 1 1 d D U
C2 C 0.3595(7) 0.3117(7) 0.3333(4) 0.079(11) Uani 1 1 d D U
H2 H 0.3403 0.3359 0.3316 0.095 Uiso 1 1 calc R .
C52 C 0.4500(12) 0.4671(8) 0.4196(6) 0.27(3) Uani 1 1 d D U
H52A H 0.4800 0.4749 0.4242 0.399 Uiso 1 1 calc DGR .
H52B H 0.4328 0.4625 0.4349 0.399 Uiso 1 1 calc GR .
H52C H 0.4371 0.4908 0.4098 0.399 Uiso 1 1 calc GR .
C64 C 0.5927(14) 0.4708(10) 0.3388(8) 0.19(2) Uani 1 1 d D .
H64A H 0.5981 0.4693 0.3207 0.280 Uiso 1 1 calc GR .
H64B H 0.6141 0.4904 0.3465 0.280 Uiso 1 1 calc GR .
H64C H 0.5632 0.4819 0.3418 0.280 Uiso 1 1 calc GR .
C60 C 0.4463(12) 0.4375(11) 0.2987(7) 0.23(2) Uani 1 1 d D U
H60A H 0.4228 0.4252 0.3090 0.339 Uiso 1 1 calc GR .
H60B H 0.4338 0.4517 0.2839 0.339 Uiso 1 1 calc GR .
H60C H 0.4626 0.4590 0.3086 0.339 Uiso 1 1 calc GR .
C37 C 0.8528(8) 0.2656(9) 0.4881(5) 0.068(10) Uani 1 1 d . U
H37A H 0.8457 0.2708 0.5058 0.102 Uiso 1 1 calc GR .
H37B H 0.8712 0.2894 0.4819 0.102 Uiso 1 1 calc GR .
H37C H 0.8684 0.2379 0.4865 0.102 Uiso 1 1 calc GR .
C65 C 0.6393(9) 0.4045(11) 0.3455(5) 0.130(14) Uani 1 1 d D U
H65A H 0.6417 0.3969 0.3277 0.194 Uiso 1 1 calc GR .
H65B H 0.6414 0.3779 0.3556 0.194 Uiso 1 1 calc GR .
H65C H 0.6630 0.4245 0.3500 0.194 Uiso 1 1 calc GR .
C1 C 0.3969(8) 0.3147(8) 0.3491(4) 0.110(13) Uani 1 1 d D U
H1 H 0.4030 0.3410 0.3579 0.132 Uiso 1 1 calc R .
C61 C 0.4442(12) 0.3606(10) 0.2793(7) 0.177(18) Uani 1 1 d D U
H61A H 0.4251 0.3499 0.2927 0.265 Uiso 1 1 calc GR .
H61B H 0.4625 0.3367 0.2732 0.265 Uiso 1 1 calc GR .
H61C H 0.4263 0.3719 0.2655 0.265 Uiso 1 1 calc GR .
C12 C 0.2747(10) 0.2647(7) 0.3163(4) 0.108(14) Uani 1 1 d D U
C31 C 0.7709(8) 0.2625(4) 0.4333(3) 0.053(9) Uani 1 1 d D U
C17 C 0.2744(11) 0.2573(10) 0.3456(5) 0.101(12) Uani 1 1 d . U
H17A H 0.2953 0.2343 0.3499 0.152 Uiso 1 1 calc GR .
H17B H 0.2451 0.2485 0.3509 0.152 Uiso 1 1 calc GR .
H17C H 0.2826 0.2845 0.3541 0.152 Uiso 1 1 calc GR .
C30 C 0.7308(6) 0.2676(4) 0.4464(4) 0.058(10) Uani 1 1 d D U
C15 C 0.2745(11) 0.2713(9) 0.2635(4) 0.083(13) Uani 1 1 d D U
C38 C 0.6913(8) 0.2768(9) 0.4861(5) 0.072(10) Uani 1 1 d . U
H38A H 0.6766 0.3029 0.4797 0.109 Uiso 1 1 calc GR .
H38B H 0.6973 0.2804 0.5040 0.109 Uiso 1 1 calc GR .
H38C H 0.6726 0.2513 0.4835 0.109 Uiso 1 1 calc GR .
N1 N 0.4251(7) 0.2781(9) 0.3514(4) 0.112(10) Uani 1 1 d D U
C14 C 0.2344(8) 0.2677(7) 0.2765(6) 0.098(13) Uani 1 1 d D .
N2 N 0.1170(6) 0.2390(9) 0.3439(4) 0.102(10) Uani 1 1 d D U
C23 C 0.6881(7) 0.3068(6) 0.4165(5) 0.148(16) Uani 1 1 d D U
H23 H 0.7085 0.3302 0.4170 0.178 Uiso 1 1 calc R .
C57 C 0.5020(8) 0.3829(10) 0.3108(4) 0.163(19) Uani 1 1 d D U
C6 C 0.1364(7) 0.2805(7) 0.3450(3) 0.081(10) Uani 1 1 d D U
H6 H 0.1238 0.3029 0.3551 0.098 Uiso 1 1 calc R .
C68 C 0.5213(11) 0.1446(7) 0.3686(8) 0.170(17) Uani 1 1 d D U
H68A H 0.5425 0.1379 0.3554 0.255 Uiso 1 1 calc GR .
H68B H 0.4921 0.1354 0.3632 0.255 Uiso 1 1 calc GR .
H68C H 0.5293 0.1289 0.3840 0.255 Uiso 1 1 calc GR .
O5 O 0.4876(7) 0.2135(7) 0.3731(5) 0.113(8) Uani 1 1 d D .
C43 C 0.5435(7) 0.3814(9) 0.4428(4) 0.203(17) Uani 1 1 d D U
C46 C 0.6095(16) 0.3669(17) 0.4741(10) 0.28(3) Uani 1 1 d D U
H46A H 0.5995 0.3371 0.4775 0.413 Uiso 1 1 calc GR .
H46B H 0.6200 0.3802 0.4897 0.413 Uiso 1 1 calc GR .
H46C H 0.6333 0.3661 0.4619 0.413 Uiso 1 1 calc GR .
C45 C 0.588(2) 0.4369(16) 0.4534(10) 0.29(3) Uani 1 1 d D U
H45A H 0.5985 0.4552 0.4671 0.436 Uiso 1 1 calc GR .
H45B H 0.5635 0.4517 0.4449 0.436 Uiso 1 1 calc GR .
H45C H 0.6114 0.4317 0.4413 0.436 Uiso 1 1 calc GR .
C47 C 0.5390(16) 0.397(2) 0.4850(10) 0.31(3) Uani 1 1 d D U
H47A H 0.5134 0.4132 0.4793 0.459 Uiso 1 1 calc GR .
H47B H 0.5523 0.4119 0.4993 0.459 Uiso 1 1 calc GR .
H47C H 0.5301 0.3674 0.4901 0.459 Uiso 1 1 calc GR .
C25 C 0.9124(8) 0.2067(7) 0.4207(5) 0.140(17) Uani 1 1 d D U
H25 H 0.9273 0.1795 0.4213 0.168 Uiso 1 1 calc R .
N3 N 0.6216(5) 0.2737(8) 0.3995(3) 0.039(6) Uani 1 1 d D U
C49 C 0.4504(8) 0.4251(7) 0.4041(4) 0.19(2) Uani 1 1 d D U
C63 C 0.5971(8) 0.4257(7) 0.3501(6) 0.126(15) Uani 1 1 d D U
N4 N 0.9261(6) 0.2396(8) 0.4042(4) 0.072(8) Uani 1 1 d D U
C3 C 0.3511(6) 0.2726(7) 0.3203(3) 0.061(10) Uani 1 1 d D U
C24 C 0.6504(9) 0.3095(7) 0.4009(5) 0.139(16) Uani 1 1 d D U
H24 H 0.6448 0.3352 0.3915 0.167 Uiso 1 1 calc R .
C55 C 0.5626(7) 0.3981(8) 0.3398(4) 0.123(17) Uani 1 1 d D .
C29 C 0.9047(8) 0.2804(8) 0.4028(4) 0.138(16) Uani 1 1 d D U
H29 H 0.9143 0.3022 0.3914 0.166 Uiso 1 1 calc R .
C50 C 0.4073(11) 0.4010(12) 0.4064(7) 0.23(2) Uani 1 1 d D U
H50A H 0.3846 0.4169 0.3973 0.342 Uiso 1 1 calc GR .
H50B H 0.3991 0.3988 0.4241 0.342 Uiso 1 1 calc GR .
H50C H 0.4103 0.3716 0.3994 0.342 Uiso 1 1 calc GR .
C34 C 0.7714(8) 0.2689(5) 0.4862(3) 0.039(9) Uani 1 1 d D U
C4 C 0.3791(7) 0.2361(6) 0.3225(4) 0.095(12) Uani 1 1 d D U
H4 H 0.3728 0.2099 0.3137 0.114 Uiso 1 1 calc R .
C5 C 0.4168(7) 0.2389(8) 0.3382(4) 0.068(10) Uani 1 1 d D U
H5 H 0.4361 0.2148 0.3398 0.082 Uiso 1 1 calc R .
C35 C 0.7312(6) 0.2708(5) 0.4730(4) 0.053(9) Uani 1 1 d D U
C26 C 0.8758(8) 0.2146(7) 0.4368(4) 0.123(16) Uani 1 1 d D .
H26 H 0.8660 0.1927 0.4481 0.147 Uiso 1 1 calc R .
C44 C 0.5486(8) 0.3409(9) 0.4314(4) 0.170(16) Uani 1 1 d D U
H44 H 0.5708 0.3220 0.4375 0.204 Uiso 1 1 calc R .
C62 C 0.5059(13) 0.4184(14) 0.2661(7) 0.24(2) Uani 1 1 d D U
H62A H 0.5138 0.4491 0.2684 0.360 Uiso 1 1 calc GR .
H62B H 0.4886 0.4151 0.2508 0.360 Uiso 1 1 calc GR .
H62C H 0.5325 0.4007 0.2648 0.360 Uiso 1 1 calc GR .
C67 C 0.5213(10) 0.1937(10) 0.3737(12) 0.16(2) Uani 1 1 d D U
loop_
_atom_site_aniso_label
_atom_site_aniso_U_11
_atom_site_aniso_U_22
_atom_site_aniso_U_33
_atom_site_aniso_U_23
_atom_site_aniso_U_13
_atom_site_aniso_U_12
Co01 0.033(3) 0.155(6) 0.053(3) 0.006(4) 0.006(3) 0.013(4)
Co02 0.057(3) 0.105(5) 0.068(4) 0.004(4) -0.007(3) -0.007(4)
O1 0.034(10) 0.105(12) 0.026(9) -0.013(9) 0.003(8) 0.002(10)
O3 0.103(14) 0.097(14) 0.150(14) -0.028(11) -0.013(12) 0.008(11)
O2 0.050(11) 0.118(13) 0.057(11) 0.010(10) -0.001(9) -0.008(10)
O4 0.066(18) 0.10(2) 0.20(3) -0.01(2) -0.009(19) 0.002(16)
C20 0.090(17) 0.097(17) 0.116(17) -0.004(13) -0.005(13) -0.008(13)
O6 0.113(13) 0.068(12) 0.071(11) 0.010(10) 0.001(12) 0.026(11)
C54 0.12(5) 0.17(5) 0.05(3) 0.02(3) 0.01(3) 0.01(4)
C18 0.13(4) 0.23(5) 0.11(3) 0.05(3) 0.04(3) 0.01(4)
C11 0.09(3) 0.06(3) 0.08(3) 0.01(2) 0.02(2) -0.01(2)
C36 0.095(12) 0.096(11) 0.095(12) 0.000(3) 0.000(3) 0.001(3)
C32 0.048(14) 0.071(15) 0.053(14) 0.017(12) 0.001(12) 0.013(12)
C53 0.091(17) 0.108(18) 0.091(17) 0.001(13) -0.002(13) -0.006(14)
C27 0.042(14) 0.063(15) 0.040(14) 0.000(12) -0.009(12) -0.006(12)
C58 0.128(19) 0.128(19) 0.142(19) 0.009(14) -0.011(13) 0.007(13)
C21 0.105(17) 0.090(17) 0.103(17) 0.007(13) -0.021(13) 0.005(13)
C7 0.062(15) 0.073(15) 0.083(15) -0.013(12) 0.008(12) 0.000(12)
C8 0.04(2) 0.10(3) 0.08(2) 0.01(2) -0.003(19) 0.02(2)
C19 0.09(2) 0.15(3) 0.09(2) 0.01(2) -0.032(19) -0.01(2)
C16 0.106(18) 0.100(18) 0.111(18) -0.002(14) -0.005(14) 0.000(14)
C66 0.18(4) 0.23(5) 0.05(3) 0.02(3) 0.01(3) 0.01(3)
C22 0.072(16) 0.082(16) 0.082(16) 0.003(13) -0.001(13) -0.006(13)
C13 0.062(16) 0.073(16) 0.063(15) 0.003(12) 0.004(13) 0.001(12)
C28 0.101(18) 0.122(18) 0.121(18) 0.017(13) 0.006(13) 0.004(13)
C56 0.21(5) 0.14(4) 0.08(3) 0.04(3) 0.04(3) 0.08(4)
C51 0.16(2) 0.16(3) 0.12(2) -0.01(2) -0.04(2) -0.04(2)
C10 0.078(16) 0.097(16) 0.101(16) -0.016(12) 0.007(12) -0.004(12)
C33 0.041(14) 0.056(14) 0.051(14) -0.001(12) -0.002(12) 0.010(12)
C59 0.19(2) 0.19(2) 0.19(2) 0.007(14) -0.008(14) 0.007(14)
C41 0.17(3) 0.13(3) 0.20(3) -0.03(3) 0.02(3) 0.00(3)
C40 0.16(3) 0.15(3) 0.15(3) -0.02(3) -0.01(3) -0.02(3)
C42 0.19(2) 0.19(2) 0.20(2) -0.007(14) -0.013(14) 0.001(14)
C39 0.14(2) 0.144(19) 0.156(19) -0.004(14) -0.009(13) 0.009(14)
C9 0.07(3) 0.12(3) 0.12(3) 0.01(2) 0.02(2) 0.02(2)
C48 0.22(4) 0.28(4) 0.31(4) -0.08(4) -0.05(4) 0.00(4)
C2 0.06(2) 0.09(2) 0.08(3) -0.04(2) 0.02(2) -0.01(2)
C52 0.28(4) 0.25(4) 0.27(4) -0.02(3) 0.01(3) 0.01(3)
C64 0.22(5) 0.11(4) 0.23(5) 0.11(3) -0.03(4) -0.05(3)
C60 0.24(3) 0.22(3) 0.22(3) 0.02(2) 0.00(2) 0.02(2)
C37 0.036(18) 0.09(2) 0.078(19) -0.007(17) -0.018(16) -0.012(16)
C65 0.09(2) 0.18(3) 0.13(2) 0.01(2) -0.02(2) 0.00(2)
C1 0.09(3) 0.15(3) 0.10(3) -0.06(3) 0.01(2) -0.05(3)
C61 0.14(4) 0.21(4) 0.18(4) 0.08(3) -0.12(3) -0.01(3)
C12 0.110(18) 0.103(18) 0.110(18) 0.003(13) -0.010(14) -0.005(14)
C31 0.044(14) 0.059(14) 0.057(14) 0.003(11) 0.000(12) 0.003(12)
C17 0.101(12) 0.102(12) 0.100(12) 0.000(3) 0.000(3) 0.000(3)
C30 0.053(15) 0.059(15) 0.062(15) -0.009(12) -0.004(12) 0.002(12)
C15 0.091(17) 0.088(17) 0.070(17) 0.006(12) 0.004(13) 0.002(13)
C38 0.020(15) 0.12(2) 0.08(2) -0.004(18) -0.006(13) 0.006(17)
N1 0.12(2) 0.10(2) 0.12(2) -0.02(2) 0.02(2) -0.01(2)
C14 0.10(3) 0.08(3) 0.12(4) 0.03(2) -0.01(3) 0.00(3)
N2 0.099(14) 0.102(15) 0.105(14) -0.004(12) 0.000(11) 0.005(12)
C23 0.14(2) 0.15(2) 0.15(2) -0.013(14) -0.022(14) -0.005(14)
C57 0.16(2) 0.17(2) 0.17(2) 0.001(14) -0.002(14) -0.006(14)
C6 0.09(2) 0.06(2) 0.09(2) -0.046(19) -0.01(2) 0.02(2)
C68 0.21(3) 0.11(2) 0.19(3) -0.01(2) 0.03(2) 0.01(2)
O5 0.11(2) 0.13(2) 0.098(18) 0.015(18) -0.014(19) -0.01(2)
C43 0.18(3) 0.22(3) 0.21(3) -0.03(3) -0.06(3) 0.02(3)
C46 0.28(4) 0.27(4) 0.27(4) 0.01(3) -0.01(3) 0.02(3)
C45 0.31(4) 0.27(4) 0.29(4) -0.01(3) -0.02(3) -0.02(3)
C47 0.30(4) 0.32(4) 0.30(4) -0.01(3) 0.02(3) 0.00(3)
C25 0.13(2) 0.14(2) 0.15(2) 0.015(14) 0.005(14) 0.008(14)
N3 0.037(11) 0.056(12) 0.023(10) 0.018(10) -0.003(9) -0.001(10)
C49 0.19(2) 0.19(2) 0.18(2) 0.003(14) -0.003(14) -0.007(14)
C63 0.121(19) 0.124(19) 0.13(2) 0.001(14) -0.001(14) 0.004(14)
N4 0.070(14) 0.078(14) 0.069(13) -0.004(11) -0.001(11) -0.030(12)
C3 0.08(2) 0.09(3) 0.016(19) 0.01(2) -0.016(18) -0.02(2)
C24 0.14(2) 0.14(2) 0.135(19) 0.005(14) -0.006(14) 0.013(14)
C55 0.11(4) 0.16(5) 0.10(4) 0.09(3) 0.00(3) -0.01(3)
C29 0.14(2) 0.14(2) 0.14(2) -0.016(14) 0.001(14) 0.000(14)
C50 0.23(3) 0.24(3) 0.21(3) 0.00(3) 0.00(2) 0.00(3)
C34 0.045(14) 0.047(14) 0.024(13) -0.001(11) 0.001(12) 0.006(12)
C4 0.09(3) 0.13(3) 0.06(2) 0.01(2) 0.00(2) 0.00(2)
C5 0.066(15) 0.066(15) 0.073(15) 0.004(12) -0.013(12) 0.010(12)
C35 0.044(13) 0.055(15) 0.059(14) 0.009(12) 0.007(11) 0.007(12)
C26 0.23(5) 0.10(3) 0.04(2) 0.00(2) 0.04(3) 0.03(3)
C44 0.13(3) 0.19(4) 0.19(3) -0.04(3) -0.02(3) 0.03(3)
C62 0.24(3) 0.24(3) 0.24(3) 0.01(2) 0.01(3) 0.01(3)
C67 0.17(2) 0.16(3) 0.15(2) 0.002(15) 0.000(15) -0.001(15)
loop_
_atom_type_symbol
_atom_type_description
_atom_type_scat_dispersion_real
_atom_type_scat_dispersion_imag
_atom_type_scat_source
C C 0.0181 0.0091 'International Tables Vol C Tables 4.2.6.8 and 6.1.1.4'
H H 0.0000 0.0000 'International Tables Vol C Tables 4.2.6.8 and 6.1.1.4'
N N 0.0311 0.0180 'International Tables Vol C Tables 4.2.6.8 and 6.1.1.4'
O O 0.0492 0.0322 'International Tables Vol C Tables 4.2.6.8 and 6.1.1.4'
Co Co -2.3653 3.6143 'International Tables Vol C Tables 4.2.6.8 and 6.1.1.4'
loop_
_geom_angle_atom_site_label_1
_geom_angle_atom_site_label_2
_geom_angle_atom_site_label_3
_geom_angle
_geom_angle_site_symmetry_1
_geom_angle_site_symmetry_3
O3 Co01 O1 82.4(7) . .
O3 Co01 O4 82.1(9) . .
O3 Co01 N2 96.7(9) . 13_554
O3 Co01 N3 168.0(9) . .
O4 Co01 O1 92.7(9) . .
O4 Co01 N2 89.7(10) . 13_554
O4 Co01 N3 89.1(9) . .
O6 Co01 O1 86.1(8) . .
O6 Co01 O3 92.6(8) . .
O6 Co01 O4 174.7(8) . .
O6 Co01 N2 91.4(10) . 13_554
O6 Co01 N3 96.1(9) . .
N2 Co01 O1 177.3(9) 13_554 .
N3 Co01 O1 90.0(7) . .
N3 Co01 N2 91.3(7) . 13_554
O1 Co02 N4 96.7(7) . 13_454
O3 Co02 O1 82.4(7) . .
O3 Co02 N4 175.1(9) . 13_454
O2 Co02 O1 81.9(7) . .
O2 Co02 O3 95.6(8) . .
O2 Co02 N1 90.6(10) . .
O2 Co02 O5 173.0(9) . .
O2 Co02 N4 89.0(9) . 13_454
N1 Co02 O1 170.8(9) . .
N1 Co02 O3 93.1(8) . .
N1 Co02 N4 88.4(7) . 13_454
O5 Co02 O1 91.5(8) . .
O5 Co02 O3 85.8(9) . .
O5 Co02 N1 96.2(11) . .
O5 Co02 N4 89.4(10) . 13_454
Co02 O1 Co01 92.0(6) . .
C39 O1 Co01 117.4(14) . .
C39 O1 Co02 108.9(12) . .
Co01 O3 Co02 97.1(10) . .
C53 O3 Co01 111.2(13) . .
C53 O3 Co02 117.2(16) . .
C40 O2 Co02 115.0(12) . .
C54 O4 Co01 111.5(14) . .
C21 C20 H20 120.3 . .
N3 C20 H20 120.3 . .
N3 C20 C21 119.4(10) . .
C67 O6 Co01 131(2) . .
O4 C54 C53 114.7(15) . .
O4 C54 C55 124.0(14) . .
C55 C54 C53 121.2(15) . .
H18A C18 H18B 109.5 . .
H18A C18 H18C 109.5 . .
H18B C18 H18C 109.5 . .
C16 C18 H18A 109.5 . .
C16 C18 H18B 109.5 . .
C16 C18 H18C 109.5 . .
C16 C11 C3 129(2) . .
C12 C11 C16 119.5(10) . .
C12 C11 C3 111(2) . .
H36A C36 H36B 109.5 . .
H36A C36 H36C 109.5 . .
H36B C36 H36C 109.5 . .
C31 C36 H36A 109.5 . .
C31 C36 H36B 109.5 . .
C31 C36 H36C 109.5 . .
C33 C32 C27 113.3(19) . .
C31 C32 C27 126.6(19) . .
C31 C32 C33 120.1(10) . .
O3 C53 C54 119.2(14) . .
O3 C53 C58 122.9(14) . .
C58 C53 C54 117.8(15) . .
C28 C27 C32 116.4(15) . .
C26 C27 C32 120.0(13) . .
C26 C27 C28 121.7(10) . .
C53 C58 H58 119.8 . .
C57 C58 C53 120.5(18) . .
C57 C58 H58 119.8 . .
C20 C21 H21 120.3 . .
C20 C21 C22 119.3(10) . .
C22 C21 H21 120.3 . .
C8 C7 H7 120.4 . .
C8 C7 C6 119.1(10) . .
C6 C7 H7 120.4 . .
C7 C8 C13 120.9(19) . .
C7 C8 C9 121.2(10) . .
C9 C8 C13 117.8(18) . .
H19A C19 H19B 109.5 . .
H19A C19 H19C 109.5 . .
H19B C19 H19C 109.5 . .
C14 C19 H19A 109.5 . .
C14 C19 H19B 109.5 . .
C14 C19 H19C 109.5 . .
C18 C16 C11 119(3) . .
C18 C16 C15 120(3) . .
C15 C16 C11 120.2(10) . .
H66A C66 H66B 109.5 . .
H66A C66 H66C 109.5 . .
H66B C66 H66C 109.5 . .
C63 C66 H66A 109.5 . .
C63 C66 H66B 109.5 . .
C63 C66 H66C 109.5 . .
C30 C22 C21 121.2(13) . .
C30 C22 C23 117.9(13) . .
C23 C22 C21 120.9(10) . .
C12 C13 C8 121(2) . .
C12 C13 C14 120.4(10) . .
C14 C13 C8 118(2) . .
C27 C28 H28 120.3 . .
C27 C28 C29 119.3(10) . .
C29 C28 H28 120.3 . .
C57 C56 H56 120.0 . .
C57 C56 C55 120.0(18) . .
C55 C56 H56 120.0 . .
H51A C51 H51B 109.5 . .
H51A C51 H51C 109.5 . .
H51B C51 H51C 109.5 . .
C49 C51 H51A 109.5 . .
C49 C51 H51B 109.5 . .
C49 C51 H51C 109.5 . .
C9 C10 H10 120.3 . .
N2 C10 H10 120.3 . .
N2 C10 C9 119.4(10) . .
C32 C33 C37 123(2) . .
C34 C33 C32 119.3(10) . .
C34 C33 C37 117.5(19) . .
C60 C59 C61 106.3(12) . .
C60 C59 C62 109.4(13) . .
C57 C59 C60 114(2) . .
C57 C59 C61 107(2) . .
C57 C59 C62 115(2) . .
C62 C59 C61 105(3) . .
C40 C41 C42 122.5(13) . .
C40 C41 C49 120.5(11) . .
C42 C41 C49 117.0(11) . .
O2 C40 C41 125.1(13) . .
O2 C40 C39 115.9(15) . .
C41 C40 C39 118.7(15) . .
C41 C42 H42 119.7 . .
C41 C42 C43 120.6(13) . .
C43 C42 H42 119.7 . .
O1 C39 C40 117.9(16) . .
O1 C39 C44 123.6(16) . .
C44 C39 C40 118.3(16) . .
C8 C9 C10 119.3(10) . .
C8 C9 H9 120.4 . .
C10 C9 H9 120.4 . .
C43 C48 C46 126(5) . .
C43 C48 C45 98(3) . .
C43 C48 C47 101(3) . .
C46 C48 C45 111(4) . .
C46 C48 C47 105(2) . .
C45 C48 C47 115(5) . .
C1 C2 H2 120.2 . .
C3 C2 H2 120.2 . .
C3 C2 C1 119.5(10) . .
H52A C52 H52B 109.5 . .
H52A C52 H52C 109.5 . .
H52B C52 H52C 109.5 . .
C49 C52 H52A 109.5 . .
C49 C52 H52B 109.5 . .
C49 C52 H52C 109.5 . .
H64A C64 H64B 109.5 . .
H64A C64 H64C 109.5 . .
H64B C64 H64C 109.5 . .
C63 C64 H64A 109.5 . .
C63 C64 H64B 109.5 . .
C63 C64 H64C 109.5 . .
C59 C60 H60A 109.5 . .
C59 C60 H60B 109.5 . .
C59 C60 H60C 109.5 . .
H60A C60 H60B 109.5 . .
H60A C60 H60C 109.5 . .
H60B C60 H60C 109.5 . .
C33 C37 H37A 109.5 . .
C33 C37 H37B 109.5 . .
C33 C37 H37C 109.5 . .
H37A C37 H37B 109.5 . .
H37A C37 H37C 109.5 . .
H37B C37 H37C 109.5 . .
H65A C65 H65B 109.5 . .
H65A C65 H65C 109.5 . .
H65B C65 H65C 109.5 . .
C63 C65 H65A 109.5 . .
C63 C65 H65B 109.5 . .
C63 C65 H65C 109.5 . .
C2 C1 H1 120.4 . .
N1 C1 C2 119.2(13) . .
N1 C1 H1 120.4 . .
C59 C61 H61A 109.5 . .
C59 C61 H61B 109.5 . .
C59 C61 H61C 109.5 . .
H61A C61 H61B 109.5 . .
H61A C61 H61C 109.5 . .
H61B C61 H61C 109.5 . .
C11 C12 C17 121(2) . .
C13 C12 C11 120.0(10) . .
C13 C12 C17 119(3) . .
C32 C31 C36 113(2) . .
C32 C31 C30 120.5(10) . .
C30 C31 C36 126(2) . .
C12 C17 H17A 109.5 . .
C12 C17 H17B 109.5 . .
C12 C17 H17C 109.5 . .
H17A C17 H17B 109.5 . .
H17A C17 H17C 109.5 . .
H17B C17 H17C 109.5 . .
C22 C30 C31 114.3(19) . .
C22 C30 C35 126.2(19) . .
C31 C30 C35 119.5(10) . .
C16 C15 C15 124(2) . 7
C16 C15 C14 120.4(10) . .
C14 C15 C15 116(2) . 7
H38A C38 H38B 109.5 . .
H38A C38 H38C 109.5 . .
H38B C38 H38C 109.5 . .
C35 C38 H38A 109.5 . .
C35 C38 H38B 109.5 . .
C35 C38 H38C 109.5 . .
C1 N1 Co02 121.2(16) . .
C5 N1 Co02 117.1(17) . .
C5 N1 C1 121.2(13) . .
C13 C14 C19 122(2) . .
C15 C14 C19 119(2) . .
C15 C14 C13 118.7(10) . .
C10 N2 Co01 120.9(16) . 13_454
C6 N2 Co01 115.1(16) . 13_454
C6 N2 C10 121.6(10) . .
C22 C23 H23 120.4 . .
C22 C23 C24 119.3(10) . .
C24 C23 H23 120.4 . .
C58 C57 C56 121.2(18) . .
C58 C57 C59 126(3) . .
C56 C57 C59 113(3) . .
C7 C6 H6 120.3 . .
N2 C6 C7 119.4(10) . .
N2 C6 H6 120.3 . .
H68A C68 H68B 109.5 . .
H68A C68 H68C 109.5 . .
H68B C68 H68C 109.5 . .
C67 C68 H68A 109.5 . .
C67 C68 H68B 109.5 . .
C67 C68 H68C 109.5 . .
C67 O5 Co02 133(2) . .
C42 C43 C48 124(3) . .
C44 C43 C42 116.4(14) . .
C44 C43 C48 120(3) . .
C48 C46 H46A 109.5 . .
C48 C46 H46B 109.5 . .
C48 C46 H46C 109.5 . .
H46A C46 H46B 109.5 . .
H46A C46 H46C 109.5 . .
H46B C46 H46C 109.5 . .
C48 C45 H45A 109.5 . .
C48 C45 H45B 109.5 . .
C48 C45 H45C 109.5 . .
H45A C45 H45B 109.5 . .
H45A C45 H45C 109.5 . .
H45B C45 H45C 109.5 . .
C48 C47 H47A 109.5 . .
C48 C47 H47B 109.5 . .
C48 C47 H47C 109.5 . .
H47A C47 H47B 109.5 . .
H47A C47 H47C 109.5 . .
H47B C47 H47C 109.5 . .
N4 C25 H25 120.4 . .
N4 C25 C26 119.3(10) . .
C26 C25 H25 120.4 . .
C20 N3 Co01 119.7(14) . .
C24 N3 Co01 118.7(14) . .
C24 N3 C20 121.3(10) . .
C51 C49 C52 111.1(11) . .
C41 C49 C51 108.8(17) . .
C41 C49 C52 111.1(11) . .
C41 C49 C50 106(2) . .
C50 C49 C51 108.5(12) . .
C50 C49 C52 111.1(11) . .
C64 C63 C66 110(3) . .
C65 C63 C66 107(2) . .
C65 C63 C64 115(3) . .
C55 C63 C66 108.2(18) . .
C55 C63 C64 108(3) . .
C55 C63 C65 108.6(18) . .
C25 N4 Co02 117.8(15) . 13_554
C25 N4 C29 121.9(10) . .
C29 N4 Co02 119.6(15) . 13_554
C2 C3 C11 118.7(15) . .
C2 C3 C4 121.4(11) . .
C4 C3 C11 119.8(15) . .
C23 C24 H24 120.2 . .
N3 C24 C23 119.5(10) . .
N3 C24 H24 120.2 . .
C54 C55 C56 119.4(17) . .
C54 C55 C63 117.5(16) . .
C56 C55 C63 123(2) . .
C28 C29 H29 120.6 . .
N4 C29 C28 118.8(10) . .
N4 C29 H29 120.6 . .
C49 C50 H50A 109.5 . .
C49 C50 H50B 109.5 . .
C49 C50 H50C 109.5 . .
H50A C50 H50B 109.5 . .
H50A C50 H50C 109.5 . .
H50B C50 H50C 109.5 . .
C33 C34 C34 122.8(19) . 15_545
C35 C34 C33 120.8(9) . .
C35 C34 C34 116.4(19) . 15_545
C3 C4 H4 120.3 . .
C3 C4 C5 119.4(10) . .
C5 C4 H4 120.3 . .
N1 C5 C4 119.2(12) . .
N1 C5 H5 120.4 . .
C4 C5 H5 120.4 . .
C38 C35 C30 119(2) . .
C34 C35 C30 119.8(10) . .
C34 C35 C38 121(2) . .
C27 C26 C25 119.0(10) . .
C27 C26 H26 120.5 . .
C25 C26 H26 120.5 . .
C39 C44 H44 118.3 . .
C43 C44 C39 123.5(17) . .
C43 C44 H44 118.3 . .
C59 C62 H62A 109.5 . .
C59 C62 H62B 109.5 . .
C59 C62 H62C 109.5 . .
H62A C62 H62B 109.5 . .
H62A C62 H62C 109.5 . .
H62B C62 H62C 109.5 . .
O6 C67 C68 118(2) . .
O5 C67 O6 122(3) . .
O5 C67 C68 120(3) . .
loop_
_geom_bond_atom_site_label_1
_geom_bond_atom_site_label_2
_geom_bond_distance
_geom_bond_site_symmetry_2
Co01 O1 2.138(15) .
Co01 O3 2.01(2) .
Co01 O4 2.03(2) .
Co01 O6 1.993(19) .
Co01 N2 2.110(18) 13_554
Co01 N3 2.076(15) .
Co02 O1 2.092(16) .
Co02 O3 2.05(2) .
Co02 O2 1.933(16) .
Co02 N1 2.01(2) .
Co02 O5 2.00(2) .
Co02 N4 2.107(18) 13_454
O1 C39 1.346(19) .
O3 C53 1.293(17) .
O2 C40 1.350(18) .
O4 C54 1.333(19) .
C20 H20 0.9500 .
C20 C21 1.422(11) .
C20 N3 1.416(12) .
O6 C67 1.21(2) .
C54 C53 1.458(11) .
C54 C55 1.413(19) .
C18 H18A 0.9800 .
C18 H18B 0.9800 .
C18 H18C 0.9800 .
C18 C16 1.35(3) .
C11 C16 1.420(12) .
C11 C12 1.415(12) .
C11 C3 1.44(2) .
C36 H36A 0.9800 .
C36 H36B 0.9800 .
C36 H36C 0.9800 .
C36 C31 1.47(3) .
C32 C27 1.46(2) .
C32 C33 1.425(11) .
C32 C31 1.415(12) .
C53 C58 1.429(18) .
C27 C28 1.412(11) .
C27 C26 1.410(12) .
C58 H58 0.9500 .
C58 C57 1.41(2) .
C21 H21 0.9500 .
C21 C22 1.422(12) .
C7 H7 0.9500 .
C7 C8 1.417(11) .
C7 C6 1.429(12) .
C8 C13 1.48(2) .
C8 C9 1.418(12) .
C19 H19A 0.9800 .
C19 H19B 0.9800 .
C19 H19C 0.9800 .
C19 C14 1.64(3) .
C16 C15 1.407(12) .
C66 H66A 0.9800 .
C66 H66B 0.9800 .
C66 H66C 0.9800 .
C66 C63 1.64(4) .
C22 C30 1.37(2) .
C22 C23 1.419(11) .
C13 C12 1.409(12) .
C13 C14 1.422(12) .
C28 H28 0.9500 .
C28 C29 1.429(12) .
C56 H56 0.9500 .
C56 C57 1.42(2) .
C56 C55 1.42(2) .
C51 H51A 0.9800 .
C51 H51B 0.9800 .
C51 H51C 0.9800 .
C51 C49 1.519(13) .
C10 H10 0.9500 .
C10 C9 1.421(11) .
C10 N2 1.412(12) .
C33 C37 1.50(3) .
C33 C34 1.418(12) .
C59 C60 1.502(14) .
C59 C61 1.710(13) .
C59 C57 1.449(14) .
C59 C62 1.666(13) .
C41 C40 1.356(15) .
C41 C42 1.395(11) .
C41 C49 1.490(12) .
C40 C39 1.420(11) .
C42 H42 0.9500 .
C42 C43 1.404(12) .
C39 C44 1.40(2) .
C9 H9 0.9500 .
C48 C43 1.470(15) .
C48 C46 1.515(15) .
C48 C45 1.515(15) .
C48 C47 1.52(3) .
C2 H2 0.9500 .
C2 C1 1.425(11) .
C2 C3 1.409(12) .
C52 H52A 0.9800 .
C52 H52B 0.9800 .
C52 H52C 0.9800 .
C52 C49 1.530(9) .
C64 H64A 0.9800 .
C64 H64B 0.9800 .
C64 H64C 0.9800 .
C64 C63 1.514(14) .
C60 H60A 0.9800 .
C60 H60B 0.9800 .
C60 H60C 0.9800 .
C37 H37A 0.9800 .
C37 H37B 0.9800 .
C37 H37C 0.9800 .
C65 H65A 0.9800 .
C65 H65B 0.9800 .
C65 H65C 0.9800 .
C65 C63 1.466(14) .
C1 H1 0.9500 .
C1 N1 1.422(14) .
C61 H61A 0.9800 .
C61 H61B 0.9800 .
C61 H61C 0.9800 .
C12 C17 1.58(3) .
C31 C30 1.422(11) .
C17 H17A 0.9800 .
C17 H17B 0.9800 .
C17 H17C 0.9800 .
C30 C35 1.425(12) .
C15 C15 1.45(4) 7
C15 C14 1.418(12) .
C38 H38A 0.9800 .
C38 H38B 0.9800 .
C38 H38C 0.9800 .
C38 C35 1.42(3) .
N1 C5 1.412(12) .
N2 Co01 2.110(18) 13_454
N2 C6 1.405(11) .
C23 H23 0.9500 .
C23 C24 1.427(12) .
C6 H6 0.9500 .
C68 H68A 0.9800 .
C68 H68B 0.9800 .
C68 H68C 0.9800 .
C68 C67 1.53(2) .
O5 C67 1.20(2) .
C43 C44 1.390(17) .
C46 H46A 0.9800 .
C46 H46B 0.9800 .
C46 H46C 0.9800 .
C45 H45A 0.9800 .
C45 H45B 0.9800 .
C45 H45C 0.9800 .
C47 H47A 0.9800 .
C47 H47B 0.9800 .
C47 H47C 0.9800 .
C25 H25 0.9500 .
C25 N4 1.405(12) .
C25 C26 1.432(11) .
N3 C24 1.411(11) .
C49 C50 1.518(14) .
C63 C55 1.460(14) .
N4 Co02 2.107(18) 13_554
N4 C29 1.415(11) .
C3 C4 1.412(11) .
C24 H24 0.9500 .
C29 H29 0.9500 .
C50 H50A 0.9800 .
C50 H50B 0.9800 .
C50 H50C 0.9800 .
C34 C34 1.48(3) 15_545
C34 C35 1.418(11) .
C4 H4 0.9500 .
C4 C5 1.430(12) .
C5 H5 0.9500 .
C26 H26 0.9500 .
C44 H44 0.9500 .
C62 H62A 0.9800 .
C62 H62B 0.9800 .
C62 H62C 0.9800 .
loop_
_platon_squeeze_void_nr
_platon_squeeze_void_average_x
_platon_squeeze_void_average_y
_platon_squeeze_void_average_z
_platon_squeeze_void_volume
_platon_squeeze_void_count_electrons
_platon_squeeze_void_content
1 0.000 0.000 0.000 7 4 ' '
2 0.259 -0.077 -0.010 30271 8113 ' '
3 0.000 0.000 0.029 17 10 ' '
4 0.000 0.000 0.473 19 11 ' '
5 0.000 0.000 0.506 4 3 ' '
6 0.000 0.000 0.529 17 10 ' '
7 0.000 0.000 0.971 17 10 ' '
8 0.500 0.500 0.027 20 12 ' '
9 0.500 0.500 0.526 20 12 ' '
10 0.500 0.500 0.473 19 11 ' '
11 0.500 0.500 0.973 19 11 ' '
12 0.500 0.500 0.000 2 1 ' '
13 0.500 0.500 0.500 2 1 ' '
