#------------------------------------------------------------------------------
#$Date: 2019-11-03 13:16:31 +0200 (Sun, 03 Nov 2019) $
#$Revision: 221501 $
#$URL: file:///home/coder/svn-repositories/cod/cif/4/12/83/4128380.cif $
#------------------------------------------------------------------------------
#
# This file is available in the Crystallography Open Database (COD),
# http://www.crystallography.net/
#
# All data on this site have been placed in the public domain by the
# contributors.
#
data_4128380
loop_
_publ_author_name
'Dolgopolova, Ekaterina A.'
'Galitskiy, Vladimir A.'
'Martin, Corey R.'
'Gregory, Haley N.'
'Yarbrough, Brandon J.'
'Rice, Allison M.'
'Berseneva, Anna A.'
'Ejegbavwo, Otega A.'
'Stephenson, Kenneth S.'
'Kittikhunnatham, Preecha'
'Karakalos, Stavros G.'
'Smith, Mark D.'
'Greytak, Andrew B.'
'Garashchuk, Sophya'
'Shustova, Natalia B.'
_publ_section_title
;
 Connecting Wires: Photoinduced Electronic Structure Modulation in
 Metal-Organic Frameworks.
;
_journal_issue                   13
_journal_name_full               'Journal of the American Chemical Society'
_journal_page_first              5350
_journal_page_last               5358
_journal_paper_doi               10.1021/jacs.8b13853
_journal_volume                  141
_journal_year                    2019
_chemical_formula_moiety         '0.5(C34 H32 O8 S4)'
_chemical_formula_sum            'C17 H16 O4 S2'
_chemical_formula_weight         348.42
_space_group_crystal_system      monoclinic
_space_group_IT_number           15
_space_group_name_Hall           '-C 2yc'
_space_group_name_H-M_alt        'C 1 2/c 1'
_atom_sites_solution_hydrogens   mixed
_atom_sites_solution_primary     dual
_audit_creation_date             2018-10-29
_audit_creation_method
;
Olex2 1.2
(compiled 2018.05.29 svn.r3508 for OlexSys, GUI svn.r5506)
;
_audit_update_record
;
2019-02-21 deposited with the CCDC.	2019-03-04 downloaded from the CCDC.
;
_cell_angle_alpha                90
_cell_angle_beta                 102.908(6)
_cell_angle_gamma                90
_cell_formula_units_Z            4
_cell_length_a                   12.5003(11)
_cell_length_b                   8.0481(7)
_cell_length_c                   16.3678(17)
_cell_measurement_reflns_used    4964
_cell_measurement_temperature    100(2)
_cell_measurement_theta_max      26.361
_cell_measurement_theta_min      2.554
_cell_volume                     1605.0(3)
_computing_cell_refinement       'SAINT+ Ver. 8.38A (Bruker-AXS, 2016)'
_computing_data_collection       'Bruker APEX3 v2016.5-0 (Bruker, 2016)'
_computing_data_reduction        'SAINT+ Ver. 8.38A (Bruker-AXS, 2016)'
_computing_molecular_graphics    'Olex2 (Dolomanov et al., 2009)'
_computing_publication_material  'Olex2 (Dolomanov et al., 2009)'
_computing_structure_refinement  'XL (Sheldrick, 2008)'
_computing_structure_solution    'XT (Sheldrick, 2015)'
_diffrn_ambient_temperature      100(2)
_diffrn_detector                 'Bruker PHOTON-100 area detector'
_diffrn_detector_area_resol_mean 10.4
_diffrn_detector_type            'CMOS area detector'
_diffrn_measured_fraction_theta_full 0.991
_diffrn_measured_fraction_theta_max 0.991
_diffrn_measurement_device       'three-circle diffractometer'
_diffrn_measurement_device_type  'Bruker D8 QUEST'
_diffrn_measurement_method       '\w and \f scans'
_diffrn_radiation_monochromator  'mirror optics'
_diffrn_radiation_probe          x-ray
_diffrn_radiation_type           MoK\a
_diffrn_radiation_wavelength     0.71073
_diffrn_reflns_av_R_equivalents  0.0613
_diffrn_reflns_av_unetI/netI     0.0374
_diffrn_reflns_Laue_measured_fraction_full 0.991
_diffrn_reflns_Laue_measured_fraction_max 0.991
_diffrn_reflns_limit_h_max       15
_diffrn_reflns_limit_h_min       -15
_diffrn_reflns_limit_k_max       9
_diffrn_reflns_limit_k_min       -10
_diffrn_reflns_limit_l_max       16
_diffrn_reflns_limit_l_min       -20
_diffrn_reflns_number            9563
_diffrn_reflns_point_group_measured_fraction_full 0.991
_diffrn_reflns_point_group_measured_fraction_max 0.991
_diffrn_reflns_theta_full        26.364
_diffrn_reflns_theta_max         26.364
_diffrn_reflns_theta_min         2.553
_diffrn_source                   'microfocus sealed X-ray tube'
_diffrn_source_type              'Incoatec I\ms'
_diffrn_standards_number         0
_exptl_absorpt_coefficient_mu    0.349
_exptl_absorpt_correction_T_max  0.7454
_exptl_absorpt_correction_T_min  0.6550
_exptl_absorpt_correction_type   multi-scan
_exptl_absorpt_process_details
;
SADABS-2016/2 (Bruker,2016/2) was used for absorption correction.
wR2(int) was 0.1393 before and 0.0615 after correction.
The Ratio of minimum to maximum transmission is 0.8787.
The \l/2 correction factor is Not present.
;
_exptl_crystal_colour            colourless
_exptl_crystal_colour_primary    colourless
_exptl_crystal_density_diffrn    1.442
_exptl_crystal_description       plate
_exptl_crystal_F_000             728
_exptl_crystal_size_max          0.58
_exptl_crystal_size_mid          0.24
_exptl_crystal_size_min          0.03
_refine_diff_density_max         0.706
_refine_diff_density_min         -0.360
_refine_diff_density_rms         0.075
_refine_ls_extinction_method     none
_refine_ls_goodness_of_fit_ref   1.076
_refine_ls_hydrogen_treatment    constr
_refine_ls_matrix_type           full
_refine_ls_number_parameters     106
_refine_ls_number_reflns         1625
_refine_ls_number_restraints     0
_refine_ls_restrained_S_all      1.076
_refine_ls_R_factor_all          0.0715
_refine_ls_R_factor_gt           0.0506
_refine_ls_shift/su_max          0.000
_refine_ls_shift/su_mean         0.000
_refine_ls_structure_factor_coef Fsqd
_refine_ls_weighting_details
'w=1/[\s^2^(Fo^2^)+(0.0528P)^2^+4.4952P] where P=(Fo^2^+2Fc^2^)/3'
_refine_ls_weighting_scheme      calc
_refine_ls_wR_factor_gt          0.1218
_refine_ls_wR_factor_ref         0.1335
_reflns_Friedel_coverage         0.000
_reflns_number_gt                1260
_reflns_number_total             1625
_reflns_threshold_expression     'I > 2\s(I)'
_cod_data_source_file            ja8b13853_si_004.cif
_cod_data_source_block           aab45
_cod_depositor_comments
;
The following automatic conversions were performed:

data item '_diffrn_radiation_probe' value 'X-ray' was changed to
'x-ray' in accordance with the
/home/data/users/saulius/crontab/automatic-downloads/current/ACS/lib/dictionaries/cif_core.dic
dictionary named 'cif_core.dic' version 2.4.2 last updated on
2011-04-26.

Automatic conversion script
Id: cif_fix_values 6909 2019-04-08 15:41:33Z antanas 
;
_cod_database_code               4128380
_shelx_shelxl_version_number     2018/3
_shelx_space_group_comment
;
The symmetry employed for this shelxl refinement is uniquely defined
by the following loop, which should always be used as a source of
symmetry information in preference to the above space-group names.
They are only intended as comments.
;
_shelx_estimated_absorpt_t_max   0.990
_shelx_estimated_absorpt_t_min   0.823
_olex2_refinement_description
;
1. Fixed Uiso
 At 1.2 times of:
  All C(H) groups, All C(H,H) groups
 At 1.5 times of:
  All C(H,H,H) groups, All O(H) groups
2. Others
 Fixed Sof: H1(0.5) H2(0.5) H1A(0.5) H1B(0.5)
3.a Riding coordinates:
 O1(H1), O2(H2)
3.b Secondary CH2 refined with riding coordinates:
 C1(H1A,H1B), C2(H2A,H2B)
3.c Aromatic/amide H refined with riding coordinates:
 C5(H5)
3.d Idealised Me refined as rotating group:
 C8(H8A,H8B,H8C)
;
_shelx_res_file
;
TITL aab45_a.res in C2/c
    aab45.res
    created by SHELXL-2018/3 at 15:57:21 on 29-Oct-2018
REM Old TITL AAB45 in C2/c
REM SHELXT solution in C2/c
REM R1 0.145, Rweak 0.007, Alpha 0.028, Orientation as input
REM Formula found by SHELXT: C17 O4 S2
REM colorless plate
CELL 0.71073 12.5003 8.0481 16.3678 90 102.908 90
ZERR 4 0.0011 0.0007 0.0017 0 0.006 0
LATT 7
SYMM -X,+Y,0.5-Z
SFAC C H O S
UNIT 68 64 16 8
EQIV $1 -X,-Y,-Z

L.S. 7
PLAN  9
SIZE 0.03 0.24 0.58
TEMP -173.15
HTAB O1 O2_$1
HTAB O2 O1_$1
BOND $H
CONF
list 4
fmap 2 53
ACTA 52.73
REM <olex2.extras>
REM <HklSrc "%.\\AAB45.hkl">
REM </olex2.extras>

WGHT    0.052800    4.495200
FVAR       0.33941
S1    4    0.366885    0.000513    0.082970    11.00000    0.04251    0.02120 =
         0.03220   -0.00341    0.00227    0.00353
O1    3    0.129978   -0.075389    0.021735    11.00000    0.04694    0.02734 =
         0.04953   -0.00725   -0.00410   -0.00510
AFIX   3  0.9000
H1    2    0.058298   -0.096959    0.001525    10.50000   -1.50000
AFIX   0
O2    3    0.068197    0.173184    0.052073    11.00000    0.03664    0.03226 =
         0.04982   -0.00516   -0.00248   -0.00005
AFIX   3  0.9000
H2    2    0.000897    0.143134    0.023403    10.50000   -1.50000
AFIX   0
C1    1    0.500000    0.698772    0.250000    10.50000    0.05077    0.02203 =
         0.04382    0.00000   -0.00511    0.00000
AFIX  23
H1A   2    0.465177    0.770686    0.285725    10.50000   -1.20000
H1B   2    0.534822    0.770685    0.214274    10.50000   -1.20000
AFIX   0
C2    1    0.414692    0.587983    0.195938    11.00000    0.03512    0.02229 =
         0.04318   -0.00077    0.00019    0.00233
AFIX  23
H2A   2    0.341816    0.604578    0.208975    11.00000   -1.20000
H2B   2    0.408973    0.611030    0.135701    11.00000   -1.20000
AFIX   0
C3    1    0.456069    0.413701    0.217962    11.00000    0.02767    0.01737 =
         0.03107    0.00057    0.00863    0.00169
C4    1    0.403114    0.270877    0.168595    11.00000    0.03405    0.01804 =
         0.02883    0.00087    0.00468    0.00118
C5    1    0.287607    0.259091    0.138873    11.00000    0.03086    0.01865 =
         0.03256    0.00077    0.00222    0.00413
AFIX  43
H5    2    0.237557    0.340420    0.149863    11.00000   -1.20000
AFIX   0
C6    1    0.255879    0.118923    0.092893    11.00000    0.03886    0.02134 =
         0.02989    0.00220    0.00130   -0.00030
C7    1    0.457442    0.140574    0.140993    11.00000    0.03830    0.02226 =
         0.02396    0.00060    0.00532    0.00354
C8    1    0.577962    0.111773    0.151242    11.00000    0.03803    0.02687 =
         0.03497   -0.00042    0.01019    0.00702
AFIX 137
H8A   2    0.606074    0.049701    0.203105    11.00000   -1.50000
H8B   2    0.615865    0.218898    0.153931    11.00000   -1.50000
H8C   2    0.590887    0.047856    0.103401    11.00000   -1.50000
AFIX   0
C9    1    0.144104    0.066821    0.052986    11.00000    0.03776    0.02450 =
         0.03176    0.00024   -0.00170   -0.00049
HKLF 4




REM  aab45_a.res in C2/c
REM wR2 = 0.1335, GooF = S = 1.076, Restrained GooF = 1.076 for all data
REM R1 = 0.0506 for 1260 Fo > 4sig(Fo) and 0.0715 for all 1625 data
REM 106 parameters refined using 0 restraints

END

WGHT      0.0528      4.4951

REM Highest difference peak  0.706,  deepest hole -0.360,  1-sigma level  0.075
Q1    1   0.7157  0.0021  0.2817  11.00000  0.05    0.71
Q2    1   0.1686  0.1985  0.0954  11.00000  0.05    0.36
Q3    1   0.3563  0.6033  0.1418  11.00000  0.05    0.36
Q4    1   0.5000  0.8058  0.2500  10.50000  0.05    0.36
Q5    1   0.4345  0.4969  0.2075  11.00000  0.05    0.26
Q6    1   0.2995  0.0567  0.0817  11.00000  0.05    0.25
Q7    1   0.3753 -0.1024  0.0389  11.00000  0.05    0.24
Q8    1   0.3508  0.2827  0.1597  11.00000  0.05    0.23
Q9    1   0.4790  0.4079  0.2598  11.00000  0.05    0.23
;
_shelx_res_checksum              51088
_shelx_hkl_file
;
   2   0   0  902.71   34.50
   2   0   0  878.91   34.00
  -2   0   0  948.21   34.10
  -2   0   0  920.41   34.50
  -2   0   0  882.61   33.90
  -4   0   0 2216.28   78.99
  -4   0   0 2070.09   79.59
   4   0   0 2027.70   78.69
   4   0   0 2081.49   79.59
   6   0   0  630.74   26.20
   6   0   0  615.64   24.80
  -6   0   0  629.34   26.20
  -6   0   0  681.23   25.40
   8   0   0  161.58    7.80
  -8   0   0  164.08    9.90
  -8   0   0  167.78    8.40
   8   0   0  161.48    9.60
  10   0   0  116.99    7.00
 -10   0   0  102.49   10.10
  10   0   0  129.19   10.10
 -10   0   0  128.89    7.80
  12   0   0   50.59    6.30
  12   0   0   59.29   11.00
 -12   0   0   44.50   11.00
  12   0   0   56.29    6.00
 -12   0   0   46.30    6.20
 -14   0   0   74.19    7.90
  14   0   0   70.89   15.60
  14   0   0   52.39    7.70
  14   0   0   50.29    6.50
 -14   0   0   40.50   16.90
  -1  -1   0  123.39    4.80
   1  -1   0  113.19    4.90
   1  -1   0  121.29    4.60
  -1  -1   0  125.19    4.90
   1   1   0  116.39    4.70
  -1   1   0  112.89    5.10
  -1   1   0  115.39    5.10
  -1   1   0  119.39    4.60
  -3  -1   0  129.79    5.60
   3  -1   0  120.19    6.00
   3  -1   0  117.99    5.40
   3  -1   0  131.49    5.30
   3   1   0  121.49    5.10
  -3   1   0  120.09    5.50
   3   1   0  120.29    5.80
  -3   1   0  131.29    5.20
  -3   1   0  122.29    6.30
   3   1   0  118.49    5.70
  -5  -1   0    3.00    1.90
   5  -1   0    3.00    1.30
  -5  -1   0    1.30    1.80
   5  -1   0   -1.50    2.50
   5  -1   0    0.90    1.50
   5   1   0   -0.20    2.30
   5   1   0    1.20    1.10
  -5   1   0    4.00    1.70
  -5   1   0    2.50    1.20
   5   1   0   -1.10    2.10
  -5   1   0   -1.90    2.20
   7  -1   0   67.29    4.50
   7  -1   0   67.09    6.10
   7  -1   0   65.39    4.20
  -7  -1   0   71.49    5.00
   7   1   0   66.99    5.90
   7   1   0   66.09    3.90
  -7   1   0   67.19    3.90
  -7   1   0   69.39    6.40
  -7   1   0   66.69    4.30
  -9  -1   0   35.60    6.50
   9  -1   0   39.90    7.00
   9  -1   0   38.70    4.00
  -9  -1   0   43.40    4.80
   9   1   0   50.99    6.50
  -9   1   0   44.60    7.80
  -9   1   0   36.00    4.40
   9   1   0   47.30    4.10
  11  -1   0   47.80    5.10
 -11  -1   0   41.40    8.10
 -11  -1   0   40.70    5.80
  11  -1   0   34.20    7.80
  11  -1   0   40.30    5.70
  11   1   0   51.99    9.30
 -11   1   0   61.19    9.40
 -11   1   0   46.50    5.50
 -11   1   0   48.10    3.60
  11   1   0   48.40    5.50
  13  -1   0   -8.10    9.70
 -13  -1   0   -4.40    4.50
 -13  -1   0    0.80   11.70
  13  -1   0    2.80    6.10
  13  -1   0   -0.70    3.90
 -13   1   0   -3.30   12.70
  13   1   0    5.00    9.60
 -13   1   0    1.10    5.20
  13   1   0    8.60    5.60
 -15  -1   0   10.20    5.50
  15  -1   0   -3.40    5.40
  15  -1   0   -2.80    9.30
  15   1   0    3.80    8.30
 -15   1   0   19.50    6.10
  15   1   0   15.00    5.90
   0  -2   0  744.73   28.10
   2  -2   0   32.00    1.70
  -2  -2   0   30.10    2.10
  -2  -2   0   29.80    2.20
   2  -2   0   29.00    2.10
  -2   2   0   28.90    1.60
  -2   2   0   29.20    2.60
   2   2   0   28.70    1.80
  -2   2   0   29.60    3.00
   4  -2   0 1719.53   67.59
  -4  -2   0 1822.12   67.89
   4  -2   0 1680.53   68.29
   4  -2   0 1951.20   67.29
   4   2   0 1748.03   67.19
  -4   2   0 1846.52   67.09
  -4   2   0 1755.12   68.59
   6  -2   0  175.98    7.30
   6  -2   0  158.18    8.80
   6  -2   0  156.48    7.70
  -6  -2   0  155.28    7.80
   6   2   0  151.78    8.50
  -6   2   0  146.79    9.00
   6   2   0  163.38    8.30
   6   2   0  160.88    6.90
  -6   2   0  150.78    7.50
  -6   2   0  161.08    7.30
   8  -2   0  391.06   17.80
   8  -2   0  358.76   15.90
   8  -2   0  387.76   15.80
  -8  -2   0  369.76   16.50
   8   2   0  388.06   16.90
  -8   2   0  384.56   18.10
   8   2   0  374.76   15.40
  -8   2   0  358.66   15.60
  -8   2   0  363.36   15.70
  10  -2   0  163.88    8.60
 -10  -2   0  154.28    9.30
  10  -2   0  156.78   12.00
  10  -2   0  171.68    9.40
 -10   2   0  156.28    8.90
  10   2   0  165.38    8.40
 -10   2   0  161.18    8.00
 -10   2   0  173.98   12.30
  10   2   0  169.28   11.00
  12  -2   0   84.19    8.10
  12  -2   0   83.99   11.40
 -12  -2   0   71.39    7.00
  12  -2   0   69.59    6.20
 -12   2   0   72.89    6.60
 -12   2   0   67.79    5.20
  12   2   0   74.29    7.00
  12   2   0   74.89   12.00
 -12   2   0   73.69   13.00
 -14  -2   0   13.70    5.00
  14  -2   0    7.20    4.10
  14  -2   0    6.20    8.80
  14  -2   0    0.70   15.50
  14   2   0   10.80   13.40
  14   2   0    9.70    6.60
 -14   2   0  -13.40   15.20
 -14   2   0   11.30    5.80
 -14   2   0   10.60    3.60
   1  -3   0  818.32   30.50
  -1  -3   0  819.22   30.90
  -1  -3   0  827.42   30.80
   1  -3   0  756.82   31.00
   3  -3   0  300.67   12.60
  -3  -3   0  303.67   12.60
  -3  -3   0  313.47   12.50
  -3   3   0  282.27   12.90
  -3   3   0  304.17   11.70
  -3   3   0  302.57   13.30
   3   3   0  290.47   12.00
   5  -3   0  181.48    8.70
  -5  -3   0  184.98    8.80
   5  -3   0  187.68    7.80
   5  -3   0  178.88    9.50
  -5   3   0  178.58    9.80
   5   3   0  189.18    7.90
  -5   3   0  185.58    7.90
  -7  -3   0   82.69    5.70
   7  -3   0   92.99    4.70
   7  -3   0   79.29    7.60
   7  -3   0   84.19    5.70
   7   3   0   78.59    4.50
  -7   3   0   90.29    7.50
  -7   3   0   82.99    5.50
  -7   3   0   91.29    5.00
   9  -3   0   16.90    3.30
  -9  -3   0   13.90    3.80
   9  -3   0   18.40    4.20
   9  -3   0   22.70    6.00
   9   3   0   13.90    2.90
  -9   3   0   16.80    3.40
  -9   3   0   10.60    5.80
  -9   3   0   15.90    3.60
  11  -3   0   17.70    8.80
 -11  -3   0   19.70    4.60
  11  -3   0   26.30    4.30
  11  -3   0   21.30    5.20
 -11   3   0   26.60    9.20
 -11   3   0   21.20    4.20
  11   3   0   20.40    6.70
 -11   3   0   20.60    3.90
  11   3   0   20.70    4.30
 -13  -3   0   -4.80    4.40
  13  -3   0    5.40    4.20
  13  -3   0   21.40   14.90
  13  -3   0    0.30    7.20
 -13   3   0    4.90    5.00
  13   3   0    6.50   10.90
  13   3   0    9.30    5.70
 -13   3   0   43.60   14.90
   0  -4   0    4.20    1.70
   2  -4   0  208.88    9.60
  -2  -4   0  213.28    9.50
   2  -4   0  227.18    8.90
  -2  -4   0  219.98    9.40
  -2   4   0  209.68    8.70
  -4  -4   0  517.35   20.60
  -4  -4   0  506.65   20.40
   4  -4   0  487.25   20.40
   4   4   0  502.25   19.80
  -4   4   0  506.35   19.30
  -4   4   0  503.95   21.30
  -4   4   0  475.15   21.10
   6  -4   0  201.08    8.40
   6  -4   0  190.78   10.70
  -6  -4   0  188.48    9.60
   6  -4   0  196.88    9.60
  -6   4   0  191.48   11.10
   6   4   0  189.88    8.50
  -6   4   0  203.08    8.70
   8  -4   0  214.88   10.90
  -8  -4   0  208.78   10.90
   8  -4   0  225.68    9.60
   8  -4   0  199.58   13.00
  -8   4   0  211.48    9.90
   8   4   0  212.48    9.50
  -8   4   0  226.18   11.00
  -8   4   0  221.38   13.50
  10  -4   0   38.00    4.20
  10  -4   0   34.20    5.50
  10  -4   0   42.50   10.50
 -10  -4   0   35.90    5.40
 -10   4   0   32.50    5.10
 -10   4   0   35.50    5.70
  10   4   0   31.80    4.50
 -10   4   0   38.00    7.70
 -12  -4   0   61.89    6.80
  12  -4   0   74.49    9.30
  12  -4   0   59.29    5.70
  12  -4   0   56.99   12.60
  12   4   0   66.99    6.60
 -12   4   0   63.79    7.00
 -12   4   0   86.19   12.30
 -12   4   0   67.99    7.20
  -1  -5   0  178.68    8.50
   1  -5   0  198.58    8.30
  -3  -5   0  515.55   20.50
   3  -5   0  517.45   20.80
  -3  -5   0  519.25   20.60
   3   5   0  501.15   20.20
  -3   5   0  473.25   21.10
  -3   5   0  479.35   21.10
  -5  -5   0   93.69    6.20
   5  -5   0  104.09    6.30
  -5   5   0  101.59    8.00
  -5   5   0   95.29    7.80
   5   5   0   95.29    5.30
   7  -5   0  411.06   17.80
  -7  -5   0  378.36   17.70
   7   5   0  393.56   16.30
  -7   5   0  394.76   19.30
  -7   5   0  395.26   16.20
  -7   5   0  397.76   18.10
  -9  -5   0    5.70    4.00
   9  -5   0   12.30    4.80
   9   5   0   11.80    3.10
  -9   5   0   11.10    4.20
  -9   5   0   12.10    7.10
  -9   5   0    7.90    3.70
 -11  -5   0  144.89    9.60
  11  -5   0  152.98    8.20
  11  -5   0  135.79   10.60
 -11   5   0  132.59   15.30
  11   5   0  144.69    8.70
 -11   5   0  169.68   10.20
 -11   5   0  148.39    9.00
  13  -5   0    3.30    9.90
 -13  -5   0   10.50    5.30
  13  -5   0   18.20    5.10
  13   5   0   13.50    6.80
 -13   5   0   21.20    6.80
 -13   5   0   15.80    6.20
   0  -6   0   11.90    2.90
   2  -6   0    6.00    2.30
  -2  -6   0    6.00    2.80
  -4  -6   0   33.20    4.00
  -4  -6   0   25.20    3.60
   4  -6   0   28.50    4.50
   4   6   0   23.20    3.50
   6  -6   0   40.30    5.70
  -6  -6   0   41.30    5.00
  -6   6   0   46.50    7.40
  -6   6   0   49.80    9.10
   6   6   0   45.50    4.20
   8  -6   0   49.20    6.70
  -8  -6   0   36.80    5.40
  -8   6   0   46.20    7.90
  -8   6   0   37.20    6.30
   8   6   0   37.50    4.50
 -10  -6   0   25.60    5.70
  10  -6   0   26.80    4.10
  10  -6   0   38.30    7.20
 -10   6   0   36.20    6.80
  10   6   0   27.50    4.60
 -10   6   0   25.20    4.90
 -10   6   0   25.20   10.90
  12  -6   0    8.20    4.90
 -12  -6   0    7.30    5.20
 -12   6   0   18.50    5.70
 -12   6   0   18.90    7.60
  12   6   0    9.00    6.30
  -1  -7   0  785.72   31.70
   1  -7   0  814.12   31.40
  -3  -7   0  230.48   10.90
   3   7   0  217.08   10.70
  -5  -7   0   87.99    6.20
   5  -7   0   86.49    7.40
   5   7   0   80.49    6.10
  -7  -7   0  105.29    7.50
   7  -7   0  104.09    8.70
   7   7   0   98.59    6.50
  -7   7   0  114.89   11.80
  -7   7   0   94.09   10.40
  -7   7   0   95.59   12.70
  -9  -7   0   18.40    5.40
   9  -7   0   18.90    7.30
  -9   7   0   19.50    7.20
   9   7   0   16.60    4.70
  -9   7   0   26.90   11.90
   0  -8   0  178.18    9.00
  -2  -8   0   44.60    5.20
   2  -8   0   38.60    5.30
   2   8   0   40.00    5.40
   4   8   0   19.50    4.40
   6  -8   0   11.40    6.70
   6   8   0   18.20    4.80
  -8  -8   0   33.10    5.70
   8  -8   0   24.70    9.20
  -8   8   0   41.10   13.30
  -8   8   0   19.40   11.50
  -8   8   0   37.10    9.80
   8   8   0   35.60    5.60
   1  -9   0   72.79    6.50
  -1  -9   0   80.99    6.80
   1   9   0   76.49    7.80
   3   9   0   76.09    8.00
   5   9   0   39.80    6.40
   0 -10   0  133.19    9.10
 -14   0   1   -3.10   15.20
  14   0  -1   -1.00    4.50
 -14   0   1   -5.30    4.50
  14   0  -1   10.50    7.10
  14   0  -1    3.70   10.90
  12   0  -1   -2.10    3.50
  12   0  -1    1.10    4.30
 -12   0   1    1.00    4.30
 -12   0   1   13.90    9.60
  12   0  -1   -5.30    7.50
  10   0  -1    3.50    5.20
  10   0  -1    0.40    3.30
 -10   0   1    1.90    3.50
 -10   0   1    1.90    5.20
   8   0  -1    1.90    3.50
  -8   0   1    0.00    3.80
   8   0  -1    2.80    2.20
  -8   0   1    3.40    2.80
   6   0  -1    1.40    1.40
  -6   0   1   -2.70    3.00
  -6   0   1    3.20    2.00
  -4   0   1   -0.80    1.90
   4   0  -1    1.10    1.10
  -4   0   1   -0.90    1.50
   4   0  -1    1.00    1.90
   2   0  -1    0.60    0.60
  -2   0   1   -0.30    0.90
   2   0  -1   -0.50    1.00
   2   0  -1    0.70    0.80
   0   0   1    0.10    0.10
   0   0  -1   -0.10    0.20
   0   0  -1   -0.10    0.20
   0   0  -1    0.00    0.10
   0   0   1    0.00    0.10
   0   0  -1    0.00    0.20
   0   0  -1    0.10    0.10
  -2   0  -1    0.20    0.80
  -2   0  -1    1.00    1.00
  -2   0  -1   -0.20    0.50
   2   0   1    0.00    0.60
   2   0   1    0.10    1.00
  -4   0  -1    1.70    0.70
  -4   0  -1    0.60    1.60
  -4   0  -1    0.90    2.10
   4   0   1   -0.30    1.80
   4   0   1    1.80    1.10
  -6   0  -1    0.20    1.80
   6   0   1   -1.40    2.40
  -6   0  -1    0.60    0.90
   6   0   1   -0.40    1.30
  -6   0  -1    2.30    2.80
  -8   0  -1    0.80    2.60
  -8   0  -1    5.90    3.90
   8   0   1   -1.90    3.70
   8   0   1   -1.30    2.00
  10   0   1   -3.00    2.90
 -10   0  -1   -1.80    3.50
  10   0   1   -2.80    5.90
 -10   0  -1    3.10    6.30
  12   0   1   -1.80    4.50
 -12   0  -1    0.20    4.00
  12   0   1  -16.20    9.60
 -12   0  -1   -8.10   10.30
 -14   0  -1  -23.30   12.20
  14   0   1   -2.80    7.10
 -14   0  -1  -12.00    5.00
  14   0   1    1.80    4.80
  15  -1  -1    9.30    5.10
  15  -1  -1   19.10    9.00
  15  -1  -1    2.40   14.80
 -15  -1   1    0.70    5.10
  15   1  -1    0.70   13.70
 -15   1   1   -4.10    6.30
  15   1  -1    9.30    5.60
  15   1  -1    1.90    8.30
  13  -1  -1   17.10    6.00
 -13  -1   1   24.70    5.20
 -13  -1   1    5.30   11.40
  13  -1  -1   16.50    4.70
  13  -1  -1    8.90    9.30
  13   1  -1   14.00    9.30
 -13   1   1    8.20    4.80
 -13   1   1   18.50   11.90
  13   1  -1   13.00    4.60
  13   1  -1   25.10    5.60
  11  -1  -1   41.40    4.50
  11  -1  -1   26.60    6.40
 -11  -1   1   39.20    7.90
 -11  -1   1   43.70    6.00
  11  -1  -1   34.00    5.40
 -11   1   1   42.60    5.10
 -11   1   1   54.09    9.10
  11   1  -1   37.60    5.00
  11   1  -1   48.80    8.50
   9  -1  -1   -0.90    2.70
   9  -1  -1   -0.80    4.30
   9  -1  -1   -0.60    2.70
  -9  -1   1   -3.60    4.00
  -9  -1   1    4.60    3.10
   9   1  -1    7.90    4.50
   9   1  -1    1.80    2.40
  -9   1   1    1.40    3.00
  -9   1   1    2.10    4.90
  -9   1   1    3.30    1.80
   7  -1  -1   41.00    5.30
   7  -1  -1   47.90    3.70
  -7  -1   1   55.39    4.30
   7  -1  -1   48.00    3.70
  -7   1   1   48.70    5.30
   7   1  -1   45.10    5.20
   7   1  -1   49.80    3.30
  -7   1   1   48.10    3.80
  -7   1   1   50.19    3.30
   5  -1  -1  329.97   13.60
   5  -1  -1  346.37   13.60
   5  -1  -1  330.17   14.80
  -5  -1   1  347.67   13.90
  -5   1   1  345.07   13.50
  -5   1   1  331.27   13.50
   5   1  -1  330.77   13.30
  -5   1   1  330.77   14.90
   5   1  -1  321.47   14.40
   3  -1  -1   60.09    2.90
   3  -1  -1   56.79    3.00
  -3  -1   1   58.09    3.20
   3  -1  -1   49.99    3.80
  -3   1   1   61.59    2.80
   3   1  -1   56.09    2.70
  -3   1   1   58.19    4.10
   3   1  -1   50.99    3.30
  -1  -1   1 1637.74   57.09
   1  -1  -1 1467.45   56.99
   1  -1  -1 1595.94   56.79
   1   1  -1 1441.46   56.89
  -1   1   1 1469.85   57.19
  -1  -1  -1   82.79    3.40
  -1  -1  -1   82.59    3.50
  -1  -1  -1   75.69    3.40
   1  -1   1   75.69    3.40
  -1   1  -1   79.29    3.20
  -1   1  -1   74.59    3.60
  -1   1  -1   76.89    3.60
   3  -1   1   40.20    3.20
   3  -1   1   40.20    2.60
  -3  -1  -1   43.40    2.70
  -3  -1  -1   42.20    2.10
  -3  -1  -1   45.60    2.80
   3   1   1   43.00    2.00
  -3   1  -1   41.60    2.60
   3   1   1   40.50    2.80
  -3   1  -1   41.70    2.40
   3   1   1   42.40    2.80
  -3   1  -1   42.80    3.30
  -5  -1  -1  606.14   22.60
   5  -1   1  557.34   22.20
   5  -1   1  562.04   23.30
   5   1   1  553.24   22.90
   5   1   1  562.44   21.80
  -5   1  -1  591.24   22.20
  -5   1  -1  555.24   23.30
  -5   1  -1  558.04   22.10
   5   1   1  557.24   23.00
  -7  -1  -1  131.59    7.30
   7  -1   1  134.39    8.60
   7  -1   1  137.09    6.60
  -7   1  -1  131.79    8.20
   7   1   1  131.89    6.20
   7   1   1  128.69    8.00
  -7   1  -1  136.09    6.80
  -7   1  -1  132.69    6.20
  -9  -1  -1   14.60    3.70
  -9  -1  -1   22.20    6.10
   9  -1   1   13.20    3.00
   9  -1   1   13.10    4.70
   9  -1   1   12.10    3.00
  -9   1  -1   15.00    2.60
   9   1   1   15.20    3.10
   9   1   1   18.30    5.00
  -9   1  -1   14.70    3.50
  -9   1  -1   22.10    6.00
  11  -1   1    4.60    4.00
 -11  -1  -1    4.20    3.90
  11  -1   1   -5.70    6.80
  11  -1   1   -0.70    3.70
 -11  -1  -1    5.30    7.90
 -11   1  -1    2.90    2.00
  11   1   1   -2.80    3.50
 -11   1  -1    0.50    3.60
 -11   1  -1    0.90    8.20
  11   1   1   -7.80    6.50
  13  -1   1    6.00    4.70
 -13  -1  -1    1.30    9.40
  13  -1   1    7.10   10.30
  13  -1   1   13.40    6.80
 -13  -1  -1    3.80    5.20
 -13   1  -1   11.60   13.60
  13   1   1   11.00    9.60
 -13   1  -1    3.80    5.00
 -13   1  -1    4.00    3.30
  13   1   1    1.60    5.30
 -14  -2   1   -3.70    4.60
  14  -2  -1    2.50    7.90
  14  -2  -1  -16.90   13.40
  14  -2  -1   -1.60    4.20
 -14   2   1   12.60   13.70
  14   2  -1  -12.60   11.30
  14   2  -1    2.90    6.80
 -14   2   1   -0.30    5.10
  12  -2  -1   64.79    5.50
 -12  -2   1   62.39    6.40
  12  -2  -1   78.29    7.60
  12  -2  -1   74.19   12.40
 -12   2   1   69.49   12.40
  12   2  -1   68.79    7.00
 -12   2   1   79.39    7.10
 -12   2   1   61.49    5.00
  12   2  -1   81.89   11.00
  10  -2  -1   58.19    6.00
  10  -2  -1   64.99    8.10
  10  -2  -1   68.59    5.20
 -10  -2   1   68.29    6.10
 -10   2   1   89.49   10.20
 -10   2   1   62.99    4.70
  10   2  -1   77.79    8.10
 -10   2   1   58.49    5.70
  10   2  -1   68.19    5.20
   8  -2  -1    1.30    2.50
   8  -2  -1    6.20    4.10
   8  -2  -1   -0.90    2.50
  -8  -2   1    2.30    2.70
  -8   2   1   -1.10    2.20
   8   2  -1    0.50    2.00
   8   2  -1    8.70    3.60
  -8   2   1    2.60    2.40
  -8   2   1    2.90    4.00
  -6  -2   1  266.77   12.00
   6  -2  -1  266.67   13.00
   6  -2  -1  268.37   11.80
   6  -2  -1  285.27   11.40
  -6   2   1  264.17   11.30
   6   2  -1  275.97   11.20
  -6   2   1  276.07   13.20
  -6   2   1  267.77   11.80
   6   2  -1  270.07   12.40
  -4  -2   1  161.18    7.60
   4  -2  -1  169.18    7.60
   4  -2  -1  170.48    7.10
   4  -2  -1  163.48    8.40
   4   2  -1  169.68    7.10
  -4   2   1  157.28    8.60
  -4   2   1  173.28    6.90
   2  -2  -1   32.70    1.70
   2  -2  -1   29.00    2.10
  -2  -2   1   33.40    2.40
   2   2  -1   29.20    1.90
  -2   2   1   25.50    2.70
   0  -2  -1 1449.85   51.09
   0  -2  -1 1355.66   50.89
   0  -2  -1 1271.57   51.09
  -2  -2  -1  189.78    7.70
  -2  -2  -1  172.48    7.60
  -2  -2  -1  182.18    7.60
   2  -2   1  176.58    7.60
  -2   2  -1  174.08    7.10
   2   2   1  181.48    7.20
  -2   2  -1  175.88    8.10
  -2   2  -1  180.58    7.90
  -4  -2  -1   34.10    2.70
  -4  -2  -1   28.20    3.00
   4  -2   1   35.90    2.40
  -4  -2  -1   32.60    2.40
   4  -2   1   32.30    2.70
   4  -2   1   26.80    3.70
  -4   2  -1   30.10    2.80
   4   2   1   33.40    2.00
  -4   2  -1   34.20    2.30
  -4   2  -1   24.80    3.80
   6  -2   1   26.90    3.70
   6  -2   1   41.50    3.00
   6  -2   1   41.40    5.00
  -6  -2  -1   38.30    3.70
  -6   2  -1   36.40    3.10
   6   2   1   39.50    2.60
   6   2   1   36.00    4.40
  -6   2  -1   35.10    5.40
  -6   2  -1   36.20    3.20
   6   2   1   35.30    4.80
  -8  -2  -1   20.80    4.10
   8  -2   1   14.50    2.80
   8   2   1   10.70    2.40
  -8   2  -1   13.40    3.10
   8   2   1   15.80    3.60
  -8   2  -1   12.50    2.50
  -8   2  -1   11.10    4.30
   8   2   1   11.80    4.70
 -10  -2  -1   49.99    5.70
  10  -2   1   56.59    6.00
  10  -2   1   61.09    9.50
  10  -2   1   51.99    4.70
 -10   2  -1   55.29    9.20
 -10   2  -1   45.70    4.90
 -10   2  -1   60.09    4.30
  10   2   1   41.60    8.30
  10   2   1   46.10    5.10
  12  -2   1   30.10   10.50
  12  -2   1   12.30    4.30
 -12  -2  -1   11.60    5.00
  12  -2   1   25.20    6.10
 -12   2  -1    0.70   10.30
 -12   2  -1   10.30    4.70
  12   2   1   17.40    4.90
 -12   2  -1   13.50    3.20
  12   2   1   19.40    8.50
  14  -2   1    3.60    8.40
 -14  -2  -1    9.50    5.10
  14  -2   1    8.60    5.00
  14   2   1   18.50    7.00
 -14   2  -1  -11.00   16.90
 -14   2  -1   11.10    4.20
 -14   2  -1   10.50    5.60
 -13  -3   1   -1.00    4.70
  13  -3  -1   -7.60    7.30
  13  -3  -1   -7.30   12.40
  13  -3  -1    5.00    3.80
 -13   3   1    4.40    3.90
 -13   3   1    1.60    5.30
  13   3  -1    1.70    9.50
  13   3  -1   -6.20    4.90
 -13   3   1  -20.10   12.40
  11  -3  -1   75.29    5.40
  11  -3  -1   60.79   11.50
  11  -3  -1   76.09    7.70
 -11  -3   1   64.09    6.30
  11   3  -1   70.79    5.90
 -11   3   1   65.89    5.90
 -11   3   1   75.79    6.50
 -11   3   1   72.19   11.30
   9  -3  -1    2.20    2.50
   9  -3  -1   -6.20    3.60
   9  -3  -1   -9.40    5.70
  -9  -3   1    4.50    3.10
  -9   3   1   -3.40    2.90
   9   3  -1    0.20    2.40
  -9   3   1   -2.80    5.20
  -9   3   1    1.40    2.80
   7  -3  -1   64.99    5.40
   7  -3  -1   79.29    6.90
   7  -3  -1   72.19    4.30
  -7  -3   1   63.29    5.10
  -7   3   1   75.39    4.50
  -7   3   1   69.79    7.10
  -7   3   1   67.09    5.20
   7   3  -1   74.29    4.10
   5  -3  -1   95.99    4.50
   5  -3  -1   83.89    6.30
   5  -3  -1   82.09    5.10
  -5  -3   1   86.69    5.40
  -5   3   1   78.49    6.60
  -5   3   1   93.39    4.40
   5   3  -1   87.49    4.40
   3  -3  -1   14.80    2.00
  -3  -3   1   12.90    2.50
   3  -3  -1    8.70    1.40
  -3   3   1   12.50    2.40
   3   3  -1   14.40    1.90
  -3   3   1    7.10    2.90
  -1  -3   1   25.00    2.10
   1  -3  -1   23.60    2.10
  -1  -3   1   24.60    2.00
   1  -3  -1   22.80    2.20
   1  -3   1  272.27   11.70
  -1  -3  -1  282.17   11.50
  -1  -3  -1  294.17   11.50
  -3  -3  -1 1331.57   50.29
  -3  -3  -1 1337.17   50.39
   3  -3   1 1303.27   50.39
  -3   3  -1 1299.37   49.60
  -3   3  -1 1301.17   50.89
   3   3   1 1297.97   49.70
  -3   3  -1 1356.16   50.99
   5  -3   1    7.90    1.90
  -5  -3  -1   10.10    2.60
  -5  -3  -1    6.90    1.90
  -5  -3  -1    9.80    2.60
  -5   3  -1    6.80    3.20
  -5   3  -1    6.80    2.30
   5   3   1    6.80    1.40
   7  -3   1   11.20    2.50
   7  -3   1   12.70    2.90
   7  -3   1    3.10    4.00
  -7  -3  -1   11.30    3.30
  -7   3  -1    7.20    4.30
  -7   3  -1    5.90    2.80
   7   3   1   11.20    1.90
  -7   3  -1   11.90    2.30
   9  -3   1  185.08   12.50
   9  -3   1  201.08    9.90
  -9  -3  -1  184.88   10.00
   9  -3   1  189.68    8.90
  -9   3  -1  188.48   12.30
   9   3   1  186.88    8.80
  -9   3  -1  181.08    9.40
  -9   3  -1  181.98    9.30
 -11  -3  -1   -1.50    4.10
  11  -3   1    0.00    4.90
  11  -3   1   -1.50    3.20
  11  -3   1   -8.70    8.50
 -11   3  -1   -7.80    9.80
 -11   3  -1    1.40    3.40
  11   3   1   -0.40    3.90
 -11   3  -1   11.00    3.90
  13  -3   1   17.70    4.50
  13  -3   1   21.40    7.60
 -13  -3  -1    9.30    4.90
  13   3   1   15.80    6.20
 -13   3  -1   19.30    4.40
 -13   3  -1    8.00    5.10
 -13   3  -1   16.40   16.10
  14  -4  -1   -5.20    4.60
 -14  -4   1   -4.10    5.60
  14  -4  -1    5.90   11.10
 -14   4   1    6.90    5.70
  14   4  -1   -0.10    7.10
 -14   4   1    5.90    6.00
 -12  -4   1   15.90    4.80
  12  -4  -1   -2.10   11.50
  12  -4  -1   23.30    4.40
  12  -4  -1   22.20    7.00
  12   4  -1   13.50    8.20
 -12   4   1   18.10    4.90
  12   4  -1   16.80    5.30
 -12   4   1   23.00    5.60
 -12   4   1   26.00    9.80
 -10  -4   1   18.60    4.10
  10  -4  -1   18.30    3.40
  10  -4  -1    8.60    7.60
  10  -4  -1   10.60    4.90
 -10   4   1   22.30    4.10
 -10   4   1   14.90    3.90
  10   4  -1   12.60    3.70
 -10   4   1   15.60    7.70
   8  -4  -1   32.30    6.70
   8  -4  -1   30.30    5.00
   8  -4  -1   26.90    3.30
  -8  -4   1   37.90    4.70
  -8   4   1   42.50    5.30
   8   4  -1   31.10    3.40
  -8   4   1   27.50    4.00
  -8   4   1   32.50    6.50
  -6  -4   1   80.69    5.50
   6  -4  -1   76.49    4.40
   6  -4  -1   61.59    6.70
   6  -4  -1   86.69    5.70
  -6   4   1   72.59    7.20
   6   4  -1   84.09    4.50
   4  -4  -1    4.10    1.80
   4  -4  -1    7.10    1.80
  -4  -4   1    5.70    2.40
   4   4  -1    6.00    1.70
  -4   4   1    3.60    3.00
  -4   4   1    6.00    3.40
  -2  -4   1   21.10    2.60
   2  -4  -1   13.70    2.30
   2  -4  -1   14.10    2.20
  -2  -4   1   19.20    2.50
   2   4  -1   12.80    2.00
   0  -4  -1    1.00    1.50
   2  -4   1  506.05   20.40
  -2  -4  -1  448.36   20.10
  -2  -4  -1  529.45   20.20
  -2   4  -1  507.05   20.50
  -2   4  -1  525.75   19.50
  -2   4  -1  511.35   20.70
   4  -4   1  322.57   14.00
  -4  -4  -1  326.97   13.90
  -4  -4  -1  323.17   13.90
  -4   4  -1  321.87   12.80
   4   4   1  326.47   13.10
  -4   4  -1  324.37   14.70
  -4   4  -1  314.77   14.70
  -6  -4  -1   21.30    3.70
   6  -4   1   22.20    3.60
  -6   4  -1   23.00    5.00
   6   4   1   19.00    2.30
  -6   4  -1   16.00    3.30
  -6   4  -1   25.60    2.80
   8  -4   1   41.80    5.20
  -8  -4  -1   46.10    4.90
   8  -4   1   54.69    3.90
   8   4   1   44.50    3.80
  -8   4  -1   47.20    5.20
  -8   4  -1   47.70    8.50
  -8   4  -1   39.30    4.30
  10  -4   1   36.30    5.30
  10  -4   1   29.70    4.10
 -10  -4  -1   34.40    5.50
 -10   4  -1   31.30    4.80
  10   4   1   30.30    4.60
 -10   4  -1   34.80    4.70
 -10   4  -1   28.30    8.20
 -12  -4  -1   12.10    4.50
  12  -4   1   14.90    6.70
  12  -4   1   12.20    4.40
 -12   4  -1   11.50    4.80
 -12   4  -1   -9.50   11.60
 -12   4  -1   11.90    4.70
  12   4   1   12.60    5.10
  13  -5  -1    2.00    4.60
 -13  -5   1    9.60    4.70
  13  -5  -1   -9.20    9.40
 -13   5   1   -2.10   14.10
 -13   5   1    8.60    5.90
  13   5  -1   -4.50    6.60
 -13   5   1    6.90    6.50
  11  -5  -1   25.20    6.20
  11  -5  -1   18.00    4.00
 -11  -5   1   16.40    4.60
  11  -5  -1    9.40   13.50
 -11   5   1   10.80    4.60
 -11   5   1   32.00    9.80
  11   5  -1   14.00    4.70
 -11   5   1   11.10    5.50
   9  -5  -1   -3.80    3.00
  -9  -5   1    2.60    3.80
   9  -5  -1   -1.90    7.90
   9  -5  -1    1.10    4.60
  -9   5   1   -7.80    4.20
   9   5  -1    3.40    3.00
  -9   5   1   -4.90    6.90
   7  -5  -1   14.30    2.70
   7  -5  -1   18.70    3.90
   7  -5  -1   15.20    5.80
  -7  -5   1   14.20    3.30
  -7   5   1   14.10    5.80
   7   5  -1   18.70    3.20
  -5  -5   1   34.60    4.20
   5  -5  -1   46.30    4.40
   5  -5  -1   40.50    3.20
  -5   5   1   44.10    6.00
  -5   5   1   41.60    5.80
   5   5  -1   40.60    3.50
   3  -5  -1   96.99    5.80
  -3  -5   1   91.29    5.60
  -3  -5   1   97.59    5.50
   3  -5  -1  101.79    5.10
   3   5  -1   99.99    5.40
  -1  -5   1   -2.80    2.00
   1  -5  -1   -3.10    2.00
  -1  -5  -1   20.20    2.70
  -1  -5  -1   23.70    3.10
   3  -5   1    6.20    2.50
  -3  -5  -1    7.80    2.50
  -3  -5  -1   10.60    2.60
  -3   5  -1    5.90    3.70
  -3   5  -1    5.60    3.90
   3   5   1   12.00    2.00
  -5  -5  -1   43.30    4.40
  -5  -5  -1   49.70    4.30
   5  -5   1   48.70    4.80
  -5   5  -1   42.40    7.10
  -5   5  -1   43.50    3.40
  -5   5  -1   49.50    6.10
   5   5   1   44.10    3.60
   7  -5   1   13.40    3.80
  -7  -5  -1   16.60    3.80
  -7   5  -1   11.50    5.90
  -7   5  -1   19.40    3.50
   7   5   1   20.00    3.20
  -7   5  -1   12.30    4.10
  -9  -5  -1   41.80    5.30
   9  -5   1   47.80    6.30
  -9   5  -1   34.60    5.80
  -9   5  -1   51.29    8.10
   9   5   1   31.90    4.30
  -9   5  -1   36.10    4.80
 -11  -5  -1   13.90    5.20
  11  -5   1  -12.40    6.60
  11  -5   1    0.90    3.80
 -11   5  -1   -2.90   11.00
 -11   5  -1    3.80    5.10
  11   5   1    3.20    4.30
 -11   5  -1   12.30    4.70
  13  -5   1    7.40    4.70
  13  -5   1    6.30    9.90
 -13  -5  -1   -2.10    8.50
 -13   5  -1    0.40    5.90
 -13   5  -1   12.20    6.80
  13   5   1    5.20    6.70
 -12  -6   1    0.10    4.70
  12  -6  -1   -2.90    4.80
  12  -6  -1   -6.20    7.40
 -12   6   1   -0.70   13.60
 -12   6   1    6.30    7.60
 -12   6   1    4.40    6.10
  12   6  -1   -5.10    6.00
  10  -6  -1   -6.80    6.50
  10  -6  -1    1.60    3.50
 -10  -6   1   -0.30    4.10
 -10   6   1    1.20    9.40
 -10   6   1    9.10    6.10
  10   6  -1   -4.50    3.80
  -8  -6   1    2.40    3.80
   8  -6  -1    1.60    3.00
   8  -6  -1   -1.30    4.90
  -8   6   1    0.90    5.50
  -8   6   1    3.30    7.20
   8   6  -1    0.90    2.90
   6  -6  -1   13.90    3.20
   6  -6  -1   23.30    4.30
  -6  -6   1   26.10    4.80
  -6   6   1   17.70    5.90
   6   6  -1   26.60    3.80
  -6   6   1   24.60    6.20
   4  -6  -1   -2.00    3.10
   4  -6  -1    0.40    2.80
  -4  -6   1   -0.90    2.50
   4   6  -1    1.70    2.40
  -4   6   1   -5.00    4.60
   2  -6  -1    8.10    2.60
   2   6  -1   11.90    2.60
   0  -6  -1   83.69    5.20
   0  -6   1   84.09    4.80
  -2  -6  -1   20.20    2.90
  -2  -6  -1   16.90    3.10
  -2   6  -1   21.00    2.80
  -4  -6  -1   -5.20    2.90
   4  -6   1   -0.70    2.90
  -4  -6  -1   -0.20    2.70
  -4   6  -1   -2.10    2.20
   4   6   1    2.70    2.20
  -4   6  -1   -4.30    4.30
  -6  -6  -1   95.09    6.90
   6  -6   1  100.49    7.40
  -6   6  -1   84.99   10.00
  -6   6  -1  113.69    9.80
  -6   6  -1  105.19    5.60
  -6   6  -1  111.19    8.60
   6   6   1   99.39    5.90
   8  -6   1   13.20    5.30
  -8  -6  -1    7.20    4.30
  -8   6  -1   18.40    5.40
  -8   6  -1   16.50    8.70
  -8   6  -1    8.40    3.30
   8   6   1   20.30    3.50
 -10  -6  -1    4.00    4.20
  10  -6   1  -11.00    6.10
 -10   6  -1    0.80   10.50
 -10   6  -1    3.70    4.60
 -10   6  -1   -7.50    6.20
  10   6   1    1.10    4.10
 -12  -6  -1   -0.20    5.10
  12   6   1   11.20    6.40
 -12   6  -1    4.30    7.60
 -12   6  -1    6.40    5.70
 -11  -7   1    9.20    4.90
 -11   7   1   20.30    9.40
  11   7  -1   -6.40    6.40
  -9  -7   1   10.40    4.60
   9  -7  -1    3.70    7.20
  -9   7   1    3.70    7.60
  -9   7   1   -0.60    8.90
   9   7  -1    2.20    3.90
  -7  -7   1   23.70    4.50
   7  -7  -1   41.50    7.00
  -7   7   1   25.50    8.00
   7   7  -1   28.00    4.80
  -7   7   1   28.80    8.90
  -5  -7   1    7.80    3.40
   5  -7  -1   15.80    3.80
   5  -7  -1    7.10    4.30
   5   7  -1    2.20    3.30
   3  -7  -1   79.19    5.30
  -3  -7   1   77.39    5.70
   3   7  -1   82.79    5.70
   1  -7  -1   80.99    5.20
  -1  -7   1   62.49    5.20
  -1  -7  -1   31.70    4.00
  -3  -7  -1  122.69    6.80
  -3  -7  -1  118.99    7.20
  -3   7  -1  121.69    6.20
   3   7   1  101.49    6.70
  -5  -7  -1   -0.60    3.20
  -5  -7  -1   -1.50    3.60
   5  -7   1   -1.80    4.50
  -5   7  -1   -0.10    2.80
   5   7   1    0.30    3.20
  -5   7  -1   -6.60    5.60
   7  -7   1    6.90    5.40
  -7  -7  -1   10.40    4.10
  -7   7  -1    6.50    6.10
  -7   7  -1    5.40    9.00
  -7   7  -1   13.50    7.70
   7   7   1    9.30    3.30
  -9  -7  -1    4.40    4.70
   9  -7   1   -3.00    7.20
   9   7   1    5.20    4.20
  -9   7  -1    5.30    4.20
  -9   7  -1    4.60   13.50
  -9   7  -1    6.90    6.80
   8  -8  -1    0.20    8.20
  -8  -8   1   -1.30    4.30
  -8   8   1    8.50   10.60
   8   8  -1   -4.50    4.40
  -8   8   1    9.50    9.00
  -6  -8   1   -0.40    3.90
   6  -8  -1    8.10    6.20
   6   8  -1    9.90    5.00
   4   8  -1   -5.50    3.80
   2  -8  -1    7.20    3.90
  -2  -8   1    7.60    4.00
   2   8  -1    6.60    3.90
   0  -8   1   13.00    4.10
   0  -8  -1   10.70    4.00
  -2  -8  -1    9.10    3.90
   2   8   1    7.10    3.80
  -2   8  -1   12.80    3.10
  -4  -8  -1   -2.00    3.50
  -4  -8  -1   -2.40    3.90
   4   8   1    6.20    3.90
  -6  -8  -1    4.00    4.10
  -6   8  -1    1.90    7.40
  -6   8  -1    9.00    9.50
   6   8   1   11.10    4.40
   8  -8   1    3.90    8.50
  -8  -8  -1    2.60    4.30
  -8   8  -1   -6.00    9.00
   8   8   1    9.80    4.70
  -8   8  -1   -2.00   12.80
  -8   8  -1  -19.40   13.10
   5   9  -1   -6.60    5.50
   3   9  -1    6.40    5.20
   1  -9  -1   70.99    6.10
  -1  -9   1   65.29    6.40
   1   9  -1   66.39    7.50
  -1  -9  -1   -2.60    4.60
  -1   9  -1   10.80    3.60
  -3  -9  -1    6.30    4.90
   3   9   1    3.20    5.20
   5   9   1    1.30    5.50
  -5   9  -1    4.40   12.40
   0 -10  -1   -1.00    5.80
  14   0  -2   69.19    9.10
 -14   0   2  108.99   18.10
  14   0  -2   85.19    7.10
  14   0  -2   63.19   12.30
 -14   0   2   87.49    7.70
  12   0  -2   17.90    4.40
 -12   0   2   29.40   10.10
  12   0  -2   22.90    4.80
 -12   0   2   12.40    4.20
  12   0  -2   30.20    7.30
  10   0  -2  648.14   27.00
  10   0  -2  695.23   29.50
  10   0  -2  617.64   27.30
 -10   0   2  723.73   29.60
 -10   0   2  662.93   27.50
   8   0  -2  188.68    9.40
  -8   0   2  211.58   11.60
  -8   0   2  188.58    9.40
   8   0  -2  203.48   11.10
   8   0  -2  202.68    9.20
  -6   0   2   78.39    4.60
   6   0  -2   78.39    6.10
   6   0  -2   72.79    4.50
  -6   0   2   73.89    6.30
   6   0  -2   79.19    4.20
  -4   0   2  742.53   27.70
   4   0  -2  746.53   27.70
   4   0  -2  666.23   28.30
   4   0  -2  720.13   27.50
  -2   0   2 3503.55  123.99
   2   0  -2 3094.89  123.89
   2   0  -2 3170.68  124.39
   2   0  -2 3535.05  124.09
   0   0  -2  228.48    8.80
   0   0  -2  236.98    8.70
   0   0  -2  224.08    8.90
  -2   0  -2   15.70    1.30
  -2   0  -2   14.20    1.30
  -2   0  -2   14.60    1.80
  -2   0  -2   16.40    1.40
  -4   0  -2 1584.94   56.09
  -4   0  -2 1379.16   56.29
   4   0   2 1505.35   55.69
   4   0   2 1465.25   56.59
  -4   0  -2 1472.25   55.59
   6   0   2   19.40    2.20
  -6   0  -2   28.40    4.30
  -6   0  -2   26.80    3.30
  -6   0  -2   19.10    2.00
   6   0   2   22.80    4.40
  -8   0  -2  216.28   10.40
   8   0   2  219.38   11.80
  -8   0  -2  227.78   11.60
  -8   0  -2  213.28    9.10
   8   0   2  204.08    9.70
  10   0   2   23.20    4.00
 -10   0  -2   27.30    4.90
 -10   0  -2   25.40    2.90
  10   0   2   47.90    8.90
 -10   0  -2   34.20    8.00
 -12   0  -2   22.50    8.80
 -12   0  -2   40.60    4.20
  12   0   2   37.40    5.90
 -12   0  -2   32.20    5.80
  14   0   2    4.00    7.70
 -14   0  -2  -21.30   11.50
  14   0   2    4.40    5.20
 -14   0  -2   -3.10    6.00
  13  -1  -2   46.90   10.10
 -13  -1   2   38.60    5.60
 -13  -1   2   24.30   11.80
  13  -1  -2   46.90    5.50
  13  -1  -2   36.70    6.40
  13   1  -2   47.60    6.40
  13   1  -2   31.50    8.60
 -13   1   2   41.20    6.00
 -13   1   2   45.30   11.50
  13   1  -2   39.90    5.30
 -11  -1   2   10.70    6.20
  11  -1  -2    8.10    6.30
  11  -1  -2   14.90    3.80
 -11  -1   2    8.30    3.70
  11  -1  -2   11.20    3.90
  11   1  -2    6.70    3.50
  11   1  -2    8.40    3.90
  11   1  -2    4.00    5.70
 -11   1   2    6.00    3.70
 -11   1   2    0.70    6.80
   9  -1  -2  432.36   18.30
   9  -1  -2  450.45   20.40
   9  -1  -2  424.46   18.30
  -9  -1   2  447.86   20.10
  -9  -1   2  430.96   18.70
   9   1  -2  441.96   20.20
  -9   1   2  422.76   18.30
   9   1  -2  436.36   18.00
  -9   1   2  436.96   20.50
   7  -1  -2   21.30    4.40
   7  -1  -2   19.70    2.90
  -7  -1   2   21.60    3.20
   7  -1  -2   17.80    2.90
  -7   1   2   23.50    3.20
  -7   1   2   25.10    4.50
   7   1  -2   19.30    2.50
  -7   1   2   18.60    2.30
   7   1  -2   20.70    4.00
  -5  -1   2  554.64   21.40
   5  -1  -2  530.75   22.30
   5  -1  -2  521.45   21.00
   5  -1  -2  546.15   21.00
   5   1  -2  501.75   21.70
  -5   1   2  555.64   20.90
  -5   1   2  529.85   22.40
   5   1  -2  543.75   20.90
   3  -1  -2   52.69    2.80
   3  -1  -2   53.39    2.70
   3  -1  -2   41.40    3.60
  -3  -1   2   54.39    3.00
   3   1  -2   46.20    3.10
   3   1  -2   49.99    2.60
   1  -1  -2  798.22   29.60
   1  -1  -2  827.72   29.60
   1   1  -2  763.72   29.60
   1   1  -2  775.62   29.60
  -1   1   2  755.42   29.80
   1   1  -2  790.42   29.50
  -1  -1  -2 1318.17   48.20
  -1  -1  -2 1298.47   48.20
  -1  -1  -2 1349.86   48.10
   1  -1   2 1250.17   48.10
  -1   1  -2 1252.37   48.20
  -1   1  -2 1207.78   48.30
  -1   1  -2 1296.87   48.00
  -3  -1  -2  123.69    5.20
  -3  -1  -2  115.29    4.70
  -3  -1  -2  121.59    5.20
   3  -1   2  102.39    4.90
   3   1   2  116.09    5.40
  -3   1  -2  108.49    4.80
  -3   1  -2   94.29    5.60
  -3   1  -2  102.59    5.00
  -5  -1  -2  279.17   11.60
   5  -1   2  291.97   13.10
  -5  -1  -2  312.47   12.60
   5  -1   2  295.07   12.10
   5   1   2  285.97   12.80
  -5   1  -2  294.77   13.10
  -5   1  -2  324.77   12.20
   5   1   2  302.07   11.60
   5   1   2  245.08   12.60
  -5   1  -2  300.27   12.00
  -7  -1  -2   34.80    2.40
  -7  -1  -2   31.50    3.80
   7  -1   2   32.30    5.80
   7  -1   2   25.70    3.40
   7   1   2   30.60    5.10
  -7   1  -2   35.40    3.40
  -7   1  -2   37.00    5.30
   7   1   2   33.00    2.90
  -7   1  -2   26.60    2.60
   9  -1   2  440.06   18.80
  -9  -1  -2  415.96   19.30
  -9  -1  -2  448.76   19.90
   9  -1   2  459.15   20.90
   9   1   2  429.96   18.20
  -9   1  -2  462.35   20.90
   9   1   2  485.25   20.70
  -9   1  -2  435.96   19.00
 -11  -1  -2   -6.30    6.30
 -11  -1  -2    5.80    4.00
  11  -1   2    2.50    3.80
  11  -1   2   -1.30    4.30
  11   1   2   -1.60    3.80
 -11   1  -2    3.30    2.50
 -11   1  -2    4.00    8.90
 -11   1  -2    1.60    4.20
  13  -1   2   93.69   10.00
  13  -1   2   96.39    7.70
 -13  -1  -2  109.19    8.40
 -13  -1  -2   91.19   12.80
  13   1   2   81.29    8.20
 -13   1  -2   96.29    8.30
 -13   1  -2   89.69    6.30
 -13   1  -2   92.19   14.60
 -14  -2   2   50.89    6.70
  14  -2  -2   47.60   13.20
  14  -2  -2   57.19    8.90
  14  -2  -2   46.60    5.80
  14   2  -2   55.99    7.70
 -14   2   2   61.19   12.60
 -14   2   2   51.69    7.40
  14   2  -2   44.90   11.90
  14   2  -2   43.50    6.20
  12  -2  -2    3.70    3.50
  12  -2  -2   -1.20    5.00
  12  -2  -2    4.80    7.30
 -12  -2   2   -3.50    3.80
 -12   2   2    0.50    4.30
 -12   2   2    6.80    8.70
  12   2  -2    2.80    7.20
  12   2  -2   -3.00    4.10
  10  -2  -2   23.60    3.90
 -10  -2   2   28.90    5.10
  10  -2  -2   43.80    8.00
  10  -2  -2   40.40    5.00
  10   2  -2   37.20    7.10
 -10   2   2   29.80    3.80
  10   2  -2   35.10    4.20
 -10   2   2   35.00    7.00
 -10   2   2   31.70    4.90
   8  -2  -2   66.19    6.90
   8  -2  -2   66.49    4.20
   8  -2  -2   62.59    4.90
  -8  -2   2   61.19    5.00
   8   2  -2   62.39    4.10
  -8   2   2   61.09    4.60
  -8   2   2   57.89    4.30
   8   2  -2   64.49    6.50
  -8   2   2   59.99    7.10
  -6  -2   2  717.73   28.50
   6  -2  -2  703.43   28.20
   6  -2  -2  714.33   29.50
  -6   2   2  697.63   29.60
  -6   2   2  742.23   27.70
  -4  -2   2  660.43   25.60
   4  -2  -2  633.94   25.40
   4  -2  -2  625.34   26.10
   4  -2  -2  676.73   25.00
   4   2  -2  654.13   25.10
   2  -2  -2  503.15   18.50
   2  -2  -2  466.55   18.80
  -2  -2   2  503.75   18.90
   2   2  -2  465.15   18.70
  -2   2   2  468.35   19.20
   0  -2  -2  968.50   35.10
   0  -2  -2  886.31   35.00
  -2  -2  -2   20.80    2.10
  -2  -2  -2   26.60    2.20
  -2  -2  -2   22.90    2.00
   2  -2   2   23.40    2.10
  -2   2  -2   22.10    2.20
  -2   2  -2   24.80    1.70
  -2   2  -2   25.80    2.80
  -4  -2  -2  245.98   11.20
  -4  -2  -2  271.37   11.20
  -4  -2  -2  267.97   10.80
   4  -2   2  256.67   11.00
  -4   2  -2  264.47   11.20
  -4   2  -2  271.57   10.60
   4   2   2  260.17   10.20
  -4   2  -2  257.37   11.80
   6  -2   2   17.60    2.70
  -6  -2  -2   18.80    3.20
   6  -2   2   17.50    2.80
  -6  -2  -2   14.40    2.30
   6  -2   2   20.80    4.10
  -6   2  -2   16.80    2.40
  -6   2  -2   18.20    3.70
   6   2   2   15.40    1.90
  -6   2  -2   15.30    2.50
   8  -2   2  692.23   28.60
  -8  -2  -2  714.63   29.30
   8  -2   2  741.63   28.50
   8  -2   2  739.93   30.30
   8   2   2  715.63   27.90
  -8   2  -2  697.73   28.60
  -8   2  -2  712.03   28.30
  -8   2  -2  725.43   30.20
   8   2   2  714.93   30.00
  10  -2   2   18.00    4.50
 -10  -2  -2   19.40    4.30
  10  -2   2   15.40    3.50
 -10   2  -2   26.50    8.20
 -10   2  -2   10.40    3.80
 -10   2  -2   17.40    2.90
  10   2   2   10.40    7.50
  10   2   2   10.90    3.30
  12  -2   2   70.09    8.30
 -12  -2  -2   89.89    7.70
  12  -2   2   77.49    6.30
 -12   2  -2   72.59    5.60
 -12   2  -2   78.19    7.10
  12   2   2   74.39    6.70
 -12   2  -2   75.99   13.20
  14  -2   2   -0.60    4.90
 -14  -2  -2   15.60    5.70
  14  -2   2    7.30    8.90
 -14   2  -2   -2.60    4.40
 -14   2  -2   -2.40   13.70
 -14   2  -2    7.10    5.40
  14   2   2  -10.70    7.10
  13  -3  -2   29.10    4.80
  13  -3  -2   33.40    7.80
 -13  -3   2   22.60    5.40
  13   3  -2   18.70    6.20
 -13   3   2   34.70   12.80
 -13   3   2   35.80    5.70
 -13   3   2   34.90    6.20
 -11  -3   2   79.29    6.80
  11  -3  -2   83.19    5.80
  11  -3  -2   87.29   11.90
  11  -3  -2   79.99    7.80
 -11   3   2   86.99    6.70
 -11   3   2  105.69   11.40
 -11   3   2   77.69    6.30
  11   3  -2   79.89    6.30
  11   3  -2   78.19    9.70
   9  -3  -2  100.89    7.30
   9  -3  -2  100.39    9.00
  -9  -3   2  108.19    6.90
   9  -3  -2   96.69    5.80
   9   3  -2  102.69    5.90
  -9   3   2   92.09    9.70
  -9   3   2   90.39    6.40
  -9   3   2   97.59    6.30
   7  -3  -2   93.49    6.00
  -7  -3   2   85.79    5.90
   7  -3  -2   95.19    5.00
   7  -3  -2   85.89    7.20
  -7   3   2   87.79    7.70
  -7   3   2   87.49    4.90
   7   3  -2   86.69    4.80
   5  -3  -2  333.77   15.20
   5  -3  -2  319.87   14.10
  -5  -3   2  329.77   14.30
   5  -3  -2  348.77   13.50
   5   3  -2  343.17   13.60
  -5   3   2  314.27   15.40
  -3  -3   2  264.57   11.00
   3  -3  -2  255.07   10.90
   3  -3  -2  269.37   10.40
   3   3  -2  252.47   10.60
  -3   3   2  235.88   11.30
   1  -3  -2   10.60    1.80
   1  -3  -2    6.90    1.40
  -1  -3  -2  946.71   35.30
  -1  -3  -2  890.81   35.00
  -3  -3  -2   42.10    3.10
  -3  -3  -2   41.00    3.10
  -3  -3  -2   35.40    3.10
   3  -3   2   33.70    2.90
  -3   3  -2   36.90    2.40
  -3   3  -2   29.70    3.90
   3   3   2   38.00    2.30
  -3   3  -2   32.80    3.50
  -5  -3  -2 1167.18   45.60
   5  -3   2 1198.78   45.90
  -5  -3  -2 1208.78   46.10
  -5  -3  -2 1207.48   46.00
  -5   3  -2 1229.08   45.10
  -5   3  -2 1156.68   46.00
  -5   3  -2 1138.79   46.50
   5   3   2 1185.18   44.80
  -7  -3  -2  102.19    6.50
   7  -3   2  110.39    6.20
   7  -3   2  102.39    5.40
  -7  -3  -2   99.49    5.80
   7   3   2  102.29    5.20
  -7   3  -2  114.09    8.30
  -7   3  -2  107.99    5.70
  -7   3  -2   99.79    6.40
  -9  -3  -2   19.20    4.50
   9  -3   2   17.40    4.00
   9  -3   2   15.70    3.10
   9   3   2   13.60    6.00
  -9   3  -2   16.00    3.50
  -9   3  -2   18.30    6.50
   9   3   2   14.10    2.60
  -9   3  -2   14.70    3.20
  11  -3   2   -7.60    3.30
  11  -3   2    1.30    5.10
 -11  -3  -2   -7.60    3.70
 -11   3  -2   -5.40    3.70
 -11   3  -2  -12.00   10.40
  11   3   2    4.50    3.90
 -11   3  -2    0.50    3.20
 -13  -3  -2   24.50    5.80
  13  -3   2   27.40    5.40
  13  -3   2   23.60    7.90
 -13   3  -2   18.40    6.10
 -13   3  -2   28.00   11.60
  13   3   2   35.00    6.10
 -13   3  -2   34.60    5.80
  14  -4  -2   10.30    4.70
 -14  -4   2   12.30    5.40
  14  -4  -2   14.00   10.10
 -14   4   2    5.70    6.60
  14   4  -2   15.20    7.30
 -14   4   2   13.50    5.70
 -14   4   2   -4.30   17.20
  12  -4  -2   -1.50    3.90
 -12  -4   2    3.50    4.30
  12  -4  -2   -4.60   10.70
  12  -4  -2   -3.10    6.30
 -12   4   2    9.60   10.20
  12   4  -2    3.40    4.70
 -12   4   2    2.90    4.60
 -12   4   2   -3.40    4.70
  10  -4  -2   85.39    5.50
 -10  -4   2   86.19    7.20
  10  -4  -2   85.59    7.90
  10  -4  -2  100.99   11.10
  10   4  -2   85.29    5.90
 -10   4   2   93.69   11.40
 -10   4   2   87.49    6.50
 -10   4   2   91.29    6.90
  -8  -4   2   36.70    4.60
   8  -4  -2   45.90    7.30
   8  -4  -2   43.10    3.70
   8  -4  -2   40.70    5.50
  -8   4   2   44.60    7.90
   8   4  -2   42.70    3.80
   6  -4  -2  345.77   13.70
   6  -4  -2  316.67   15.60
   6  -4  -2  334.57   14.90
  -6  -4   2  336.77   15.00
   6   4  -2  345.17   14.00
  -6   4   2  337.47   16.30
  -4  -4   2    5.30    2.20
   4  -4  -2    3.10    1.60
   4  -4  -2    3.40    2.20
  -4   4   2    0.10    2.70
   4   4  -2    4.60    1.70
  -4   4   2    5.30    3.70
  -2  -4   2  483.85   19.10
   2  -4  -2  478.45   18.70
   2  -4  -2  474.15   19.20
   2   4  -2  464.65   19.00
   0  -4  -2   40.10    3.00
  -2  -4  -2 1019.20   38.40
   2  -4   2  991.90   38.60
  -2  -4  -2 1041.10   38.50
  -2   4  -2  933.21   38.70
  -2   4  -2  985.20   37.70
   4  -4   2  243.28   11.00
  -4  -4  -2  238.98   10.90
  -4  -4  -2  240.38   10.80
   4   4   2  241.78    9.90
  -4   4  -2  229.08   11.50
  -4   4  -2  232.08   11.30
  -4   4  -2  243.68    9.90
  -6  -4  -2  139.59    7.80
   6  -4   2  141.79    7.70
  -6  -4  -2  140.89    7.70
  -6   4  -2  131.39    7.70
  -6   4  -2  150.78    9.20
  -6   4  -2  143.19    6.70
   6   4   2  140.39    6.40
  -8  -4  -2    7.20    3.30
   8  -4   2    8.80    2.80
   8  -4   2   11.60    3.80
  -8   4  -2    8.90    3.10
   8   4   2    8.60    2.30
  -8   4  -2   11.00    3.40
  -8   4  -2   17.10    6.70
  10  -4   2    2.40    3.10
  10  -4   2   11.20    4.80
 -10  -4  -2    5.60    4.00
 -10   4  -2    8.60    3.90
  10   4   2    2.90    3.20
 -10   4  -2    8.90    4.20
 -10   4  -2    4.50   10.00
  12  -4   2   48.40    5.50
  12  -4   2   50.09    8.70
 -12  -4  -2   36.70    6.70
 -12   4  -2   58.19   14.10
 -12   4  -2   40.90    6.40
 -12   4  -2   55.79    7.00
  12   4   2   45.90    6.40
  13  -5  -2   19.60   10.70
  13  -5  -2   45.00    5.80
 -13  -5   2   34.10    6.10
  13   5  -2   43.30    7.30
 -13   5   2   49.80    7.60
 -13   5   2   49.80    7.00
 -13   5   2   23.90   12.70
  11  -5  -2   15.90    6.90
  11  -5  -2  -15.00   11.60
 -11  -5   2    7.30    4.70
  11  -5  -2    6.40    3.90
 -11   5   2    4.70    4.70
  11   5  -2    8.30    4.10
 -11   5   2    7.80    9.50
 -11   5   2    8.80    5.10
   9  -5  -2   17.10    5.30
   9  -5  -2    5.10    7.40
   9  -5  -2   12.50    3.20
  -9  -5   2   17.60    4.20
  -9   5   2   11.50    7.10
   9   5  -2   17.80    3.30
  -9   5   2   13.80    5.20
   7  -5  -2  282.07   14.70
  -7  -5   2  263.97   13.20
   7  -5  -2  273.87   13.20
   7  -5  -2  279.27   11.90
  -7   5   2  275.87   15.10
   7   5  -2  290.67   12.30
  -5  -5   2   21.40    3.50
   5  -5  -2   18.30    2.70
   5  -5  -2   19.10    3.50
  -5   5   2   19.70    4.60
   5   5  -2   25.20    3.10
  -5   5   2   16.50    4.80
  -3  -5   2 1170.78   46.10
   3  -5  -2 1201.28   46.30
   3  -5  -2 1236.28   45.40
  -3   5   2 1168.28   46.70
   3   5  -2 1173.78   46.00
  -1  -5   2   12.30    2.40
   1  -5  -2    6.70    2.10
   1  -5  -2    8.70    2.40
  -1  -5  -2  187.68    8.70
  -1  -5  -2  186.98    8.30
   3  -5   2   33.20    4.00
  -3  -5  -2   30.60    3.50
  -3  -5  -2   32.10    3.70
   3   5   2   38.10    3.00
  -3   5  -2   34.60    5.40
  -3   5  -2   37.50    3.00
  -3   5  -2   35.00    5.30
  -5  -5  -2  119.19    7.00
  -5  -5  -2  137.29    7.20
   5  -5   2  112.99    7.10
   5   5   2  120.39    6.00
  -5   5  -2  116.19    6.00
  -5   5  -2  130.69    8.50
  -5   5  -2  118.89    8.10
   7  -5   2  189.28    9.90
  -7  -5  -2  185.48    9.80
  -7   5  -2  157.58   11.20
   7   5   2  179.28    8.20
  -7   5  -2  182.28    8.60
  -7   5  -2  181.48   10.00
  -9  -5  -2   71.29    6.50
   9  -5   2   82.79    7.40
  -9   5  -2  100.09   12.20
  -9   5  -2   93.69    7.70
  -9   5  -2   80.69    6.20
   9   5   2   83.29    5.40
  11  -5   2    5.20    6.80
 -11  -5  -2   13.30    4.40
 -11   5  -2   16.50    5.70
 -11   5  -2   10.80    4.90
  11   5   2   20.50    4.90
 -11   5  -2   33.30   13.00
  10  -6  -2   53.09    8.90
  10  -6  -2   29.80   14.20
 -10  -6   2   62.39    6.60
  10  -6  -2   61.09    5.30
  10   6  -2   79.39    6.40
 -10   6   2   57.39    9.20
   8  -6  -2  209.48   12.30
  -8  -6   2  234.28   11.80
   8   6  -2  224.68   10.60
  -8   6   2  223.18   15.00
   6  -6  -2   76.49    5.10
   6  -6  -2   76.49    6.40
  -6  -6   2   80.99    6.10
  -6   6   2   77.89    9.20
   6   6  -2   79.59    5.60
  -6   6   2   79.29    8.80
  -4  -6   2    6.40    2.60
   4  -6  -2    2.60    3.10
   4  -6  -2    0.80    2.90
  -4   6   2    3.20    4.40
   4   6  -2    0.90    2.50
   2  -6  -2    5.20    2.50
  -2  -6   2   11.10    2.90
   2  -6  -2    7.10    3.10
   2   6  -2    6.00    2.50
   0  -6  -2  179.88    8.60
  -2  -6  -2  327.87   14.00
  -2  -6  -2  342.47   14.60
  -2   6  -2  314.57   13.40
  -4  -6  -2   63.19    5.10
  -4  -6  -2   67.39    5.20
   4  -6   2   61.89    5.80
  -4   6  -2   52.29    7.70
  -4   6  -2   63.69    7.30
  -4   6  -2   62.49    4.20
   4   6   2   62.39    4.50
  -6  -6  -2  442.96   20.30
  -6  -6  -2  459.05   20.30
   6  -6   2  474.85   20.50
   6   6   2  459.95   18.70
  -6   6  -2  458.05   20.90
  -6   6  -2  456.95   18.60
  -6   6  -2  472.45   22.00
  -8  -6  -2   40.30    5.10
   8  -6   2   37.20    6.30
  -8   6  -2   60.69   10.80
   8   6   2   33.00    4.30
  -8   6  -2   34.20    4.10
  -8   6  -2   40.50    6.40
 -10  -6  -2   36.70    6.20
  10   6   2   36.60    5.50
 -10   6  -2   45.50    6.00
 -10   6  -2   55.09   12.80
 -11  -7   2   61.29    7.50
  11  -7  -2   66.09    6.30
 -11   7   2   59.49    9.80
  11   7  -2   57.49    7.50
  -9  -7   2   11.70    4.10
   9  -7  -2   22.20    7.30
   9  -7  -2   15.10    4.10
  -9   7   2   14.80    9.50
  -9   7   2    8.20    7.80
   9   7  -2   20.60    4.40
   7  -7  -2  202.28   11.80
  -7  -7   2  191.08   11.10
  -7   7   2  230.28   15.60
  -7   7   2  199.48   16.00
   7   7  -2  210.48   10.50
   5  -7  -2   15.20    4.60
   5  -7  -2   21.00    3.60
  -5  -7   2   19.70    4.10
   5   7  -2   20.70    4.00
  -5   7   2   30.60    6.20
   3  -7  -2  598.94   24.00
   3  -7  -2  610.14   25.30
   3   7  -2  582.34   24.70
   1  -7  -2  145.59    7.50
  -1  -7   2  143.79    7.40
  -1  -7  -2  206.78   10.00
  -3  -7  -2   18.30    3.70
  -3  -7  -2   17.70    3.50
   3   7   2   16.70    3.30
  -3   7  -2   23.30    3.40
  -5  -7  -2   29.00    4.80
  -5  -7  -2   29.30    4.60
   5   7   2   24.80    4.40
  -5   7  -2   32.20    7.10
  -5   7  -2   26.20    6.60
  -5   7  -2   30.50    6.00
  -5   7  -2   30.50    3.70
   7  -7   2   60.99    8.00
  -7  -7  -2   53.39    6.20
  -7   7  -2   54.79    5.00
  -7   7  -2   69.09    8.70
  -7   7  -2   66.79   10.30
   7   7   2   50.49    5.00
  -9  -7  -2   60.59    7.00
   9  -7   2   71.19    9.50
  -9   7  -2   60.99   10.90
  -9   7  -2   50.99    8.60
  -9   7  -2   50.29    5.70
  -8  -8   2    9.10    4.50
   8  -8  -2   -6.50    5.00
   8  -8  -2    2.10    7.90
  -8   8   2  -10.30   10.50
   8   8  -2    4.90    4.80
  -8   8   2   -9.50   11.80
   6  -8  -2   57.09    8.30
  -6  -8   2   66.59    6.20
   6   8  -2   68.19    7.30
   4  -8  -2   22.70    4.40
   4   8  -2   22.90    4.60
   2  -8  -2  268.17   12.10
   2   8  -2  249.28   12.70
   0  -8  -2   -2.10    3.50
  -2  -8  -2  233.58   11.40
  -2   8  -2  224.58   10.10
   2   8   2  214.88   11.20
  -4  -8  -2    7.50    4.60
  -4  -8  -2    0.80    3.70
   4   8   2    5.90    3.90
  -4   8  -2   -1.90    3.10
  -4   8  -2   12.70    7.40
  -6  -8  -2   12.40    4.70
   6   8   2   14.70    4.40
  -6   8  -2   14.00    7.70
  -6   8  -2   18.40    4.20
  -6   8  -2   12.70    7.50
  -8  -8  -2   56.99    7.10
   8  -8   2   15.80    7.80
  -8   8  -2   35.90   11.50
  -8   8  -2   52.99    6.70
  -8   8  -2   24.10   19.00
   5   9  -2   -3.30    5.50
   3  -9  -2   12.40    4.90
   3   9  -2   11.60    5.40
   1  -9  -2   30.50    5.20
   1   9  -2   30.60    5.90
  -1  -9  -2  154.68    9.10
  -1   9  -2  149.19    8.10
  -3  -9  -2   68.99    6.70
  -3   9  -2   64.99    5.30
   3   9   2   51.79    7.30
  -5  -9  -2  137.39    9.20
  -5   9  -2  108.89    7.30
   5   9   2  113.69    9.20
   0 -10  -2   -2.10    5.50
  14   0  -3   -1.40    4.20
 -14   0   3   -2.00    4.30
 -14   0   3   -7.50   13.20
  14   0  -3   10.20    6.70
  14   0  -3   -7.90   10.00
 -12   0   3    6.80    8.00
 -12   0   3    4.30    3.80
  12   0  -3  -11.10    6.90
  12   0  -3    2.10    3.50
  12   0  -3    3.80    4.50
  10   0  -3   12.60    5.50
 -10   0   3   12.10    6.20
  -8   0   3   -2.00    2.30
  -8   0   3    0.70    4.20
   8   0  -3    2.50    2.00
   8   0  -3    1.10    4.00
   8   0  -3    0.00    2.20
  -6   0   3    3.00    1.90
   6   0  -3    2.10    2.00
  -6   0   3   -2.80    3.40
   6   0  -3    2.00    1.40
   6   0  -3    0.70    2.50
   4   0  -3   -1.00    1.50
   4   0  -3   -1.90    1.80
   4   0  -3   -0.20    1.00
  -4   0   3   -0.80    1.40
   2   0  -3   -0.10    0.60
  -2   0   3   -0.90    0.80
   2   0  -3   -1.10    1.00
   2   0  -3   -1.20    0.80
   0   0  -3    0.10    0.50
   0   0  -3    0.40    0.40
   0   0  -3   -0.20    0.70
   0   0  -3    1.00    0.70
   0   0  -3    1.00    0.80
  -2   0  -3    0.90    1.00
  -2   0  -3    1.50    0.90
  -2   0  -3   -0.20    0.90
  -2   0  -3    0.10    0.70
  -4   0  -3   -0.30    0.90
   4   0   3   -0.40    1.00
  -4   0  -3   -0.80    1.40
  -4   0  -3    0.50    1.50
  -4   0  -3    0.90    1.60
  -6   0  -3    0.80    1.20
  -6   0  -3   -0.70    2.40
  -6   0  -3    1.00    2.10
   6   0   3   -1.00    1.50
  -8   0  -3   -4.00    3.80
   8   0   3    0.80    2.50
  -8   0  -3   -3.50    2.80
  -8   0  -3   -2.80    1.50
 -10   0  -3   -1.60    2.00
  10   0   3   -2.30    3.40
 -10   0  -3    7.10    5.50
 -10   0  -3   -1.70    3.30
 -12   0  -3   -3.50    7.90
 -12   0  -3    2.20    4.30
  12   0   3   -1.60    5.10
 -12   0  -3    5.20    3.00
  14   0   3    4.70    5.20
  14   0   3   14.80    8.70
  13  -1  -3    6.80    8.50
 -13  -1   3    3.00    4.10
 -13  -1   3    0.80   11.00
  13  -1  -3   11.30    5.60
  13  -1  -3   -0.40    3.80
  13   1  -3    3.50    4.00
  13   1  -3   -0.30    8.80
 -13   1   3    9.00    4.80
 -13   1   3    2.80   10.20
  13   1  -3    5.20    5.40
 -11  -1   3   31.50    4.80
  11  -1  -3   40.90    5.30
 -11  -1   3   50.39    7.90
  11  -1  -3   34.80    4.80
  11  -1  -3   28.40    6.60
  11   1  -3   36.40    4.80
  11   1  -3   32.00    4.70
 -11   1   3   47.70    8.30
  11   1  -3   47.10    8.80
 -11   1   3   37.40    5.50
   9  -1  -3   14.70    3.10
  -9  -1   3   10.20    3.40
  -9  -1   3   21.30    5.70
   9  -1  -3   13.80    5.20
   9  -1  -3   16.10    3.40
   9   1  -3   15.60    2.70
   9   1  -3   10.90    3.40
  -9   1   3   10.50    4.70
  -9   1   3   10.50    3.30
   9   1  -3   17.20    5.10
  -7  -1   3    3.30    2.20
  -7  -1   3    2.30    3.50
   7  -1  -3    4.90    2.20
   7  -1  -3    6.70    2.30
   7  -1  -3    3.10    3.70
   7   1  -3    4.70    1.80
  -7   1   3    3.30    2.50
   7   1  -3    0.10    3.10
  -7   1   3    1.70    3.70
   5  -1  -3   49.90    3.20
   5  -1  -3   49.50    4.80
  -5  -1   3   52.99    3.50
   5  -1  -3   48.50    3.20
   5   1  -3   52.29    2.90
  -5   1   3   49.20    3.30
   5   1  -3   43.20    4.20
   3  -1  -3   89.39    3.90
   3  -1  -3   75.79    4.90
   3  -1  -3   81.39    4.00
  -3  -1   3   88.09    4.30
   3   1  -3   75.99    4.40
   3   1  -3   84.69    3.90
   3   1  -3   89.39    4.20
   1  -1  -3  259.97   10.80
   1  -1  -3  264.47   10.50
   1  -1  -3  283.17   10.60
   1   1  -3  269.37   10.70
   1   1  -3  260.67   10.60
   1   1  -3  288.27   10.50
   1   1  -3  268.07   10.50
  -1  -1  -3  291.37   10.90
  -1  -1  -3  283.77   11.10
  -1  -1  -3  294.07   11.10
  -1   1  -3  273.97   11.10
   1   1   3  277.87   11.10
  -1   1  -3  252.87   11.10
  -1   1  -3  286.37   10.90
   3  -1   3   95.09    4.50
  -3  -1  -3  100.19    4.40
  -3  -1  -3  101.59    4.80
  -3  -1  -3  103.39    4.90
   3   1   3   94.79    4.90
  -3   1  -3   96.99    4.60
  -3   1  -3  105.39    4.60
  -3   1  -3   91.99    5.10
  -5  -1  -3  118.59    5.90
   5  -1   3  109.49    5.40
  -5  -1  -3  117.29    5.90
  -5  -1  -3  109.19    5.20
  -5   1  -3  121.09    5.70
  -5   1  -3  108.39    6.50
  -5   1  -3  113.49    5.30
  -7  -1  -3   12.10    2.10
   7  -1   3    7.10    2.20
  -7  -1  -3    6.10    2.80
  -7  -1  -3    8.20    2.80
  -7   1  -3    4.80    2.40
   7   1   3    7.20    1.90
  -7   1  -3   10.20    3.60
  -7   1  -3    6.40    1.70
   9  -1   3  146.39    8.20
  -9  -1  -3  145.99    8.70
  -9  -1  -3  157.38    7.20
  -9  -1  -3  158.58    9.60
   9   1   3  151.88    7.60
  -9   1  -3  139.29    8.20
  -9   1  -3  154.38    7.20
  -9   1  -3  157.18   10.50
 -11  -1  -3   59.39    6.60
  11  -1   3   65.99    7.00
 -11  -1  -3   52.79    7.50
 -11  -1  -3   51.89    4.40
 -11   1  -3   58.69    4.70
 -11   1  -3   52.09   10.10
 -11   1  -3   52.79    6.00
  11   1   3   51.39    5.60
 -13  -1  -3    0.10   10.00
 -13  -1  -3    0.40    5.60
  13  -1   3    4.90    4.90
  13  -1   3    9.60    6.60
  13   1   3   -1.50    5.80
 -13   1  -3   -3.20    4.70
 -13   1  -3    1.50    9.80
 -13   1  -3    1.10    3.60
 -14  -2   3    8.60    4.60
  14  -2  -3    7.70    4.10
  14  -2  -3   -4.40    7.80
  14  -2  -3    4.80   13.00
 -14   2   3    2.00    5.10
  14   2  -3    4.50    4.70
  14   2  -3    4.20    6.90
  14   2  -3    6.00   10.30
 -14   2   3   30.50   12.40
 -12  -2   3    0.60    3.70
  12  -2  -3    5.20    4.90
  12  -2  -3  -10.30    7.60
  12  -2  -3    2.00    3.70
 -12   2   3  -10.00    4.30
  12   2  -3   -1.40    3.40
  12   2  -3    2.40    4.10
  12   2  -3   -7.50    7.00
 -12   2   3   12.50    8.80
  10  -2  -3   52.29    4.70
  10  -2  -3   51.69    5.60
 -10  -2   3   48.60    5.30
  10  -2  -3   48.90    8.30
  10   2  -3   51.69    4.80
 -10   2   3   59.09   10.80
 -10   2   3   49.60    5.30
  10   2  -3   60.89    7.60
   8  -2  -3   50.19    4.40
   8  -2  -3   49.90    4.10
  -8  -2   3   50.19    4.60
   8  -2  -3   46.70    7.40
  -8   2   3   41.90    4.10
   8   2  -3   55.99    5.90
   8   2  -3   48.60    3.80
  -8   2   3   54.69    4.50
  -8   2   3   46.20    7.90
   6  -2  -3  380.06   17.40
   6  -2  -3  390.86   16.10
   6  -2  -3  397.46   15.70
  -6  -2   3  389.46   16.30
   6   2  -3  388.06   15.50
  -6   2   3  377.16   17.50
   6   2  -3  368.76   16.50
  -4  -2   3   44.00    3.30
   4  -2  -3   44.20    3.00
   4  -2  -3   34.30    3.90
   4  -2  -3   43.90    2.70
   4   2  -3   41.90    2.60
   4   2  -3   44.60    3.50
   2  -2  -3   94.39    4.40
  -2  -2   3   94.79    4.50
   2  -2  -3   97.79    4.30
   2   2  -3   95.99    4.40
  -2   2   3   85.69    4.90
   0  -2  -3 1031.10   40.10
   0  -2  -3 1029.50   39.40
   0  -2  -3 1107.29   39.70
   0   2  -3  988.20   39.50
   0   2  -3 1074.59   39.90
   2  -2   3    1.10    1.10
  -2  -2  -3    2.00    1.30
  -2  -2  -3    2.00    1.50
  -2  -2  -3   -0.80    1.40
  -2   2  -3    0.30    1.40
  -2   2  -3   -0.20    1.20
  -2   2  -3    1.80    1.10
  -4  -2  -3  181.68    8.10
   4  -2   3  177.38    7.90
  -4  -2  -3  148.89    7.90
  -4  -2  -3  187.38    7.80
  -4   2  -3  182.58    7.50
  -4   2  -3  183.58    8.00
  -4   2  -3  170.88    8.60
   4   2   3  170.28    8.10
  -6  -2  -3    4.00    1.70
  -6  -2  -3    3.70    2.60
   6  -2   3    4.50    2.00
  -6  -2  -3    0.20    2.30
  -6   2  -3   11.60    3.80
  -6   2  -3    5.60    2.00
   6   2   3    6.10    2.70
  -6   2  -3    6.30    2.00
  -8  -2  -3    3.50    3.00
   8  -2   3   12.30    3.10
  -8  -2  -3    6.40    2.10
   8  -2   3   10.80    3.20
   8   2   3    6.10    4.70
  -8   2  -3   19.50    3.50
  -8   2  -3   11.90    2.40
  -8   2  -3   21.00    5.70
 -10  -2  -3  121.79    8.60
 -10  -2  -3  127.69    7.00
  10  -2   3  125.49    8.10
  10  -2   3  134.69    7.70
 -10   2  -3  134.09    7.00
 -10   2  -3  129.69    7.80
 -10   2  -3  144.79   10.90
  10   2   3  124.79    7.00
 -12  -2  -3    7.70    5.10
  12  -2   3    0.60    4.50
  12  -2   3   14.60    6.10
 -12   2  -3  -15.60    9.10
 -12   2  -3    3.20    3.10
 -12   2  -3    5.50    4.50
  12   2   3    0.60    4.30
 -14  -2  -3   -3.10    5.30
  14  -2   3   -3.60    8.70
  14  -2   3   -1.00    5.40
  14   2   3   -1.60    7.60
 -14   2  -3    0.70    5.30
 -14   2  -3   -3.60   13.80
 -14   2  -3    0.60    4.80
 -13  -3   3   17.60    5.20
  13  -3  -3    9.60    4.10
  13  -3  -3   12.30    7.50
  13  -3  -3    4.90   11.90
  13   3  -3   21.30    6.10
 -13   3   3   21.90   12.10
 -13   3   3   18.40    5.70
  13   3  -3   23.00    9.20
 -13   3   3   18.60    4.40
  11  -3  -3   17.80    5.10
 -11  -3   3   12.70    4.40
  11  -3  -3   12.60    3.40
  11  -3  -3   -0.10    7.10
  11   3  -3    2.60    3.70
 -11   3   3   11.20    4.50
 -11   3   3   11.80    3.90
 -11   3   3   15.10    7.70
  11   3  -3    2.90    6.40
   9  -3  -3  129.69    9.90
   9  -3  -3  137.59    8.00
  -9  -3   3  128.29    7.90
   9  -3  -3  135.99    7.10
  -9   3   3  134.79    7.80
   9   3  -3  133.79    9.20
  -9   3   3  124.69   10.40
  -9   3   3  133.79    7.40
   9   3  -3  130.89    6.90
  -7  -3   3  102.89    6.40
   7  -3  -3  110.79    5.60
   7  -3  -3  103.79    6.30
   7  -3  -3  102.59    8.00
   7   3  -3  109.49    5.60
  -7   3   3  108.09    9.30
   5  -3  -3   43.20    3.40
   5  -3  -3   53.99    4.10
   5  -3  -3   62.89    5.70
  -5  -3   3   59.19    4.30
   5   3  -3   54.59    3.40
   3  -3  -3   13.20    2.00
   3  -3  -3   10.90    1.80
  -3  -3   3    6.80    1.90
   3   3  -3   11.90    1.90
  -3   3   3    8.10    2.30
   1  -3  -3   66.19    3.60
   1  -3  -3   64.09    3.60
  -1  -3  -3  174.78    7.20
  -1  -3  -3  166.68    7.30
  -1   3  -3  153.98    7.30
  -1   3  -3  168.48    7.90
   3  -3   3   52.59    3.60
  -3  -3  -3   55.49    3.70
  -3  -3  -3   53.09    3.90
  -3  -3  -3   52.09    3.80
  -3   3  -3   49.00    3.90
  -3   3  -3   59.29    3.10
  -3   3  -3   49.90    4.20
  -5  -3  -3  174.58    8.30
  -5  -3  -3  181.78    8.60
   5  -3   3  177.28    8.30
  -5  -3  -3  176.88    8.60
  -5   3  -3  165.38    9.40
  -5   3  -3  178.28    8.50
  -5   3  -3  175.68    7.80
   7  -3   3    7.50    2.90
  -7  -3  -3    8.60    2.70
  -7  -3  -3    4.90    3.30
  -7   3  -3    1.90    2.60
  -7   3  -3   -1.30    4.90
  -7   3  -3    5.20    2.20
  -9  -3  -3  169.58   10.10
   9  -3   3  185.28    9.70
   9  -3   3  176.58    8.80
  -9   3  -3  177.68    9.10
  -9   3  -3  184.18   12.60
  -9   3  -3  182.78    9.40
   9   3   3  189.68   11.90
  11  -3   3   19.80    4.30
  11  -3   3   24.30    5.60
 -11  -3  -3   24.20    4.80
  11   3   3   25.20    9.80
 -11   3  -3   20.80    4.80
 -11   3  -3   25.70    8.50
 -11   3  -3   21.30    3.70
  11   3   3   17.00    4.20
  13  -3   3   19.10    7.80
  13  -3   3    0.70    4.40
 -13  -3  -3   -1.50    5.00
 -13   3  -3    5.70    5.10
 -13   3  -3   -0.70    4.30
  13   3   3   11.10    6.00
 -13   3  -3   -6.00   12.00
  14  -4  -3   -6.90    9.50
  14  -4  -3   17.70    4.40
 -14  -4   3   11.00    5.10
 -14   4   3   26.20   17.40
 -14   4   3   30.60    6.00
 -14   4   3   19.00    6.60
  12  -4  -3   11.60   10.70
  12  -4  -3   21.90    4.10
 -12  -4   3   14.70    4.70
  12  -4  -3   16.00    7.30
  12   4  -3   19.80    5.20
 -12   4   3   17.80    4.90
 -12   4   3   36.30   10.20
 -12   4   3   25.20    5.70
  10  -4  -3    2.90    5.30
 -10  -4   3    5.10    3.40
  10  -4  -3    4.20    3.00
  10  -4  -3    7.30    6.70
  10   4  -3    1.10    2.90
 -10   4   3    1.00    3.90
 -10   4   3   -5.70    7.00
 -10   4   3    4.80    3.80
   8  -4  -3   82.39    5.10
   8  -4  -3   96.39    8.40
  -8  -4   3   74.39    5.90
   8  -4  -3   79.59    6.60
   8   4  -3   72.69    5.00
  -8   4   3   76.59    8.90
   6  -4  -3  125.39    6.10
   6  -4  -3  114.39    8.10
  -6  -4   3  123.99    7.20
   6  -4  -3  128.59    7.00
   6   4  -3  128.19    6.30
  -6   4   3  116.49    9.70
   4  -4  -3  166.68    8.30
   4  -4  -3  175.38    7.60
  -4  -4   3  171.98    8.40
   4   4  -3  175.18    7.90
  -4   4   3  165.98    9.20
   2  -4  -3   20.00    2.60
   2  -4  -3   15.10    2.30
   2   4  -3   14.80    2.10
   0  -4  -3    3.10    1.60
   0  -4  -3    3.20    1.70
  -2  -4  -3   68.19    4.20
  -2  -4  -3   66.19    4.10
  -2   4  -3   67.69    3.60
  -2   4  -3   64.89    4.90
  -2   4  -3   60.99    4.60
  -2   4  -3   65.39    5.00
   4  -4   3    1.70    2.10
  -4  -4  -3    0.40    2.30
  -4  -4  -3    3.00    2.20
  -4   4  -3    0.80    2.50
   4   4   3    5.00    1.40
  -4   4  -3    3.40    3.30
  -4   4  -3    2.40    1.90
  -6  -4  -3   26.00    4.10
   6  -4   3   22.60    4.00
  -6  -4  -3   23.70    3.50
  -6  -4  -3   27.00    4.00
  -6   4  -3   27.50    3.00
  -6   4  -3   31.30    5.60
  -6   4  -3   22.20    3.60
   8  -4   3    3.00    3.50
  -8  -4  -3    2.30    3.50
  -8   4  -3   -2.70    3.40
  -8   4  -3    1.80    6.60
  -8   4  -3   -2.50    2.70
  10  -4   3    6.30    5.00
 -10  -4  -3   13.20    4.80
  10  -4   3   11.40    3.60
 -10   4  -3   26.00    7.50
 -10   4  -3   12.50    4.10
 -10   4  -3   20.50    4.40
 -12  -4  -3   -5.60    4.70
  12  -4   3    6.60    7.40
  12  -4   3   -2.90    3.90
 -12   4  -3   -6.70    4.60
 -12   4  -3    5.30    4.90
 -13  -5   3    2.50    4.90
  13  -5  -3    4.60    4.80
  13  -5  -3   -5.60    9.70
  13  -5  -3   22.70   18.80
  13   5  -3    4.00    6.40
 -13   5   3   31.00   13.70
 -13   5   3   -3.00    6.60
  11  -5  -3   -0.40    3.70
  11  -5  -3   -7.30    6.60
  11  -5  -3  -19.30   11.10
 -11  -5   3   -1.80    4.20
  11   5  -3   -2.10    4.20
 -11   5   3   -4.70    5.50
 -11   5   3   23.60    9.60
  -9  -5   3   52.49    5.90
   9  -5  -3   46.30    4.40
   9  -5  -3   53.69    7.00
   9  -5  -3   65.89   10.40
   9   5  -3   56.29    4.90
  -9   5   3   55.09   10.00
   7  -5  -3    1.20    2.50
   7  -5  -3    2.40    3.70
  -7  -5   3    0.60    3.00
   7  -5  -3   11.90    4.90
  -7   5   3   11.40    5.40
   7   5  -3    0.60    2.10
  -5  -5   3    6.80    2.80
   5  -5  -3    9.70    3.00
   5  -5  -3    9.10    2.40
  -5   5   3   12.70    4.80
   5   5  -3   13.40    2.50
  -5   5   3   12.10    4.30
   3  -5  -3   34.00    3.50
   3  -5  -3   39.20    3.70
   3   5  -3   34.10    3.20
   1  -5  -3   38.10    3.30
   1  -5  -3   37.30    3.30
  -1  -5  -3   72.19    4.70
  -3  -5  -3   11.30    3.00
  -3  -5  -3   10.80    2.80
  -3   5  -3   13.30    3.60
  -3   5  -3    8.90    3.70
  -3   5  -3   12.10    3.20
   3   5   3   11.50    2.00
  -3   5  -3   12.80    2.00
   5  -5   3    9.40    3.20
  -5  -5  -3    7.60    3.40
  -5  -5  -3    8.70    3.10
  -5   5  -3    7.60    2.30
  -5   5  -3    8.20    3.90
   5   5   3    8.50    2.00
  -5   5  -3   10.20    3.50
   7  -5   3   90.79    6.80
  -7  -5  -3   90.49    6.80
  -7  -5  -3   87.39    6.70
  -7   5  -3  112.79    9.70
  -7   5  -3   93.89    5.70
   7   5   3   89.99    5.10
  -7   5  -3  105.69    7.40
  -9  -5  -3   -0.50    3.80
   9  -5   3    5.70    5.20
  -9   5  -3    2.00    6.90
  -9   5  -3    7.70    3.40
  -9   5  -3    0.40    4.60
 -11  -5  -3   20.20    5.50
  11  -5   3   25.60    7.30
 -11   5  -3   21.30    5.50
 -11   5  -3   23.50    6.00
 -11   5  -3   44.20   10.50
  12  -6  -3    1.10    4.60
  12  -6  -3   -7.10    6.90
 -12  -6   3    3.00    4.60
  12   6  -3    4.20    6.10
 -12   6   3   11.90    7.20
 -12   6   3    5.60   13.10
  10  -6  -3   21.40    4.00
 -10  -6   3   14.90    4.80
  10  -6  -3   23.10    6.80
  10  -6  -3    0.10   12.30
  10   6  -3   14.30    4.40
 -10   6   3   16.70    6.90
 -10   6   3   33.40    9.90
   8  -6  -3   10.90    5.00
   8  -6  -3   -1.10   10.00
   8  -6  -3   11.10    3.30
  -8  -6   3   15.10    3.90
  -8   6   3    8.20    7.00
   8   6  -3    4.10    3.00
   6  -6  -3   11.00    4.00
   6  -6  -3    9.00    3.00
  -6  -6   3    8.20    3.40
  -6   6   3    6.90    5.90
  -6   6   3   -1.80    5.70
   6   6  -3    5.20    3.00
   4  -6  -3   55.69    5.20
   4  -6  -3   57.69    4.40
   4   6  -3   44.90    4.50
   2  -6  -3   23.20    3.10
   2   6  -3   23.30    3.40
   0  -6  -3   39.50    3.80
  -2  -6  -3    6.80    2.60
  -2  -6  -3   18.00    4.00
  -2   6  -3   14.10    2.40
  -4  -6  -3   70.09    5.60
  -4  -6  -3   78.79    5.80
  -4   6  -3   75.99    4.60
  -4   6  -3   73.29    7.00
  -4   6  -3   88.79    8.10
   4   6   3   79.39    5.00
  -4   6  -3   66.79    7.40
  -6  -6  -3    2.40    3.50
   6  -6   3   10.20    4.30
  -6  -6  -3    7.40    3.70
   6   6   3    5.70    2.20
  -6   6  -3    5.90    5.70
  -6   6  -3   11.80    4.70
  -6   6  -3    8.30    3.20
   8  -6   3   -4.60    4.90
  -8  -6  -3    2.80    4.10
  -8   6  -3    7.80    5.30
   8   6   3   -0.50    2.70
  -8   6  -3    5.20    4.10
  -8   6  -3    0.20    7.70
  10  -6   3   11.20    7.10
 -10  -6  -3   13.20    5.10
 -10   6  -3    8.10    4.40
 -10   6  -3   12.90    9.90
 -10   6  -3   -5.70    6.10
  11  -7  -3   17.20    5.00
 -11  -7   3   10.70    4.30
 -11   7   3   24.30    9.10
  11   7  -3    1.40    5.80
   9  -7  -3   -2.80    6.80
   9  -7  -3    4.60    4.00
  -9  -7   3    5.20    4.20
  -9   7   3   17.60   10.30
   9   7  -3    7.00    4.80
   7  -7  -3   28.30    5.60
  -7  -7   3   26.00    4.80
   7  -7  -3   35.70    4.70
   7   7  -3   33.30    5.30
  -7   7   3   24.00    8.40
   5  -7  -3    4.20    3.80
   5  -7  -3    9.90    4.60
   5   7  -3   17.50    3.90
  -5   7   3   10.10    6.30
   3  -7  -3    7.80    2.90
   3   7  -3   10.10    3.30
   1  -7  -3   -1.60    3.00
  -1  -7  -3   53.39    5.00
  -3  -7  -3   18.60    3.50
  -3  -7  -3   14.10    4.10
  -3   7  -3   24.00    3.60
  -3   7  -3   25.20    5.90
   3   7   3   22.20    3.80
  -5  -7  -3    0.90    3.70
  -5  -7  -3   -1.50    3.60
  -5   7  -3    3.40    3.00
  -5   7  -3   -8.60    7.50
  -5   7  -3   -0.30    5.50
   5   7   3    2.50    3.20
  -5   7  -3    9.10    5.20
  -7  -7  -3    8.70    4.70
  -7  -7  -3   16.70    4.90
   7  -7   3   13.70    6.60
  -7   7  -3   16.50    3.90
  -7   7  -3   18.10    6.30
   7   7   3   23.80    3.70
  -7   7  -3   22.10    7.40
  -9  -7  -3   -4.00    4.60
   9  -7   3   -3.80    7.30
  -9   7  -3    9.80    7.40
  -9   7  -3  -13.30   10.20
   9   7   3   -6.90    4.00
  -9   7  -3    0.80    4.10
   8  -8  -3    4.70    8.10
   8  -8  -3   -3.00    4.80
  -8  -8   3   -0.60    4.20
  -8   8   3  -10.70   11.60
  -8   8   3  -12.80   10.80
   6  -8  -3   21.50    4.70
   6  -8  -3   25.40    6.60
   6   8  -3   22.60    5.50
   4  -8  -3   25.40    4.40
   4  -8  -3   47.00    6.50
   4   8  -3   34.50    5.40
   2  -8  -3   13.00    3.70
   2   8  -3   21.60    4.30
   0  -8  -3    9.50    4.30
  -2  -8  -3   51.49    5.50
  -2   8  -3   46.90    4.60
   2   8   3   52.89    5.60
  -4  -8  -3    7.70    4.40
  -4  -8  -3    9.50    3.70
  -4   8  -3    0.10    3.20
   4   8   3    6.00    3.90
  -4   8  -3   10.20    7.40
  -6  -8  -3    7.80    4.70
  -6  -8  -3    3.80    4.00
  -6   8  -3    7.40   10.40
  -6   8  -3   10.70    3.90
  -6   8  -3   14.10    7.60
  -8   8  -3    6.60   27.60
   8   8   3    3.60    4.50
  -8   8  -3    1.00   11.70
  -8   8  -3    6.40    4.80
   5  -9  -3    8.30    4.60
   5   9  -3   -6.50    5.90
   3  -9  -3   13.10    4.70
   3   9  -3   -7.00    5.30
   1  -9  -3    6.80    5.10
   1   9  -3   -1.10    5.10
  -1  -9  -3   30.80    5.60
  -1   9  -3   22.50    4.30
  -3  -9  -3   -6.70    4.70
  -3   9  -3   25.30    9.40
   3   9   3    2.30    5.10
  -3   9  -3    7.70    3.90
  -5  -9  -3   35.20    6.10
  -5  -9  -3   29.60    5.30
   5   9   3   29.00    5.90
  -5   9  -3   11.60    6.20
  -5   9  -3   22.00    4.50
  14   0  -4    0.90    4.20
 -14   0   4   11.70   13.40
 -14   0   4   -1.10    4.50
  14   0  -4    5.30    6.20
  14   0  -4    2.70   10.20
 -12   0   4    5.50    4.00
 -12   0   4   18.70    8.20
  12   0  -4   13.50    4.20
  12   0  -4   -0.10    7.20
  12   0  -4   10.40    4.70
  10   0  -4  101.19    9.80
  10   0  -4   90.99    6.50
  10   0  -4  101.39    6.40
 -10   0   4   95.99    6.50
 -10   0   4  107.79   10.00
   8   0  -4   34.20    5.20
   8   0  -4   32.60    3.80
   8   0  -4   30.50    3.40
  -8   0   4   32.50    3.60
   6   0  -4 1066.79   40.90
  -6   0   4 1093.59   41.10
   6   0  -4 1076.09   41.10
   6   0  -4 1028.20   42.10
   4   0  -4  623.34   26.30
   4   0  -4  683.13   25.80
  -4   0   4  697.73   25.70
   4   0  -4  651.73   25.60
   2   0  -4 2092.69   78.39
   2   0  -4 1932.21   78.79
   2   0  -4 2256.97   78.39
   0   0  -4  714.53   24.90
   0   0  -4  628.04   24.80
   0   0  -4  689.83   24.80
   0   0  -4  621.84   25.10
   0   0  -4  625.34   24.70
  -2   0  -4   17.10    1.50
  -2   0  -4   16.80    1.80
  -2   0  -4   20.10    1.80
  -2   0  -4   19.30    1.70
  -4   0  -4  696.23   26.90
  -4   0  -4  676.13   27.60
  -4   0  -4  734.73   27.30
   6   0   4   20.90    2.60
  -6   0  -4   20.40    3.90
  -6   0  -4   19.80    3.00
  -6   0  -4   19.50    2.20
  -8   0  -4   21.00    4.20
   8   0   4   19.50    3.10
  -8   0  -4   14.70    2.60
  -8   0  -4   14.90    3.30
 -10   0  -4  111.59    9.60
 -10   0  -4   94.69    7.10
 -10   0  -4  108.39    5.70
  10   0   4  107.29    7.10
 -12   0  -4   -3.40    4.80
 -12   0  -4    0.20    3.40
 -12   0  -4   -5.70    8.50
  12   0   4    0.80    5.40
  13  -1  -4   69.59    7.80
  13  -1  -4   58.09    6.00
 -13  -1   4   91.59   14.90
 -13  -1   4   58.19    6.40
  13  -1  -4   63.39   12.10
  13   1  -4   57.49    9.40
  13   1  -4   65.99    7.90
 -13   1   4   85.69   14.70
  13   1  -4   60.59    5.90
 -13   1   4   55.69    6.60
  11  -1  -4  158.58    8.80
  11  -1  -4  139.19   11.80
 -11  -1   4  152.48    8.80
  11  -1  -4  139.99    8.20
 -11  -1   4  158.88   11.70
 -11   1   4  155.28   12.00
 -11   1   4  145.79    8.70
  11   1  -4  160.68   12.30
  11   1  -4  163.48    8.50
  11   1  -4  143.69    8.90
   9  -1  -4  134.29    7.50
  -9  -1   4  129.49    7.50
   9  -1  -4  134.59    7.40
  -9  -1   4  135.49   10.40
   9  -1  -4  149.88   10.20
  -9   1   4  133.49    7.40
  -9   1   4  156.08   11.10
   9   1  -4  129.49    9.50
   9   1  -4  139.29    7.20
   9   1  -4  135.49    7.70
   7  -1  -4   28.30    5.20
  -7  -1   4   31.90    3.40
   7  -1  -4   24.10    2.80
   7  -1  -4   25.10    3.20
   7   1  -4   29.00    4.60
   7   1  -4   23.30    3.20
  -7   1   4   30.00    3.10
   7   1  -4   27.00    2.90
   5  -1  -4  646.64   25.20
  -5  -1   4  672.43   25.40
   5  -1  -4  652.33   25.10
   5  -1  -4  599.84   26.10
   5   1  -4  628.24   25.80
  -5   1   4  653.13   24.80
   5   1  -4  640.74   25.20
   5   1  -4  643.54   24.90
   3  -1  -4  971.40   40.10
   3  -1  -4 1105.99   39.40
   3  -1  -4 1026.60   39.40
  -3  -1   4 1068.29   39.60
   3   1  -4 1004.30   39.80
   3   1  -4 1074.29   39.40
   3   1  -4 1013.90   39.40
   1  -1  -4 9868.21  335.67
   1  -1  -4 9331.67  335.87
   1  -1  -4 8861.41  335.47
   1   1  -4 8098.39  335.37
   1   1  -4 9999.00  335.47
   1   1  -4 8644.83  335.87
   1   1  -4 8342.17  335.67
  -1  -1  -4  111.29    5.00
  -1  -1  -4  110.39    4.90
  -1  -1  -4  121.29    4.80
  -1   1  -4  107.79    4.80
  -1   1  -4  104.59    5.00
   1   1   4   93.39    4.90
  -1   1  -4  114.69    4.70
  -3  -1  -4 2197.98   87.79
  -3  -1  -4 2475.35   88.09
   3  -1   4 2295.17   87.79
  -3  -1  -4 2409.36   88.19
  -3   1  -4 2340.77   87.79
  -3   1  -4 2316.87   87.89
  -3   1  -4 2456.85   87.69
  -3   1  -4 2242.58   88.39
  -5  -1  -4   -1.90    2.10
   5  -1   4   -0.90    1.40
  -5  -1  -4    3.70    1.60
  -5  -1  -4    0.60    2.10
  -5  -1  -4    0.40    1.20
  -5   1  -4    1.80    2.20
  -5   1  -4   -1.60    1.30
  -5   1  -4    0.30    1.60
  -7  -1  -4  306.37   14.10
  -7  -1  -4  313.27   13.00
  -7  -1  -4  312.07   14.00
   7  -1   4  312.87   13.40
  -7   1  -4  321.77   13.70
  -7   1  -4  329.47   13.10
  -7   1  -4  319.87   14.80
  -9  -1  -4  129.29    8.00
   9  -1   4  125.09    7.30
  -9  -1  -4  131.09    8.40
  -9  -1  -4  123.99    6.50
  -9   1  -4  127.79    6.60
   9   1   4  128.69    6.80
  -9   1  -4  129.29    9.50
  -9   1  -4  125.69    7.80
  11  -1   4   36.00    6.40
 -11  -1  -4   48.70    8.80
 -11  -1  -4   34.00    4.50
 -11  -1  -4   44.10    6.30
 -11   1  -4   36.90    7.70
  11   1   4   43.20    5.50
 -11   1  -4   33.50    4.70
 -11   1  -4   40.00    5.40
  13  -1   4   31.70    7.20
  13  -1   4   30.60    5.80
 -13  -1  -4   30.70    4.70
 -13  -1  -4   33.90    9.60
 -13  -1  -4   35.20    6.70
  13   1   4   43.30    7.00
 -13   1  -4   33.60    4.40
 -13   1  -4   46.90   11.30
 -13   1  -4   27.30    6.10
  14  -2  -4    1.70    4.10
  14  -2  -4   19.10   11.20
 -14  -2   4    6.30    4.80
  14  -2  -4   -3.50    7.00
  14   2  -4   -1.80    6.80
 -14   2   4   -2.90    4.90
  14   2  -4    4.00   10.60
  14   2  -4    8.70    4.60
 -14   2   4  -10.30   14.10
  12  -2  -4    6.70    7.80
 -12  -2   4    3.70    3.90
  12  -2  -4    1.90    3.60
  12  -2  -4    3.90    5.10
 -12   2   4   14.20    8.50
  12   2  -4    1.30    4.30
  12   2  -4    1.20    7.40
  12   2  -4   -0.70    3.90
 -12   2   4    0.50    4.30
 -10  -2   4    5.20    3.40
  10  -2  -4    9.60    3.70
  10  -2  -4   -1.40    5.80
  10  -2  -4    3.00    2.90
  10   2  -4    6.10    5.40
  10   2  -4   -0.40    3.00
 -10   2   4   -6.20    6.60
  10   2  -4   -1.60    3.20
 -10   2   4    4.30    3.90
   8  -2  -4   11.50    2.80
   8  -2  -4    6.80    2.90
  -8  -2   4    3.20    2.90
   8  -2  -4    5.10    4.30
   8   2  -4   13.10    3.80
  -8   2   4    7.20    5.70
   8   2  -4   11.90    2.30
  -8   2   4    9.10    3.10
  -6  -2   4   25.10    3.50
   6  -2  -4   37.60    5.10
   6  -2  -4   27.50    2.80
   6  -2  -4   25.70    3.20
   6   2  -4   29.70    2.60
   6   2  -4   29.60    4.50
  -4  -2   4    3.70    1.70
   4  -2  -4    7.30    1.70
   4  -2  -4    4.70    2.40
   4  -2  -4    8.10    1.80
   4   2  -4    7.20    1.90
   4   2  -4    5.70    1.30
   2  -2  -4 1112.19   41.90
   2  -2  -4 1169.48   41.90
  -2   2   4  976.10   42.30
   2   2  -4 1087.09   41.90
   2   2  -4 1100.99   42.00
   2   2  -4 1186.18   41.80
   0  -2  -4   57.99    3.20
   0  -2  -4   55.49    2.70
   0  -2  -4   55.69    3.50
   0   2  -4   56.49    3.20
   0   2  -4   53.59    3.20
   0   2   4   56.99    3.10
  -2  -2  -4  235.88   10.20
  -2  -2  -4  248.08   10.00
  -2  -2  -4  249.18   10.20
  -2   2  -4  237.48    9.70
  -2   2  -4  235.48   10.10
  -2   2  -4  229.38   10.20
  -4  -2  -4   34.30    3.20
   4  -2   4   38.70    2.90
  -4  -2  -4   43.30    3.40
  -4  -2  -4   40.20    3.10
  -4   2  -4   34.90    4.00
  -4   2  -4   37.30    3.20
  -4   2  -4   38.70    2.90
  -6  -2  -4  211.18   10.10
  -6  -2  -4  212.18    9.40
   6  -2   4  214.58    9.60
  -6  -2  -4  216.58   10.10
   6   2   4  199.88   10.50
  -6   2  -4  214.28   10.80
  -6   2  -4  210.58    9.50
  -6   2  -4  213.28    9.50
   8  -2   4   60.89    4.80
  -8  -2  -4   49.50    5.20
  -8  -2  -4   46.90    4.10
  -8   2  -4   51.79    4.10
  -8   2  -4   43.00    7.00
  -8   2  -4   59.29    4.60
   8   2   4   37.40    6.60
 -10  -2  -4   51.49    6.20
  10  -2   4   61.69    5.20
  10  -2   4   75.09    6.20
 -10  -2  -4   57.49    5.20
 -10   2  -4   59.69    4.80
 -10   2  -4   50.19    5.60
 -10   2  -4   64.39    9.50
 -12  -2  -4   15.50    5.60
  12  -2   4   19.00    5.00
  12  -2   4   10.80    5.90
 -12  -2  -4   11.10    4.40
  12   2   4   14.00    5.20
 -12   2  -4   11.90    8.80
 -12   2  -4   21.50    4.10
 -12   2  -4   15.40    4.90
  13  -3  -4   46.80    5.50
  13  -3  -4   38.60   10.50
 -13  -3   4   42.00    6.50
  13  -3  -4   58.39    9.10
  13   3  -4   77.99   12.40
  13   3  -4   46.40    7.30
 -13   3   4   83.59   15.80
 -13   3   4   51.09    6.60
  13   3  -4   57.19    6.20
  11  -3  -4    4.20    3.30
  11  -3  -4    9.60    7.20
  11  -3  -4    6.80    4.90
 -11  -3   4    1.30    3.90
 -11   3   4   -2.50    4.30
 -11   3   4   10.40    3.60
  11   3  -4    3.90    6.80
  11   3  -4    9.90    3.90
 -11   3   4   13.20    9.10
   9  -3  -4  383.16   17.30
  -9  -3   4  360.36   17.40
   9  -3  -4  409.66   19.50
   9  -3  -4  386.16   16.40
  -9   3   4  424.16   20.20
   9   3  -4  378.46   16.30
   7  -3  -4   87.99    4.90
   7  -3  -4   78.29    7.70
   7  -3  -4   89.29    5.90
  -7  -3   4   81.79    5.90
   7   3  -4   88.19    4.90
  -7   3   4   89.49    8.80
   5  -3  -4 1163.78   45.50
   5  -3  -4 1128.99   46.40
   5  -3  -4 1226.88   45.00
  -5  -3   4 1199.28   45.80
   5   3  -4 1171.88   45.20
   3  -3  -4  276.77   10.90
   3  -3  -4  262.17   11.20
  -3  -3   4  273.87   11.40
  -3   3   4  254.47   11.80
   3   3  -4  259.87   11.10
   1  -3  -4    2.60    1.20
   1  -3  -4    2.60    1.90
   1   3  -4    1.10    1.40
   1   3  -4    3.10    1.20
  -1  -3  -4   73.29    4.50
  -1  -3  -4   88.79    5.20
  -1   3  -4   85.69    4.60
  -1   3  -4   93.19    5.00
  -1   3  -4   95.39    4.30
   3  -3   4  483.45   19.40
  -3  -3  -4  497.75   19.40
  -3  -3  -4  500.25   19.60
  -3  -3  -4  472.05   19.60
  -3   3  -4  482.15   18.80
  -3   3  -4  455.55   19.60
  -3   3  -4  469.25   19.60
  -5  -3  -4  302.07   13.40
  -5  -3  -4  308.97   13.40
  -5  -3  -4  308.97   13.20
   5  -3   4  305.67   13.20
  -5   3  -4  303.57   12.50
  -5   3  -4  298.67   13.20
  -5   3  -4  300.97   14.00
   7  -3   4  133.99    7.30
  -7  -3  -4  133.89    7.20
  -7  -3  -4  122.19    7.60
  -7  -3  -4  131.69    7.50
  -7   3  -4  130.59    7.20
  -7   3  -4  126.09    6.70
  -7   3  -4  128.89    9.10
  -9  -3  -4  113.79    7.10
   9  -3   4   95.49    7.30
  -9  -3  -4   93.89    7.20
   9  -3   4  111.19    6.40
  -9   3  -4  104.99    6.70
  -9   3  -4  105.29    6.60
  -9   3  -4  109.39   10.30
   9   3   4  125.79   10.10
 -11  -3  -4   97.29    7.50
  11  -3   4   71.89    6.30
  11  -3   4   74.09    7.90
 -11  -3  -4   79.69    7.70
 -11   3  -4   74.19   10.40
 -11   3  -4   81.59    6.20
 -11   3  -4   76.89    7.00
  11   3   4   83.69   13.80
 -13  -3  -4   18.80    5.80
  13  -3   4   19.90    5.60
  13  -3   4   15.60    8.10
 -13   3  -4   20.60    5.30
 -13   3  -4   25.80   11.70
 -13   3  -4   12.50    4.70
  14  -4  -4  -13.20   15.90
  14  -4  -4   -3.30    9.60
 -14  -4   4    2.80    5.20
  14  -4  -4    6.60    4.20
 -14   4   4   10.40    5.80
  14   4  -4    9.30   12.50
 -14   4   4   12.60    5.80
 -14   4   4  -10.80   14.80
  14   4  -4    4.00    6.90
  14   4  -4    5.50    5.50
 -12  -4   4  121.19    9.10
  12  -4  -4  123.29    7.70
  12  -4  -4  139.89   14.50
  12  -4  -4  104.79   11.00
 -12   4   4  146.89    9.30
 -12   4   4  126.69   16.10
 -12   4   4  127.19    8.80
  12   4  -4  133.39    8.90
 -10  -4   4   72.29    6.70
  10  -4  -4   84.59    8.10
  10  -4  -4   88.89   10.30
  10  -4  -4   84.99    5.60
 -10   4   4   61.79   10.80
  10   4  -4   94.19    6.10
 -10   4   4   75.39    7.30
   8  -4  -4  296.77   12.70
   8  -4  -4  291.07   13.90
  -8  -4   4  282.27   13.90
   8  -4  -4  296.37   15.70
  -8   4   4  293.37   16.70
   8   4  -4  291.97   12.80
  -6  -4   4   21.90    3.40
   6  -4  -4   36.20    5.70
   6  -4  -4   26.80    3.10
   6  -4  -4   30.80    4.10
  -6   4   4   38.80    6.70
   6   4  -4   27.00    3.00
  -4  -4   4  173.08    8.30
   4  -4  -4  174.78    7.70
   4  -4  -4  169.38    8.30
   4   4  -4  170.98    8.00
  -4   4   4  163.78    9.10
   2  -4  -4  246.38   10.70
   2  -4  -4  245.08   10.50
   2   4  -4  248.78   10.80
   0  -4  -4  108.49    5.60
   0  -4  -4  106.49    5.20
   0   4  -4  108.39    6.20
  -2  -4  -4  709.83   27.30
  -2  -4  -4  739.83   27.70
  -2   4  -4  727.23   26.90
  -2   4  -4  662.83   27.80
  -2   4  -4  653.73   27.40
  -2   4  -4  679.43   28.00
   4  -4   4  261.27   11.90
  -4  -4  -4  273.87   11.80
  -4  -4  -4  265.37   12.00
  -4  -4  -4  258.17   12.10
  -4   4  -4  265.47   12.20
  -4   4  -4  266.67   11.00
  -4   4  -4  249.58   12.20
  -6  -4  -4  241.78   11.90
   6  -4   4  262.07   11.80
  -6  -4  -4  247.38   12.00
  -6  -4  -4  254.97   11.90
  -6   4  -4  252.27   10.80
  -6   4  -4  241.48   11.90
  -6   4  -4  253.47   12.90
  -8  -4  -4   22.60    4.60
   8  -4   4   29.50    5.10
  -8  -4  -4   29.70    4.40
  -8   4  -4   20.90    3.60
  -8   4  -4   30.00    6.30
  -8   4  -4   25.40    4.40
  10  -4   4   24.50    5.50
 -10  -4  -4   22.40    5.20
 -10  -4  -4   20.70    5.00
 -10   4  -4   30.60    8.10
 -10   4  -4   28.80    4.90
 -10   4  -4   32.70    4.70
  12  -4   4   -1.30    4.30
  12  -4   4    8.30    7.60
 -12  -4  -4   -0.20    4.90
 -12   4  -4    6.30    5.10
 -12   4  -4    8.30   10.70
 -12   4  -4    2.00    5.20
 -13  -5   4   25.10    5.80
  13  -5  -4   12.80    4.90
  13  -5  -4   -1.80    8.70
 -13   5   4   19.60   13.40
 -13   5   4   13.50    6.80
  13   5  -4   30.10    6.90
 -11  -5   4    0.30    4.20
  11  -5  -4   -4.30    6.40
  11  -5  -4   -1.10    3.70
 -11   5   4    8.60    9.70
  11   5  -4    0.50    4.40
 -11   5   4    5.60    5.70
   9  -5  -4   69.19    5.10
   9  -5  -4   58.79    7.10
  -9  -5   4   65.79    6.10
   9  -5  -4   64.19    9.80
  -9   5   4   61.49   10.50
   9   5  -4   68.29    5.50
   7  -5  -4   35.20    3.80
  -7  -5   4   35.40    4.40
   7  -5  -4   37.90    7.10
   7  -5  -4   43.40    5.50
   7   5  -4   37.20    3.80
  -7   5   4   45.00    7.00
   5  -5  -4  155.28    7.40
  -5  -5   4  152.18    8.10
   5  -5  -4  154.18    8.20
  -5   5   4  155.78    9.70
  -5   5   4  154.68   10.80
   5   5  -4  149.79    7.70
   3  -5  -4   23.90    3.40
   3  -5  -4   16.90    3.20
   3   5  -4   16.80    2.90
   1  -5  -4    0.10    2.20
   1  -5  -4    1.50    2.00
  -1  -5  -4   49.10    4.10
  -1   5  -4   65.29    5.50
  -3  -5  -4   89.09    5.60
  -3  -5  -4   92.29    5.60
   3   5   4   91.79    4.80
  -3   5  -4   90.89    7.10
  -3   5  -4   92.39    4.90
  -3   5  -4   90.69    6.30
  -3   5  -4   93.69    6.50
   5  -5   4  149.19    8.20
  -5  -5  -4  135.79    7.90
  -5  -5  -4  140.59    8.00
  -5   5  -4  136.69    6.90
  -5   5  -4  148.29    8.50
  -5   5  -4  139.89    9.20
  -7  -5  -4  136.89    8.30
  -7  -5  -4  131.19    8.50
   7  -5   4  135.79    8.50
  -7   5  -4  144.69   10.60
  -7   5  -4  150.58    8.80
  -7   5  -4  136.59    7.30
   9  -5   4    6.00    5.30
  -9  -5  -4    0.70    4.50
  -9   5  -4    4.40    7.60
  -9   5  -4    2.70    4.60
  -9   5  -4   -1.50    3.60
  11  -5   4   25.00    7.70
 -11  -5  -4   17.30    5.40
 -11   5  -4   12.30    5.80
 -11   5  -4   10.30    4.90
 -11   5  -4   -2.50    9.70
 -12  -6   4   50.39    6.80
  12  -6  -4   49.80    6.30
  12   6  -4   59.59    8.10
 -12   6   4   52.59   14.20
 -12   6   4   37.50    8.30
  10  -6  -4   -1.20    3.60
  10  -6  -4    6.30    6.30
  10  -6  -4   -4.70   10.40
 -10  -6   4    6.00    4.10
 -10   6   4    2.70    9.60
  10   6  -4   10.40    4.60
  -8  -6   4  101.69    7.40
   8  -6  -4   91.89    8.20
   8  -6  -4  111.39    6.30
  -8   6   4  116.29   11.70
   8   6  -4   98.69    6.80
  -6  -6   4  107.69    6.80
   6  -6  -4  101.49    7.40
   6  -6  -4  102.69    6.00
  -6   6   4   95.19    9.70
   6   6  -4   94.89    6.20
  -6   6   4   95.59   10.50
   4  -6  -4  253.67   12.00
   4  -6  -4  243.08   11.00
   4   6  -4  242.68   11.40
   2  -6  -4  717.63   28.70
   2  -6  -4  709.03   28.40
   2   6  -4  706.43   28.70
   0  -6  -4  100.09    6.10
  -2  -6  -4  325.07   14.20
  -2  -6  -4  341.47   14.90
  -2   6  -4  318.37   13.80
  -2   6  -4  353.86   16.00
  -4  -6  -4   33.40    4.70
  -4  -6  -4   42.80    4.60
   4   6   4   42.10    3.70
  -4   6  -4   43.40    6.40
  -4   6  -4   41.20    7.10
  -4   6  -4   46.10    3.80
  -4   6  -4   43.20    6.10
  -6  -6  -4  395.06   18.10
  -6  -6  -4  394.96   18.40
   6  -6   4  430.66   18.80
  -6   6  -4  418.06   19.60
  -6   6  -4  391.46   16.90
  -6   6  -4  416.06   19.00
   8  -6   4   11.90    5.70
  -8  -6  -4    7.00    4.60
  -8   6  -4   10.90    5.60
  -8   6  -4   15.60    4.50
  -8   6  -4   20.10    7.40
 -10  -6  -4  227.08   13.10
  10  -6   4  228.98   14.50
 -10   6  -4  286.37   18.00
 -10   6  -4  257.97   14.40
 -10   6  -4  228.88   12.40
  11  -7  -4    5.30    4.30
 -11  -7   4    5.90    4.30
 -11   7   4    1.20    9.80
  11   7  -4    3.60    6.00
 -11   7   4  -22.60   14.40
   9  -7  -4   54.49    9.20
  -9  -7   4   46.50    5.90
   9  -7  -4   37.80    5.00
   9   7  -4   37.30    6.70
  -9   7   4   35.40   11.00
  -7  -7   4   17.30    4.10
   7  -7  -4   17.00    4.40
   7  -7  -4    5.70    5.50
  -7   7   4   24.70    9.80
   7   7  -4   15.30    4.00
  -7   7   4    8.30    8.10
   5  -7  -4   64.89    5.70
   5  -7  -4   75.09    7.00
   5   7  -4   87.09    6.20
   3  -7  -4   32.80    4.10
   3  -7  -4   40.70    5.20
   3   7  -4   27.30    4.70
   1  -7  -4   27.00    4.10
   1   7  -4   32.80    4.50
  -1  -7  -4    5.80    3.50
  -1   7  -4   -0.10    4.70
  -3  -7  -4   -0.30    3.50
  -3  -7  -4    1.30    3.00
  -3   7  -4    5.50    2.90
  -3   7  -4    7.90    5.10
   3   7   4   10.20    3.00
  -5  -7  -4   35.50    5.70
  -5  -7  -4   29.00    4.80
  -5   7  -4   32.00    6.30
   5   7   4   29.00    4.30
  -5   7  -4   29.70    4.10
  -5   7  -4   28.00    5.90
  -5   7  -4   30.80    8.50
  -7  -7  -4   14.40    4.50
  -7  -7  -4    2.50    4.60
   7   7   4   13.80    3.20
  -7   7  -4    5.60    3.60
  -7   7  -4   10.30    7.10
  -7   7  -4   13.20    6.40
  -9  -7  -4   18.60    5.60
   9  -7   4   20.50    8.90
  -9   7  -4   18.70    4.60
  -9   7  -4   29.50    9.00
  -9   7  -4   24.90   10.40
  -8  -8   4   70.59    6.90
   8  -8  -4   50.89    9.20
   8  -8  -4   69.09    6.70
   8   8  -4   76.99    7.90
  -8   8   4   78.29   12.60
  -8   8   4   90.19   15.50
   6  -8  -4  125.79   10.00
   6  -8  -4  125.79    7.90
   6   8  -4  121.09    9.00
   4  -8  -4   15.20    5.90
   4  -8  -4   10.40    3.90
   4   8  -4   13.50    5.00
   2  -8  -4  259.87   12.40
   2   8  -4  261.47   13.00
   0  -8  -4  404.86   17.90
  -2  -8  -4  227.28   11.80
   2   8   4  221.98   11.20
  -2   8  -4  220.28   10.60
  -2   8  -4  246.98   14.60
  -4  -8  -4    5.70    3.90
  -4  -8  -4   14.00    4.50
  -4   8  -4   13.50    7.00
  -4   8  -4   16.30    3.80
   4   8   4   12.30    4.10
  -6  -8  -4   64.69    6.90
  -6  -8  -4   64.19    7.10
  -6   8  -4   52.99   10.20
  -6   8  -4   64.89   12.30
   6   8   4   70.59    6.20
  -6   8  -4   56.39    5.90
  -6   8  -4   73.09   11.90
  -8  -8  -4   -0.20    5.10
  -8   8  -4    1.50    4.70
   5  -9  -4   38.80    5.60
   5   9  -4   28.80    6.70
   3  -9  -4    9.50    4.50
   3   9  -4    9.80    5.70
   1  -9  -4  136.39    8.80
   1   9  -4  120.89    9.60
  -1  -9  -4   30.80    5.30
  -1   9  -4   31.20    9.20
  -1   9  -4   32.70    4.20
  -3  -9  -4   30.50    5.80
   3   9   4   43.90    7.00
  -3   9  -4   47.10    5.20
  -5  -9  -4   -9.00    4.70
  -5  -9  -4   -2.10    5.50
   5   9   4    1.40    5.30
  -5   9  -4    2.10    4.30
  14   0  -5    2.50   10.20
  14   0  -5    0.30    4.20
 -14   0   5    5.10    4.90
 -14   0   5    1.80   12.50
  14   0  -5    6.70    6.90
 -12   0   5    2.40    3.70
  12   0  -5   -0.80    3.40
  12   0  -5    1.80    4.40
 -12   0   5    1.20    7.00
  10   0  -5    6.80    3.10
 -10   0   5   -5.90    3.00
  10   0  -5    5.30    2.90
  10   0  -5   -7.40    6.30
 -10   0   5   -4.10    6.30
   8   0  -5    1.50    2.20
  -8   0   5    1.90    2.50
   8   0  -5    6.60    4.30
   8   0  -5    0.10    2.20
  -6   0   5   -2.90    1.80
   6   0  -5   -0.70    1.90
   6   0  -5    4.50    1.70
   6   0  -5    0.00    3.00
   4   0  -5   -1.00    1.80
  -4   0   5    1.20    1.40
   4   0  -5    0.60    1.00
   4   0  -5    1.80    1.30
   2   0  -5   -0.30    1.50
   2   0  -5    0.90    0.80
   2   0  -5    1.20    0.80
   2   0  -5    0.50    1.10
   0   0  -5   -0.10    0.80
   0   0  -5    0.20    1.00
   0   0  -5   -0.90    0.80
   0   0  -5   -0.60    1.10
   0   0  -5    0.30    0.50
  -2   0  -5    1.90    1.20
  -2   0  -5   -0.30    1.20
  -2   0  -5   -0.70    1.30
  -2   0  -5    0.20    0.80
  -4   0  -5   -0.20    1.80
  -4   0  -5   -0.90    1.70
  -4   0  -5   -0.20    1.60
  -4   0  -5    0.00    1.10
  -6   0  -5    2.10    2.30
  -6   0  -5    1.90    1.40
  -6   0  -5    1.90    2.30
   8   0   5    1.50    2.60
  -8   0  -5    2.40    2.90
  -8   0  -5    0.10    3.80
  -8   0  -5    1.30    1.80
 -10   0  -5    5.00    2.60
 -10   0  -5    4.40    5.40
  10   0   5   -1.90    3.60
 -10   0  -5    0.90    3.50
 -12   0  -5    0.10    4.40
  12   0   5   -3.70    5.30
 -12   0  -5   -1.90    8.40
 -12   0  -5    0.60    3.80
  13  -1  -5    5.60    3.80
 -13  -1   5    9.30    9.70
 -13  -1   5    6.60    4.30
  13  -1  -5    8.20    9.30
  13  -1  -5   17.80    5.80
  13   1  -5    6.10    5.80
  13   1  -5   -4.20    8.50
  13   1  -5    3.40    4.10
 -13   1   5   10.00    4.60
 -13   1   5   13.10    8.80
 -11  -1   5    0.70    3.70
  11  -1  -5    4.90    7.60
 -11  -1   5   -4.80    6.20
  11  -1  -5    8.50    4.30
  11  -1  -5    1.10    3.00
  11   1  -5    4.30    2.90
 -11   1   5    4.70    3.50
  11   1  -5   -1.90    3.50
 -11   1   5   -3.50    7.30
  11   1  -5   -3.90    6.40
  -9  -1   5    1.40    5.50
   9  -1  -5    1.20    2.60
  -9  -1   5    3.20    2.80
   9  -1  -5    8.80    4.40
  -9   1   5   -0.40    5.90
   9   1  -5    1.30    2.80
  -9   1   5    3.10    3.10
   9   1  -5    1.40    4.40
   9   1  -5    5.50    2.90
  -7  -1   5  335.17   14.30
   7  -1  -5  330.27   14.10
   7  -1  -5  332.37   15.80
   7  -1  -5  334.37   14.10
   7   1  -5  320.77   14.20
  -7   1   5  338.47   13.80
   7   1  -5  331.27   13.80
   7   1  -5  327.37   15.50
   5  -1  -5   10.30    2.00
   5  -1  -5    8.70    1.80
   5  -1  -5   10.70    3.00
  -5  -1   5    5.40    2.10
   5   1  -5    8.30    1.60
   5   1  -5    5.40    2.20
   5   1  -5    4.80    2.00
   3  -1  -5   10.60    1.70
   3  -1  -5    9.70    1.50
   3  -1  -5    8.10    2.30
   3   1  -5   11.60    1.80
   3   1  -5   11.50    1.40
   3   1  -5   11.40    2.30
   1  -1  -5 2972.50  102.19
   1  -1  -5 2704.33  102.59
   1  -1  -5 2698.43  101.89
   1  -1  -5 2714.13  102.29
   1   1  -5 2608.64  101.99
   1   1  -5 2674.13  102.39
   1   1  -5 2824.02  101.79
   1   1  -5 2633.44  101.79
  -1  -1  -5  420.86   17.90
  -1  -1  -5  477.05   17.60
  -1  -1  -5  456.35   17.90
  -1  -1  -5  470.35   17.90
  -1   1  -5  451.25   18.10
  -1   1  -5  459.05   17.70
  -1   1  -5  460.45   17.60
  -3  -1  -5   96.89    4.70
  -3  -1  -5   93.59    4.90
  -3  -1  -5  102.89    5.00
  -3  -1  -5   98.69    4.80
  -3   1  -5   92.09    5.10
  -3   1  -5   93.19    4.60
  -3   1  -5   98.09    4.50
  -5  -1  -5   12.30    2.50
  -5  -1  -5   11.70    2.10
  -5  -1  -5   14.50    2.80
  -5  -1  -5   10.30    2.60
   5  -1   5   11.40    2.00
  -5   1  -5   15.80    2.80
  -5   1  -5   13.30    2.80
  -5   1  -5   12.90    2.00
  -7  -1  -5   54.29    4.70
   7  -1   5   58.49    4.20
  -7  -1  -5   58.69    5.00
  -7  -1  -5   58.29    3.90
  -7   1  -5   58.69    3.90
  -7   1  -5   58.99    4.60
  -7   1  -5   60.69    6.30
  -9  -1  -5    0.20    2.30
   9  -1   5    1.70    3.10
  -9  -1  -5    2.30    3.20
  -9  -1  -5    2.20    4.00
  -9   1  -5    4.90    2.40
  -9   1  -5    4.40    3.20
  -9   1  -5   -6.70    5.20
 -11  -1  -5   -2.80    5.80
 -11  -1  -5    3.90    3.50
 -11  -1  -5    4.70    4.30
  11  -1   5   12.40    4.60
 -11   1  -5    8.70    3.30
 -11   1  -5   10.70    6.50
 -11   1  -5    0.40    4.00
 -13  -1  -5   12.10    9.00
  13  -1   5   19.10    7.20
 -13  -1  -5    5.90    4.80
 -13  -1  -5   11.30    5.80
 -13   1  -5    1.80    4.90
 -13   1  -5   18.20   10.00
  13   1   5    6.30    6.40
 -13   1  -5   10.60    4.20
  14  -2  -5   13.20    4.20
 -14  -2   5   10.60    4.80
  14  -2  -5   12.10    7.30
  14  -2  -5    0.10   11.30
 -14   2   5    6.90    5.00
  14   2  -5   23.50   10.80
  14   2  -5   -4.70    6.30
 -14   2   5   -7.50   12.50
  14   2  -5   10.50    4.10
  12  -2  -5   15.50    8.50
 -12  -2   5   13.10    4.20
  12  -2  -5   22.90    4.30
  12  -2  -5   13.00    5.10
  12   2  -5   11.70    8.70
  12   2  -5   17.50    4.30
  12   2  -5   12.00    4.40
 -12   2   5   26.20    8.60
 -12   2   5   14.70    4.40
  10  -2  -5    7.20    7.20
  10  -2  -5   -1.50    3.70
 -10  -2   5   -1.60    3.10
  10  -2  -5   -2.90    2.90
  10   2  -5   -1.40    2.90
  10   2  -5   11.60    5.50
 -10   2   5    2.90    3.60
  10   2  -5    1.00    3.40
 -10   2   5    0.80    7.50
   8  -2  -5   -2.30    4.00
   8  -2  -5    3.40    2.20
  -8  -2   5   -5.60    2.50
   8   2  -5    0.10    2.60
  -8   2   5   -1.40    2.50
   8   2  -5    3.70    3.70
   8   2  -5    2.70    2.00
   6  -2  -5   84.29    7.10
  -6  -2   5   81.09    5.20
   6  -2  -5   82.89    4.90
   6  -2  -5   79.69    4.40
   6   2  -5   74.49    5.80
   6   2  -5   78.49    4.50
   6   2  -5   82.99    5.00
   4  -2  -5    1.80    2.60
   4  -2  -5    5.30    1.70
   4  -2  -5    5.00    1.60
  -4  -2   5    1.70    1.60
   4   2  -5    1.90    1.20
   4   2  -5    2.80    1.70
   4   2  -5    0.70    1.90
   2  -2  -5    4.80    1.40
   2  -2  -5    4.40    1.30
   2  -2  -5    3.60    1.70
   2   2  -5    5.10    1.30
   2   2  -5    4.00    1.00
   2   2  -5    4.30    1.60
   2   2  -5    5.40    1.20
   0  -2  -5   27.60    2.60
   0  -2  -5   24.90    2.40
   0   2  -5   27.20    2.50
   0   2  -5   23.90    2.00
   0   2  -5   23.30    2.20
   0   2   5   23.80    2.30
  -2  -2  -5  361.46   14.50
  -2  -2  -5  386.26   14.10
  -2   2  -5  340.47   14.40
   2   2   5  346.27   14.10
  -2   2  -5  363.46   14.20
  -2   2  -5  298.57   13.80
  -4  -2  -5   21.40    3.20
   4  -2   5   17.50    2.30
  -4  -2  -5   18.80    2.50
  -4  -2  -5   17.60    2.70
  -4   2  -5   16.70    2.90
  -4   2  -5   21.20    2.60
  -4   2  -5   18.00    2.50
   4   2   5   21.40    3.20
  -6  -2  -5  115.49    5.90
  -6  -2  -5  107.29    6.50
   6  -2   5  108.99    5.90
  -6  -2  -5  114.99    6.60
  -6   2  -5  115.49    7.70
  -6   2  -5  106.69    5.80
  -6   2  -5  113.69    6.20
   6   2   5  105.69    7.40
  -8  -2  -5   21.80    3.40
  -8  -2  -5   23.00    4.40
   8  -2   5   21.00    3.50
   8   2   5   23.90    5.40
  -8   2  -5   26.50    5.10
  -8   2  -5   22.00    3.40
  -8   2  -5   20.20    3.80
 -10  -2  -5    8.50    3.40
 -10  -2  -5    3.50    4.10
  10  -2   5    6.10    4.40
 -10   2  -5    8.30    2.90
 -10   2  -5   23.50    6.70
 -10   2  -5    8.90    3.80
 -12  -2  -5    8.70    4.90
 -12  -2  -5   10.00    5.50
  12  -2   5   10.30    6.10
  12  -2   5   17.00    5.20
 -12   2  -5    2.50    4.60
 -12   2  -5   10.10   10.00
 -12   2  -5   11.50    4.10
  13  -3  -5   37.60    7.80
  13  -3  -5   30.90   10.60
 -13  -3   5   47.20    6.50
  13  -3  -5   39.00    5.00
  13   3  -5   28.10    9.80
 -13   3   5   40.30   11.30
 -13   3   5   34.80    5.80
  13   3  -5   39.80    6.50
  13   3  -5   38.60    6.30
  11  -3  -5    2.60    4.90
  11  -3  -5    4.30    3.20
 -11  -3   5    7.30    3.90
  11  -3  -5   -0.60    7.90
  11   3  -5    2.00    3.70
  11   3  -5   -1.00    4.00
 -11   3   5    8.30    7.40
 -11   3   5   -1.80    3.80
 -11   3   5   -4.30    3.80
  11   3  -5    7.40    6.80
   9  -3  -5   93.99   10.80
   9  -3  -5   70.89    5.00
  -9  -3   5   75.59    6.10
   9  -3  -5   82.29    6.40
  -9   3   5   93.19   11.00
   9   3  -5   82.69    5.30
   7  -3  -5   93.39    5.20
   7  -3  -5   79.89    7.70
  -7  -3   5   93.39    5.90
   7  -3  -5   84.59    5.80
   7   3  -5   89.09    5.10
   7   3  -5   91.89    7.20
   5  -3  -5   28.00    3.00
   5  -3  -5   28.70    5.30
   5  -3  -5   24.40    2.50
  -5  -3   5   19.00    3.20
   5   3  -5   20.20    2.50
   3  -3  -5  170.88    7.50
   3  -3  -5  168.58    7.80
   3   3  -5  166.88    7.60
  -3   3   5  159.58    8.30
   3   3  -5  176.38    7.50
   1  -3  -5   59.59    3.70
   1  -3  -5   57.99    3.40
   1   3  -5   56.99    3.40
   1   3  -5   57.19    3.50
   1   3  -5   57.89    3.70
  -1   3   5   53.39    3.80
  -1  -3  -5  549.15   22.90
  -1  -3  -5  583.54   22.10
  -1  -3  -5  595.04   22.50
  -1   3  -5  561.94   22.00
  -1   3  -5  562.34   22.50
  -1   3  -5  543.25   22.40
  -3  -3  -5   21.00    3.40
  -3  -3  -5   24.10    3.10
  -3  -3  -5   23.70    3.10
  -3   3  -5   22.40    3.30
  -3   3  -5   24.40    3.10
  -3   3  -5   27.90    2.40
  -5  -3  -5    3.00    2.80
  -5  -3  -5    5.20    2.50
  -5  -3  -5    1.60    2.60
   5  -3   5    1.70    2.00
  -5   3  -5    3.40    2.30
  -5   3  -5    2.20    2.10
  -5   3  -5    2.40    3.00
  -7  -3  -5  211.48   10.20
   7  -3   5  210.68   10.10
  -7  -3  -5  200.48   10.50
  -7  -3  -5  211.78   10.60
  -7   3  -5  199.88   11.40
  -7   3  -5  214.38   10.00
  -7   3  -5  201.88    9.90
  -9  -3  -5   38.30    6.10
  -9  -3  -5   47.10    5.80
   9  -3   5   54.49    4.70
   9  -3   5   53.59    5.50
   9   3   5   46.60    8.90
  -9   3  -5   59.79    7.60
  -9   3  -5   44.40    5.10
  -9   3  -5   42.00    5.00
  11  -3   5    7.50    4.60
  11  -3   5    7.20    5.70
 -11  -3  -5    4.50    5.10
 -11  -3  -5    8.10    5.10
  11   3   5    2.90    9.70
 -11   3  -5   -1.50    3.90
 -11   3  -5    2.40    8.20
 -11   3  -5    4.20    4.50
 -13  -3  -5    9.40    7.40
 -13  -3  -5    6.80    5.70
  13  -3   5    0.30    8.20
  13   3   5  -38.70   39.80
 -13   3  -5    0.60    5.30
 -13   3  -5   -9.80    4.80
 -14  -4   5   -1.40    4.90
  14  -4  -5    7.90    7.20
  14  -4  -5    4.70    4.30
  14   4  -5   -1.00    5.00
  14   4  -5   -0.60    7.20
 -14   4   5    8.30    6.10
 -14   4   5   -8.00   14.30
 -14   4   5    9.30    5.90
  12  -4  -5    4.90   10.10
  12  -4  -5    9.40    3.90
  12  -4  -5   10.20    7.10
 -12  -4   5   13.20    4.80
  12   4  -5    3.30    4.60
 -12   4   5   -0.90    5.00
  12   4  -5    8.00    5.00
 -12   4   5    7.00   11.60
 -10  -4   5   12.70    4.30
  10  -4  -5    7.80    7.30
  10  -4  -5    8.10    3.30
  10  -4  -5   11.20    5.20
 -10   4   5   12.80    8.00
  10   4  -5    0.70    3.30
  -8  -4   5   -1.00    3.00
   8  -4  -5    4.50    2.70
   8  -4  -5    6.50    4.10
   8  -4  -5   -4.00    6.30
  -8   4   5   -5.50    6.30
   8   4  -5    3.60    2.50
   6  -4  -5   -0.80    1.90
   6  -4  -5   -1.60    4.60
  -6  -4   5    4.80    2.50
   6  -4  -5   -1.30    2.60
   6   4  -5    1.10    1.90
   4  -4  -5   -0.20    2.00
   4  -4  -5   -0.90    2.20
   4   4  -5    1.90    1.80
  -4   4   5   -3.30    3.10
   2  -4  -5    0.70    2.20
   2  -4  -5    2.20    1.70
   2   4  -5    0.70    1.80
   2   4  -5   -0.20    1.60
   0  -4  -5  274.87   11.40
   0  -4  -5  278.47   11.80
   0   4  -5  272.67   12.10
  -2  -4  -5  394.46   15.60
  -2  -4  -5  396.06   16.10
  -2   4  -5  355.56   15.70
  -2   4  -5  378.96   15.30
  -2   4  -5  375.26   16.20
  -4  -4  -5    2.60    2.40
  -4  -4  -5   -0.50    2.70
  -4  -4  -5    1.80    2.70
  -4   4  -5    4.00    3.00
  -4   4  -5    1.90    2.00
  -4   4  -5   -1.20    2.60
  -6  -4  -5  220.38   11.20
  -6  -4  -5  231.18   11.20
  -6  -4  -5  226.08   11.20
   6  -4   5  229.08   10.90
  -6   4  -5  234.58   12.20
  -6   4  -5  229.28   11.00
  -6   4  -5  219.98   10.10
  -8  -4  -5   50.59    5.90
  -8  -4  -5   48.60    5.80
  -8  -4  -5   35.80    5.10
   8  -4   5   42.40    5.70
  -8   4  -5   33.80    4.10
  -8   4  -5   48.00    7.90
  -8   4  -5   40.90    5.50
 -10  -4  -5    3.40    5.10
  10  -4   5   11.60    5.60
 -10  -4  -5    3.30    4.80
 -10   4  -5   21.20    7.80
 -10   4  -5    3.20    3.70
 -10   4  -5    0.00    4.50
  12  -4   5    8.40    7.80
 -12  -4  -5    5.20    4.90
 -12  -4  -5   -5.30    7.00
  12  -4   5    8.00    4.90
 -12   4  -5   -3.60    5.00
 -12   4  -5   -1.10    5.20
 -12   4  -5   -4.80   12.10
 -13  -5   5    6.70    4.60
  13  -5  -5   -1.70    7.90
  13  -5  -5   11.60   18.60
 -13   5   5    9.40    6.60
  13   5  -5    5.30    4.80
  13   5  -5    1.50    6.80
 -13   5   5   14.00   14.50
  11  -5  -5    1.20    9.50
 -11  -5   5    7.50    4.50
  11  -5  -5    6.20    3.70
  11  -5  -5   16.40    7.30
 -11   5   5   14.50    9.60
  11   5  -5   12.70    4.60
 -11   5   5    6.90    6.30
  -9  -5   5   22.20    4.70
   9  -5  -5    5.30    6.90
   9  -5  -5   21.30    4.10
   9  -5  -5   19.20    5.50
  -9   5   5   17.00    7.80
   9   5  -5   23.00    3.90
  -7  -5   5    3.40    2.90
   7  -5  -5    5.60    5.60
   7  -5  -5   -1.10    3.40
   7  -5  -5    0.80    2.60
   7   5  -5   -2.00    2.20
   5  -5  -5    2.90    2.30
  -5  -5   5    9.30    3.00
   5  -5  -5    5.50    3.10
  -5   5   5    3.00    5.00
   5   5  -5    7.70    2.50
   3  -5  -5   85.39    5.20
   3  -5  -5   78.19    5.00
   3   5  -5   76.89    5.60
   3   5  -5   84.69    5.10
   1  -5  -5   45.90    3.90
   1  -5  -5   48.40    3.70
   1   5  -5   50.79    4.60
   1   5  -5   51.29    3.90
  -1  -5  -5   70.39    4.80
  -1   5  -5   75.29    5.00
  -1   5  -5   75.19    5.60
  -1   5  -5   74.09    4.30
  -3  -5  -5  120.79    7.00
  -3  -5  -5  123.79    6.70
  -3   5  -5  112.89    7.60
  -3   5  -5  129.19    8.40
  -3   5  -5  116.39    6.00
  -3   5  -5  121.59    7.10
  -5  -5  -5   97.89    6.60
  -5  -5  -5   99.19    6.70
  -5   5  -5  101.79    5.60
  -5   5  -5  106.89    7.90
  -5   5  -5   96.79    7.20
   7  -5   5   12.20    4.50
  -7  -5  -5   17.10    4.40
  -7  -5  -5   12.80    4.00
  -7   5  -5    7.60    5.50
  -7   5  -5    7.40    4.00
  -7   5  -5   12.10    3.10
  -9  -5  -5   44.20    5.90
   9  -5   5   31.50    6.30
  -9  -5  -5   55.99    7.80
  -9   5  -5   46.90    6.90
  -9   5  -5   53.39    8.60
  -9   5  -5   36.80    5.10
 -11  -5  -5    9.40    7.20
  11  -5   5   -5.60    7.40
 -11  -5  -5   11.20    5.10
 -11   5  -5    1.60    5.10
 -11   5  -5    4.40    5.70
 -11   5  -5   -3.20   10.50
  12  -6  -5   10.00    4.50
 -12  -6   5   12.70    4.80
 -12   6   5   13.80   14.30
 -12   6   5   13.00    8.50
  12   6  -5    4.10    6.00
 -10  -6   5    7.30    4.10
  10  -6  -5   -7.90    8.50
  10  -6  -5   -6.00    6.70
  10  -6  -5    5.90    4.10
  10   6  -5    4.20    4.50
 -10   6   5    0.70    9.50
  -8  -6   5   -4.50    3.10
   8  -6  -5    2.20    4.90
   8  -6  -5    6.00    3.40
   8   6  -5   -3.90    3.20
  -8   6   5   17.40    7.70
  -6  -6   5   -0.70    3.10
   6  -6  -5    0.90    3.80
   6  -6  -5    1.40    3.10
   6   6  -5   -2.80    2.80
  -6   6   5    8.20    6.40
  -6   6   5   -1.30    6.50
   4  -6  -5   22.50    3.90
   4  -6  -5   27.30    4.00
   4   6  -5   35.10    4.10
   2  -6  -5   58.69    4.80
   2  -6  -5   65.09    4.90
   2   6  -5   60.29    6.10
   2   6  -5   63.39    4.90
   0  -6  -5  210.18   10.20
   0   6  -5  212.58   11.10
  -2  -6  -5   46.80    4.90
  -2   6  -5   40.20    3.70
  -2   6  -5   43.60    5.70
  -4  -6  -5   -2.40    3.10
  -4  -6  -5    2.60    3.20
  -4   6  -5    0.00    3.90
  -4   6  -5   -3.50    2.40
  -4   6  -5   -0.90    4.00
  -4   6  -5   -4.10    5.20
  -6  -6  -5   12.70    4.40
  -6  -6  -5   14.10    4.30
  -6   6  -5    3.80    4.30
  -6   6  -5   11.20    5.60
  -6   6  -5   17.30    3.40
   8  -6   5   17.00    6.00
  -8  -6  -5   17.00    5.00
  -8  -6  -5   13.90    5.10
  -8   6  -5    8.70    7.50
  -8   6  -5    5.40    5.50
  -8   6  -5   11.10    4.20
 -10  -6  -5   10.90    4.90
  10  -6   5   -3.70    7.70
 -10   6  -5   -6.90   10.70
 -10   6  -5    5.40    7.10
 -10   6  -5   -1.00    4.40
  11  -7  -5    8.60    4.60
 -11  -7   5    1.30    4.70
  11   7  -5   -2.60    6.00
   9  -7  -5   18.60    7.80
  -9  -7   5   18.50    4.50
   9  -7  -5    6.10    4.10
   9   7  -5   15.20    4.70
  -9   7   5   23.40   12.40
   7  -7  -5   32.70    4.90
   7  -7  -5   52.09    7.30
   7   7  -5   37.00    5.80
  -7   7   5   45.20    9.90
  -7   7   5   36.70    9.40
   5  -7  -5    0.90    4.80
   5  -7  -5   -3.40    3.60
  -5   7   5   -3.30    6.80
   5   7  -5   -0.90    3.40
   3  -7  -5   51.89    5.00
   3  -7  -5   56.19    5.90
   3   7  -5   55.19    5.60
   1  -7  -5    2.40    3.40
   1   7  -5    6.60    4.70
   1   7  -5    8.70    3.30
  -1  -7  -5   28.10    4.70
  -1   7  -5   33.00    3.80
  -3  -7  -5    0.30    3.40
  -3  -7  -5    3.10    4.00
  -3   7  -5   -1.00    3.90
   3   7   5    0.10    2.70
  -3   7  -5    7.20    3.00
  -3   7  -5    0.40    5.00
  -5  -7  -5   -1.30    4.00
  -5  -7  -5    2.00    4.20
  -5   7  -5    4.70    5.40
  -5   7  -5   12.40    7.70
  -5   7  -5    6.40    3.30
  -5   7  -5   -2.00    5.60
  -7  -7  -5    5.60    4.50
  -7  -7  -5   -2.80    4.30
  -7   7  -5    3.80    6.70
  -7   7  -5    7.90    6.70
  -7   7  -5    0.40    3.80
  -9  -7  -5    3.70    5.60
  -9   7  -5    8.40    6.20
  -9   7  -5    7.40    4.20
  -9   7  -5   17.80   10.90
   8  -8  -5    3.40    5.60
   8  -8  -5   -8.70    7.90
  -8   8   5    2.40   11.00
   8   8  -5   -1.10    5.50
   6  -8  -5   11.20    6.20
   6  -8  -5   -0.10    4.70
   6   8  -5   -2.90    4.90
   4  -8  -5    4.30    3.80
   4  -8  -5    2.00    5.30
   4   8  -5    7.70    4.60
   2  -8  -5    2.10    3.90
   2   8  -5    5.40    4.10
   2   8  -5   -0.80    6.20
   0  -8  -5    0.30    4.20
   0   8  -5   14.00    6.30
  -2  -8  -5   20.60    4.50
  -2   8  -5   12.50    3.40
   2   8   5   16.30    4.00
  -2   8  -5   22.30    6.50
  -4  -8  -5    1.40    4.00
  -4  -8  -5    4.70    4.70
  -4   8  -5    7.00    3.60
   4   8   5    8.10    4.10
  -4   8  -5   -0.60    6.40
  -6  -8  -5   14.80    5.30
  -6  -8  -5   17.90    5.40
  -6   8  -5   17.00    4.30
  -6   8  -5   14.00    7.30
  -6   8  -5   17.40    9.00
  -6   8  -5   12.10   12.50
   5  -9  -5   16.10    8.50
   5  -9  -5   26.00    5.40
   5   9  -5   29.80    9.10
   5   9  -5   24.60    6.50
   3  -9  -5   -1.50    5.00
   3   9  -5    6.90    5.70
   3   9  -5    8.40    8.60
   1  -9  -5    6.10    5.10
   1   9  -5  -14.80    8.40
   1   9  -5    2.30    5.50
  -1  -9  -5    8.70    4.80
  -1   9  -5   20.70    8.30
  -1   9  -5   15.90    4.10
  -3  -9  -5   -1.00    5.10
  -3   9  -5   16.50    9.20
   3   9   5   -1.00    5.20
  -3   9  -5   15.10    4.00
  14   0  -6   53.49    9.10
 -14   0   6   49.70   12.90
  14   0  -6   33.60    4.90
 -14   0   6   29.60    6.30
  14   0  -6   28.20   11.20
  12   0  -6    3.00    4.60
  12   0  -6   -3.80    7.90
 -12   0   6   -9.10    8.30
 -12   0   6    5.00    4.10
  12   0  -6    6.70    3.20
  10   0  -6  357.56   17.90
  10   0  -6  342.87   15.40
  10   0  -6  324.47   15.40
 -10   0   6  347.17   19.00
 -10   0   6  357.36   15.50
   8   0  -6  195.78    9.70
   8   0  -6  200.58    9.50
   8   0  -6  209.58   11.60
  -8   0   6  212.68    9.70
   6   0  -6  252.17   10.80
   6   0  -6  230.68   11.90
  -6   0   6  244.58   10.60
   6   0  -6  245.48   10.60
   4   0  -6   50.89    3.10
   4   0  -6   47.60    4.30
   4   0  -6   46.80    3.00
   2   0  -6  789.72   29.90
   2   0  -6  796.92   29.90
   2   0  -6  786.92   30.60
   2   0  -6  761.42   29.80
   0   0  -6  129.99    5.50
   0   0  -6  118.99    5.90
   0   0  -6  128.69    5.30
   0   0  -6  119.69    5.40
   0   0  -6  123.59    5.20
  -2   0  -6   60.19    3.20
  -2   0  -6   62.79    3.40
  -2   0  -6   62.39    3.30
  -2   0  -6   56.49    3.70
  -4   0  -6   71.79    4.40
  -4   0  -6   82.89    4.80
  -4   0  -6   79.39    4.40
  -4   0  -6   72.69    4.00
  -6   0  -6  117.39    5.80
  -6   0  -6  117.49    6.40
  -6   0  -6  113.99    6.70
  -6   0  -6  122.39    6.50
  -8   0  -6  315.37   13.40
  -8   0  -6  316.57   14.40
  -8   0  -6  319.77   14.90
 -10   0  -6   34.60    5.40
 -10   0  -6   29.70    5.80
  10   0   6   30.40    4.80
 -10   0  -6   40.90    4.40
 -12   0  -6   78.59    8.00
 -12   0  -6   75.79    6.80
  12   0   6   93.49    7.90
 -12   0  -6   75.49   11.80
  15  -1  -6   37.50   13.30
  15  -1  -6   44.30    6.10
 -15  -1   6   49.00    6.80
  15  -1  -6   51.49    9.50
  15   1  -6   62.79    9.30
  15   1  -6   29.10   13.10
 -15   1   6   51.19    7.40
  15   1  -6   44.20    6.30
 -15   1   6   89.29   18.20
 -13  -1   6    7.90   10.90
  13  -1  -6    7.20    5.80
 -13  -1   6   20.70    5.10
  13  -1  -6    7.10   10.20
  13  -1  -6   20.80    4.60
 -13   1   6   15.70    4.60
  13   1  -6   18.90    5.40
  13   1  -6   19.30    4.50
  13   1  -6   14.10   10.00
 -13   1   6   21.90    9.50
 -11  -1   6  110.19   12.30
  11  -1  -6   96.49    6.70
  11  -1  -6  113.19    7.80
  11  -1  -6  122.69   12.80
 -11  -1   6  107.59    7.20
  11   1  -6  113.09    7.30
 -11   1   6  122.29   14.10
 -11   1   6   98.39    7.00
  11   1  -6  110.49   10.50
  11   1  -6  101.69    7.20
   9  -1  -6  106.49    6.80
   9  -1  -6  109.79    6.50
   9  -1  -6  105.89    9.20
  -9  -1   6  112.19    6.90
  -9   1   6  114.19    6.60
   9   1  -6  113.29    9.60
   9   1  -6  117.89    6.60
   9   1  -6  118.69    6.80
  -7  -1   6  169.98    8.20
   7  -1  -6  153.18    7.80
   7  -1  -6  162.08    7.90
   7  -1  -6  168.38    9.90
  -7   1   6  166.88    7.80
   7   1  -6  156.18    8.00
   7   1  -6  153.18    9.20
   7   1  -6  164.58    7.80
  -5  -1   6  925.71   35.20
   5  -1  -6  903.01   36.30
   5  -1  -6  893.81   34.90
   5  -1  -6  906.51   35.00
   5   1  -6  898.51   34.90
   5   1  -6  878.71   35.80
   5   1  -6  928.01   35.10
   3  -1  -6  698.23   27.40
   3  -1  -6  671.13   28.00
   3  -1  -6  723.43   27.20
   3  -1  -6  737.43   27.20
   3   1  -6  725.73   27.10
   3   1  -6  689.23   27.80
   3   1  -6  694.93   27.20
   1  -1  -6  447.36   18.40
   1  -1  -6  489.65   18.00
   1  -1  -6  461.15   18.20
   1  -1  -6  465.85   17.60
   1   1  -6  466.65   17.60
   1   1  -6  436.36   17.60
   1   1  -6  443.36   18.30
   1   1  -6  444.86   17.80
  -1  -1  -6   19.70    2.20
  -1  -1  -6   18.60    2.00
  -1  -1  -6   17.40    1.90
  -1  -1  -6   21.60    2.20
  -1   1  -6   18.40    2.50
  -1   1  -6   19.40    1.80
  -1   1  -6   18.40    1.60
  -1   1  -6   16.10    1.70
  -1   1  -6   19.20    1.70
  -3  -1  -6  873.21   34.40
  -3  -1  -6  857.41   34.20
  -3  -1  -6  958.80   34.40
  -3  -1  -6  806.02   34.30
  -3   1  -6  937.11   34.00
  -3   1  -6  896.31   34.70
  -3   1  -6  889.61   34.00
  -3   1  -6  897.51   34.10
  -5  -1  -6    5.10    2.30
   5  -1   6    2.10    1.60
  -5  -1  -6    0.10    2.10
  -5  -1  -6    2.80    2.00
  -5  -1  -6    2.80    1.60
  -5   1  -6    2.50    1.40
  -5   1  -6    4.60    2.30
  -5   1  -6    3.70    2.40
  -7  -1  -6  394.56   17.20
  -7  -1  -6  401.86   17.40
  -7  -1  -6  391.66   17.40
  -7  -1  -6  400.16   16.50
   7  -1   6  381.16   16.40
  -7   1  -6  416.76   17.10
  -7   1  -6  406.16   17.80
  -7   1  -6  407.36   16.50
  -9  -1  -6   43.20    5.50
  -9  -1  -6   53.79    6.30
   9  -1   6   50.69    5.00
  -9  -1  -6   43.30    4.40
  -9   1  -6   66.79    8.20
  -9   1  -6   46.40    4.60
  -9   1  -6   55.59    5.30
 -11  -1  -6   44.30    5.60
  11  -1   6   55.19    6.40
 -11  -1  -6   53.39    8.70
 -11  -1  -6   53.89    6.40
 -11   1  -6   55.69    5.30
 -11   1  -6   46.40    6.20
 -11   1  -6   51.69   10.20
  14  -2  -6    1.40   11.30
  14  -2  -6   10.60    7.70
 -14  -2   6    3.10    4.80
  14  -2  -6    1.10    4.00
  14   2  -6  -12.60   10.70
  14   2  -6   11.10    7.00
 -14   2   6   10.90    5.30
 -14   2   6   -9.20   11.70
  14   2  -6    7.20    4.70
  12  -2  -6   77.39    7.60
 -12  -2   6   70.29    6.80
  12  -2  -6   71.49   10.90
  12  -2  -6   78.89    6.10
  12   2  -6   73.79    6.70
  12   2  -6   72.79    6.30
  12   2  -6   69.99   13.00
 -12   2   6   78.19   14.00
 -12   2   6   84.49    6.50
  10  -2  -6   40.10    8.40
  10  -2  -6   34.40    3.90
  10  -2  -6   21.30    4.40
 -10  -2   6   26.20    4.40
  10   2  -6   30.10    4.40
  10   2  -6   30.80    6.20
 -10   2   6   25.70    9.30
  10   2  -6   29.00    4.30
 -10   2   6   33.00    4.60
   8  -2  -6   46.70    7.10
   8  -2  -6   41.30    3.70
   8  -2  -6   43.40    4.40
  -8  -2   6   50.69    4.70
   8   2  -6   53.49    6.80
   8   2  -6   45.20    4.30
   8   2  -6   51.49    3.80
   6  -2  -6  303.47   14.60
  -6  -2   6  298.47   13.10
   6  -2  -6  296.37   12.80
   6  -2  -6  310.97   12.60
   6   2  -6  301.27   12.50
   6   2  -6  296.97   12.80
   6   2  -6  262.37   13.20
   4  -2  -6  171.68    7.60
   4  -2  -6  171.08    7.70
   4  -2  -6  173.88    9.00
   4   2  -6  162.88    8.20
   4   2  -6  170.98    7.70
   4   2  -6  177.78    7.70
   2  -2  -6   20.90    2.80
   2  -2  -6   25.70    2.40
   2  -2  -6   21.10    3.50
   2  -2  -6   25.10    2.10
   2   2  -6   23.90    2.20
   2   2  -6   26.10    2.00
   2   2  -6   23.20    1.80
   2   2  -6   22.20    2.60
   0  -2  -6  935.91   35.20
   0  -2  -6  945.51   34.70
   0   2  -6  917.01   34.50
   0   2  -6  918.81   34.60
   0   2  -6  844.62   34.70
   0   2  -6  863.01   34.40
   0   2   6  895.51   34.70
  -2  -2  -6  143.19    6.70
  -2  -2  -6  146.29    6.40
  -2  -2  -6  136.79    6.90
  -2   2  -6  138.99    6.20
   2   2   6  135.99    6.50
  -2   2  -6  133.99    6.80
  -2   2  -6  136.59    6.40
  -4  -2  -6  752.02   29.30
  -4  -2  -6  757.32   29.30
  -4  -2  -6  759.02   29.60
  -4   2  -6  755.02   29.10
   4   2   6  740.33   29.50
  -4   2  -6  701.53   29.60
  -4   2  -6  741.03   28.80
  -6  -2  -6  158.68    8.30
  -6  -2  -6  149.49    8.10
  -6  -2  -6  160.08    7.70
   6  -2   6  156.78    7.60
  -6   2  -6  153.58    7.80
   6   2   6  148.99    9.20
  -6   2  -6  154.98    7.50
  -6   2  -6  156.78    9.10
   8  -2   6  250.97   11.50
  -8  -2  -6  231.68   11.30
  -8  -2  -6  246.98   12.40
  -8   2  -6  245.68   11.00
  -8   2  -6  254.17   13.20
  -8   2  -6  247.38   11.70
 -10  -2  -6    0.50    3.70
  10  -2   6    3.70    4.10
 -10  -2  -6   -1.70    4.20
 -10   2  -6   -5.90    3.60
 -10   2  -6    3.20    5.80
 -10   2  -6    1.90    3.50
  12  -2   6   37.30    5.80
 -12  -2  -6   34.80    6.50
 -12  -2  -6   39.40    5.90
  12  -2   6   47.60    7.80
 -12   2  -6   27.30    5.70
 -12   2  -6   41.50    6.50
 -12   2  -6   49.90   10.30
  13  -3  -6   -0.50    4.00
  13  -3  -6  -10.60    6.90
 -13  -3   6    3.70    4.50
  13  -3  -6    2.20   10.60
 -13   3   6   -2.00   10.40
 -13   3   6    0.10    4.80
  13   3  -6   -3.60    4.10
  13   3  -6  -10.10    9.90
  13   3  -6   -2.20    5.50
  11  -3  -6   48.80    7.00
  11  -3  -6   43.30    4.30
  11  -3  -6   44.20   10.30
 -11  -3   6   43.60    5.60
 -11   3   6   45.20    6.00
  11   3  -6   53.79    5.60
  11   3  -6   62.29    9.60
 -11   3   6   56.79    9.70
  11   3  -6   46.00    5.60
   9  -3  -6   52.69    5.70
   9  -3  -6   77.39   10.60
   9  -3  -6   56.99    4.70
  -9  -3   6   62.69    5.50
   9   3  -6   53.39    4.70
   9   3  -6   50.79    5.30
   9   3  -6   67.69    7.60
  -9   3   6   76.69    9.70
   7  -3  -6  188.08    9.20
  -7  -3   6  177.58    9.30
   7  -3  -6  179.68    8.60
   7  -3  -6  185.28   10.90
   7   3  -6  180.28    8.50
   7   3  -6  176.38    8.90
   5  -3  -6  177.18    9.80
   5  -3  -6  176.58    8.30
   5  -3  -6  169.28    7.80
  -5  -3   6  167.78    8.20
   5   3  -6  157.58    7.90
   5   3  -6  169.78    8.10
   3  -3  -6  257.47   10.90
   3  -3  -6  256.57   11.00
   3   3  -6  252.87   11.00
   3   3  -6  262.07   10.70
   1  -3  -6  562.14   21.90
   1  -3  -6  589.24   22.30
  -1   3   6  529.85   22.20
   1   3  -6  580.04   22.20
   1   3  -6  542.25   22.20
   1   3  -6  581.94   22.40
  -1  -3  -6  570.94   23.80
  -1  -3  -6  612.84   23.50
  -1   3  -6  572.34   23.30
  -1   3  -6  588.44   23.30
  -1   3  -6  589.04   22.80
  -3  -3  -6   32.00    3.70
  -3  -3  -6   24.70    3.30
  -3  -3  -6   32.30    3.50
  -3   3  -6   31.20    2.70
  -3   3  -6   26.70    3.60
  -3   3  -6   24.10    3.30
   5  -3   6   20.20    3.30
  -5  -3  -6   25.30    3.80
  -5  -3  -6   27.40    3.70
  -5  -3  -6   25.50    3.80
   5   3   6   28.90    4.60
  -5   3  -6   24.80    3.50
  -5   3  -6   19.90    3.10
  -5   3  -6   24.50    4.40
  -7  -3  -6   93.79    7.00
  -7  -3  -6   89.49    6.70
   7  -3   6  103.19    6.50
  -7  -3  -6  101.29    6.80
  -7   3  -6   99.89    6.20
  -7   3  -6  104.89    6.40
  -7   3  -6   94.69    7.70
  -9  -3  -6   24.40    4.60
  -9  -3  -6   20.00    4.60
   9  -3   6   22.40    4.80
   9   3   6   22.60    7.30
  -9   3  -6   17.70    3.90
  -9   3  -6   21.10    3.80
  -9   3  -6   33.50    6.00
 -11  -3  -6  112.69    8.90
  11  -3   6  110.79    9.00
  11  -3   6   96.09    7.10
 -11  -3  -6   91.79    8.10
 -11   3  -6   98.19    7.90
 -11   3  -6  117.49   12.30
  11   3   6   88.29   15.30
 -11   3  -6   99.59    7.20
  14  -4  -6   13.70    4.90
 -14  -4   6   26.30    5.40
 -14   4   6   22.90   14.80
  14   4  -6   18.60    7.90
 -14   4   6   18.10    6.30
  14   4  -6   19.00    5.20
  12  -4  -6   39.10    8.10
 -12  -4   6   40.10    6.00
  12  -4  -6   35.60    5.00
  12  -4  -6   23.70   10.20
  12   4  -6   49.40    9.10
  12   4  -6   35.10    5.70
  12   4  -6   41.20    7.10
 -12   4   6   39.40   10.80
 -12   4   6   51.09    7.40
 -10  -4   6   17.40    4.60
  10  -4  -6   18.70    5.30
  10  -4  -6    9.30    7.60
  10  -4  -6   23.10    4.10
 -10   4   6   25.70    9.60
  10   4  -6   17.70    4.70
  10   4  -6   21.90    4.00
   8  -4  -6  152.48    7.60
   8  -4  -6  146.69    8.70
   8  -4  -6  170.78   11.90
  -8  -4   6  136.39    8.50
   8   4  -6  145.69    7.80
   8   4  -6  146.19    8.20
  -6  -4   6   25.10    3.70
   6  -4  -6   22.20    5.50
   6  -4  -6   26.10    4.10
   6  -4  -6   19.50    3.00
   6   4  -6   24.00    3.10
   4  -4  -6  367.76   14.80
   4  -4  -6  359.46   15.10
   4   4  -6  349.27   14.80
   4   4  -6  343.57   14.70
  -4   4   6  349.77   16.00
   2  -4  -6   43.40    3.50
   2  -4  -6   51.09    3.80
   2   4  -6   42.40    3.70
   2   4  -6   47.50    3.50
   0  -4  -6  245.88   10.30
   0  -4  -6  248.98   10.90
   0   4  -6  242.78   10.90
   0   4  -6  242.58   10.80
  -2  -4  -6   61.99    5.00
  -2  -4  -6   60.39    4.60
  -2  -4  -6   59.69    4.30
  -2   4  -6   60.49    4.80
  -2   4  -6   70.29    4.90
  -2   4  -6   63.39    4.00
  -4  -4  -6  399.76   17.10
  -4  -4  -6  420.16   17.90
  -4  -4  -6  391.16   17.60
  -4   4  -6  394.46   17.40
  -4   4  -6  419.36   17.40
  -4   4  -6  407.56   16.50
  -6  -4  -6  130.49    8.00
  -6  -4  -6  122.29    7.60
  -6  -4  -6  130.99    7.60
   6  -4   6  114.59    7.30
  -6   4  -6  130.79    8.60
  -6   4  -6  126.99    7.50
  -6   4  -6  112.19    6.60
  -8  -4  -6   11.40    4.30
  -8  -4  -6    7.90    4.40
  -8  -4  -6   12.20    4.00
   8  -4   6    9.90    4.40
  -8   4  -6    9.60    3.90
  -8   4  -6   10.00    5.40
  -8   4  -6    1.00    3.60
 -10  -4  -6   29.40    5.70
  10  -4   6   28.10    6.20
 -10  -4  -6   32.00    6.30
 -10   4  -6   24.10    4.90
 -10   4  -6   35.20    7.50
 -12  -4  -6   26.30    7.90
 -12  -4  -6   26.60    5.40
 -12   4  -6   32.80    6.20
 -12   4  -6   29.90    5.80
  13  -5  -6   -2.20    4.70
  13  -5  -6   22.60   15.80
 -13  -5   6   -0.80    5.50
 -13   5   6   -8.50   13.90
  13   5  -6    5.10    4.70
 -13   5   6    4.10    7.10
  13   5  -6    0.80    6.90
  11  -5  -6   65.69    5.50
 -11  -5   6   63.79    6.70
  11  -5  -6   55.79    8.20
 -11   5   6   58.19   11.30
  11   5  -6   56.49    6.40
  11   5  -6   63.49    7.10
   9  -5  -6    5.10    7.90
   9  -5  -6   -4.20    5.30
  -9  -5   6    2.80    3.60
   9   5  -6    6.00    3.40
  -9   5   6    5.70    8.90
   7  -5  -6  121.89    7.80
  -7  -5   6  110.79    6.90
   7  -5  -6   87.39   11.10
   7  -5  -6  115.69    6.40
   7   5  -6  108.09    6.50
   5  -5  -6    3.20    3.40
   5  -5  -6    6.10    2.80
   5   5  -6    8.10    2.70
  -5   5   6    7.40    4.30
   3  -5  -6   91.59    5.50
   3  -5  -6   88.09    5.60
  -3   5   6   82.99    6.70
   3   5  -6   94.99    5.60
   3   5  -6   90.79    5.70
   1  -5  -6  199.68    9.80
   1  -5  -6  211.18    9.50
   1   5  -6  211.18   10.00
   1   5  -6  216.78    9.90
  -1  -5  -6   96.09    5.80
  -1   5  -6   89.89    5.60
  -1   5  -6   90.49    5.10
  -1   5  -6   99.69    6.40
  -3  -5  -6  224.58   10.90
  -3  -5  -6  223.08   10.40
  -3   5  -6  229.58   11.90
  -3   5  -6  219.78   10.80
  -3   5  -6  225.18   11.10
  -3   5  -6  217.18    9.80
  -5  -5  -6  387.76   17.50
  -5  -5  -6  364.96   16.80
  -5  -5  -6  376.56   17.60
  -5   5  -6  404.06   17.90
  -5   5  -6  393.86   17.40
  -5   5  -6  384.16   16.00
  -7  -5  -6   22.70    5.20
  -7  -5  -6   18.60    4.80
   7  -5   6   19.50    4.90
  -7  -5  -6   17.50    4.80
  -7   5  -6   22.90    5.60
  -7   5  -6   19.90    3.60
  -7   5  -6   20.40    4.70
  -9  -5  -6   19.10    4.90
   9  -5   6   12.60    6.00
  -9  -5  -6   10.70    6.10
  -9   5  -6   26.00    7.10
  -9   5  -6   11.20    3.70
  -9   5  -6   16.50    5.20
  11  -5   6   23.80    8.10
 -11  -5  -6   37.90    8.10
 -11  -5  -6   18.70    5.80
 -11   5  -6   37.40   10.40
 -11   5  -6   14.70    6.40
 -11   5  -6   25.00    5.70
  10  -6  -6   33.60    7.80
  10  -6  -6   17.90   10.10
  10  -6  -6   40.60    4.90
 -10  -6   6   32.30    5.30
 -10   6   6   27.90   10.90
  10   6  -6   42.40    6.30
   8  -6  -6   53.49    7.80
   8  -6  -6   60.09    4.90
  -8  -6   6   53.09    5.50
   8   6  -6   65.29    5.80
  -8   6   6   71.89   11.20
   6  -6  -6   64.69    6.40
   6  -6  -6   63.49    5.00
  -6   6   6   53.59    9.10
   6   6  -6   54.49    5.40
   4  -6  -6 1085.59   43.20
   4  -6  -6 1122.29   43.80
   4   6  -6 1143.79   43.60
   4   6  -6 1111.69   43.50
  -4   6   6 1079.09   44.20
   2  -6  -6    6.80    2.80
   2  -6  -6   -1.60    2.90
   2   6  -6    4.80    2.70
   2   6  -6    4.30    3.50
   0  -6  -6  537.65   21.80
   0   6  -6  497.65   22.00
  -2  -6  -6    6.80    3.30
  -2   6  -6   -3.40    3.70
  -2   6  -6    4.70    2.50
  -2   6  -6   -1.60    3.20
  -4  -6  -6   18.60    4.50
  -4  -6  -6   15.00    3.90
  -4   6  -6   15.60    5.90
  -4   6  -6   25.30    4.60
  -4   6  -6   21.40    3.20
  -4   6  -6   17.40    4.60
  -6  -6  -6   40.20    5.30
  -6  -6  -6   37.90    5.60
  -6   6  -6   43.10    6.00
  -6   6  -6   37.50    6.40
  -6   6  -6   40.70    4.60
  -8  -6  -6   55.69    6.60
  -8  -6  -6   66.29    6.80
  -8   6  -6   54.19    8.40
  -8   6  -6   62.69    6.10
  -8   6  -6   76.29   10.90
 -10  -6  -6   27.70    5.90
  10  -6   6   45.80    9.80
 -10   6  -6   22.80    4.70
 -10   6  -6   38.40   10.70
 -10   6  -6   10.60    7.30
  11  -7  -6   71.69    6.30
  11   7  -6   46.10    7.50
   9  -7  -6   15.20    4.40
  -9  -7   6   10.90    4.60
   9  -7  -6    2.20    7.10
   9   7  -6    8.80    4.80
  -9   7   6   -2.30   10.60
   7  -7  -6  139.09    9.90
   7  -7  -6  127.59    7.90
  -7   7   6  113.29   14.70
  -7   7   6  148.69   13.60
   7   7  -6  126.49    8.40
   5  -7  -6   18.10    4.70
   5   7  -6    6.30    4.60
   5   7  -6   15.30    4.40
  -5   7   6    2.10    6.80
  -5   7   6    1.50    7.80
   3  -7  -6   40.20    5.50
   3  -7  -6   39.20    4.70
   3   7  -6   41.60    6.50
   3   7  -6   55.29    5.40
   1  -7  -6    5.70    4.00
   1   7  -6   -2.90    3.40
   1   7  -6   -6.40    4.30
  -1  -7  -6   62.59    5.50
  -1   7  -6   61.49    5.00
  -1   7  -6   73.89    7.30
  -3  -7  -6   72.59    5.90
  -3  -7  -6   72.19    6.50
   3   7   6   79.19    5.30
  -3   7  -6   72.79    7.30
  -3   7  -6   79.49    5.20
  -3   7  -6   79.99    9.80
  -3   7  -6   93.49    8.50
  -5  -7  -6   24.40    4.80
  -5  -7  -6   18.90    4.80
  -5   7  -6   14.30    5.70
  -5   7  -6   19.50    6.10
  -5   7  -6    4.50    8.00
  -5   7  -6   26.60    4.10
  -7  -7  -6  134.79    9.10
  -7  -7  -6  129.69    9.10
  -7   7  -6  127.39   11.20
  -7   7  -6  122.99   11.60
  -7   7  -6  120.29    7.60
   8  -8  -6  139.39    8.80
   8  -8  -6  104.49   12.00
  -8   8   6  129.69   16.90
   8   8  -6  133.49    9.80
   6  -8  -6   10.60    5.00
   6  -8  -6   15.30    6.70
   6   8  -6    8.70    5.50
   4  -8  -6   71.79    6.20
   4  -8  -6   91.49    8.00
   4   8  -6   82.09    9.10
   4   8  -6   78.99    7.60
   2  -8  -6   10.20    4.10
   2   8  -6   12.70    5.90
   2   8  -6   10.40    4.50
   0  -8  -6   52.49    5.80
   0   8  -6   49.90    6.70
   0   8  -6   52.19    8.80
  -2  -8  -6   78.59    6.60
   2   8   6   90.49    6.60
  -2   8  -6   89.99    9.30
  -2   8  -6   88.89    6.20
  -4  -8  -6   86.09    7.00
  -4  -8  -6   91.49    7.70
   4   8   6   99.29    7.00
  -4   8  -6   92.29    6.50
  -4   8  -6  124.19   11.40
  -6  -8  -6   48.60    7.00
  -6  -8  -6   50.39    7.00
  -6   8  -6   48.80   15.40
  -6   8  -6   44.50    5.90
  -6   8  -6   57.79   10.70
   5  -9  -6   21.70    8.50
   5  -9  -6   15.50    5.40
   5   9  -6   28.00    8.20
   5   9  -6   18.60    7.60
   3  -9  -6  116.99    8.20
   3   9  -6  125.99   10.00
   3   9  -6  113.79   12.10
   1  -9  -6   41.70    6.20
   1   9  -6   48.80    8.20
   1   9  -6   33.00    8.50
  -1  -9  -6   65.59    6.60
  -1   9  -6   73.79   11.20
  -1   9  -6   80.79   10.20
  -1   9  -6   81.49    6.00
  -3  -9  -6   47.50    7.20
  -3   9  -6   35.80    5.30
   3   9   6   38.40    6.00
  -3   9  -6   25.80    9.70
  14   0  -7  -11.40   12.10
 -14   0   7   12.10   11.10
  14   0  -7    7.10    7.10
 -14   0   7    9.40    4.50
  14   0  -7    1.60    3.60
  12   0  -7    2.70    5.00
 -12   0   7    7.90    4.10
  12   0  -7   -0.80    3.30
 -12   0   7   11.90    9.40
 -10   0   7    8.60    3.40
  10   0  -7    2.80    3.10
  10   0  -7   10.20    6.20
  10   0  -7    6.60    3.20
   8   0  -7    2.90    2.60
  -8   0   7    0.10    2.50
   8   0  -7    0.30    2.40
   8   0  -7   -0.40    4.80
   6   0  -7    0.40    2.80
   6   0  -7    0.50    2.00
   6   0  -7    0.10    1.80
  -6   0   7   -0.40    1.70
   4   0  -7   -1.00    2.20
   4   0  -7    1.30    1.30
   4   0  -7   -0.20    1.60
   2   0  -7    1.00    0.90
   2   0  -7   -0.50    1.90
   2   0  -7    0.80    1.10
   2   0  -7    0.50    1.40
   0   0  -7    0.30    1.50
   0   0  -7    0.60    1.10
   0   0  -7    0.90    1.10
   0   0  -7    1.30    0.70
   0   0  -7   -0.60    1.60
  -2   0  -7    2.40    1.90
  -2   0  -7    4.40    1.60
  -2   0  -7    2.70    1.30
  -2   0  -7   -0.60    1.70
  -4   0  -7    0.00    1.30
  -4   0  -7    1.60    2.10
  -4   0  -7   -4.20    2.20
  -4   0  -7    1.10    2.10
  -6   0  -7    3.80    3.00
  -6   0  -7    1.00    2.50
  -6   0  -7    0.20    2.50
  -6   0  -7    0.00    1.80
  -8   0  -7    2.10    4.50
  -8   0  -7    2.00    3.10
  -8   0  -7    3.30    2.30
 -10   0  -7    0.70    5.60
 -10   0  -7    1.30    3.30
 -10   0  -7   -2.80    3.80
 -12   0  -7    4.30    5.20
 -12   0  -7    2.00    8.00
 -12   0  -7   -7.10    4.50
  15  -1  -7  -10.20    9.60
 -15  -1   7    5.00    5.60
  15  -1  -7   24.40   14.30
  15  -1  -7    2.40    4.20
  15   1  -7   -0.70    8.70
 -15   1   7   -2.40    5.30
  15   1  -7    5.50   13.80
  15   1  -7   -4.60    4.30
 -13  -1   7   -0.90    9.60
  13  -1  -7   -1.70   11.20
  13  -1  -7    6.10    6.20
 -13  -1   7   -0.90    4.30
  13  -1  -7    0.50    3.40
 -13   1   7   12.40   10.90
 -13   1   7    1.10    4.90
  13   1  -7    5.00    3.30
  13   1  -7    1.50    5.50
  13   1  -7  -14.10    9.60
  11  -1  -7  111.49    7.80
 -11  -1   7  103.19   13.20
  11  -1  -7  107.09   11.00
 -11  -1   7   91.59    6.90
  11  -1  -7   94.49    6.30
  11   1  -7   92.19    6.80
  11   1  -7   91.09    6.50
 -11   1   7   94.39    6.90
 -11   1   7   91.09   13.90
  11   1  -7   99.59   10.50
   9  -1  -7    9.00    2.80
   9  -1  -7   16.50    6.00
   9  -1  -7    6.50    3.30
  -9  -1   7    6.60    3.10
   9   1  -7   10.50    3.20
   9   1  -7   15.50    5.30
  -9   1   7    9.50    3.40
   9   1  -7    7.00    2.70
  -7  -1   7   69.79    4.80
   7  -1  -7   72.99    4.60
   7  -1  -7   80.49    5.10
   7  -1  -7   82.89    7.40
  -7   1   7   74.49    4.60
   7   1  -7   73.49    4.90
   7   1  -7   80.19    4.90
   7   1  -7   74.89    6.70
   5  -1  -7   14.00    2.30
   5  -1  -7   19.50    3.80
   5  -1  -7   19.80    2.50
  -5  -1   7   12.60    2.40
   5   1  -7   15.20    2.70
   5   1  -7   15.10    2.20
   5   1  -7   22.10    4.20
   3  -1  -7  161.68    7.40
   3  -1  -7  163.68    8.20
   3  -1  -7  165.38    7.10
   3  -1  -7  156.88    7.20
   3   1  -7  160.58    7.00
   3   1  -7  164.48    7.20
   3   1  -7  161.68    8.00
   1  -1  -7    2.00    1.40
   1  -1  -7    1.10    1.00
   1  -1  -7    2.70    2.00
   1  -1  -7    2.20    1.50
   1   1  -7    1.70    1.20
   1   1  -7   -1.00    1.00
   1   1  -7    1.60    1.00
   1   1  -7    1.60    1.70
  -1  -1  -7    4.20    1.80
  -1  -1  -7    3.40    1.80
  -1  -1  -7    3.30    1.50
  -1  -1  -7    3.00    1.60
  -1   1  -7    6.10    1.30
  -1   1  -7    2.60    2.00
  -1   1  -7    4.10    1.60
  -1   1  -7    5.40    1.40
  -1   1  -7    4.90    1.30
  -3  -1  -7   55.89    3.60
  -3  -1  -7   56.79    3.70
  -3  -1  -7   62.09    4.10
  -3  -1  -7   59.39    3.90
  -3   1  -7   54.89    3.60
  -3   1  -7   55.09    3.40
  -3   1  -7   50.89    3.60
  -3   1  -7   52.29    4.10
  -5  -1  -7    2.00    2.30
  -5  -1  -7    0.60    2.40
  -5  -1  -7   -1.30    2.40
  -5  -1  -7    2.80    1.70
  -5   1  -7    5.00    1.80
  -5   1  -7    7.30    2.40
  -5   1  -7    5.40    2.90
  -5   1  -7    3.80    2.30
   7  -1   7   25.50    3.50
  -7  -1  -7   24.60    3.70
  -7  -1  -7   30.60    4.50
  -7  -1  -7   29.60    3.60
  -7  -1  -7   27.40    4.30
  -7   1  -7   29.10    4.00
  -7   1  -7   27.60    5.20
  -7   1  -7   28.90    3.70
   9  -1   7   50.89    5.00
  -9  -1  -7   49.80    5.40
  -9  -1  -7   42.30    7.50
  -9  -1  -7   44.50    4.60
  -9   1  -7   43.80    4.70
  -9   1  -7   42.00    5.40
  -9   1  -7   54.09    7.50
 -11  -1  -7   -4.50    7.60
 -11  -1  -7   -1.50    4.00
  11  -1   7    6.00    4.80
 -11  -1  -7    2.50    4.80
 -11   1  -7    2.00    3.70
 -11   1  -7    1.00    3.90
 -11   1  -7    2.80    7.10
  13  -1   7   21.60    7.70
 -13  -1  -7   -4.30    6.00
 -13   1  -7   -4.80    5.30
 -13   1  -7   -1.40    5.60
  14  -2  -7   -1.60   12.70
  14  -2  -7   14.30    4.50
 -14  -2   7    3.80    4.80
  14  -2  -7   -4.90    7.40
  14   2  -7    4.40    4.40
  14   2  -7    5.10   12.00
 -14   2   7    3.80    5.40
  14   2  -7   16.60    6.60
 -14   2   7   -4.80   12.10
  12  -2  -7    8.20    3.40
  12  -2  -7   -3.50   10.30
 -12  -2   7    3.70    3.90
  12  -2  -7   -7.10    5.40
  12   2  -7   -3.40    7.50
  12   2  -7    8.10    4.70
  12   2  -7   -0.60    3.80
 -12   2   7    2.40    4.30
 -12   2   7    4.80    9.80
 -10  -2   7   41.30    5.00
  10  -2  -7   31.60    5.40
  10  -2  -7   31.70    3.90
  10  -2  -7   33.70    7.80
  10   2  -7   34.90    4.80
  10   2  -7   34.50    7.40
  10   2  -7   28.80    4.60
   8  -2  -7   -0.20    5.40
  -8  -2   7    2.50    2.50
   8  -2  -7    3.70    2.40
   8  -2  -7    6.90    3.30
   8   2  -7    8.70    2.40
   8   2  -7    7.30    4.30
   8   2  -7    5.70    3.20
   6  -2  -7    9.20    2.50
   6  -2  -7    9.30    2.50
  -6  -2   7   10.50    2.50
   6  -2  -7   12.80    4.40
   6   2  -7   11.00    2.50
   6   2  -7   14.20    3.50
   6   2  -7   14.30    2.50
   4  -2  -7    0.70    1.70
   4  -2  -7   -2.10    2.70
   4  -2  -7    2.70    1.90
   4   2  -7    0.80    1.20
   4   2  -7    3.60    1.90
   4   2  -7   -1.60    2.40
   2  -2  -7  426.46   17.90
   2  -2  -7  455.35   17.40
   2  -2  -7  431.76   17.10
   2  -2  -7  419.76   18.10
   2   2  -7  425.56   17.30
   2   2  -7  429.86   16.80
   2   2  -7  428.76   17.70
   2   2  -7  448.46   16.90
   0  -2  -7    0.30    1.90
   0  -2  -7   -0.70    1.80
   0  -2  -7    1.90    2.20
   0   2  -7   -1.40    1.50
   0   2  -7    2.20    1.80
   0   2  -7    0.30    1.20
   0   2   7    2.80    1.60
   0   2  -7    0.50    1.10
  -2  -2  -7   -2.60    2.00
  -2  -2  -7    2.50    1.90
  -2  -2  -7    0.80    2.00
  -2   2  -7    3.00    1.40
  -2   2  -7    2.20    1.80
  -2   2  -7    4.00    1.70
   2   2   7    3.30    1.80
  -4  -2  -7   97.99    5.80
  -4  -2  -7   90.49    5.50
  -4  -2  -7   95.89    5.60
  -4   2  -7   98.09    5.20
  -4   2  -7   92.09    5.20
   4   2   7   99.79    5.90
  -4   2  -7   91.29    6.10
   6  -2   7   34.20    3.70
  -6  -2  -7   39.60    4.10
  -6  -2  -7   39.70    4.00
  -6  -2  -7   32.30    4.20
  -6   2  -7   41.70    5.10
  -6   2  -7   40.40    3.50
   6   2   7   27.90    5.90
  -6   2  -7   31.70    4.00
  -8  -2  -7  351.16   16.30
   8  -2   7  354.96   15.50
  -8  -2  -7  347.27   15.60
  -8  -2  -7  348.57   16.50
  -8   2  -7  353.96   15.20
  -8   2  -7  365.86   16.00
  -8   2  -7  374.66   17.10
 -10  -2  -7   16.90    4.30
 -10  -2  -7   17.40    5.20
  10  -2   7   14.10    4.70
 -10   2  -7    7.70    6.10
 -10   2  -7   25.10    4.10
 -10   2  -7   12.70    4.30
  12  -2   7   16.60    7.20
 -12  -2  -7   11.40    6.20
 -12  -2  -7   10.80    5.70
  12  -2   7    6.00    5.40
 -12   2  -7    1.50    5.10
 -12   2  -7    5.20    5.00
 -12   2  -7    6.10    9.30
  13  -3  -7    1.70    3.50
  13  -3  -7    2.10    7.00
 -13  -3   7    5.70    4.80
  13  -3  -7    2.80   11.30
 -13   3   7   -6.20   11.10
  13   3  -7    3.90    4.20
  13   3  -7   10.80   10.30
  13   3  -7   -3.60    5.70
  11  -3  -7   15.50    3.50
  11  -3  -7   14.80    5.50
  11  -3  -7   17.40    8.60
 -11  -3   7   18.40    4.70
  11   3  -7    9.90    7.00
  11   3  -7   17.90    4.30
 -11   3   7    7.40    9.50
  11   3  -7   14.00    4.30
   9  -3  -7   12.00    3.20
   9  -3  -7   12.60    4.00
  -9  -3   7   14.00    3.80
   9  -3  -7   11.60    6.50
   9   3  -7   15.00    3.60
   9   3  -7   12.40    3.20
   9   3  -7   21.10    5.90
  -7  -3   7   10.50    2.90
   7  -3  -7   15.10    2.90
   7  -3  -7   16.10    3.20
   7  -3  -7   12.10    5.60
   7   3  -7   11.80    2.60
   7   3  -7   12.70    3.20
   7   3  -7    7.60    3.70
   5  -3  -7   -1.10    2.20
   5  -3  -7   -0.50    1.90
   5  -3  -7    5.10    4.00
   5   3  -7    1.20    2.80
   5   3  -7   -4.00    2.20
   5   3  -7    0.40    1.60
   3  -3  -7   17.30    2.60
   3  -3  -7   26.70    2.70
   3   3  -7   18.50    2.40
   3   3  -7   20.30    2.10
   3   3  -7   26.90    3.40
   3   3  -7   19.90    2.50
   1  -3  -7  539.65   22.70
   1  -3  -7  570.34   21.50
   1  -3  -7  552.04   21.90
   1   3  -7  543.65   21.90
   1   3  -7  547.85   21.60
   1   3  -7  540.85   22.00
  -1   3   7  551.34   22.00
  -1  -3  -7  103.99    6.10
  -1  -3  -7  107.09    5.70
  -1   3  -7  100.59    5.50
  -1   3  -7  110.89    5.80
  -1   3  -7  104.29    5.20
   1   3   7  100.49    5.50
  -3  -3  -7   -2.30    2.60
  -3  -3  -7   -3.50    2.40
  -3  -3  -7    1.60    2.60
  -3   3  -7    2.90    2.10
   3   3   7   -3.20    2.20
  -3   3  -7   -0.50    2.40
  -3   3  -7    1.20    1.70
  -5  -3  -7    9.10    3.30
  -5  -3  -7    4.80    2.90
  -5  -3  -7    7.30    3.00
  -5   3  -7   14.30    3.30
  -5   3  -7    8.60    2.60
   5   3   7    9.80    3.60
  -5   3  -7    7.70    2.60
  -7  -3  -7   -0.70    3.50
  -7  -3  -7   -5.80    3.50
   7  -3   7    0.90    3.30
  -7  -3  -7    0.20    3.60
  -7   3  -7    1.60    4.00
   7   3   7    0.50    5.30
  -7   3  -7    0.30    3.30
  -7   3  -7    4.40    2.80
   9  -3   7   -1.00    4.60
  -9  -3  -7   -1.30    4.50
  -9  -3  -7    7.70    4.30
  -9   3  -7    3.90    3.50
  -9   3  -7    1.10    5.90
  -9   3  -7    1.50    3.40
  11  -3   7    5.10    4.70
 -11  -3  -7    2.80    6.10
 -11  -3  -7    3.00    5.40
  11  -3   7    3.70    6.20
 -11   3  -7   11.60    8.60
 -11   3  -7   10.00    4.70
  11   3   7   12.70   11.20
 -11   3  -7   16.10    4.40
  14  -4  -7    2.00    4.60
 -14   4   7   -4.40    6.50
  14   4  -7   -4.20    4.20
  14   4  -7    3.70    8.30
  12  -4  -7   16.60   11.50
  12  -4  -7   13.40    7.30
 -12  -4   7    0.20    4.60
  12  -4  -7    2.90    4.00
 -12   4   7   -5.20   10.90
  12   4  -7   -3.80    5.20
  12   4  -7    3.30    4.60
  12   4  -7   12.00    8.90
 -12   4   7    3.60    5.80
  10  -4  -7   47.80   11.40
 -10  -4   7   42.90    5.50
  10  -4  -7   57.99    7.60
  10  -4  -7   48.20    4.70
 -10   4   7   59.69   11.00
  10   4  -7   55.49    5.50
  10   4  -7   50.69    5.80
   8  -4  -7   35.30    7.00
   8  -4  -7   34.80    4.00
   8  -4  -7   37.90    5.30
  -8  -4   7   32.00    4.40
   8   4  -7   35.30    4.70
   8   4  -7   27.00    4.30
   6  -4  -7   -0.20    5.20
  -6  -4   7    4.30    2.60
   6  -4  -7    7.80    3.00
   6  -4  -7    2.40    2.30
   6   4  -7    1.20    2.10
   6   4  -7    1.10    3.10
   4  -4  -7   31.50    3.60
   4  -4  -7   28.80    3.00
   4   4  -7   21.80    3.30
   4   4  -7   29.10    3.30
   2  -4  -7   28.10    3.20
   2  -4  -7   25.70    3.00
   2   4  -7   24.90    3.00
   2   4  -7   18.80    3.50
   2   4  -7   23.50    3.00
  -2   4   7   24.70    4.20
   0  -4  -7    0.60    1.70
   0  -4  -7   -1.70    2.20
   0   4  -7    1.80    2.10
   0   4  -7   -0.40    1.70
   0   4  -7    1.00    2.40
  -2  -4  -7    6.00    2.90
  -2  -4  -7    2.50    2.70
  -2  -4  -7    6.90    2.80
  -2   4  -7    2.70    2.40
  -2   4  -7    4.70    2.50
  -2   4  -7    4.70    2.30
  -4  -4  -7   49.70    4.90
  -4  -4  -7   40.80    4.50
  -4  -4  -7   46.10    5.40
  -4   4  -7   52.79    3.90
  -4   4  -7   43.60    4.70
  -4   4  -7   47.50    5.10
  -6  -4  -7   33.90    5.20
  -6  -4  -7   37.10    4.80
  -6  -4  -7   41.10    6.00
  -6   4  -7   49.20    5.10
  -6   4  -7   53.19    6.10
  -6   4  -7   34.10    3.90
  -8  -4  -7   15.10    4.70
  -8  -4  -7    9.50    4.90
   8  -4   7   10.40    4.70
  -8  -4  -7   12.50    4.20
  -8   4  -7    8.70    3.90
  -8   4  -7   10.30    3.90
  -8   4  -7   11.10    5.60
 -10  -4  -7    7.80    6.20
 -10  -4  -7   12.00    5.30
  10  -4   7    5.10    6.00
 -10   4  -7    7.90    4.50
 -10   4  -7    6.70    4.40
 -10   4  -7   -1.00    7.80
 -13  -5   7    1.30    4.60
  13  -5  -7    4.20    4.60
  13   5  -7    0.50    7.60
 -13   5   7    2.40    7.40
  13   5  -7    8.90    5.10
 -13   5   7   -7.10   13.60
 -11  -5   7    0.90    4.10
  11  -5  -7    2.50    7.60
  11  -5  -7   11.50    4.30
  11  -5  -7   12.40   10.20
  11   5  -7   -1.40    4.30
  11   5  -7   -8.40    4.60
 -11   5   7   -4.60   11.50
   9  -5  -7   43.80    6.60
   9  -5  -7   52.39    4.60
   9  -5  -7   32.90   10.10
  -9  -5   7   55.29    5.40
   9   5  -7   44.50    5.50
  -9   5   7   73.99   12.70
   9   5  -7   49.30    5.60
   7  -5  -7   38.00    7.60
   7  -5  -7   44.60    6.60
  -7  -5   7   38.00    4.60
   7  -5  -7   39.50    4.10
   7   5  -7   42.30    5.00
   7   5  -7   35.40    4.20
   5  -5  -7   -3.30    3.30
   5  -5  -7   -1.60    2.50
  -5   5   7    0.10    4.30
   5   5  -7    0.20    3.20
   5   5  -7    6.40    2.70
   3  -5  -7   20.50    3.30
   3  -5  -7   23.80    3.70
   3   5  -7   21.20    3.20
   3   5  -7   23.40    3.40
   1  -5  -7   50.39    3.80
   1  -5  -7   44.00    4.00
   1   5  -7   45.00    4.40
   1   5  -7   46.80    4.00
  -1  -5  -7    1.70    2.90
  -1   5  -7    1.60    2.90
  -1   5  -7    4.40    2.20
  -1   5  -7    6.50    2.50
  -3  -5  -7   18.60    3.80
  -3  -5  -7   19.70    3.40
  -3   5  -7   19.80    3.70
  -3   5  -7   19.80    3.10
  -3   5  -7   19.80    4.00
  -5  -5  -7   60.69    6.90
  -5  -5  -7   54.99    5.50
  -5  -5  -7   56.49    5.20
  -5   5  -7   59.59    4.40
  -5   5  -7   58.29    6.10
  -5   5  -7   63.79    6.60
  -7  -5  -7   15.20    4.70
  -7  -5  -7   24.40    5.60
  -7  -5  -7    8.40    4.10
  -7   5  -7   15.20    5.40
  -7   5  -7   14.20    3.30
  -7   5  -7   10.10    4.30
  -9  -5  -7   78.59    7.20
  -9  -5  -7   82.79    7.50
  -9  -5  -7   78.09    9.90
  -9   5  -7   75.29   10.90
  -9   5  -7   63.89    6.00
  -9   5  -7   89.29    8.10
  12  -6  -7    7.20    4.70
 -12  -6   7    4.00    5.00
  12   6  -7   -9.20    7.00
 -12   6   7   18.30   14.20
  12   6  -7   11.60    5.40
  10  -6  -7   49.20    5.50
  10  -6  -7   65.89   10.00
  10  -6  -7   31.40   10.90
 -10  -6   7   50.09    6.30
 -10   6   7   40.20   12.10
  10   6  -7   69.29    6.70
  10   6  -7   53.69    6.90
   8  -6  -7    3.20    3.30
  -8  -6   7   -0.90    3.50
   8  -6  -7   -5.00    5.70
  -8   6   7    6.60   10.70
   8   6  -7    9.20    4.40
   8   6  -7    2.00    3.70
   6  -6  -7   13.40    3.50
   6  -6  -7   14.00    4.60
  -6   6   7    8.30    6.40
   6   6  -7   12.60    3.40
   4  -6  -7   18.50    4.00
   4  -6  -7   16.50    3.90
   4   6  -7   12.30    3.50
   4   6  -7   15.00    3.80
   4   6  -7   13.20    3.60
   2  -6  -7   14.80    3.60
   2  -6  -7   25.90    4.00
   2   6  -7   17.40    3.90
   2   6  -7   22.00    3.70
   0  -6  -7    1.90    3.30
   0   6  -7    2.60    2.80
   0   6  -7    1.50    3.50
  -2  -6  -7   40.50    4.90
  -2   6  -7   43.70    5.10
  -2   6  -7   41.60    5.70
  -2   6  -7   42.10    4.10
  -4  -6  -7   10.60    3.80
  -4  -6  -7    6.20    3.70
  -4   6  -7    9.10    2.80
  -4   6  -7   11.30    4.70
  -4   6  -7    9.30    4.60
  -4   6  -7    2.90    6.10
  -6  -6  -7   11.30    4.30
  -6  -6  -7    8.60    4.30
  -6   6  -7   11.80    3.80
  -6   6  -7   21.40    5.70
  -6   6  -7   14.20    5.50
  -8  -6  -7    6.70    5.00
  -8  -6  -7    0.00    4.30
  -8   6  -7   -2.20    3.80
  -8   6  -7    6.20    7.20
  -8   6  -7    2.80    5.90
   9  -7  -7    8.30    7.20
   9  -7  -7    9.20    4.30
  -9   7   7   31.90   12.10
   9   7  -7   11.30    5.00
   9   7  -7   25.80    5.80
   7  -7  -7   11.80    6.30
   7  -7  -7    7.20    4.50
  -7   7   7    0.60   10.10
  -7   7   7    0.30    8.60
   7   7  -7   15.10    4.30
   5  -7  -7   29.90    5.70
   5  -7  -7   31.60    5.10
   5   7  -7   31.70    5.60
   3  -7  -7   -2.60    3.30
   3   7  -7   -6.50    4.00
   3   7  -7   -0.50    3.60
   1  -7  -7   13.20    4.10
   1   7  -7   16.00    3.90
   1   7  -7   16.90    5.00
  -1  -7  -7   -0.40    3.70
  -1   7  -7    0.00    2.60
  -1   7  -7    3.70    4.80
  -3  -7  -7   -7.00    3.30
  -3  -7  -7   -0.80    4.00
  -3   7  -7    5.50    5.00
  -3   7  -7   -2.40    6.70
  -3   7  -7    4.20    2.90
  -5  -7  -7    5.80    4.30
  -5  -7  -7    5.60    4.40
  -5   7  -7   10.60    6.10
  -5   7  -7    2.50    3.50
  -5   7  -7    3.80    8.60
  -5   7  -7   15.40    6.20
  -7  -7  -7   -4.00    5.00
  -7  -7  -7    2.10    4.70
  -7   7  -7    1.40    7.20
  -7   7  -7    7.40    7.60
  -7   7  -7    2.90    3.90
   8  -8  -7    0.10    8.80
   8  -8  -7    7.40    5.60
  -8   8   7    4.30   20.60
   8   8  -7    3.60    6.00
  -8   8   7    9.30   13.20
   6  -8  -7   -3.50    6.90
   6  -8  -7    7.90    4.90
  -6   8   7   14.50   11.00
   6   8  -7    4.10    5.30
   4  -8  -7   -2.60    5.60
   4  -8  -7    4.20    4.40
   4   8  -7    4.30    5.30
   4   8  -7   -2.30    4.80
   2  -8  -7    3.50    4.50
   2   8  -7   -2.10    5.40
   2   8  -7    2.90    4.90
   0  -8  -7    7.90    4.60
   0   8  -7   12.90    6.50
   0   8  -7   10.30    5.00
   0   8  -7   14.90    3.40
  -2  -8  -7    7.30    4.80
  -2   8  -7   13.50    4.00
  -2   8  -7    6.30    6.60
  -4  -8  -7   10.10    4.90
  -4  -8  -7    8.90    5.10
  -4   8  -7    4.70    6.50
  -4   8  -7   27.30    7.70
  -4   8  -7   11.90    3.60
  -6  -8  -7   -0.40    5.10
  -6  -8  -7    1.60    5.20
  -6   8  -7   -8.90    9.10
  -6   8  -7    5.80    4.40
   5  -9  -7   -1.20    5.10
   5  -9  -7    6.70    8.60
   5   9  -7    2.60    6.50
   5   9  -7    8.80    7.40
   5   9  -7   -1.30    5.00
   3  -9  -7    5.70    5.10
   3   9  -7   -9.30    7.40
   3   9  -7   -5.20    7.20
   1   9  -7   27.50    8.60
   1   9  -7   33.10    8.30
  -1  -9  -7    4.10    6.00
  -1   9  -7   15.40    8.70
  -1   9  -7    5.20    3.90
  -1   9  -7   13.10    5.80
  -3  -9  -7   -2.40    5.40
   3   9   7    9.10    5.50
  -3   9  -7    6.90    4.20
 -14   0   8   58.09    7.30
  14   0  -8   49.40    6.20
  14   0  -8   63.99    9.70
 -14   0   8   50.39   12.60
  14   0  -8   34.90   13.70
  12   0  -8  183.48   14.50
  12   0  -8  139.39    8.60
 -12   0   8  165.48    9.30
 -12   0   8  139.29   17.30
  12   0  -8  138.09    9.30
  10   0  -8   99.19    7.00
  10   0  -8  109.49   11.50
 -10   0   8  102.69    6.90
  10   0  -8  101.89    6.60
   8   0  -8   25.80    3.60
  -8   0   8   26.10    3.50
   8   0  -8   30.00    5.90
   8   0  -8   20.20    3.30
  -6   0   8   70.39    4.50
   6   0  -8   83.79    4.80
   6   0  -8   90.39    7.40
   6   0  -8   87.19    4.90
   4   0  -8  917.51   35.30
   4   0  -8  926.11   36.60
   4   0  -8  908.31   35.30
   2   0  -8 1075.49   41.00
   2   0  -8 1045.60   40.00
   2   0  -8 1057.79   40.10
   2   0  -8 1051.99   39.80
   2   0  -8 1024.20   39.90
   0   0  -8  254.67   10.90
   0   0  -8  268.77   10.70
   0   0  -8  269.47   10.90
   0   0  -8  262.17   11.60
   0   0  -8  263.27   10.50
  -2   0  -8 1344.67   49.70
  -2   0  -8 1307.37   49.50
  -2   0  -8 1240.78   50.09
  -2   0  -8 1322.27   49.70
  -4   0  -8  301.77   12.90
  -4   0  -8  295.37   12.70
  -4   0  -8  300.37   13.50
  -4   0  -8  317.07   13.10
  -6   0  -8  403.76   16.50
  -6   0  -8  397.96   17.50
  -6   0  -8  397.16   17.00
  -6   0  -8  398.96   17.10
  -8   0  -8   59.99    5.80
  -8   0  -8   63.09    5.20
  -8   0  -8   65.49    7.20
 -10   0  -8    6.20    3.80
 -10   0  -8   21.30    7.40
 -10   0  -8    8.60    3.90
 -12   0  -8   27.00    6.10
 -12   0  -8   36.70   12.40
 -12   0  -8   32.10    5.80
 -13  -1   8    1.10   11.40
  13  -1  -8    6.00    6.70
  13  -1  -8   -0.80    3.30
  13  -1  -8    8.30   10.60
 -13  -1   8    5.00    4.40
  13   1  -8    0.70    5.70
  13   1  -8  -18.50   10.70
 -13   1   8    4.10    4.60
  13   1  -8    1.70    3.60
 -13   1   8  -17.90   11.80
  11  -1  -8   13.50    4.60
 -11  -1   8   10.80   10.00
  11  -1  -8   10.90    4.10
  11  -1  -8   29.40    7.80
 -11  -1   8   10.60    4.20
 -11   1   8    6.80   10.00
 -11   1   8   13.40    4.30
  11   1  -8   17.20    7.90
  11   1  -8   12.00    3.90
  11   1  -8   12.40    4.40
   9  -1  -8    4.40    3.00
  -9  -1   8    0.60    2.60
   9  -1  -8    0.90    2.60
   9  -1  -8    1.00    5.60
  -9   1   8    2.50    3.00
   9   1  -8    4.80    3.00
   9   1  -8   -0.30    2.70
   9   1  -8    2.00    5.60
   7  -1  -8  592.04   25.50
   7  -1  -8  556.44   23.50
   7  -1  -8  585.74   23.70
  -7  -1   8  600.74   23.80
   7   1  -8  593.04   25.10
   7   1  -8  579.54   23.80
   7   1  -8  590.54   23.60
   5  -1  -8   91.29    4.90
   5  -1  -8   90.09    5.00
   5  -1  -8   89.89    7.20
   5   1  -8   85.99    6.30
   5   1  -8   89.29    4.90
   5   1  -8   89.49    4.80
   3  -1  -8   13.80    3.20
   3  -1  -8   11.90    1.90
   3  -1  -8   10.30    2.00
   3  -1  -8    8.10    1.80
   3   1  -8    8.70    1.70
   3   1  -8   11.50    1.70
   3   1  -8    9.30    2.90
   3   1  -8    8.30    1.40
   1  -1  -8  180.08    8.90
   1  -1  -8  189.28    8.50
   1  -1  -8  191.88    7.70
   1  -1  -8  192.28    8.20
   1  -1  -8  187.38    7.80
   1   1  -8  182.38    7.90
   1   1  -8  188.68    7.80
   1   1  -8  192.38    7.90
   1   1  -8  186.58    8.90
   1   1  -8  180.08    7.80
  -1  -1  -8   28.30    2.90
  -1  -1  -8   30.80    2.60
  -1  -1  -8   35.70    3.00
  -1  -1  -8   36.20    3.40
  -1   1  -8   34.70    2.30
  -1   1  -8   32.60    2.50
  -1   1  -8   35.70    2.70
  -1   1  -8   30.90    3.30
  -1   1  -8   34.30    2.60
  -3  -1  -8  199.18    9.40
  -3  -1  -8  200.28    9.10
  -3  -1  -8  186.58    8.80
  -3  -1  -8  201.38    8.80
  -3   1  -8  201.98    8.60
  -3   1  -8  193.48    8.60
  -3   1  -8  191.48    9.30
  -3   1  -8  198.38    8.70
  -5  -1  -8   59.09    4.50
  -5  -1  -8   65.19    4.20
  -5  -1  -8   62.49    5.50
  -5  -1  -8   57.49    4.60
  -5   1  -8   55.99    4.40
  -5   1  -8   64.59    4.30
  -5   1  -8   55.79    4.50
  -5   1  -8   58.69    5.00
  -7  -1  -8   -0.40    3.40
  -7  -1  -8   -2.30    3.40
  -7  -1  -8   -0.30    2.30
  -7  -1  -8   -0.90    3.20
  -7   1  -8   -5.10    4.20
  -7   1  -8   -1.70    2.80
  -7   1  -8   -0.60    2.30
  -9  -1  -8   88.49    7.40
  -9  -1  -8  105.99    8.30
  -9  -1  -8   88.79    6.70
   9  -1   8  101.29    6.30
  -9   1  -8   87.09    6.20
  -9   1  -8   93.59    7.00
  -9   1  -8   98.39    9.50
 -11  -1  -8   13.90    5.10
 -11  -1  -8   17.60    5.00
  11  -1   8   19.70    5.20
 -11   1  -8   19.30    4.40
 -11   1  -8    9.00    9.20
 -11   1  -8    4.60    4.70
  14  -2  -8   48.60    5.60
  14  -2  -8   64.39   10.30
  14  -2  -8   20.70   14.70
 -14  -2   8   44.50    6.90
  14   2  -8   63.19    9.30
  14   2  -8   51.29    6.40
 -14   2   8   55.29   13.50
 -14   2   8   62.09    7.30
  14   2  -8   45.00   12.30
  12  -2  -8    3.40    3.60
  12  -2  -8   -7.80    5.30
 -12  -2   8    3.40    4.00
  12  -2  -8   10.80   10.40
  12   2  -8    9.80    7.90
  12   2  -8   10.00    3.90
  12   2  -8    0.20    4.60
 -12   2   8   -8.20   11.20
 -12   2   8    0.00    4.60
  10  -2  -8  150.58    8.40
 -10  -2   8  154.38    9.00
  10  -2  -8  168.38    9.50
  10  -2  -8  190.98   13.10
  10   2  -8  174.88   12.50
  10   2  -8  154.98    8.90
  10   2  -8  160.18    8.80
   8  -2  -8   20.00    3.10
   8  -2  -8   20.40    5.60
   8  -2  -8   16.50    3.70
  -8  -2   8   26.40    3.60
   8   2  -8   22.70    3.30
   8   2  -8   28.90    3.50
   8   2  -8   25.90    5.10
   6  -2  -8  442.26   19.70
  -6  -2   8  451.05   18.20
   6  -2  -8  431.36   17.80
   6  -2  -8  428.26   18.00
   6   2  -8  419.06   17.80
   6   2  -8  432.76   18.90
   6   2  -8  432.16   17.90
   4  -2  -8   -4.80    3.70
   4  -2  -8    2.60    1.60
   4  -2  -8    3.00    2.00
   4   2  -8   -3.40    2.80
   4   2  -8    1.10    1.40
   4   2  -8    1.20    1.80
   2  -2  -8 1426.66   53.79
   2  -2  -8 1448.66   54.69
   2  -2  -8 1376.96   54.29
   2  -2  -8 1409.06   53.39
   2   2  -8 1406.66   53.19
   2   2  -8 1444.36   53.09
   2   2  -8 1382.76   54.19
   2   2  -8 1378.76   53.59
   0  -2  -8  217.88    9.40
   0  -2  -8  216.98    9.80
   0  -2  -8  191.38    9.80
   0   2  -8  212.28    8.90
   0   2  -8  204.48    9.60
   0   2  -8  211.48    8.90
   0   2  -8  205.18    9.00
  -2  -2  -8  542.25   22.10
  -2  -2  -8  553.94   21.70
  -2  -2  -8  549.35   22.40
  -2   2  -8  549.05   21.70
  -2   2  -8  552.14   22.40
  -2   2  -8  546.55   21.60
  -4  -2  -8   37.50    3.80
  -4  -2  -8   38.50    3.80
  -4  -2  -8   33.30    3.90
  -4   2  -8   35.40    3.60
  -4   2  -8   34.90    3.30
  -4   2  -8   41.80    4.30
  -6  -2  -8   25.10    4.10
  -6  -2  -8   25.40    3.90
  -6  -2  -8   19.90    3.70
  -6   2  -8   25.90    4.30
  -6   2  -8   22.50    3.50
  -6   2  -8   24.10    3.20
  -8  -2  -8   72.49    6.40
  -8  -2  -8   76.69    6.40
   8  -2   8   82.19    6.10
  -8  -2  -8   76.09    6.30
  -8   2  -8   79.59    6.20
  -8   2  -8   84.59    7.80
  -8   2  -8   76.89    6.10
 -10  -2  -8   63.39    7.30
  10  -2   8   72.79    6.70
 -10  -2  -8   60.79    6.80
 -10   2  -8   70.29    9.60
 -10   2  -8   57.39    6.60
 -10   2  -8   65.79    6.50
 -12  -2  -8   28.60    6.60
  12  -2   8   56.09    9.10
 -12  -2  -8   43.40    7.30
 -12   2  -8   46.40   10.50
 -12   2  -8   41.40    6.60
 -12   2  -8   50.29    7.70
  13  -3  -8   46.90    5.60
  13  -3  -8   63.89   10.60
 -13  -3   8   46.70    6.70
  13  -3  -8   38.10   13.80
  13   3  -8   41.20   11.50
  13   3  -8   62.59    6.30
 -13   3   8   61.69   13.40
  13   3  -8   45.70    7.40
  11  -3  -8   49.30    4.90
  11  -3  -8   56.39    6.90
  11  -3  -8   60.99   11.10
 -11  -3   8   55.49    5.80
  11   3  -8   53.69    6.30
 -11   3   8   72.09   11.80
  11   3  -8   56.59    9.50
  11   3  -8   48.70    5.60
   9  -3  -8  127.09    8.10
   9  -3  -8  125.09    7.20
   9  -3  -8  145.79   11.80
  -9  -3   8  117.09    7.60
   9   3  -8  116.69    7.60
   9   3  -8  132.49   10.60
   9   3  -8  128.89    7.30
   7  -3  -8    9.90    2.50
   7  -3  -8    8.20    3.10
  -7  -3   8   11.20    2.90
   7  -3  -8    6.50    5.40
   7   3  -8   12.30    5.00
   7   3  -8   10.50    2.90
   7   3  -8    9.00    2.40
   5  -3  -8   -1.10    3.90
   5  -3  -8   -1.70    1.90
   5  -3  -8   -1.00    2.40
   5   3  -8   -0.80    1.60
   5   3  -8   -0.50    2.20
   5   3  -8    0.50    2.80
   3  -3  -8  341.57   13.90
   3  -3  -8  336.87   14.00
   3  -3  -8  326.07   15.40
   3   3  -8  320.07   14.30
   3   3  -8  337.17   14.00
   3   3  -8  333.97   13.40
   1  -3  -8   76.89    4.80
   1  -3  -8   69.39    5.40
   1   3  -8   71.79    4.80
   1   3  -8   79.59    4.30
  -1   3   8   82.09    4.90
   1   3  -8   78.39    4.50
  -1  -3  -8  484.65   19.80
  -1  -3  -8  466.65   19.20
  -1   3  -8  464.15   18.80
  -1   3  -8  468.15   18.80
   1   3   8  441.56   18.80
  -1   3  -8  459.65   19.20
  -1   3  -8  474.25   18.60
  -3  -3  -8   51.79    4.80
  -3  -3  -8   66.49    4.40
  -3  -3  -8   64.89    5.20
   3   3   8   56.79    5.00
  -3   3  -8   63.79    5.00
  -3   3  -8   63.99    4.40
  -3   3  -8   59.89    4.00
  -5  -3  -8  314.97   14.40
  -5  -3  -8  305.77   14.60
  -5  -3  -8  314.47   14.60
  -5   3  -8  331.67   14.90
  -5   3  -8  319.87   13.60
   5   3   8  317.57   14.70
  -5   3  -8  321.17   13.80
  -7  -3  -8   -5.50    3.90
  -7  -3  -8    1.70    3.50
  -7  -3  -8    3.40    4.10
  -7   3  -8    2.80    3.70
   7   3   8    3.00    6.50
  -7   3  -8    2.80    4.60
  -9  -3  -8   28.20    5.50
   9  -3   8   37.00    5.50
  -9  -3  -8   26.30    5.40
  -9   3  -8   34.50    5.00
  -9   3  -8   23.30    4.70
   9   3   8   34.50    9.20
  -9   3  -8   27.50    6.50
 -11  -3  -8   13.70    5.20
 -11  -3  -8   10.70    7.00
  11  -3   8   -3.60    6.80
 -11   3  -8    0.80    8.90
 -11   3  -8   -1.10    5.40
 -11   3  -8   -6.90    4.50
  11   3   8    6.90   12.10
  14  -4  -8   26.60    5.10
  14   4  -8   12.00    5.50
  14   4  -8  -11.90    8.50
  12  -4  -8  -16.40   13.50
  12  -4  -8    7.00    4.30
 -12  -4   8   -0.50    4.10
  12  -4  -8    8.10    6.80
  12   4  -8   -4.20    5.50
 -12   4   8   -8.30   13.10
  12   4  -8    6.10    4.50
 -10  -4   8  130.39    8.50
  10  -4  -8  159.98   15.50
  10  -4  -8  124.19    7.60
  10  -4  -8  131.79    9.70
  10   4  -8  128.39    8.10
 -10   4   8  137.79   15.80
  10   4  -8  142.49    8.20
   8  -4  -8   19.90    3.80
   8  -4  -8   19.50    7.60
  -8  -4   8   18.80    3.70
   8  -4  -8   12.60    4.20
   8   4  -8   12.70    3.30
   8   4  -8   16.00    3.50
   6  -4  -8  229.08   11.00
   6  -4  -8  216.38   10.30
   6  -4  -8  256.87   14.30
   6   4  -8  216.18   10.50
   6   4  -8  224.58   10.50
   4  -4  -8    8.40    2.90
   4  -4  -8    9.50    2.50
   4   4  -8   13.60    2.80
   4   4  -8   16.60    3.50
   4   4  -8   17.00    2.90
   2  -4  -8    0.90    2.70
   2  -4  -8    2.60    2.10
   2   4  -8   -0.80    1.90
  -2   4   8    3.00    2.70
   2   4  -8    0.70    2.30
   2   4  -8   -2.20    1.90
   0  -4  -8   57.99    5.60
   0  -4  -8   57.19    4.40
   0   4  -8   55.19    4.50
   0   4  -8   57.39    3.80
   0   4   8   52.29    4.40
   0   4  -8   52.59    3.90
   0   4  -8   50.79    4.20
  -2  -4  -8   42.70    5.30
  -2  -4  -8   38.30    4.20
  -2  -4  -8   35.30    4.00
  -2   4  -8   44.00    4.60
  -2   4  -8   38.00    4.10
  -2   4  -8   40.90    3.40
  -4  -4  -8  210.08   10.50
  -4  -4  -8  210.08   10.80
  -4  -4  -8  223.78   11.40
  -4   4  -8  224.88   11.30
  -4   4  -8  213.68    9.90
  -4   4  -8  220.48   10.50
  -6  -4  -8   67.99    6.60
  -6  -4  -8   64.69    6.20
  -6  -4  -8   66.79    7.20
  -6   4  -8   73.29    6.00
  -6   4  -8   71.59    5.20
  -6   4  -8   88.09    7.10
  -8  -4  -8  218.98   12.10
  -8  -4  -8  204.58   11.70
  -8  -4  -8  199.08   11.70
  -8   4  -8  226.28   12.90
  -8   4  -8  222.78   11.00
  -8   4  -8  207.08   10.90
 -10  -4  -8   16.50    5.60
 -10  -4  -8   17.40    7.30
 -10   4  -8   10.90    5.00
 -10   4  -8   17.80    8.30
  13   5  -8   33.10    5.90
 -13   5   8   38.20    8.50
  13   5  -8   41.50    9.60
  11  -5  -8   74.39    6.30
  11  -5  -8   71.39   10.70
 -11  -5   8   73.19    7.00
 -11   5   8  104.39   14.80
  11   5  -8   84.09    7.80
  11   5  -8   67.69    6.60
   9  -5  -8   73.99   13.60
  -9  -5   8   78.89    6.20
   9  -5  -8   75.79    5.80
   9  -5  -8   71.19    8.70
   9   5  -8   75.39    6.50
   9   5  -8   60.59    6.00
   7  -5  -8   43.40    4.40
   7  -5  -8   57.59    6.90
   7  -5  -8   54.09    9.00
   7   5  -8   44.20    5.00
   7   5  -8   48.80    4.70
   5  -5  -8  160.48    8.90
   5  -5  -8  164.98    8.40
   5   5  -8  158.38    8.50
   5   5  -8  167.58    8.30
  -5   5   8  158.98    9.90
   3  -5  -8  353.36   15.30
   3  -5  -8  358.06   15.40
   3   5  -8  356.06   15.50
   3   5  -8  359.06   15.10
  -3   5   8  365.36   16.10
   1  -5  -8   19.30    3.20
   1  -5  -8   17.70    3.40
   1   5  -8   22.60    4.30
   1   5  -8   27.50    4.10
   1   5  -8   22.20    3.40
  -1  -5  -8  356.06   15.90
  -1   5  -8  330.67   15.70
  -1   5  -8  385.86   15.90
  -1   5  -8  372.76   15.10
  -3  -5  -8   52.09    5.20
  -3  -5  -8   55.49    4.90
  -3  -5  -8   40.10    6.80
  -3   5  -8   55.29    5.50
  -3   5  -8   58.89    5.70
  -3   5  -8   57.39    4.20
  -5  -5  -8  189.78   10.80
  -5  -5  -8  204.68   10.50
  -5  -5  -8  200.48   11.70
  -5   5  -8  205.38   11.70
  -5   5  -8  201.98   10.60
  -5   5  -8  193.98    9.40
  -7  -5  -8   19.40    6.40
  -7  -5  -8   17.90    5.20
  -7  -5  -8   22.20    5.30
  -7   5  -8   14.50    3.60
  -7   5  -8   15.60    5.90
  -7   5  -8   21.20    4.40
  -9  -5  -8   96.99   11.60
  -9  -5  -8  102.39    8.80
  -9  -5  -8  119.59    9.00
  -9   5  -8  120.09   12.10
  -9   5  -8  107.59    7.40
  -9   5  -8  128.29    9.30
  12  -6  -8   14.50    4.80
  12   6  -8    4.30    8.10
  12   6  -8    5.10    5.40
  10  -6  -8   41.10    5.40
  10  -6  -8   20.60   12.00
 -10  -6   8   39.00    5.80
  10  -6  -8   67.19   10.00
  10   6  -8   34.80    6.20
  10   6  -8   38.90    6.80
   8  -6  -8   15.80    4.20
   8  -6  -8   22.10    6.30
   8   6  -8   24.10    5.60
   8   6  -8   30.80    4.80
   6  -6  -8   79.29    6.00
   6  -6  -8   87.19    7.50
   6   6  -8   76.99    6.00
  -6   6   8   79.19    9.60
   6   6  -8   81.19    6.00
   4  -6  -8    3.20    3.50
   4  -6  -8   10.80    3.90
   4   6  -8    5.70    3.40
   4   6  -8    9.20    3.30
   4   6  -8    9.40    3.70
   2  -6  -8   88.39    6.50
   2  -6  -8   97.09    6.20
   2   6  -8  109.59    6.80
   2   6  -8   96.19    7.00
   0  -6  -8   37.10    5.10
   0   6  -8   37.00    3.80
   0   6  -8   38.90    4.50
   0   6  -8   41.00    5.60
  -2  -6  -8   13.10    4.00
  -2   6  -8   23.10    4.40
  -2   6  -8   16.30    3.40
  -2   6  -8   17.70    3.90
  -4  -6  -8   68.79    6.20
  -4  -6  -8   92.59    6.70
  -4   6  -8   89.19    5.50
  -4   6  -8   83.89    8.00
  -4   6  -8   79.69    7.80
  -6  -6  -8   47.20    5.80
  -6  -6  -8   44.60    6.00
  -6   6  -8   43.60    7.80
  -6   6  -8   48.30    9.30
  -6   6  -8   37.00    5.20
  -8  -6  -8    4.10    5.00
  -8  -6  -8    3.60    4.70
  -8   6  -8   -4.50    4.00
  -8   6  -8    4.40    7.90
  -8   6  -8    1.40    6.10
   9  -7  -8   57.59    9.20
   9  -7  -8   53.29    6.00
  -9   7   8   90.59   15.60
   9   7  -8   55.09    7.60
   9   7  -8   53.39    7.20
   7  -7  -8   84.99    8.90
   7  -7  -8   75.39    6.90
   7   7  -8   91.39    7.40
  -7   7   8  110.69   13.10
   7   7  -8   89.09    7.70
   5  -7  -8   10.20    4.60
   5  -7  -8   18.50    5.30
   5   7  -8    5.30    4.00
  -5   7   8    0.00    7.20
   5   7  -8    6.10    4.30
   3  -7  -8  226.98   11.10
   3  -7  -8  208.18   11.20
   3   7  -8  213.98   11.40
   3   7  -8  217.38   11.60
   1  -7  -8   58.59    5.80
   1   7  -8   56.39    5.90
   1   7  -8   47.30    7.00
  -1  -7  -8  212.08   11.00
  -1   7  -8  193.68   10.70
  -1   7  -8  187.98    9.50
  -1   7  -8  210.28   11.70
  -1   7  -8  196.08   10.90
  -3  -7  -8   11.60    5.10
  -3   7  -8   10.00    5.20
  -3   7  -8    3.50    3.10
  -3   7  -8   -1.20    7.50
  -5  -7  -8  217.08   12.00
  -5  -7  -8  207.58   11.50
  -5   7  -8  217.18   14.00
  -5   7  -8  204.88   10.40
  -5   7  -8  228.68   13.50
  -7  -7  -8  -11.00    5.20
  -7  -7  -8   -1.20    5.20
  -7   7  -8   -6.90    4.20
  -7   7  -8   -0.40    5.90
  -7   7  -8   -3.10    9.30
   8  -8  -8   21.40    9.30
   8  -8  -8   28.50    6.40
   8   8  -8   12.50    6.40
   8   8  -8   35.30    7.10
  -8   8   8   44.50   15.30
   6  -8  -8   83.09   10.00
   6  -8  -8   93.19    7.50
  -6   8   8  100.99   14.40
   6   8  -8  100.69    8.20
   6   8  -8   98.99    8.80
   4  -8  -8    0.50    4.40
   4  -8  -8    7.30    5.50
   4   8  -8    5.10    5.40
   4   8  -8    5.80    5.70
   2  -8  -8   20.00    5.00
   2   8  -8   19.20    5.50
   2   8  -8   17.70    6.70
   0  -8  -8   -1.10    4.40
   0   8  -8    1.90    3.50
   0   8  -8   -7.50    5.90
   0   8  -8   -2.80    4.90
  -2  -8  -8   11.90    5.00
  -2   8  -8   17.70    4.20
  -2   8  -8   17.30    7.10
  -4  -8  -8   42.90    6.30
  -4  -8  -8   36.30    5.50
  -4   8  -8   68.89   11.30
  -4   8  -8   51.79    5.10
   3  -9  -8   89.89    7.90
   3   9  -8   95.49   12.00
   1  -9  -8   51.09    6.70
   1   9  -8   52.89    5.70
   1   9  -8   68.79   11.70
  -1  -9  -8  213.48   12.00
  -1   9  -8  207.58   10.60
  -1   9  -8  181.48   15.60
 -14   0   9    3.60    5.60
 -14   0   9   -0.30   14.70
  14   0  -9   -3.30    7.30
  14   0  -9   -1.80    3.90
  14   0  -9   -2.60   13.50
  12   0  -9   11.20    4.90
  12   0  -9   15.40    8.70
 -12   0   9    2.30    4.20
 -12   0   9   13.50   12.20
  12   0  -9    2.50    3.50
  10   0  -9    2.20    3.10
  10   0  -9   11.30    7.10
 -10   0   9    1.20    3.10
  10   0  -9   -1.80    3.60
  -8   0   9   -2.00    2.50
   8   0  -9   -0.90    2.80
   8   0  -9   -2.00    4.50
   8   0  -9    2.80    2.50
   6   0  -9    1.90    2.10
   6   0  -9    0.70    2.00
   6   0  -9   -1.10    3.60
   4   0  -9    1.60    1.90
   4   0  -9   -0.30    1.50
   4   0  -9    3.80    2.90
   4   0  -9    0.30    1.50
   2   0  -9    4.50    1.40
   2   0  -9    1.40    1.10
   2   0  -9    1.20    1.70
   2   0  -9    1.10    1.50
   2   0  -9    3.60    2.60
   0   0  -9    1.70    2.20
   0   0  -9   -2.40    1.50
   0   0  -9    0.10    1.00
   0   0  -9    0.90    1.30
  -2   0  -9    3.20    2.00
  -2   0  -9   -1.70    1.60
  -2   0  -9    2.60    2.50
  -2   0  -9    1.10    2.20
  -4   0  -9    1.30    3.10
  -4   0  -9   -0.20    2.00
  -4   0  -9   -1.60    2.30
  -4   0  -9   -1.60    2.40
  -6   0  -9    3.30    2.50
  -6   0  -9    3.30    3.60
  -6   0  -9    4.40    3.50
  -6   0  -9    4.70    3.00
  -8   0  -9    1.20    3.60
  -8   0  -9    2.50    3.40
  -8   0  -9    5.80    4.60
 -10   0  -9   -6.00    6.60
 -10   0  -9   -3.30    4.00
 -10   0  -9    4.10    4.70
 -12   0  -9   -2.20    5.70
 -12   0  -9   -6.10    5.90
 -15  -1   9    7.20    5.10
  15  -1  -9    4.30    4.10
  15   1  -9    0.30    5.30
 -15   1   9    2.30    5.80
  13  -1  -9   11.90    6.90
 -13  -1   9    5.00    5.00
  13  -1  -9    1.40    3.50
 -13  -1   9  -19.30   13.30
  13  -1  -9    8.70   12.40
  13   1  -9   -1.00    3.80
 -13   1   9   -2.70    4.70
  13   1  -9   -5.10    5.40
  13   1  -9   12.50   10.30
  11  -1  -9    3.90    3.60
  11  -1  -9    0.80    4.80
 -11  -1   9    5.40    3.70
  11  -1  -9   -0.70    8.50
  11   1  -9    2.90    4.30
  11   1  -9  -11.00    7.10
 -11   1   9    2.80    3.90
  11   1  -9   -0.30    3.40
   9  -1  -9   17.20    3.50
   9  -1  -9    8.40    2.80
  -9  -1   9    5.80    3.00
   9  -1  -9   14.10    6.60
   9   1  -9   11.40    3.10
   9   1  -9   12.90    3.60
   9   1  -9   16.40    6.60
  -9   1   9    9.60    3.40
  -7  -1   9   10.50    2.70
   7  -1  -9   12.40    4.70
   7  -1  -9    5.50    2.50
   7   1  -9    8.20    2.60
   7   1  -9    4.80    2.40
   7   1  -9   10.30    5.10
   5  -1  -9    0.40    1.90
   5  -1  -9    0.30    2.10
   5  -1  -9   -1.80    3.60
   5   1  -9    6.50    2.10
   5   1  -9    6.30    3.10
   5   1  -9    4.30    1.50
   3  -1  -9  287.17   11.10
   3  -1  -9  287.27   11.70
   3  -1  -9  278.17   11.80
   3  -1  -9  280.27   13.10
   3  -1  -9  281.47   12.20
   3   1  -9  276.47   11.70
   3   1  -9  284.67   11.60
   3   1  -9  275.97   11.40
   3   1  -9  278.97   12.90
   1  -1  -9    2.40    1.90
   1  -1  -9    2.60    1.30
   1  -1  -9    4.80    2.60
   1  -1  -9    4.60    2.20
   1  -1  -9   -0.60    1.40
   1   1  -9    2.40    1.20
   1   1  -9    5.30    1.60
   1   1  -9    4.40    2.20
   1   1  -9    3.20    1.20
  -1  -1  -9  149.88    7.70
  -1  -1  -9  150.68    6.80
  -1  -1  -9  144.99    7.30
  -1  -1  -9  159.48    7.30
  -1   1  -9  157.18    6.70
  -1   1  -9  150.38    7.80
  -1   1  -9  148.99    6.80
  -1   1  -9  153.68    6.90
  -1   1  -9  156.78    6.90
  -3  -1  -9   27.40    3.20
  -3  -1  -9   22.80    3.00
  -3  -1  -9   20.40    2.90
  -3  -1  -9   30.70    4.40
  -3   1  -9   21.30    2.90
  -3   1  -9   28.40    3.20
  -3   1  -9   22.60    4.30
  -3   1  -9   24.80    2.20
  -3   1  -9   25.60    3.20
  -5  -1  -9    8.80    3.30
  -5  -1  -9    1.80    2.50
  -5  -1  -9    7.00    2.50
  -5  -1  -9    6.80    3.10
  -5   1  -9   10.20    2.90
  -5   1  -9    9.50    3.10
  -5   1  -9    3.70    3.00
  -5   1  -9    8.80    2.30
  -7  -1  -9   52.19    5.10
  -7  -1  -9   40.20    5.10
  -7  -1  -9   42.60    5.10
  -7  -1  -9   46.90    7.10
  -7   1  -9   50.09    6.20
  -7   1  -9   48.80    5.00
  -7   1  -9   49.99    4.50
  -9  -1  -9    4.60    5.40
  -9  -1  -9    2.30    4.00
  -9  -1  -9    6.10    4.10
  -9   1  -9    3.40    4.00
  -9   1  -9    6.30    3.50
  -9   1  -9    9.80    6.40
 -11  -1  -9   17.70    5.10
 -11  -1  -9    2.90    5.20
 -11  -1  -9    3.80    7.50
 -11   1  -9    5.10    9.80
 -11   1  -9    6.20    5.30
 -11   1  -9    4.90    4.80
  14  -2  -9    9.00    9.60
 -14  -2   9    7.50    5.20
  14  -2  -9    6.50    4.50
  14   2  -9    8.20    4.70
 -14   2   9   15.20    5.70
  14   2  -9  -10.70   13.10
 -14   2   9    2.30   15.30
  14   2  -9   10.00    7.50
  12  -2  -9   34.00    9.90
  12  -2  -9   26.00    6.20
  12  -2  -9   14.90    3.80
 -12  -2   9   12.90   12.10
 -12  -2   9   18.90    4.40
  12   2  -9   25.40    4.80
 -12   2   9   31.60    5.30
  12   2  -9   30.90    9.70
  12   2  -9   18.50    5.40
 -12   2   9   24.80   12.10
  10  -2  -9   33.60    8.90
 -10  -2   9   38.30    4.80
  10  -2  -9   37.10    6.00
  10  -2  -9   27.20    3.90
  10   2  -9   27.40    4.40
  10   2  -9   41.00    5.30
  10   2  -9   34.00    7.70
   8  -2  -9  146.39    8.30
   8  -2  -9  167.78   12.50
   8  -2  -9  150.78    8.00
  -8  -2   9  151.58    8.10
   8   2  -9  144.59    8.00
   8   2  -9  149.49    7.80
   8   2  -9  164.48   10.20
   6  -2  -9   10.00    4.50
   6  -2  -9    0.70    2.20
   6  -2  -9   11.00    2.70
   6   2  -9    4.10    3.60
   6   2  -9    1.80    2.00
   6   2  -9    4.70    2.30
   4  -2  -9   56.89    3.80
   4  -2  -9   44.80    6.20
   4  -2  -9   59.59    3.80
   4   2  -9   55.39    3.70
   4   2  -9   49.40    4.90
   4   2  -9   53.19    3.50
   2  -2  -9  735.53   28.10
   2  -2  -9  709.23   28.60
   2  -2  -9  714.23   27.60
   2  -2  -9  708.23   29.00
   2   2  -9  718.33   27.40
   2   2  -9  714.93   27.40
   2   2  -9  702.43   27.80
   2   2  -9  702.93   28.60
   0  -2  -9    9.40    3.00
   0  -2  -9    7.20    2.50
   0  -2  -9   11.90    2.30
   0  -2  -9   11.30    2.80
   0   2  -9    8.50    2.40
   0   2  -9    8.70    2.00
   0   2  -9    9.40    1.80
   0   2  -9    9.40    1.80
  -2  -2  -9    4.00    2.30
  -2  -2  -9    4.60    2.60
  -2  -2  -9    2.80    2.40
  -2  -2  -9    6.20    2.70
  -2   2  -9    6.20    1.80
  -2   2  -9    7.70    2.60
  -2   2  -9    6.10    1.70
  -2   2  -9    4.90    1.70
  -4  -2  -9    7.70    2.90
  -4  -2  -9    7.50    2.60
  -4  -2  -9    1.30    2.80
  -4  -2  -9   -1.50    2.60
  -4   2  -9    9.40    2.20
  -4   2  -9    5.80    2.50
  -4   2  -9    3.60    2.90
  -6  -2  -9   40.10    4.90
  -6  -2  -9   42.90    4.80
  -6  -2  -9   45.60    5.20
  -6   2  -9   49.20    4.60
  -6   2  -9   46.20    6.20
  -6   2  -9   45.90    4.60
  -8  -2  -9   11.40    4.20
  -8  -2  -9    4.40    4.20
  -8  -2  -9    6.00    3.70
  -8   2  -9    9.20    3.50
  -8   2  -9    4.60    5.90
  -8   2  -9    6.50    3.40
 -10  -2  -9   -3.20    5.40
 -10  -2  -9   10.00    4.70
 -10   2  -9    7.20    8.50
 -10   2  -9    3.60    5.10
  13  -3  -9   13.50   15.50
  13  -3  -9   14.40    4.10
 -13  -3   9   14.10    5.00
  13  -3  -9    7.50    8.00
 -13   3   9   -8.90   15.10
  13   3  -9   12.20    4.60
  13   3  -9    2.60    6.40
  13   3  -9   31.80   11.20
 -11  -3   9    8.70    3.70
  11  -3  -9    5.50    3.60
  11  -3  -9    8.30    5.60
  11  -3  -9    8.50    8.60
  11   3  -9   14.00    7.80
  11   3  -9    9.20    3.70
  11   3  -9    7.80    4.60
   9  -3  -9   42.00    9.40
   9  -3  -9   42.20    4.30
  -9  -3   9   47.40    4.90
   9  -3  -9   46.60    5.90
   9   3  -9   46.00    6.90
   9   3  -9   42.00    5.00
   9   3  -9   47.90    4.70
   7  -3  -9    9.60    6.80
   7  -3  -9    3.00    3.20
   7  -3  -9    0.10    2.60
   7   3  -9    7.70    4.50
   7   3  -9    2.40    2.60
   7   3  -9    3.50    2.40
   5  -3  -9    6.70    2.50
   5  -3  -9    8.60    2.70
   5  -3  -9   11.90    4.20
   5   3  -9    7.60    2.40
   5   3  -9    7.80    2.50
   5   3  -9   10.50    3.90
   3  -3  -9   34.10    3.40
   3  -3  -9   40.90    3.40
   3  -3  -9   37.90    5.30
   3   3  -9   38.10    4.70
   3   3  -9   34.70    2.70
   3   3  -9   32.00    2.60
   3   3  -9   38.10    3.10
   1  -3  -9  133.29    7.80
   1  -3  -9  136.89    6.20
   1  -3  -9  120.29    6.80
   1   3  -9  128.79    7.20
   1   3  -9  132.59    6.30
   1   3  -9  134.89    6.60
  -1  -3  -9   88.79    5.20
  -1  -3  -9   98.39    6.50
  -1  -3  -9   95.19    5.70
  -1   3  -9   91.49    5.10
  -1   3  -9   94.49    6.00
   1   3   9   96.29    5.70
  -1   3  -9   94.49    5.20
  -1   3  -9   96.89    5.30
  -3  -3  -9    0.40    2.80
  -3  -3  -9   -0.90    3.00
  -3  -3  -9    0.20    2.80
  -3   3  -9    3.30    2.80
  -3   3  -9    3.40    2.30
  -3   3  -9    3.70    2.00
   3   3   9    0.60    3.00
  -5  -3  -9  368.76   17.80
  -5  -3  -9  405.36   18.00
  -5  -3  -9  386.06   17.50
  -5   3  -9  421.06   17.10
  -5   3  -9  406.26   16.90
  -5   3  -9  418.66   18.10
   5   3   9  408.46   18.10
  -7  -3  -9    5.40    4.40
  -7  -3  -9   -0.60    4.50
  -7  -3  -9    8.70    4.10
   7   3   9   10.00    6.80
  -7   3  -9    1.10    5.50
  -7   3  -9    3.70    3.50
  -7   3  -9    8.90    3.00
  -9  -3  -9   -2.70    5.60
  -9  -3  -9    1.50    4.50
  -9  -3  -9    6.60    4.60
  -9   3  -9    2.00    4.20
   9   3   9   -1.80    8.20
  -9   3  -9    9.50    7.70
  -9   3  -9    4.40    4.10
 -11  -3  -9   12.20    8.10
 -11  -3  -9   10.00    5.80
 -11   3  -9    9.20    6.10
 -11   3  -9   12.80    5.30
  11   3   9   18.90   32.20
 -11   3  -9   15.70   11.50
  12  -4  -9   -6.10    3.60
  12  -4  -9  -14.90   15.80
  12  -4  -9    3.30    7.50
 -12  -4   9    5.30    4.50
 -12   4   9   -8.30   13.80
  12   4  -9   -7.40    9.70
  12   4  -9    8.40    4.30
  12   4  -9    1.70    5.80
  10  -4  -9    3.10    5.50
 -10  -4   9   -1.80    3.50
  10  -4  -9   13.30    8.90
  10  -4  -9    5.00    3.50
  10   4  -9    0.30    4.20
  10   4  -9   -1.20    3.70
   8  -4  -9    5.90    8.00
   8  -4  -9    0.50    2.70
   8  -4  -9    4.10    4.20
   8   4  -9    1.40    3.20
   8   4  -9    4.60    3.40
   8   4  -9    4.20    5.00
   6  -4  -9   20.70    6.90
   6  -4  -9   34.20    4.90
   6  -4  -9   28.40    3.40
   6   4  -9   16.00    2.90
   6   4  -9   25.30    3.50
   4  -4  -9   26.90    3.80
   4  -4  -9   31.10    3.50
   4   4  -9   18.90    3.40
   4   4  -9   27.50    3.30
   4   4  -9   33.50    4.70
   2  -4  -9   33.70    4.00
   2  -4  -9   43.60    3.70
  -2   4   9   34.00    4.20
   2   4  -9   43.70    4.30
   2   4  -9   37.10    3.50
   2   4  -9   43.70    3.70
   0  -4  -9  131.79    8.20
   0  -4  -9  123.09    7.10
   0   4  -9  120.09    6.30
   0   4  -9  119.89    6.60
   0   4  -9  121.99    7.40
   0   4  -9  125.59    6.50
  -2  -4  -9    9.90    3.70
  -2  -4  -9   11.80    3.50
  -2  -4  -9    9.20    3.10
  -2   4  -9   14.40    2.80
  -2   4  -9   10.70    3.50
  -2   4  -9   12.30    2.60
  -4  -4  -9  151.68    8.60
  -4  -4  -9  145.29    8.20
  -4  -4  -9  145.39    9.40
  -4   4  -9  146.19    8.80
  -4   4  -9  150.28    7.60
  -4   4  -9  152.28    8.20
  -6  -4  -9   58.99    6.00
  -6  -4  -9   55.49    7.30
  -6  -4  -9   54.69    5.90
   6   4   9   53.79    7.80
  -6   4  -9   48.60    5.40
  -6   4  -9   54.39    7.60
  -6   4  -9   55.49    4.80
  -8  -4  -9   25.00    6.20
  -8  -4  -9   15.70    5.20
  -8  -4  -9   23.10    5.70
  -8   4  -9   20.10    5.00
   8   4   9   26.30    7.70
  -8   4  -9   41.80    7.40
  -8   4  -9   26.00    4.50
 -10  -4  -9   13.50    5.40
 -10  -4  -9   35.40    8.20
 -10   4  -9   12.70    5.20
  10   4   9   14.50   11.90
 -10   4  -9   32.30    9.10
 -10   4  -9   14.40    5.50
  11  -5  -9    5.10    4.00
  11  -5  -9    0.80   15.10
  11  -5  -9   15.80    7.70
  11   5  -9    7.10    5.00
 -11   5   9   18.10   13.70
  11   5  -9   10.20    5.40
   9  -5  -9   10.50    6.10
   9  -5  -9    8.20    3.60
   9  -5  -9    7.40   11.10
   9   5  -9    3.20    4.10
   9   5  -9    2.70    4.50
   7  -5  -9   27.20    5.50
   7  -5  -9   30.90    8.20
   7   5  -9   27.70    4.60
   5  -5  -9   69.69    6.10
   5  -5  -9   75.09    5.10
   5   5  -9   69.79    5.20
   5   5  -9   55.89    4.60
   3  -5  -9   40.50    4.30
   3  -5  -9   44.80    4.70
   3   5  -9   46.70    4.70
   3   5  -9   45.80    4.30
  -3   5   9   46.50    5.90
   1  -5  -9   29.20    3.90
   1  -5  -9   36.30    3.60
   1   5  -9   34.90    3.90
   1   5  -9   37.20    4.40
  -1  -5  -9   20.60    4.60
  -1   5  -9   17.80    3.40
  -1   5  -9   20.00    4.00
  -1   5  -9   22.50    3.40
  -1   5  -9   20.10    3.30
  -3  -5  -9   19.90    5.20
  -3  -5  -9   28.90    4.60
  -3  -5  -9   25.90    5.00
  -3   5  -9   22.50    4.00
  -3   5  -9   24.30    3.40
  -3   5  -9   22.90    4.40
  -5  -5  -9   22.10    4.80
  -5  -5  -9   22.30    4.90
  -5  -5  -9   35.90    6.10
  -5   5  -9   26.80    5.30
  -5   5  -9   36.30    5.50
  -5   5  -9   33.60    4.10
  -7  -5  -9   31.90    5.80
  -7  -5  -9   37.90    7.40
  -7  -5  -9   33.90    5.60
  -7   5  -9   46.30    6.60
  -7   5  -9   39.30    7.70
  -7   5  -9   37.90    4.60
  -9  -5  -9   25.90    8.80
  -9  -5  -9   21.60    6.20
  -9  -5  -9   28.00    6.20
  -9   5  -9   19.90    4.20
  -9   5  -9   31.40    6.80
  -9   5  -9   35.60   10.00
  10  -6  -9   -5.10    3.90
  10  -6  -9    4.40   12.70
  10  -6  -9    2.20    7.80
 -10   6   9  -13.00   13.80
  10   6  -9   -1.50    5.00
  10   6  -9   -4.60    4.50
   8  -6  -9   29.10    6.40
   8  -6  -9   16.40    3.90
   8   6  -9   22.30    5.20
   8   6  -9   16.40    4.40
   6  -6  -9    1.80    3.70
   6  -6  -9   -2.30    5.10
   6   6  -9    0.60    4.10
  -6   6   9   -0.10    5.90
   6   6  -9    8.00    3.80
   4  -6  -9   19.60    4.00
   4  -6  -9   17.60    4.50
  -4   6   9   14.20    5.20
   4   6  -9   12.00    3.70
   4   6  -9   27.80    4.90
   2  -6  -9   -1.70    3.30
   2  -6  -9   -5.30    3.30
   2   6  -9   -2.30    3.10
   2   6  -9    1.10    3.60
   0  -6  -9    5.60    3.70
   0   6  -9    6.80    3.80
   0   6  -9    3.70    3.00
   0   6  -9    5.90    3.20
  -2  -6  -9   35.70    4.90
  -2   6  -9   38.30    4.40
  -2   6  -9   45.70    6.80
  -2   6  -9   39.20    6.00
  -4  -6  -9    9.20    4.30
  -4  -6  -9    1.70    3.70
  -4   6  -9    8.00    5.00
  -4   6  -9    4.80    4.70
  -4   6  -9    5.30    3.00
  -6  -6  -9   -2.10    4.40
  -6  -6  -9   -0.90    4.40
  -6   6  -9    3.50    5.30
  -6   6  -9    9.50    6.90
  -6   6  -9   -0.10    3.90
  -8  -6  -9    6.80    5.40
  -8  -6  -9    6.60    5.60
  -8   6  -9    2.50    9.40
  -8   6  -9    7.90    4.10
  -8   6  -9   -8.30    5.50
   9  -7  -9    1.60    8.10
   9  -7  -9    7.50    4.70
   9   7  -9    6.90    5.30
  -9   7   9   -2.90   14.40
   9   7  -9    6.60    5.70
   7  -7  -9    4.50    6.20
   7  -7  -9    0.70    4.40
   7   7  -9    5.50    4.50
   7   7  -9   12.40    5.00
  -7   7   9   -7.00    8.40
   5  -7  -9   16.70    4.90
   5  -7  -9   11.10    5.30
   5   7  -9    8.20    4.60
   5   7  -9   17.40    5.00
   3  -7  -9    2.00    3.60
   3  -7  -9    0.10    4.50
   3   7  -9    7.60    4.60
   3   7  -9   12.10    4.40
   1  -7  -9   71.29    6.50
   1   7  -9   66.99    6.60
   1   7  -9   68.49    7.50
  -1  -7  -9    3.00    4.00
  -1   7  -9   11.00    5.10
  -1   7  -9    6.50    3.30
  -1   7  -9    8.40    4.10
  -1   7  -9    1.90    4.80
  -3  -7  -9   14.20    4.90
  -3   7  -9   23.30    5.90
  -3   7  -9   19.30    6.10
  -3   7  -9   12.40    8.50
  -3   7  -9   14.10    3.60
  -5  -7  -9   21.10    5.10
  -5  -7  -9   13.60    5.10
  -5   7  -9   15.50    4.00
  -5   7  -9   25.40    7.00
  -5   7  -9   22.30    6.90
  -7  -7  -9   26.80    5.80
  -7  -7  -9    3.20    6.20
  -7   7  -9    9.50    4.30
   6  -8  -9   15.70    5.50
   6  -8  -9   12.30    7.50
   6   8  -9    7.40    5.90
   6   8  -9   21.70    7.20
   4  -8  -9    1.70    4.70
   4  -8  -9   10.00    5.80
   4   8  -9    1.50    5.60
   4   8  -9    4.40    5.60
   2  -8  -9   -2.90    4.70
   2   8  -9   10.90    6.10
   2   8  -9    4.60    5.60
   0  -8  -9   21.80    5.10
   0   8  -9   16.20    3.70
   0   8  -9   23.40    5.80
  -2  -8  -9    0.00    5.00
  -2   8  -9    7.20    3.60
  -2   8  -9   -8.50    5.80
  -2   8  -9   11.80    7.00
  -4  -8  -9    2.70    5.10
  -4   8  -9   19.40   21.60
  -4   8  -9   -5.50    6.80
  -4   8  -9    5.00    4.00
  -4   8  -9    2.40    8.10
   1  -9  -9    6.20    5.20
   1   9  -9  -10.20    8.10
   1   9  -9    4.10    4.20
 -14   0  10   11.80    4.90
  14   0 -10    6.90    8.30
  14   0 -10    9.10    4.10
  14   0 -10   40.10   12.80
 -14   0  10   15.80   17.40
 -12   0  10    0.50    4.20
  12   0 -10   -9.70   10.20
  12   0 -10    1.30    3.60
  12   0 -10    9.10    5.20
  10   0 -10   12.50    4.00
 -10   0  10   16.80    3.70
  10   0 -10   21.20    8.10
  10   0 -10   12.60    3.40
   8   0 -10  110.49    6.70
   8   0 -10  114.49    9.60
   8   0 -10  106.89    6.40
   6   0 -10  667.83   27.70
   6   0 -10  628.04   25.80
   6   0 -10  642.74   25.80
   4   0 -10   94.29    5.00
   4   0 -10   94.89    5.20
   4   0 -10   92.49    6.70
   4   0 -10   93.59    5.00
   2   0 -10  106.69    5.60
   2   0 -10  112.89    5.30
   2   0 -10  107.29    5.20
   2   0 -10  118.09    6.90
   2   0 -10  111.89    5.50
   0   0 -10   54.39    4.80
   0   0 -10   64.39    4.00
   0   0 -10   62.69    3.60
   0   0 -10   59.79    3.90
   0   0 -10   60.09    3.20
  -2   0 -10  884.71   33.60
  -2   0 -10  846.22   33.30
  -2   0 -10  878.21   34.30
  -2   0 -10  837.02   33.50
  -4   0 -10   -4.50    2.50
  -4   0 -10   -4.50    3.40
  -4   0 -10   -1.50    3.30
  -4   0 -10    0.00    2.30
  -6   0 -10  489.25   21.80
  -6   0 -10  516.55   21.80
  -6   0 -10  521.85   21.40
  -6   0 -10  553.84   22.70
  -8   0 -10   73.49    6.90
  -8   0 -10   80.39    8.30
  -8   0 -10   88.09    6.60
 -10   0 -10   57.09    7.10
 -10   0 -10   48.80    6.60
 -10   0 -10   42.30    7.80
  13  -1 -10   15.10    7.10
 -13  -1  10   10.20   14.90
  13  -1 -10   27.80   12.10
 -13  -1  10    9.50    4.50
  13  -1 -10   10.20    4.50
  13   1 -10    9.00    6.40
  13   1 -10   13.40    4.40
  13   1 -10   28.10   10.50
 -13   1  10    9.50   17.70
 -13   1  10   22.80    5.20
 -11  -1  10   22.80    4.60
  11  -1 -10   24.60    5.10
  11  -1 -10   25.30    4.10
  11  -1 -10   27.70    9.90
  11   1 -10   25.60    4.90
  11   1 -10   20.50    4.40
 -11   1  10   23.70    4.40
  11   1 -10   39.00    9.60
  -9  -1  10  169.18    8.60
   9  -1 -10  157.48    8.50
   9  -1 -10  170.18    9.00
   9   1 -10  165.48   11.70
   9   1 -10  156.98    8.70
   9   1 -10  162.48    8.60
   7  -1 -10  105.89    6.20
   7  -1 -10  104.09    9.10
   7  -1 -10   98.59    5.90
   7   1 -10   94.39    5.90
   7   1 -10  108.79    5.90
   7   1 -10   98.09    8.60
   5  -1 -10   42.00    6.40
   5  -1 -10   44.00    3.60
   5  -1 -10   43.10    4.00
   5  -1 -10   36.80    3.50
   5   1 -10   41.50    3.40
   5   1 -10   42.10    3.30
   5   1 -10   46.20    6.20
   3  -1 -10   45.10    4.10
   3  -1 -10   51.99    3.50
   3  -1 -10   50.89    3.00
   3  -1 -10   54.99    5.50
   3  -1 -10   51.19    3.60
   3   1 -10   48.80    3.20
   3   1 -10   47.10    5.40
   3   1 -10   50.59    3.40
   3   1 -10   52.69    3.40
   1  -1 -10  131.09    6.30
   1  -1 -10  124.09    5.70
   1  -1 -10  124.19    5.70
   1  -1 -10  126.39    7.50
   1  -1 -10  125.59    6.70
   1   1 -10  128.79    6.00
   1   1 -10  125.69    7.30
   1   1 -10  133.59    6.10
   1   1 -10  127.99    6.00
   1   1 -10  120.59    5.90
  -1  -1 -10   66.29    4.80
  -1  -1 -10   70.29    4.60
  -1  -1 -10   68.39    4.10
  -1  -1 -10   71.59    5.20
  -1   1 -10   68.39    4.20
  -1   1 -10   75.49    4.30
  -1   1 -10   71.29    3.80
  -1   1 -10   68.99    4.00
  -1   1 -10   70.99    5.30
  -3  -1 -10  247.88   11.10
  -3  -1 -10  249.88   11.70
  -3  -1 -10  247.18   11.30
  -3  -1 -10  232.58   10.90
  -3   1 -10  254.67   10.40
  -3   1 -10  253.67   10.80
  -3   1 -10  257.27   11.00
  -3   1 -10  259.97   10.90
  -3   1 -10  237.88   11.60
  -5  -1 -10   30.60    4.00
  -5  -1 -10   26.20    3.90
  -5  -1 -10   27.30    4.00
  -5  -1 -10   25.70    4.10
  -5   1 -10   32.80    6.00
  -5   1 -10   27.80    3.60
  -5   1 -10   30.60    4.10
  -5   1 -10   26.80    4.20
  -7  -1 -10  117.19    7.70
  -7  -1 -10  114.49    7.70
  -7  -1 -10  123.69    7.40
  -7  -1 -10  132.39    9.40
  -7   1 -10  114.09    7.40
  -7   1 -10  119.59    7.00
  -7   1 -10  131.59    8.90
  -9  -1 -10   20.50    4.50
  -9  -1 -10   25.80    4.70
  -9  -1 -10   23.60    7.80
  -9   1 -10   18.70    4.90
  -9   1 -10   25.50    4.50
  -9   1 -10   19.70    6.60
 -11  -1 -10   26.30    6.50
 -11  -1 -10   19.60    5.80
 -11   1 -10   23.60    9.90
 -11   1 -10   22.70    5.90
 -11   1 -10   23.60    5.40
  14  -2 -10    5.30    3.80
 -14  -2  10   31.40   21.40
 -14  -2  10    4.70    4.80
  14  -2 -10   -0.30   14.90
  14  -2 -10   -4.80    8.30
  14   2 -10   -6.10    8.50
 -14   2  10   12.30    5.50
  14   2 -10    4.00    4.90
 -14   2  10   13.40   18.40
  14   2 -10   10.30   13.50
  12  -2 -10   76.19    6.10
 -12  -2  10   67.29    6.60
  12  -2 -10   95.29   15.70
  12  -2 -10   82.19    8.90
  12   2 -10   85.29    8.20
  12   2 -10   74.29    6.60
  12   2 -10   88.99   15.80
 -10  -2  10  105.09    6.90
  10  -2 -10  100.49    7.90
  10  -2 -10   95.19    6.70
  10  -2 -10  124.89   13.90
  10   2 -10  108.79   12.10
  10   2 -10   96.39    7.00
  10   2 -10  109.49    7.30
   8  -2 -10   43.50    5.20
   8  -2 -10   49.99    4.20
   8  -2 -10   46.20    7.70
   8   2 -10   45.50    4.30
   8   2 -10   53.59    7.50
   8   2 -10   43.60    4.40
   6  -2 -10  236.58   10.80
   6  -2 -10  254.37   11.10
   6  -2 -10  255.87   13.50
   6   2 -10  229.48   10.70
   6   2 -10  226.98   10.70
   6   2 -10  237.98   12.20
   4  -2 -10  170.38    8.20
   4  -2 -10  181.48    8.20
   4  -2 -10  175.48   10.30
   4  -2 -10  163.78    8.80
   4   2 -10  175.28    8.10
   4   2 -10  176.88    7.90
   4   2 -10  174.98    7.50
   4   2 -10  173.28    9.50
   2  -2 -10  329.37   14.90
   2  -2 -10  316.37   13.70
   2  -2 -10  329.67   13.20
   2  -2 -10  328.87   14.40
   2   2 -10  318.67   13.10
   2   2 -10  323.57   13.50
   2   2 -10  325.07   14.40
   2   2 -10  322.37   13.10
   0  -2 -10  469.05   20.00
   0  -2 -10  472.85   19.90
   0  -2 -10  472.15   19.40
   0  -2 -10  468.55   18.70
   0   2 -10  477.15   19.00
   0   2 -10  480.55   19.00
   0   2 -10  476.95   18.90
   0   2 -10  472.15   19.80
  -2  -2 -10  140.79    7.80
  -2  -2 -10  139.69    7.50
  -2  -2 -10  142.19    7.90
  -2  -2 -10  135.59    6.90
  -2   2 -10  142.49    6.70
  -2   2 -10  147.79    7.90
  -2   2 -10  144.79    7.00
  -2   2 -10  135.69    6.80
  -4  -2 -10    9.50    3.80
  -4  -2 -10   16.50    3.40
  -4  -2 -10    7.30    3.80
  -4  -2 -10    8.10    3.30
  -4   2 -10   12.50    3.90
  -4   2 -10   15.20    2.80
  -4   2 -10   12.50    2.80
  -6  -2 -10   35.30    5.00
  -6  -2 -10   47.50    5.50
  -6  -2 -10   52.89    5.70
  -6   2 -10   42.60    4.60
  -6   2 -10   54.79    6.50
  -6   2 -10   42.40    4.80
  -8  -2 -10   -4.80    7.10
  -8  -2 -10   -1.70    3.80
  -8  -2 -10   -2.80    4.60
  -8  -2 -10   -2.10    4.10
  -8   2 -10   -3.70    5.30
  -8   2 -10    0.90    3.80
  -8   2 -10   -2.60    3.30
 -10  -2 -10   33.10    6.10
 -10  -2 -10   30.80    6.80
 -10   2 -10   39.50    6.90
 -10   2 -10   32.50    8.70
 -10   2 -10   29.80    6.10
  13  -3 -10   33.40    5.50
 -13  -3  10   46.50    6.30
  13  -3 -10   44.50   14.90
  13  -3 -10   22.60    8.30
  13   3 -10   56.19   12.20
  13   3 -10   32.20    7.00
  13   3 -10   41.50    5.50
 -13   3  10   33.30   16.00
  11  -3 -10   10.50    3.90
 -11  -3  10    0.30    3.80
  11  -3 -10    0.80   10.90
  11  -3 -10   11.00    5.60
  11   3 -10    5.90    5.00
  11   3 -10    8.90    3.80
  11   3 -10   10.10    9.70
   9  -3 -10   58.99    6.60
   9  -3 -10   59.29    5.00
   9  -3 -10   67.99   11.30
  -9  -3  10   54.59    5.10
   9   3 -10   78.49    9.60
   9   3 -10   57.09    5.50
   9   3 -10   57.09    5.10
   7  -3 -10    9.00    2.60
   7  -3 -10   10.60    3.70
   7  -3 -10   11.30    6.90
   7   3 -10   13.50    2.90
   7   3 -10   11.90    3.00
   7   3 -10   20.50    5.10
   5  -3 -10  193.18    9.20
   5  -3 -10  176.98    8.80
   5  -3 -10  202.28   11.90
   5   3 -10  185.48    9.00
   5   3 -10  186.38    8.70
   5   3 -10  188.18   10.60
   3  -3 -10   26.90    3.80
   3  -3 -10   23.20    3.40
   3  -3 -10   25.40    3.00
   3  -3 -10   20.20    5.10
   3   3 -10   19.20    2.70
   3   3 -10   16.00    2.90
   3   3 -10   26.10    4.30
   3   3 -10   23.50    2.90
   1  -3 -10  211.38    9.80
   1  -3 -10  210.38   10.70
   1   3 -10  210.78    9.50
   1   3 -10  208.38    9.10
   1   3 -10  205.88    9.20
   1   3 -10  199.58   10.10
  -1  -3 -10   26.40    3.60
  -1  -3 -10   31.30    3.40
  -1  -3 -10   29.20    4.90
  -1   3 -10   28.20    3.10
  -1   3 -10   23.90    3.20
   1   3  10   25.60    4.10
  -1   3 -10   27.90    3.10
  -1   3 -10   28.90    4.60
  -3  -3 -10  309.27   14.20
  -3  -3 -10  288.07   13.80
  -3  -3 -10  304.17   13.30
  -3   3 -10  305.97   13.10
   3   3  10  295.17   13.80
  -3   3 -10  312.57   14.30
  -3   3 -10  297.87   12.90
  -5  -3 -10   33.70    4.80
  -5  -3 -10   43.00    6.40
  -5  -3 -10   31.80    5.20
  -5   3 -10   46.40    4.50
  -5   3 -10   44.40    5.90
  -5   3 -10   42.70    4.40
   5   3  10   37.80    7.00
  -7  -3 -10   74.29    6.60
  -7  -3 -10   72.29    8.00
  -7  -3 -10   69.89    6.60
   7   3  10   97.99   13.10
  -7   3 -10   87.89    6.20
  -7   3 -10   78.69    6.50
  -7   3 -10   82.19    8.20
  -9  -3 -10   38.80    6.20
  -9  -3 -10   44.40    6.80
  -9  -3 -10   32.90    7.00
  -9   3 -10   42.30    5.80
  -9   3 -10   54.89    6.90
  -9   3 -10   39.20    8.10
   9   3  10   37.40   10.90
  12  -4 -10   37.60   14.40
  12  -4 -10    4.90    8.00
 -12  -4  10   17.40    4.70
  12  -4 -10   13.10    4.30
 -12   4  10   30.70   14.60
  12   4 -10   21.00    5.60
  12   4 -10   24.70    6.40
  12   4 -10   16.50   11.90
  10  -4 -10    1.70    3.70
 -10  -4  10    0.50    3.90
  10  -4 -10   10.80    5.70
  10  -4 -10   15.60   11.10
  10   4 -10    5.30    4.50
  10   4 -10    4.10    3.40
  10   4 -10   -3.90    8.50
   8  -4 -10   32.00    9.80
   8  -4 -10   31.40    4.20
   8  -4 -10   48.10    6.00
   8   4 -10   27.80    4.20
   8   4 -10   33.70    4.60
   8   4 -10   44.20    7.70
   6  -4 -10   25.00    8.30
   6  -4 -10   32.10    3.80
   6  -4 -10   30.40    5.20
   6   4 -10   36.70    4.00
   6   4 -10   44.50    6.20
   6   4 -10   35.30    4.10
   4  -4 -10   20.60    3.60
   4  -4 -10   21.20    3.60
   4   4 -10   20.30    4.40
   4   4 -10   22.00    3.40
   4   4 -10   20.00    3.10
   2  -4 -10  543.95   21.30
   2  -4 -10  522.25   21.90
   2   4 -10  546.95   21.20
   2   4 -10  476.45   21.60
  -2   4  10  536.95   22.20
   2   4 -10  559.84   22.40
   0  -4 -10   24.10    3.90
   0  -4 -10   23.90    4.40
   0   4 -10   25.00    3.50
   0   4  10   31.60    4.60
   0   4 -10   25.00    3.40
   0   4 -10   24.60    3.20
  -2  -4 -10   55.49    4.80
  -2  -4 -10   60.39    6.50
  -2  -4 -10   48.40    4.90
  -2   4 -10   50.99    4.60
  -2   4 -10   50.99    6.00
   2   4  10   56.19    5.40
  -2   4 -10   60.49    4.30
  -2   4 -10   54.49    4.50
  -4  -4 -10  192.88   11.30
  -4  -4 -10  195.18   10.40
  -4  -4 -10  186.08    9.90
   4   4  10  187.38   10.30
  -4   4 -10  190.28   10.60
  -4   4 -10  198.48    9.70
  -4   4 -10  194.48    9.20
  -6  -4 -10  135.69    8.60
  -6  -4 -10  125.49    8.40
  -6  -4 -10  131.59   10.10
  -6   4 -10  136.69    9.70
  -6   4 -10  136.09    8.30
  -6   4 -10  139.09    7.60
   6   4  10  133.69   11.00
  -8  -4 -10   19.10    7.20
  -8  -4 -10   19.40    5.40
  -8  -4 -10   16.50    5.40
  -8   4 -10   19.40    7.50
  -8   4 -10   21.00    4.80
  -8   4 -10   20.80    4.60
 -10   4 -10   56.99    6.50
 -11  -5  10   -2.40    4.10
  11  -5 -10   -5.40    8.40
  11  -5 -10   -1.70   14.40
  11  -5 -10    2.40    3.90
  11   5 -10    6.60    5.70
 -11   5  10    8.30   14.60
  11   5 -10    5.80    4.50
   9  -5 -10   30.70    4.50
   9  -5 -10   32.70    9.10
   9  -5 -10   36.80    7.10
   9   5 -10   29.00    5.10
   9   5 -10   29.10    5.10
   7  -5 -10   44.40    4.70
   7  -5 -10   62.79    7.30
   7  -5 -10   73.39   12.80
   7   5 -10   42.70    5.20
   7   5 -10   42.70    4.90
   5  -5 -10  402.26   17.50
   5  -5 -10  392.16   17.40
   5   5 -10  406.26   18.40
   5   5 -10  399.66   17.20
   5   5 -10  392.16   16.70
   3  -5 -10   33.10    4.50
   3  -5 -10   37.80    4.70
   3   5 -10   34.30    4.10
   3   5 -10   42.70    4.50
  -3   5  10   41.70    6.30
   1  -5 -10  515.75   20.70
   1  -5 -10  513.25   21.90
   1   5 -10  557.14   21.90
   1   5 -10  537.65   21.60
   1   5 -10  447.46   20.90
  -1  -5 -10   28.10    4.60
  -1   5 -10   35.60    4.00
  -1   5 -10   40.00    4.50
  -1   5 -10   37.90    4.60
  -1   5 -10   28.90    5.70
  -3  -5 -10   51.79    7.80
  -3  -5 -10   41.70    5.40
  -3  -5 -10   46.30    5.40
  -3   5 -10   45.70    6.40
  -3   5 -10   55.09    5.60
  -3   5 -10   43.80    4.20
  -5  -5 -10   51.89    9.20
  -5  -5 -10   38.20    5.50
  -5  -5 -10   43.60    5.80
  -5   5 -10   33.10    6.00
  -5   5 -10   43.40    4.70
  -5   5 -10   36.30    6.10
  -7  -5 -10   11.10    7.40
  -7  -5 -10    6.20    5.60
  -7  -5 -10    5.90    4.80
  -7   5 -10   -1.40    4.90
  -7   5 -10   -0.40    3.60
  -7   5 -10   -7.80    6.90
  -9  -5 -10   26.30    9.90
  -9  -5 -10   23.40    5.70
  -9  -5 -10   17.60    6.40
  -9   5 -10   21.40    4.20
  10  -6 -10   34.70    5.40
  10  -6 -10   12.60   18.50
 -10   6  10   27.10   16.10
  10   6 -10   47.80    6.10
  10   6 -10   28.90    6.00
   8  -6 -10  130.59    9.80
   8  -6 -10   97.19    7.20
   8   6 -10  114.29    7.80
   8   6 -10  115.59    8.20
   6  -6 -10    7.10    3.90
   6  -6 -10    4.10    5.20
  -6   6  10    2.80    6.70
   6   6 -10   14.40    4.00
   6   6 -10    2.80    3.80
   4  -6 -10  103.99    7.20
   4  -6 -10  105.69    7.20
   4   6 -10  107.29    6.80
   4   6 -10  104.89    7.20
  -4   6  10  105.59    9.30
   2  -6 -10   -0.90    3.50
   2  -6 -10    3.80    3.60
   2   6 -10    2.20    3.40
   2   6 -10   -0.80    3.60
   0  -6 -10    9.50    4.00
   0   6 -10    1.30    2.70
   0   6 -10    6.20    3.80
   0   6 -10   15.40    4.50
   0   6 -10    7.00    3.90
  -2  -6 -10  177.38   10.20
  -2   6 -10  186.08    9.90
  -2   6 -10  183.78   11.00
  -2   6 -10  183.38   10.30
  -2   6 -10  181.08    9.10
  -4  -6 -10    4.60    4.60
  -4  -6 -10   15.90    4.50
  -4   6 -10   11.30    5.10
  -4   6 -10    6.70    5.40
  -4   6 -10   13.90    3.10
  -6  -6 -10   49.10    6.70
  -6  -6 -10   51.99    7.30
  -6   6 -10   47.80    8.20
  -6   6 -10   53.99    9.70
  -6   6 -10   58.79    5.90
   9  -7 -10   16.10    5.60
   9  -7 -10    4.70    8.70
   9   7 -10   33.90    6.40
  -9   7  10   32.20   16.50
   9   7 -10    0.80    5.90
   7  -7 -10   56.89    6.50
  -7   7  10   36.00   10.40
   7   7 -10   66.89    7.00
   7   7 -10   56.59    6.30
   5  -7 -10  200.58   11.30
   5  -7 -10  209.98   11.70
   5   7 -10  205.78   11.80
   5   7 -10  226.18   10.70
  -5   7  10  204.28   14.20
   3  -7 -10    6.50    4.70
   3  -7 -10   12.20    4.20
   3   7 -10    9.80    4.60
   3   7 -10   20.30    4.80
   1  -7 -10   83.19    7.10
   1   7 -10   90.99    7.40
   1   7 -10   89.39    5.90
   1   7 -10   89.19    8.30
  -1  -7 -10   56.19    6.00
  -1   7 -10   62.69    7.80
  -1   7 -10   63.39    7.00
  -1   7 -10   58.69    5.30
  -3  -7 -10  100.19    8.00
  -3   7 -10  124.29   14.10
  -3   7 -10  106.69   10.50
  -3   7 -10  106.09    6.70
  -3   7 -10  100.69    9.50
  -5  -7 -10   20.10    6.10
  -5  -7 -10   31.70    6.00
  -5   7 -10   33.80    5.10
  -5   7 -10   27.90    7.90
  -5   7 -10   25.40    8.30
   6  -8 -10    4.50    7.90
   6  -8 -10   30.40    6.30
   6   8 -10   11.50    5.50
   6   8 -10    1.90    4.70
   4  -8 -10   14.80    6.20
   4  -8 -10    6.30    4.90
   4   8 -10    8.00    6.90
   4   8 -10   14.50    6.10
   2  -8 -10   26.80    6.00
   2   8 -10   34.90    7.30
   2   8 -10   33.50    6.30
   0  -8 -10    8.50    5.10
   0   8 -10   26.40    7.10
   0   8 -10   10.60    6.10
   0   8 -10    2.30    3.60
  -2  -8 -10   83.29    7.80
  -2   8 -10   63.69    9.60
  -2   8 -10   73.69    5.90
  -2   8 -10   70.49   11.50
  14   0 -11   11.40   14.50
  14   0 -11   -1.60    4.20
 -14   0  11    1.90    4.90
 -14   0  11  -19.60   20.70
  12   0 -11    0.00   11.60
  12   0 -11   -1.40    3.50
 -12   0  11   -3.00    3.80
  12   0 -11   -6.20    5.70
 -10   0  11   -0.40    3.40
  10   0 -11    2.80    3.30
  10   0 -11    1.40    4.00
  10   0 -11  -11.10    7.90
   8   0 -11    4.90    2.70
   8   0 -11    1.90    3.00
   8   0 -11    2.20    5.50
   6   0 -11    4.40    4.70
   6   0 -11    0.10    2.30
   6   0 -11    2.40    2.60
   4   0 -11    0.60    2.20
   4   0 -11    4.10    3.60
   4   0 -11   -0.70    1.80
   4   0 -11    0.50    2.20
   2   0 -11    2.00    1.90
   2   0 -11    2.20    3.40
   2   0 -11   -1.60    1.50
   2   0 -11    3.10    1.90
   2   0 -11    0.10    2.00
   0   0 -11   -3.40    2.90
   0   0 -11    0.90    1.30
   0   0 -11   -1.20    1.70
   0   0 -11    3.10    2.00
   0   0 -11    1.70    2.50
  -2   0 -11   -2.90    2.20
  -2   0 -11    3.20    3.10
  -2   0 -11   -0.20    2.10
  -2   0 -11    2.30    2.80
  -4   0 -11   -1.80    3.30
  -4   0 -11   -2.20    2.20
  -4   0 -11   -3.80    2.80
  -4   0 -11    3.70    3.70
  -6   0 -11    5.40    5.10
  -6   0 -11   -3.70    3.00
  -6   0 -11    6.00    3.30
  -6   0 -11   -1.70    3.70
  -8   0 -11   -1.60    3.90
  -8   0 -11    1.10    4.30
  -8   0 -11    2.40    6.90
 -10   0 -11  -13.20    8.20
 -10   0 -11   -4.80    4.70
 -10   0 -11   -4.60    5.40
  13  -1 -11   23.60    4.50
  13  -1 -11   38.70   12.40
 -13  -1  11   35.00   17.80
 -13  -1  11   16.80    5.00
  13  -1 -11   18.20    7.70
 -13   1  11   10.70    5.20
  13   1 -11   16.00    4.60
  13   1 -11   14.40    7.10
  13   1 -11   13.80   13.10
  11  -1 -11   24.70    5.80
  11  -1 -11   16.00    3.90
  11  -1 -11   19.00    9.20
 -11  -1  11   35.60    4.90
  11   1 -11   21.50    4.30
  11   1 -11   24.60   10.30
  11   1 -11   17.40    5.00
 -11   1  11   21.90    4.10
   9  -1 -11    6.30    2.90
   9  -1 -11    2.10    7.80
   9  -1 -11   -0.80    3.70
   9   1 -11   10.10    6.40
   9   1 -11    9.20    3.40
   9   1 -11    6.60    3.00
   7  -1 -11   10.20    5.50
   7  -1 -11    8.60    3.00
   7  -1 -11   16.00    3.30
   7   1 -11    6.20    2.70
   7   1 -11   12.10    2.80
   7   1 -11   12.50    5.40
   5  -1 -11   -4.90    2.40
   5  -1 -11    2.50    4.50
   5  -1 -11   -0.50    2.10
   5  -1 -11   -0.20    2.60
   5   1 -11    1.00    1.80
   5   1 -11    0.40    3.90
   5   1 -11    0.10    2.30
   3  -1 -11   17.50    2.30
   3  -1 -11   19.20    2.70
   3  -1 -11   16.40    4.70
   3  -1 -11   17.30    3.00
   3  -1 -11   12.70    2.50
   3   1 -11   19.10    2.60
   3   1 -11   17.80    2.60
   3   1 -11   11.70    2.10
   3   1 -11   18.00    3.90
   1  -1 -11   25.70    3.60
   1  -1 -11   24.80    2.60
   1  -1 -11   27.40    5.30
   1  -1 -11   22.70    3.30
   1  -1 -11   24.80    2.40
   1   1 -11   26.50    2.90
   1   1 -11   20.60    2.40
   1   1 -11   25.90    4.00
   1   1 -11   23.50    3.10
   1   1 -11   27.20    2.90
  -1  -1 -11   14.30    2.90
  -1  -1 -11   13.70    3.10
  -1  -1 -11   11.60    2.30
  -1  -1 -11   13.50    2.90
  -1   1 -11   14.00    2.40
  -1   1 -11   15.10    3.50
  -1   1 -11   14.10    2.70
  -1   1 -11   11.40    2.20
  -1   1 -11   13.10    2.20
  -3  -1 -11   32.80    4.00
  -3  -1 -11   26.40    3.30
  -3  -1 -11   27.60    3.80
  -3  -1 -11   31.50    5.70
  -3   1 -11   29.60    2.70
  -3   1 -11   31.90    3.50
  -3   1 -11   29.80    3.60
  -3   1 -11   31.60    4.30
  -3   1 -11   28.10    4.00
  -5  -1 -11   63.89    5.20
  -5  -1 -11   65.09    7.70
  -5  -1 -11   61.79    5.30
  -5  -1 -11   67.59    5.50
  -5   1 -11   70.49    5.20
  -5   1 -11   63.69    7.20
  -5   1 -11   63.59    5.20
  -5   1 -11   62.39    5.20
  -7  -1 -11  116.19    7.50
  -7  -1 -11  132.49    9.60
  -7  -1 -11  105.99    7.90
  -7  -1 -11  111.29    7.50
  -7   1 -11  111.19    7.40
  -7   1 -11  118.19    7.40
  -7   1 -11  119.59    9.20
  -9  -1 -11   11.40    5.20
  -9  -1 -11  -15.00    8.80
  -9  -1 -11   -5.70    4.40
  -9   1 -11   -4.00    4.50
  -9   1 -11  -11.30    7.00
  -9   1 -11    9.60    5.10
  14  -2 -11   -1.10    3.80
 -14  -2  11   44.60   21.40
 -14  -2  11   -6.70    5.10
  14   2 -11   -3.30    4.10
 -14   2  11  -16.20   19.80
  12  -2 -11    1.70    6.40
  12  -2 -11    6.30    3.80
 -12  -2  11    5.00    4.30
  12  -2 -11   15.30   11.40
  12   2 -11    2.30    3.90
  12   2 -11   -0.70    5.60
  12   2 -11   11.40   10.00
  10  -2 -11   -3.50    8.70
 -10  -2  11   -0.80    3.40
  10  -2 -11    0.50    4.70
  10  -2 -11    5.20    3.30
  10   2 -11    1.80    7.00
  10   2 -11    8.10    3.30
  10   2 -11    7.30    4.20
   8  -2 -11    4.00    6.30
   8  -2 -11   11.00    4.20
   8  -2 -11    6.20    2.80
   8   2 -11    7.70    2.90
   8   2 -11    1.90    3.00
   8   2 -11    4.30    6.40
   6  -2 -11    2.90    2.30
   6  -2 -11    6.20    2.90
   6  -2 -11   -5.80    4.90
   6   2 -11    5.90    4.30
   6   2 -11   -3.40    2.30
   6   2 -11    0.60    2.30
   4  -2 -11   45.40    7.40
   4  -2 -11   48.90    4.00
   4  -2 -11   48.80    4.90
   4  -2 -11   40.20    3.80
   4   2 -11   46.00    3.60
   4   2 -11   41.10    3.50
   4   2 -11   50.29    3.20
   4   2 -11   37.50    5.80
   2  -2 -11    1.40    4.60
   2  -2 -11    5.80    2.70
   2  -2 -11    6.40    2.00
   2  -2 -11   10.60    3.00
   2   2 -11    4.00    3.00
   2   2 -11    5.80    2.10
   2   2 -11    6.20    1.80
   2   2 -11    6.00    1.70
   2   2 -11    3.60    2.20
   0  -2 -11  126.39    9.00
   0  -2 -11  131.19    6.40
   0  -2 -11  128.29    7.70
   0  -2 -11  133.49    7.10
   0   2 -11  126.89    6.40
   0   2 -11  131.69    6.40
   0   2 -11  136.49    7.60
   0   2 -11  132.59    6.30
   0   2 -11  121.79    6.30
  -2  -2 -11  146.09    8.40
  -2  -2 -11  155.08    7.90
  -2  -2 -11  142.89    8.40
  -2  -2 -11  145.39    7.30
  -2   2 -11  150.88    7.50
  -2   2 -11  142.49    6.90
  -2   2 -11  147.79    8.40
  -2   2 -11  142.29    7.10
  -4  -2 -11    7.40    4.10
  -4  -2 -11    1.60    3.50
  -4  -2 -11   -3.20    3.20
  -4  -2 -11   -3.70    3.30
  -4   2 -11    1.50    2.20
  -4   2 -11    1.00    4.50
  -4   2 -11   -1.50    2.90
  -4   2 -11   -0.90    2.50
  -6  -2 -11    3.30    4.10
  -6  -2 -11   -1.70    3.70
  -6  -2 -11   12.70    4.40
  -6   2 -11   -0.10    4.70
  -6   2 -11    3.30    3.50
  -6   2 -11   -0.90    3.40
  -8  -2 -11    3.70    4.70
  -8  -2 -11   12.60    4.70
  -8  -2 -11    3.10    5.10
  -8  -2 -11    1.70    6.30
  -8   2 -11   -3.40    3.50
  -8   2 -11   -6.80    6.10
  -8   2 -11   -2.30    4.00
 -10  -2 -11   11.30    7.50
 -10  -2 -11   20.70    5.70
 -10   2 -11   10.10    9.40
 -10   2 -11   10.50    5.60
 -10   2 -11   25.10    5.60
 -13  -3  11   12.10    4.80
  13  -3 -11   25.00    9.10
  13  -3 -11    3.60   17.30
  13  -3 -11   10.50    4.60
  13   3 -11    5.90    4.30
  13   3 -11    3.10    7.80
 -13   3  11   17.30   17.50
  13   3 -11    7.30   13.40
 -11  -3  11   15.00    4.60
  11  -3 -11    7.40    6.30
  11  -3 -11   30.50   12.00
  11  -3 -11   18.10    3.80
  11   3 -11   14.50    5.50
  11   3 -11   14.50    4.00
  11   3 -11   22.40   13.70
   9  -3 -11   -4.20    4.80
   9  -3 -11   -2.60    2.90
   9  -3 -11    0.90    8.50
   9   3 -11    6.20    3.60
   9   3 -11    1.00    3.10
   9   3 -11    6.20    6.40
   7  -3 -11    1.60    2.70
   7  -3 -11   -8.70    7.70
   7  -3 -11    3.60    3.70
   7   3 -11   -4.40    2.80
   7   3 -11    0.10    2.70
   7   3 -11   12.80    5.60
   5  -3 -11   -1.80    3.20
   5  -3 -11    5.70    5.20
   5  -3 -11   -1.80    2.70
   5   3 -11    1.10    2.50
   5   3 -11    3.30    2.20
   5   3 -11    3.50    4.90
   3  -3 -11  322.77   15.40
   3  -3 -11  327.17   14.40
   3  -3 -11  348.87   16.60
   3  -3 -11  319.07   13.90
   3   3 -11  332.97   13.50
   3   3 -11  323.57   15.20
   3   3 -11  335.67   14.10
   3   3 -11  336.17   13.50
   1  -3 -11   17.80    3.90
   1  -3 -11   28.00    4.20
   1  -3 -11   21.00    4.40
   1   3 -11   27.20    5.20
   1   3 -11   24.60    3.00
   1   3 -11   28.00    3.20
   1   3 -11   26.00    3.30
  -1  -3 -11   -1.20    2.70
  -1  -3 -11    1.60    2.70
  -1  -3 -11    1.00    3.70
  -1   3 -11    4.80    2.00
  -1   3 -11   -0.80    2.10
  -1   3 -11    2.90    2.10
  -1   3 -11    2.00    3.60
  -3  -3 -11   34.40    5.10
  -3  -3 -11   33.50    4.30
  -3  -3 -11   33.70    4.40
  -3   3 -11   27.30    3.60
  -3   3 -11   35.20    3.60
  -3   3 -11   29.20    4.80
  -3   3 -11   31.00    3.90
  -5  -3 -11   11.90    4.10
  -5  -3 -11   18.80    4.10
  -5  -3 -11   20.70    5.00
   5   3  11   17.10    5.50
  -5   3 -11   16.40    5.10
  -5   3 -11   15.60    3.30
  -5   3 -11   29.40    4.70
  -7  -3 -11   40.30    6.00
  -7  -3 -11   44.20    5.70
  -7  -3 -11   32.00    6.20
  -7   3 -11   41.60    6.00
   7   3  11   35.70   10.50
  -7   3 -11   52.79    5.80
  -7   3 -11   43.60    7.90
  -9  -3 -11   18.30    5.60
  -9  -3 -11    2.80    4.50
  -9  -3 -11   -0.70    7.20
  -9   3 -11   -3.50    7.90
  -9   3 -11    1.20    5.50
  -9   3 -11   -0.20    4.30
  12  -4 -11   15.30    4.40
 -12  -4  11   12.00    4.90
  12  -4 -11   28.00    8.20
  12  -4 -11   23.20   16.90
  12   4 -11   23.20    6.20
  12   4 -11   10.00   11.30
  12   4 -11    8.60    4.40
  10  -4 -11   10.50   11.60
  10  -4 -11   13.00    3.60
  10  -4 -11   19.70    5.80
  10   4 -11   27.90    8.20
  10   4 -11    9.20    3.90
  10   4 -11   14.00    5.40
   8  -4 -11   -1.20    3.10
   8  -4 -11  -13.70    9.10
   8  -4 -11   -7.10    4.50
   8   4 -11   -0.60    3.70
   8   4 -11    4.40    6.30
   8   4 -11   -3.10    3.60
   6  -4 -11   10.40    7.70
   6  -4 -11    0.90    3.70
   6  -4 -11    5.10    2.80
   6   4 -11    7.10    3.20
   6   4 -11    5.30    3.00
   6   4 -11    7.00    4.80
   4  -4 -11   45.10    4.50
   4  -4 -11   40.10    4.70
   4   4 -11   45.40    4.20
   4   4 -11   44.70    3.70
   4   4 -11   41.20    3.70
   4   4 -11   41.30    7.20
   2  -4 -11   56.99    4.60
   2  -4 -11   57.39    5.10
   2   4 -11   39.20    5.80
   2   4 -11   50.39    4.10
   2   4 -11   48.20    4.50
   0  -4 -11   21.60    4.80
   0  -4 -11   21.70    4.10
   0   4 -11   20.30    3.30
   0   4 -11   26.30    3.70
   0   4 -11   21.40    3.70
   0   4  11   26.30    4.90
   0   4 -11   27.40    4.30
  -2  -4 -11   11.00    3.50
  -2  -4 -11    2.20    4.60
  -2  -4 -11    5.80    3.80
  -2   4 -11    1.90    2.40
  -2   4 -11    1.60    2.60
  -2   4 -11    1.90    3.90
  -2   4 -11    2.60    2.80
   2   4  11    8.40    3.60
  -4  -4 -11   11.20    5.40
  -4  -4 -11    9.10    4.20
  -4  -4 -11   12.20    4.40
  -4   4 -11   17.00    5.30
  -4   4 -11   14.20    3.60
  -4   4 -11   16.80    3.40
   4   4  11   15.10    4.90
  -6  -4 -11   -5.70    5.90
  -6  -4 -11   -3.80    4.40
  -6  -4 -11   -1.10    4.00
  -6   4 -11   -2.70    3.30
  -6   4 -11   -1.40    5.30
  -6   4 -11    4.40    3.90
  -8  -4 -11   20.00    5.80
  -8  -4 -11   18.20    5.20
  -8  -4 -11   28.10    8.10
  -8   4 -11   24.40    7.70
  -8   4 -11   30.00    5.40
  -8   4 -11   26.70    5.10
  11  -5 -11    9.10    4.10
  11  -5 -11  -14.00    9.00
  11  -5 -11   34.40   17.00
  11   5 -11    4.70    6.20
  11   5 -11   10.60    4.80
   9  -5 -11   10.50    3.90
   9  -5 -11    4.70    7.00
   9  -5 -11   16.90   12.70
   9   5 -11    0.30    4.60
   9   5 -11   10.10    4.30
   9   5 -11   15.10    7.70
   7  -5 -11   17.30   11.70
   7  -5 -11   25.10    4.00
   7  -5 -11   34.80    5.80
   7   5 -11   20.20    4.40
   7   5 -11   29.50    7.00
   7   5 -11   22.00    4.20
   5  -5 -11   23.20    4.30
   5   5 -11   16.60    3.60
   5   5 -11   16.60    3.60
   3  -5 -11   27.90    4.60
   3  -5 -11   29.80    4.80
   3   5 -11   27.60    4.30
  -3   5  11   30.00    5.90
   3   5 -11   28.50    4.60
   3   5 -11   22.00    3.80
   1  -5 -11   15.20    4.10
   1   5 -11   18.30    3.50
   1   5 -11   16.50    3.80
   1   5 -11   25.30    4.80
   1   5 -11   24.00    3.60
  -1   5  11   21.60    3.90
  -1  -5 -11   24.10    4.90
  -1  -5 -11   33.20    6.30
  -1   5 -11   37.10    4.30
  -1   5 -11   33.50    5.20
  -1   5 -11   28.30    4.70
  -1   5 -11   27.40    4.60
  -3  -5 -11   37.80    5.10
  -3  -5 -11   35.10    6.50
  -3   5 -11   36.00    5.30
  -3   5 -11   29.40    4.60
  -3   5 -11   35.50    4.10
  -3   5 -11   35.00    5.80
  -5  -5 -11    1.20    4.40
  -5  -5 -11   17.70    7.00
  -5  -5 -11   -1.80    5.00
  -5   5 -11    4.40    4.40
  -5   5 -11    4.20    5.80
  -5   5 -11    7.50    3.60
  -7  -5 -11   12.00    8.30
  -7  -5 -11    2.10    5.40
  -7  -5 -11    3.80    4.70
  -7   5 -11    8.40    7.70
  -7   5 -11    8.50    3.60
  -7   5 -11   -1.20    5.10
  10  -6 -11   30.60    9.10
  10  -6 -11   12.60    4.50
  10   6 -11    7.80    6.70
  10   6 -11    8.90    4.50
   8  -6 -11   -4.60    3.80
   8  -6 -11    6.90    6.80
   8   6 -11    3.30    4.50
   8   6 -11    5.10    4.50
   6  -6 -11    2.50    5.60
   6  -6 -11    6.90    4.10
   6   6 -11    4.00    4.00
   6   6 -11    8.10    4.10
   4  -6 -11    2.00    3.90
   4  -6 -11   -0.20    4.50
  -4   6  11   -0.20    6.00
   4   6 -11    2.80    4.00
   4   6 -11    3.10    3.20
   2  -6 -11    6.90    4.00
   2  -6 -11   -1.90    3.70
   2   6 -11    6.90    3.80
   2   6 -11    1.60    3.60
   2   6 -11    7.30    4.60
   0  -6 -11    0.30    4.00
   0   6 -11   -2.70    2.60
   0   6 -11    5.60    4.80
   0   6 -11   -1.50    3.90
   0   6 -11    6.70    3.80
  -2  -6 -11    4.20    4.20
  -2   6 -11    4.50    4.20
  -2   6 -11    3.80    4.10
  -2   6 -11    2.70    3.10
  -2   6 -11   -1.50    5.40
  -4  -6 -11    0.80    5.00
  -4  -6 -11   -2.10    5.00
  -4   6 -11  -11.00    6.60
  -4   6 -11    7.60    5.00
  -4   6 -11   -2.40    3.20
  -6  -6 -11   25.40    5.90
  -6  -6 -11   25.90    6.30
  -6  -6 -11   28.90    9.80
  -6   6 -11   29.40    8.00
  -6   6 -11   19.60    7.50
  -6   6 -11   21.10    4.60
   9  -7 -11   19.10    9.90
   9  -7 -11    2.10    4.90
   9   7 -11    0.70    5.10
   7  -7 -11    2.40    5.50
   7  -7 -11   -9.30    7.20
  -7   7  11   12.50   10.20
   7   7 -11    8.90    4.80
   7   7 -11   -0.10    5.70
   5  -7 -11   21.20    6.00
   5  -7 -11   17.40    4.80
   3  -7 -11   -1.10    5.10
   3  -7 -11   -5.00    4.20
   3   7 -11    3.20    4.60
   3   7 -11   -4.40    4.60
   1  -7 -11   -2.20    4.20
   1   7 -11   13.30    5.70
   1   7 -11    6.70    5.00
   1   7 -11    5.20    4.90
   1   7 -11    3.40    3.50
  -1   7 -11   31.80    4.90
  -1   7 -11   38.80    7.00
  -1   7 -11   31.60    6.20
  -1   7 -11   32.20    5.40
  -3  -7 -11    6.00    4.80
  -3   7 -11   19.20    6.10
  -3   7 -11    5.80    5.80
  -3   7 -11    8.10    3.60
  -3   7 -11    8.60   10.70
  -3   7 -11   17.70    7.60
  -5  -7 -11   -1.40    4.90
  -5  -7 -11   -1.80    5.50
  -5   7 -11    0.90    4.00
   6  -8 -11    1.30    8.00
   6  -8 -11   -3.60    5.30
   4  -8 -11    0.00    4.90
   4  -8 -11   -2.80    6.30
   4   8 -11    3.30    4.80
   4   8 -11    1.00    5.80
   2  -8 -11   -2.00    4.80
   2   8 -11    1.20    6.90
   2   8 -11    5.90    6.20
   2   8 -11    8.20    3.70
   0  -8 -11    0.90    4.80
   0   8 -11    5.40    6.00
   0   8 -11    6.60    6.60
   0   8 -11    5.40    3.70
  -2  -8 -11    9.60    5.70
  -2   8 -11    8.00    3.80
  -2   8 -11    7.70    8.00
  14   0 -12    3.20    4.00
  14   0 -12   16.30   14.10
 -14   0  12   12.90    5.30
  12   0 -12    6.60   11.00
  12   0 -12   -0.80    5.90
 -12   0  12    3.40    4.50
  12   0 -12   -5.40    3.80
  10   0 -12   72.49    6.40
  10   0 -12   62.09    5.30
  10   0 -12   81.99   13.90
   8   0 -12  451.95   19.40
   8   0 -12  465.45   22.00
   8   0 -12  454.15   19.50
   6   0 -12   35.00    3.60
   6   0 -12   42.50    6.60
   6   0 -12   40.00    4.00
   4   0 -12  300.07   12.20
   4   0 -12  307.67   15.20
   4   0 -12  286.67   12.60
   4   0 -12  302.47   13.10
   4   0 -12  292.47   12.70
   2   0 -12   49.10    4.00
   2   0 -12   35.50    3.10
   2   0 -12   55.09    6.20
   2   0 -12   39.50    3.10
   2   0 -12   39.60    3.50
   0   0 -12   97.49    5.70
   0   0 -12  101.39    6.90
   0   0 -12   97.39    4.80
   0   0 -12  100.89    5.80
   0   0 -12   94.09    5.10
  -2   0 -12   34.40    5.50
  -2   0 -12   25.60    3.90
  -2   0 -12   25.60    3.50
  -2   0 -12   32.00    4.30
  -4   0 -12   51.29    4.90
  -4   0 -12   38.90    4.70
  -4   0 -12   47.40    5.00
  -4   0 -12   49.10    7.40
  -6   0 -12    1.80    5.40
  -6   0 -12   -0.30    3.60
  -6   0 -12   -4.10    3.20
  -6   0 -12    5.30    4.00
  -8   0 -12   91.09    7.30
  -8   0 -12   80.69   11.30
  -8   0 -12   93.69    7.80
 -10   0 -12   35.50    7.40
 -10   0 -12   22.20    5.90
 -13  -1  12   -1.70    4.50
  13  -1 -12    7.00   14.00
  13  -1 -12  -10.50    8.20
  13  -1 -12    0.30    3.70
  13   1 -12  -13.30    6.90
  13   1 -12    0.30    4.00
 -13   1  12    5.70    4.90
  13   1 -12   -5.40   14.50
  11  -1 -12   88.59    8.40
  11  -1 -12   61.49    5.70
  11  -1 -12   97.29   15.90
  11   1 -12   72.29    5.90
  11   1 -12   73.39    7.60
  11   1 -12   88.79   14.70
   9  -1 -12   -2.70    7.50
   9  -1 -12    1.60    3.20
   9  -1 -12   -6.70    4.00
   9   1 -12   -3.00    6.80
   9   1 -12   -1.10    3.60
   9   1 -12    0.90    3.00
   7  -1 -12  108.89    6.50
   7  -1 -12  121.79    7.00
   7  -1 -12  143.39   12.30
   7   1 -12  110.39    6.50
   7   1 -12  124.39   10.50
   7   1 -12  115.89    6.80
   5  -1 -12   98.89    6.50
   5  -1 -12   97.29    9.10
   5  -1 -12   91.79    5.60
   5  -1 -12   87.39    5.60
   5   1 -12   95.49    5.50
   5   1 -12   96.49    5.50
   5   1 -12   95.29    5.40
   5   1 -12  100.49    8.30
   3  -1 -12  115.89    5.50
   3  -1 -12  134.39    9.30
   3  -1 -12  122.19    6.10
   3  -1 -12  119.69    7.00
   3  -1 -12  113.59    6.30
   3   1 -12  124.69    6.10
   3   1 -12  122.79    6.10
   3   1 -12  124.19    8.50
   3   1 -12  114.19    5.90
   3   1 -12  117.49    6.00
   1  -1 -12  206.48   10.00
   1  -1 -12  205.88   11.30
   1  -1 -12  206.28    9.50
   1  -1 -12  214.28    8.90
   1   1 -12  211.68    9.30
   1   1 -12  201.68   10.60
   1   1 -12  206.78    9.20
   1   1 -12  199.58    9.00
   1   1 -12  194.68    9.00
  -1  -1 -12  325.07   14.80
  -1  -1 -12  322.17   13.90
  -1  -1 -12  303.47   13.20
  -1  -1 -12  329.97   14.20
  -1   1 -12  276.87   13.40
  -1   1 -12  312.67   13.30
  -1   1 -12  325.47   13.60
  -1   1 -12  318.77   12.90
  -1   1 -12  332.07   14.60
  -3  -1 -12  207.18   10.30
  -3  -1 -12  203.58   10.10
  -3  -1 -12  210.58   11.10
  -3   1 -12  203.68    9.80
  -3   1 -12  203.28   11.30
  -3   1 -12  205.08    9.40
  -3   1 -12  205.58    9.80
  -5  -1 -12   59.99    8.40
  -5  -1 -12   55.89    5.80
  -5  -1 -12   59.79    5.50
  -5  -1 -12   59.39    5.80
  -5   1 -12   59.79    5.40
  -5   1 -12   73.49    7.60
  -5   1 -12   53.19    5.40
  -5   1 -12   74.89    5.50
  -7  -1 -12   15.80    4.40
  -7  -1 -12   25.40    5.30
  -7  -1 -12   23.80    4.90
  -7  -1 -12   17.70    6.30
  -7   1 -12   40.00    7.00
  -7   1 -12   25.10    4.40
  -7   1 -12   21.10    4.00
  -9  -1 -12    2.10    6.00
  -9  -1 -12    5.80    5.00
  -9  -1 -12  -11.00    9.20
  -9   1 -12    7.00    5.70
  -9   1 -12    2.40    4.60
  -9   1 -12  -14.40   10.20
  14  -2 -12    1.40    5.20
  14   2 -12    2.90    4.30
 -12  -2  12   30.10    5.20
  12  -2 -12   52.99   14.80
  12  -2 -12   36.70    5.50
  12   2 -12   29.10   12.80
  12   2 -12   20.10    6.70
  12   2 -12   26.30    5.10
  10  -2 -12   33.10    6.00
  10  -2 -12   32.60    4.40
  10  -2 -12   28.60   11.60
  10   2 -12   27.80    4.80
  10   2 -12   27.00    4.80
  10   2 -12   34.80    8.60
   8  -2 -12   77.69    6.40
   8  -2 -12   65.29    5.00
   8  -2 -12   88.29   10.50
   8   2 -12   64.09    5.30
   8   2 -12   65.79   10.10
   8   2 -12   62.39    5.00
   6  -2 -12    3.30    3.00
   6  -2 -12    1.70    3.30
   6  -2 -12    6.00    7.50
   6   2 -12   -0.40    2.40
   6   2 -12    5.60    5.10
   6   2 -12    3.50    2.50
   4  -2 -12   22.20    3.40
   4  -2 -12   32.00    6.60
   4  -2 -12   36.10    5.10
   4  -2 -12   22.00    3.80
   4   2 -12   27.60    3.30
   4   2 -12   30.40    5.00
   4   2 -12   25.30    3.10
   4   2 -12   27.40    3.20
   2  -2 -12   15.90    3.70
   2  -2 -12   13.20    2.50
   2  -2 -12   20.20    6.00
   2  -2 -12   16.10    3.10
   2   2 -12   13.00    3.70
   2   2 -12   11.40    2.60
   2   2 -12   20.60    2.80
   2   2 -12   12.80    2.30
   2   2 -12   15.80    2.50
   0  -2 -12   97.99    5.60
   0  -2 -12   95.79    7.00
   0  -2 -12  104.89    6.30
   0  -2 -12   96.19    8.90
   0   2 -12  103.69    5.50
   0   2 -12  106.89    7.20
   0   2 -12   94.09    5.40
   0   2 -12  102.19    5.50
   0   2 -12  100.29    5.70
  -2  -2 -12   25.60    3.80
  -2  -2 -12   28.00    4.50
  -2  -2 -12   28.10    5.20
  -2  -2 -12   35.30    4.70
  -2   2 -12   29.60    3.50
  -2   2 -12   25.00    3.20
  -2   2 -12   33.30    3.80
  -2   2 -12   35.80    4.70
  -4  -2 -12  154.78    9.10
  -4  -2 -12  145.59    8.60
  -4  -2 -12  140.59    8.40
  -4  -2 -12  151.28    9.00
  -4   2 -12  158.68    8.00
  -4   2 -12  148.99    7.40
  -4   2 -12  157.78    9.70
  -4   2 -12  155.28    8.00
  -6  -2 -12   20.10    5.80
  -6  -2 -12   23.30    5.00
  -6  -2 -12   20.30    4.50
  -6  -2 -12   24.90    5.20
  -6   2 -12   26.80    4.00
  -6   2 -12   31.80    4.40
  -6   2 -12   22.80    4.10
  -6   2 -12   30.30    6.50
  -8  -2 -12   11.80    6.20
  -8  -2 -12    9.10    5.20
  -8  -2 -12   -1.70    8.60
  -8  -2 -12   16.70    5.10
  -8   2 -12   18.60    4.70
  -8   2 -12    0.30    7.20
  -8   2 -12    2.20    3.70
  13  -3 -12    7.70   15.00
  13  -3 -12   -7.50    7.20
  13  -3 -12    7.90    3.90
 -13  -3  12    1.90    4.80
  13   3 -12  -17.20   13.00
  13   3 -12   -3.70    4.30
  13   3 -12   -3.60    5.10
  11  -3 -12   40.70    7.90
  11  -3 -12   66.89   14.50
  11  -3 -12   44.80    4.90
  11   3 -12   43.80   11.50
  11   3 -12   47.50    5.30
  11   3 -12   46.30    7.70
   9  -3 -12   13.70    5.30
   9  -3 -12   11.10   11.40
   9  -3 -12   10.10    3.90
   9   3 -12   14.40    4.10
   9   3 -12   10.70    3.60
   9   3 -12    6.20    6.90
   7  -3 -12   96.29    6.90
   7  -3 -12  105.49   11.20
   7  -3 -12   89.49    6.10
   7   3 -12  113.79   10.40
   7   3 -12   86.19    5.80
   7   3 -12   96.29    6.20
   5  -3 -12   46.00    4.30
   5  -3 -12   58.19   11.20
   5  -3 -12   58.29    5.10
   5   3 -12   45.60    8.10
   5   3 -12   50.19    4.20
   5   3 -12   54.29    4.40
   3  -3 -12  240.88   12.20
   3  -3 -12  244.28   13.70
   3  -3 -12  233.98   11.20
   3  -3 -12  229.18   10.50
   3   3 -12  241.18   10.10
   3   3 -12  222.58   10.70
   3   3 -12  240.18   12.40
   3   3 -12  232.58   10.10
   1  -3 -12  125.99    7.30
   1  -3 -12  123.29    8.50
   1  -3 -12  140.29    9.40
   1   3 -12  125.09    6.50
   1   3 -12  135.79    6.80
   1   3 -12  123.99    8.10
   1   3 -12  124.39    6.60
  -1  -3 -12   45.10    4.40
  -1  -3 -12   42.30    6.60
  -1  -3 -12   54.19    5.00
  -1   3 -12   51.99    4.50
  -1   3 -12   54.39    4.30
  -1   3 -12   52.69    4.10
  -1   3 -12   49.00    6.70
  -3  -3 -12   27.00    4.80
  -3  -3 -12   21.40    4.80
  -3  -3 -12   22.40    4.20
  -3   3 -12   24.00    3.70
  -3   3 -12   27.20    4.00
  -3   3 -12   23.80    3.70
  -3   3 -12   22.60    4.70
  -5  -3 -12    8.90    3.80
  -5  -3 -12    8.60    5.20
  -5  -3 -12    1.00    3.90
  -5   3 -12    8.00    5.50
  -5   3 -12    5.40    3.70
  -5   3 -12    5.80    3.20
  -5   3 -12    8.70    3.20
  -7  -3 -12  210.08   13.10
  -7  -3 -12  188.88   11.50
  -7  -3 -12  187.88   11.50
  -7   3 -12  220.68   11.30
  -7   3 -12  200.28   13.20
  -7   3 -12  219.28   11.20
  -9  -3 -12    0.50    4.90
  -9  -3 -12   21.20    5.50
  -9  -3 -12    2.00    8.60
  -9   3 -12    7.70    4.50
  -9   3 -12   -4.10    5.40
  -9   3 -12    5.00    9.00
  12  -4 -12   38.30   14.10
  12  -4 -12   58.59    6.40
  12  -4 -12   78.19   12.80
  12   4 -12   48.90    6.20
  12   4 -12   53.89   14.00
  10  -4 -12   22.50    6.80
  10  -4 -12   23.40   14.70
  10  -4 -12   18.50    4.10
  10   4 -12   22.40    5.40
  10   4 -12   28.70    5.40
  10   4 -12   25.20    9.40
   8  -4 -12   -0.50   11.50
   8  -4 -12   -1.60    5.20
   8  -4 -12    3.00    3.40
   8   4 -12   -7.10    3.50
   8   4 -12   -6.60    3.40
   8   4 -12   -0.90    7.10
   6  -4 -12   19.30    3.70
   6  -4 -12   10.90    4.20
   6  -4 -12    8.70    7.30
   6   4 -12   28.40    6.10
   6   4 -12   15.30    3.20
   6   4 -12   20.20    3.60
   4  -4 -12  326.17   17.60
   4  -4 -12  327.17   14.60
   4  -4 -12  327.67   14.90
   4   4 -12  342.07   16.40
   4   4 -12  338.27   14.70
   4   4 -12  333.37   13.70
   4   4 -12  321.07   13.80
   2  -4 -12   74.09    5.80
   2  -4 -12   69.49    7.50
   2  -4 -12   74.19    5.40
   2   4 -12   77.89    5.00
   2   4 -12   79.59    6.80
   2   4 -12   72.69    4.80
   2   4 -12   68.79    5.30
   0  -4 -12  249.78   13.70
   0  -4 -12  242.98   12.30
   0   4  12  253.77   12.20
   0   4 -12  245.98   11.40
   0   4 -12  254.87   11.30
   0   4 -12  267.57   12.70
   0   4 -12  256.67   11.70
  -2  -4 -12   11.40    3.90
  -2  -4 -12    3.20    5.10
  -2  -4 -12   11.40    3.80
  -2   4 -12   13.30    4.70
   2   4  12   15.50    4.10
  -2   4 -12    7.90    3.30
  -2   4 -12   10.80    3.50
  -2   4 -12   12.00    3.00
  -4  -4 -12  173.08    9.70
  -4  -4 -12  152.48   11.60
  -4  -4 -12  164.38   10.10
  -4   4 -12  178.58    9.20
  -4   4 -12  167.58    8.80
   4   4  12  190.58   11.40
  -4   4 -12  183.48    9.10
  -4   4 -12  198.88   11.90
  -6  -4 -12    2.80    4.90
  -6  -4 -12    7.80    4.90
  -6  -4 -12   -6.20    7.20
   6   4  12   12.90    8.00
  -6   4 -12   10.30    4.30
  -6   4 -12    6.40    3.60
  -6   4 -12   -1.20    6.60
  -8  -4 -12  134.49    9.70
  -8  -4 -12  132.79   14.20
  -8  -4 -12  131.89   10.30
  -8   4 -12  147.59    9.50
   8   4  12  157.88   24.70
  -8   4 -12  138.79   13.10
  11  -5 -12   53.89    6.10
  11  -5 -12   52.89   10.90
  11   5 -12   62.39   13.60
  11   5 -12   57.69    6.40
   9  -5 -12    6.40    4.00
   9  -5 -12   29.30   14.40
   9  -5 -12  -10.60    7.50
   9   5 -12   12.00    4.90
   9   5 -12   15.30    8.10
   9   5 -12    6.70    4.90
   7  -5 -12   30.60   10.90
   7  -5 -12   51.59    7.90
   7  -5 -12   44.70    5.00
   7   5 -12   55.39    5.20
   7   5 -12   52.29    5.50
   5  -5 -12    0.50    4.90
   5  -5 -12   -0.10    3.60
   5   5 -12   -0.80    3.50
   5   5 -12    0.20    3.10
   5   5 -12   -9.20    5.20
   3  -5 -12   43.20    5.50
   3  -5 -12   46.90    5.30
   3   5 -12   60.19    8.20
   3   5 -12   47.40    4.60
  -3   5  12   46.50    6.60
   3   5 -12   54.29    5.60
   1  -5 -12   30.40    4.80
   1   5 -12   35.60    4.90
   1   5 -12   29.80    3.80
   1   5 -12   27.50    4.50
   1   5 -12   32.90    5.50
  -1   5  12   32.70    6.40
  -1  -5 -12   -1.50    5.80
  -1  -5 -12   -1.80    3.90
  -1   5 -12   -3.50    2.90
  -1   5 -12   -3.90    4.80
  -1   5 -12    4.20    3.30
  -1   5 -12    1.20    3.30
  -3  -5 -12  125.79   11.00
  -3  -5 -12  108.79    7.90
  -3  -5 -12  108.19    7.60
   3   5  12  110.99    9.30
  -3   5 -12  111.19    9.90
  -3   5 -12  132.59    7.70
  -3   5 -12  120.29    7.80
  -3   5 -12  108.69    6.80
  -5  -5 -12   46.20    8.50
  -5  -5 -12   35.90    5.90
  -5  -5 -12   25.50    5.50
  -5   5 -12   31.20    5.30
  -5   5 -12   38.90    5.10
  -5   5 -12   38.20    7.90
  -7  -5 -12   46.30    7.00
  -7  -5 -12   53.09    9.90
  -7  -5 -12   49.20    7.60
  -7   5 -12   41.40    9.20
  -7   5 -12   49.99    5.70
  10  -6 -12   50.99   10.90
  10  -6 -12   34.90    5.40
  10   6 -12   42.70    6.30
   8  -6 -12   53.09    6.10
   8  -6 -12   38.10    7.90
   8   6 -12   52.09    6.30
   8   6 -12   54.69    7.00
   6  -6 -12   14.10    5.00
   6   6 -12   17.80    4.40
   6   6 -12   16.10    4.30
   4  -6 -12   52.59    6.60
   4  -6 -12   58.09    6.00
   4   6 -12   64.69    6.50
   4   6 -12   56.79   10.20
  -4   6  12   70.79    8.30
   4   6 -12   58.19    5.20
   2  -6 -12   -0.90    4.00
   2  -6 -12   -0.60    3.90
   2   6 -12   10.80    4.30
   2   6 -12   10.00    3.70
   2   6 -12   -2.00    3.10
   0  -6 -12  138.89    9.00
   0   6 -12  156.78    8.80
   0   6 -12  144.39    8.90
   0   6 -12  140.09    9.90
   0   6 -12  131.49    7.70
  -2  -6 -12   -6.40    4.00
  -2   6 -12   -0.70    3.10
  -2   6 -12   10.00    4.50
  -2   6 -12   -9.00    6.00
  -2   6 -12    3.60    4.40
  -4  -6 -12   87.49    7.90
  -4  -6 -12   87.59    7.90
  -4   6 -12   96.79    6.50
  -4   6 -12   95.29    8.20
  -4   6 -12   82.09    8.20
  -4   6 -12  108.39   11.40
  -6  -6 -12   40.30    6.40
  -6  -6 -12   32.60   12.30
  -6   6 -12   44.20    5.60
   7  -7 -12   87.19   10.90
   7  -7 -12   97.49    7.90
  -7   7  12   73.69   13.90
   7   7 -12   93.89    7.40
   5  -7 -12    8.70    5.30
   5  -7 -12   11.10    6.50
  -5   7  12    9.00    8.50
   5   7 -12   11.40    5.40
   3  -7 -12   14.70    5.10
   3  -7 -12   27.80    5.60
  -3   7  12   21.10    6.70
   3   7 -12   36.50    6.40
   3   7 -12   32.10    6.00
   1  -7 -12   30.80    5.70
   1   7 -12   31.20    5.70
   1   7 -12   29.10    6.20
   1   7 -12   28.00    4.40
   1   7 -12   29.90    6.50
  -1  -7 -12   11.10    5.00
  -1   7 -12   10.40    3.90
  -1   7 -12   13.30    5.80
  -1   7 -12   11.60    7.10
  -1   7 -12   25.10    6.00
  -3  -7 -12   60.89    7.60
  -3   7 -12   72.09    6.00
  -3   7 -12   99.19    8.80
  -3   7 -12   74.29   10.10
  -3   7 -12   86.69   11.80
   4  -8 -12   90.99    8.40
   4  -8 -12  128.09   10.00
   4   8 -12  114.99    9.60
   2  -8 -12   -2.00    5.70
   2   8 -12    2.40    3.80
   2   8 -12   -4.80    6.40
   0  -8 -12  116.79    9.10
   0   8 -12  135.09    8.00
   0   8 -12  121.99   11.30
  12   0 -13    1.40    3.70
  12   0 -13   -8.00    6.50
  12   0 -13  -10.30   12.90
  10   0 -13   -0.10    8.50
  10   0 -13   -1.30    3.20
  10   0 -13    3.60    4.60
   8   0 -13    2.80    3.70
   8   0 -13    5.00    3.30
   8   0 -13   18.50    8.20
   6   0 -13    1.70    2.90
   6   0 -13    0.90    2.80
   6   0 -13   -3.00    5.70
   4   0 -13   -1.60    2.40
   4   0 -13   -3.00    5.30
   4   0 -13   -2.60    2.60
   4   0 -13    2.70    2.90
   4   0 -13   -1.60    2.10
   2   0 -13   -0.80    1.90
   2   0 -13    0.20    2.50
   2   0 -13    2.20    2.00
   2   0 -13    0.50    2.60
   2   0 -13    1.30    4.80
   0   0 -13   -0.20    3.60
   0   0 -13    4.50    2.50
   0   0 -13    1.70    2.30
   0   0 -13   -3.20    2.80
  -2   0 -13    1.20    2.90
  -2   0 -13   -0.20    2.60
  -2   0 -13   -0.30    3.30
  -2   0 -13    3.10    4.30
  -4   0 -13    1.30    3.40
  -4   0 -13   -0.90    4.90
  -4   0 -13    0.90    3.90
  -4   0 -13    3.20    3.30
  -6   0 -13   -8.40    3.60
  -6   0 -13    1.30    7.60
  -6   0 -13    4.70    4.50
  -6   0 -13    1.00    3.90
  -8   0 -13    5.80    4.40
  -8   0 -13    8.00    8.50
  13  -1 -13  -14.90    8.40
  13  -1 -13    7.50   16.00
  13  -1 -13    0.90    4.00
  13   1 -13    4.20    4.10
  13   1 -13    6.00    8.80
  13   1 -13    3.60   13.90
  11  -1 -13   39.00    7.10
  11  -1 -13   50.49   13.90
  11  -1 -13   41.40    5.30
  11   1 -13   38.60   11.80
  11   1 -13   31.20    4.90
  11   1 -13   27.50    6.00
   9  -1 -13    5.50    4.40
   9  -1 -13    1.50    8.50
   9  -1 -13    2.20    3.30
   9   1 -13    3.30    3.90
   9   1 -13    1.20    7.50
   9   1 -13    5.50    3.10
   7  -1 -13    8.60    8.20
   7  -1 -13   -1.40    3.10
   7  -1 -13   -0.40    3.30
   7   1 -13    6.20    6.30
   7   1 -13    1.50    3.20
   7   1 -13    2.60    3.20
   5  -1 -13   74.59    8.00
   5  -1 -13   74.29    5.10
   5  -1 -13   62.89    4.90
   5  -1 -13   72.79    6.00
   5   1 -13   75.79    8.40
   5   1 -13   67.69    5.10
   5   1 -13   72.19    5.00
   5   1 -13   73.39    4.70
   3  -1 -13   47.50    6.90
   3  -1 -13   29.50    3.60
   3  -1 -13   33.00    3.60
   3  -1 -13   34.20    3.00
   3  -1 -13   28.50    4.80
   3   1 -13   39.60    3.80
   3   1 -13   45.30    6.10
   3   1 -13   39.80    3.60
   3   1 -13   39.10    3.40
   3   1 -13   41.20    3.60
   1  -1 -13   17.60    3.40
   1  -1 -13   18.70    3.40
   1  -1 -13   13.80    2.70
   1  -1 -13   20.40    5.80
   1   1 -13   16.50    4.00
   1   1 -13   18.90    2.70
   1   1 -13   17.80    3.50
   1   1 -13   18.50    2.90
   1   1 -13   18.70    2.80
  -1  -1 -13    1.90    2.80
  -1  -1 -13    4.10    3.70
  -1  -1 -13    0.60    3.10
  -1  -1 -13   -3.20    2.50
  -1   1 -13    3.00    2.70
  -1   1 -13    2.10    3.00
  -1   1 -13    2.20    4.20
  -1   1 -13   -1.60    1.80
  -1   1 -13   -2.00    2.60
  -3  -1 -13   12.80    5.20
  -3  -1 -13    7.50    2.90
  -3  -1 -13    7.70    3.80
  -3  -1 -13   10.10    3.80
  -3   1 -13    8.80    4.00
  -3   1 -13    7.60    3.30
  -3   1 -13    9.50    3.20
  -3   1 -13    9.50    5.00
  -5  -1 -13   97.69    7.10
  -5  -1 -13   89.29    6.70
  -5  -1 -13  100.29    9.30
  -5  -1 -13   82.09    7.30
  -5   1 -13  101.99    6.80
  -5   1 -13  104.69    9.20
  -5   1 -13  104.29    6.90
  -5   1 -13   94.89    7.00
  -7  -1 -13    1.60    5.30
  -7  -1 -13   -1.10    8.40
  -7  -1 -13    0.20    4.80
  -7  -1 -13    1.40    4.20
  -7   1 -13    7.10    7.70
  -7   1 -13   -0.50    3.60
  -7   1 -13    0.30    5.10
  12  -2 -13  -12.10    7.60
  12  -2 -13    5.70   15.50
  12  -2 -13    3.10    3.90
  12   2 -13    7.40   13.60
  12   2 -13    1.80    6.50
  12   2 -13    3.80    4.20
  10  -2 -13    0.90    5.60
  10  -2 -13   14.60    3.70
  10  -2 -13    5.80   12.90
  10   2 -13   15.20    4.70
  10   2 -13   28.90    9.10
  10   2 -13   13.30    3.90
   8  -2 -13   25.00    5.00
   8  -2 -13   22.40    4.10
   8  -2 -13   28.10    8.00
   8   2 -13   11.40    7.10
   8   2 -13   28.90    3.70
   8   2 -13   27.60    4.80
   6  -2 -13    2.50    3.60
   6  -2 -13    0.40    2.80
   6   2 -13    0.70    3.00
   6   2 -13   -0.80    5.70
   6   2 -13    0.20    2.80
   4  -2 -13   45.50    4.50
   4  -2 -13   41.30    5.80
   4  -2 -13   31.80    3.70
   4  -2 -13   38.50    7.40
   4   2 -13   42.50    3.70
   4   2 -13   42.20    7.10
   4   2 -13   34.30    3.80
   4   2 -13   44.90    3.90
   2  -2 -13   55.49    4.50
   2  -2 -13   67.39    6.40
   2  -2 -13   64.99    8.90
   2  -2 -13   62.69    5.40
   2   2 -13   66.49    4.40
   2   2 -13   70.29    4.50
   2   2 -13   68.29    4.60
   2   2 -13   69.19    4.40
   2   2 -13   64.69    6.50
   0  -2 -13   44.10    4.40
   0  -2 -13   35.00    5.90
   0  -2 -13   63.89    8.30
   0  -2 -13   38.60    4.30
   0   2 -13   47.60    4.40
   0   2 -13   49.50    5.80
   0   2 -13   51.49    3.80
   0   2 -13   51.99    3.80
   0   2 -13   44.90    4.00
  -2  -2 -13    3.70    3.50
  -2  -2 -13    0.10    2.90
  -2  -2 -13   -2.30    3.80
  -2  -2 -13    8.20    4.10
  -2   2 -13    2.80    2.80
  -2   2 -13    0.50    4.40
  -2   2 -13    2.00    2.40
  -2   2 -13    2.10    2.50
  -4  -2 -13  132.09    8.20
  -4  -2 -13  144.69    8.60
  -4  -2 -13  143.89    9.60
  -4   2 -13  141.89    7.70
  -4   2 -13  160.08    8.10
  -4   2 -13  143.79    9.90
  -4   2 -13  142.89    7.10
  -6  -2 -13   -5.10    5.40
  -6  -2 -13    1.70    4.30
  -6  -2 -13   -5.70    6.70
  -6  -2 -13    2.40    4.20
  -6   2 -13   -5.10    3.10
  -6   2 -13   -2.60    4.10
  -6   2 -13   12.40    3.80
  -6   2 -13    5.30    7.00
  -8  -2 -13   -2.70    4.60
  -8  -2 -13   -9.50    8.80
  -8  -2 -13   15.40    7.20
  -8  -2 -13   -2.30    5.50
  -8   2 -13    1.60    9.20
  -8   2 -13   -1.90    3.90
  13  -3 -13    7.60    4.60
  13   3 -13    4.90    4.50
  11  -3 -13    3.80    4.10
  11  -3 -13    9.60   16.80
  11  -3 -13    0.50    7.30
  11   3 -13    1.10   10.30
  11   3 -13    3.80    6.00
  11   3 -13    4.90    4.20
   9  -3 -13   38.80    6.30
   9  -3 -13   23.70   13.40
   9  -3 -13   30.10    4.20
   9   3 -13   36.70    4.60
   9   3 -13   54.89   10.40
   7  -3 -13   25.20    4.70
   7  -3 -13    7.20    7.90
   7  -3 -13   13.70    3.60
   7   3 -13   15.70    3.40
   7   3 -13   19.30    6.10
   7   3 -13   26.60    4.70
   5  -3 -13   31.20    9.40
   5  -3 -13   26.10    3.70
   5  -3 -13   23.80    3.90
   5   3 -13   23.70    6.60
   5   3 -13   25.50    3.90
   5   3 -13   26.40    4.30
   3  -3 -13   48.40    4.50
   3  -3 -13   50.79    5.00
   3  -3 -13   67.29   10.10
   3  -3 -13   64.09    6.70
   3   3 -13   60.29    7.50
   3   3 -13   49.90    4.50
   3   3 -13   59.09    4.20
   3   3 -13   53.59    4.30
   1  -3 -13    4.60    4.30
   1  -3 -13    9.40    5.50
   1  -3 -13   -5.70    3.30
   1   3 -13    0.80    2.60
   1   3 -13    3.00    4.00
   1   3 -13   -2.80    2.50
   1   3 -13    2.40    2.50
  -1  -3 -13   -2.20    4.70
  -1  -3 -13    1.50    6.10
  -1  -3 -13    2.80    3.50
  -1  -3 -13    0.60    3.40
  -1   3 -13    0.60    2.50
  -1   3 -13    1.20    2.60
  -1   3 -13   -5.00    3.00
  -1   3 -13   -3.20    4.20
  -3  -3 -13   77.99    8.70
  -3  -3 -13   79.39    6.30
  -3  -3 -13   85.49    6.20
  -3   3 -13   77.99    6.30
  -3   3 -13   82.19    8.10
  -3   3 -13   83.29    5.50
  -3   3 -13   78.89    5.60
  -5  -3 -13   -1.90    3.60
  -5  -3 -13    2.30    4.30
  -5  -3 -13    3.90    6.00
  -5   3 -13   -1.20    3.20
  -5   3 -13   -5.60    3.30
  -5   3 -13   -2.40    6.30
  -5   3 -13   -0.70    4.10
  -7  -3 -13    1.00    4.70
  -7  -3 -13    3.00    4.50
  -7  -3 -13    6.90    7.50
  -7   3 -13    5.50    4.50
  -7   3 -13   10.50    5.30
  -7   3 -13   20.00    8.40
  12  -4 -13   -1.90    8.10
  12  -4 -13    9.60    4.30
  12   4 -13    6.30    4.60
  10  -4 -13    0.90   16.50
  10  -4 -13    0.70    3.50
  10  -4 -13   -0.20    7.10
  10   4 -13   20.00    9.80
  10   4 -13    2.10    5.50
  10   4 -13    1.50    4.30
   8  -4 -13   26.00    6.00
   8  -4 -13   15.60   14.40
   8  -4 -13   17.60    4.10
   8   4 -13   26.90    4.60
   8   4 -13   17.00    4.10
   6  -4 -13   83.19    6.80
   6  -4 -13   70.69   12.00
   6  -4 -13   71.69    5.30
   6   4 -13   72.09    5.20
   6   4 -13   61.89    9.50
   6   4 -13   79.09    5.90
   4  -4 -13    4.10    3.90
   4  -4 -13   -6.70    7.20
   4  -4 -13    3.90    3.60
   4   4 -13    2.40    2.60
   4   4 -13   -1.60    2.90
   4   4 -13   -0.40    5.30
   4   4 -13    0.90    2.90
   2  -4 -13   11.00    3.90
   2  -4 -13    7.30    3.40
   2  -4 -13    9.20    5.40
   2   4 -13    0.10    3.20
   2   4 -13    7.10    4.50
   2   4 -13    2.20    2.90
   2   4 -13    7.70    3.20
   0  -4 -13    1.30    5.70
   0  -4 -13   -5.30    3.40
   0   4 -13   -0.80    2.80
   0   4  13   -3.20    4.60
   0   4 -13    5.80    3.30
   0   4 -13    3.00    3.10
   0   4 -13    5.50    4.50
  -2  -4 -13   30.40    5.10
  -2  -4 -13   49.60    8.20
  -2  -4 -13   34.90    5.30
  -2   4 -13   36.40    5.20
  -2   4 -13   46.90    8.20
   2   4  13   38.70    6.70
  -2   4 -13   39.40    4.10
  -2   4 -13   26.50    4.70
  -4  -4 -13   75.79    7.10
  -4  -4 -13   76.89    7.10
  -4  -4 -13   59.69   10.10
  -4   4 -13   81.49    7.10
  -4   4 -13   84.99    6.00
  -4   4 -13   80.49    6.10
   4   4  13   77.99    9.10
  -4   4 -13   88.79    9.60
  -6  -4 -13   13.60    4.70
  -6  -4 -13    0.50    8.20
  -6  -4 -13   -2.60    5.10
  -6   4 -13   -2.10    7.70
  -6   4 -13   14.20    5.60
   6   4  13   10.80    9.00
  -6   4 -13   10.90    4.20
  -6   4 -13   12.60    4.80
  11  -5 -13    7.30    4.30
  11  -5 -13  -16.00   10.40
  11   5 -13   -2.50    4.90
   9  -5 -13   -7.80    7.10
   9  -5 -13   24.60   17.30
   9  -5 -13    8.40    4.10
   9   5 -13    6.00    4.60
   9   5 -13    8.80    5.20
   9   5 -13   15.70   11.00
   7  -5 -13    1.10    6.20
   7  -5 -13    0.60   13.70
   7  -5 -13    1.80    3.60
   7   5 -13    9.50    3.90
   5  -5 -13    5.80    3.80
   5  -5 -13   19.10    5.30
   5   5 -13    8.70    3.60
   5   5 -13    6.60    6.10
   5   5 -13   11.70    3.60
   3  -5 -13   -1.00    3.90
   3  -5 -13    6.00    4.10
   3   5 -13   -3.50    3.60
  -3   5  13   -0.30    5.80
   3   5 -13   -2.20    2.90
   3   5 -13    9.70    5.90
   1  -5 -13   25.50    5.10
   1   5 -13   19.10    5.60
   1   5 -13   26.50    4.40
   1   5 -13   30.80    4.00
  -1   5  13   18.70    5.40
   1   5 -13   26.20    4.70
  -1  -5 -13    0.80    6.60
  -1  -5 -13    2.60    4.30
  -1   5 -13   -4.10    3.80
  -1   5 -13   -2.20    3.60
  -1   5 -13    0.10    5.60
  -1   5 -13   -1.70    3.00
  -3  -5 -13    1.20    4.70
  -3  -5 -13    5.10    7.50
  -3  -5 -13   15.10    4.90
  -3   5 -13    3.00    3.10
  -3   5 -13    9.70    4.30
  -3   5 -13    6.00    6.30
  -3   5 -13   10.20    4.10
  -5  -5 -13   20.40    9.10
  -5  -5 -13    9.30    4.90
  -5  -5 -13   16.10    5.80
  -5   5 -13   24.50    5.30
  -5   5 -13   21.30    4.60
   5   5  13   14.00    9.00
  -5   5 -13   38.00    6.60
  -5   5 -13   28.70    8.30
   8  -6 -13  -21.80   21.60
   8  -6 -13   16.40    8.30
   8  -6 -13   16.00    5.00
   8   6 -13   17.20    7.00
   8   6 -13   19.70    5.10
   6  -6 -13   -1.30    4.90
   6  -6 -13   -2.40    6.60
   6   6 -13   -5.40    4.40
   6   6 -13   -1.30    4.20
   4  -6 -13   17.00    4.90
   4  -6 -13    6.10    5.10
   4   6 -13   19.30    3.70
   4   6 -13   30.50    7.70
  -4   6  13   12.00    6.70
   4   6 -13   13.80    4.80
   2  -6 -13   29.60    5.80
   2   6 -13   30.10    5.00
   2   6 -13   38.40    4.80
   2   6 -13   25.40    6.40
   2   6 -13   43.50    6.10
   0  -6 -13    3.60    4.20
   0   6 -13   10.00    6.10
   0   6  13    7.50    5.80
   0   6 -13    8.60    3.50
   0   6 -13   -4.60    4.70
   0   6 -13    3.00    4.40
  -2  -6 -13    0.10    4.20
  -2   6 -13    9.20    6.90
  -2   6 -13   15.20    5.30
  -2   6 -13   -0.10    3.10
  -2   6 -13   -2.40    4.80
  -4  -6 -13    1.70    5.40
  -4  -6 -13   13.80   10.60
  -4  -6 -13    8.20    5.40
  -4   6 -13   13.50    5.80
  -4   6 -13    9.90    8.50
  -4   6 -13   18.80    6.90
   7  -7 -13   -4.70    8.40
   7  -7 -13   23.50    5.90
   7   7 -13   16.30    5.30
   5  -7 -13    2.00    6.70
   5  -7 -13    3.80    4.90
  -5   7  13    2.20    8.70
   5   7 -13    4.60    6.10
   3  -7 -13    2.30    4.50
   3   7 -13   -2.80    4.80
   3   7 -13   -5.50    5.80
   1  -7 -13    8.70    4.80
   1   7 -13   -7.30    3.40
   1   7 -13    9.00    5.50
   1   7 -13   -3.00    7.40
   1   7 -13   10.50    5.80
  -1  -7 -13    9.30    5.20
  -1   7 -13   -8.40    5.90
  -1   7 -13    6.60    3.80
  -1   7 -13    1.50    8.10
  -1   7 -13    2.80    6.10
  12   0 -14    7.70    4.20
  12   0 -14   20.40    7.20
  12   0 -14   37.50   15.10
  10   0 -14  118.29    8.50
  10   0 -14   99.89    7.30
  10   0 -14  140.49   14.90
   8   0 -14   70.29   11.10
   8   0 -14   57.49    6.10
   8   0 -14   59.09    5.00
   6   0 -14   65.69   10.80
   6   0 -14   57.49    4.50
   6   0 -14   63.19    6.10
   6   0 -14   68.19    5.30
   4   0 -14    1.70    2.80
   4   0 -14    0.80    2.80
   4   0 -14    1.50    6.30
   4   0 -14   -0.10    2.40
   4   0 -14   -1.60    3.10
   2   0 -14   82.89    5.90
   2   0 -14   74.59    9.00
   2   0 -14   85.19    5.50
   2   0 -14   85.79    4.70
   2   0 -14   80.79    4.70
   0   0 -14  169.48    8.10
   0   0 -14  178.88    8.80
   0   0 -14  169.18    8.90
   0   0 -14  169.98   10.00
   0   0 -14  170.48    7.60
  -2   0 -14  147.89    8.30
  -2   0 -14  141.69    8.10
  -2   0 -14  139.99    9.50
  -2   0 -14  139.89    7.30
  -4   0 -14    7.90    5.60
  -4   0 -14    4.70    4.20
  -4   0 -14    7.90    4.30
  -4   0 -14   16.40    4.40
  -6   0 -14   30.10    4.70
  -6   0 -14   27.40    8.10
  -6   0 -14   33.90    5.50
  -8   0 -14   -5.20    7.10
  -8   0 -14    8.90   10.40
  -8   0 -14   -3.00    4.80
  13  -1 -14    1.40    4.70
  13   1 -14   10.90    4.10
  11  -1 -14  -22.60   13.90
  11  -1 -14   11.50    7.30
  11  -1 -14   16.60    4.90
  11   1 -14   14.40    6.00
  11   1 -14    9.30    3.90
  11   1 -14   19.20   11.00
   9  -1 -14   22.70    4.10
   9  -1 -14   20.30    9.30
   9  -1 -14   29.10    5.40
   9   1 -14   30.50    4.40
   9   1 -14   34.80    6.10
   9   1 -14   34.60    8.30
   7  -1 -14  144.69   13.30
   7  -1 -14  124.29    8.00
   7  -1 -14  124.39    7.40
   7   1 -14  135.39    7.30
   7   1 -14  148.39    8.20
   5  -1 -14   11.30    3.10
   5  -1 -14   13.70    3.20
   5  -1 -14   24.30    4.40
   5  -1 -14   18.50    5.80
   5   1 -14   15.50    3.10
   5   1 -14   13.40    3.40
   5   1 -14   14.10    2.90
   5   1 -14   15.80    5.60
   3  -1 -14   66.39    5.20
   3  -1 -14   71.59    4.30
   3  -1 -14   73.49    9.90
   3  -1 -14   63.09    6.20
   3  -1 -14   71.69    4.80
   3   1 -14   73.99    4.70
   3   1 -14   84.49    5.50
   3   1 -14   74.89    9.00
   3   1 -14   67.59    4.90
   3   1 -14   82.09    4.90
   1  -1 -14    3.90    5.90
   1  -1 -14   12.50    3.70
   1  -1 -14    4.10    2.70
   1  -1 -14   11.10    2.40
   1  -1 -14    6.20    3.50
   1   1 -14    1.90    4.20
   1   1 -14    8.60    2.30
   1   1 -14    6.60    2.20
   1   1 -14    9.40    3.90
   1   1 -14    6.00    2.60
  -1  -1 -14  255.57   11.30
  -1  -1 -14  251.37   12.60
  -1  -1 -14  250.77   13.20
  -1  -1 -14  255.57   12.10
  -1   1 -14  259.77   11.70
  -1   1 -14  254.57   10.90
  -1   1 -14  252.67   13.10
  -1   1 -14  262.37   11.90
  -1   1 -14  262.47   11.60
  -3  -1 -14    1.90    4.40
  -3  -1 -14    0.00    4.80
  -3  -1 -14    0.50    2.90
  -3  -1 -14    5.90    4.00
  -3   1 -14   -0.90    4.00
  -3   1 -14    5.10    3.70
  -3   1 -14    1.30    5.40
  -3   1 -14    1.40    3.10
  -5  -1 -14  115.59    7.80
  -5  -1 -14  110.79    8.50
  -5  -1 -14  104.19    7.30
  -5  -1 -14   98.59   11.00
  -5   1 -14  104.79    7.40
  -5   1 -14  103.29   11.30
  -5   1 -14  103.99    7.20
  -5   1 -14  106.99    7.90
  -7  -1 -14    2.50    4.50
  -7  -1 -14    7.20    5.40
  -7  -1 -14   -1.10    6.30
  -7   1 -14    0.40    3.90
  -7   1 -14    7.00    8.50
  -7   1 -14   -3.10    5.30
  12  -2 -14    4.20   15.10
  12  -2 -14    1.40    8.70
  12   2 -14   12.70    8.60
  12   2 -14    8.30    4.30
  12   2 -14  -13.40   14.20
  10  -2 -14   77.79    6.20
  10  -2 -14   83.89    8.90
  10  -2 -14   73.99   13.70
  10   2 -14   72.69    5.80
  10   2 -14   90.19    7.90
  10   2 -14  111.49   14.40
   8  -2 -14    3.70    3.30
   8  -2 -14    3.90    4.70
   8  -2 -14  -14.50    8.90
   8   2 -14    8.10    3.90
   8   2 -14    3.20    7.80
   8   2 -14   10.60    3.50
   6  -2 -14   56.49    6.00
   6  -2 -14   50.49    4.70
   6  -2 -14   61.79   12.00
   6   2 -14   54.59    4.70
   6   2 -14   54.79   10.30
   6   2 -14   56.39    5.00
   4  -2 -14    7.60    4.30
   4  -2 -14    0.20    5.80
   4  -2 -14    3.60    3.00
   4  -2 -14   -0.70    3.40
   4   2 -14    1.80    2.90
   4   2 -14   -2.40    5.20
   4   2 -14   -0.80    2.80
   4   2 -14   -3.60    2.60
   4   2 -14    4.90    2.90
   2  -2 -14    4.60    2.60
   2  -2 -14    0.50    4.20
   2  -2 -14   13.10    7.20
   2  -2 -14    2.80    2.80
   2  -2 -14    7.00    3.80
   2   2 -14    4.70    5.30
   2   2 -14    5.30    2.50
   2   2 -14    1.70    3.00
   2   2 -14    0.00    2.80
   2   2 -14    5.10    2.80
   0  -2 -14   53.99    4.90
   0  -2 -14   50.69    4.80
   0  -2 -14   62.59    9.80
   0  -2 -14   43.50    6.50
   0   2 -14   53.09    4.30
   0   2 -14   54.39    4.90
   0   2 -14   58.19    4.80
   0   2 -14   51.39    6.70
   0   2 -14   53.39    4.20
  -2  -2 -14  108.99    6.70
  -2  -2 -14  114.69    7.20
  -2  -2 -14  106.89   10.60
  -2  -2 -14   91.79    8.10
  -2   2 -14  120.89    8.90
  -2   2 -14  109.49    6.40
  -2   2 -14  106.39    6.70
  -2   2 -14  109.39    6.10
  -2   2 -14  115.39    7.00
  -4  -2 -14  174.38   11.10
  -4  -2 -14  162.48    9.40
  -4  -2 -14  154.18    9.70
  -4   2 -14  168.58    8.90
  -4   2 -14  163.78    9.40
  -4   2 -14  184.78    8.30
  -4   2 -14  183.48   12.50
  -6  -2 -14   16.20    4.70
  -6  -2 -14   12.90    4.90
  -6  -2 -14   29.30    6.70
  -6  -2 -14   16.40    8.60
  -6   2 -14   14.80    7.40
  -6   2 -14   27.90    4.90
  -6   2 -14   29.50    5.20
  -8  -2 -14   30.30    9.50
  -8   2 -14   38.80    5.90
  11  -3 -14    4.10   15.10
  11  -3 -14   14.70    7.90
  11  -3 -14   18.20    4.50
  11   3 -14   31.30   11.40
  11   3 -14   20.30    7.50
  11   3 -14    9.60    4.30
   9  -3 -14   -3.40    3.60
   9  -3 -14    6.20    6.10
   9  -3 -14  -14.40   12.60
   9   3 -14   -7.30    4.40
   9   3 -14   -8.10   10.40
   9   3 -14    3.10    3.60
   7  -3 -14   51.09    5.00
   7  -3 -14   69.99    6.90
   7  -3 -14   37.50    9.50
   7   3 -14   62.49    9.80
   7   3 -14   58.19    4.90
   7   3 -14   53.79    5.70
   5  -3 -14   12.30    3.50
   5  -3 -14   -3.40   10.00
   5  -3 -14   13.10    3.90
   5   3 -14   13.90    3.50
   5   3 -14   18.20    3.50
   5   3 -14   16.30    7.10
   3  -3 -14  414.06   20.50
   3  -3 -14  381.76   17.20
   3  -3 -14  411.56   18.70
   3  -3 -14  382.16   16.40
   3   3 -14  395.56   16.80
   3   3 -14  372.36   16.10
   3   3 -14  377.36   16.20
   3   3 -14  389.86   16.60
   3   3 -14  414.16   18.60
   1  -3 -14   78.69    8.10
   1  -3 -14   75.39   10.20
   1  -3 -14   64.49    6.00
   1   3 -14   78.39    5.20
   1   3 -14   76.79    5.40
   1   3 -14   75.09    7.60
   1   3 -14   71.09    5.30
  -1  -3 -14   30.90    6.60
  -1  -3 -14   47.30    5.30
  -1  -3 -14   34.70    5.10
  -1  -3 -14   36.30    6.70
  -1   3 -14   47.70    4.90
  -1   3 -14   39.60    4.00
  -1   3 -14   45.20    4.60
  -1   3 -14   58.49    8.00
  -3  -3 -14   12.50    4.20
  -3  -3 -14    6.00    6.10
  -3  -3 -14    7.80    4.20
  -3   3 -14   12.10    4.00
  -3   3 -14   10.00    3.30
  -3   3 -14   21.30    6.00
  -3   3 -14   15.30    3.60
  -5  -3 -14   38.20    5.70
  -5  -3 -14   36.50    5.70
  -5  -3 -14   41.60    7.40
  -5   3 -14   42.60    6.80
  -5   3 -14   48.80    5.10
  -5   3 -14   41.70    7.60
  -5   3 -14   46.80    4.90
  -7  -3 -14    9.20    9.90
  -7  -3 -14    2.80    5.10
  -7  -3 -14    0.60    5.20
  -7   3 -14    4.70    4.50
  -7   3 -14   11.80    4.90
  -7   3 -14  -11.90    9.50
  -7   3 -14   -1.50    4.50
  10  -4 -14   -0.90   15.40
  10  -4 -14    6.30    7.50
  10  -4 -14    3.60    3.90
  10   4 -14    0.10    4.20
  10   4 -14   15.30    6.70
  10   4 -14    7.80   10.60
   8  -4 -14   20.20    4.60
   8  -4 -14   24.60    6.10
   8  -4 -14  -17.50   19.80
   8   4 -14   29.80    4.70
   8   4 -14   34.70    6.10
   8   4 -14   39.70    9.60
   6  -4 -14  160.98    9.30
   6  -4 -14  145.39   15.80
   6  -4 -14  177.08   10.00
   6   4 -14  169.28    9.30
   6   4 -14  173.28    8.60
   6   4 -14  168.88   12.80
   4  -4 -14   40.30    5.90
   4  -4 -14   35.40    5.20
   4  -4 -14   63.59   11.50
   4   4 -14   33.50    4.30
   4   4 -14   43.10    7.10
   4   4 -14   31.90    5.00
   4   4 -14   37.00    4.10
   2  -4 -14  445.86   20.00
   2  -4 -14  430.16   21.30
   2   4 -14  465.45   20.90
   2   4 -14  467.65   19.00
   2   4 -14  479.75   19.50
   2   4 -14  454.55   19.00
   0  -4 -14    0.90    6.20
   0  -4 -14    6.80    4.10
   0   4 -14    2.80    3.60
   0   4 -14   11.60    5.60
   0   4 -14    2.00    3.40
   0   4 -14    4.00    3.30
  -2  -4 -14    9.40    4.50
  -2  -4 -14   22.80    6.70
  -2  -4 -14   15.50    4.10
  -2   4 -14   12.80    3.20
  -2   4 -14   16.90    6.40
  -2   4 -14   22.90    4.50
   2   4  14    7.20    5.50
  -2   4 -14   24.00    4.10
  -4  -4 -14   -7.30    7.20
  -4  -4 -14    0.90    5.00
  -4  -4 -14   -2.60    4.70
   4   4  14    4.90    7.20
  -4   4 -14    2.40    7.00
  -4   4 -14    5.10    4.10
  -4   4 -14    7.70    5.00
  -4   4 -14   -1.80    3.70
  -6  -4 -14   29.50    6.10
  -6  -4 -14   31.70    6.30
  -6  -4 -14   34.60   10.10
  -6   4 -14   28.90    4.60
  -6   4 -14   36.90    6.40
   6   4  14   33.60   12.90
  -6   4 -14   30.70    9.50
   9  -5 -14   36.90   20.80
   9  -5 -14   11.90    4.00
   9  -5 -14    8.10    8.10
   9   5 -14   19.00    4.80
   9   5 -14   30.00   12.50
   9   5 -14   14.60    7.00
   7  -5 -14    5.70    6.80
   7  -5 -14   -2.70    3.90
   7  -5 -14  -23.30   17.40
   7   5 -14   17.40    8.40
   7   5 -14    6.10    4.00
   7   5 -14    8.40    4.50
   5  -5 -14   55.19    7.90
   5  -5 -14   54.89    6.40
   5   5 -14   48.50    4.90
   5   5 -14   46.80    7.60
   5   5 -14   54.59    6.30
   3  -5 -14   26.20    4.90
   3   5 -14   28.00    4.20
   3   5 -14   35.80    5.80
   3   5 -14   37.50    7.60
   3   5 -14   42.70    4.60
   1  -5 -14    8.20    4.30
   1   5 -14   -1.00    3.00
   1   5 -14    4.90    4.10
   1   5 -14   -1.00    5.80
   1   5 -14   -1.50    4.10
  -1   5  14    8.10    5.50
  -1  -5 -14   66.59   11.50
  -1  -5 -14   60.39    6.60
  -1   5 -14   53.49    6.30
  -1   5 -14   61.29    6.40
  -1   5 -14   67.09    5.20
  -1   5 -14   54.69    9.40
  -3  -5 -14    5.40    4.80
  -3  -5 -14  -15.60    8.50
  -3   5 -14    8.20    4.60
  -3   5 -14   -1.60    4.40
  -3   5 -14    8.10    3.40
   3   5  14   -7.10    6.90
  -3   5 -14   -5.20    7.60
  -5  -5 -14   68.99    7.40
  -5  -5 -14   54.99   11.90
  -5  -5 -14   66.09    8.20
  -5   5 -14   73.59    7.70
  -5   5 -14   91.69    6.80
  -5   5 -14   67.79   10.00
   8  -6 -14   21.30    5.30
   8  -6 -14   31.40    9.10
   8   6 -14   47.60   12.50
   8   6 -14   27.60    5.40
   6  -6 -14   46.40    6.20
   6  -6 -14   58.69    9.20
   6   6 -14   38.70    5.90
   6   6 -14   32.70    5.40
   6   6 -14   42.60    9.10
   4  -6 -14   63.99    6.50
   4  -6 -14   49.99    7.30
  -4   6  14   70.99    9.90
   4   6 -14   65.59    7.20
   4   6 -14   52.99    6.30
   4   6 -14   61.09    9.30
   2  -6 -14   85.29    8.00
   2   6 -14   94.59   10.60
   2   6 -14   93.99    7.30
   2   6 -14  124.89    8.50
   2   6 -14  104.09    6.60
   0  -6 -14    3.80    5.00
   0   6 -14    4.60    3.90
   0   6 -14    8.80    5.20
   0   6 -14    7.60    7.30
   0   6 -14   17.30    4.90
  -2  -6 -14   80.99    7.50
  -2   6 -14   86.49    8.40
  -2   6 -14   77.39    6.20
  -2   6 -14   84.99   12.50
  -2   6 -14   71.09    8.10
   5  -7 -14   29.50    6.10
   5  -7 -14   24.90    7.50
   3  -7 -14   21.60    6.10
   3  -7 -14   13.20    5.00
  -3   7  14   12.20   11.00
   3   7 -14   24.30    5.50
   3   7 -14   18.00    4.00
   3   7 -14   15.80    9.90
   1  -7 -14   -5.50    4.80
   1   7 -14    0.30    7.20
   1   7 -14    0.60    5.80
   1   7 -14   -3.40    3.60
   1   7 -14    7.50    9.00
  12   0 -15    6.60    8.60
  12   0 -15    3.50    4.70
  12   0 -15  -15.20   17.50
  10   0 -15   12.80    5.50
  10   0 -15    2.00   10.90
  10   0 -15    4.70    3.90
   8   0 -15    8.10    3.50
   8   0 -15  -14.70   10.20
   8   0 -15    7.70    4.50
   6   0 -15   -1.00    2.80
   6   0 -15   -3.00    3.10
   6   0 -15   -2.40    4.30
   6   0 -15    1.90    3.50
   6   0 -15    0.20    6.40
   4   0 -15   -0.50    2.90
   4   0 -15   -1.00    3.90
   4   0 -15   -3.00    7.30
   4   0 -15    3.00    2.70
   4   0 -15   -6.30    2.70
   2   0 -15   -0.40    3.40
   2   0 -15    2.00    3.40
   2   0 -15   -0.40    2.50
   2   0 -15   -1.60    6.20
   2   0 -15    1.70    2.80
   0   0 -15   -1.60    2.90
   0   0 -15    1.20    4.70
   0   0 -15    0.00    3.40
   0   0 -15    1.70    3.70
  -2   0 -15   -2.60    4.90
  -2   0 -15    2.30    3.20
  -2   0 -15    4.50    3.70
  -2   0 -15    3.90    4.00
  -4   0 -15   -3.40    5.00
  -4   0 -15   -1.30    4.60
  -4   0 -15   -0.50    6.80
  -4   0 -15   -8.90    4.20
  -6   0 -15    6.50    5.70
  -6   0 -15   -2.30    5.30
  -6   0 -15    2.60    4.30
  -6   0 -15  -12.60    8.30
  11  -1 -15   -8.00   14.70
  11  -1 -15    6.50    4.40
  11  -1 -15    2.20    7.80
  11   1 -15   15.10   11.70
  11   1 -15   -1.80    6.30
  11   1 -15   -2.50    3.70
   9  -1 -15  -10.20   10.10
   9  -1 -15    1.90    3.90
   9   1 -15   -5.00    4.80
   9   1 -15    4.70    4.10
   9   1 -15   -2.10   11.10
   7  -1 -15    6.00    8.50
   7  -1 -15    1.40    3.30
   7  -1 -15    2.20    4.20
   7   1 -15   -1.50    8.20
   7   1 -15   -1.70    3.10
   7   1 -15    7.40    4.10
   5  -1 -15   -4.90    3.20
   5  -1 -15    1.80    4.40
   5  -1 -15   -3.60    6.20
   5  -1 -15   -3.10    2.80
   5  -1 -15   -2.20    2.60
   5   1 -15   -0.50    3.10
   5   1 -15   -2.40    2.80
   5   1 -15   -4.10    2.70
   5   1 -15   -8.10    6.00
   5   1 -15    2.90    3.50
   3  -1 -15   -2.10    2.80
   3  -1 -15    1.90    3.40
   3  -1 -15    0.80    7.90
   3  -1 -15   -9.10    4.40
   3  -1 -15    0.70    2.50
   3   1 -15    2.90    3.30
   3   1 -15    4.90    3.00
   3   1 -15    2.10    2.50
   3   1 -15    0.00    2.60
   3   1 -15   -6.10    6.10
   1  -1 -15   91.49   11.40
   1  -1 -15  101.89    5.80
   1  -1 -15   91.79    7.40
   1  -1 -15   87.69    6.30
   1   1 -15   85.39    5.50
   1   1 -15  108.29    6.50
   1   1 -15   93.49    6.40
   1   1 -15   98.79    5.60
   1   1 -15  100.29   10.00
  -1  -1 -15   86.39   10.30
  -1  -1 -15   76.39    7.30
  -1  -1 -15   83.29    5.60
  -1  -1 -15   68.99    6.20
  -1   1 -15   77.59    7.80
  -1   1 -15   77.49    6.00
  -1   1 -15   79.19    4.80
  -1   1 -15   78.89    6.20
  -1   1 -15   87.79    5.70
  -3  -1 -15    9.90    5.90
  -3  -1 -15   -2.20    4.30
  -3  -1 -15    4.60    5.00
  -3  -1 -15    7.90    3.50
  -3   1 -15   -4.00    5.90
  -3   1 -15    0.10    3.30
  -3   1 -15    7.60    4.10
  -3   1 -15   10.70    4.60
  -5  -1 -15    7.50    4.90
  -5  -1 -15    3.60    8.10
  -5  -1 -15   -2.70    5.70
  -5  -1 -15   -0.50    4.50
  -5   1 -15   -1.20    4.90
  -5   1 -15   -0.60    4.80
  -5   1 -15   -0.60    4.20
  -5   1 -15   -9.70    8.30
  -7  -1 -15   40.60    7.00
  -7  -1 -15    6.50    8.20
  -7   1 -15    1.80   11.70
  12  -2 -15   -0.30   17.20
  12  -2 -15   11.40    4.10
  12  -2 -15   -3.90   10.30
  12   2 -15   14.20   16.00
  12   2 -15   14.00    4.30
  10  -2 -15   12.60    6.80
  10  -2 -15  -23.10   13.90
  10  -2 -15    0.00    3.90
  10   2 -15   -7.00   10.40
  10   2 -15    0.40    5.80
  10   2 -15    1.80    3.60
   8  -2 -15   -2.90    5.10
   8  -2 -15   -3.80   10.30
   8  -2 -15    2.70    3.60
   8   2 -15   -2.70    3.90
   8   2 -15    4.10    9.20
   8   2 -15   -5.10    3.50
   6  -2 -15    7.20    3.20
   6  -2 -15    4.70    4.40
   6  -2 -15   -1.50    8.90
   6   2 -15    1.90    7.20
   6   2 -15   -2.70    3.20
   6   2 -15   -0.10    3.10
   4  -2 -15   76.99    8.00
   4  -2 -15   54.69    5.50
   4  -2 -15   53.79    5.60
   4  -2 -15   73.09    9.90
   4   2 -15   64.29    4.70
   4   2 -15   55.09    4.80
   4   2 -15   68.59    5.20
   4   2 -15   64.19    5.20
   4   2 -15   47.10    8.90
   2  -2 -15   -1.20    3.60
   2  -2 -15   -6.40    4.70
   2  -2 -15   -5.50    8.30
   2  -2 -15   -4.90    3.00
   2   2 -15    0.60    2.50
   2   2 -15    4.30    6.40
   2   2 -15    2.00    3.00
   2   2 -15   -0.30    3.50
   2   2 -15    2.40    3.00
   0  -2 -15   10.80    4.10
   0  -2 -15   10.20    5.50
   0  -2 -15   15.60    4.20
   0  -2 -15   21.30    7.80
   0   2 -15   13.00    3.60
   0   2 -15    9.30    5.20
   0   2 -15   12.90    3.00
   0   2 -15    5.60    3.80
   0   2 -15    7.60    3.00
  -2  -2 -15    2.50    8.40
  -2  -2 -15   16.30    4.70
  -2  -2 -15    5.10    5.80
  -2  -2 -15   10.10    3.60
  -2   2 -15    8.80    4.60
  -2   2 -15   20.10    4.20
  -2   2 -15   19.60    6.10
  -2   2 -15   15.30    3.50
  -4  -2 -15   -2.50    6.10
  -4  -2 -15   -1.80    4.50
  -4  -2 -15   -1.00    4.70
  -4  -2 -15    5.40    6.70
  -4   2 -15    2.20    3.20
  -4   2 -15    1.70    4.50
  -4   2 -15   -2.00    3.10
  -4   2 -15  -11.60    7.30
  -6  -2 -15   16.90    8.60
  -6  -2 -15    2.10    4.70
  -6  -2 -15   -0.10    5.30
  -6  -2 -15   12.20    7.70
  -6   2 -15    9.10    6.20
  -6   2 -15   19.40   10.30
  -6   2 -15   -0.40    4.40
  11  -3 -15    0.40    4.20
  11  -3 -15    8.00    8.70
  11  -3 -15    7.40   16.80
  11   3 -15    3.60    4.10
  11   3 -15   -8.40    7.10
  11   3 -15    4.40   13.30
   9  -3 -15    3.80    4.00
   9  -3 -15    9.90    6.50
   9  -3 -15    0.90   14.70
   9   3 -15   -6.20    9.90
   9   3 -15    2.50    3.90
   9   3 -15   -0.50    4.90
   7  -3 -15    3.90    5.20
   7  -3 -15   -7.40   10.30
   7  -3 -15   -4.50    2.80
   7   3 -15    4.40    3.70
   7   3 -15    1.00    7.70
   7   3 -15   -3.10    3.60
   5  -3 -15   49.00   10.60
   5  -3 -15   57.39    5.70
   5  -3 -15   53.09    6.30
   5   3 -15   72.29    5.50
   5   3 -15   51.09    4.60
   5   3 -15   76.59    5.90
   5   3 -15   82.09   12.00
   3  -3 -15   18.60    7.10
   3  -3 -15   33.90    6.20
   3  -3 -15   23.40    4.80
   3  -3 -15   19.40    3.80
   3   3 -15   18.20    3.60
   3   3 -15   19.70    6.40
   3   3 -15   21.60    3.70
   3   3 -15   28.20    3.80
   3   3 -15   15.60    3.60
   1  -3 -15   42.40    5.30
   1  -3 -15   40.10    8.20
   1  -3 -15   48.50    8.30
   1   3 -15   43.90    4.20
   1   3 -15   48.20    5.10
   1   3 -15   48.60    4.90
   1   3 -15   59.19    7.60
  -1  -3 -15   60.59    8.30
  -1  -3 -15   75.09    6.40
  -1  -3 -15   68.99    6.00
  -1  -3 -15   62.39   11.50
  -1   3 -15   74.29    5.20
  -1   3 -15   89.69    9.40
  -1   3 -15   70.29    5.70
  -1   3 -15   70.59    6.10
  -3  -3 -15   43.00    7.70
  -3  -3 -15   40.20    5.80
  -3   3 -15   41.50    7.30
  -3   3 -15   46.30    4.90
  -3   3 -15   47.30    5.20
  -3   3 -15   48.60    6.10
  -5  -3 -15   -1.30    4.50
  -5  -3 -15   -5.60    4.70
  -5  -3 -15   16.70    8.30
  -5   3 -15  -10.90    9.40
  -5   3 -15    4.30    3.70
  -5   3 -15   -3.80    4.20
  -5   3 -15   -4.90    5.30
  10  -4 -15   -3.20    8.10
  10  -4 -15    3.30    4.50
  10   4 -15    9.20    4.60
  10   4 -15   12.70   11.50
  10   4 -15    8.40    6.50
   8  -4 -15    7.50    6.50
   8  -4 -15    6.80    4.00
   8  -4 -15   16.10   15.40
   8   4 -15    7.30    4.30
   8   4 -15    0.80    4.50
   8   4 -15   14.80   10.10
   6  -4 -15    6.00    5.20
   6  -4 -15    5.80   10.70
   6  -4 -15    3.20    3.80
   6   4 -15   11.90    7.60
   6   4 -15   -1.00    3.70
   6   4 -15    8.50    3.90
   4  -4 -15   18.80    4.70
   4  -4 -15   18.30    4.50
   4  -4 -15   32.80   14.00
   4   4 -15   15.10    3.80
   4   4 -15   12.60    3.50
   4   4 -15   17.20    3.80
   4   4 -15    9.40    3.40
   4   4 -15   19.10    7.80
   2  -4 -15    0.40    9.90
   2  -4 -15   10.20    6.70
   2  -4 -15   -3.00    4.20
   2   4 -15   -0.50    3.50
   2   4 -15    3.30    3.20
   2   4 -15    2.10    5.80
   2   4 -15   -0.50    3.30
   0  -4 -15    9.80    4.40
   0  -4 -15   17.10    7.40
   0   4 -15   13.10    3.30
   0   4 -15   -2.40    5.70
   0   4 -15    9.50    4.10
   0   4 -15    6.40    4.00
  -2  -4 -15    4.50    4.60
  -2  -4 -15   -1.50    7.70
  -2  -4 -15   -7.40    4.50
  -2   4 -15   -4.50    4.50
  -2   4 -15    3.50    2.90
  -2   4 -15    3.50    7.00
  -2   4 -15    3.50    4.00
  -4  -4 -15    3.90    8.60
  -4  -4 -15    0.00    5.10
  -4  -4 -15    2.30    5.30
  -4   4 -15    1.10    8.30
  -4   4 -15   10.40    5.50
  -4   4 -15    6.30    4.00
   7  -5 -15   -0.10    4.50
   7  -5 -15  -27.40   19.70
   7  -5 -15   14.30    7.40
   7   5 -15    3.70    4.50
   7   5 -15    8.80    9.80
   7   5 -15   11.00    5.00
   5  -5 -15    0.30    4.40
   5  -5 -15    4.20   11.40
   5  -5 -15    9.70    6.40
   5   5 -15    7.20    3.70
   5   5 -15    2.50    4.20
   5   5 -15   -6.20    7.60
   5   5 -15    7.50    4.10
   3  -5 -15   77.89    7.20
   3   5 -15   77.69    6.60
   3   5 -15   94.09   11.50
   3   5 -15   83.99    6.10
   3   5 -15   79.49    7.20
   1  -5 -15   -6.90    4.10
  -1   5  15   -3.30    6.30
   1   5 -15    4.50    4.50
   1   5 -15    5.90    3.40
   1   5 -15    2.40    6.80
   1   5 -15    5.70    4.80
  -1  -5 -15   -2.20    4.60
  -1  -5 -15    1.40    8.80
  -1   5 -15   -6.10    3.00
  -1   5 -15   -2.50    5.10
  -1   5 -15    5.60    4.90
   1   5  15    1.10    6.30
  -1   5 -15   13.20    7.20
  -3  -5 -15    5.60    5.60
  -3  -5 -15    0.10   11.50
  -3   5 -15   -4.60    3.70
  -3   5 -15   -7.00    5.90
  -3   5 -15   -2.10    5.00
  -3   5 -15   -6.40    8.50
   6  -6 -15    1.80    5.40
   6  -6 -15   -0.40    7.60
   6   6 -15    2.90    5.80
   6   6 -15    2.50    4.80
   4  -6 -15    4.30    5.90
   4  -6 -15   10.40    4.80
  -4   6  15   -9.20    8.50
   4   6 -15   -2.30    9.30
   4   6 -15   -1.90    5.00
   4   6 -15   -0.80    5.60
   2  -6 -15    2.60    4.00
   2   6 -15   -1.70    3.30
  -2   6  15    3.40    7.70
   2   6 -15   -2.60    5.80
   2   6 -15   -7.70    7.40
   0  -6 -15   38.50    6.40
   0   6 -15   44.40    5.10
   0   6  15   25.60    8.50
   0   6 -15   51.39    7.60
   0   6 -15   22.90    5.20
   0   6 -15   32.80    8.10
  -2  -6 -15    2.50    4.80
  -2   6 -15    1.50    3.10
  -2   6 -15   10.40    6.30
  -2   6 -15   -5.90    6.00
  12   0 -16   45.30    5.90
  10   0 -16   -7.90    6.10
  10   0 -16   -7.50   12.30
  10   0 -16   -0.30    3.80
   8   0 -16   96.79   15.40
   8   0 -16   76.59    7.50
   8   0 -16   84.79    6.10
   6   0 -16    7.00    3.10
   6   0 -16    9.50    7.30
   6   0 -16    9.50    3.40
   6   0 -16   10.40    4.10
   6   0 -16   16.20    5.10
   4   0 -16   10.50    2.80
   4   0 -16   19.30    4.90
   4   0 -16    9.70    3.50
   4   0 -16   11.50    3.30
   4   0 -16   22.50    8.70
   2   0 -16  104.39    7.90
   2   0 -16   96.19    7.00
   2   0 -16  102.19    5.80
   2   0 -16  120.29   11.90
   2   0 -16  107.39    6.20
   0   0 -16   98.49    6.00
   0   0 -16   87.99    7.60
   0   0 -16   72.29   11.20
   0   0 -16   95.79    6.60
  -2   0 -16  156.98    9.50
  -2   0 -16  152.88    8.30
  -2   0 -16  160.98    9.10
  -2   0 -16  142.29   11.10
  -4   0 -16    3.20    3.30
  -4   0 -16    3.10    5.60
  -4   0 -16  -10.20    8.50
  -4   0 -16   14.50    5.40
  -6   0 -16    0.80   12.20
  -6   0 -16   11.60    5.70
  -6   0 -16   -2.20    5.50
  -6   0 -16   -5.20    4.40
  11  -1 -16   -0.40    8.40
  11  -1 -16    6.20    4.10
  11  -1 -16  -18.90   17.00
  11   1 -16  -13.10   13.50
  11   1 -16    9.80    7.80
  11   1 -16    5.80    4.70
   9  -1 -16  110.49   17.40
   9  -1 -16   80.59    8.50
   9  -1 -16   84.49    6.50
   9   1 -16   96.69   14.40
   9   1 -16   87.09    6.40
   9   1 -16   94.39    8.40
   7  -1 -16   -4.40    3.20
   7  -1 -16   -0.90   10.30
   7   1 -16    2.60    4.50
   7   1 -16   -2.60    3.60
   7   1 -16    4.50    9.20
   5  -1 -16   98.19    6.80
   5  -1 -16  114.29    9.40
   5  -1 -16  125.89    6.00
   5  -1 -16  108.59    7.10
   5  -1 -16  129.39   11.80
   5   1 -16  122.59    6.40
   5   1 -16  131.59   12.30
   5   1 -16  113.79    7.90
   5   1 -16  114.29    6.90
   5   1 -16  112.09    6.90
   3  -1 -16   -2.20    8.90
   3  -1 -16   -4.00    3.00
   3  -1 -16   -1.60    3.30
   3  -1 -16    4.30    3.20
   3   1 -16    5.20    3.80
   3   1 -16   -9.20    7.10
   3   1 -16    3.40    3.90
   3   1 -16    0.90    3.00
   3   1 -16    2.60    3.20
   1  -1 -16  116.49    6.30
   1  -1 -16  117.59   12.50
   1  -1 -16  104.59    7.10
   1  -1 -16  116.59    8.40
   1   1 -16  118.09   11.70
   1   1 -16  108.79    6.20
   1   1 -16  105.39    7.10
   1   1 -16   99.89    6.20
   1   1 -16  117.59    7.40
  -1  -1 -16    6.20    3.40
  -1  -1 -16  -10.70    8.30
  -1  -1 -16    6.50    5.30
  -1  -1 -16   -1.10    4.70
  -1   1 -16    9.10    2.90
  -1   1 -16    5.10    5.80
  -1   1 -16    5.10    4.50
  -1   1 -16    8.20    4.20
  -3  -1 -16   73.69    8.80
  -3  -1 -16   74.09    6.90
  -3  -1 -16   58.89    9.90
  -3  -1 -16   61.69    5.90
  -3   1 -16   74.19   11.10
  -3   1 -16   68.29    5.60
  -3   1 -16   72.39    7.10
  -3   1 -16   82.79    7.50
  -5  -1 -16   -0.90    7.90
  -5  -1 -16   14.40    7.30
  -5  -1 -16    9.60    5.30
  -5  -1 -16    9.60    4.60
  -5   1 -16    6.80    5.40
  -5   1 -16   11.70    6.00
  -5   1 -16   -2.40    4.60
  -5   1 -16    8.40    8.70
  10  -2 -16   18.10   13.40
  10  -2 -16   -2.20    3.80
  10  -2 -16    5.10    7.50
  10   2 -16    5.90   12.10
  10   2 -16   -9.10    6.30
  10   2 -16   -0.80    4.40
   8  -2 -16   13.20    5.80
   8  -2 -16   20.70    4.10
   8  -2 -16   11.90   11.20
   8   2 -16   12.10    4.80
   8   2 -16   18.20    4.30
   8   2 -16   24.90   11.00
   6  -2 -16  111.39   16.00
   6  -2 -16   79.59    6.30
   6  -2 -16   91.19    7.70
   6   2 -16   95.89    7.10
   6   2 -16   93.89    6.30
   6   2 -16  114.29   13.10
   4  -2 -16   19.20    7.40
   4  -2 -16   -0.70    4.10
   4  -2 -16    2.00    5.60
   4  -2 -16    4.20    3.60
   4   2 -16   -1.90    3.60
   4   2 -16   -1.30    3.50
   4   2 -16   -2.00    6.50
   4   2 -16    4.80    3.30
   4   2 -16   -1.20    3.00
   2  -2 -16  101.19    9.60
   2  -2 -16  101.79   13.90
   2  -2 -16  108.19    7.20
   2  -2 -16  106.69    5.90
   2   2 -16   97.69    7.00
   2   2 -16  111.29    6.40
   2   2 -16   95.19    6.00
   2   2 -16  110.39    6.90
   2   2 -16   98.29   10.70
   0  -2 -16   29.80    4.10
   0  -2 -16   49.10    9.70
   0  -2 -16   39.40    5.30
   0  -2 -16   26.60    6.30
   0   2 -16   34.20    6.60
   0   2 -16   43.70    5.40
   0   2 -16   36.50    4.30
   0   2 -16   43.50    5.70
   0   2 -16   23.80    4.30
  -2  -2 -16   73.09    6.10
  -2  -2 -16   62.79    6.30
  -2  -2 -16   47.20    7.60
  -2  -2 -16   43.10   10.20
  -2   2 -16   52.29    6.40
  -2   2 -16   62.59    6.90
  -2   2 -16   60.29    5.00
  -2   2 -16   65.19    5.50
  -2   2 -16   86.49   10.80
  -4  -2 -16    0.70    4.90
  -4  -2 -16    1.40    7.30
  -4  -2 -16   -2.50    6.60
  -4  -2 -16   -9.20    5.40
  -4   2 -16    5.80    3.50
  -4   2 -16   -3.90    5.40
  -4   2 -16   -7.30    8.00
  -6  -2 -16   89.09    8.20
  -6  -2 -16   97.39    8.30
  -6   2 -16   86.39    7.50
  11  -3 -16    0.00   10.60
  11  -3 -16   -0.90    6.50
  11   3 -16    5.10    4.40
   9  -3 -16   24.20   13.50
   9  -3 -16   13.10    4.50
   9  -3 -16   13.70    7.60
   9   3 -16   17.50    5.80
   9   3 -16   10.90    4.30
   9   3 -16    4.70   11.60
   7  -3 -16   -2.30    5.90
   7  -3 -16    4.40    3.50
   7  -3 -16   18.00   11.50
   7   3 -16    0.60    4.20
   7   3 -16    4.20    3.80
   7   3 -16   14.80    8.90
   5  -3 -16   72.69    6.10
   5  -3 -16   70.29   12.50
   5  -3 -16   69.29    7.20
   5   3 -16   66.29    5.30
   5   3 -16   79.49    5.80
   5   3 -16   80.39    6.00
   5   3 -16   71.69    6.60
   3  -3 -16   11.70    8.30
   3  -3 -16    6.20    6.90
   3  -3 -16    2.70    4.20
   3  -3 -16   -3.60    3.90
   3   3 -16    1.10    3.30
   3   3 -16    2.00    3.30
   3   3 -16    6.40    7.50
   3   3 -16   -2.70    3.70
   3   3 -16    1.90    3.70
   1  -3 -16   27.20    9.50
   1  -3 -16   45.70    5.20
   1  -3 -16   49.30    7.50
   1   3 -16   55.29    5.30
   1   3 -16   41.00    6.30
   1   3 -16   46.90    4.60
   1   3 -16   64.79    8.70
  -1  -3 -16   39.10    5.70
  -1  -3 -16   31.40    7.90
  -1  -3 -16   25.70    4.80
  -1   3 -16   29.50    4.10
  -1   3 -16   27.70    6.60
  -1   3 -16   24.00    4.60
  -3  -3 -16   74.39    7.00
  -3  -3 -16   73.79    7.10
  -3  -3 -16   92.39   12.10
  -3  -3 -16   81.89   15.40
  -3   3 -16   69.99    7.50
  -3   3 -16   75.89   11.10
  -3   3 -16   82.59    6.30
  -3   3 -16   77.79    6.30
  -5  -3 -16   -1.80    6.40
  -5  -3 -16   17.60    5.20
  -5  -3 -16    9.10    5.10
  -5   3 -16   10.20    3.90
  -5   3 -16    2.50   10.20
  -5   3 -16    7.90    4.90
  10  -4 -16   23.20    9.30
  10   4 -16   29.50    5.60
   8  -4 -16    3.90    3.90
   8  -4 -16   11.10    7.20
   8  -4 -16   14.00   17.80
   8   4 -16    9.50    5.30
   8   4 -16   14.00    5.10
   8   4 -16   17.20   11.70
   6  -4 -16    7.30   12.90
   6  -4 -16    8.00    4.30
   6  -4 -16   13.00    5.90
   6   4 -16    4.70    4.70
   6   4 -16   -0.40    8.70
   6   4 -16    7.70    4.40
   4  -4 -16  163.18   10.00
   4  -4 -16  208.18   20.80
   4  -4 -16  170.28    9.70
   4   4 -16  149.49    8.60
   4   4 -16  166.78    9.70
   4   4 -16  166.28    9.10
   4   4 -16  175.68    8.90
   4   4 -16  176.28   14.60
   2  -4 -16   21.10   11.80
   2  -4 -16   31.90    8.40
   2  -4 -16   37.60    6.00
   2   4 -16   58.99    9.00
   2   4 -16   35.90    5.80
   2   4 -16   41.20    4.80
   0  -4 -16    2.50    4.40
   0  -4 -16    0.20    8.10
   0   4 -16   -0.20    3.10
   0   4 -16   -8.20    6.80
   0   4 -16   -3.70    4.30
   0   4 -16    0.00    4.00
  -2  -4 -16   20.60    5.00
  -2  -4 -16   23.10    8.90
  -2  -4 -16   19.80    4.90
  -2   4 -16   20.30    4.30
  -2   4 -16   19.10    5.00
  -2   4 -16   14.50    8.10
  -2   4 -16   17.40    5.00
  -4  -4 -16  -10.70    5.30
  -4   4 -16   -3.40    3.90
  -4   4 -16    4.90   10.30
   5  -5 -16   35.40    7.30
   5  -5 -16   23.20    5.50
   5  -5 -16   10.40   13.50
   5   5 -16   15.70    4.60
   5   5 -16   25.50    5.50
   5   5 -16   34.00    5.40
   5   5 -16   26.40   10.70
   3  -5 -16   20.20    5.60
   3   5 -16   22.90    4.50
   3   5 -16   41.10    8.80
   3   5 -16   21.60    4.00
   3   5 -16   22.00    5.20
   1  -5 -16   63.99    7.20
   1   5 -16   82.39    6.50
   1   5 -16   99.09   11.20
   1   5 -16   88.89    7.90
   1   5 -16   83.09    7.90
  -1  -5 -16    5.30    5.00
  -1  -5 -16   10.80   10.70
  -1   5 -16   -3.80    5.30
  -1   5 -16    7.00    8.80
  -1   5 -16    7.50    6.20
   1   5  16   14.80    8.30
  -1   5 -16    3.00    3.70
   4  -6 -16    5.20    5.00
   4  -6 -16   13.50    6.50
   4   6 -16   -2.40    3.70
   4   6 -16   13.10    6.40
   4   6 -16   -4.70    5.10
   2  -6 -16   16.60    5.20
   2   6 -16   32.80    7.00
   2   6 -16   13.00    3.70
   2   6 -16   20.80    6.30
  10   0 -17   11.60   13.40
  10   0 -17    5.20    4.20
  10   0 -17   -3.50    7.10
   8   0 -17   -5.90    3.90
   8   0 -17    1.20   11.30
   8   0 -17    0.50    5.30
   6   0 -17    1.10    3.20
   6   0 -17    3.20    3.50
   6   0 -17   -2.90    8.30
   6   0 -17    0.50    5.70
   6   0 -17    6.70    4.60
   4   0 -17   -7.90   10.10
   4   0 -17   -0.90    2.80
   4   0 -17    6.30    3.60
   4   0 -17   -0.30    3.50
   4   0 -17   -5.80    5.10
   2   0 -17    9.70    3.40
   2   0 -17   -1.00    4.00
   2   0 -17    0.00    3.10
   2   0 -17   -1.40    8.50
   0   0 -17   -9.10    4.80
   0   0 -17    6.20    3.50
   0   0 -17    5.90    4.40
  -2   0 -17    5.70    3.70
  -2   0 -17    2.80    5.50
  -2   0 -17   -6.80    7.10
  -2   0 -17    4.80    4.70
  -4   0 -17    0.90    3.80
  -4   0 -17    2.50    7.10
  -4   0 -17   -3.10    4.80
  -4   0 -17    7.50    8.50
  11  -1 -17   13.10    4.70
  11  -1 -17   20.90   10.70
  11   1 -17   -7.40    6.00
  11   1 -17    4.90    4.50
   9  -1 -17    7.50    4.20
   9  -1 -17    8.70   13.30
   9  -1 -17   13.70    6.70
   9   1 -17   17.30    4.20
   9   1 -17   18.20    6.30
   9   1 -17   17.40   14.50
   7  -1 -17    1.90    6.50
   7  -1 -17   -4.80   11.70
   7  -1 -17    5.30    5.20
   7  -1 -17    7.10    3.80
   7   1 -17    9.80   10.80
   7   1 -17    7.00    4.30
   7   1 -17   11.10    5.10
   7   1 -17    0.20    3.40
   5  -1 -17    1.20    3.70
   5  -1 -17   -2.00    3.10
   5  -1 -17   15.90    8.00
   5  -1 -17    2.80    4.30
   5  -1 -17    2.50    5.90
   5   1 -17    5.40    4.90
   5   1 -17   -3.60    3.20
   5   1 -17    2.80    3.90
   5   1 -17    5.30    8.40
   5   1 -17   -1.90    3.30
   3  -1 -17   30.20   10.70
   3  -1 -17    9.90    5.80
   3  -1 -17   13.40    4.70
   3  -1 -17   13.00    3.50
   3  -1 -17   17.80    3.70
   3   1 -17   22.70    7.90
   3   1 -17   16.90    3.60
   3   1 -17   16.40    4.40
   3   1 -17   11.40    4.70
   3   1 -17   14.60    3.10
   1  -1 -17    6.30    4.70
   1  -1 -17   -3.80    9.40
   1  -1 -17    6.80    5.60
   1  -1 -17    4.20    3.50
   1   1 -17    9.30    3.10
   1   1 -17    3.80    4.40
   1   1 -17    1.10    3.00
   1   1 -17    2.40    4.60
  -1  -1 -17    1.00    3.90
  -1  -1 -17   -3.20    5.70
  -1  -1 -17  -15.40    9.40
  -1  -1 -17   -0.20    4.80
  -1   1 -17   -4.60    6.70
  -1   1 -17    3.00    4.90
  -1   1 -17   -4.30    5.00
  -1   1 -17   -7.10    3.70
  -3  -1 -17   51.99    6.80
  -3  -1 -17   39.80    5.60
  -3  -1 -17   32.00    7.80
  -3   1 -17   57.99    5.60
  -3   1 -17   51.09    7.00
  -3   1 -17   62.49   10.30
  -5  -1 -17   17.70    5.00
  -5  -1 -17   12.00    6.30
  -5   1 -17    9.10    4.00
  -5   1 -17   21.30    6.40
  10  -2 -17   20.70   15.70
  10  -2 -17    2.00    3.90
  10  -2 -17   -3.50    8.50
  10   2 -17    5.90   12.90
  10   2 -17   10.20    8.40
  10   2 -17   -1.90    4.30
   8  -2 -17   32.30   14.10
   8  -2 -17   13.80    6.60
   8  -2 -17   18.80    4.40
   8   2 -17   10.30    4.30
   8   2 -17   19.50   12.20
   6  -2 -17    1.10    7.10
   6  -2 -17   -1.20    3.70
   6  -2 -17    3.20   12.50
   6  -2 -17   -3.40    5.30
   6   2 -17   -1.20    4.50
   6   2 -17    3.80    4.10
   6   2 -17   -7.10    3.40
   6   2 -17   -3.80    9.20
   4  -2 -17   17.40    8.70
   4  -2 -17    5.50    4.40
   4  -2 -17    2.20    6.80
   4  -2 -17   -0.60    3.90
   4   2 -17    4.20    4.50
   4   2 -17    4.00    3.70
   4   2 -17    3.40    3.20
   4   2 -17    6.00    7.40
   4   2 -17    0.40    3.50
   2  -2 -17  -16.60   12.20
   2  -2 -17    5.50    6.40
   2  -2 -17   -2.50    3.50
   2  -2 -17   -2.60    4.40
   2   2 -17    6.60    4.40
   2   2 -17    1.40    3.60
   2   2 -17    5.70    8.20
   2   2 -17    6.80    3.20
   2   2 -17   -0.60    4.40
   0  -2 -17    6.00    3.40
   0  -2 -17   -3.70    3.80
   0  -2 -17   -5.80    6.90
   0   2 -17   -1.90    3.30
   0   2 -17   -2.60    6.70
   0   2 -17   -2.30    4.40
   0   2 -17    3.60    3.30
   0   2 -17    3.70    4.60
  -2  -2 -17   39.00   11.70
  -2  -2 -17   52.29    6.60
  -2  -2 -17   51.39    6.10
  -2  -2 -17   50.09    8.70
  -2   2 -17   70.59   10.00
  -2   2 -17   57.39    7.60
  -2   2 -17   36.90    6.50
  -2   2 -17   65.29    5.70
  -2   2 -17   53.69    5.20
  -4  -2 -17    0.40    5.70
  -4  -2 -17    3.60    5.30
  -4  -2 -17    0.80    7.30
  -4   2 -17   -2.70    3.70
  -4   2 -17   -9.30    6.00
  -4   2 -17   -0.10    9.40
   9  -3 -17  -13.00    8.10
   9  -3 -17    1.20    4.20
   9  -3 -17   16.80   15.80
   9   3 -17  -19.90   13.40
   9   3 -17   -6.70    4.30
   7  -3 -17   22.20    5.00
   7  -3 -17   32.80   14.00
   7  -3 -17   23.90    6.90
   7   3 -17   23.30    4.60
   7   3 -17   31.40   10.60
   7   3 -17   23.10    5.20
   5  -3 -17   35.80   14.20
   5  -3 -17   27.20    5.00
   5  -3 -17   29.70    5.80
   5   3 -17   29.50    4.90
   5   3 -17   43.00   10.90
   5   3 -17   35.30    4.60
   5   3 -17   45.70    6.10
   5   3 -17   35.70    6.10
   3  -3 -17    1.40    4.60
   3  -3 -17    9.50    9.10
   3  -3 -17   -9.50    7.50
   3   3 -17    1.00    4.30
   3   3 -17   -1.40    4.20
   3   3 -17   -1.50    9.50
   3   3 -17    1.70    3.40
   3   3 -17   -6.30    4.50
   1  -3 -17    2.30    4.30
   1  -3 -17   -3.90   10.60
   1  -3 -17   -0.50    7.20
   1   3 -17    0.50    3.10
   1   3 -17   11.30    7.00
   1   3 -17   -5.10    3.90
   1   3 -17   -2.70    4.50
  -1  -3 -17   -3.80    8.60
  -1  -3 -17   -0.50    4.80
  -1  -3 -17   -2.40    8.20
  -1  -3 -17    3.60    4.90
  -1   3 -17   -0.70    3.90
  -1   3 -17    0.70    3.60
  -1   3 -17   -3.60    7.40
  -1   3 -17   -1.30    5.10
  -3  -3 -17  -16.80    8.90
  -3  -3 -17    4.00    5.20
  -3  -3 -17    3.80    5.00
  -3   3 -17   13.40    4.20
  -3   3 -17    8.50    9.30
  -3   3 -17   12.60    6.80
   8  -4 -17   15.90    8.10
   8  -4 -17   -0.20    4.10
   8   4 -17    9.80    6.50
   8   4 -17    9.60    4.70
   8   4 -17   -9.20   13.30
   6  -4 -17    2.40   15.00
   6  -4 -17    5.80    4.60
   6  -4 -17    6.90    6.40
   6   4 -17    2.00    4.10
   6   4 -17   -1.70    5.40
   6   4 -17   -8.70   10.00
   4  -4 -17   16.30    5.70
   4  -4 -17   20.00   14.40
   4  -4 -17   18.80    5.70
   4   4 -17   39.20   10.30
   4   4 -17   23.50    4.90
   4   4 -17   20.90    4.70
   4   4 -17   18.40    3.70
   4   4 -17   19.40    4.60
   2  -4 -17    3.90    4.60
   2  -4 -17   13.10    9.00
   2  -4 -17   11.30   13.50
   2   4 -17   -9.40    9.40
   2   4 -17    1.40    3.70
   2   4 -17   -5.10    4.40
   2   4 -17   -6.50    4.50
   0  -4 -17    1.60    4.90
   0  -4 -17   -3.10    9.50
   0   4 -17    9.00    5.00
   0   4 -17   -7.20    8.00
   0   4 -17    0.00    4.60
   0   4 -17   -3.00    3.20
  -2  -4 -17    4.50    5.20
  -2  -4 -17   -0.80    4.90
  -2   4 -17   -1.90    3.70
  -2   4 -17   -3.20    5.50
  -2   4 -17    6.00    6.50
  -2   4 -17   -1.60    9.20
   5  -5 -17   -5.60    4.90
   5  -5 -17    8.60    7.60
   5   5 -17    6.50   11.60
   5   5 -17    4.10    5.20
   5   5 -17    7.90    3.70
   3  -5 -17    4.40    4.80
   3   5 -17   15.40   10.40
   3   5 -17   12.10    4.90
   3   5 -17    9.20    3.90
   3   5 -17   -2.90    5.10
   1  -5 -17    4.50    8.30
   1  -5 -17   -4.40    4.90
   1   5 -17    4.10    5.20
   1   5 -17    7.80    5.40
   1   5 -17    3.90    3.60
   1   5 -17   -2.20    8.60
  10   0 -18   23.60    4.90
  10   0 -18   11.90    8.30
   8   0 -18   18.50    4.60
   8   0 -18   21.00   13.00
   8   0 -18   15.50    3.90
   8   0 -18    0.70    6.20
   6   0 -18    0.40    3.60
   6   0 -18   -4.00    5.00
   6   0 -18   -8.00    3.70
   6   0 -18   -7.70    6.50
   6   0 -18    7.00    9.70
   4   0 -18    6.90    6.70
   4   0 -18    5.20    4.60
   4   0 -18    1.80    9.40
   4   0 -18    5.00    3.20
   4   0 -18   10.50    4.30
   2   0 -18   -1.60    3.90
   2   0 -18   -6.60    8.80
   2   0 -18   -2.40    5.80
   2   0 -18    3.70    3.40
   2   0 -18    5.50    5.00
   0   0 -18   94.59    7.60
   0   0 -18  102.49    9.70
   0   0 -18  121.79   15.20
   0   0 -18  112.89    6.90
  -2   0 -18   11.10    6.80
  -2   0 -18   15.90    4.30
  -2   0 -18   16.60    8.70
  -2   0 -18    7.50    5.40
  -4   0 -18   15.20    5.90
  -4   0 -18   12.10    4.40
   9  -1 -18    7.20    4.20
   9  -1 -18   26.10   15.40
   9  -1 -18   18.20    7.20
   9   1 -18    5.30    4.00
   9   1 -18    2.90    6.80
   9   1 -18    8.10   16.60
   7  -1 -18   36.20   13.80
   7  -1 -18   43.60    7.80
   7  -1 -18   37.60    5.00
   7  -1 -18   29.80    6.20
   7   1 -18   40.80    5.40
   7   1 -18   27.70    7.10
   7   1 -18   35.30    5.90
   7   1 -18   47.20   12.50
   7   1 -18   40.80    5.00
   5  -1 -18    1.80    3.90
   5  -1 -18   15.30    5.00
   5  -1 -18    9.40    3.30
   5  -1 -18   19.90    9.50
   5  -1 -18   12.70    6.90
   5   1 -18   16.80    3.90
   5   1 -18   10.20    5.00
   5   1 -18    6.10    9.50
   5   1 -18    4.90    4.20
   5   1 -18   23.60    6.00
   3  -1 -18   -2.70    3.70
   3  -1 -18    4.60    4.70
   3  -1 -18    1.20    6.80
   3  -1 -18  -11.80   12.80
   3  -1 -18    6.70    4.40
   3   1 -18    3.10    3.70
   3   1 -18   10.50    5.50
   3   1 -18  -14.90    8.40
   3   1 -18    1.80    3.40
   3   1 -18    1.90    4.60
   1  -1 -18   74.39   10.00
   1  -1 -18   68.19    6.70
   1  -1 -18   73.59    5.70
   1  -1 -18   49.70   10.50
   1   1 -18   73.09    5.90
   1   1 -18   72.99   10.90
   1   1 -18   78.39    5.70
   1   1 -18   82.59    8.30
   1   1 -18   58.99    6.20
  -1  -1 -18   56.29    6.40
  -1  -1 -18   46.20   11.90
  -1  -1 -18   60.49   10.10
  -1  -1 -18   67.49    7.00
  -1   1 -18   82.19   11.20
  -1   1 -18   63.99    5.90
  -1   1 -18   64.29    8.20
  -1   1 -18   68.99    7.30
  -3  -1 -18   37.30   11.40
   8  -2 -18   33.50   15.90
   8  -2 -18   38.60    8.00
   8  -2 -18   34.10    5.10
   8   2 -18   37.70    7.00
   8   2 -18   46.20   13.90
   8   2 -18   45.00    5.60
   6  -2 -18    8.20    6.00
   6  -2 -18   -1.50    8.10
   6  -2 -18  -14.50   13.90
   6  -2 -18    3.80    4.10
   6   2 -18    3.10    3.40
   6   2 -18   -1.00    4.20
   6   2 -18    1.20   10.80
   6   2 -18   -0.60    4.70
   6   2 -18    2.90    5.60
   4  -2 -18  180.68   16.50
   4  -2 -18  162.88   13.20
   4  -2 -18  155.68    9.40
   4  -2 -18  159.98    9.70
   4   2 -18  170.48   10.30
   4   2 -18  172.58   13.60
   4   2 -18  154.98    8.90
   4   2 -18  162.28    8.70
   4   2 -18  139.69    8.80
   2  -2 -18    1.80    7.60
   2  -2 -18  -11.00   11.30
   2  -2 -18   -4.00    4.60
   2  -2 -18   -5.00    4.10
   2   2 -18   -1.40    4.80
   2   2 -18   12.20    9.90
   2   2 -18   -1.20    3.30
   2   2 -18    6.20    5.40
   2   2 -18    2.70    4.00
   0  -2 -18   52.39    6.60
   0  -2 -18   51.39    8.80
   0  -2 -18   61.59    5.60
   0   2 -18   63.49    5.40
   0   2 -18   59.39    6.00
   0   2 -18   69.29   11.00
   0   2 -18   57.19    7.90
   0   2 -18   60.69    6.90
  -2  -2 -18    2.30    5.00
  -2  -2 -18  -13.90    9.30
  -2  -2 -18    6.10    4.90
  -2   2 -18    2.70    3.90
  -2   2 -18    8.30    6.10
  -2   2 -18    1.00    4.20
  -2   2 -18    4.60    6.50
  -2   2 -18    1.70    8.60
   7  -3 -18   73.59   10.20
   7  -3 -18   56.69    6.50
   7  -3 -18   53.69   17.20
   7   3 -18   66.79   12.70
   7   3 -18   77.19    8.60
   7   3 -18   65.09    6.40
   5  -3 -18   22.20   15.50
   5  -3 -18    2.90    6.40
   5  -3 -18   -2.10    4.80
   5   3 -18   10.00   11.90
   5   3 -18   -1.60    3.70
   5   3 -18    7.60    5.10
   5   3 -18   -6.30    5.00
   5   3 -18    5.50    4.30
   3  -3 -18   65.19    6.90
   3  -3 -18   56.99    9.90
   3   3 -18   79.99    7.10
   3   3 -18   92.59   15.70
   3   3 -18   74.99    8.00
   3   3 -18   74.49    6.00
   3   3 -18   71.89    6.80
   1  -3 -18   12.80    5.10
   1  -3 -18    4.70    8.60
   1  -3 -18    3.10   12.90
   1   3 -18   13.40    5.50
   1   3 -18   13.60    4.30
   1   3 -18    7.30    3.70
   1   3 -18   17.70   10.30
  -1  -3 -18    0.30    4.90
  -1  -3 -18    6.10    9.60
  -1  -3 -18    3.20    5.40
  -1   3 -18   -2.90    9.00
  -1   3 -18   -2.60    4.40
  -1   3 -18    3.10    3.80
   6  -4 -18   12.30    5.20
   6  -4 -18   19.80    7.50
   6   4 -18   18.80    5.00
   6   4 -18   12.30    4.00
   6   4 -18   16.70    6.30
   4  -4 -18   42.80    6.60
   4  -4 -18   35.70    6.50
   4   4 -18   35.30    5.90
   4   4 -18   42.40   11.20
   4   4 -18   25.90    6.00
   4   4 -18   41.70    6.10
   0  -4 -18   22.80    5.80
   0   4 -18   16.00    3.50
   0   4 -18   15.00    5.00
   0   4 -18   18.10    6.00
   8   0 -19    3.40   15.70
   8   0 -19    8.50    6.80
   8   0 -19   -1.60    4.10
   8   0 -19   10.70    4.20
   6   0 -19    0.10    4.10
   6   0 -19   -9.20    7.70
   6   0 -19    4.60    3.50
   6   0 -19   22.40   11.10
   6   0 -19   -7.20    5.80
   4   0 -19   -0.20    4.50
   4   0 -19   -2.80    7.30
   4   0 -19   -3.70   10.90
   4   0 -19    0.00    5.00
   4   0 -19   -0.90    3.40
   2   0 -19  -14.20    6.80
   2   0 -19    1.90    4.70
   2   0 -19    5.40    4.00
   2   0 -19   -5.70    9.40
   2   0 -19   11.70    5.40
   0   0 -19   -3.40    5.10
   0   0 -19    5.80    7.40
   0   0 -19   12.90   12.70
   0   0 -19   -3.90    3.90
  -2   0 -19   10.70    5.00
   7  -1 -19   -3.10    8.40
   7  -1 -19    0.40    6.70
   7  -1 -19    4.50    3.90
   7  -1 -19    6.30    3.80
   7  -1 -19  -22.40   15.20
   7   1 -19    9.10    3.90
   7   1 -19    0.20    4.20
   7   1 -19    5.60   14.00
   7   1 -19   -0.30    6.20
   7   1 -19  -10.70    7.70
   5  -1 -19   16.00    8.40
   5  -1 -19   13.70    4.10
   5  -1 -19   11.60    4.60
   5  -1 -19   15.50   11.00
   5  -1 -19   21.30    5.70
   5   1 -19   24.30   11.40
   5   1 -19    5.60    3.60
   5   1 -19   20.50    5.60
   5   1 -19   11.00    4.70
   5   1 -19   12.90    7.00
   3  -1 -19   -9.20   12.10
   3  -1 -19   10.20    5.10
   3  -1 -19   -2.00    5.00
   3  -1 -19    8.80    4.40
   3  -1 -19    8.10    8.40
   3   1 -19   -0.90    6.60
   3   1 -19    0.00    5.30
   3   1 -19    4.40    4.70
   3   1 -19   16.50    9.50
   3   1 -19    7.20    3.60
   1  -1 -19    1.80   10.10
   1  -1 -19    6.70    3.90
   1  -1 -19   13.00    8.50
   1  -1 -19    5.10    4.80
   1   1 -19   16.50   11.70
   1   1 -19    0.90    6.50
   1   1 -19    2.50    4.20
   1   1 -19   11.20    4.00
   1   1 -19   12.10    5.30
  -1  -1 -19   -1.20    5.30
  -1  -1 -19    3.90    8.20
  -1  -1 -19   20.60   16.60
  -1  -1 -19    3.50    5.50
  -1   1 -19   -2.40    7.80
  -1   1 -19    0.90    4.00
  -1   1 -19   -1.90    9.50
  -1   1 -19    0.20    5.80
   6  -2 -19    9.00   16.70
   6  -2 -19    3.50    9.50
   6  -2 -19   12.60    6.70
   6  -2 -19    9.20    4.50
   6   2 -19    4.30    6.90
   6   2 -19    1.80    3.90
   6   2 -19   11.70    4.30
   6   2 -19    6.70    5.50
   6   2 -19   20.80   13.00
   4  -2 -19   16.90   11.30
   4  -2 -19   20.50    8.90
   4  -2 -19   25.10    6.10
   4  -2 -19   24.00    5.80
   4   2 -19   32.00   13.80
   4   2 -19   28.00    5.20
   4   2 -19   23.30    4.20
   4   2 -19   19.80    6.50
   4   2 -19   22.50    5.60
   2  -2 -19   63.49    6.70
   2  -2 -19   65.99    7.50
   2  -2 -19   84.49   13.10
   2  -2 -19   35.00   14.40
   2   2 -19   55.79   12.60
   2   2 -19   66.69    7.10
   2   2 -19   67.59    5.60
   2   2 -19   76.59    6.50
   2   2 -19   55.39    8.90
   0  -2 -19   59.39    7.50
   0  -2 -19   66.29    6.50
   0   2 -19   85.89    8.20
   0   2 -19   67.59    9.60
   0   2 -19   77.59    6.20
   0   2 -19   72.09    6.90
   5  -3 -19    7.60    6.70
   5  -3 -19    0.40    5.20
   5   3 -19   -5.20    6.30
   5   3 -19   -2.10    4.00
   5   3 -19    0.40    4.50
   5   3 -19   -4.40    5.30
   3  -3 -19    4.30   10.90
   3  -3 -19   -6.90    5.20
   3   3 -19   15.20    5.90
   3   3 -19    1.40    5.20
   3   3 -19   14.30   11.50
   3   3 -19   -4.40    6.00
   3   3 -19   -3.60    3.50
   1  -3 -19   -3.30    4.70
   1  -3 -19    1.20    8.50
   1   3 -19   10.50    5.10
   1   3 -19   -0.40    3.50
   1   3 -19    0.00    6.50
   6   0 -20   20.40    6.60
   6   0 -20    9.60    9.20
   4   0 -20    2.30    5.70
   4   0 -20    3.20   13.30
   4   0 -20   -3.60    5.90
   4   0 -20    5.60    3.90
   2   0 -20   83.79    6.70
   2   0 -20   69.69   12.40
   2   0 -20   83.09    8.20
   5  -1 -20   11.90    4.60
   5  -1 -20    7.90    6.70
   5  -1 -20   -7.30    4.90
   5  -1 -20   -3.60    9.80
   5   1 -20   -7.00    6.10
   5   1 -20   -0.40    5.00
   5   1 -20   -0.90    3.80
   5   1 -20   -7.20    8.50
   3  -1 -20   59.89    6.00
   3  -1 -20   53.39    8.10
   3  -1 -20   40.50   10.10
   3  -1 -20   76.69    7.50
   3   1 -20   32.80    8.30
   3   1 -20   53.99    7.20
   3   1 -20   47.70    7.80
   3   1 -20   63.09    5.40
   1  -1 -20  -12.30    9.80
   1  -1 -20    8.00    5.40
   1  -1 -20   10.80    4.50
   1   1 -20    7.10    5.10
   1   1 -20   17.30    8.70
   1   1 -20   16.30    5.70
   1   1 -20   -2.40    4.20
   4  -2 -20   -2.40    6.90
   4  -2 -20   -3.50   10.30
   4  -2 -20    3.00    5.10
   4   2 -20  -10.30    5.70
   4   2 -20    8.30    7.70
   4   2 -20    1.80    5.80
   4   2 -20    3.90    3.80
   0   0   0    0.00    0.00

_computing_structure_solution     'SHELXT 2014/5 (Sheldrick, 2014)'
;
_shelx_hkl_checksum              64159
_olex2_submission_special_instructions 'No special instructions were received'
loop_
_space_group_symop_operation_xyz
'x, y, z'
'-x, y, -z+1/2'
'x+1/2, y+1/2, z'
'-x+1/2, y+1/2, -z+1/2'
'-x, -y, -z'
'x, -y, z-1/2'
'-x+1/2, -y+1/2, -z'
'x+1/2, -y+1/2, z-1/2'
loop_
_atom_site_label
_atom_site_type_symbol
_atom_site_fract_x
_atom_site_fract_y
_atom_site_fract_z
_atom_site_U_iso_or_equiv
_atom_site_adp_type
_atom_site_occupancy
_atom_site_site_symmetry_order
_atom_site_calc_flag
_atom_site_refinement_flags_posn
_atom_site_refinement_flags_adp
_atom_site_refinement_flags_occupancy
S1 S 0.36688(6) 0.00051(9) 0.08297(5) 0.0329(2) Uani 1 1 d . . .
O1 O 0.12998(19) -0.0754(3) 0.02173(14) 0.0436(6) Uani 1 1 d . . .
H1 H 0.058298 -0.096959 0.001525 0.065 Uiso 0.5 1 d R . .
O2 O 0.06820(17) 0.1732(3) 0.05207(14) 0.0415(6) Uani 1 1 d . . .
H2 H 0.000897 0.143134 0.023403 0.062 Uiso 0.5 1 d R . .
C1 C 0.500000 0.6988(5) 0.250000 0.0413(11) Uani 1 2 d S T P
H1A H 0.465177 0.770686 0.285725 0.050 Uiso 0.5 1 calc R . .
H1B H 0.534822 0.770685 0.214274 0.050 Uiso 0.5 1 calc R . .
C2 C 0.4147(2) 0.5880(4) 0.1959(2) 0.0349(7) Uani 1 1 d . . .
H2A H 0.341816 0.604578 0.208975 0.042 Uiso 1 1 calc R . .
H2B H 0.408973 0.611030 0.135701 0.042 Uiso 1 1 calc R . .
C3 C 0.4561(2) 0.4137(3) 0.21796(17) 0.0250(6) Uani 1 1 d . . .
C4 C 0.4031(2) 0.2709(3) 0.16860(17) 0.0273(6) Uani 1 1 d . . .
C5 C 0.2876(2) 0.2591(4) 0.13887(17) 0.0281(6) Uani 1 1 d . . .
H5 H 0.237557 0.340420 0.149863 0.034 Uiso 1 1 calc R . .
C6 C 0.2559(2) 0.1189(4) 0.09289(18) 0.0310(7) Uani 1 1 d . . .
C7 C 0.4574(2) 0.1406(4) 0.14099(17) 0.0284(6) Uani 1 1 d . . .
C8 C 0.5780(2) 0.1118(4) 0.15124(19) 0.0330(7) Uani 1 1 d . . .
H8A H 0.606074 0.049701 0.203105 0.049 Uiso 1 1 calc GR . .
H8B H 0.615865 0.218898 0.153931 0.049 Uiso 1 1 calc GR . .
H8C H 0.590887 0.047856 0.103401 0.049 Uiso 1 1 calc GR . .
C9 C 0.1441(2) 0.0668(4) 0.05299(18) 0.0328(7) Uani 1 1 d . . .
loop_
_atom_site_aniso_label
_atom_site_aniso_U_11
_atom_site_aniso_U_22
_atom_site_aniso_U_33
_atom_site_aniso_U_23
_atom_site_aniso_U_13
_atom_site_aniso_U_12
S1 0.0425(4) 0.0212(4) 0.0322(4) -0.0034(3) 0.0023(3) 0.0035(3)
O1 0.0469(13) 0.0273(12) 0.0495(13) -0.0073(10) -0.0041(10) -0.0051(10)
O2 0.0366(12) 0.0323(12) 0.0498(13) -0.0052(10) -0.0025(10) -0.0001(10)
C1 0.051(3) 0.022(2) 0.044(3) 0.000 -0.005(2) 0.000
C2 0.0351(16) 0.0223(16) 0.0432(17) -0.0008(13) 0.0002(13) 0.0023(12)
C3 0.0277(13) 0.0174(14) 0.0311(14) 0.0006(11) 0.0086(11) 0.0017(11)
C4 0.0341(15) 0.0180(14) 0.0288(14) 0.0009(11) 0.0047(11) 0.0012(11)
C5 0.0309(15) 0.0186(14) 0.0326(14) 0.0008(11) 0.0022(11) 0.0041(11)
C6 0.0389(16) 0.0213(14) 0.0299(14) 0.0022(11) 0.0013(12) -0.0003(12)
C7 0.0383(15) 0.0223(15) 0.0240(13) 0.0006(11) 0.0053(11) 0.0035(12)
C8 0.0380(16) 0.0269(16) 0.0350(15) -0.0004(12) 0.0102(13) 0.0070(13)
C9 0.0378(16) 0.0245(15) 0.0318(15) 0.0002(13) -0.0017(12) -0.0005(13)
loop_
_atom_type_symbol
_atom_type_description
_atom_type_scat_dispersion_real
_atom_type_scat_dispersion_imag
_atom_type_scat_source
C C 0.0033 0.0016 'International Tables Vol C Tables 4.2.6.8 and 6.1.1.4'
H H 0.0000 0.0000 'International Tables Vol C Tables 4.2.6.8 and 6.1.1.4'
O O 0.0106 0.0060 'International Tables Vol C Tables 4.2.6.8 and 6.1.1.4'
S S 0.1246 0.1234 'International Tables Vol C Tables 4.2.6.8 and 6.1.1.4'
loop_
_geom_angle_atom_site_label_1
_geom_angle_atom_site_label_2
_geom_angle_atom_site_label_3
_geom_angle
_geom_angle_site_symmetry_1
_geom_angle_site_symmetry_3
C6 S1 C7 91.72(14) . .
C9 O1 H1 111.4 . .
C9 O2 H2 115.6 . .
H1A C1 H1B 108.4 . .
C2 C1 H1A 110.1 . .
C2 C1 H1A 110.1 2_655 .
C2 C1 H1B 110.1 . .
C2 C1 H1B 110.1 2_655 .
C2 C1 C2 107.9(4) . 2_655
C1 C2 H2A 110.9 . .
C1 C2 H2B 110.9 . .
H2A C2 H2B 108.9 . .
C3 C2 C1 104.4(2) . .
C3 C2 H2A 110.9 . .
C3 C2 H2B 110.9 . .
C3 C3 C2 111.36(15) 2_655 .
C3 C3 C4 128.23(15) 2_655 .
C4 C3 C2 120.4(2) . .
C5 C4 C3 122.5(2) . .
C7 C4 C3 125.4(3) . .
C7 C4 C5 112.0(3) . .
C4 C5 H5 123.5 . .
C6 C5 C4 113.1(3) . .
C6 C5 H5 123.5 . .
C5 C6 S1 111.6(2) . .
C5 C6 C9 127.8(3) . .
C9 C6 S1 120.5(2) . .
C4 C7 S1 111.5(2) . .
C4 C7 C8 129.7(3) . .
C8 C7 S1 118.8(2) . .
C7 C8 H8A 109.5 . .
C7 C8 H8B 109.5 . .
C7 C8 H8C 109.5 . .
H8A C8 H8B 109.5 . .
H8A C8 H8C 109.5 . .
H8B C8 H8C 109.5 . .
O1 C9 O2 125.0(3) . .
O1 C9 C6 118.6(3) . .
O2 C9 C6 116.5(3) . .
loop_
_geom_bond_atom_site_label_1
_geom_bond_atom_site_label_2
_geom_bond_distance
_geom_bond_site_symmetry_2
S1 C6 1.721(3) .
S1 C7 1.724(3) .
O1 H1 0.9000 .
O1 C9 1.250(4) .
O2 H2 0.9000 .
O2 C9 1.276(4) .
C1 H1A 0.9900 .
C1 H1B 0.9900 .
C1 C2 1.514(4) .
C1 C2 1.514(4) 2_655
C2 H2A 0.9900 .
C2 H2B 0.9900 .
C2 C3 1.510(4) .
C3 C3 1.339(5) 2_655
C3 C4 1.474(4) .
C4 C5 1.420(4) .
C4 C7 1.379(4) .
C5 H5 0.9500 .
C5 C6 1.365(4) .
C6 C9 1.465(4) .
C7 C8 1.496(4) .
C8 H8A 0.9800 .
C8 H8B 0.9800 .
C8 H8C 0.9800 .
loop_
_geom_hbond_atom_site_label_D
_geom_hbond_atom_site_label_H
_geom_hbond_atom_site_label_A
_geom_hbond_distance_DH
_geom_hbond_distance_HA
_geom_hbond_distance_DA
_geom_hbond_angle_DHA
_geom_hbond_site_symmetry_A
_geom_hbond_publ_flag
O1 H1 O2 0.90 1.74 2.623(3) 166.3 5 yes
O2 H2 O1 0.90 1.73 2.623(3) 173.8 5 yes
loop_
_geom_torsion_atom_site_label_1
_geom_torsion_atom_site_label_2
_geom_torsion_atom_site_label_3
_geom_torsion_atom_site_label_4
_geom_torsion
_geom_torsion_site_symmetry_1
_geom_torsion_site_symmetry_4
S1 C6 C9 O1 9.8(4) . .
S1 C6 C9 O2 -169.3(2) . .
C1 C2 C3 C3 6.8(4) . 2_655
C1 C2 C3 C4 -170.8(2) . .
C2 C1 C2 C3 -2.29(13) 2_655 .
C2 C3 C4 C5 -39.8(4) . .
C2 C3 C4 C7 135.6(3) . .
C3 C3 C4 C5 143.0(4) 2_655 .
C3 C3 C4 C7 -41.6(5) 2_655 .
C3 C4 C5 C6 178.5(3) . .
C3 C4 C7 S1 -178.5(2) . .
C3 C4 C7 C8 -1.5(5) . .
C4 C5 C6 S1 -1.4(3) . .
C4 C5 C6 C9 179.9(3) . .
C5 C4 C7 S1 -2.6(3) . .
C5 C4 C7 C8 174.3(3) . .
C5 C6 C9 O1 -171.6(3) . .
C5 C6 C9 O2 9.3(5) . .
C6 S1 C7 C4 1.6(2) . .
C6 S1 C7 C8 -175.7(2) . .
C7 S1 C6 C5 -0.1(2) . .
C7 S1 C6 C9 178.7(2) . .
C7 C4 C5 C6 2.6(4) . .
