#------------------------------------------------------------------------------
#$Date: 2019-11-03 11:14:26 +0200 (Sun, 03 Nov 2019) $
#$Revision: 221237 $
#$URL: file:///home/coder/svn-repositories/cod/cif/4/12/81/4128107.cif $
#------------------------------------------------------------------------------
#
# This file is available in the Crystallography Open Database (COD),
# http://www.crystallography.net/
#
# All data on this site have been placed in the public domain by the
# contributors.
#
data_4128107
loop_
_publ_author_name
'Elcheikh Mahmoud, Mahmoud'
'Audi, Hassib'
'Assoud, Abdeljalil'
'Ghaddar, Tarek H.'
'Hmadeh, Mohamad'
_publ_section_title
;
 Metal-Organic Framework Photocatalyst Incorporating
 Bis(4'-(4-carboxyphenyl)-terpyridine)ruthenium(II) for
 Visible-Light-Driven Carbon Dioxide Reduction.
;
_journal_issue                   17
_journal_name_full               'Journal of the American Chemical Society'
_journal_page_first              7115
_journal_page_last               7121
_journal_paper_doi               10.1021/jacs.9b01920
_journal_volume                  141
_journal_year                    2019
_chemical_formula_moiety         'C44 H28 N6 O4 Ru.C H4 N2 O, 5 H2 O'
_chemical_formula_sum            'C44 H28 N6 O4 Ru'
_chemical_formula_weight         805.79
_space_group_crystal_system      triclinic
_space_group_IT_number           2
_space_group_name_Hall           '-P 1'
_space_group_name_H-M_alt        'P -1'
_symmetry_space_group_name_Hall  '-P 1'
_symmetry_space_group_name_H-M   'P -1'
_atom_sites_solution_hydrogens   geom
_audit_creation_method           SHELXL-2018
_cell_angle_alpha                78.761(3)
_cell_angle_beta                 76.926(3)
_cell_angle_gamma                89.888(4)
_cell_formula_units_Z            2
_cell_length_a                   9.0259(4)
_cell_length_b                   13.1063(5)
_cell_length_c                   17.2862(6)
_cell_measurement_reflns_used    973
_cell_measurement_temperature    296(2)
_cell_measurement_theta_max      30
_cell_measurement_theta_min      1.5
_cell_volume                     1951.79(14)
_computing_cell_refinement       'SMART, 'Bruker APEX II'
_computing_data_collection       'Bruker kappa APEX II'
_computing_data_reduction        'SAINT, 'Bruker APEX II'
_computing_molecular_graphics    Mercury
_computing_structure_refinement  'SHELXL-2018 (Sheldrick, 2018)'
_diffrn_ambient_temperature      200(2)
_diffrn_measured_fraction_theta_full 0.949
_diffrn_measured_fraction_theta_max 0.945
_diffrn_measurement_device_type  'BRUKER kappa APEX II'
_diffrn_measurement_method       'Omega and phi scan'
_diffrn_radiation_monochromator  graphite
_diffrn_radiation_source         'fine-focus sealed tube'
_diffrn_radiation_type           MoK\a
_diffrn_radiation_wavelength     0.71073
_diffrn_reflns_av_R_equivalents  0.0928
_diffrn_reflns_av_unetI/netI     0.1654
_diffrn_reflns_Laue_measured_fraction_full 0.949
_diffrn_reflns_Laue_measured_fraction_max 0.945
_diffrn_reflns_limit_h_max       9
_diffrn_reflns_limit_h_min       -11
_diffrn_reflns_limit_k_max       16
_diffrn_reflns_limit_k_min       -14
_diffrn_reflns_limit_l_max       20
_diffrn_reflns_limit_l_min       -21
_diffrn_reflns_number            13259
_diffrn_reflns_point_group_measured_fraction_full 0.949
_diffrn_reflns_point_group_measured_fraction_max 0.945
_diffrn_reflns_theta_full        25.242
_diffrn_reflns_theta_max         26.000
_diffrn_reflns_theta_min         2.867
_diffrn_standards_decay_%        0
_diffrn_standards_interval_time  1
_diffrn_standards_number         3
_exptl_absorpt_coefficient_mu    0.452
_exptl_absorpt_correction_T_max  0.7460
_exptl_absorpt_correction_T_min  0.6850
_exptl_absorpt_correction_type   multi-scan
_exptl_absorpt_process_details
;
 SADABS 2016/2: Krause, L., Herbst-Irmer, R., Sheldrick G.M. & Stalke D.,
 J. Appl. Cryst. 48 (2015) 3-10
;
_exptl_crystal_colour            red
_exptl_crystal_density_diffrn    1.371
_exptl_crystal_description       needle
_exptl_crystal_F_000             820
_exptl_crystal_size_max          0.080
_exptl_crystal_size_mid          0.030
_exptl_crystal_size_min          0.010
_refine_diff_density_max         0.814
_refine_diff_density_min         -0.445
_refine_diff_density_rms         0.097
_refine_ls_extinction_method     none
_refine_ls_goodness_of_fit_ref   1.099
_refine_ls_hydrogen_treatment    constr
_refine_ls_matrix_type           full
_refine_ls_number_parameters     497
_refine_ls_number_reflns         7251
_refine_ls_number_restraints     0
_refine_ls_restrained_S_all      1.099
_refine_ls_R_factor_all          0.1382
_refine_ls_R_factor_gt           0.0662
_refine_ls_shift/su_max          0.000
_refine_ls_shift/su_mean         0.000
_refine_ls_structure_factor_coef Fsqd
_refine_ls_weighting_details
'w=1/[\s^2^(Fo^2^)+(0.0154P)^2^] where P=(Fo^2^+2Fc^2^)/3'
_refine_ls_weighting_scheme      calc
_refine_ls_wR_factor_gt          0.0872
_refine_ls_wR_factor_ref         0.1014
_reflns_Friedel_coverage         0.000
_reflns_number_gt                4027
_reflns_number_total             7251
_reflns_threshold_expression     'I > 2\s(I)'
_cod_data_source_file            ja9b01920_si_003.cif
_cod_data_source_block           mke15-24_sq
_cod_database_code               4128107
_shelx_space_group_comment
;
The symmetry employed for this shelxl refinement is uniquely defined
by the following loop, which should always be used as a source of
symmetry information in preference to the above space-group names.
They are only intended as comments.
;
_shelx_estimated_absorpt_t_min   0.965
_shelx_estimated_absorpt_t_max   0.995
_shelx_res_file
;
TITL MU-MKE15-24_0m in P-1
    mke15-24_sq.res
    created by SHELXL-2018/3 at 16:06:09 on 22-Mar-2019
CELL 0.71073   9.02590  13.10630  17.28620  78.7610  76.9262  89.8880
ZERR    2.00   0.00040   0.00050   0.00060   0.0028   0.0028   0.0035
LATT 1
SFAC C H N O Ru

UNIT 88 56 12 8 2
LIST 4
TEMP 23.000
SIZE 0.01 0.03 0.08
L.S. 10
TWIN
ACTA
OMIT -3 52
BOND $H
FMAP 2
PLAN 10
ABIN
WGHT    0.015390
BASF   0.82683
FVAR       0.35713
RU1   5    0.575806    0.254834    0.769264    11.00000    0.03123    0.04018 =
         0.01581   -0.00555   -0.00269    0.00400
N1    3    0.516769    0.222361    0.888767    11.00000    0.03409    0.03975 =
         0.01736   -0.00535   -0.00496    0.00313
N2    3    0.657925    0.387641    0.796806    11.00000    0.02614    0.03862 =
         0.01402    0.00033   -0.00318    0.00106
N3    3    0.467947    0.109512    0.791001    11.00000    0.03451    0.03607 =
         0.02073   -0.00738   -0.01014    0.00400
N4    3    0.619314    0.283026    0.649543    11.00000    0.02877    0.04199 =
         0.01821   -0.00975   -0.00301    0.00564
N5    3    0.378764    0.323621    0.748325    11.00000    0.02891    0.03920 =
         0.01462   -0.00693   -0.00155    0.00394
N6    3    0.796578    0.204306    0.741071    11.00000    0.03605    0.03696 =
         0.02315   -0.01004   -0.00979    0.00360
O1    4    0.175079    0.161035    1.443541    11.00000    0.15790    0.13413 =
         0.02312   -0.02111    0.01728   -0.07484
O2    4    0.047186    0.030661    1.426389    11.00000    0.14667    0.09919 =
         0.02863   -0.00388    0.01698   -0.06515
O3    4    0.696337    0.432097    0.097748    11.00000    0.08585    0.11577 =
         0.02194    0.00520   -0.01597   -0.00680
O4    4    0.880309    0.320820    0.096536    11.00000    0.11833    0.16634 =
         0.03049   -0.01120    0.00483    0.01834
C1    1    0.140682    0.106921    1.401262    11.00000    0.06826    0.05466 =
         0.02287   -0.01112    0.00760   -0.01120
C2    1    0.208119    0.131501    1.311522    11.00000    0.05327    0.03732 =
         0.02019   -0.00756    0.00275   -0.00440
C3    1    0.333043    0.196251    1.278821    11.00000    0.04692    0.04924 =
         0.01882   -0.00866    0.00220   -0.00854
AFIX  43
H3A   2    0.377692    0.227443    1.312380    11.00000   -1.20000
AFIX   0
C4    1    0.395117    0.216575    1.195956    11.00000    0.04231    0.04998 =
         0.02415   -0.00819   -0.00093   -0.01054
AFIX  43
H4A   2    0.479998    0.261987    1.174885    11.00000   -1.20000
AFIX   0
C5    1    0.333610    0.170842    1.144083    11.00000    0.04477    0.03482 =
         0.01907   -0.00064   -0.00830    0.00113
C6    1    0.201171    0.107586    1.177322    11.00000    0.07183    0.07340 =
         0.02077   -0.01568   -0.00528   -0.02191
AFIX  43
H6A   2    0.153269    0.078976    1.143688    11.00000   -1.20000
AFIX   0
C7    1    0.140917    0.087344    1.260443    11.00000    0.07611    0.05499 =
         0.02566   -0.00861    0.00982   -0.02601
AFIX  43
H7A   2    0.054371    0.043608    1.282155    11.00000   -1.20000
AFIX   0
C8    1    0.401989    0.188644    1.054972    11.00000    0.03630    0.04156 =
         0.01057   -0.00500   -0.00636    0.00492
C9    1    0.492652    0.277602    1.014398    11.00000    0.04178    0.03236 =
         0.01525    0.00051   -0.00095   -0.00826
AFIX  43
H9A   2    0.516152    0.326197    1.042960    11.00000   -1.20000
AFIX   0
C10   1    0.547613    0.293003    0.930840    11.00000    0.03249    0.02654 =
         0.01689    0.00097   -0.00390   -0.00308
C11   1    0.431669    0.134937    0.927255    11.00000    0.03503    0.02891 =
         0.02203   -0.00612   -0.00434    0.00327
C12   1    0.372867    0.117315    1.009618    11.00000    0.04445    0.04296 =
         0.01776    0.00241   -0.00137    0.00286
AFIX  43
H12A  2    0.313130    0.057213    1.035223    11.00000   -1.20000
AFIX   0
C13   1    0.634941    0.386914    0.877477    11.00000    0.03430    0.03861 =
         0.01892   -0.00436   -0.00395    0.00405
C14   1    0.693705    0.466768    0.904561    11.00000    0.05842    0.04381 =
         0.02532   -0.00643   -0.00643    0.00074
AFIX  43
H14A  2    0.679707    0.464283    0.959888    11.00000   -1.20000
AFIX   0
C15   1    0.772434    0.549514    0.850300    11.00000    0.05219    0.04492 =
         0.02817   -0.00929   -0.00353   -0.00854
AFIX  43
H15A  2    0.812991    0.603399    0.868143    11.00000   -1.20000
AFIX   0
C16   1    0.790810    0.551742    0.768122    11.00000    0.04434    0.03960 =
         0.03972   -0.00456   -0.00356    0.00845
AFIX  43
H16A  2    0.841851    0.608017    0.730008    11.00000   -1.20000
AFIX   0
C17   1    0.732801    0.469982    0.743846    11.00000    0.03566    0.04766 =
         0.01831    0.00336   -0.00112    0.00845
AFIX  43
H17A  2    0.745806    0.471636    0.688681    11.00000   -1.20000
AFIX   0
C18   1    0.404920    0.070416    0.870985    11.00000    0.03630    0.03330 =
         0.02993   -0.00257   -0.00461   -0.00233
C19   1    0.319174   -0.020915    0.893549    11.00000    0.05411    0.03768 =
         0.02636   -0.00333   -0.00457   -0.00491
AFIX  43
H19A  2    0.277630   -0.046890    0.948239    11.00000   -1.20000
AFIX   0
C20   1    0.293036   -0.075302    0.836864    11.00000    0.06046    0.03954 =
         0.04339   -0.01022   -0.01214   -0.00980
AFIX  43
H20A  2    0.232680   -0.136558    0.852443    11.00000   -1.20000
AFIX   0
C21   1    0.359342   -0.035985    0.756041    11.00000    0.06210    0.04010 =
         0.04468   -0.02145   -0.01934   -0.00129
AFIX  43
H21A  2    0.345012   -0.070735    0.716070    11.00000   -1.20000
AFIX   0
C22   1    0.445775    0.054295    0.736079    11.00000    0.04762    0.04904 =
         0.02717   -0.00779   -0.00997    0.00856
AFIX  43
H22A  2    0.491933    0.079217    0.681798    11.00000   -1.20000
AFIX   0
C23   1    0.752332    0.253315    0.608140    11.00000    0.02774    0.05390 =
         0.01673   -0.00689   -0.00437    0.00295
C24   1    0.776969    0.265425    0.524248    11.00000    0.03057    0.05808 =
         0.01620   -0.00631   -0.00505    0.00709
AFIX  43
H24A  2    0.869979    0.247299    0.495480    11.00000   -1.20000
AFIX   0
C25   1    0.667556    0.303712    0.481574    11.00000    0.03564    0.04702 =
         0.01545   -0.00167   -0.00687    0.00032
C26   1    0.532040    0.333092    0.528958    11.00000    0.03689    0.05136 =
         0.02171   -0.00772   -0.00931    0.00653
AFIX  43
H26A  2    0.455714    0.360292    0.503804    11.00000   -1.20000
AFIX   0
C27   1    0.509917    0.322526    0.611464    11.00000    0.02726    0.03645 =
         0.02440   -0.00297   -0.00748    0.00836
C28   1    0.373396    0.347826    0.667908    11.00000    0.03006    0.03825 =
         0.02006   -0.00821   -0.00224    0.00274
C29   1    0.249816    0.394887    0.643800    11.00000    0.03336    0.05577 =
         0.02587   -0.00351   -0.01444    0.01046
AFIX  43
H29A  2    0.247697    0.410722    0.589237    11.00000   -1.20000
AFIX   0
C30   1    0.130208    0.417942    0.701515    11.00000    0.02828    0.06987 =
         0.03726   -0.01735   -0.00684    0.01499
AFIX  43
H30A  2    0.046494    0.450149    0.686198    11.00000   -1.20000
AFIX   0
C31   1    0.134203    0.393335    0.782219    11.00000    0.02817    0.06076 =
         0.04746   -0.02157    0.00138    0.01369
AFIX  43
H31A  2    0.053160    0.407844    0.821892    11.00000   -1.20000
AFIX   0
C32   1    0.260467    0.346855    0.803014    11.00000    0.03138    0.05541 =
         0.02104   -0.00881   -0.00016    0.00615
AFIX  43
H32A  2    0.263420    0.330988    0.857464    11.00000   -1.20000
AFIX   0
C33   1    0.854633    0.211919    0.659087    11.00000    0.02772    0.04007 =
         0.02190   -0.00737   -0.01223    0.00275
C34   1    1.002192    0.185327    0.629582    11.00000    0.03435    0.04939 =
         0.02323   -0.00405   -0.00704    0.00534
AFIX  43
H34A  2    1.040563    0.191386    0.574144    11.00000   -1.20000
AFIX   0
C35   1    1.091897    0.149657    0.683450    11.00000    0.03359    0.06027 =
         0.04187   -0.01251   -0.00827    0.00884
AFIX  43
H35A  2    1.190843    0.130620    0.664647    11.00000   -1.20000
AFIX   0
C36   1    1.032615    0.142484    0.766278    11.00000    0.04460    0.04885 =
         0.04242   -0.00617   -0.02144    0.01411
AFIX  43
H36A  2    1.091133    0.118971    0.803546    11.00000   -1.20000
AFIX   0
C37   1    0.885775    0.170975    0.791458    11.00000    0.03631    0.04909 =
         0.02117   -0.00193   -0.01020    0.00921
AFIX  43
H37A  2    0.846737    0.166717    0.846656    11.00000   -1.20000
AFIX   0
C38   1    0.693275    0.316609    0.393629    11.00000    0.03355    0.05000 =
         0.01295   -0.00041   -0.00758    0.00157
C39   1    0.816396    0.274720    0.348174    11.00000    0.05368    0.09483 =
         0.01643   -0.01699   -0.01133    0.02558
AFIX  43
H39A  2    0.883496    0.235486    0.374165    11.00000   -1.20000
AFIX   0
C40   1    0.840744    0.290574    0.264499    11.00000    0.05482    0.08051 =
         0.02450   -0.01318   -0.00056    0.00547
AFIX  43
H40A  2    0.923161    0.260642    0.235531    11.00000   -1.20000
AFIX   0
C41   1    0.745655    0.349718    0.223060    11.00000    0.04345    0.05040 =
         0.02237   -0.00330   -0.00613   -0.01410
C42   1    0.620992    0.388840    0.268058    11.00000    0.04123    0.05720 =
         0.02066   -0.00291   -0.01093    0.00133
AFIX  43
H42A  2    0.553260    0.426771    0.241706    11.00000   -1.20000
AFIX   0
C43   1    0.594106    0.373082    0.351475    11.00000    0.04556    0.06068 =
         0.01802   -0.00881   -0.00004    0.00346
AFIX  43
H43A  2    0.508649    0.400445    0.380179    11.00000   -1.20000
AFIX   0
C44   1    0.775377    0.371817    0.132506    11.00000    0.06612    0.09588 =
         0.01455   -0.01169    0.00653   -0.01301

HKLF 4




REM  MU-MKE15-24_0m in P-1
REM wR2 = 0.101436, GooF = S = 1.09898, Restrained GooF = 1.09898 for all data
REM R1 = 0.066223 for 4027 Fo > 4sig(Fo) and 0.138170 for all 7251 data
REM 497 parameters refined using 0 restraints

END

WGHT      0.0502      0.0000

REM Highest difference peak  0.814,  deepest hole -0.445,  1-sigma level  0.097
Q1    1   0.9172  0.4254  0.1009  11.00000  0.05    0.81
Q2    1   0.0804  0.3842  0.9510  11.00000  0.05    0.62
Q3    1   0.2562  0.0956  1.4439  11.00000  0.05    0.48
Q4    1   0.2001  0.0812  1.0683  11.00000  0.05    0.46
Q5    1   0.6480  0.3401  0.7047  11.00000  0.05    0.45
Q6    1   0.5218  0.4372  0.6963  11.00000  0.05    0.43
Q7    1   0.8677  0.3178  0.0750  11.00000  0.05    0.40
Q8    1   0.4262  0.2233  0.7745  11.00000  0.05    0.39
Q9    1   0.6284  0.2246  1.0417  11.00000  0.05    0.38
Q10   1   0.8909  0.2817  0.5502  11.00000  0.05    0.37
;
_shelx_res_checksum              114
_shelx_hkl_file
;
  -2   0   0 -4.5620 6.29307   1
  -3   0   0 27.8132 8.43093   1
  -3   0   0 30.8090 8.55080   2
  -3   0   0 35.5279 8.82520   4
  -3   0   0 31.7176 7.15181   3
  -4   0   0 99.4629 11.5053   4
  -4   0   0 123.197 9.73032   3
  -4   0   0 124.770 11.3944   1
  -4   0   0 130.658 13.2689   2
  -5   0   0 301.027 19.0045   4
  -5   0   0 302.235 20.1758   2
  -5   0   0 282.895 14.2714   3
  -5   0   0 300.386 16.5027   1
  -6   0   0 88.8022 14.6339   2
  -6   0   0 109.826 13.3893   1
  -6   0   0 81.0849 11.3279   3
  -6   0   0 81.2410 15.2384   4
  -7   0   0 72.5804 12.6716   3
  -7   0   0 78.3561 16.9220   4
  -7   0   0 77.1464 15.0286   1
  -7   0   0 67.0709 15.1416   2
  -8   0   0 -9.3181 15.6610   4
  -8   0   0 2.48639 14.0230   2
  -8   0   0 -3.0743 13.7663   1
  -9   0   0 15.0389 16.5929   4
  -9   0   0 46.0015 17.0094   1
  -9   0   0 4.33164 16.2391   2
 -10   0   0 -30.888 15.5835   1
 -10   0   0 15.2749 19.3941   4
 -10   0   0 20.3324 18.4627   2
 -11   0   0 24.8920 23.0419   4
 -11   0   0 26.0558 21.9036   2
 -12   0   0 -43.550 22.8069   2
 -12   0   0 -12.711 21.0627   4
 -12   1   0 15.7581 22.5376   4
 -12   1   0 17.3001 25.4034   2
 -11   1   0 16.8788 23.0271   2
 -11   1   0 15.9707 21.0181   4
 -10   1   0 31.0234 18.5374   1
 -10   1   0 29.8850 20.2593   2
 -10   1   0 26.1773 20.0873   4
  -9   1   0 50.6531 16.9990   1
  -9   1   0 30.1456 17.1296   4
  -9   1   0 52.5420 20.3501   2
  -8   1   0 52.4340 18.4150   2
  -8   1   0 56.6263 16.0319   1
  -8   1   0 78.1875 17.0324   4
  -7   1   0 9.17879 12.7200   1
  -7   1   0 -4.3094 13.6450   2
  -7   1   0 -7.2723 13.8513   4
  -7   1   0 0.88738 11.3968   3
  -6   1   0 128.202 15.9909   4
  -6   1   0 143.209 15.4424   1
  -6   1   0 108.881 14.5025   2
  -6   1   0 116.125 13.0433   3
  -5   1   0 107.094 12.6874   1
  -5   1   0 72.4752 11.6282   2
  -5   1   0 89.8063 10.9620   3
  -5   1   0 82.9927 11.9437   4
  -4   1   0 92.2543 11.6592   1
  -4   1   0 95.4091 10.2571   3
  -4   1   0 109.003 11.2253   2
  -4   1   0 93.0395 11.8948   4
  -3   1   0 247.058 14.8660   2
  -3   1   0 244.154 12.8137   3
  -3   1   0 189.535 13.7121   1
  -3   1   0 211.450 13.1302   4
  -2   1   0 2219.01 23.0662   3
  -2   1   0 2262.43 23.8000   1
  -2  -1   0 49.8324 6.68682   1
  -2  -1   0 32.6797 7.34851   2
  -3  -1   0 148.886 11.3304   4
  -3  -1   0 141.636 10.4828   1
  -3  -1   0 144.901 12.1649   2
  -4  -1   0 495.256 13.4954   3
  -4  -1   0 504.176 16.3893   1
  -4  -1   0 497.698 19.9602   2
  -4  -1   0 475.810 19.1789   4
  -5  -1   0 190.412 13.7628   1
  -5  -1   0 166.823 12.2074   3
  -5  -1   0 157.458 15.2578   2
  -5  -1   0 187.615 16.2051   4
  -6  -1   0 10.5957 13.1279   2
  -6  -1   0 38.2690 11.2451   1
  -6  -1   0 19.4084 12.9918   4
  -6  -1   0 46.5435 9.39608   3
  -7  -1   0 6.71889 11.7163   1
  -7  -1   0 15.6869 14.8642   4
  -7  -1   0 3.88132 15.0740   2
  -8  -1   0 4.30026 14.5825   2
  -8  -1   0 7.52024 13.7032   1
  -8  -1   0 9.34873 15.0181   4
  -9  -1   0 36.8035 17.4041   2
  -9  -1   0 43.3068 19.6227   4
  -9  -1   0 31.5947 16.3947   1
 -10  -1   0 35.1169 21.2459   4
 -10  -1   0 59.7400 22.9579   2
 -11  -1   0 -4.3730 21.5670   2
 -11  -1   0 40.3649 23.4176   4
 -12  -1   0 20.6524 24.9571   4
 -12  -1   0 5.79981 23.7561   2
 -12   2   0 29.0240 21.8056   4
 -12   2   0 -8.8364 24.0400   2
 -11   2   0 -24.179 21.6166   2
 -11   2   0 10.7919 19.6443   1
 -11   2   0 -5.6313 19.7822   4
 -10   2   0 -20.452 18.4827   4
 -10   2   0 8.28349 20.5978   2
 -10   2   0 -10.363 17.3927   1
  -9   2   0 42.7079 18.0287   1
  -9   2   0 30.5459 19.9432   2
  -9   2   0 28.9222 19.1659   4
  -8   2   0 -9.1712 15.8685   4
  -8   2   0 15.8913 15.2843   1
  -8   2   0 -4.0253 16.0266   2
  -8   2   0 7.37818 14.3322   3
  -7   2   0 -19.773 12.3935   1
  -7   2   0 12.8942 14.8207   4
  -7   2   0 47.3708 16.1438   2
  -7   2   0 16.8204 12.5530   3
  -6   2   0 144.734 17.3387   2
  -6   2   0 145.472 15.2923   3
  -6   2   0 115.276 15.1571   1
  -6   2   0 118.046 15.7989   4
  -5   2   0 175.837 15.8958   4
  -5   2   0 144.235 14.4987   1
  -5   2   0 152.925 15.0413   2
  -5   2   0 138.903 13.2503   3
  -4   2   0 87.7664 10.7961   1
  -4   2   0 99.0367 11.3550   3
  -4   2   0 66.4997 10.1314   2
  -4   2   0 92.4545 12.4101   4
  -3   2   0 1894.07 27.4559   4
  -3   2   0 1847.17 26.3248   2
  -3   2   0 1917.20 27.4641   1
  -3   2   0 1883.25 27.3846   3
  -2   2   0 2583.14 27.5978   3
  -2   2   0 2550.73 27.4644   1
  -1   2   0 4362.41 30.2799   1
  -2  -2   0 77.1450 7.56774   1
  -2  -2   0 70.9950 9.17844   2
  -3  -2   0 1.19645 6.90207   1
  -3  -2   0 -4.9622 7.75821   2
  -4  -2   0 224.510 15.6453   2
  -4  -2   0 217.413 13.4367   1
  -4  -2   0 243.976 15.9517   4
  -5  -2   0 221.538 17.2168   2
  -5  -2   0 248.259 15.8224   1
  -5  -2   0 228.099 10.9983   3
  -5  -2   0 227.062 17.1849   4
  -6  -2   0 57.7574 14.6773   2
  -6  -2   0 75.2723 14.2012   4
  -6  -2   0 73.9428 12.5306   1
  -7  -2   0 144.212 18.8801   4
  -7  -2   0 156.823 15.6319   1
  -7  -2   0 170.174 20.7238   2
  -8  -2   0 66.4542 14.6156   1
  -8  -2   0 21.8273 15.6926   2
  -8  -2   0 20.1367 15.7144   4
  -9  -2   0 -35.081 16.4032   1
  -9  -2   0 15.2811 16.8804   4
  -9  -2   0 -12.631 18.4743   2
 -10  -2   0 -16.598 16.9844   4
 -10  -2   0 27.4192 21.2526   2
 -11  -2   0 14.7186 23.1635   4
 -11  -2   0 -6.3366 21.0376   2
 -12  -2   0 -17.018 22.7113   2
 -12  -2   0 8.97746 23.5835   4
 -12   3   0 -7.0699 21.7283   4
 -12   3   0 8.14335 24.9535   2
 -11   3   0 23.6951 22.9510   4
 -11   3   0 47.3492 21.7857   1
 -11   3   0 29.4004 23.1208   2
 -10   3   0 14.3957 20.2447   4
 -10   3   0 8.14964 18.6087   2
 -10   3   0 58.9800 21.1264   1
  -9   3   0 34.0323 18.0563   2
  -9   3   0 50.9254 19.6953   1
  -9   3   0 36.5599 17.0589   3
  -9   3   0 52.9945 18.6070   4
  -8   3   0 32.1471 15.8728   4
  -8   3   0 32.2051 15.8183   3
  -8   3   0 49.7815 17.6419   1
  -8   3   0 25.9916 17.8180   2
  -7   3   0 -4.9016 13.3834   3
  -7   3   0 -4.8842 12.6258   1
  -7   3   0 13.5643 14.5801   4
  -7   3   0 46.9282 14.6596   2
  -6   3   0 37.6162 14.2958   2
  -6   3   0 15.9169 12.7665   3
  -6   3   0 42.4619 12.6710   4
  -6   3   0 33.6806 13.8648   1
  -5   3   0 160.038 15.1669   2
  -5   3   0 204.326 15.9246   3
  -5   3   0 186.699 16.1085   4
  -5   3   0 165.025 15.7427   1
  -4   3   0 2086.74 33.3650   3
  -4   3   0 2003.67 32.7215   2
  -4   3   0 2057.86 33.1556   4
  -4   3   0 2082.41 32.8308   1
  -3   3   0 839.987 19.2214   2
  -3   3   0 847.698 21.6301   3
  -3   3   0 831.339 20.3312   1
  -3   3   0 830.768 21.6072   4
  -2   3   0 356.687 15.3433   1
  -2   3   0 332.579 13.1379   2
  -2   3   0 346.636 15.7326   3
  -2   3   0 308.910 15.2178   4
  -1   3   0 148.036 10.8109   3
  -1   3   0 159.984 10.1350   1
  -2  -3   0 363.473 12.5377   1
  -3  -3   0 589.560 19.3727   2
  -3  -3   0 574.839 15.3883   1
  -4  -3   0 1133.53 21.8713   1
  -4  -3   0 1162.32 28.1250   2
  -5  -3   0 340.521 17.4469   1
  -5  -3   0 333.156 20.0392   4
  -5  -3   0 368.161 22.2292   2
  -6  -3   0 24.8321 10.3847   1
  -6  -3   0 -3.3558 12.7335   2
  -6  -3   0 9.14218 12.3382   4
  -7  -3   0 15.7754 11.6427   1
  -7  -3   0 0.72683 15.3479   2
  -7  -3   0 -13.435 14.5490   4
  -8  -3   0 32.6795 18.9476   4
  -8  -3   0 -6.9700 12.3703   1
  -8  -3   0 -11.000 16.5835   2
  -9  -3   0 7.54347 18.8694   4
  -9  -3   0 9.98921 19.2609   2
 -10  -3   0 69.0373 20.4678   2
 -10  -3   0 29.3281 19.8832   4
 -11  -3   0 34.8177 22.8887   2
 -11  -3   0 22.9540 23.3868   4
 -12  -3   0 2.97390 24.4950   4
 -12  -3   0 -16.265 23.1667   2
 -12   4   0 -3.1470 24.0070   4
 -12   4   0 11.3359 23.8750   1
 -12   4   0 32.7119 26.5361   2
 -11   4   0 28.8445 23.5081   2
 -11   4   0 25.1123 21.9529   1
 -11   4   0 14.2741 22.5143   4
 -10   4   0 -14.055 18.8073   1
 -10   4   0 19.0037 19.6968   4
 -10   4   0 18.1481 21.1178   2
  -9   4   0 26.0910 18.5395   1
  -9   4   0 13.8618 19.3026   4
  -9   4   0 10.3900 17.4208   3
  -9   4   0 47.8632 19.6231   2
  -8   4   0 67.9811 19.5499   1
  -8   4   0 85.1033 18.6631   3
  -8   4   0 61.3056 18.5960   2
  -8   4   0 88.5708 20.2120   4
  -7   4   0 77.2907 15.7761   2
  -7   4   0 63.9325 16.9279   4
  -7   4   0 81.1913 16.1523   1
  -7   4   0 90.0341 17.5665   3
  -6   4   0 141.874 18.4168   4
  -6   4   0 82.6660 15.8439   3
  -6   4   0 115.928 15.0441   2
  -6   4   0 117.816 17.3762   1
  -5   4   0 87.5070 14.5514   3
  -5   4   0 75.1989 13.3067   2
  -5   4   0 62.4744 12.6255   1
  -5   4   0 81.2842 14.3087   4
  -4   4   0 35.3435 11.8105   4
  -4   4   0 52.4901 10.9364   2
  -4   4   0 37.0826 11.4869   1
  -4   4   0 34.6856 11.5472   3
  -3   4   0 -1.9331 8.81618   1
  -3   4   0 -14.334 8.18517   2
  -3   4   0 14.9886 9.82748   4
  -3   4   0 15.3275 10.3856   3
  -2   4   0 430.685 18.2675   3
  -2   4   0 393.599 17.1414   1
  -1   4   0 1027.04 21.3400   3
   0   4   0 -2.3650 7.49269   3
   1   4   0 9.59588 8.42788   5
  -2  -4   0 298.997 12.7953   1
   2   4   0 268.296 14.8496   5
  -3  -4   0 20.4803 9.38910   2
  -3  -4   0 13.7560 7.36777   1
   3   4   0 16.2547 8.91412   5
  -4  -4   0 -0.5058 10.2723   2
  -4  -4   0 9.10832 7.52873   1
   4   4   0 12.5608 8.63910   5
  -5  -4   0 40.1605 13.3642   2
  -5  -4   0 35.8445 9.67282   1
   5   4   0 46.3654 10.9375   5
  -6  -4   0 98.1676 16.9294   2
  -6  -4   0 114.256 13.7978   1
  -6  -4   0 103.763 18.0586   4
   6   4   0 95.0530 12.6878   5
  -7  -4   0 85.2266 16.5098   2
  -7  -4   0 110.444 19.2075   4
  -7  -4   0 123.956 14.9294   1
  -8  -4   0 138.428 21.7705   2
  -8  -4   0 94.6925 21.0564   4
  -9  -4   0 -17.910 18.2206   4
  -9  -4   0 -6.8969 16.7718   2
 -10  -4   0 28.5178 22.0764   4
 -10  -4   0 25.2576 21.7557   2
 -11  -4   0 -5.9381 21.2968   2
 -11  -4   0 17.5980 24.5903   4
 -12   5   0 10.1440 23.0508   4
 -12   5   0 18.1174 24.3974   1
 -12   5   0 -34.595 24.6131   2
 -11   5   0 10.7181 23.1516   4
 -11   5   0 24.7308 23.2043   2
 -11   5   0 3.80379 22.6940   1
 -10   5   0 44.8133 21.9420   1
 -10   5   0 4.61953 18.9720   3
 -10   5   0 33.6493 22.4092   2
 -10   5   0 38.0361 20.6278   4
  -9   5   0 22.1572 19.9884   1
  -9   5   0 76.1982 21.7459   2
  -9   5   0 40.6454 19.6076   3
  -9   5   0 40.1753 19.0522   4
  -8   5   0 20.8659 18.5638   4
  -8   5   0 8.99385 17.6183   2
  -8   5   0 21.2340 18.1892   1
  -8   5   0 9.38894 16.7382   3
  -7   5   0 -5.1146 16.3186   1
  -7   5   0 0.01916 14.8315   3
  -7   5   0 -4.3261 14.3871   2
  -7   5   0 -5.2271 14.8821   4
  -6   5   0 36.4021 14.9659   3
  -6   5   0 47.5330 13.9808   2
  -6   5   0 29.1912 15.3257   4
  -6   5   0 25.6205 15.3533   1
  -5   5   0 70.1207 14.8619   3
  -5   5   0 40.5922 12.4102   2
  -5   5   0 63.4450 15.3604   1
  -5   5   0 66.9802 15.4213   4
  -4   5   0 31.7757 11.4004   3
  -4   5   0 5.93584 11.6430   1
  -4   5   0 24.0694 10.8219   4
  -4   5   0 20.3584 9.92733   2
  -3   5   0 35.3063 10.7764   3
  -3   5   0 36.1065 11.2804   4
  -3   5   0 43.3183 9.33423   5
  -3   5   0 33.8793 9.12834   2
  -3   5   0 49.5281 11.8699   1
  -2   5   0 208.024 14.7803   3
  -2   5   0 213.017 15.4973   1
  -2   5   0 203.161 14.1559   5
  -1   5   0 162.073 12.4869   3
  -1   5   0 157.758 12.3685   5
   0   5   0 -7.5218 7.48651   3
   0   5   0 -4.3149 8.50874   5
   1   5   0 1682.34 27.5014   5
   1   5   0 1689.78 21.1667   3
   2   5   0 563.929 18.0909   5
  -3  -5   0 507.963 16.1510   1
   3   5   0 511.116 19.2090   5
  -4  -5   0 231.157 14.6050   1
  -4  -5   0 244.680 17.0388   2
   4   5   0 234.163 15.7910   5
  -5  -5   0 63.4853 11.1068   1
  -5  -5   0 62.2435 14.5427   2
   5   5   0 47.5105 11.4928   5
  -6  -5   0 5.12732 10.5420   1
  -6  -5   0 0.97625 12.8519   2
  -6  -5   0 11.1790 15.3211   4
   6   5   0 14.1229 11.0506   5
  -7  -5   0 -9.1280 15.6557   4
  -7  -5   0 26.2718 16.5042   2
  -8  -5   0 53.9578 19.4427   2
  -8  -5   0 42.5017 17.9540   4
  -9  -5   0 17.6399 20.7393   2
  -9  -5   0 29.5676 20.2172   4
 -10  -5   0 33.8051 22.3288   4
 -10  -5   0 -26.966 19.8701   2
 -11  -5   0 4.17482 20.4051   4
 -11  -5   0 -13.774 22.8326   2
 -11   6   0 -18.583 21.9712   1
 -11   6   0 0.48250 22.5629   4
 -11   6   0 -7.4828 22.3063   2
 -10   6   0 -9.1933 19.7160   3
 -10   6   0 34.6872 22.8755   1
 -10   6   0 -17.025 20.8182   4
 -10   6   0 -28.116 20.3933   2
  -9   6   0 18.2170 19.2947   3
  -9   6   0 27.1750 21.5438   1
  -9   6   0 11.7949 20.6052   4
  -9   6   0 24.0592 20.0087   2
  -8   6   0 110.453 22.1385   1
  -8   6   0 132.304 24.1460   4
  -8   6   0 113.701 20.8364   2
  -8   6   0 87.1542 20.7848   3
  -7   6   0 121.316 19.9837   3
  -7   6   0 107.812 18.7956   1
  -7   6   0 100.886 19.1036   2
  -7   6   0 114.059 18.6663   4
  -6   6   0 45.5514 14.1500   2
  -6   6   0 44.7223 17.1279   1
  -6   6   0 59.4353 16.7369   4
  -6   6   0 46.5259 16.1431   3
  -5   6   0 112.616 17.0644   4
  -5   6   0 102.033 14.8161   2
  -5   6   0 106.902 17.4293   1
  -5   6   0 125.449 17.8377   3
  -4   6   0 48.8285 11.5864   2
  -4   6   0 61.4994 14.8936   3
  -4   6   0 56.4845 14.0612   1
  -4   6   0 48.0459 12.8212   4
  -3   6   0 194.435 15.8176   1
  -3   6   0 236.239 17.5113   3
  -3   6   0 200.091 14.6024   5
  -2   6   0 103.972 12.4960   3
  -2   6   0 127.278 13.0062   5
  -1   6   0 382.251 18.9324   5
  -1   6   0 365.741 17.8598   3
   0   6   0 218.503 14.3972   3
   0   6   0 253.545 15.4764   5
   1   6   0 423.084 14.4333   3
   1   6   0 438.977 19.5079   5
   2   6   0 10.6383 9.31661   5
  -3  -6   0 65.5720 9.52475   1
   3   6   0 70.7979 11.8227   5
  -4  -6   0 2.28425 11.0616   2
  -4  -6   0 -7.0856 8.44598   1
   4   6   0 -0.1978 10.4783   5
  -5  -6   0 132.038 13.4615   1
  -5  -6   0 109.249 15.2234   2
   5   6   0 155.386 15.8211   5
  -6  -6   0 214.345 16.5356   1
  -6  -6   0 250.487 21.3261   2
   6   6   0 262.946 19.5450   5
  -7  -6   0 71.7671 20.3743   4
  -7  -6   0 67.7932 19.1936   2
  -8  -6   0 -2.2885 15.5910   2
  -8  -6   0 -0.4224 18.0066   4
  -9  -6   0 9.18797 17.7579   2
  -9  -6   0 5.75758 20.8216   4
 -10  -6   0 -20.759 22.1865   4
 -10  -6   0 44.4770 23.7316   2
 -11  -6   0 63.2268 26.4112   2
 -11  -6   0 53.7561 24.4378   4
 -11   7   0 0.67814 23.5959   2
 -11   7   0 4.40206 21.7443   3
 -11   7   0 11.5370 24.3588   1
 -11   7   0 51.4922 23.9431   4
 -10   7   0 -7.3661 20.4163   4
 -10   7   0 23.6449 21.7311   2
 -10   7   0 -8.4955 20.4567   1
 -10   7   0 11.0274 21.2466   3
  -9   7   0 36.9412 19.9128   3
  -9   7   0 34.5225 20.6615   2
  -9   7   0 31.4951 22.0602   1
  -9   7   0 27.6509 19.9171   4
  -8   7   0 -9.9473 17.8681   4
  -8   7   0 23.2052 19.5129   1
  -8   7   0 9.23572 18.4592   3
  -8   7   0 9.80383 16.7593   2
  -7   7   0 52.4933 18.9891   4
  -7   7   0 13.6599 15.9297   2
  -7   7   0 11.4723 15.9841   1
  -7   7   0 28.2767 18.1381   3
  -6   7   0 78.2728 17.1421   4
  -6   7   0 34.3313 15.4563   3
  -6   7   0 13.0536 13.4947   2
  -6   7   0 12.4165 14.5594   1
  -5   7   0 66.7998 14.0509   2
  -5   7   0 82.8806 17.0419   4
  -5   7   0 39.7230 16.7259   1
  -5   7   0 112.030 18.7847   3
  -4   7   0 197.961 18.7938   1
  -4   7   0 171.351 18.5090   3
  -4   7   0 200.778 15.9348   5
  -3   7   0 163.368 15.1324   1
  -3   7   0 166.340 15.0154   5
  -3   7   0 177.613 17.7258   3
  -2   7   0 337.368 19.4973   5
  -2   7   0 364.011 20.9796   3
  -1   7   0 46.8910 12.5157   5
  -1   7   0 51.4097 11.5511   3
   0   7   0 -0.0973 10.7430   5
   0   7   0 15.2275 8.83052   3
   1   7   0 1.59319 10.6561   5
   1   7   0 -9.9528 7.37421   3
   2   7   0 440.763 21.6789   5
  -3  -7   0 251.845 15.9000   1
   3   7   0 267.110 19.8431   5
  -4  -7   0 112.496 12.4043   1
  -4  -7   0 96.5531 14.6569   2
   4   7   0 106.052 14.6717   5
  -5  -7   0 56.1397 15.5263   2
  -5  -7   0 46.4514 12.1475   1
   5   7   0 46.4007 14.0425   5
  -6  -7   0 46.9833 17.8161   2
   6   7   0 49.8074 14.6478   5
  -7  -7   0 34.3377 18.5647   2
  -7  -7   0 7.99379 16.2484   4
  -8  -7   0 31.9076 21.4679   4
  -8  -7   0 83.3845 21.4238   2
  -9  -7   0 63.3540 23.8935   4
  -9  -7   0 42.0315 22.2461   2
 -10  -7   0 27.6411 23.6315   2
 -10  -7   0 6.84657 22.8712   4
 -11  -7   0 30.2646 26.3921   2
 -11  -7   0 54.4294 27.3244   4
 -11   8   0 -2.9662 22.5372   4
 -11   8   0 17.8759 23.6615   3
 -11   8   0 -20.601 21.6110   2
 -11   8   0 27.7277 25.2290   1
 -10   8   0 9.39202 22.6594   3
 -10   8   0 2.56648 23.1187   1
 -10   8   0 -0.6298 20.7791   2
 -10   8   0 2.44218 22.5917   4
  -9   8   0 20.5838 20.4383   3
  -9   8   0 -9.1650 20.9125   1
  -9   8   0 25.2395 21.0099   4
  -9   8   0 23.4911 19.6234   2
  -8   8   0 14.1748 17.4632   2
  -8   8   0 3.74186 17.9291   1
  -8   8   0 7.48931 19.0934   3
  -8   8   0 9.70926 17.3280   4
  -7   8   0 69.2603 18.0219   2
  -7   8   0 42.5999 17.5026   1
  -7   8   0 60.9546 19.7112   4
  -7   8   0 81.3392 21.0628   3
  -6   8   0 313.641 25.7643   1
  -6   8   0 351.881 27.2348   4
  -6   8   0 280.393 25.2898   3
  -5   8   0 195.461 20.7435   3
  -5   8   0 158.575 18.9684   1
  -4   8   0 20.0662 13.5721   3
  -4   8   0 -7.9549 13.5105   1
  -4   8   0 7.00251 12.4737   5
  -3   8   0 130.873 17.8983   3
  -3   8   0 143.184 15.6921   5
  -2   8   0 314.493 20.9875   5
  -2   8   0 341.531 22.0058   3
  -1   8   0 268.950 18.6227   3
  -1   8   0 286.870 20.0853   5
   0   8   0 130.485 12.9412   3
   0   8   0 116.617 15.4715   5
   1   8   0 44.5916 13.0894   5
   1   8   0 28.0786 9.34853   3
   2   8   0 43.6125 12.4935   5
  -3  -8   0 12.2954 9.87850   1
   3   8   0 -3.9195 12.6081   5
  -4  -8   0 54.9311 14.1589   2
  -4  -8   0 77.7630 12.9315   1
   4   8   0 47.5872 14.5361   5
  -5  -8   0 17.8941 13.6861   2
   5   8   0 60.5602 15.5530   5
  -6  -8   0 45.4838 15.9837   2
   6   8   0 60.0436 16.2642   5
  -7  -8   0 -12.967 17.4252   2
  -8  -8   0 13.5362 19.9810   4
  -8  -8   0 4.64121 19.4987   2
  -9  -8   0 -10.073 19.4280   2
  -9  -8   0 -5.7182 20.1472   4
 -10  -8   0 -32.304 21.9496   4
 -10  -8   0 30.2211 23.9403   2
 -11   9   0 17.0462 25.1536   3
 -10   9   0 23.5282 21.5038   1
 -10   9   0 -2.2565 22.1934   3
 -10   9   0 -2.4230 21.6671   4
  -9   9   0 6.99687 21.1548   3
  -9   9   0 23.4331 22.2578   1
  -9   9   0 1.37997 28.4434   2
  -9   9   0 -21.737 21.5499   4
  -8   9   0 42.6889 21.5253   4
  -8   9   0 16.6232 20.4546   3
  -8   9   0 19.7261 21.0690   1
  -7   9   0 -26.119 17.4565   3
  -7   9   0 -31.297 16.9246   1
  -6   9   0 2.40535 16.8726   1
  -6   9   0 31.5061 16.7102   3
  -5   9   0 67.3909 19.4384   3
  -5   9   0 75.3268 18.4820   1
  -4   9   0 257.070 20.7533   5
  -4   9   0 202.325 20.7303   3
  -3   9   0 153.858 18.1443   3
  -3   9   0 172.389 17.5868   5
  -2   9   0 151.834 17.3928   5
  -2   9   0 135.627 16.8705   3
  -1   9   0 45.8241 15.3547   5
  -1   9   0 18.4891 12.1339   3
   0   9   0 21.4908 12.7505   5
   0   9   0 18.4388 11.4078   3
   1   9   0 76.7756 11.8898   3
   1   9   0 73.2734 13.8232   5
   2   9   0 277.289 20.6677   5
  -3  -9   0 24.0428 11.6112   1
   3   9   0 38.3684 15.0793   5
  -4  -9   0 38.0716 12.4219   1
   4   9   0 4.36222 14.2622   5
  -5  -9   0 -14.678 12.9639   2
   5   9   0 -4.7865 14.2895   5
  -6  -9   0 11.5014 15.9054   2
   6   9   0 4.58450 15.2254   5
  -7  -9   0 44.6573 19.1965   2
  -8  -9   0 35.0168 23.2849   4
  -8  -9   0 46.3310 19.2312   2
  -9  -9   0 -9.9441 21.4498   2
  -9  -9   0 15.1450 23.7189   4
 -10  -9   0 32.2091 24.8197   2
 -10  -9   0 22.7411 22.0408   4
 -10  10   0 24.7925 25.4227   1
 -10  10   0 -7.3308 24.2364   3
  -9  10   0 -3.6867 21.0970   3
  -9  10   0 0.23445 19.5345   1
  -8  10   0 75.4274 23.4063   3
  -8  10   0 12.4187 21.6287   1
  -7  10   0 69.1581 19.6381   1
  -7  10   0 85.8132 23.2060   3
  -6  10   0 212.595 25.7682   3
  -6  10   0 160.788 21.6036   1
  -5  10   0 23.7588 17.2660   3
  -4  10   0 29.4952 15.2134   5
  -4  10   0 38.5807 15.9383   3
  -3  10   0 53.5923 15.3238   5
  -3  10   0 24.5198 15.8738   3
  -2  10   0 81.0279 15.2071   5
  -2  10   0 84.8098 16.7983   3
  -1  10   0 176.068 19.5228   5
  -1  10   0 202.053 18.5476   3
   0  10   0 76.1867 15.3786   5
   0  10   0 41.5722 12.8290   3
   1  10   0 -9.4393 12.2553   5
   2  10   0 -23.136 14.1246   5
  -3 -10   0 27.1629 12.6975   1
   3  10   0 17.9391 15.4325   5
   4  10   0 22.6818 15.3151   5
  -5 -10   0 83.6141 18.1804   2
   5  10   0 61.6683 17.9347   5
  -6 -10   0 25.4634 17.6325   2
   6  10   0 34.9292 17.6928   5
  -7 -10   0 34.9253 20.1474   2
  -8 -10   0 -35.496 19.6658   4
  -8 -10   0 -11.392 20.9211   2
  -9 -10   0 0.19310 21.3594   2
  -9 -10   0 -4.5751 22.3372   4
 -10 -10   0 43.4959 26.7492   2
 -10 -10   0 -36.170 21.7429   4
 -10  11   0 58.3287 27.5596   3
  -9  11   0 7.88929 24.6364   3
  -8  11   0 30.7829 22.4101   3
  -7  11   0 24.9989 21.3510   3
  -6  11   0 32.8751 19.7478   3
  -5  11   0 110.422 19.5548   5
  -5  11   0 114.417 19.8610   3
  -4  11   0 85.3027 18.4261   5
  -4  11   0 69.9492 19.5214   3
  -3  11   0 20.4082 16.3466   3
  -3  11   0 11.3106 15.9941   5
  -2  11   0 41.5581 15.4616   3
  -2  11   0 30.1505 16.2389   5
  -1  11   0 -1.6067 15.3865   5
  -1  11   0 -10.020 13.2909   3
   0  11   0 31.0029 16.9563   5
   0  11   0 10.1657 13.3777   3
   1  11   0 4.87812 13.8705   5
   2  11   0 -16.467 12.9923   5
   3  11   0 36.5856 16.6979   5
   4  11   0 55.3334 18.4608   5
  -5 -11   0 27.2316 16.3206   2
   5  11   0 3.40184 17.2824   5
  -6 -11   0 -22.138 16.6097   2
   6  11   0 20.0575 18.1086   5
  -7 -11   0 48.8064 21.8812   2
   7  11   0 29.4758 20.2677   5
  -8 -11   0 7.66364 21.7831   2
  -9 -11   0 3.11656 25.1242   4
  -9 -11   0 -0.3226 22.6995   2
  -9  12   0 -18.508 22.7646   3
  -8  12   0 -28.899 21.7722   3
  -7  12   0 33.4447 20.1511   3
  -6  12   0 41.5889 21.4707   3
  -5  12   0 12.6051 18.2446   3
  -5  12   0 1.29489 16.6760   5
  -4  12   0 4.03999 16.8854   5
  -4  12   0 -9.1588 18.1250   3
  -3  12   0 12.6212 17.3777   3
  -3  12   0 36.0336 17.9054   5
  -2  12   0 39.8949 17.5692   3
  -2  12   0 42.7624 17.6548   5
  -1  12   0 15.7841 15.3476   3
  -1  12   0 52.2411 16.7533   5
   0  12   0 -26.769 15.4764   3
   0  12   0 8.75275 16.6298   5
   1  12   0 9.24763 15.4100   5
   2  12   0 -7.9964 15.0279   5
   3  12   0 -13.369 16.9552   5
   4  12   0 29.3111 18.8175   5
  -5 -12   0 4.68170 16.8885   2
   5  12   0 8.15993 18.9159   5
  -6 -12   0 30.3937 19.3978   2
   6  12   0 17.5793 19.7401   5
  -7 -12   0 15.7385 20.9589   2
   7  12   0 27.7332 20.3895   5
  -8 -12   0 24.7790 22.5830   2
  -9  13   0 9.39503 25.0080   3
  -8  13   0 14.7885 24.1164   3
  -7  13   0 -15.705 21.3787   3
  -6  13   0 7.60302 21.7175   3
  -5  13   0 45.6704 19.6213   5
  -5  13   0 84.4839 22.2086   3
  -4  13   0 20.8589 20.0680   3
  -4  13   0 32.2590 19.3766   5
  -3  13   0 -0.6538 15.4542   5
  -3  13   0 8.98008 18.3723   3
  -2  13   0 -4.6458 17.1572   3
  -2  13   0 27.8932 17.3868   5
  -1  13   0 17.4922 16.3335   5
  -1  13   0 14.5899 16.8509   3
   0  13   0 -21.097 17.0822   5
   1  13   0 32.2976 19.3799   5
   2  13   0 67.4309 21.0585   5
   3  13   0 36.4487 18.0143   5
   4  13   0 -16.058 15.5033   5
   5  13   0 7.03791 18.4155   5
   6  13   0 11.9226 21.0573   5
   7  13   0 -11.000 20.7141   5
  -8  14   0 30.5913 26.2800   3
  -7  14   0 28.6843 23.6202   3
  -6  14   0 9.57589 21.7529   3
  -5  14   0 -12.941 20.5104   3
  -5  14   0 8.63974 18.6998   5
  -4  14   0 -56.359 17.1794   3
  -4  14   0 9.77135 19.2838   5
  -3  14   0 -27.324 17.2937   5
  -3  14   0 -3.5948 19.8749   3
  -2  14   0 -16.290 16.9848   3
  -2  14   0 -21.033 17.7505   5
  -1  14   0 27.4027 17.9586   5
   0  14   0 13.6395 19.3186   5
   1  14   0 22.2340 20.5219   5
   2  14   0 -20.400 19.3573   5
   3  14   0 -4.2020 19.7911   5
   4  14   0 7.53496 21.0768   5
   5  14   0 23.1970 22.3932   5
   6  14   0 -3.2485 21.4165   5
   7  14   0 37.8130 23.9737   5
  -7  15   0 -17.317 23.3299   3
  -6  15   0 -10.895 22.7852   3
  -5  15   0 14.1719 22.9852   3
  -5  15   0 49.5486 21.7594   5
  -4  15   0 1.31533 20.5037   5
  -4  15   0 -7.0140 21.8112   3
  -3  15   0 39.5119 20.7454   5
  -3  15   0 38.3324 22.4513   3
  -2  15   0 -6.3386 19.0785   5
  -2  15   0 26.7692 20.8832   3
  -1  15   0 0.42700 17.7053   5
   0  15   0 32.1156 21.2533   5
   1  15   0 16.3046 21.3091   5
   2  15   0 -9.3009 20.0381   5
   3  15   0 30.8651 22.2561   5
   4  15   0 -43.765 20.1987   5
   5  15   0 -23.990 20.7816   5
   6  15   0 -8.8676 23.3984   5
  -6  16   0 -1.6915 25.3137   3
  -5  16   0 -12.779 23.4334   3
  -4  16   0 16.8084 22.4895   5
  -4  16   0 7.71437 23.1362   3
  -3  16   0 6.98449 21.6734   5
  -2  16   0 -18.519 20.5794   5
  -1  16   0 3.75275 21.0002   5
   0  16   0 37.3651 22.2597   5
   1  16   0 21.9640 22.0843   5
   2  16   0 2.33368 22.2741   5
   3  16   0 19.2101 23.6447   5
   4  16   0 10.3775 22.1504   5
   5  16   0 -28.030 23.6948   5
  -4  17   0 12.6497 22.8127   5
  -3  17   0 -16.591 21.6320   5
  -2  17   0 9.93687 22.1754   5
  -1  17   0 36.8194 24.5434   5
   0  17   0 34.5040 23.4417   5
   1  17   0 -10.512 19.3881   5
   2  17   0 -19.747 22.6066   5
   3  17   0 14.8637 23.3450   5
  -1  18   0 7.92720 22.9077   5
   0  18   0 -10.322 21.7598   5
   3  17  -1 -21.412 19.1326   5
   2  17  -1 4.76473 23.2482   5
   1  17  -1 25.1056 23.8787   5
   0  17  -1 23.8755 24.3114   5
  -1  17  -1 -28.738 21.5347   5
  -2  17  -1 9.88308 23.8698   5
  -3  17  -1 18.0584 24.3143   5
  -4  17  -1 2.63103 21.8513   5
  -4  17  -1 -19.709 24.4109   3
   5  16  -1 7.31858 23.0433   5
   4  16  -1 4.61060 22.6678   5
   3  16  -1 -24.342 20.5650   5
   2  16  -1 10.1998 22.3299   5
   1  16  -1 32.2924 19.6945   5
   0  16  -1 -33.273 19.4293   5
  -1  16  -1 8.58474 22.1482   5
  -2  16  -1 -39.369 19.4073   5
  -3  16  -1 4.28814 20.7178   5
  -3  16  -1 -11.467 21.2289   3
  -4  16  -1 33.5018 24.0558   3
  -4  16  -1 3.49684 21.1793   5
  -5  16  -1 -31.277 23.6430   3
  -6  16  -1 -41.833 22.8909   3
   6  15  -1 13.4999 22.8449   5
   5  15  -1 34.1141 23.9792   5
   4  15  -1 -12.031 22.1920   5
   3  15  -1 18.6023 21.8712   5
   2  15  -1 -6.6563 20.3052   5
   1  15  -1 16.0413 21.0794   5
   0  15  -1 21.2994 18.9116   5
  -1  15  -1 25.5281 21.7131   5
  -2  15  -1 40.8257 22.0089   5
  -3  15  -1 -3.2751 20.1137   3
  -3  15  -1 18.8694 20.8547   5
  -4  15  -1 24.1478 22.1136   5
  -4  15  -1 29.9743 23.0900   3
  -5  15  -1 23.4657 23.1640   3
  -6  15  -1 -52.959 21.4976   3
  -7  15  -1 -21.647 24.0819   3
   6  14  -1 3.42119 22.0040   5
   5  14  -1 -12.871 21.0324   5
   4  14  -1 28.3716 21.6527   5
   3  14  -1 15.2545 20.2584   5
   2  14  -1 22.3161 18.4504   5
   1  14  -1 25.6959 18.0827   5
   0  14  -1 34.5205 18.5455   5
  -1  14  -1 13.1016 18.4266   5
  -2  14  -1 10.1236 19.3683   3
  -2  14  -1 24.0599 17.7093   5
  -3  14  -1 -20.452 18.0251   5
  -3  14  -1 -37.639 17.7097   3
  -4  14  -1 -8.3764 19.3763   3
  -4  14  -1 1.06224 19.3451   5
  -5  14  -1 29.3346 22.7658   3
  -6  14  -1 -26.585 21.7486   3
  -7  14  -1 19.0286 24.1113   3
  -8  14  -1 42.5386 25.9176   3
  -7 -13   1 -5.5744 22.2556   2
   6  13  -1 28.1450 21.4919   5
  -6 -13   1 35.1639 21.5947   2
   5  13  -1 13.9484 20.8939   5
  -5 -13   1 41.9242 19.6624   2
   4  13  -1 -3.5414 18.8138   5
   3  13  -1 -6.1106 18.1866   5
   2  13  -1 -36.893 17.8101   5
   1  13  -1 65.8159 20.9469   5
   0  13  -1 41.5909 19.2893   5
  -1  13  -1 30.2591 18.6457   5
  -1  13  -1 22.2906 17.1062   3
  -2  13  -1 15.4336 17.6272   3
  -2  13  -1 10.2476 17.9017   5
  -3  13  -1 14.0797 18.5759   3
  -3  13  -1 14.2849 18.7484   5
  -4  13  -1 -7.0089 18.2776   5
  -4  13  -1 -2.7994 19.3237   3
  -5  13  -1 16.9580 20.1162   3
  -6  13  -1 71.4276 23.6705   3
  -7  13  -1 35.7032 23.1308   3
  -8  13  -1 -27.208 21.5074   3
  -9  13  -1 35.1092 27.3394   3
  -8 -12   1 9.72563 23.8883   2
  -7 -12   1 -15.732 20.6380   2
   6  12  -1 -4.5396 18.6945   5
  -6 -12   1 -13.504 19.3706   2
   5  12  -1 8.84602 18.4478   5
  -5 -12   1 17.3672 17.7125   2
   4  12  -1 47.0237 19.6753   5
   3  12  -1 85.5078 21.2123   5
   2  12  -1 64.0894 19.9156   5
   1  12  -1 7.86018 15.6085   5
   0  12  -1 11.6441 15.3022   5
  -1  12  -1 -1.3290 15.4191   3
  -1  12  -1 31.7618 17.8869   5
  -2  12  -1 20.1567 15.4720   5
  -2  12  -1 -8.4546 15.6162   3
  -3  12  -1 62.9450 19.3094   3
  -3  12  -1 60.2362 19.3583   5
  -4  12  -1 19.7310 18.6832   3
  -4  12  -1 33.6755 17.6168   5
  -5  12  -1 19.8441 20.3804   3
  -6  12  -1 -12.442 19.5718   3
  -7  12  -1 -17.984 18.9810   3
  -8  12  -1 9.01177 22.3123   3
  -9  12  -1 57.0738 26.1795   3
  -9 -11   1 -10.315 21.5463   4
  -9 -11   1 -47.415 21.7145   2
  -8 -11   1 9.50457 23.1673   2
  -8 -11   1 1.90886 23.0802   4
  -7 -11   1 14.9994 20.8464   2
   6  11  -1 78.0188 20.7591   5
  -6 -11   1 48.8026 19.8230   2
   5  11  -1 81.7261 19.5509   5
  -5 -11   1 37.6717 18.3155   2
   4  11  -1 -5.9659 14.2070   5
   3  11  -1 -3.9832 15.9763   5
  -3 -11   1 16.6236 14.3760   1
   2  11  -1 21.5303 16.3515   5
   1  11  -1 7.64828 16.3463   5
   0  11  -1 136.222 16.6816   3
   0  11  -1 113.144 18.4609   5
  -1  11  -1 216.147 23.3341   5
  -1  11  -1 278.148 21.4436   3
  -2  11  -1 88.5016 18.7118   5
  -2  11  -1 55.3677 16.4992   3
  -3  11  -1 53.2895 18.0503   5
  -3  11  -1 0.63157 16.1546   3
  -4  11  -1 2.55712 15.6315   5
  -4  11  -1 -15.326 14.6645   3
  -5  11  -1 -25.065 16.7157   3
  -6  11  -1 22.7424 20.1896   3
  -7  11  -1 -6.2341 19.6315   3
  -8  11  -1 40.4060 20.8752   3
  -9  11  -1 -23.428 21.8713   3
 -10  11  -1 -16.374 24.0921   3
  -9 -10   1 19.4476 22.2842   2
  -9 -10   1 11.9860 24.5646   4
  -8 -10   1 -13.733 20.5311   2
  -8 -10   1 21.9971 23.1795   4
  -7 -10   1 -1.5121 19.2796   2
   6  10  -1 0.59144 16.1333   5
  -6 -10   1 -44.478 15.3885   2
   5  10  -1 3.22206 16.2724   5
  -5 -10   1 -27.454 14.9055   2
   4  10  -1 37.9817 16.7686   5
   3  10  -1 1.13603 14.5890   5
  -3 -10   1 -0.9814 12.4161   1
   2  10  -1 70.5090 16.1342   5
   1  10  -1 29.4738 16.0274   5
   0  10  -1 8.16833 11.7329   3
   0  10  -1 7.67360 13.7400   5
  -1  10  -1 -12.591 11.8709   3
  -1  10  -1 -8.4176 14.3174   5
  -2  10  -1 2.54510 13.7644   3
  -2  10  -1 36.9406 15.6228   5
  -3  10  -1 96.2228 18.2486   5
  -3  10  -1 60.8772 17.3307   3
  -4  10  -1 130.026 19.2630   5
  -4  10  -1 152.748 22.0565   3
  -5  10  -1 124.185 21.5288   3
  -6  10  -1 88.9801 21.8599   3
  -7  10  -1 -0.0876 19.7850   3
  -8  10  -1 10.0047 20.5973   3
  -9  10  -1 -1.5262 19.9621   1
  -9  10  -1 21.1325 22.2324   3
 -10  10  -1 12.1885 23.2845   3
 -10  -9   1 -13.744 23.7787   2
 -10  -9   1 -21.688 19.6324   4
  -9  -9   1 29.0626 19.9343   2
  -9  -9   1 -11.708 22.2020   4
  -8  -9   1 34.8776 22.3571   2
  -8  -9   1 26.0979 22.3151   4
  -7  -9   1 56.7772 20.8143   2
   6   9  -1 67.3209 17.6161   5
  -6  -9   1 17.5639 17.7728   2
   5   9  -1 34.9871 15.6928   5
  -5  -9   1 -21.955 13.9544   2
   4   9  -1 35.6852 14.8521   5
  -4  -9   1 4.66459 12.3552   1
   3   9  -1 27.0436 13.1400   5
  -3  -9   1 7.74417 11.9333   1
   2   9  -1 33.5715 14.9927   5
   1   9  -1 207.715 18.8129   5
   1   9  -1 229.173 15.2771   3
   0   9  -1 137.421 18.1867   5
   0   9  -1 125.404 13.8104   3
  -1   9  -1 102.225 15.0345   3
  -1   9  -1 82.1806 15.8386   5
  -2   9  -1 225.406 20.3570   3
  -2   9  -1 234.522 20.4080   5
  -3   9  -1 19.2365 13.7469   5
  -3   9  -1 10.2211 14.2433   3
  -4   9  -1 27.3410 14.4707   5
  -4   9  -1 60.8966 17.2728   3
  -5   9  -1 3.73286 15.9586   3
  -6   9  -1 0.70407 18.3640   3
  -6   9  -1 20.6755 16.6862   1
  -7   9  -1 124.746 21.9891   1
  -7   9  -1 105.007 23.0564   3
  -8   9  -1 55.9103 22.9145   3
  -8   9  -1 16.3392 18.3428   1
  -9   9  -1 -2.3978 21.1280   1
  -9   9  -1 9.43971 20.8310   4
  -9   9  -1 -0.1393 21.0073   3
 -10   9  -1 18.1177 23.0251   1
 -10   9  -1 -16.083 22.9749   4
 -10   9  -1 0.57453 23.4368   3
 -11   9  -1 -17.478 23.7620   4
 -11   9  -1 -2.9093 23.9839   3
 -10  -8   1 28.1817 23.7529   2
 -10  -8   1 -0.2563 24.4676   4
  -9  -8   1 13.9916 21.3335   4
  -9  -8   1 16.0835 21.4768   2
  -8  -8   1 27.0692 20.3448   2
  -8  -8   1 34.6070 22.5206   4
  -7  -8   1 39.5270 19.7854   2
   6   8  -1 27.1601 14.5043   5
  -6  -8   1 25.3726 17.8849   2
   5   8  -1 9.10977 13.2003   5
  -5  -8   1 27.8495 14.8991   2
  -5  -8   1 17.5730 12.2599   1
   4   8  -1 59.2680 14.6835   5
  -4  -8   1 26.1455 11.5857   1
   3   8  -1 190.815 18.6225   5
  -3  -8   1 172.164 15.4996   1
   2   8  -1 61.0964 14.2045   5
   1   8  -1 -3.0799 10.8320   5
   1   8  -1 9.40726 8.77723   3
   0   8  -1 32.0683 13.4649   5
   0   8  -1 -15.762 9.34772   3
  -1   8  -1 151.017 17.0120   5
  -1   8  -1 142.970 14.4817   3
  -2   8  -1 295.048 20.2181   5
  -2   8  -1 275.962 20.8968   3
  -3   8  -1 125.185 15.8929   5
  -3   8  -1 106.293 15.4678   3
  -4   8  -1 192.077 19.3893   3
  -4   8  -1 211.732 18.2705   5
  -5   8  -1 114.782 17.2498   1
  -5   8  -1 99.9523 19.2959   3
  -6   8  -1 172.495 21.6498   1
  -6   8  -1 175.845 22.1829   3
  -7   8  -1 -12.642 16.1324   4
  -7   8  -1 11.4902 16.1854   3
  -7   8  -1 -24.169 16.9787   1
  -8   8  -1 18.2314 18.8080   2
  -8   8  -1 16.4919 19.1049   3
  -8   8  -1 21.7233 18.5781   4
  -8   8  -1 29.5627 18.5783   1
  -9   8  -1 1.40621 20.5144   1
  -9   8  -1 22.7133 21.7096   3
  -9   8  -1 7.52658 20.0501   2
  -9   8  -1 -21.024 18.6692   4
 -10   8  -1 7.47199 21.8503   3
 -10   8  -1 37.6820 23.9125   1
 -10   8  -1 16.2078 22.4518   2
 -10   8  -1 -18.647 20.0910   4
 -11   8  -1 26.0303 24.1331   4
 -11   8  -1 78.7402 26.7882   3
 -11   8  -1 30.0683 25.3124   2
 -11   8  -1 25.1078 23.3563   1
 -11  -7   1 7.69610 23.8949   4
 -11  -7   1 19.5281 25.2534   2
 -10  -7   1 -0.3615 24.1809   4
 -10  -7   1 -29.854 20.8342   2
  -9  -7   1 12.5778 20.7825   2
  -9  -7   1 11.3634 21.5415   4
  -8  -7   1 44.4542 19.0444   2
  -8  -7   1 26.0624 20.9556   4
  -7  -7   1 37.9119 20.5798   4
  -7  -7   1 16.2599 17.9941   2
   6   7  -1 34.9842 14.0332   5
  -6  -7   1 13.1375 15.9705   1
  -6  -7   1 16.3813 16.6207   2
   5   7  -1 59.2830 14.6757   5
  -5  -7   1 81.6271 13.8558   1
  -5  -7   1 60.9607 15.7209   2
   4   7  -1 30.5882 13.4688   5
  -4  -7   1 30.8312 11.2873   1
   3   7  -1 0.20102 10.7909   5
  -3  -7   1 10.0042 9.90591   1
   2   7  -1 68.5033 12.9908   5
   1   7  -1 310.243 19.6942   5
   1   7  -1 292.558 13.9567   3
   0   7  -1 236.478 17.1566   5
   0   7  -1 244.489 16.1020   3
  -1   7  -1 596.853 22.9631   5
  -1   7  -1 554.140 20.8674   3
  -2   7  -1 231.459 17.3588   5
  -2   7  -1 209.577 15.9672   3
  -3   7  -1 -4.9687 11.5371   3
  -3   7  -1 -7.4582 10.6012   5
  -4   7  -1 8.95584 10.9935   5
  -4   7  -1 -1.6472 13.6733   3
  -4   7  -1 4.09155 12.9574   1
  -5   7  -1 -4.0299 14.3167   3
  -5   7  -1 13.4235 14.2340   1
  -6   7  -1 90.1739 19.1434   1
  -6   7  -1 83.2204 18.1100   4
  -6   7  -1 42.8373 14.9367   2
  -6   7  -1 123.068 20.5424   3
  -7   7  -1 165.910 22.0219   4
  -7   7  -1 155.735 20.8710   1
  -7   7  -1 131.150 20.2608   3
  -7   7  -1 205.233 22.1473   2
  -8   7  -1 71.4011 21.7689   3
  -8   7  -1 99.5538 21.5758   1
  -8   7  -1 63.4066 19.5172   2
  -8   7  -1 53.7300 19.2550   4
  -9   7  -1 40.5378 19.2330   1
  -9   7  -1 56.9899 22.0022   3
  -9   7  -1 23.1669 19.7269   4
  -9   7  -1 15.7530 18.6417   2
 -10   7  -1 -7.9357 20.9527   2
 -10   7  -1 15.6873 21.5669   1
 -10   7  -1 26.7565 22.2444   3
 -10   7  -1 6.82940 20.6225   4
 -11   7  -1 7.71413 23.2192   2
 -11   7  -1 26.0441 23.9362   4
 -11   7  -1 -13.975 21.7838   1
 -11   7  -1 -5.0210 22.6542   3
 -11  -6   1 -7.3727 23.9792   4
 -11  -6   1 5.35021 24.1089   2
 -10  -6   1 42.1719 21.5830   4
 -10  -6   1 24.1159 23.1823   2
  -9  -6   1 15.4059 21.3147   4
  -9  -6   1 22.3524 21.3210   2
  -8  -6   1 57.8142 20.3738   2
  -8  -6   1 31.8557 18.2673   4
  -7  -6   1 35.1523 17.5020   4
  -7  -6   1 25.7502 18.4920   2
   6   6  -1 23.1833 12.6462   5
  -6  -6   1 38.3707 16.5646   2
  -6  -6   1 11.6670 11.9227   1
   5   6  -1 12.2938 11.4970   5
  -5  -6   1 1.69443 13.1147   2
  -5  -6   1 27.8020 10.9330   1
   4   6  -1 189.863 16.0577   5
  -4  -6   1 162.004 15.5892   2
  -4  -6   1 206.148 14.9110   1
   3   6  -1 11.9084 10.5518   5
  -3  -6   1 14.2523 9.30399   1
   2   6  -1 146.538 13.4208   5
   1   6  -1 131.198 9.50890   3
   1   6  -1 153.641 14.6287   5
   0   6  -1 15.8476 8.48944   3
   0   6  -1 4.01417 10.9026   5
  -1   6  -1 -2.7665 8.80164   5
  -1   6  -1 -1.0335 8.80776   3
  -2   6  -1 49.3976 10.5513   3
  -2   6  -1 49.6514 11.4804   5
  -3   6  -1 890.065 25.9188   1
  -3   6  -1 853.839 26.3560   3
  -3   6  -1 868.343 23.6989   5
  -4   6  -1 303.532 21.5540   1
  -4   6  -1 327.192 21.9828   3
  -5   6  -1 90.3695 14.1230   2
  -5   6  -1 94.3378 17.0154   3
  -5   6  -1 96.0427 15.3459   1
  -5   6  -1 96.5325 15.4440   4
  -6   6  -1 75.8735 15.5242   4
  -6   6  -1 100.324 18.1911   1
  -6   6  -1 80.1660 17.5191   3
  -6   6  -1 116.289 17.2712   2
  -7   6  -1 -6.6768 15.5230   3
  -7   6  -1 -1.1164 14.8747   2
  -7   6  -1 8.59292 15.0343   4
  -7   6  -1 -0.0185 15.4225   1
  -8   6  -1 42.8499 18.4887   3
  -8   6  -1 58.8166 18.6724   4
  -8   6  -1 78.8347 20.3098   2
  -8   6  -1 79.8535 21.0109   1
  -9   6  -1 76.2467 22.7493   2
  -9   6  -1 88.7562 23.0668   3
  -9   6  -1 79.1650 22.7897   4
  -9   6  -1 76.9125 22.4144   1
 -10   6  -1 4.95162 21.3571   2
 -10   6  -1 -17.421 18.3007   3
 -10   6  -1 -10.257 20.6438   4
 -10   6  -1 -7.2484 20.7528   1
 -11   6  -1 26.4171 22.9778   2
 -11   6  -1 36.0960 23.5566   1
 -11   6  -1 34.7869 24.0974   4
 -11  -5   1 2.32845 22.6979   4
 -11  -5   1 -10.137 24.2668   2
 -10  -5   1 -9.4665 20.4124   4
 -10  -5   1 -0.3795 19.0014   2
  -9  -5   1 -11.833 20.4861   4
  -9  -5   1 32.3329 21.6164   2
  -8  -5   1 9.72481 17.7355   2
  -8  -5   1 41.5577 20.5920   4
  -7  -5   1 46.3325 17.1314   4
  -7  -5   1 31.3733 14.0126   1
  -7  -5   1 74.3522 18.9650   2
   6   5  -1 125.167 17.4620   5
  -6  -5   1 125.463 14.6988   1
  -6  -5   1 117.948 19.0133   2
  -6  -5   1 121.298 19.8335   4
   5   5  -1 189.265 15.0684   5
  -5  -5   1 175.046 14.9207   1
  -5  -5   1 185.720 18.5256   2
   4   5  -1 38.6541 10.4901   5
  -4  -5   1 23.8292 10.4677   2
  -4  -5   1 35.0573 10.0848   1
   3   5  -1 360.631 17.4303   5
  -3  -5   1 367.214 16.3507   1
   2   5  -1 605.781 19.9956   5
   1   5  -1 549.971 13.7343   3
   1   5  -1 553.751 18.2338   5
   0   5  -1 31.0095 10.7691   5
   0   5  -1 25.9819 8.28037   3
  -1   5  -1 302.654 15.7076   3
  -1   5  -1 313.822 17.0046   5
  -2   5  -1 7.34605 10.1303   3
  -2   5  -1 8.33818 8.28847   5
  -3   5  -1 -0.4356 9.56227   3
  -3   5  -1 11.2414 9.01712   5
  -3   5  -1 -6.6602 8.76660   1
  -4   5  -1 46.9602 10.8473   2
  -4   5  -1 39.4585 11.4597   3
  -4   5  -1 44.2267 12.0206   4
  -4   5  -1 55.9763 12.0739   1
  -5   5  -1 130.532 15.5623   2
  -5   5  -1 120.545 16.6066   3
  -5   5  -1 77.9597 14.3855   1
  -5   5  -1 97.6659 15.4773   4
  -6   5  -1 440.094 27.2973   1
  -6   5  -1 421.487 23.9951   2
  -6   5  -1 389.408 26.0854   3
  -6   5  -1 400.917 25.7035   4
  -7   5  -1 583.697 30.9753   3
  -7   5  -1 552.350 28.9621   1
  -7   5  -1 663.535 33.1816   2
  -7   5  -1 647.440 31.4448   4
  -8   5  -1 66.0038 17.8107   1
  -8   5  -1 42.7536 17.6604   3
  -8   5  -1 48.8583 17.1630   2
  -8   5  -1 68.6178 19.8879   4
  -9   5  -1 1.70884 18.0295   3
  -9   5  -1 -11.228 18.6148   1
  -9   5  -1 4.05194 17.5985   4
  -9   5  -1 44.9374 20.7716   2
 -10   5  -1 4.79660 19.4567   3
 -10   5  -1 -5.2113 19.9619   1
 -10   5  -1 38.9292 21.4532   4
 -10   5  -1 -14.565 21.1585   2
 -11   5  -1 34.5696 23.8857   2
 -11   5  -1 23.3861 22.9353   1
 -11   5  -1 8.68211 21.0504   4
 -12   5  -1 8.95436 25.0498   2
 -12   5  -1 60.4946 25.9181   4
 -12   5  -1 4.89034 24.0467   1
 -11  -4   1 12.7429 25.0352   4
 -11  -4   1 -17.049 22.3216   2
 -10  -4   1 46.2280 22.5981   2
 -10  -4   1 57.4049 23.4822   4
  -9  -4   1 5.61529 19.9485   4
  -9  -4   1 7.07340 17.5366   2
  -8  -4   1 89.9244 18.3886   2
  -8  -4   1 60.1872 20.4410   4
  -8  -4   1 64.4083 16.2383   1
  -7  -4   1 0.44508 12.1116   1
  -7  -4   1 28.7466 16.8814   2
  -7  -4   1 29.3660 16.6354   4
  -6  -4   1 14.0733 13.2063   4
  -6  -4   1 3.00510 13.9669   2
  -6  -4   1 10.6140 11.4756   1
   5   4  -1 94.6946 11.6159   5
  -5  -4   1 84.3057 11.9000   1
  -5  -4   1 98.9415 16.4377   4
  -5  -4   1 96.7127 15.6096   2
   4   4  -1 181.036 13.0597   5
  -4  -4   1 184.961 13.1176   1
  -4  -4   1 187.417 16.0253   2
   3   4  -1 280.878 14.5526   5
  -3  -4   1 260.610 14.3904   1
   2   4  -1 362.128 14.5322   5
  -2  -4   1 341.069 14.1914   1
   1   4  -1 1324.50 22.5607   5
   0   4  -1 17.6875 9.04655   5
   0   4  -1 1.86445 7.37260   3
  -1   4  -1 67.5641 9.92591   3
  -1   4  -1 60.3340 9.80317   5
  -2   4  -1 485.661 16.4640   1
  -2   4  -1 473.775 18.6353   3
  -2   4  -1 477.721 16.6979   5
  -3   4  -1 1335.19 24.5952   4
  -3   4  -1 1355.67 27.0523   1
  -3   4  -1 1343.46 27.0347   3
  -3   4  -1 1375.58 25.1962   2
  -4   4  -1 687.860 21.2733   2
  -4   4  -1 670.906 23.4925   1
  -4   4  -1 655.563 23.4814   3
  -4   4  -1 699.015 22.6994   4
  -5   4  -1 1043.07 29.0958   2
  -5   4  -1 937.572 28.4222   1
  -5   4  -1 1011.95 28.3774   4
  -5   4  -1 976.503 28.9074   3
  -6   4  -1 97.9925 16.4309   2
  -6   4  -1 108.023 17.5372   1
  -6   4  -1 114.666 17.0275   4
  -6   4  -1 78.8630 15.4705   3
  -7   4  -1 235.072 22.1233   1
  -7   4  -1 261.236 22.1305   3
  -7   4  -1 202.422 21.7391   2
  -7   4  -1 251.780 22.7537   4
  -8   4  -1 60.2266 17.5443   2
  -8   4  -1 78.1986 19.6632   1
  -8   4  -1 111.408 20.6987   4
  -8   4  -1 136.460 19.9061   3
  -9   4  -1 15.9296 17.6082   3
  -9   4  -1 28.4871 19.2672   1
  -9   4  -1 18.3199 20.2098   2
  -9   4  -1 32.7588 17.6963   4
 -10   4  -1 2.92156 21.2551   2
 -10   4  -1 31.6263 20.6944   1
 -10   4  -1 -20.825 19.1096   4
 -11   4  -1 -20.023 22.1729   2
 -11   4  -1 42.5437 23.6567   1
 -11   4  -1 -14.879 20.5145   4
 -12   4  -1 -4.1969 24.6107   2
 -12   4  -1 11.3011 29.4784   1
 -12   4  -1 -10.823 22.6083   4
 -11  -3   1 30.8310 22.5559   2
 -11  -3   1 29.2656 24.1817   4
 -10  -3   1 19.9145 22.2462   2
 -10  -3   1 -19.731 17.7202   4
  -9  -3   1 5.38077 19.5405   4
  -9  -3   1 -19.248 17.6868   2
  -8  -3   1 81.7998 20.6521   4
  -8  -3   1 39.5363 14.7034   1
  -8  -3   1 76.0178 19.3029   2
  -7  -3   1 137.070 19.7802   2
  -7  -3   1 163.271 20.9422   4
  -7  -3   1 141.499 16.0829   1
  -6  -3   1 133.255 16.9847   4
  -6  -3   1 138.762 17.2490   2
  -6  -3   1 155.486 15.1291   1
   5   3  -1 328.358 15.1119   5
  -5  -3   1 369.549 21.1866   2
  -5  -3   1 367.668 22.6083   4
  -5  -3   1 331.201 18.2548   1
   4   3  -1 107.283 10.2108   5
  -4  -3   1 73.1004 10.0819   1
  -4  -3   1 81.6423 12.7377   2
  -3  -3   1 379.888 16.6910   2
  -3  -3   1 369.397 14.7841   1
  -2  -3   1 -2.0365 7.48664   1
  -1   3  -1 746.536 16.7313   3
  -2   3  -1 60.3901 8.07707   2
  -2   3  -1 69.0661 9.23820   4
  -2   3  -1 45.5999 8.80199   3
  -2   3  -1 63.0317 9.80890   1
  -3   3  -1 93.2581 10.9084   2
  -3   3  -1 93.6553 10.5560   1
  -3   3  -1 85.8219 10.6564   4
  -3   3  -1 115.664 12.2099   3
  -4   3  -1 114.616 13.2273   3
  -4   3  -1 82.1666 11.5005   4
  -4   3  -1 86.7570 11.5039   1
  -4   3  -1 124.913 13.0168   2
  -5   3  -1 129.534 14.8205   1
  -5   3  -1 143.764 14.5576   4
  -5   3  -1 134.454 14.4648   2
  -5   3  -1 150.722 14.7277   3
  -6   3  -1 185.558 17.2542   1
  -6   3  -1 188.948 16.7353   3
  -6   3  -1 163.184 18.2758   2
  -6   3  -1 200.577 18.0776   4
  -7   3  -1 53.1009 17.0402   2
  -7   3  -1 64.8783 15.1308   3
  -7   3  -1 29.7280 14.0692   4
  -7   3  -1 44.2718 15.1359   1
  -8   3  -1 29.4120 16.2794   3
  -8   3  -1 17.1501 17.3966   2
  -8   3  -1 22.1376 16.7679   1
  -8   3  -1 -21.412 14.6621   4
  -9   3  -1 38.5982 18.8995   1
  -9   3  -1 -6.3996 16.5382   3
  -9   3  -1 9.09902 16.3989   2
  -9   3  -1 17.2993 16.7104   4
 -10   3  -1 7.80260 19.3413   4
 -10   3  -1 -7.1388 20.4810   2
 -10   3  -1 -15.662 18.6261   1
 -11   3  -1 -18.944 19.6938   1
 -11   3  -1 -31.952 21.5000   2
 -11   3  -1 26.3732 22.2898   4
 -12   3  -1 17.0497 22.5698   4
 -12   3  -1 3.56938 25.0832   2
 -12  -2   1 -8.7530 23.8131   4
 -12  -2   1 27.6720 25.9368   2
 -11  -2   1 35.3634 22.8258   2
 -11  -2   1 -8.5390 21.8872   4
 -10  -2   1 84.0907 24.3996   4
 -10  -2   1 81.3047 23.3536   2
  -9  -2   1 -1.8854 18.4550   4
  -9  -2   1 43.2600 16.4967   1
  -9  -2   1 56.6558 18.8512   2
  -8  -2   1 3.48114 13.3392   1
  -8  -2   1 33.0673 15.7453   2
  -8  -2   1 20.5864 17.5404   4
  -7  -2   1 44.6832 16.5927   2
  -7  -2   1 -0.7550 11.9193   1
  -7  -2   1 -13.377 15.0320   4
  -6  -2   1 146.667 17.9824   2
  -6  -2   1 107.838 13.8632   1
  -6  -2   1 122.492 17.3961   4
  -5  -2   1 109.414 14.8480   4
  -5  -2   1 111.026 8.05802   3
  -5  -2   1 110.016 14.7081   2
  -5  -2   1 124.328 13.1178   1
  -4  -2   1 151.323 11.6261   1
  -4  -2   1 156.312 14.7186   4
  -4  -2   1 152.347 14.5772   2
  -3  -2   1 201.436 13.9107   2
  -3  -2   1 192.019 11.8183   1
  -2  -2   1 111.839 8.92492   1
  -1  -2   1 665.543 13.4742   1
  -1   2  -1 172.352 10.2478   3
  -2   2  -1 9792.39 56.6501   2
  -2   2  -1 9892.67 58.3532   3
  -2   2  -1 9999.99 56.8102   1
  -3   2  -1 2904.21 31.8314   4
  -3   2  -1 2909.59 33.7561   3
  -3   2  -1 2870.21 32.7379   2
  -3   2  -1 2943.09 32.9064   1
  -4   2  -1 1052.63 23.6777   4
  -4   2  -1 1028.80 24.2746   2
  -4   2  -1 1042.69 23.5362   1
  -4   2  -1 1001.18 23.6504   3
  -5   2  -1 72.6607 13.0154   2
  -5   2  -1 52.1864 11.7425   1
  -5   2  -1 72.5253 12.3836   4
  -5   2  -1 94.2329 12.2090   3
  -6   2  -1 15.3312 13.2865   2
  -6   2  -1 41.2739 12.7296   1
  -6   2  -1 48.9739 11.9446   3
  -6   2  -1 17.9504 12.4089   4
  -7   2  -1 55.0273 13.9569   3
  -7   2  -1 27.5848 14.3710   1
  -7   2  -1 47.4750 16.3669   4
  -7   2  -1 33.2411 14.0025   2
  -8   2  -1 58.5666 16.4984   1
  -8   2  -1 70.2380 16.4489   3
  -8   2  -1 52.4768 16.9551   2
  -8   2  -1 64.2333 18.3417   4
  -9   2  -1 24.3246 18.0177   4
  -9   2  -1 26.8103 16.5137   1
  -9   2  -1 62.0668 21.3660   2
 -10   2  -1 32.4808 22.0377   2
 -10   2  -1 47.3931 19.5806   1
 -10   2  -1 50.5679 21.0480   4
 -11   2  -1 36.1034 24.0592   1
 -11   2  -1 2.72642 22.2676   2
 -11   2  -1 14.0826 20.4376   4
 -12   2  -1 34.4995 24.3180   4
 -12   2  -1 16.7772 23.8195   2
 -12  -1   1 19.1641 24.4924   4
 -12  -1   1 3.56611 24.5850   2
 -11  -1   1 3.26360 22.2844   2
 -11  -1   1 -2.4895 21.8255   4
 -10  -1   1 7.57563 20.9414   4
 -10  -1   1 20.3774 20.7744   2
 -10  -1   1 29.0496 26.2960   1
  -9  -1   1 36.9058 20.5387   2
  -9  -1   1 43.7516 17.2865   1
  -9  -1   1 18.5198 19.8088   4
  -8  -1   1 19.3806 14.3680   1
  -8  -1   1 30.0884 15.4855   2
  -8  -1   1 -22.469 16.1972   4
  -7  -1   1 238.047 18.7486   1
  -7  -1   1 212.244 21.0100   4
  -7  -1   1 256.383 22.9145   2
  -6  -1   1 119.905 10.6860   3
  -6  -1   1 87.6145 13.4708   1
  -6  -1   1 97.4777 16.2521   4
  -6  -1   1 82.4911 14.9773   2
  -5  -1   1 120.977 12.6338   1
  -5  -1   1 150.943 10.1298   3
  -5  -1   1 131.071 15.5829   4
  -5  -1   1 132.968 14.8229   2
  -4  -1   1 17.5015 8.98889   2
  -4  -1   1 14.1409 8.82869   1
  -4  -1   1 38.7156 6.64370   3
  -4  -1   1 56.1292 12.1449   4
  -3  -1   1 161.983 11.3629   1
  -3  -1   1 132.507 11.1774   2
  -3  -1   1 163.753 12.9429   4
  -2  -1   1 10.1367 6.83751   2
  -2  -1   1 10.9680 6.97053   1
  -1  -1   1 476.945 10.3632   1
  -1   1  -1 285.463 8.17417   1
  -2   1  -1 4346.11 32.9963   3
  -2   1  -1 4396.15 31.9106   1
  -3   1  -1 51.2332 8.49735   1
  -3   1  -1 49.3483 8.75545   3
  -3   1  -1 24.8151 8.44683   4
  -3   1  -1 24.2080 8.28162   2
  -4   1  -1 32.8354 10.7020   2
  -4   1  -1 31.2107 8.78609   3
  -4   1  -1 16.5568 8.77403   4
  -4   1  -1 19.4438 9.14020   1
  -5   1  -1 9.22304 10.3917   4
  -5   1  -1 17.3328 10.0461   1
  -5   1  -1 6.02731 9.01317   3
  -5   1  -1 0.53278 10.4872   2
  -6   1  -1 210.276 17.5783   2
  -6   1  -1 215.064 16.2751   3
  -6   1  -1 223.769 16.4938   1
  -6   1  -1 221.332 17.8961   4
  -7   1  -1 63.7507 13.8973   1
  -7   1  -1 47.3811 13.1175   3
  -7   1  -1 56.8831 14.9545   2
  -7   1  -1 54.3702 14.9042   4
  -8   1  -1 37.8931 15.1155   1
  -8   1  -1 12.2305 15.8618   4
  -8   1  -1 -2.2444 13.5029   3
  -8   1  -1 11.7833 14.6245   2
  -9   1  -1 28.1852 19.7165   2
  -9   1  -1 36.3940 17.3589   1
  -9   1  -1 14.3074 18.0458   4
 -10   1  -1 -14.121 18.0564   4
 -10   1  -1 -14.551 19.5193   2
 -10   1  -1 30.5952 17.5574   1
 -11   1  -1 -4.0742 22.0437   2
 -11   1  -1 10.0239 21.5410   4
 -12   1  -1 16.1472 25.0470   2
 -12   1  -1 -7.1406 21.0604   4
 -12   0   1 10.3312 23.7492   2
 -12   0   1 17.6635 23.3076   4
 -11   0   1 34.8784 23.7548   2
 -11   0   1 4.15703 22.5490   4
 -10   0   1 32.0636 19.0456   1
 -10   0   1 85.5480 23.3401   2
 -10   0   1 39.2785 22.2892   4
  -9   0   1 65.2461 19.9827   4
  -9   0   1 105.722 19.5956   1
  -9   0   1 38.0092 19.4725   2
  -8   0   1 41.6061 17.7122   2
  -8   0   1 3.03515 14.8782   4
  -8   0   1 -6.8588 13.3290   1
  -7   0   1 19.9069 13.2594   1
  -7   0   1 14.8861 14.9478   2
  -7   0   1 4.14400 13.3151   4
  -6   0   1 0.12839 12.5709   2
  -6   0   1 -1.8134 8.57629   3
  -6   0   1 -5.6622 10.5728   1
  -6   0   1 5.39608 11.8659   4
  -5   0   1 20.1115 11.4053   2
  -5   0   1 19.0361 8.18859   3
  -5   0   1 24.4497 9.96885   1
  -5   0   1 5.77428 10.2052   4
  -4   0   1 873.323 23.7771   4
  -4   0   1 883.415 21.6198   1
  -4   0   1 858.976 23.5623   2
  -4   0   1 859.305 18.0313   3
  -3   0   1 252.476 12.6629   1
  -3   0   1 262.636 15.5976   2
  -3   0   1 256.739 11.4186   3
  -3   0   1 269.805 15.6961   4
  -2   0   1 2.00494 8.47006   2
  -2   0   1 21.7306 6.83915   1
  -1   0   1 26.6939 4.67836   1
  -2   0  -1 291.161 9.83730   1
  -3   0  -1 19.6793 8.80721   4
  -3   0  -1 3.53647 9.09814   2
  -3   0  -1 6.79325 6.86394   3
  -3   0  -1 15.4084 7.55138   1
  -4   0  -1 352.284 15.8114   4
  -4   0  -1 358.493 14.3366   3
  -4   0  -1 326.542 16.8423   2
  -4   0  -1 355.254 14.9457   1
  -5   0  -1 117.477 12.9086   2
  -5   0  -1 127.055 12.0656   1
  -5   0  -1 138.558 13.0459   4
  -5   0  -1 135.702 11.4380   3
  -6   0  -1 13.1534 10.2994   1
  -6   0  -1 7.78851 9.23533   3
  -6   0  -1 20.7717 12.3132   4
  -6   0  -1 5.64027 11.1082   2
  -7   0  -1 -11.007 11.3497   4
  -7   0  -1 8.87575 10.9652   3
  -7   0  -1 2.49975 11.6261   1
  -7   0  -1 -1.0630 14.5565   2
  -8   0  -1 18.7393 14.2161   4
  -8   0  -1 29.3293 17.8198   2
  -8   0  -1 9.55733 14.0988   1
  -9   0  -1 60.3866 16.8581   1
  -9   0  -1 66.5938 20.3316   2
  -9   0  -1 65.1617 18.5629   4
 -10   0  -1 42.5712 20.7261   4
 -10   0  -1 40.3568 21.3436   2
 -11   0  -1 25.3212 20.2621   2
 -11   0  -1 44.3764 22.3339   4
 -12   0  -1 17.7791 22.3651   4
 -12   0  -1 1.51250 23.3475   2
 -12   1   1 1.00507 23.5410   2
 -12   1   1 -17.285 22.6531   4
 -11   1   1 7.27505 19.0918   1
 -11   1   1 -12.761 21.0968   2
 -11   1   1 -1.7254 21.5351   4
 -10   1   1 9.56753 20.5957   2
 -10   1   1 0.30751 17.0773   1
 -10   1   1 6.10595 20.1358   4
  -9   1   1 28.3386 16.3353   1
  -9   1   1 27.2021 19.5790   4
  -9   1   1 -11.501 18.1431   2
  -8   1   1 42.1586 18.0421   4
  -8   1   1 30.5817 16.7208   2
  -8   1   1 -3.8096 14.4219   1
  -7   1   1 25.0608 13.7718   2
  -7   1   1 41.2876 12.1432   3
  -7   1   1 49.9478 14.8306   1
  -7   1   1 15.5239 13.4263   4
  -6   1   1 224.016 18.4195   1
  -6   1   1 254.129 16.4176   3
  -6   1   1 253.677 20.3391   2
  -6   1   1 222.320 18.4314   4
  -5   1   1 13.6557 8.99523   3
  -5   1   1 20.0540 11.9766   4
  -5   1   1 9.43187 10.6293   1
  -5   1   1 12.3954 10.5960   2
  -4   1   1 21.8776 10.5311   4
  -4   1   1 42.4002 8.79623   3
  -4   1   1 26.9472 9.66294   1
  -4   1   1 39.2371 10.5403   2
  -3   1   1 -4.0073 7.27588   3
  -3   1   1 1.69217 8.30388   1
  -3   1   1 4.54570 8.37892   2
  -3   1   1 4.72455 9.24766   4
  -2   1   1 2450.71 24.4967   3
  -2   1   1 2427.05 25.4245   1
  -1   1   1 623.345 11.3485   1
  -2  -1  -1 1197.07 14.0832   1
  -3  -1  -1 -3.2143 8.67350   2
  -3  -1  -1 3.56812 6.90705   3
  -3  -1  -1 -1.7604 6.84594   1
  -3  -1  -1 21.9901 9.29967   4
  -4  -1  -1 7.58921 6.50475   3
  -4  -1  -1 20.4714 9.83948   4
  -4  -1  -1 5.74499 9.57920   2
  -4  -1  -1 8.67476 7.61900   1
  -5  -1  -1 449.963 20.5007   4
  -5  -1  -1 455.857 16.8208   1
  -5  -1  -1 445.942 20.5581   2
  -5  -1  -1 471.436 15.5727   3
  -6  -1  -1 425.205 17.1490   3
  -6  -1  -1 468.641 23.4277   4
  -6  -1  -1 448.112 19.9695   1
  -6  -1  -1 406.454 22.8873   2
  -7  -1  -1 149.417 18.2245   4
  -7  -1  -1 165.326 18.8768   2
  -7  -1  -1 188.212 16.6036   1
  -8  -1  -1 45.6264 17.3002   2
  -8  -1  -1 13.7237 16.1783   4
  -8  -1  -1 36.0506 14.0097   1
  -9  -1  -1 -5.3408 17.6694   2
  -9  -1  -1 -3.6193 16.2308   4
  -9  -1  -1 -4.1565 14.5294   1
 -10  -1  -1 -14.798 18.3691   4
 -10  -1  -1 -4.2602 19.5295   2
 -11  -1  -1 19.0344 19.7565   2
 -11  -1  -1 -8.8959 20.4162   4
 -12  -1  -1 -23.433 23.0270   2
 -12  -1  -1 37.4436 24.4743   4
 -12   2   1 -14.149 22.8118   4
 -12   2   1 -34.601 23.2718   2
 -11   2   1 15.2525 21.2567   4
 -11   2   1 38.1238 24.1005   2
 -11   2   1 6.48639 19.6702   1
 -10   2   1 -8.3112 20.3365   4
 -10   2   1 6.61602 18.8424   1
 -10   2   1 -4.7335 17.5728   2
  -9   2   1 48.9622 18.8914   1
  -9   2   1 83.3227 21.4960   2
  -9   2   1 99.3507 21.9241   4
  -8   2   1 36.3179 13.9398   3
  -8   2   1 40.4583 18.4962   4
  -8   2   1 59.4906 17.4738   1
  -8   2   1 83.5350 19.7424   2
  -7   2   1 -21.068 14.5026   4
  -7   2   1 3.40222 13.7737   1
  -7   2   1 15.1113 13.2511   2
  -7   2   1 20.7611 12.7319   3
  -6   2   1 118.116 14.4680   3
  -6   2   1 116.420 16.0623   2
  -6   2   1 114.031 15.7506   4
  -6   2   1 108.097 15.9509   1
  -5   2   1 39.7599 11.5228   2
  -5   2   1 37.6761 10.4880   3
  -5   2   1 38.0861 11.2682   4
  -5   2   1 25.3019 12.3437   1
  -4   2   1 961.837 23.1077   3
  -4   2   1 954.969 22.5633   2
  -4   2   1 917.554 23.8872   1
  -4   2   1 944.221 24.6149   4
  -3   2   1 1037.80 21.5394   3
  -3   2   1 1033.78 22.9041   4
  -3   2   1 1068.25 22.7864   1
  -3   2   1 1064.68 21.2363   2
  -2   2   1 116.822 10.8398   4
  -2   2   1 96.9797 10.0193   3
  -2   2   1 93.9581 10.2459   1
  -1   2   1 29.2272 6.28330   1
  -1   2   1 27.6677 5.90859   3
  -2  -2  -1 1195.53 20.1270   2
  -2  -2  -1 1237.63 14.2585   1
  -3  -2  -1 947.938 16.4440   1
  -3  -2  -1 939.183 22.0389   2
  -4  -2  -1 107.829 12.7025   4
  -4  -2  -1 98.2148 11.0601   2
  -4  -2  -1 92.6297 7.62230   3
  -4  -2  -1 105.391 9.61437   1
  -5  -2  -1 91.2350 10.7286   1
  -5  -2  -1 83.5271 8.34822   3
  -5  -2  -1 97.0023 13.7119   2
  -5  -2  -1 92.1140 13.4353   4
  -6  -2  -1 57.5070 14.6186   2
  -6  -2  -1 77.1471 15.2752   4
  -6  -2  -1 65.3756 9.17604   3
  -6  -2  -1 81.3527 11.5770   1
  -7  -2  -1 -2.3210 11.1945   1
  -7  -2  -1 5.40289 14.9812   4
  -7  -2  -1 -10.049 14.3004   2
  -8  -2  -1 0.13051 12.4081   1
  -8  -2  -1 -22.348 16.3280   2
  -8  -2  -1 -3.8120 15.1835   4
  -9  -2  -1 64.5041 20.0693   2
  -9  -2  -1 34.3169 19.3120   4
 -10  -2  -1 91.0936 23.4147   4
 -10  -2  -1 64.2060 22.1001   2
 -11  -2  -1 26.5247 23.5250   2
 -11  -2  -1 8.40462 21.6958   4
 -12  -2  -1 2.47490 20.7128   2
 -12  -2  -1 4.67703 21.0293   4
 -12   3   1 -12.782 23.2914   4
 -12   3   1 -20.456 22.5397   2
 -12   3   1 -0.6851 24.4046   1
 -11   3   1 1.01437 20.2253   4
 -11   3   1 -16.675 22.0228   2
 -11   3   1 3.33213 19.9193   1
 -10   3   1 22.9563 20.0431   4
 -10   3   1 -3.4089 17.9127   1
 -10   3   1 5.50549 19.4470   2
  -9   3   1 22.5799 18.3352   1
  -9   3   1 5.09305 15.2334   4
  -9   3   1 21.3582 19.5785   2
  -8   3   1 52.2883 16.3309   4
  -8   3   1 36.5530 16.7571   1
  -8   3   1 85.4297 17.7921   2
  -8   3   1 90.9435 17.1711   3
  -7   3   1 -12.049 12.5578   4
  -7   3   1 3.11310 13.0464   3
  -7   3   1 11.5403 15.0505   2
  -7   3   1 -14.765 13.9879   1
  -6   3   1 115.513 15.8339   2
  -6   3   1 91.7058 16.1103   4
  -6   3   1 150.333 16.2693   3
  -6   3   1 125.225 16.7719   1
  -5   3   1 68.1680 12.3091   3
  -5   3   1 60.7846 13.5892   4
  -5   3   1 64.5686 12.3216   2
  -5   3   1 54.1681 12.0769   1
  -4   3   1 42.9145 10.8329   3
  -4   3   1 10.9995 9.23187   2
  -4   3   1 9.41138 10.9037   4
  -4   3   1 26.7850 10.8842   1
  -3   3   1 517.013 17.5495   2
  -3   3   1 497.217 18.4416   1
  -3   3   1 536.136 19.0702   3
  -3   3   1 498.613 19.2711   4
  -2   3   1 3.82161 8.33362   4
  -2   3   1 19.3872 8.43932   3
  -2   3   1 -3.2290 8.26445   1
  -1   3   1 433.562 14.7454   3
   0   3   1 1887.15 24.6437   3
  -2  -3  -1 99.2084 9.16447   2
  -2  -3  -1 70.9596 6.72743   1
  -3  -3  -1 681.412 14.3285   1
  -3  -3  -1 725.715 19.2950   2
  -4  -3  -1 14.1656 7.31265   1
  -4  -3  -1 3.80219 9.79710   2
  -5  -3  -1 674.143 14.0056   3
  -5  -3  -1 665.188 18.9809   1
  -5  -3  -1 672.648 24.9785   2
  -5  -3  -1 685.685 24.9906   4
  -6  -3  -1 252.928 16.7519   1
  -6  -3  -1 279.091 21.1675   2
  -6  -3  -1 278.317 21.1211   4
  -7  -3  -1 121.921 19.7161   4
  -7  -3  -1 107.938 19.1508   2
  -7  -3  -1 95.5359 13.5463   1
  -8  -3  -1 38.8583 18.7783   4
  -8  -3  -1 49.0052 16.6006   2
  -9  -3  -1 17.3505 17.4059   2
  -9  -3  -1 0.38905 18.8154   4
 -10  -3  -1 7.62447 20.1016   4
 -10  -3  -1 23.9585 20.0398   2
 -11  -3  -1 -4.7507 21.1662   2
 -11  -3  -1 4.76594 21.4258   4
 -12  -3  -1 11.0979 23.2707   4
 -12  -3  -1 1.52492 23.2282   2
 -12   4   1 24.3949 25.6540   2
 -12   4   1 -35.756 21.7074   4
 -12   4   1 -45.315 21.1170   1
 -11   4   1 -24.961 21.0744   2
 -11   4   1 9.36402 22.1959   4
 -11   4   1 49.7524 23.9796   1
 -10   4   1 22.9147 20.5164   1
 -10   4   1 63.0913 22.5220   2
 -10   4   1 46.4719 21.0761   4
  -9   4   1 48.7198 20.3562   4
  -9   4   1 2.21975 18.0054   1
  -9   4   1 9.73634 19.2956   2
  -9   4   1 13.5748 16.4986   3
  -8   4   1 12.2613 15.3195   2
  -8   4   1 -39.663 16.1842   4
  -8   4   1 -5.6362 16.1556   1
  -8   4   1 -1.5355 15.0469   3
  -7   4   1 69.0102 16.1039   3
  -7   4   1 41.1090 17.9102   4
  -7   4   1 55.5187 17.5115   1
  -7   4   1 48.2606 16.7130   2
  -6   4   1 134.017 18.1824   1
  -6   4   1 111.847 16.3491   2
  -6   4   1 103.466 16.3649   3
  -6   4   1 100.806 17.0320   4
  -5   4   1 680.961 26.5958   4
  -5   4   1 702.396 26.7018   1
  -5   4   1 622.725 24.9834   3
  -5   4   1 678.303 24.5845   2
  -4   4   1 117.836 14.3066   1
  -4   4   1 135.779 12.2360   2
  -4   4   1 95.4472 12.3262   3
  -4   4   1 126.645 14.7993   4
  -3   4   1 407.294 19.0412   4
  -3   4   1 406.699 18.6230   1
  -3   4   1 422.174 17.9338   3
  -3   4   1 409.039 16.1537   2
  -2   4   1 97.6368 11.5673   4
  -2   4   1 108.953 8.90059   2
  -2   4   1 86.8512 10.3972   1
  -2   4   1 105.142 12.1778   3
  -1   4   1 43.5102 9.22801   3
  -1   4   1 68.5335 9.56636   1
   0   4   1 120.030 9.75758   3
   1   4   1 5412.99 44.8855   5
  -2  -4  -1 1689.30 19.8508   1
   2   4   1 1629.06 25.7216   5
  -3  -4  -1 299.888 16.1602   2
  -3  -4  -1 320.063 11.8083   1
  -4  -4  -1 259.118 18.0572   2
  -4  -4  -1 284.891 13.4047   1
  -5  -4  -1 229.142 15.2165   1
  -5  -4  -1 221.443 17.7027   2
  -6  -4  -1 10.5768 14.2227   4
  -6  -4  -1 7.78005 11.5856   2
  -6  -4  -1 0.85886 9.41046   1
  -7  -4  -1 34.6352 16.2456   2
  -7  -4  -1 21.9880 11.2730   1
  -7  -4  -1 13.7994 15.9968   4
  -8  -4  -1 73.6179 20.0444   4
  -8  -4  -1 27.7824 16.4258   2
  -9  -4  -1 -26.840 17.8731   4
  -9  -4  -1 38.2096 20.2858   2
 -10  -4  -1 12.3999 20.9920   4
 -10  -4  -1 9.43014 20.2225   2
 -11  -4  -1 10.0975 23.2178   4
 -11  -4  -1 29.1545 23.6802   2
 -12  -4  -1 -19.459 23.5608   4
 -12  -4  -1 -39.860 22.2325   2
 -11   5   1 0.02787 22.5076   4
 -11   5   1 -12.088 23.0486   2
 -11   5   1 25.1803 22.9191   1
 -10   5   1 -9.2994 20.3732   4
 -10   5   1 8.99859 20.9629   1
 -10   5   1 26.1675 21.9881   2
  -9   5   1 61.5393 22.0401   4
  -9   5   1 0.69551 19.8827   2
  -9   5   1 -0.3513 16.8112   3
  -9   5   1 50.3018 21.9360   1
  -8   5   1 200.881 23.7784   2
  -8   5   1 113.661 21.6553   1
  -8   5   1 132.679 20.1616   3
  -8   5   1 145.608 23.9112   4
  -7   5   1 121.053 19.9857   1
  -7   5   1 118.772 18.9101   3
  -7   5   1 100.932 18.5089   2
  -7   5   1 121.333 19.9523   4
  -6   5   1 8.77587 14.8260   1
  -6   5   1 7.34080 12.8198   2
  -6   5   1 9.25395 14.5769   4
  -6   5   1 9.56474 13.8721   3
  -5   5   1 8.14934 13.4417   1
  -5   5   1 5.97833 11.9600   4
  -5   5   1 17.3025 10.8769   2
  -5   5   1 3.41930 12.9625   3
  -4   5   1 46.7792 12.7620   1
  -4   5   1 34.2505 12.6151   4
  -4   5   1 30.0737 10.0363   2
  -4   5   1 51.5086 11.9502   3
  -3   5   1 81.3325 12.0577   1
  -3   5   1 79.0392 9.86917   5
  -3   5   1 76.0691 13.1382   3
  -3   5   1 53.3781 10.8860   4
  -3   5   1 76.4414 9.75705   2
  -2   5   1 185.259 12.5154   5
  -2   5   1 176.367 13.6110   1
  -2   5   1 157.511 13.8847   3
  -1   5   1 453.238 16.2943   3
  -1   5   1 427.677 15.3794   5
  -1   5   1 420.729 15.9538   1
   0   5   1 334.457 16.7164   5
   0   5   1 349.641 14.6539   3
   1   5   1 703.868 18.9330   5
   2   5   1 19.3103 10.1040   5
  -3  -5  -1 2.19665 6.52522   1
  -3  -5  -1 10.5196 8.61863   2
   3   5   1 14.5342 8.53376   5
  -4  -5  -1 8.00029 7.58384   1
  -4  -5  -1 23.9323 10.7739   2
   4   5   1 28.0416 10.5926   5
  -5  -5  -1 171.140 15.9710   2
  -5  -5  -1 176.899 12.9084   1
   5   5   1 174.248 15.0923   5
  -6  -5  -1 331.476 18.1103   1
  -6  -5  -1 303.884 22.7862   2
   6   5   1 318.894 20.9353   5
  -7  -5  -1 77.5033 17.7742   4
  -7  -5  -1 51.6455 15.6381   2
  -8  -5  -1 54.1686 19.6787   2
  -8  -5  -1 18.4664 18.1163   4
  -9  -5  -1 29.2638 19.9583   4
  -9  -5  -1 0.52874 19.0802   2
 -10  -5  -1 48.1729 23.1053   4
 -10  -5  -1 -10.888 21.3678   2
 -11  -5  -1 15.8162 22.7536   2
 -11  -5  -1 33.2805 22.5428   4
 -11   6   1 59.1466 25.0292   2
 -11   6   1 60.3990 25.8669   1
 -11   6   1 4.19555 23.9349   4
 -10   6   1 37.6765 22.6029   1
 -10   6   1 -15.009 20.6441   4
 -10   6   1 28.1521 22.9174   2
 -10   6   1 22.5044 21.6187   3
  -9   6   1 38.5132 20.4502   2
  -9   6   1 8.47658 19.4682   4
  -9   6   1 16.6617 18.7977   3
  -9   6   1 17.0702 20.6558   1
  -8   6   1 -16.776 16.2353   2
  -8   6   1 11.4852 16.9626   3
  -8   6   1 -15.745 18.1504   4
  -8   6   1 8.84821 16.7822   1
  -7   6   1 -2.0996 15.1861   2
  -7   6   1 0.15069 17.3025   1
  -7   6   1 -9.5549 16.6158   4
  -7   6   1 -8.7023 13.5523   3
  -6   6   1 23.5114 16.4597   1
  -6   6   1 3.61809 15.5279   4
  -6   6   1 3.01489 12.8756   2
  -6   6   1 19.4942 15.2889   3
  -5   6   1 71.3111 14.7886   4
  -5   6   1 56.4811 12.6088   2
  -5   6   1 66.5793 15.8770   1
  -5   6   1 71.5284 16.4044   3
  -4   6   1 132.474 12.2757   5
  -4   6   1 158.813 17.4436   3
  -4   6   1 131.215 16.1451   4
  -4   6   1 105.437 14.2858   1
  -4   6   1 159.975 13.4189   2
  -3   6   1 605.929 23.1472   1
  -3   6   1 566.575 22.1841   3
  -3   6   1 536.899 19.0468   5
  -2   6   1 11.4362 9.95356   1
  -2   6   1 26.9043 9.95972   5
  -2   6   1 23.9319 10.0967   3
  -1   6   1 31.0998 10.2879   3
  -1   6   1 43.6811 10.8338   5
   0   6   1 48.5592 9.68323   3
   0   6   1 36.4243 11.2206   5
   1   6   1 1360.21 27.5670   5
   2   6   1 1311.11 26.8991   5
  -3  -6  -1 18.6457 7.38872   1
  -3  -6  -1 19.5135 9.11996   2
   3   6   1 -28.919 9.72434   5
  -4  -6  -1 65.1927 9.49223   1
  -4  -6  -1 42.8806 10.5458   2
   4   6   1 42.4421 11.6639   5
  -5  -6  -1 150.542 16.7474   2
  -5  -6  -1 166.118 13.1947   1
   5   6   1 150.506 15.6594   5
  -6  -6  -1 78.0405 16.6519   2
   6   6   1 92.3360 15.3863   5
  -7  -6  -1 19.4302 16.3337   2
  -7  -6  -1 11.4232 17.5434   4
  -8  -6  -1 -14.264 15.2194   4
  -8  -6  -1 13.9210 18.1585   2
  -9  -6  -1 -1.6293 19.9269   2
  -9  -6  -1 14.5960 18.6468   4
 -10  -6  -1 20.0971 21.5190   4
 -10  -6  -1 -14.520 21.7198   2
 -11  -6  -1 -8.7904 22.9426   2
 -11  -6  -1 28.0887 22.6235   4
 -11   7   1 31.8113 24.5309   1
 -11   7   1 1.92573 23.0312   2
 -11   7   1 -6.5111 22.2602   4
 -10   7   1 9.96716 22.5107   4
 -10   7   1 1.13580 19.4911   1
 -10   7   1 6.55496 20.9897   3
 -10   7   1 -21.078 20.9915   2
  -9   7   1 18.6929 20.0252   3
  -9   7   1 -2.6218 19.1065   4
  -9   7   1 18.1383 19.0743   2
  -9   7   1 16.6347 19.1034   1
  -8   7   1 32.8603 19.3130   4
  -8   7   1 73.4899 20.1774   2
  -8   7   1 6.56523 18.2972   3
  -8   7   1 73.8885 22.3930   1
  -7   7   1 83.6452 19.5328   3
  -7   7   1 77.5955 20.4795   1
  -7   7   1 60.7627 18.0027   4
  -7   7   1 112.597 19.1911   2
  -6   7   1 90.4120 18.0423   3
  -6   7   1 62.5473 18.0326   4
  -6   7   1 71.0059 15.5266   2
  -6   7   1 52.6232 18.3843   1
  -5   7   1 -7.1827 15.0124   1
  -5   7   1 -9.0812 10.8010   2
  -5   7   1 10.5383 13.0012   3
  -5   7   1 20.8151 14.9609   4
  -4   7   1 7.47777 10.3262   5
  -4   7   1 7.49444 13.0081   3
  -4   7   1 -4.6964 13.2029   1
  -3   7   1 13.1935 10.0347   5
  -3   7   1 18.3936 11.1796   1
  -3   7   1 14.0276 12.3288   3
  -2   7   1 319.902 18.6072   5
  -2   7   1 337.835 18.8560   1
  -2   7   1 313.611 19.7355   3
  -1   7   1 166.820 14.4513   5
  -1   7   1 161.841 14.2820   3
   0   7   1 367.503 19.3645   5
   0   7   1 374.398 17.9479   3
   1   7   1 126.253 13.4827   5
   2   7   1 225.248 17.2283   5
  -3  -7  -1 -14.309 7.55184   1
   3   7   1 0.03062 9.70834   5
  -4  -7  -1 137.796 12.1370   1
  -4  -7  -1 135.723 15.2161   2
   4   7   1 126.522 15.3183   5
  -5  -7  -1 157.657 17.8420   2
  -5  -7  -1 164.220 17.6770   1
   5   7   1 154.370 17.6865   5
  -6  -7  -1 36.0840 15.8940   2
   6   7   1 42.6441 14.5598   5
  -7  -7  -1 5.06048 16.8269   2
   7   7   1 12.9952 13.7488   5
  -8  -7  -1 22.9953 20.7787   4
  -8  -7  -1 -0.5663 18.1605   2
  -9  -7  -1 11.8220 20.7672   2
  -9  -7  -1 35.1065 22.1682   4
 -10  -7  -1 30.0696 22.9654   2
 -10  -7  -1 -18.389 22.4001   4
 -11  -7  -1 18.3511 24.8649   4
 -11  -7  -1 66.7072 23.7407   2
 -11   8   1 17.0196 24.5575   3
 -11   8   1 21.0211 24.0844   4
 -11   8   1 43.1076 27.8523   1
 -10   8   1 1.03792 21.7309   4
 -10   8   1 40.5688 30.0426   2
 -10   8   1 41.3093 24.1807   1
 -10   8   1 48.9723 24.5806   3
  -9   8   1 -31.023 17.4731   2
  -9   8   1 7.19595 21.2158   4
  -9   8   1 24.5741 21.9736   1
  -9   8   1 -17.203 19.1180   3
  -8   8   1 23.1052 21.2541   1
  -8   8   1 24.9023 18.8784   3
  -8   8   1 5.87679 16.8081   2
  -8   8   1 42.3715 21.2232   4
  -7   8   1 16.5678 18.6816   1
  -7   8   1 19.0961 16.3743   4
  -7   8   1 2.70588 15.0789   2
  -7   8   1 5.68104 17.5993   3
  -6   8   1 10.3349 13.5697   2
  -6   8   1 1.63262 16.0401   4
  -6   8   1 4.75994 17.2945   1
  -6   8   1 26.1597 16.7460   3
  -5   8   1 43.8481 16.4851   3
  -5   8   1 19.0910 15.9015   1
  -4   8   1 155.054 17.3472   1
  -4   8   1 182.574 20.4231   3
  -4   8   1 159.862 16.1744   5
  -3   8   1 164.521 15.8936   5
  -3   8   1 159.372 15.8652   1
  -3   8   1 177.724 19.0193   3
  -2   8   1 56.7794 13.5932   5
  -2   8   1 87.3218 14.3174   3
  -1   8   1 31.7919 11.4545   3
  -1   8   1 27.7849 10.8706   5
   0   8   1 21.4787 12.2249   5
   0   8   1 25.7887 10.2531   3
   1   8   1 28.9699 12.7746   5
   2   8   1 442.579 21.5654   5
  -3  -8  -1 116.590 11.8856   1
   3   8   1 114.496 14.8988   5
  -4  -8  -1 9.85712 11.9301   2
  -4  -8  -1 26.5185 10.1913   1
   4   8   1 -9.7138 12.2669   5
  -5  -8  -1 2.59799 13.0344   2
   5   8   1 -4.8334 13.6514   5
  -6  -8  -1 3.55750 15.1966   2
   6   8   1 0.85446 13.3355   5
  -7  -8  -1 18.4196 18.1056   2
   7   8   1 22.1701 15.2783   5
  -8  -8  -1 11.3114 17.8777   4
  -8  -8  -1 56.9823 19.5784   2
  -9  -8  -1 53.5806 23.1019   4
  -9  -8  -1 51.7513 22.3099   2
 -10  -8  -1 -10.788 21.7966   2
 -10  -8  -1 14.5776 20.5670   4
 -11  -8  -1 -19.705 23.7556   2
 -11  -8  -1 -19.268 22.8711   4
 -10   9   1 3.48322 21.5134   4
 -10   9   1 0.79236 22.4843   3
 -10   9   1 9.72834 23.9163   1
  -9   9   1 18.3057 22.4501   3
  -9   9   1 13.0585 22.0613   4
  -9   9   1 -43.834 19.9751   1
  -8   9   1 3.53378 18.0877   1
  -8   9   1 45.4768 20.7957   3
  -8   9   1 51.5819 22.7131   4
  -7   9   1 67.4734 19.1861   3
  -7   9   1 59.5711 20.9298   1
  -6   9   1 107.218 20.2476   3
  -6   9   1 139.223 21.5245   1
  -5   9   1 72.3107 18.2955   1
  -5   9   1 77.8933 18.9023   3
  -4   9   1 51.0266 14.8682   1
  -4   9   1 62.0072 14.5362   5
  -4   9   1 28.4833 16.3193   3
  -3   9   1 20.9487 12.9832   3
  -3   9   1 11.1852 11.9895   5
  -2   9   1 247.797 20.4645   3
  -2   9   1 183.202 16.8850   5
  -1   9   1 112.080 15.2496   3
  -1   9   1 86.0966 14.5009   5
   0   9   1 130.458 15.4853   5
   0   9   1 211.168 16.3683   3
   1   9   1 46.0748 13.5138   5
   2   9   1 93.6598 16.4153   5
   3   9   1 58.5952 14.7152   5
  -4  -9  -1 -12.064 12.0215   2
   4   9   1 0.38509 14.2526   5
  -5  -9  -1 19.8245 14.5640   2
   5   9   1 14.5362 14.3157   5
  -6  -9  -1 59.9575 17.9210   2
   6   9   1 58.7364 17.3395   5
  -7  -9  -1 59.5463 20.1734   2
   7   9   1 32.2168 16.9058   5
  -8  -9  -1 9.36256 19.7649   2
  -8  -9  -1 -12.814 18.9724   4
  -9  -9  -1 15.9907 22.6048   2
  -9  -9  -1 -24.329 21.0538   4
 -10  -9  -1 1.23829 22.1061   2
 -10  -9  -1 -1.5994 23.0052   4
 -10  10   1 7.12253 22.6604   1
 -10  10   1 49.2358 26.5485   3
  -9  10   1 2.35512 21.5788   1
  -9  10   1 40.1419 24.5846   3
  -8  10   1 -29.280 19.8461   1
  -8  10   1 16.0517 20.6076   3
  -7  10   1 -10.929 18.9271   3
  -7  10   1 20.4369 19.7584   1
  -6  10   1 22.7375 17.9079   1
  -6  10   1 18.2618 18.8807   3
  -5  10   1 21.8818 17.5356   3
  -5  10   1 78.2569 16.3353   5
  -5  10   1 87.4692 19.0850   1
  -4  10   1 149.182 18.4629   5
  -4  10   1 100.854 18.0063   3
  -3  10   1 150.742 19.9846   3
  -3  10   1 122.018 17.3474   5
  -2  10   1 47.0687 15.1182   3
  -2  10   1 61.2783 15.1075   5
  -1  10   1 -1.4768 12.3740   5
  -1  10   1 14.5176 13.6170   3
   0  10   1 8.69129 12.2843   3
   0  10   1 0.28026 12.5175   5
   1  10   1 13.4994 14.4450   5
   2  10   1 19.3864 12.9555   5
   3  10   1 2.12185 14.7253   5
  -4 -10  -1 14.2345 13.8198   2
   4  10   1 87.9654 17.8634   5
  -5 -10  -1 0.07909 14.2024   2
   5  10   1 55.6023 17.4020   5
  -6 -10  -1 1.83500 16.9812   2
   6  10   1 19.8749 17.0929   5
  -7 -10  -1 23.5106 18.4744   2
   7  10   1 68.8765 19.8245   5
  -8 -10  -1 32.2559 20.8140   2
  -9 -10  -1 32.9274 25.0998   4
  -9 -10  -1 38.4130 23.8238   2
 -10 -10  -1 -18.143 22.2836   4
 -10 -10  -1 -5.9464 24.1678   2
 -10  11   1 -1.6478 25.4867   3
  -9  11   1 -11.614 19.9687   1
  -9  11   1 -4.1142 22.5673   3
  -8  11   1 69.2779 24.6472   3
  -8  11   1 31.2004 23.2454   1
  -7  11   1 61.7161 23.2532   3
  -7  11   1 74.6134 20.6962   1
  -6  11   1 55.8638 21.5433   3
  -5  11   1 75.4711 19.2662   3
  -5  11   1 96.5316 17.9610   5
  -4  11   1 -20.387 14.5876   5
  -4  11   1 49.9833 18.7687   3
  -3  11   1 64.4428 18.5936   3
  -3  11   1 66.5269 17.1853   5
  -2  11   1 126.324 18.0571   5
  -2  11   1 125.324 19.6988   3
  -1  11   1 122.748 18.6149   3
  -1  11   1 101.291 18.8950   5
   0  11   1 72.9068 15.9555   5
   1  11   1 15.8756 15.3328   5
   2  11   1 -5.9939 13.2010   5
   3  11   1 41.6124 16.5317   5
  -4 -11  -1 83.5188 16.9998   2
   4  11   1 74.0554 18.6600   5
  -5 -11  -1 42.3876 16.6655   2
   5  11   1 38.5900 18.3472   5
  -6 -11  -1 68.5930 19.4710   2
   6  11   1 57.9912 19.3083   5
  -7 -11  -1 20.3736 19.8825   2
   7  11   1 5.76190 17.8332   5
  -8 -11  -1 -8.8371 19.6407   2
  -9 -11  -1 -11.028 23.2239   4
  -9 -11  -1 -6.3367 21.4805   2
  -9  12   1 5.07614 23.9938   3
  -8  12   1 -16.515 21.6860   3
  -7  12   1 22.4237 21.6759   3
  -6  12   1 5.77972 19.3867   3
  -5  12   1 126.047 22.6850   5
  -5  12   1 56.5818 22.1588   3
  -4  12   1 54.6043 20.7825   3
  -4  12   1 53.6338 18.2656   5
  -3  12   1 72.2351 18.3704   5
  -3  12   1 71.9705 20.0456   3
  -2  12   1 20.2131 16.8644   5
  -2  12   1 10.8487 15.9986   3
  -1  12   1 -19.292 14.8057   3
  -1  12   1 23.7809 17.4126   5
   0  12   1 -6.2895 14.2614   5
   1  12   1 21.2444 16.4256   5
   2  12   1 45.1964 18.3477   5
   3  12   1 18.8032 17.2778   5
   4  12   1 27.6164 17.9885   5
  -5 -12  -1 5.06197 18.1671   2
   5  12   1 26.2844 18.8873   5
  -6 -12  -1 -7.0399 17.5327   2
   6  12   1 -13.146 18.0547   5
  -7 -12  -1 14.1526 20.7428   2
   7  12   1 26.8142 20.5043   5
  -8 -12  -1 -4.2818 21.3278   2
  -9 -12  -1 33.8788 23.4971   2
  -9 -12  -1 38.8929 26.9831   4
  -8  13   1 43.4980 25.4691   3
  -7  13   1 39.8041 24.4540   3
  -6  13   1 3.17624 21.5756   3
  -5  13   1 10.7438 20.0707   3
  -4  13   1 9.47187 19.3770   3
  -4  13   1 3.30681 17.8627   5
  -3  13   1 67.7559 21.4185   3
  -3  13   1 68.8799 20.3907   5
  -2  13   1 33.5961 16.0246   5
  -2  13   1 -6.4827 16.9546   3
  -1  13   1 62.9174 19.2295   5
   0  13   1 108.454 21.8970   5
   1  13   1 0.68279 15.6052   5
   2  13   1 0.06733 17.5330   5
   3  13   1 7.27314 16.0975   5
   4  13   1 8.31346 18.6467   5
   5  13   1 43.4380 20.9523   5
   6  13   1 31.8834 21.2022   5
   7  13   1 -0.6635 20.7990   5
  -8  14   1 21.1467 24.3804   3
  -7  14   1 5.14446 23.5679   3
  -6  14   1 15.5110 23.1498   3
  -5  14   1 41.0998 22.4144   3
  -4  14   1 44.1168 20.0857   5
  -4  14   1 84.0870 22.9314   3
  -3  14   1 73.8157 22.4394   3
  -3  14   1 96.9155 22.0230   5
  -2  14   1 17.4469 19.6190   3
  -2  14   1 22.6968 18.7890   5
  -1  14   1 12.9018 16.9133   5
   0  14   1 40.7819 20.9539   5
   1  14   1 0.48015 17.4622   5
   2  14   1 10.6720 17.4133   5
   3  14   1 0.73735 19.8064   5
   4  14   1 -6.1623 19.7833   5
   5  14   1 1.36282 21.0622   5
   6  14   1 -3.8895 21.1584   5
   7  14   1 -11.140 21.4285   5
  -7  15   1 -2.8757 23.5699   3
  -6  15   1 4.32384 23.8328   3
  -5  15   1 14.7499 22.6238   3
  -4  15   1 3.16026 20.2743   5
  -4  15   1 23.3259 21.9215   3
  -3  15   1 -18.110 18.6979   5
  -3  15   1 8.65090 21.4169   3
  -2  15   1 10.7477 19.3504   5
  -1  15   1 21.2075 20.7509   5
   0  15   1 -33.153 18.3096   5
   1  15   1 -10.024 20.1266   5
   2  15   1 3.47440 20.3870   5
   3  15   1 -17.078 20.3870   5
   4  15   1 41.1983 23.5078   5
   5  15   1 36.8723 23.6827   5
   6  15   1 26.9364 24.5424   5
  -6  16   1 22.4291 26.5800   3
  -5  16   1 80.6848 26.5606   3
  -4  16   1 61.7349 23.7356   5
  -3  16   1 54.0222 22.9111   5
  -2  16   1 15.5886 21.2341   5
  -1  16   1 4.22729 19.9846   5
   0  16   1 -17.585 20.0141   5
   1  16   1 1.15594 21.3989   5
   2  16   1 -3.5735 21.6417   5
   3  16   1 -13.349 21.8605   5
   4  16   1 -12.387 19.3626   5
   5  16   1 12.1662 23.0761   5
  -4  17   1 17.7835 22.7304   5
  -3  17   1 -4.1133 21.8851   5
  -2  17   1 28.8164 22.8673   5
  -1  17   1 27.5881 23.0393   5
   0  17   1 12.5320 20.1415   5
   1  17   1 10.2314 22.7280   5
   2  17   1 4.90981 20.1679   5
   3  17   1 39.9754 25.2345   5
   4  17   1 13.2291 24.8864   5
  -2  18   1 62.1799 24.9129   5
  -1  18   1 27.3222 22.5910   5
   0  18   1 -11.888 21.5890   5
   1  18   1 -2.5696 23.9309   5
   2  17  -2 37.9402 24.2759   5
   1  17  -2 14.0767 23.5976   5
   0  17  -2 47.5498 25.4360   5
  -1  17  -2 -20.771 22.0852   5
  -2  17  -2 15.4583 25.2397   5
  -3  17  -2 15.7258 23.3910   5
  -4  17  -2 52.4463 25.6867   5
  -4  17  -2 68.6673 40.3258   3
   4  16  -2 2.03482 22.5405   5
   3  16  -2 15.7865 23.4930   5
   2  16  -2 -26.490 21.3277   5
   1  16  -2 18.7558 22.4543   5
   0  16  -2 -9.9383 18.8190   5
  -1  16  -2 -12.208 19.2996   5
  -2  16  -2 32.1059 21.8182   5
  -3  16  -2 -51.150 18.6783   5
  -4  16  -2 -46.063 19.9686   5
  -4  16  -2 4.76592 24.1605   3
  -5  16  -2 44.3556 26.0301   3
  -6  16  -2 -25.028 23.3346   3
   5  15  -2 34.6551 23.9301   5
   4  15  -2 -12.155 20.5026   5
   3  15  -2 2.62279 22.4167   5
   2  15  -2 22.2967 21.1967   5
   1  15  -2 -29.367 19.1648   5
   0  15  -2 -13.623 17.0150   5
  -1  15  -2 27.5342 22.6281   5
  -2  15  -2 -3.6854 20.6695   5
  -3  15  -2 49.7260 22.0877   5
  -3  15  -2 25.4212 21.6276   3
  -4  15  -2 28.0618 21.2962   5
  -4  15  -2 11.8962 21.4330   3
  -5  15  -2 -1.3967 22.7769   3
  -6  15  -2 -11.899 23.1284   3
  -7  15  -2 0.08707 25.1755   3
   6  14  -2 -16.613 21.7438   5
   5  14  -2 26.3324 22.3966   5
   4  14  -2 38.2206 22.0880   5
   3  14  -2 -22.615 18.1757   5
   2  14  -2 5.37039 20.2704   5
   1  14  -2 94.5826 22.6498   5
   0  14  -2 -4.6505 16.5010   5
  -1  14  -2 -25.900 18.2021   5
  -2  14  -2 1.97339 19.8222   5
  -2  14  -2 12.8138 19.0760   3
  -3  14  -2 25.8804 21.0066   5
  -3  14  -2 13.5123 19.2163   3
  -4  14  -2 -6.1755 20.1212   3
  -4  14  -2 25.3010 19.3735   5
  -5  14  -2 -13.777 20.7536   3
  -6  14  -2 -25.142 20.4260   3
  -7  14  -2 -3.6822 22.9426   3
  -8  14  -2 15.1494 25.5980   3
  -7 -13   2 5.09929 23.3774   2
   6  13  -2 10.0428 21.0563   5
  -6 -13   2 6.20588 21.7406   2
   5  13  -2 -11.580 19.1708   5
  -5 -13   2 29.8058 20.4379   2
   4  13  -2 39.8476 21.1602   5
   3  13  -2 41.5225 21.3755   5
   2  13  -2 15.1205 19.3298   5
   1  13  -2 17.9030 19.7222   5
   0  13  -2 -13.110 17.9096   5
  -1  13  -2 -28.720 17.2705   5
  -2  13  -2 -3.9574 16.0466   3
  -2  13  -2 31.0656 19.9844   5
  -3  13  -2 37.6726 18.5342   5
  -3  13  -2 8.14398 18.6596   3
  -4  13  -2 -15.167 19.0500   3
  -4  13  -2 -5.2462 18.1595   5
  -5  13  -2 15.7237 19.9721   3
  -6  13  -2 0.12323 20.8577   3
  -7  13  -2 16.2118 22.1431   3
  -8  13  -2 45.7070 24.7897   3
  -8 -12   2 16.6716 24.8777   2
  -7 -12   2 21.2863 22.7427   2
   6  12  -2 30.4653 20.6818   5
  -6 -12   2 -4.4836 19.3028   2
   5  12  -2 10.9736 18.3818   5
  -5 -12   2 -49.106 16.5016   2
   4  12  -2 18.2217 17.1352   5
   3  12  -2 11.7684 16.0693   5
  -3 -12   2 -3.9171 22.7024   1
   2  12  -2 38.5801 16.9154   5
   1  12  -2 10.7573 17.8853   5
   0  12  -2 4.55476 17.3440   5
  -1  12  -2 20.3812 17.6716   5
  -1  12  -2 8.26985 15.1022   3
  -2  12  -2 69.6506 18.8871   3
  -2  12  -2 35.3453 18.9098   5
  -3  12  -2 75.6933 20.7173   3
  -3  12  -2 34.0772 17.1794   5
  -4  12  -2 -19.856 15.6969   5
  -4  12  -2 -1.7082 18.4413   3
  -5  12  -2 -23.665 18.7304   3
  -6  12  -2 37.4936 21.9406   3
  -7  12  -2 36.6352 19.9541   3
  -8  12  -2 57.9524 25.7131   3
  -9  12  -2 21.3834 23.9904   3
  -9 -11   2 35.2753 26.0878   2
  -9 -11   2 41.2489 26.0274   4
  -8 -11   2 -27.305 20.7849   2
  -8 -11   2 -11.181 22.2933   4
  -7 -11   2 -3.9391 20.5394   2
   6  11  -2 -1.6589 17.7684   5
  -6 -11   2 -8.7192 17.8453   2
   5  11  -2 72.2806 20.3244   5
  -5 -11   2 31.7322 18.1081   2
   4  11  -2 65.7057 19.9791   5
   3  11  -2 48.8889 19.1146   5
  -3 -11   2 44.3094 16.3254   1
   2  11  -2 -19.792 15.5102   5
   1  11  -2 11.8772 17.4988   5
   0  11  -2 45.0761 18.5075   5
  -1  11  -2 -12.087 15.4031   5
  -1  11  -2 1.87173 13.0395   3
  -2  11  -2 36.9169 16.0451   5
  -2  11  -2 93.3402 18.6403   3
  -3  11  -2 66.0957 19.1954   5
  -3  11  -2 87.5102 18.9258   3
  -4  11  -2 23.5376 17.3436   5
  -4  11  -2 57.9282 19.4845   3
  -5  11  -2 -1.8759 19.6690   3
  -6  11  -2 -15.260 19.1085   3
  -7  11  -2 -13.675 17.3229   3
  -8  11  -2 -8.8696 20.3877   3
  -9  11  -2 13.7889 24.0060   3
 -10  11  -2 1.76885 24.1704   3
  -9 -10   2 15.5257 23.7431   4
  -9 -10   2 32.7623 23.6851   2
  -8 -10   2 13.3599 21.4973   2
  -8 -10   2 4.17289 22.6431   4
  -7 -10   2 26.4049 21.8538   2
   6  10  -2 21.6370 17.7759   5
  -6 -10   2 37.4200 19.3725   2
   5  10  -2 21.4037 16.5283   5
  -5 -10   2 82.6545 19.0059   2
   4  10  -2 26.5475 17.3598   5
  -4 -10   2 5.70098 13.3420   1
   3  10  -2 -7.6102 13.4480   5
  -3 -10   2 7.58504 13.7590   1
   2  10  -2 -7.0024 15.2908   5
   1  10  -2 15.8083 15.6127   5
   0  10  -2 164.999 20.3155   5
   0  10  -2 169.939 16.6065   3
  -1  10  -2 247.976 20.3832   3
  -1  10  -2 251.842 21.1308   5
  -2  10  -2 70.5589 17.9499   5
  -2  10  -2 111.785 18.7196   3
  -3  10  -2 -9.0570 15.1141   3
  -3  10  -2 5.27662 15.6754   5
  -4  10  -2 -10.142 14.7930   5
  -4  10  -2 30.5267 15.6246   3
  -5  10  -2 -4.1682 17.6017   3
  -6  10  -2 102.758 23.8189   3
  -7  10  -2 64.4137 20.5208   3
  -8  10  -2 11.9973 21.6211   3
  -9  10  -2 -1.8604 22.1030   3
 -10  10  -2 -36.909 21.4720   3
 -10  -9   2 -1.4090 22.8901   4
 -10  -9   2 29.3719 25.3215   2
  -9  -9   2 9.31663 22.5323   4
  -9  -9   2 27.5821 22.9817   2
  -8  -9   2 -13.864 21.8047   4
  -8  -9   2 13.5394 20.4209   2
  -7  -9   2 21.3057 20.3154   2
   6   9  -2 40.4176 17.4590   5
  -6  -9   2 39.3550 18.6257   2
   5   9  -2 38.8855 16.2378   5
  -5  -9   2 20.7966 17.3971   2
  -5  -9   2 69.3664 15.5216   1
   4   9  -2 -4.2911 13.7970   5
  -4  -9   2 -7.6184 12.7064   1
   3   9  -2 139.781 19.0229   5
  -3  -9   2 113.652 16.0148   1
   2   9  -2 141.440 19.0288   5
   1   9  -2 157.167 20.5641   3
   1   9  -2 133.898 17.3719   5
   0   9  -2 0.53715 10.6124   3
   0   9  -2 10.4427 14.3511   5
  -1   9  -2 55.7678 13.9029   5
  -1   9  -2 83.2264 14.1449   3
  -2   9  -2 141.330 17.2153   5
  -2   9  -2 148.076 17.9466   3
  -3   9  -2 356.443 24.9479   5
  -3   9  -2 395.379 26.5432   3
  -4   9  -2 177.892 22.2373   3
  -4   9  -2 159.025 18.7378   5
  -5   9  -2 -16.692 14.0111   3
  -6   9  -2 54.7257 19.2531   3
  -7   9  -2 -25.765 17.9964   3
  -8   9  -2 -23.215 16.6217   3
  -9   9  -2 -22.185 20.3719   3
  -9   9  -2 8.16925 20.8939   1
 -10   9  -2 27.5130 22.9385   1
 -10   9  -2 29.5113 23.4431   3
 -11   9  -2 -5.1200 24.4758   4
 -11   9  -2 0.20965 24.0259   3
 -10  -8   2 -16.308 22.7729   2
 -10  -8   2 25.1294 25.1158   4
  -9  -8   2 30.2831 23.3661   4
  -9  -8   2 2.58118 21.6966   2
  -8  -8   2 -19.742 19.9192   2
  -8  -8   2 39.9893 22.6277   4
  -7  -8   2 40.8402 20.7559   2
  -7  -8   2 61.3410 21.6757   4
   6   8  -2 31.4388 15.6384   5
  -6  -8   2 28.4673 18.2253   2
   5   8  -2 86.4155 16.7674   5
  -5  -8   2 74.4362 18.2648   2
  -5  -8   2 64.9406 14.9399   1
   4   8  -2 34.3921 13.9073   5
  -4  -8   2 20.9134 13.2294   1
   3   8  -2 -4.6873 11.1539   5
  -3  -8   2 -7.1311 11.3985   1
   2   8  -2 83.3706 15.6283   5
   1   8  -2 48.9844 9.83010   3
   1   8  -2 39.1193 14.0516   5
   0   8  -2 144.790 16.1478   5
   0   8  -2 170.012 14.4748   3
  -1   8  -2 247.341 17.6118   3
  -1   8  -2 254.424 19.9724   5
  -2   8  -2 256.837 19.1246   3
  -2   8  -2 258.171 20.3366   5
  -3   8  -2 10.1891 13.2851   5
  -3   8  -2 23.3481 13.5334   3
  -4   8  -2 5.53803 14.8788   3
  -5   8  -2 110.193 19.5906   3
  -6   8  -2 47.5286 17.0730   3
  -7   8  -2 80.0486 21.5906   3
  -7   8  -2 18.7465 16.7075   1
  -8   8  -2 25.6502 20.1298   3
  -8   8  -2 28.2248 19.9754   1
  -8   8  -2 14.2280 18.0820   4
  -9   8  -2 3.83400 20.9910   1
  -9   8  -2 -13.127 21.1517   3
  -9   8  -2 -15.870 18.0717   4
  -9   8  -2 -7.9190 19.1253   2
 -10   8  -2 -9.1913 21.0618   2
 -10   8  -2 12.2551 22.0244   1
 -10   8  -2 -5.5278 21.7482   4
 -10   8  -2 4.43467 22.4609   3
 -11   8  -2 -37.317 20.5228   4
 -11   8  -2 -8.0819 23.7644   2
 -11   8  -2 -27.160 20.9273   1
 -11   8  -2 -8.9878 22.8596   3
 -10  -7   2 -10.518 22.9776   2
 -10  -7   2 -9.0610 23.8830   4
  -9  -7   2 30.1114 21.4980   2
  -9  -7   2 40.7795 23.8811   4
  -8  -7   2 -2.7569 20.0634   2
  -8  -7   2 -4.7475 18.9349   4
  -7  -7   2 17.2349 18.8373   2
  -7  -7   2 0.68665 18.2720   4
  -6  -7   2 7.35743 16.6811   2
  -6  -7   2 -2.4428 12.6557   1
   5   7  -2 28.8631 13.6146   5
  -5  -7   2 39.1286 16.5368   2
  -5  -7   2 34.0246 12.8824   1
   4   7  -2 142.040 16.3019   5
  -4  -7   2 157.834 15.3051   1
   3   7  -2 162.021 16.6883   5
  -3  -7   2 156.124 14.3995   1
   2   7  -2 211.390 17.7105   5
   1   7  -2 33.5986 8.40355   3
   1   7  -2 27.2298 12.6502   5
   0   7  -2 211.635 15.4978   3
   0   7  -2 229.969 17.9631   5
  -1   7  -2 611.662 21.1290   3
  -1   7  -2 576.270 23.4957   5
  -2   7  -2 320.088 19.8116   3
  -2   7  -2 364.592 20.9605   5
  -3   7  -2 138.614 16.3632   3
  -3   7  -2 149.727 16.3030   5
  -4   7  -2 70.0180 14.5556   3
  -5   7  -2 34.3380 14.1165   1
  -5   7  -2 3.34552 14.7048   3
  -6   7  -2 50.1072 16.2112   4
  -6   7  -2 31.8335 14.9339   1
  -6   7  -2 33.3646 15.4834   3
  -7   7  -2 5.45124 15.4326   3
  -7   7  -2 -2.7536 15.7960   4
  -7   7  -2 20.2704 16.1236   2
  -7   7  -2 19.7452 15.2835   1
  -8   7  -2 20.4914 19.3571   3
  -8   7  -2 9.98381 17.2741   2
  -8   7  -2 30.2590 18.1256   4
  -8   7  -2 9.68647 18.4135   1
  -9   7  -2 48.4860 20.8711   1
  -9   7  -2 41.0219 21.3815   2
  -9   7  -2 71.4062 22.1086   3
  -9   7  -2 73.8944 21.6155   4
 -10   7  -2 -2.3706 21.0434   2
 -10   7  -2 24.2283 21.3071   4
 -10   7  -2 40.3587 23.8701   3
 -10   7  -2 31.8041 22.8019   1
 -11   7  -2 25.6191 24.0028   2
 -11   7  -2 44.1997 23.4863   4
 -11   7  -2 30.0280 23.8651   1
 -11   7  -2 36.1597 23.9379   3
 -11  -6   2 -7.2810 23.8194   4
 -11  -6   2 3.18857 23.1713   2
 -10  -6   2 15.0951 19.9833   2
 -10  -6   2 42.3919 24.9829   4
  -9  -6   2 15.7458 21.9502   4
  -9  -6   2 12.3233 20.8049   2
  -8  -6   2 33.0647 18.1658   2
  -8  -6   2 46.7549 19.1081   4
  -7  -6   2 133.845 22.7367   4
  -7  -6   2 130.341 22.5238   2
  -7  -6   2 119.447 17.9352   1
  -6  -6   2 106.954 15.3408   1
  -6  -6   2 55.9947 16.3777   2
  -6  -6   2 78.1835 19.8156   4
   5   6  -2 50.3402 12.8651   5
  -5  -6   2 68.7530 16.3923   2
  -5  -6   2 39.2096 12.6532   1
   4   6  -2 -8.2306 10.3623   5
  -4  -6   2 -11.547 10.0878   1
   3   6  -2 30.9250 11.0229   5
  -3  -6   2 28.3871 10.1858   1
   2   6  -2 32.2476 11.1888   5
   1   6  -2 470.970 14.6268   3
   1   6  -2 490.820 19.9665   5
   0   6  -2 498.600 17.0255   3
   0   6  -2 482.111 21.0247   5
  -1   6  -2 82.5953 11.9107   5
  -1   6  -2 72.3923 11.2791   3
  -2   6  -2 304.223 18.6509   3
  -2   6  -2 287.481 18.4040   5
  -3   6  -2 107.310 14.4042   3
  -3   6  -2 121.932 13.3167   5
  -4   6  -2 102.855 15.0344   1
  -4   6  -2 150.285 17.3189   3
  -5   6  -2 121.992 17.8718   3
  -5   6  -2 102.431 14.9318   4
  -5   6  -2 120.220 16.6488   1
  -5   6  -2 118.018 15.8500   2
  -6   6  -2 36.2721 16.3640   1
  -6   6  -2 6.33797 14.5135   3
  -6   6  -2 5.66973 13.8411   4
  -6   6  -2 15.3824 13.6512   2
  -7   6  -2 432.240 30.1555   1
  -7   6  -2 404.349 28.0371   4
  -7   6  -2 389.336 29.2142   2
  -7   6  -2 394.383 29.9354   3
  -8   6  -2 190.711 22.4051   4
  -8   6  -2 234.450 26.0196   2
  -8   6  -2 169.295 23.8826   1
  -8   6  -2 211.397 24.6777   3
  -9   6  -2 59.3969 21.8010   1
  -9   6  -2 9.96321 19.9121   3
  -9   6  -2 10.7466 18.8292   2
  -9   6  -2 22.7037 18.1818   4
 -10   6  -2 3.86203 19.8590   4
 -10   6  -2 10.0466 20.8079   1
 -10   6  -2 -0.4254 21.2707   3
 -10   6  -2 -12.671 19.6656   2
 -11   6  -2 -5.2183 20.4986   4
 -11   6  -2 15.7048 21.5510   3
 -11   6  -2 23.7058 23.8887   2
 -11   6  -2 17.0336 22.5740   1
 -11  -5   2 36.6388 24.7597   2
 -11  -5   2 37.2611 26.3904   4
 -10  -5   2 39.8441 23.3616   2
 -10  -5   2 35.2195 24.2714   4
  -9  -5   2 53.8736 21.5683   2
  -9  -5   2 6.24097 22.1123   4
  -8  -5   2 13.4544 16.3200   2
  -8  -5   2 18.4845 19.7255   4
  -7  -5   2 8.24395 17.4379   4
  -7  -5   2 -17.583 12.9762   1
  -7  -5   2 16.7047 15.5910   2
  -6  -5   2 18.5447 16.0797   2
  -6  -5   2 -9.1192 15.5679   4
  -6  -5   2 -2.4855 11.6888   1
   5   5  -2 33.2863 11.2767   5
  -5  -5   2 45.0271 13.5062   2
  -5  -5   2 52.2895 12.3128   1
   4   5  -2 94.2525 12.4847   5
  -4  -5   2 106.187 12.9586   1
   3   5  -2 162.964 13.5571   5
  -3  -5   2 141.278 12.8907   1
   2   5  -2 3.99591 9.36602   5
  -2  -5   2 11.7451 8.72010   1
   1   5  -2 35.1495 6.85811   3
   1   5  -2 49.9760 11.4723   5
   0   5  -2 29.6593 8.06606   3
   0   5  -2 -1.3702 9.11824   5
  -1   5  -2 120.094 12.4928   5
  -1   5  -2 103.153 11.3209   3
  -2   5  -2 479.700 19.4709   5
  -2   5  -2 453.796 19.2761   3
  -3   5  -2 80.3896 12.7583   3
  -4   5  -2 9.15496 11.0628   1
  -4   5  -2 16.2035 10.4903   4
  -4   5  -2 -0.8612 11.2156   3
  -4   5  -2 10.9519 10.3646   2
  -5   5  -2 101.246 14.8997   3
  -5   5  -2 90.9253 14.2848   1
  -5   5  -2 112.917 15.2152   2
  -5   5  -2 94.2648 14.6150   4
  -6   5  -2 77.4921 15.9237   4
  -6   5  -2 43.3202 16.2037   1
  -6   5  -2 71.5524 15.0098   3
  -6   5  -2 56.7761 15.0911   2
  -7   5  -2 32.2476 16.9268   2
  -7   5  -2 32.9601 16.4725   3
  -7   5  -2 31.8019 15.3726   1
  -7   5  -2 78.2260 17.2095   4
  -8   5  -2 35.0630 17.8468   3
  -8   5  -2 57.0442 18.8379   1
  -8   5  -2 27.4331 16.5810   4
  -8   5  -2 34.5206 19.0282   2
  -9   5  -2 94.1374 22.8595   2
  -9   5  -2 87.9835 20.5318   4
  -9   5  -2 138.333 23.5571   3
  -9   5  -2 116.839 23.0460   1
 -10   5  -2 29.9312 21.3994   4
 -10   5  -2 10.1123 20.0494   1
 -10   5  -2 4.78424 20.9963   3
 -10   5  -2 -5.8733 21.1067   2
 -11   5  -2 -41.170 19.5614   4
 -11   5  -2 -22.534 21.7670   2
 -11   5  -2 -6.7306 21.7435   1
 -12   5  -2 -25.722 22.1836   1
 -12   5  -2 14.0585 25.0882   2
 -12   5  -2 11.6162 23.5109   4
 -11  -4   2 -14.713 24.6387   4
 -11  -4   2 -7.4503 23.7502   2
 -10  -4   2 1.26119 21.0149   4
 -10  -4   2 -7.9240 18.7283   2
  -9  -4   2 -5.4348 19.9450   4
  -9  -4   2 9.72609 19.8967   2
  -8  -4   2 91.3213 18.7713   2
  -8  -4   2 102.286 17.5254   1
  -8  -4   2 76.3436 20.4284   4
  -7  -4   2 117.590 19.1514   2
  -7  -4   2 126.521 17.4007   1
  -7  -4   2 132.288 21.3071   4
  -6  -4   2 28.1744 15.2649   4
  -6  -4   2 30.8529 12.6200   1
  -6  -4   2 17.1531 13.8814   2
   5   4  -2 75.1166 11.8187   5
  -5  -4   2 106.226 16.5055   2
  -5  -4   2 82.8008 14.9503   4
  -5  -4   2 93.0304 13.1196   1
   4   4  -2 75.4135 10.7741   5
  -4  -4   2 77.4913 11.4616   1
  -4  -4   2 83.6237 12.4197   2
   3   4  -2 15.2020 8.49297   5
  -3  -4   2 1.97189 8.45496   1
   2   4  -2 2.13551 8.67884   5
  -2  -4   2 5.22984 8.03081   1
   1   4  -2 401.926 17.2940   5
   0   4  -2 66.2024 8.36604   3
   0   4  -2 60.3549 10.8519   5
  -1   4  -2 194.260 13.5476   3
  -1   4  -2 184.126 13.5264   5
  -2   4  -2 44.1049 10.2678   5
  -2   4  -2 50.0194 9.79037   3
  -3   4  -2 8.76154 8.66135   4
  -3   4  -2 3.36375 9.54931   1
  -3   4  -2 -1.8542 8.71534   3
  -4   4  -2 591.146 20.1867   4
  -4   4  -2 605.993 20.7025   2
  -4   4  -2 621.065 21.0436   1
  -4   4  -2 618.485 23.0716   3
  -5   4  -2 834.520 25.8175   4
  -5   4  -2 842.562 27.8266   3
  -5   4  -2 815.067 25.5890   1
  -5   4  -2 858.535 26.4375   2
  -6   4  -2 482.370 23.7258   3
  -6   4  -2 499.101 25.6820   1
  -6   4  -2 454.816 24.1548   4
  -6   4  -2 518.576 27.3298   2
  -7   4  -2 418.808 27.0186   4
  -7   4  -2 395.442 25.8840   3
  -7   4  -2 447.688 27.1528   2
  -7   4  -2 382.028 24.6894   1
  -8   4  -2 113.446 20.0404   3
  -8   4  -2 155.143 20.0815   4
  -8   4  -2 164.036 21.4128   1
  -8   4  -2 141.063 22.2468   2
  -9   4  -2 -11.800 17.1040   3
  -9   4  -2 -16.933 17.0474   1
  -9   4  -2 7.76734 17.2309   4
  -9   4  -2 2.94820 18.7588   2
 -10   4  -2 -1.5272 18.9967   4
 -10   4  -2 -9.7289 17.6105   2
 -10   4  -2 -25.095 17.5285   1
 -10   4  -2 6.99842 20.0660   3
 -11   4  -2 1.24369 20.7492   1
 -11   4  -2 -6.4332 23.0034   2
 -11   4  -2 -2.8321 21.1738   4
 -12   4  -2 10.8786 25.3607   2
 -12   4  -2 30.6559 23.2286   4
 -11  -3   2 43.3355 21.7341   2
 -11  -3   2 -30.257 21.8809   4
 -10  -3   2 64.5619 23.2492   2
 -10  -3   2 52.4907 23.1468   4
  -9  -3   2 -22.912 18.8221   4
  -9  -3   2 -35.641 18.0696   2
  -9  -3   2 -7.0251 15.1929   1
  -8  -3   2 14.8492 18.3606   4
  -8  -3   2 2.13760 17.4618   2
  -8  -3   2 20.5701 14.4971   1
  -7  -3   2 -12.073 15.3599   4
  -7  -3   2 -8.9616 11.6034   1
  -7  -3   2 23.4236 16.0328   2
  -6  -3   2 30.2642 12.7688   1
  -6  -3   2 30.8955 14.6762   2
  -6  -3   2 14.7779 14.8940   4
   5   3  -2 5.49367 8.03302   5
  -5  -3   2 23.6918 12.7571   2
  -5  -3   2 1.90762 12.9845   4
  -5  -3   2 -7.8057 9.57868   1
   4   3  -2 170.450 11.5938   5
  -4  -3   2 138.246 14.1818   4
  -4  -3   2 162.108 14.4268   2
  -4  -3   2 176.001 13.7277   1
  -3  -3   2 36.1302 8.81635   1
  -2  -3   2 108.352 10.5982   1
   0   3  -2 21.3141 6.92536   3
  -1   3  -2 -4.9051 7.89148   3
  -2   3  -2 12.1630 9.71982   3
  -3   3  -2 1237.62 24.5359   1
  -3   3  -2 1310.11 26.0873   3
  -3   3  -2 1308.24 22.5265   4
  -3   3  -2 1288.33 25.0398   2
  -4   3  -2 2176.01 35.0476   3
  -4   3  -2 2147.91 34.3593   2
  -4   3  -2 2187.23 32.0558   4
  -4   3  -2 2175.49 33.1070   1
  -5   3  -2 501.429 21.9432   3
  -5   3  -2 468.529 20.5481   4
  -5   3  -2 487.512 21.9255   1
  -5   3  -2 469.358 23.1141   2
  -6   3  -2 106.599 15.4253   3
  -6   3  -2 75.7545 14.5538   4
  -6   3  -2 66.5995 14.1008   1
  -6   3  -2 71.7625 15.4770   2
  -7   3  -2 1.89737 12.9492   3
  -7   3  -2 11.6845 15.3258   2
  -7   3  -2 16.9986 14.1650   4
  -7   3  -2 35.1760 14.8954   1
  -8   3  -2 257.926 23.9228   2
  -8   3  -2 268.292 23.5015   3
  -8   3  -2 263.870 23.1928   1
  -8   3  -2 258.412 24.0039   4
  -9   3  -2 164.400 22.6396   3
  -9   3  -2 134.137 21.7206   1
  -9   3  -2 73.9540 19.8368   2
  -9   3  -2 111.540 20.7835   4
 -10   3  -2 25.0871 19.9483   1
 -10   3  -2 42.6937 19.4396   4
 -10   3  -2 16.9914 21.3062   2
 -11   3  -2 48.3495 25.1463   2
 -11   3  -2 2.75745 20.7775   4
 -11   3  -2 -32.187 19.7321   1
 -12   3  -2 -12.441 24.6249   2
 -12   3  -2 -4.5725 21.3311   4
 -11  -2   2 20.2009 23.4538   4
 -11  -2   2 -15.134 20.7305   2
 -10  -2   2 3.64752 21.6604   4
 -10  -2   2 -15.141 17.8111   2
  -9  -2   2 10.1327 17.8231   4
  -9  -2   2 40.2399 18.7428   2
  -9  -2   2 27.1533 16.3557   1
  -8  -2   2 122.745 22.2376   2
  -8  -2   2 105.677 17.6829   1
  -8  -2   2 50.7448 17.5113   4
  -7  -2   2 138.869 16.9856   1
  -7  -2   2 151.829 20.4031   2
  -7  -2   2 118.545 18.0236   4
  -6  -2   2 8.56789 14.1479   2
  -6  -2   2 30.4655 14.8919   4
  -6  -2   2 33.5982 12.4800   1
  -5  -2   2 277.978 19.4662   4
  -5  -2   2 278.815 18.1950   1
  -5  -2   2 254.563 19.0946   2
  -4  -2   2 240.294 15.6893   1
  -4  -2   2 248.636 16.7154   2
  -4  -2   2 258.702 18.2499   4
  -3  -2   2 71.4393 11.9928   4
  -3  -2   2 64.7040 9.71647   2
  -3  -2   2 69.1505 9.72322   1
  -2  -2   2 494.578 15.5522   1
  -1  -2   2 383.023 13.8188   1
  -1   2  -2 50.2482 7.13328   3
  -2   2  -2 28.6990 9.20371   3
  -2   2  -2 23.0259 8.09279   1
  -2   2  -2 37.1574 8.71662   2
  -3   2  -2 1415.81 24.9651   2
  -3   2  -2 1466.97 25.7951   3
  -3   2  -2 1431.45 24.2397   1
  -3   2  -2 1448.39 22.4665   4
  -4   2  -2 294.543 16.3669   2
  -4   2  -2 291.961 16.2551   1
  -4   2  -2 241.353 16.1370   3
  -4   2  -2 255.197 15.0264   4
  -5   2  -2 260.312 17.0777   4
  -5   2  -2 252.479 17.4493   3
  -5   2  -2 226.082 16.4001   2
  -5   2  -2 238.703 16.2155   1
  -6   2  -2 188.755 19.0160   2
  -6   2  -2 253.139 18.2592   1
  -6   2  -2 226.163 17.6881   3
  -6   2  -2 195.835 16.6688   4
  -7   2  -2 161.559 18.9178   2
  -7   2  -2 192.868 18.2868   1
  -7   2  -2 169.047 17.2292   3
  -7   2  -2 160.946 18.6742   4
  -8   2  -2 47.9284 15.9507   3
  -8   2  -2 49.0370 15.6158   4
  -8   2  -2 35.4651 18.5814   2
  -8   2  -2 61.7145 16.9558   1
  -9   2  -2 -1.4736 17.1199   4
  -9   2  -2 4.20402 16.8767   1
  -9   2  -2 2.10937 15.1675   3
  -9   2  -2 -31.264 17.9679   2
 -10   2  -2 0.07706 17.3907   1
 -10   2  -2 6.62417 18.6167   4
 -10   2  -2 -16.918 19.7408   2
 -11   2  -2 23.6722 20.2724   4
 -11   2  -2 9.63554 22.3051   2
 -12   2  -2 3.14981 24.7926   2
 -12   2  -2 54.7815 24.5770   4
 -12  -1   2 30.4560 25.7122   4
 -12  -1   2 8.11168 24.5923   2
 -11  -1   2 39.0706 23.9585   2
 -11  -1   2 41.5056 24.6472   4
 -10  -1   2 54.3875 23.4969   4
 -10  -1   2 47.6184 19.1436   1
 -10  -1   2 19.0126 20.3989   2
  -9  -1   2 1.19282 17.2538   2
  -9  -1   2 12.6323 15.9071   1
  -9  -1   2 5.89708 19.9460   4
  -8  -1   2 17.0200 18.1375   4
  -8  -1   2 -10.789 16.1178   2
  -8  -1   2 -7.8754 13.7953   1
  -7  -1   2 5.73991 15.7719   4
  -7  -1   2 23.9846 13.6552   1
  -7  -1   2 -6.3872 14.2564   2
  -6  -1   2 -5.3381 11.8289   4
  -6  -1   2 4.39462 11.5878   1
  -6  -1   2 4.06568 12.7580   2
  -5  -1   2 -8.4543 11.2781   4
  -5  -1   2 -11.191 11.0191   2
  -5  -1   2 5.31529 6.75031   3
  -5  -1   2 3.33705 10.7177   1
  -4  -1   2 453.154 20.6675   2
  -4  -1   2 473.562 18.8556   1
  -4  -1   2 491.003 20.4808   4
  -3  -1   2 45.3140 9.86389   2
  -3  -1   2 76.8909 10.5559   4
  -3  -1   2 45.4619 9.33174   1
  -2  -1   2 77.5479 9.64356   4
  -2  -1   2 94.3852 9.77935   1
  -1  -1   2 381.095 12.2714   1
  -2   1  -2 1896.60 21.0954   1
  -2   1  -2 1919.10 23.5883   2
  -2   1  -2 1884.05 23.2913   3
  -3   1  -2 1157.69 20.2881   1
  -3   1  -2 1131.21 23.9953   4
  -3   1  -2 1166.16 21.8314   3
  -3   1  -2 1177.08 22.5439   2
  -4   1  -2 745.939 22.7985   2
  -4   1  -2 738.720 20.1009   3
  -4   1  -2 754.329 19.0870   1
  -4   1  -2 712.021 19.3069   4
  -5   1  -2 65.9061 10.4518   3
  -5   1  -2 81.1459 11.9296   4
  -5   1  -2 61.3590 11.3396   2
  -5   1  -2 82.3591 11.7122   1
  -6   1  -2 27.2696 10.7050   3
  -6   1  -2 8.48435 10.9699   1
  -6   1  -2 25.1193 12.0217   2
  -6   1  -2 15.3424 11.5044   4
  -7   1  -2 56.6188 15.3395   4
  -7   1  -2 64.3334 13.5070   3
  -7   1  -2 51.6316 14.7453   2
  -7   1  -2 59.8105 14.5174   1
  -8   1  -2 394.149 28.1831   2
  -8   1  -2 403.439 23.8674   3
  -8   1  -2 368.000 26.8795   4
  -8   1  -2 391.329 24.6787   1
  -9   1  -2 202.455 26.0781   2
  -9   1  -2 162.250 22.5414   4
  -9   1  -2 181.420 21.1214   1
 -10   1  -2 24.2433 18.6654   1
 -10   1  -2 21.6219 19.7654   4
 -10   1  -2 23.0551 21.0827   2
 -11   1  -2 5.09135 18.9422   4
 -11   1  -2 25.1465 23.8491   2
 -12   1  -2 4.16409 20.2507   4
 -12   1  -2 5.58759 23.6990   2
 -12   0   2 19.4262 25.8026   4
 -12   0   2 -6.1328 24.0412   2
 -11   0   2 9.05040 22.5266   2
 -11   0   2 1.97168 21.3736   4
 -10   0   2 -2.2946 17.5859   2
 -10   0   2 23.0138 22.0546   4
 -10   0   2 -19.379 17.6774   1
  -9   0   2 21.1751 16.9028   2
  -9   0   2 12.1338 19.8785   4
  -9   0   2 6.19236 17.2097   1
  -8   0   2 17.6636 17.7530   4
  -8   0   2 -0.3836 16.9959   2
  -8   0   2 20.8257 14.9879   1
  -7   0   2 74.0373 16.0215   1
  -7   0   2 84.2203 18.5571   4
  -7   0   2 66.4049 16.0178   2
  -6   0   2 279.475 19.4785   1
  -6   0   2 287.213 16.4228   3
  -6   0   2 225.858 18.5075   2
  -6   0   2 265.842 21.3497   4
  -5   0   2 341.235 20.6759   2
  -5   0   2 298.320 18.8133   4
  -5   0   2 307.679 18.8635   1
  -5   0   2 328.988 14.9074   3
  -4   0   2 213.330 15.4747   1
  -4   0   2 190.785 11.7969   3
  -4   0   2 207.778 15.6049   4
  -4   0   2 172.181 13.5128   2
  -3   0   2 342.216 14.9940   1
  -3   0   2 346.803 15.5014   4
  -3   0   2 295.660 11.4897   3
  -3   0   2 322.817 16.6424   2
  -2   0   2 96.0421 9.45860   1
  -2   0   2 87.3717 8.37642   2
  -2   0   2 88.2494 9.55806   4
  -1   0   2 578.346 12.3450   1
  -2   0  -2 1253.38 17.4056   3
  -2   0  -2 1277.78 15.2494   1
  -3   0  -2 47.1703 7.84208   1
  -3   0  -2 56.1593 8.54605   3
  -3   0  -2 56.8700 10.3933   4
  -3   0  -2 47.4552 8.95990   2
  -4   0  -2 508.674 16.7072   3
  -4   0  -2 536.289 15.7849   1
  -4   0  -2 497.039 17.5554   4
  -4   0  -2 512.464 18.8772   2
  -5   0  -2 185.545 15.0179   2
  -5   0  -2 189.927 14.7093   4
  -5   0  -2 191.785 14.2498   3
  -5   0  -2 200.955 13.4107   1
  -6   0  -2 172.383 14.3656   3
  -6   0  -2 156.043 14.0743   1
  -6   0  -2 169.494 16.2328   4
  -6   0  -2 159.982 17.5883   2
  -7   0  -2 133.090 15.3500   1
  -7   0  -2 164.784 18.7548   4
  -7   0  -2 114.279 14.3655   3
  -7   0  -2 150.836 19.7490   2
  -8   0  -2 31.3212 15.9746   4
  -8   0  -2 15.6399 13.1183   1
  -8   0  -2 29.1216 17.7575   2
  -9   0  -2 -23.658 14.7850   1
  -9   0  -2 22.6525 17.5512   4
  -9   0  -2 -0.6231 15.7833   2
 -10   0  -2 8.11747 17.5533   2
 -10   0  -2 14.8760 18.0761   4
 -11   0  -2 4.21055 20.0566   2
 -11   0  -2 -4.8514 18.9378   4
 -12   0  -2 13.3020 22.9303   4
 -12   0  -2 13.2006 25.4938   2
 -12   1   2 -9.2442 23.3282   4
 -12   1   2 -15.877 22.5144   2
 -11   1   2 54.1922 23.8489   2
 -11   1   2 57.3201 22.0577   1
 -11   1   2 54.6996 22.2292   4
 -10   1   2 -11.875 20.3137   4
 -10   1   2 20.4007 20.3564   2
 -10   1   2 7.27516 18.3513   1
  -9   1   2 73.7712 19.7415   4
  -9   1   2 90.9501 21.3486   2
  -9   1   2 103.698 20.6332   1
  -8   1   2 -22.935 14.1388   1
  -8   1   2 2.55647 15.1436   4
  -8   1   2 -12.170 15.9243   2
  -7   1   2 -11.619 12.5758   2
  -7   1   2 -7.7337 11.5258   1
  -7   1   2 -10.909 14.4537   4
  -7   1   2 10.1547 11.0253   3
  -6   1   2 69.4358 11.8135   3
  -6   1   2 47.4035 13.3293   4
  -6   1   2 45.1976 13.2427   1
  -6   1   2 53.7187 14.4441   2
  -5   1   2 208.841 16.1543   1
  -5   1   2 176.551 15.8892   2
  -5   1   2 197.442 13.2068   3
  -5   1   2 173.537 16.9229   4
  -4   1   2 922.799 23.8633   1
  -4   1   2 941.847 24.1682   2
  -4   1   2 886.052 19.2853   3
  -4   1   2 886.313 23.2276   4
  -3   1   2 238.984 15.5069   1
  -3   1   2 201.971 12.6144   3
  -3   1   2 206.518 14.4715   2
  -3   1   2 246.971 16.0080   4
  -2   1   2 7.68354 7.87832   2
  -2   1   2 7.18262 8.57641   4
  -2   1   2 10.6659 7.48954   1
  -2   1   2 6.16814 6.62807   3
  -1   1   2 395.991 11.7489   1
  -3  -1  -2 279.625 10.8414   1
  -3  -1  -2 243.759 15.7852   2
  -3  -1  -2 280.949 12.0984   3
  -3  -1  -2 260.679 13.7919   4
  -4  -1  -2 199.784 12.0750   1
  -4  -1  -2 210.515 14.6808   4
  -4  -1  -2 190.841 11.9741   3
  -4  -1  -2 167.266 12.8688   2
  -5  -1  -2 -3.5381 9.59704   4
  -5  -1  -2 17.6121 8.51638   1
  -5  -1  -2 20.6012 10.0556   2
  -5  -1  -2 16.2750 8.13769   3
  -6  -1  -2 6.14496 11.0555   2
  -6  -1  -2 17.1758 9.17479   3
  -6  -1  -2 3.12804 11.3084   4
  -6  -1  -2 19.9524 10.0541   1
  -7  -1  -2 102.689 17.7875   2
  -7  -1  -2 104.109 13.0016   3
  -7  -1  -2 88.0244 15.9429   4
  -7  -1  -2 126.628 14.8913   1
  -8  -1  -2 123.026 18.9713   4
  -8  -1  -2 139.651 16.5689   1
  -8  -1  -2 149.460 21.0958   2
  -9  -1  -2 43.0161 17.9107   2
  -9  -1  -2 53.9286 18.6144   4
 -10  -1  -2 12.3623 20.9656   2
 -10  -1  -2 91.0827 22.3115   4
 -11  -1  -2 22.0497 19.5986   2
 -11  -1  -2 32.8409 21.6456   4
 -12  -1  -2 -1.1050 21.9756   4
 -12  -1  -2 -13.274 23.1211   2
 -12   2   2 -19.991 23.7501   2
 -12   2   2 11.0092 23.8475   4
 -11   2   2 18.4761 21.5271   1
 -11   2   2 14.9064 21.2239   4
 -11   2   2 -4.9079 21.8534   2
 -10   2   2 9.33498 19.2253   1
 -10   2   2 13.4403 21.2639   4
 -10   2   2 -12.264 19.0784   2
  -9   2   2 45.5463 18.1143   1
  -9   2   2 15.4456 18.9485   2
  -9   2   2 65.6802 21.5253   4
  -8   2   2 54.0117 20.3333   4
  -8   2   2 64.0597 18.4407   1
  -8   2   2 9.44131 16.5695   2
  -7   2   2 54.2386 13.5597   3
  -7   2   2 24.6085 15.5595   1
  -7   2   2 23.7609 14.6635   4
  -7   2   2 40.1407 13.9001   2
  -6   2   2 152.514 17.2675   2
  -6   2   2 153.682 17.0288   1
  -6   2   2 143.567 14.7317   3
  -6   2   2 151.633 18.4034   4
  -5   2   2 62.6401 10.8232   3
  -5   2   2 53.4476 13.2338   4
  -5   2   2 73.9970 13.2395   2
  -5   2   2 90.1423 13.9323   1
  -4   2   2 16.6591 10.5418   1
  -4   2   2 8.55091 9.31447   4
  -4   2   2 23.9970 8.85466   3
  -4   2   2 29.6097 9.84877   2
  -3   2   2 347.493 15.4675   2
  -3   2   2 316.673 15.7709   4
  -3   2   2 351.854 15.4581   1
  -3   2   2 365.643 15.9472   3
  -2   2   2 593.562 16.3691   4
  -2   2   2 630.826 15.6184   3
  -2   2   2 609.240 16.1005   1
  -1   2   2 60.4670 7.48088   1
  -3  -2  -2 37.6667 9.22805   2
  -3  -2  -2 31.4797 6.26717   1
  -3  -2  -2 36.8934 6.73499   3
  -4  -2  -2 22.9683 10.2558   2
  -4  -2  -2 39.0250 7.70048   1
  -4  -2  -2 12.6490 10.1271   4
  -4  -2  -2 41.1329 7.22996   3
  -5  -2  -2 606.657 17.8081   1
  -5  -2  -2 538.560 21.3458   4
  -5  -2  -2 563.304 16.2391   3
  -5  -2  -2 551.285 21.9883   2
  -6  -2  -2 296.782 21.0877   4
  -6  -2  -2 295.019 21.2170   2
  -6  -2  -2 303.210 16.4969   1
  -6  -2  -2 309.562 15.5507   3
  -7  -2  -2 254.908 18.4868   1
  -7  -2  -2 271.650 22.8608   2
  -7  -2  -2 252.705 20.9562   4
  -8  -2  -2 23.0290 16.9480   2
  -8  -2  -2 25.9872 12.7844   1
  -8  -2  -2 -5.1598 15.1544   4
  -9  -2  -2 12.7163 18.7110   2
  -9  -2  -2 21.6502 17.3071   4
 -10  -2  -2 13.8365 19.4385   4
 -10  -2  -2 22.8513 21.1916   2
 -11  -2  -2 13.2125 22.8304   2
 -11  -2  -2 34.9143 22.0716   4
 -12  -2  -2 19.9119 22.1027   4
 -12  -2  -2 13.6351 24.6983   2
 -12   3   2 38.2487 23.6380   1
 -12   3   2 -7.1200 23.6070   4
 -12   3   2 12.8693 24.2949   2
 -11   3   2 -3.3399 21.0070   1
 -11   3   2 -21.087 21.0521   4
 -11   3   2 14.6104 22.8480   2
 -10   3   2 9.46931 19.7553   4
 -10   3   2 30.6724 20.7839   1
 -10   3   2 24.5551 21.6029   2
  -9   3   2 57.6945 21.3223   4
  -9   3   2 12.8840 19.2707   2
  -9   3   2 39.0143 19.3590   1
  -8   3   2 -0.6044 16.1417   2
  -8   3   2 22.4442 18.0102   4
  -8   3   2 -0.1034 15.3025   1
  -8   3   2 31.9185 15.0188   3
  -7   3   2 15.5659 12.9825   3
  -7   3   2 47.4668 16.2744   2
  -7   3   2 -9.3986 15.4862   4
  -7   3   2 -6.6421 13.1060   1
  -6   3   2 165.679 15.9949   3
  -6   3   2 181.478 17.7997   2
  -6   3   2 174.710 18.8710   1
  -6   3   2 139.902 18.3335   4
  -5   3   2 352.786 18.8791   3
  -5   3   2 343.118 19.9100   1
  -5   3   2 342.189 19.9991   2
  -5   3   2 374.135 20.2072   4
  -4   3   2 366.459 17.6768   3
  -4   3   2 381.270 20.0274   1
  -4   3   2 385.304 17.6538   2
  -4   3   2 371.090 18.3481   4
  -3   3   2 694.240 20.0360   3
  -3   3   2 688.706 19.9446   1
  -3   3   2 708.963 20.2387   4
  -3   3   2 679.399 17.8537   2
  -2   3   2 9.74656 9.63315   4
  -2   3   2 4.18821 8.70683   1
  -2   3   2 9.97083 8.91998   3
  -1   3   2 20.3969 8.16676   3
  -1   3   2 6.74217 9.83269   4
  -1   3   2 11.0380 7.44542   1
   0   3   2 6.39283 5.53582   1
  -2  -3  -2 257.142 13.1548   2
  -3  -3  -2 131.515 8.36524   1
  -3  -3  -2 100.172 9.91268   2
  -4  -3  -2 367.415 12.9939   1
  -4  -3  -2 356.878 11.7597   3
  -4  -3  -2 372.377 16.7988   2
  -5  -3  -2 122.001 10.4939   1
  -5  -3  -2 118.539 13.2580   2
  -5  -3  -2 87.6975 13.9722   4
  -5  -3  -2 119.593 9.07172   3
  -6  -3  -2 -6.0649 10.3469   4
  -6  -3  -2 1.29727 11.4128   2
  -6  -3  -2 22.8942 9.13225   1
  -7  -3  -2 58.4173 15.3701   2
  -7  -3  -2 34.8092 11.1213   1
  -7  -3  -2 30.6195 15.4659   4
  -8  -3  -2 67.1565 18.8252   4
  -8  -3  -2 55.1634 19.0711   2
  -9  -3  -2 42.5899 17.3606   2
  -9  -3  -2 29.4588 17.7826   4
 -10  -3  -2 28.9448 19.7554   4
 -10  -3  -2 41.7202 21.8270   2
 -11  -3  -2 -4.2221 21.9647   2
 -11  -3  -2 15.9106 21.9863   4
 -12  -3  -2 16.1104 23.7516   2
 -12  -3  -2 -12.638 20.3163   4
 -11   4   2 -22.679 20.5163   4
 -11   4   2 -18.607 21.2270   1
 -11   4   2 18.0304 22.8423   2
 -10   4   2 -0.0940 21.1900   4
 -10   4   2 35.0548 19.8822   1
 -10   4   2 15.0103 21.3125   2
  -9   4   2 1.71989 16.9156   3
  -9   4   2 7.10925 20.1006   4
  -9   4   2 43.3438 20.1844   2
  -9   4   2 -4.0269 18.3886   1
  -8   4   2 90.2149 19.8089   1
  -8   4   2 103.693 21.8790   4
  -8   4   2 92.2034 20.0377   2
  -8   4   2 114.179 19.5497   3
  -7   4   2 9.43257 15.6769   1
  -7   4   2 1.40795 15.7992   4
  -7   4   2 32.3282 14.6625   3
  -7   4   2 35.4784 16.1692   2
  -6   4   2 25.1548 15.2990   4
  -6   4   2 27.3158 13.3900   2
  -6   4   2 58.1712 14.3859   1
  -6   4   2 59.6007 14.2768   3
  -5   4   2 0.43316 11.9977   1
  -5   4   2 28.3021 12.2148   4
  -5   4   2 1.55949 11.4793   3
  -5   4   2 12.1302 10.2727   2
  -4   4   2 25.5692 10.7806   3
  -4   4   2 28.3918 11.4838   1
  -4   4   2 40.1272 12.7657   4
  -4   4   2 27.6421 9.32038   2
  -3   4   2 165.567 14.5842   4
  -3   4   2 191.047 13.4762   2
  -3   4   2 199.746 14.6124   1
  -3   4   2 208.167 14.7895   3
  -2   4   2 7.12850 9.11207   4
  -2   4   2 -1.0287 7.92172   1
  -2   4   2 5.26293 8.49847   3
  -1   4   2 938.760 21.0508   3
  -1   4   2 932.001 18.9958   1
   0   4   2 42.1593 7.10288   1
  -2  -4  -2 241.349 12.3198   2
  -3  -4  -2 121.079 8.58586   1
  -3  -4  -2 126.588 11.4265   2
  -4  -4  -2 267.571 11.5284   1
  -4  -4  -2 261.740 17.3494   2
  -5  -4  -2 257.446 14.0020   1
  -5  -4  -2 298.681 18.3293   2
  -5  -4  -2 239.458 14.6068   3
  -6  -4  -2 178.223 18.6590   4
  -6  -4  -2 188.703 13.6420   1
  -6  -4  -2 162.450 18.1057   2
  -7  -4  -2 88.0544 16.7185   2
  -7  -4  -2 136.266 19.1304   4
  -8  -4  -2 27.3047 17.9120   2
  -8  -4  -2 5.53793 17.1941   4
  -9  -4  -2 25.1855 20.1049   4
  -9  -4  -2 14.6585 19.5946   2
 -10  -4  -2 34.0914 22.1103   2
 -10  -4  -2 18.7004 18.9664   4
 -11  -4  -2 -17.672 19.8454   4
 -11  -4  -2 -31.656 21.4338   2
 -12  -4  -2 24.4022 25.2165   2
 -12  -4  -2 31.5966 23.3820   4
 -11   5   2 13.5455 22.2118   4
 -11   5   2 34.5159 24.8453   2
 -11   5   2 13.2863 22.7873   1
 -10   5   2 52.6169 22.5825   2
 -10   5   2 11.7489 21.1663   1
 -10   5   2 18.7293 21.6267   4
  -9   5   2 24.7193 18.9910   2
  -9   5   2 42.4673 18.7472   3
  -9   5   2 52.3589 23.0347   4
  -9   5   2 -12.630 18.2833   1
  -8   5   2 -9.3168 16.1594   2
  -8   5   2 -46.372 16.8368   4
  -8   5   2 2.98273 18.2177   1
  -8   5   2 -3.0813 16.3144   3
  -7   5   2 -10.494 15.7587   4
  -7   5   2 -12.928 15.5385   1
  -7   5   2 11.3526 14.8642   2
  -7   5   2 16.1006 15.1123   3
  -6   5   2 29.8591 14.3465   1
  -6   5   2 47.5164 13.7643   2
  -6   5   2 42.1912 16.0482   4
  -6   5   2 25.5843 14.1275   3
  -5   5   2 228.971 20.6267   4
  -5   5   2 209.072 18.3144   1
  -5   5   2 235.098 16.9733   2
  -5   5   2 179.961 17.2754   3
  -4   5   2 68.5741 13.4046   3
  -4   5   2 67.5422 13.7294   4
  -4   5   2 99.1929 11.6504   2
  -4   5   2 57.0482 12.1528   1
  -3   5   2 413.785 18.7503   4
  -3   5   2 436.068 19.9701   1
  -3   5   2 398.195 18.3303   3
  -3   5   2 400.945 15.3296   2
  -2   5   2 72.3967 10.7978   3
  -2   5   2 71.9313 9.81877   5
  -2   5   2 75.5838 7.98641   2
  -2   5   2 71.3622 11.1964   1
  -1   5   2 130.820 10.6568   1
  -1   5   2 158.883 11.9020   5
  -1   5   2 145.439 13.1379   3
   0   5   2 56.4827 10.4905   5
   1   5   2 20.8487 8.88681   5
  -2  -5  -2 1964.51 26.3407   2
  -3  -5  -2 1005.19 16.5874   1
  -3  -5  -2 1004.58 17.9644   3
  -3  -5  -2 1008.06 23.5906   2
  -4  -5  -2 150.273 10.8425   1
  -4  -5  -2 151.378 14.3136   2
  -5  -5  -2 43.8033 8.78093   1
  -5  -5  -2 49.0421 12.5802   2
  -6  -5  -2 34.0732 14.0202   2
  -7  -5  -2 96.5760 17.2235   2
  -7  -5  -2 30.9546 16.9998   4
  -8  -5  -2 81.6592 18.3258   4
  -8  -5  -2 96.5757 19.0066   2
  -9  -5  -2 13.0675 20.7475   2
  -9  -5  -2 12.5038 19.6298   4
 -10  -5  -2 7.49854 20.7248   4
 -10  -5  -2 -34.605 18.2705   2
 -11  -5  -2 -0.9688 19.5429   2
 -11  -5  -2 31.9923 23.0276   4
 -11   6   2 2.73693 23.1834   2
 -11   6   2 -9.5216 22.0396   1
 -11   6   2 19.7038 24.6169   4
 -10   6   2 23.0765 22.3532   1
 -10   6   2 -2.8670 20.2014   4
 -10   6   2 28.2701 21.7768   2
 -10   6   2 -5.2572 19.8096   3
  -9   6   2 27.2645 21.6531   4
  -9   6   2 46.0198 22.1374   1
  -9   6   2 -9.0908 20.3323   2
  -9   6   2 -0.0572 17.9526   3
  -8   6   2 64.4769 19.7798   4
  -8   6   2 74.9853 19.6920   3
  -8   6   2 84.4926 22.1439   1
  -8   6   2 86.2295 20.0065   2
  -7   6   2 82.4506 18.2976   3
  -7   6   2 76.0585 17.9473   2
  -7   6   2 68.5386 19.9654   4
  -7   6   2 60.4769 17.1473   1
  -6   6   2 -1.4456 15.6563   1
  -6   6   2 16.0457 14.9615   3
  -6   6   2 43.1712 17.0038   4
  -6   6   2 -10.350 12.3937   2
  -5   6   2 5.89694 12.6579   4
  -5   6   2 14.0033 11.6033   2
  -5   6   2 6.59957 13.7834   1
  -5   6   2 24.6352 12.6368   3
  -4   6   2 12.4021 9.26240   2
  -4   6   2 -0.2345 11.6191   3
  -4   6   2 -11.054 11.7861   1
  -4   6   2 7.78331 13.1376   4
  -4   6   2 5.25311 8.76825   5
  -3   6   2 100.718 13.2323   4
  -3   6   2 98.6683 13.7400   3
  -3   6   2 149.846 15.4389   1
  -3   6   2 135.340 11.7809   5
  -3   6   2 128.486 10.8382   2
  -2   6   2 510.222 18.1092   5
  -2   6   2 528.444 21.2115   3
  -2   6   2 505.722 20.2814   1
  -1   6   2 92.9126 10.7113   5
  -1   6   2 81.6068 11.8552   3
  -1   6   2 84.6337 10.2289   1
   0   6   2 536.595 19.4549   5
   1   6   2 608.126 19.7858   5
   2   6   2 350.630 18.5665   5
  -3  -6  -2 14.8603 8.68989   2
  -3  -6  -2 -7.5477 6.18260   1
  -3  -6  -2 -0.6340 5.52726   3
   3   6   2 1.66739 9.08563   5
  -4  -6  -2 285.233 13.5553   1
  -4  -6  -2 305.434 18.9024   2
   4   6   2 346.442 18.4299   5
  -5  -6  -2 161.945 16.7770   2
  -6  -6  -2 128.643 18.1996   2
  -7  -6  -2 8.82103 16.3104   4
  -7  -6  -2 0.54942 15.8165   2
   7   6   2 24.2675 13.7990   5
  -8  -6  -2 -17.941 17.4930   4
  -8  -6  -2 -2.1851 14.9724   2
  -9  -6  -2 -7.3879 16.8810   2
  -9  -6  -2 4.78933 20.0894   4
 -10  -6  -2 28.6937 22.9557   2
 -10  -6  -2 9.48150 20.4341   4
 -11  -6  -2 39.0789 23.0488   4
 -11  -6  -2 7.22770 22.3198   2
 -11   7   2 20.0980 24.5132   1
 -11   7   2 -24.794 22.2956   4
 -10   7   2 -0.7711 20.9080   2
 -10   7   2 8.82110 22.7189   4
 -10   7   2 -41.971 21.1458   1
 -10   7   2 1.71765 20.6327   3
  -9   7   2 29.6848 19.6020   1
  -9   7   2 -5.7297 20.3737   4
  -9   7   2 -2.3897 19.2731   3
  -9   7   2 -4.7097 18.6674   2
  -8   7   2 -3.1792 19.2898   1
  -8   7   2 38.6985 18.1840   2
  -8   7   2 21.7109 20.4627   4
  -8   7   2 -20.024 17.6333   3
  -7   7   2 -10.089 15.9768   3
  -7   7   2 6.74372 15.7952   4
  -7   7   2 -11.136 18.1210   1
  -7   7   2 8.04876 15.4562   2
  -6   7   2 -5.6447 12.6183   2
  -6   7   2 5.75318 15.1357   3
  -6   7   2 8.33952 14.8310   1
  -6   7   2 8.33891 15.0396   4
  -5   7   2 103.546 14.0897   2
  -5   7   2 79.5826 17.4426   4
  -5   7   2 93.5540 17.8041   3
  -5   7   2 81.9483 16.1082   1
  -4   7   2 242.087 17.5763   2
  -4   7   2 255.452 21.1442   3
  -4   7   2 234.044 20.7276   4
  -4   7   2 267.845 20.6608   1
  -4   7   2 234.748 17.0580   5
  -3   7   2 280.123 20.5299   1
  -3   7   2 259.556 17.4689   5
  -3   7   2 237.168 17.8145   3
  -2   7   2 249.357 16.7363   1
  -2   7   2 203.708 15.7105   3
  -2   7   2 235.962 15.8058   5
  -1   7   2 18.3419 10.9924   5
  -1   7   2 21.4511 10.1696   3
   0   7   2 53.7270 11.4281   5
   1   7   2 67.5131 11.5462   5
   2   7   2 1914.49 35.2045   5
  -3  -7  -2 598.127 21.6285   2
  -3  -7  -2 608.349 16.7803   1
   3   7   2 637.597 22.9160   5
  -4  -7  -2 12.3171 10.1291   2
  -4  -7  -2 -2.6855 7.68311   1
   4   7   2 -0.2929 11.7801   5
  -5  -7  -2 4.48433 11.4610   2
   5   7   2 -9.6319 11.8444   5
  -6  -7  -2 11.8412 14.4916   2
   6   7   2 8.86806 13.7215   5
  -7  -7  -2 8.37882 13.5756   2
   7   7   2 9.20730 14.2145   5
  -8  -7  -2 20.9523 19.2850   4
  -8  -7  -2 20.8177 19.0473   2
  -9  -7  -2 32.3252 19.1902   2
  -9  -7  -2 35.4240 20.9742   4
 -10  -7  -2 15.5207 20.4925   4
 -10  -7  -2 13.0516 22.5608   2
 -11  -7  -2 17.1675 24.4343   2
 -11  -7  -2 -2.7968 23.5809   4
 -11   8   2 -7.9095 26.0211   3
 -11   8   2 -22.906 22.6714   4
 -10   8   2 9.17413 22.5244   3
 -10   8   2 12.0248 23.4837   4
 -10   8   2 1.61775 23.8633   1
  -9   8   2 1.72142 20.5772   3
  -9   8   2 15.6829 19.3888   4
  -9   8   2 21.7359 22.5472   1
  -8   8   2 61.7328 21.4440   3
  -8   8   2 31.4923 21.9748   4
  -8   8   2 46.7807 20.0286   1
  -8   8   2 91.4702 20.8380   2
  -7   8   2 86.9858 17.9826   2
  -7   8   2 74.3835 20.4207   3
  -7   8   2 80.2499 19.7934   1
  -7   8   2 68.1098 20.9190   4
  -6   8   2 64.5796 18.6593   3
  -6   8   2 75.7838 16.2151   2
  -6   8   2 92.2856 20.0623   4
  -6   8   2 76.5074 17.9172   1
  -5   8   2 5.47548 12.1865   2
  -5   8   2 1.47572 15.5451   3
  -5   8   2 7.58314 16.2770   1
  -4   8   2 8.17355 12.9290   1
  -4   8   2 27.8779 11.5055   5
  -4   8   2 52.3919 15.4641   3
  -3   8   2 98.3210 13.8508   5
  -3   8   2 79.4688 13.6185   1
  -3   8   2 109.201 16.6104   3
  -2   8   2 473.667 21.7970   5
  -2   8   2 495.385 22.2173   1
  -2   8   2 473.870 23.8717   3
  -1   8   2 341.816 20.0544   5
  -1   8   2 321.367 19.9679   3
   0   8   2 84.7103 12.8824   5
   1   8   2 155.989 15.9660   5
   2   8   2 -9.5832 10.0854   5
  -3  -8  -2 308.224 15.2946   1
  -3  -8  -2 331.275 18.8004   2
   3   8   2 289.567 19.6666   5
  -4  -8  -2 46.8475 12.6414   2
   4   8   2 24.9531 12.7282   5
  -5  -8  -2 14.5406 13.6904   2
   5   8   2 31.8550 14.2422   5
  -6  -8  -2 32.8328 15.6391   2
   6   8   2 37.3566 15.1916   5
  -7  -8  -2 54.8560 17.4811   2
   7   8   2 54.0919 16.7071   5
  -8  -8  -2 15.4985 18.8862   4
  -8  -8  -2 -4.1216 15.8933   2
  -9  -8  -2 -60.013 18.1096   2
  -9  -8  -2 -6.5553 20.5892   4
 -10  -8  -2 9.59919 23.0118   4
 -10  -8  -2 -2.1216 23.1386   2
 -11  -8  -2 11.7298 24.4078   2
 -11  -8  -2 -2.3210 22.5957   4
 -10   9   2 21.6583 23.0497   3
 -10   9   2 -20.753 23.5404   4
 -10   9   2 -3.3243 22.6792   1
  -9   9   2 -9.9410 22.4376   4
  -9   9   2 23.5629 22.4885   3
  -9   9   2 -1.1918 22.9571   1
  -8   9   2 17.0451 20.3597   3
  -8   9   2 -5.8991 20.1400   1
  -8   9   2 20.1284 21.6306   4
  -7   9   2 15.5918 20.0074   3
  -7   9   2 44.3712 19.5586   4
  -7   9   2 14.0287 17.3104   1
  -6   9   2 33.1854 18.8698   3
  -6   9   2 20.0287 18.5922   1
  -5   9   2 40.6134 17.8328   1
  -5   9   2 50.1002 17.4062   3
  -4   9   2 204.144 21.5388   1
  -4   9   2 242.446 23.1447   3
  -4   9   2 250.188 19.0477   5
  -3   9   2 142.434 17.5847   3
  -3   9   2 169.081 17.0795   1
  -3   9   2 160.038 16.4424   5
  -2   9   2 9.04248 12.3769   5
  -2   9   2 6.59828 12.9851   3
  -1   9   2 -12.816 11.9480   5
  -1   9   2 -3.2956 11.3634   3
   0   9   2 79.2332 13.8776   5
   1   9   2 91.9686 14.6522   5
   2   9   2 400.733 24.2473   5
   3   9   2 45.6282 13.8145   5
  -4  -9  -2 16.3116 12.2471   2
   4   9   2 14.2791 14.4624   5
  -5  -9  -2 23.2010 14.3795   2
   5   9   2 8.41415 14.2818   5
  -6  -9  -2 4.29496 14.5246   2
   6   9   2 -11.657 13.6493   5
  -7  -9  -2 54.5019 18.9141   2
   7   9   2 47.8611 17.7917   5
  -8  -9  -2 12.6082 18.8061   2
  -9  -9  -2 57.3035 24.2614   4
  -9  -9  -2 13.6223 21.3201   2
 -10  -9  -2 -5.1165 22.2840   2
 -10  -9  -2 7.25487 22.3084   4
 -10  10   2 6.01436 23.8202   3
 -10  10   2 1.26016 25.3784   4
 -10  10   2 14.2911 27.8620   1
  -9  10   2 1.50095 21.8141   3
  -9  10   2 0.72386 22.7886   1
  -8  10   2 46.6928 20.8147   3
  -8  10   2 42.7611 22.9922   1
  -7  10   2 55.6595 19.7563   1
  -7  10   2 14.7609 20.7463   3
  -6  10   2 56.1313 18.4531   1
  -6  10   2 24.7859 16.9747   3
  -5  10   2 41.4210 18.8466   3
  -5  10   2 32.5737 17.8442   1
  -4  10   2 65.1996 15.3652   5
  -4  10   2 69.8763 17.8838   1
  -4  10   2 69.0530 16.8886   3
  -3  10   2 35.0374 14.8644   3
  -3  10   2 48.0037 14.4478   5
  -2  10   2 69.3125 16.0915   5
  -2  10   2 99.8020 17.5587   3
  -1  10   2 237.361 20.6496   5
  -1  10   2 196.969 18.4109   3
   0  10   2 83.9356 14.8105   5
   1  10   2 -4.0815 14.3989   5
   2  10   2 16.2144 15.3834   5
   3  10   2 137.152 19.6933   5
  -4 -10  -2 -12.802 12.0646   2
   4  10   2 0.05403 15.3035   5
  -5 -10  -2 26.5210 14.2354   2
   5  10   2 -3.0940 15.7217   5
  -6 -10  -2 133.507 20.5113   2
   6  10   2 126.880 21.1312   5
  -7 -10  -2 -3.0678 17.6734   2
   7  10   2 7.38998 17.1116   5
  -8 -10  -2 -1.1517 19.3062   2
  -9 -10  -2 -17.325 22.1665   4
  -9 -10  -2 1.95749 20.1779   2
 -10 -10  -2 -5.7787 24.3617   2
 -10 -10  -2 0.04357 23.9395   4
 -10  11   2 -32.423 23.8100   3
  -9  11   2 11.2779 23.5920   1
  -9  11   2 43.0366 23.1982   3
  -8  11   2 -15.017 20.2420   1
  -8  11   2 26.8975 22.7607   3
  -7  11   2 0.68023 18.2036   3
  -7  11   2 35.6124 21.0876   1
  -6  11   2 109.866 21.1594   1
  -6  11   2 70.2446 22.3041   3
  -5  11   2 75.5768 21.2723   3
  -5  11   2 81.9391 19.3594   1
  -4  11   2 17.1100 15.9994   3
  -4  11   2 8.83830 14.2365   5
  -3  11   2 25.3420 14.9551   5
  -3  11   2 36.8273 17.6989   3
  -2  11   2 19.7998 15.6755   5
  -2  11   2 15.0424 14.9572   3
  -1  11   2 -0.3976 14.4504   5
   0  11   2 14.9891 15.2130   5
   1  11   2 14.1052 15.3873   5
   2  11   2 41.7682 16.8948   5
   3  11   2 28.6401 17.1572   5
  -4 -11  -2 -7.2954 12.9357   2
   4  11   2 14.1351 16.8756   5
  -5 -11  -2 1.20789 14.8823   2
   5  11   2 29.1809 17.6417   5
  -6 -11  -2 -12.378 16.2665   2
   6  11   2 11.6921 18.5684   5
  -7 -11  -2 21.4350 19.5394   2
   7  11   2 26.3849 19.6357   5
  -8 -11  -2 34.2332 20.8244   2
  -9 -11  -2 24.8045 24.5016   4
  -9 -11  -2 4.64588 21.7011   2
  -9  12   2 32.1972 25.1024   3
  -9  12   2 -5.7009 39.2293   1
  -8  12   2 27.8022 20.8029   1
  -8  12   2 32.8657 24.9261   3
  -7  12   2 39.6038 23.0285   1
  -7  12   2 35.7546 23.0958   3
  -6  12   2 -3.8002 20.8277   3
  -5  12   2 22.4330 21.1048   3
  -4  12   2 -19.821 14.5715   5
  -4  12   2 -25.532 17.6546   3
  -3  12   2 49.8064 19.0527   3
  -3  12   2 36.2253 16.2856   5
  -2  12   2 15.2649 16.2623   5
  -2  12   2 48.0518 18.7905   3
  -1  12   2 104.245 19.0248   5
   0  12   2 123.316 18.4594   5
   1  12   2 83.0647 19.1259   5
   2  12   2 21.6705 17.6960   5
   3  12   2 108.544 19.1475   5
   4  12   2 42.3994 19.1594   5
   5  12   2 35.8531 18.1735   5
   6  12   2 -3.9810 17.3647   5
   7  12   2 14.0886 20.3646   5
  -9 -12  -2 -20.958 22.7216   4
  -9 -12  -2 -22.263 36.6064   2
  -8  13   2 27.2578 24.0274   3
  -7  13   2 33.6445 23.3437   3
  -6  13   2 32.7319 22.3353   3
  -5  13   2 29.6207 21.6729   3
  -4  13   2 9.63631 19.9931   3
  -4  13   2 45.1635 18.4764   5
  -3  13   2 41.0237 17.3698   5
  -3  13   2 1.84868 18.0036   3
  -2  13   2 20.3489 17.9836   5
  -1  13   2 -17.690 16.7735   5
   0  13   2 7.77775 17.6618   5
   1  13   2 3.84234 17.4824   5
   2  13   2 30.8942 18.8349   5
   3  13   2 43.1904 19.3843   5
   4  13   2 9.76059 17.7616   5
   5  13   2 10.4208 18.9457   5
   6  13   2 23.5746 20.5939   5
   7  13   2 3.76517 20.3748   5
  -8  14   2 -10.970 23.7576   3
  -7  14   2 39.6805 25.3781   3
  -6  14   2 89.6771 26.2172   3
  -5  14   2 8.20714 19.9349   3
  -4  14   2 10.7751 18.8903   5
  -4  14   2 -6.7638 20.2281   3
  -3  14   2 21.7275 18.8603   5
  -2  14   2 115.809 22.7830   5
  -1  14   2 124.545 23.4906   5
   0  14   2 67.0087 21.4432   5
   1  14   2 38.0305 18.5548   5
   2  14   2 8.82451 18.9125   5
   3  14   2 29.7907 20.1380   5
   4  14   2 33.0443 18.8712   5
   5  14   2 30.2248 21.2361   5
   6  14   2 0.64409 20.7915   5
   7  14   2 -1.3812 22.1737   5
  -4  15   2 40.9237 21.4504   5
  -3  15   2 41.9536 20.2198   5
  -2  15   2 61.7143 21.6281   5
  -1  15   2 10.4697 17.1013   5
   0  15   2 21.7297 21.2464   5
   1  15   2 35.1692 21.8203   5
   2  15   2 21.4712 20.7886   5
   3  15   2 11.1838 20.9007   5
   4  15   2 -2.1873 18.8316   5
   5  15   2 37.4972 22.6663   5
   6  15   2 7.49721 22.3211   5
  -4  16   2 6.04852 20.7948   5
  -3  16   2 61.5218 21.9216   5
  -2  16   2 41.7666 21.1413   5
  -1  16   2 9.51980 20.7554   5
   0  16   2 -19.944 19.8358   5
   1  16   2 3.59752 20.9896   5
   2  16   2 -6.4537 21.0944   5
   3  16   2 -32.201 20.2436   5
   4  16   2 20.8787 23.0532   5
   5  16   2 -19.456 21.6492   5
  -4  17   2 80.8681 24.4758   5
  -3  17   2 9.24669 21.8716   5
  -2  17   2 17.7069 21.8059   5
  -1  17   2 5.07748 22.0172   5
   0  17   2 25.9208 21.9638   5
   1  17   2 -16.521 21.6757   5
   2  17   2 1.85568 24.2397   5
   3  17   2 27.0440 24.6186   5
   4  17   2 32.6826 25.6044   5
  -2  18   2 19.0475 23.9407   5
  -1  18   2 2.83179 23.0463   5
   0  18   2 -13.555 20.5925   5
   1  18   2 -16.262 23.3928   5
   2  18   2 -35.727 21.5893   5
   2  17  -3 31.5513 23.9424   5
   1  17  -3 -23.284 21.6826   5
   0  17  -3 -0.7931 24.4108   5
  -1  17  -3 27.3183 25.0326   5
  -2  17  -3 -26.693 23.1045   5
  -3  17  -3 2.05689 22.7109   5
   4  16  -3 13.1734 23.6593   5
   3  16  -3 -2.8293 22.4045   5
   2  16  -3 43.0505 24.0603   5
   1  16  -3 2.62796 22.8845   5
   0  16  -3 -8.7859 22.0257   5
  -1  16  -3 4.26999 23.0419   5
  -2  16  -3 18.9631 23.6687   5
  -3  16  -3 53.9227 24.2284   5
  -4  16  -3 -23.121 23.1333   3
  -5  16  -3 0.05314 23.9624   3
   5  15  -3 5.87713 23.1080   5
   4  15  -3 -18.611 20.6338   5
   3  15  -3 -37.099 19.2758   5
   2  15  -3 9.65683 21.2825   5
   1  15  -3 37.9726 22.1968   5
   0  15  -3 35.3368 20.5059   5
  -1  15  -3 48.1110 21.0757   5
  -2  15  -3 9.98324 21.5129   5
  -3  15  -3 -20.252 19.3393   3
  -3  15  -3 44.8496 20.6658   5
  -4  15  -3 1.83492 20.8505   5
  -4  15  -3 19.6396 22.0999   3
  -5  15  -3 -1.5123 22.6556   3
  -6  15  -3 10.8999 23.8146   3
  -7  15  -3 39.7408 26.4928   3
   6  14  -3 -25.419 21.3212   5
  -6 -14   3 -10.015 21.9309   2
   5  14  -3 17.8971 22.4724   5
  -5 -14   3 16.7971 22.4511   2
   4  14  -3 15.4221 22.3673   5
   3  14  -3 2.74009 18.2911   5
   2  14  -3 14.3918 20.7988   5
   1  14  -3 27.6895 18.2382   5
   0  14  -3 6.66216 21.1005   5
  -1  14  -3 18.1003 19.8478   5
  -2  14  -3 25.8417 22.0100   5
  -3  14  -3 7.76733 19.9402   3
  -3  14  -3 3.33399 20.7087   5
  -4  14  -3 16.9803 21.5197   3
  -4  14  -3 -9.5484 19.0890   5
  -5  14  -3 34.8950 23.7164   3
  -6  14  -3 -6.5585 22.1775   3
  -7  14  -3 -15.172 21.5012   3
  -8  14  -3 19.1799 24.3869   3
  -7 -13   3 48.1002 25.5215   2
   6  13  -3 -10.109 22.4274   5
  -6 -13   3 34.5273 23.0933   2
   5  13  -3 29.3454 21.3884   5
  -5 -13   3 -7.9217 20.3728   2
   4  13  -3 -10.088 19.0865   5
   3  13  -3 -21.445 17.6619   5
   2  13  -3 -6.7817 18.9865   5
   1  13  -3 36.3964 19.7780   5
   0  13  -3 31.3228 17.2913   5
  -1  13  -3 15.3170 19.0989   5
  -2  13  -3 4.27230 20.1805   5
  -2  13  -3 -11.554 17.0820   3
  -3  13  -3 -0.0251 18.8213   3
  -3  13  -3 -11.151 19.3144   5
  -4  13  -3 6.18482 19.9920   3
  -4  13  -3 -5.8265 18.9140   5
  -5  13  -3 2.74175 20.5961   3
  -6  13  -3 57.4461 23.3129   3
  -7  13  -3 49.0840 25.2585   3
  -8  13  -3 9.10431 22.4179   3
  -8 -12   3 30.6367 25.5701   2
  -8 -12   3 26.4305 25.9574   4
  -7 -12   3 -0.9571 22.4823   2
   6  12  -3 20.7827 23.3736   5
  -6 -12   3 0.63962 20.8521   2
   5  12  -3 2.67652 18.7892   5
  -5 -12   3 4.40351 19.0116   2
   4  12  -3 50.3077 19.6857   5
   3  12  -3 134.185 22.9895   5
  -3 -12   3 124.866 21.3664   1
   2  12  -3 26.2045 19.7236   5
   1  12  -3 22.7614 18.8052   5
   0  12  -3 24.7009 17.6312   5
  -1  12  -3 -20.864 13.6648   3
  -1  12  -3 -1.3558 15.4943   5
  -2  12  -3 16.3026 17.0096   3
  -2  12  -3 31.0349 19.5515   5
  -3  12  -3 116.634 22.3474   5
  -3  12  -3 100.593 22.0980   3
  -4  12  -3 23.0429 18.8460   5
  -4  12  -3 20.3531 18.9011   3
  -5  12  -3 17.1696 20.2731   3
  -6  12  -3 -16.548 19.9536   3
  -7  12  -3 17.6719 22.0746   3
  -8  12  -3 19.6875 21.3029   3
  -9  12  -3 -5.9489 24.0254   3
  -8 -11   3 -22.246 22.9122   2
  -8 -11   3 38.9335 25.3200   4
  -7 -11   3 7.32201 21.4419   2
  -6 -11   3 15.8591 19.8590   2
   5  11  -3 -12.301 17.8168   5
   4  11  -3 -33.594 16.2447   5
  -4 -11   3 -18.557 14.4275   1
   3  11  -3 11.3574 17.4553   5
  -3 -11   3 3.57608 15.6925   1
   2  11  -3 -1.3262 14.3263   5
   1  11  -3 65.7508 18.8610   5
   0  11  -3 63.4531 16.9957   5
  -1  11  -3 60.1320 15.8934   3
  -1  11  -3 44.0161 18.3451   5
  -2  11  -3 16.6796 15.5817   3
  -2  11  -3 42.1558 18.4176   5
  -3  11  -3 -12.842 16.6394   5
  -3  11  -3 4.80633 16.8418   3
  -4  11  -3 18.5753 18.8941   3
  -4  11  -3 38.9063 18.5306   5
  -5  11  -3 17.6731 17.4415   3
  -6  11  -3 104.821 24.3517   3
  -7  11  -3 18.3078 18.9593   3
  -8  11  -3 22.1500 20.3902   3
  -9  11  -3 -3.3398 22.9923   3
 -10  11  -3 -13.860 22.3966   3
  -9 -10   3 51.8967 26.2468   4
  -9 -10   3 27.9412 25.3507   2
  -8 -10   3 19.8366 23.4652   4
  -8 -10   3 -15.787 20.9355   2
  -7 -10   3 58.1895 23.1507   2
  -6 -10   3 31.9839 18.2503   2
   5  10  -3 35.2144 17.8050   5
   4  10  -3 79.4341 19.3451   5
  -4 -10   3 87.2870 18.0806   1
   3  10  -3 186.635 21.7837   5
  -3 -10   3 154.408 19.3155   1
   2  10  -3 61.4486 17.6167   5
   1  10  -3 17.2546 14.7409   5
   0  10  -3 13.0445 12.8319   3
   0  10  -3 32.0078 16.2284   5
  -1  10  -3 -15.774 15.2623   5
  -1  10  -3 -2.5991 12.7970   3
  -2  10  -3 22.2533 16.3775   5
  -2  10  -3 21.5270 15.5232   3
  -3  10  -3 61.5936 16.5379   5
  -3  10  -3 54.3581 17.4217   3
  -4  10  -3 117.219 20.6253   3
  -4  10  -3 76.3675 17.9943   5
  -5  10  -3 16.4251 17.6583   3
  -6  10  -3 -9.0033 17.4486   3
  -7  10  -3 29.0835 20.1668   3
  -8  10  -3 -5.3401 20.2909   3
  -9  10  -3 -1.7003 22.7819   3
 -10  10  -3 8.85925 24.3702   3
  -9  -9   3 39.8680 24.9341   4
  -9  -9   3 3.68974 22.8119   2
  -8  -9   3 15.4562 19.5862   2
  -8  -9   3 17.7069 20.4925   4
  -7  -9   3 59.6009 22.6070   4
  -7  -9   3 7.34500 20.2459   2
  -6  -9   3 50.9543 20.3289   2
   5   9  -3 37.3079 16.3079   5
  -5  -9   3 13.2861 15.2302   2
  -5  -9   3 48.8768 15.0868   1
   4   9  -3 13.0365 15.2788   5
  -4  -9   3 -3.0864 13.5513   1
   3   9  -3 -2.1829 12.8336   5
  -3  -9   3 -21.549 12.2419   1
   2   9  -3 59.6432 15.4141   5
   1   9  -3 125.273 18.1657   5
   0   9  -3 81.2226 15.6996   5
   0   9  -3 85.1251 13.5423   3
  -1   9  -3 -0.8463 12.7872   5
  -1   9  -3 27.3786 12.8506   3
  -2   9  -3 49.8476 14.9197   3
  -2   9  -3 53.4056 16.5097   5
  -3   9  -3 9.62331 14.6515   3
  -3   9  -3 34.9751 14.8405   5
  -4   9  -3 106.632 17.5054   3
  -5   9  -3 9.92639 17.1387   3
  -6   9  -3 22.9295 18.8400   3
  -7   9  -3 52.9238 21.8119   3
  -8   9  -3 29.2574 21.8396   3
  -9   9  -3 44.6249 21.8557   3
 -10   9  -3 -24.928 22.0389   3
 -11   9  -3 1.53942 24.7039   3
 -10  -8   3 0.94254 23.1779   2
 -10  -8   3 22.7455 25.8588   4
  -9  -8   3 15.5706 23.9400   4
  -9  -8   3 40.5567 24.8379   2
  -8  -8   3 21.3836 20.9897   2
  -8  -8   3 12.2242 21.7816   4
  -7  -8   3 4.36860 19.8967   4
  -7  -8   3 -20.694 19.5391   2
  -6  -8   3 7.38225 17.4097   2
  -6  -8   3 20.5579 14.7437   1
   5   8  -3 155.599 19.2232   5
  -5  -8   3 119.756 18.9530   2
  -5  -8   3 172.116 18.6054   1
   4   8  -3 124.443 18.0707   5
  -4  -8   3 118.853 16.7698   1
   3   8  -3 197.645 19.9735   5
  -3  -8   3 168.708 17.2614   1
   2   8  -3 55.0325 15.7043   5
   1   8  -3 13.4430 13.5533   5
   1   8  -3 -2.5142 8.58493   3
   0   8  -3 -10.559 9.73782   3
   0   8  -3 12.1476 12.1247   5
  -1   8  -3 90.7713 13.6665   3
  -1   8  -3 71.0322 14.0988   5
  -2   8  -3 144.686 16.3585   3
  -2   8  -3 130.865 17.9878   5
  -3   8  -3 253.077 20.4233   3
  -3   8  -3 265.456 20.9746   5
  -4   8  -3 223.121 21.1140   3
  -5   8  -3 40.8316 16.7723   3
  -6   8  -3 -2.5147 16.4986   3
  -7   8  -3 42.2357 19.6720   3
  -8   8  -3 -0.4086 18.7227   3
  -9   8  -3 45.8172 22.4940   3
  -9   8  -3 23.5230 21.3750   4
 -10   8  -3 5.79677 22.3564   3
 -10   8  -3 32.5561 22.9308   4
 -11   8  -3 66.9831 26.2177   3
 -11   8  -3 79.4533 26.0799   4
 -10  -7   3 1.07258 19.9239   2
 -10  -7   3 -32.920 22.2998   4
  -9  -7   3 35.5933 24.1567   4
  -9  -7   3 5.20594 21.4069   2
  -8  -7   3 38.7777 21.4334   2
  -8  -7   3 53.6124 22.7596   4
  -7  -7   3 107.422 22.7086   2
  -7  -7   3 50.9159 19.4476   4
  -6  -7   3 54.0174 19.0775   2
  -6  -7   3 46.2813 15.3457   1
   5   7  -3 67.8173 14.5568   5
  -5  -7   3 37.8043 14.2078   1
  -5  -7   3 65.4458 17.9228   2
   4   7  -3 0.28799 12.6247   5
  -4  -7   3 -4.1940 11.9063   1
   3   7  -3 11.6060 11.9379   5
  -3  -7   3 23.1107 11.9301   1
   2   7  -3 65.8535 14.0489   5
   1   7  -3 236.450 13.6840   3
   1   7  -3 241.402 19.2340   5
   0   7  -3 18.3900 9.27745   3
   0   7  -3 27.6666 11.5103   5
  -1   7  -3 10.8259 9.99164   3
  -1   7  -3 -7.3932 10.4596   5
  -2   7  -3 245.808 19.3135   5
  -2   7  -3 261.177 18.4843   3
  -3   7  -3 -24.627 9.83546   3
  -3   7  -3 9.25319 12.3402   5
  -4   7  -3 13.6867 12.5197   3
  -5   7  -3 41.2198 15.0717   3
  -6   7  -3 -7.9665 13.8366   3
  -7   7  -3 64.5215 18.7090   1
  -7   7  -3 78.1978 18.2917   4
  -7   7  -3 75.1250 20.4529   3
  -8   7  -3 18.1464 16.2646   1
  -8   7  -3 25.8730 18.2210   4
  -8   7  -3 68.1765 21.5305   3
  -8   7  -3 56.4487 20.0417   2
  -9   7  -3 -30.495 18.0196   1
  -9   7  -3 53.3030 21.2052   2
  -9   7  -3 27.0218 19.7851   4
  -9   7  -3 36.2226 21.6673   3
 -10   7  -3 8.93641 21.5578   4
 -10   7  -3 -34.827 20.1499   1
 -10   7  -3 -15.812 19.7557   2
 -10   7  -3 -5.5651 22.0167   3
 -11   7  -3 42.7611 23.9446   4
 -11   7  -3 -19.298 23.1228   3
 -11   7  -3 37.2489 24.4076   1
 -11   7  -3 26.4173 24.0128   2
 -10  -6   3 36.2345 25.0471   4
 -10  -6   3 15.2562 23.4654   2
  -9  -6   3 25.6103 21.6762   2
  -9  -6   3 49.9456 23.7493   4
  -8  -6   3 -2.9319 19.3620   2
  -8  -6   3 -36.420 18.7009   4
  -7  -6   3 10.3904 18.3413   2
  -7  -6   3 22.5895 17.8401   4
  -7  -6   3 16.5810 14.8480   1
  -6  -6   3 16.4220 15.1774   2
  -6  -6   3 24.7340 15.9447   4
  -6  -6   3 8.98967 13.6748   1
   5   6  -3 196.219 17.2121   5
  -5  -6   3 294.975 20.3837   1
  -5  -6   3 219.000 20.3582   2
   4   6  -3 86.4933 13.6361   5
  -4  -6   3 87.5459 13.8608   1
   3   6  -3 268.679 18.7036   5
  -3  -6   3 294.515 18.5814   1
   2   6  -3 105.593 14.4105   5
   2   6  -3 84.6681 8.50628   3
  -2  -6   3 80.7203 12.3309   1
   1   6  -3 -7.7337 9.37625   5
   1   6  -3 -2.8106 6.67679   3
   0   6  -3 15.3766 11.2754   5
   0   6  -3 10.3461 8.14471   3
  -1   6  -3 98.0858 12.9293   5
  -1   6  -3 86.8033 11.2734   3
  -2   6  -3 301.285 18.3284   3
  -2   6  -3 303.426 17.7482   5
  -3   6  -3 562.179 23.6363   3
  -4   6  -3 196.771 18.4009   3
  -5   6  -3 3.19560 13.8835   3
  -5   6  -3 2.65938 12.1521   4
  -6   6  -3 1.57985 14.9921   3
  -6   6  -3 23.7818 14.9802   1
  -6   6  -3 -13.646 12.9821   4
  -6   6  -3 -15.895 13.5894   2
  -7   6  -3 47.0622 17.2627   1
  -7   6  -3 39.5965 17.2507   2
  -7   6  -3 71.8094 19.3513   3
  -7   6  -3 8.02242 15.6278   4
  -8   6  -3 154.740 22.5982   3
  -8   6  -3 172.059 23.7116   1
  -8   6  -3 201.417 23.0238   4
  -8   6  -3 174.877 21.6321   2
  -9   6  -3 117.002 23.3229   3
  -9   6  -3 114.086 23.0409   1
  -9   6  -3 90.1817 20.7500   4
  -9   6  -3 104.205 20.9972   2
 -10   6  -3 29.5983 20.6373   4
 -10   6  -3 -36.239 20.2824   3
 -10   6  -3 11.0509 20.5747   1
 -10   6  -3 -12.003 21.0403   2
 -11   6  -3 -16.519 20.2560   1
 -11   6  -3 -21.299 22.8993   2
 -11   6  -3 22.0938 22.1860   4
 -11   6  -3 27.7262 23.6409   3
 -12   6  -3 -15.092 22.9392   2
 -11  -5   3 37.8673 24.9294   4
 -11  -5   3 25.2373 23.8054   2
 -10  -5   3 20.9691 22.7354   2
 -10  -5   3 -14.647 22.7294   4
  -9  -5   3 29.9104 21.6382   2
  -9  -5   3 23.7628 22.3880   4
  -8  -5   3 38.3821 20.6767   2
  -8  -5   3 56.5059 19.8507   4
  -8  -5   3 56.7127 17.2270   1
  -7  -5   3 55.1850 17.9424   4
  -7  -5   3 45.3763 17.1524   2
  -7  -5   3 45.2796 15.5867   1
  -6  -5   3 57.9636 14.7272   1
  -6  -5   3 22.6909 16.9460   4
  -6  -5   3 71.3988 17.8810   2
   5   5  -3 13.1029 10.9394   5
  -5  -5   3 11.5310 11.9642   1
  -5  -5   3 13.6645 13.1167   2
   4   5  -3 20.1739 10.7278   5
  -4  -5   3 11.5339 10.9889   1
   3   5  -3 15.6608 9.71397   5
  -3  -5   3 11.6570 10.1938   1
   2   5  -3 467.906 19.6536   5
  -2  -5   3 504.204 19.4951   1
   1   5  -3 47.6058 7.25208   3
   1   5  -3 35.2181 11.2827   5
   0   5  -3 120.728 10.4931   3
   0   5  -3 125.459 13.0355   5
  -1   5  -3 226.780 15.5582   5
  -1   5  -3 232.725 14.9416   3
  -2   5  -3 10.7771 10.3117   5
  -2   5  -3 5.56258 9.89464   3
  -3   5  -3 75.9768 12.8425   3
  -4   5  -3 -1.8298 10.5097   3
  -4   5  -3 -0.1148 9.82985   4
  -5   5  -3 169.112 15.7224   4
  -5   5  -3 158.552 16.5241   2
  -5   5  -3 147.524 17.2660   3
  -5   5  -3 185.505 16.6428   1
  -6   5  -3 445.674 23.7622   4
  -6   5  -3 354.605 25.4731   2
  -6   5  -3 357.639 25.8367   3
  -6   5  -3 379.768 25.5469   1
  -7   5  -3 464.825 29.3039   3
  -7   5  -3 417.161 27.4833   2
  -7   5  -3 513.885 29.3450   1
  -7   5  -3 430.678 27.1459   4
  -8   5  -3 68.2901 19.4757   1
  -8   5  -3 132.298 20.6890   4
  -8   5  -3 87.2056 20.1649   2
  -8   5  -3 95.6417 18.9368   3
  -9   5  -3 9.48890 19.0879   2
  -9   5  -3 -10.265 18.6118   1
  -9   5  -3 -8.4565 15.9666   4
  -9   5  -3 9.65908 19.2706   3
 -10   5  -3 -19.020 19.3517   3
 -10   5  -3 5.48594 20.9233   2
 -10   5  -3 -3.4167 18.5138   4
 -10   5  -3 0.16352 19.5186   1
 -11   5  -3 28.1071 22.5083   1
 -11   5  -3 3.80997 21.6291   4
 -11   5  -3 1.26584 25.5803   3
 -11   5  -3 22.8440 24.5018   2
 -12   5  -3 7.64707 25.9492   2
 -12   5  -3 53.1466 24.3390   4
 -11  -4   3 41.6171 23.5304   4
 -11  -4   3 21.8903 24.2226   2
 -10  -4   3 28.2316 20.3151   2
 -10  -4   3 47.7589 24.4150   4
  -9  -4   3 33.0478 20.9013   4
  -9  -4   3 36.1615 20.8150   2
  -8  -4   3 19.5275 15.7315   1
  -8  -4   3 0.75069 18.9349   4
  -8  -4   3 24.7703 16.8660   2
  -7  -4   3 1.32970 13.5350   1
  -7  -4   3 -18.924 16.3607   4
  -7  -4   3 16.4450 16.9508   2
  -6  -4   3 87.2472 18.3841   2
  -6  -4   3 84.4176 17.9142   4
  -6  -4   3 73.3633 14.6930   1
   5   4  -3 82.8499 11.8449   5
  -5  -4   3 95.5920 13.9122   1
  -5  -4   3 98.4349 16.9604   4
  -5  -4   3 127.903 17.2828   2
   4   4  -3 358.225 16.8290   5
  -4  -4   3 414.852 20.0263   1
   3   4  -3 11.3358 9.11631   5
  -3  -4   3 8.36880 9.63196   1
   2   4  -3 260.865 15.3696   5
  -2  -4   3 259.370 15.8727   1
   1   4  -3 88.9606 7.55254   3
   1   4  -3 105.222 11.7661   5
   0   4  -3 8.62702 8.53079   5
   0   4  -3 25.9838 7.39649   3
  -1   4  -3 346.296 15.2676   3
  -1   4  -3 313.431 17.4155   5
  -2   4  -3 245.337 16.1518   3
  -3   4  -3 440.692 18.5378   3
  -4   4  -3 19.7317 9.72300   4
  -4   4  -3 26.1478 11.1528   1
  -4   4  -3 31.7603 10.7104   3
  -4   4  -3 40.9820 11.4666   2
  -5   4  -3 9.03236 10.9710   4
  -5   4  -3 -17.483 11.7276   3
  -5   4  -3 14.9809 12.2432   2
  -5   4  -3 11.6488 10.8174   1
  -6   4  -3 46.0300 13.2200   4
  -6   4  -3 68.4002 15.8010   2
  -6   4  -3 56.1926 13.9271   3
  -6   4  -3 78.8060 15.6338   1
  -7   4  -3 -0.1409 14.8560   1
  -7   4  -3 20.0197 17.0074   2
  -7   4  -3 -6.5220 13.5755   3
  -7   4  -3 7.96107 13.9032   4
  -8   4  -3 60.2485 17.8823   1
  -8   4  -3 48.3839 20.0206   2
  -8   4  -3 25.7222 15.9024   3
  -8   4  -3 28.2380 16.4474   4
  -9   4  -3 23.1144 18.2644   3
  -9   4  -3 -10.886 16.9170   2
  -9   4  -3 37.7014 19.1412   4
  -9   4  -3 32.3341 17.9656   1
 -10   4  -3 26.5699 22.6986   2
 -10   4  -3 5.71213 19.3828   1
 -10   4  -3 18.7537 20.2759   3
 -10   4  -3 -3.0221 19.3283   4
 -11   4  -3 -13.975 19.4892   4
 -11   4  -3 -30.865 19.1511   1
 -11   4  -3 -17.025 20.4047   2
 -12   4  -3 -16.256 21.3577   4
 -12   4  -3 1.29532 25.5986   2
 -11  -3   3 -6.0837 23.3493   2
 -11  -3   3 -33.335 22.2794   4
 -10  -3   3 13.6845 21.7309   2
 -10  -3   3 30.1564 23.6304   4
  -9  -3   3 21.2104 16.5668   1
  -9  -3   3 -11.027 19.9804   4
  -9  -3   3 12.8179 19.5974   2
  -8  -3   3 32.6738 19.1267   2
  -8  -3   3 51.7562 17.9563   4
  -8  -3   3 42.3909 16.3339   1
  -7  -3   3 143.359 18.2440   1
  -7  -3   3 121.446 20.7518   4
  -7  -3   3 122.057 20.4567   2
  -6  -3   3 212.584 20.1680   2
  -6  -3   3 206.490 20.1449   4
  -6  -3   3 186.030 18.0122   1
  -5  -3   3 -13.837 12.0939   2
  -5  -3   3 33.9187 14.1324   4
  -5  -3   3 -0.5229 10.5191   1
   4   3  -3 35.2347 8.62323   5
  -4  -3   3 10.7827 9.77114   1
  -4  -3   3 21.1306 10.9440   4
  -4  -3   3 23.4155 10.3792   2
   3   3  -3 23.1185 8.10270   5
  -3  -3   3 0.62180 8.64481   1
  -2  -3   3 222.892 15.1984   1
   0   3  -3 78.1289 8.43107   3
  -1   3  -3 400.557 15.0562   5
  -1   3  -3 394.561 15.1744   3
  -2   3  -3 40.3427 9.93745   3
  -3   3  -3 168.393 14.0986   3
  -3   3  -3 167.329 13.2933   2
  -3   3  -3 156.352 11.0674   4
  -4   3  -3 760.657 20.2321   4
  -4   3  -3 750.659 23.6910   3
  -4   3  -3 738.691 20.9266   1
  -4   3  -3 769.023 23.9809   2
  -5   3  -3 1062.04 29.0881   2
  -5   3  -3 1015.18 25.2695   4
  -5   3  -3 1025.14 28.3421   3
  -5   3  -3 1033.42 27.2728   1
  -6   3  -3 142.487 17.5190   2
  -6   3  -3 150.310 17.2703   3
  -6   3  -3 119.117 16.4478   1
  -6   3  -3 151.996 15.5486   4
  -7   3  -3 106.150 16.9254   3
  -7   3  -3 88.4558 16.2216   1
  -7   3  -3 86.8477 16.5730   4
  -7   3  -3 91.4205 18.6076   2
  -8   3  -3 87.1354 18.0124   4
  -8   3  -3 85.5395 20.1145   2
  -8   3  -3 116.231 18.3529   3
  -8   3  -3 86.4276 18.4497   1
  -9   3  -3 11.1023 16.2434   4
  -9   3  -3 36.3749 18.4369   1
  -9   3  -3 35.2430 17.1590   3
  -9   3  -3 31.6804 20.5351   2
 -10   3  -3 10.7472 19.1399   1
 -10   3  -3 -1.8712 21.3218   2
 -10   3  -3 23.0391 19.4166   4
 -10   3  -3 -22.333 24.4105   3
 -11   3  -3 -12.022 19.7276   4
 -11   3  -3 31.2451 24.0098   2
 -12   3  -3 32.8212 26.8217   2
 -12   3  -3 28.7723 22.4037   4
 -11  -2   3 24.4677 23.5200   4
 -11  -2   3 23.3270 21.1102   2
 -10  -2   3 48.6212 24.1013   4
 -10  -2   3 27.2120 21.4860   1
 -10  -2   3 17.2371 21.9002   2
  -9  -2   3 13.9500 19.8320   4
  -9  -2   3 14.0083 16.2860   1
  -9  -2   3 4.92185 19.3653   2
  -8  -2   3 11.1384 14.8986   1
  -8  -2   3 7.82370 17.8432   2
  -8  -2   3 -21.473 17.0654   4
  -7  -2   3 7.58613 16.7111   4
  -7  -2   3 31.4859 14.0079   1
  -7  -2   3 -12.161 15.2072   2
  -6  -2   3 49.6800 14.3105   2
  -6  -2   3 26.6760 13.4513   1
  -6  -2   3 59.0977 16.3593   4
  -5  -2   3 38.9633 13.9767   4
  -5  -2   3 61.8270 13.0942   2
  -5  -2   3 33.5076 11.9382   1
  -4  -2   3 16.2499 9.76949   2
  -4  -2   3 54.6143 11.1398   4
  -4  -2   3 44.3402 11.0836   1
  -3  -2   3 310.092 16.4092   1
  -3  -2   3 285.070 16.0244   4
  -2  -2   3 -3.4782 8.63843   1
  -1  -2   3 14.2187 9.25813   1
  -1   2  -3 225.859 12.3141   3
  -2   2  -3 722.799 18.6905   3
  -3   2  -3 1239.98 22.4252   1
  -3   2  -3 1288.30 25.2174   3
  -3   2  -3 1265.41 25.1587   2
  -3   2  -3 1319.20 24.6323   4
  -4   2  -3 328.705 16.5141   1
  -4   2  -3 286.945 17.3838   3
  -4   2  -3 334.947 14.9189   4
  -4   2  -3 320.923 17.4000   2
  -5   2  -3 8.00674 10.3097   2
  -5   2  -3 26.8626 11.1620   3
  -5   2  -3 5.31369 9.48985   4
  -5   2  -3 -5.7369 9.31406   1
  -6   2  -3 -6.0386 11.3030   2
  -6   2  -3 12.2275 11.9154   1
  -6   2  -3 23.4184 11.6762   3
  -6   2  -3 14.9458 11.2987   4
  -7   2  -3 29.1721 12.7930   3
  -7   2  -3 6.71658 13.2666   1
  -7   2  -3 0.31450 12.2903   4
  -7   2  -3 -0.6203 12.9959   2
  -8   2  -3 65.1530 17.1703   2
  -8   2  -3 20.2506 14.0980   3
  -8   2  -3 32.4321 15.2815   1
  -8   2  -3 19.5054 14.5960   4
  -9   2  -3 61.3385 18.5989   4
  -9   2  -3 104.233 19.4874   1
  -9   2  -3 77.4427 17.8736   3
  -9   2  -3 54.0277 18.5358   2
 -10   2  -3 67.0021 20.6942   2
 -10   2  -3 97.3930 20.8270   1
 -10   2  -3 97.0945 20.8117   4
 -11   2  -3 23.7284 20.4126   4
 -11   2  -3 26.5951 24.2152   2
 -12   2  -3 9.48881 21.1203   4
 -12   2  -3 -17.338 24.6964   2
 -11  -1   3 53.4192 24.2969   4
 -11  -1   3 36.4828 23.5228   2
 -10  -1   3 10.2428 21.8592   2
 -10  -1   3 -6.7114 21.5137   4
 -10  -1   3 21.6392 19.0880   1
  -9  -1   3 42.2169 22.1385   4
  -9  -1   3 19.9929 17.0044   1
  -9  -1   3 58.8301 21.1477   2
  -8  -1   3 24.9621 17.8488   2
  -8  -1   3 48.3842 20.0145   4
  -8  -1   3 38.3550 16.2467   1
  -7  -1   3 124.860 19.4240   2
  -7  -1   3 121.286 17.8513   1
  -7  -1   3 107.443 19.8816   4
  -6  -1   3 100.398 17.4464   4
  -6  -1   3 88.5618 13.6139   1
  -6  -1   3 70.9839 14.8107   2
  -5  -1   3 115.728 14.2557   1
  -5  -1   3 117.477 15.3783   4
  -5  -1   3 123.716 15.4195   2
  -4  -1   3 36.4371 11.4578   4
  -4  -1   3 28.2485 10.9387   2
  -4  -1   3 12.8992 10.2990   1
  -3  -1   3 24.7706 10.1157   4
  -3  -1   3 41.0409 9.62118   1
  -3  -1   3 45.4945 9.95929   2
  -2  -1   3 144.664 10.9921   4
  -2  -1   3 126.623 11.4277   1
  -1  -1   3 1.25395 7.38254   1
  -1   1  -3 130.940 9.00500   3
  -2   1  -3 241.544 12.3288   2
  -2   1  -3 232.939 11.9241   3
  -3   1  -3 92.9485 10.2206   2
  -3   1  -3 81.4323 9.29844   1
  -3   1  -3 85.7920 10.8420   3
  -4   1  -3 216.321 15.2413   2
  -4   1  -3 256.011 14.5909   4
  -4   1  -3 233.355 15.5308   3
  -4   1  -3 239.603 14.1657   1
  -5   1  -3 106.332 12.0700   1
  -5   1  -3 101.417 11.9867   4
  -5   1  -3 82.9556 11.9005   3
  -5   1  -3 89.7702 12.9550   2
  -6   1  -3 257.343 18.9642   3
  -6   1  -3 216.028 16.6600   4
  -6   1  -3 246.564 19.9968   2
  -6   1  -3 242.995 17.7714   1
  -7   1  -3 38.8672 13.1283   1
  -7   1  -3 20.2989 11.8178   3
  -7   1  -3 32.1447 13.1490   4
  -7   1  -3 50.5381 16.5165   2
  -8   1  -3 141.410 17.2025   3
  -8   1  -3 122.700 20.9746   2
  -8   1  -3 133.190 18.1993   4
  -8   1  -3 139.746 17.7139   1
  -9   1  -3 45.4431 16.8737   1
  -9   1  -3 20.8579 18.0065   2
  -9   1  -3 25.1905 16.3191   4
 -10   1  -3 37.2242 18.2194   4
 -10   1  -3 9.06484 21.2179   2
 -11   1  -3 5.00079 18.9026   4
 -11   1  -3 34.3200 23.1948   2
 -12   1  -3 -7.0227 24.0994   2
 -12   1  -3 -14.509 18.9057   4
 -11   0   3 42.6520 22.1693   1
 -11   0   3 67.2068 25.9007   4
 -11   0   3 16.1443 20.2583   2
 -10   0   3 62.6263 23.3085   2
 -10   0   3 60.9167 20.9078   1
 -10   0   3 96.0891 25.2081   4
  -9   0   3 55.7572 19.6648   2
  -9   0   3 92.9188 20.0740   1
  -9   0   3 57.5203 20.8815   4
  -8   0   3 -23.708 13.6560   2
  -8   0   3 14.4891 17.8188   4
  -8   0   3 -30.164 14.4275   1
  -7   0   3 -10.874 13.0856   1
  -7   0   3 -15.269 15.2153   4
  -7   0   3 0.58099 14.7062   2
  -6   0   3 100.762 16.1958   1
  -6   0   3 125.164 17.8739   4
  -6   0   3 102.720 15.2821   2
  -5   0   3 15.5079 11.7497   4
  -5   0   3 29.1562 10.8650   2
  -5   0   3 35.5832 12.3149   1
  -4   0   3 30.4252 10.3596   4
  -4   0   3 13.6499 10.9288   1
  -4   0   3 9.70237 8.94371   2
  -3   0   3 43.9031 10.0157   1
  -3   0   3 13.6068 8.65554   2
  -3   0   3 26.4348 9.39012   4
  -2   0   3 917.558 19.9398   1
  -2   0   3 942.516 20.0248   4
  -1   0   3 181.179 10.5549   1
   0   0   3 215.429 9.37237   1
  -1   0  -3 831.233 17.5700   3
  -2   0  -3 72.5754 8.29410   2
  -2   0  -3 98.7024 9.34750   3
  -3   0  -3 6.18598 9.27504   2
  -3   0  -3 10.3685 6.79411   1
  -3   0  -3 11.1327 7.99307   3
  -4   0  -3 382.344 13.9818   1
  -4   0  -3 409.843 17.7365   2
  -4   0  -3 389.886 15.9038   3
  -4   0  -3 408.491 15.5378   4
  -5   0  -3 23.5658 11.4612   2
  -5   0  -3 52.4234 9.96143   3
  -5   0  -3 37.7657 10.4590   4
  -5   0  -3 38.3539 9.12408   1
  -6   0  -3 -1.1276 9.12237   3
  -6   0  -3 10.1702 10.0281   1
  -6   0  -3 -9.7901 10.1043   4
  -6   0  -3 3.95216 10.6413   2
  -7   0  -3 13.7174 13.5093   2
  -7   0  -3 -9.8553 10.5076   3
  -7   0  -3 17.7140 11.5733   1
  -7   0  -3 28.4158 13.4138   4
  -8   0  -3 166.948 20.3869   4
  -8   0  -3 148.914 20.4156   2
  -8   0  -3 173.307 17.6992   1
  -8   0  -3 140.137 16.2992   3
  -9   0  -3 446.902 29.9960   4
  -9   0  -3 406.154 26.6852   1
  -9   0  -3 382.680 30.8467   2
 -10   0  -3 67.2825 23.2054   2
 -10   0  -3 114.721 21.8810   4
 -11   0  -3 31.7229 23.5139   2
 -11   0  -3 15.3242 19.3570   4
 -12   0  -3 -8.6496 24.1714   2
 -12   0  -3 31.0247 23.0608   4
 -11   1   3 7.61779 22.6242   2
 -11   1   3 5.65257 20.6026   1
 -11   1   3 -0.9556 23.1387   4
 -10   1   3 -17.341 19.4670   2
 -10   1   3 -27.362 20.9103   4
 -10   1   3 -25.436 17.8786   1
  -9   1   3 29.3323 20.1166   4
  -9   1   3 -6.8279 18.0925   2
  -9   1   3 -13.056 17.0735   1
  -8   1   3 27.6567 15.7518   1
  -8   1   3 14.7032 15.8188   2
  -8   1   3 -15.438 16.9586   4
  -7   1   3 158.927 20.1668   2
  -7   1   3 127.362 18.1590   1
  -7   1   3 125.903 20.1381   4
  -6   1   3 69.4876 14.5722   2
  -6   1   3 71.4858 16.5522   4
  -6   1   3 89.5782 15.6931   1
  -6   1   3 51.8135 11.4227   3
  -5   1   3 -15.088 10.0685   2
  -5   1   3 -1.8249 8.45057   3
  -5   1   3 -10.703 10.5536   1
  -5   1   3 -9.5922 10.3950   4
  -4   1   3 363.131 18.3543   2
  -4   1   3 365.873 18.9878   1
  -4   1   3 354.766 19.3684   4
  -4   1   3 375.313 15.6007   3
  -3   1   3 119.992 11.3645   1
  -3   1   3 117.302 11.2712   2
  -3   1   3 123.721 12.4733   4
  -2   1   3 181.488 12.1067   2
  -2   1   3 171.821 12.6816   1
  -2   1   3 187.240 13.9969   4
  -1   1   3 684.792 14.0615   1
   0   1   3 858.280 12.2868   1
  -2  -1  -3 4.47127 6.85878   3
  -3  -1  -3 4.43532 7.11864   3
  -3  -1  -3 17.9272 7.95949   2
  -3  -1  -3 8.64000 5.75770   1
  -4  -1  -3 199.196 14.9002   2
  -4  -1  -3 191.697 12.5871   3
  -4  -1  -3 198.927 11.8319   1
  -4  -1  -3 187.020 13.5622   4
  -5  -1  -3 256.262 19.4140   2
  -5  -1  -3 264.091 13.8450   1
  -5  -1  -3 285.765 15.2305   3
  -5  -1  -3 275.005 16.7280   4
  -6  -1  -3 199.565 14.1587   1
  -6  -1  -3 192.775 16.4937   4
  -6  -1  -3 192.781 14.2966   3
  -6  -1  -3 182.490 18.0590   2
  -7  -1  -3 329.029 22.9027   4
  -7  -1  -3 277.828 21.3989   2
  -7  -1  -3 311.885 19.2235   1
  -7  -1  -3 276.892 18.5683   3
  -8  -1  -3 124.999 19.0540   2
  -8  -1  -3 80.9322 17.7054   4
  -8  -1  -3 98.8419 15.4511   1
  -9  -1  -3 37.6861 19.7817   2
  -9  -1  -3 -6.5725 16.0423   4
 -10  -1  -3 39.4705 21.2057   2
 -10  -1  -3 41.8032 18.4100   4
 -11  -1  -3 43.4869 24.0060   2
 -11  -1  -3 4.31542 19.7836   4
 -12  -1  -3 40.2149 26.0064   2
 -12  -1  -3 15.3411 21.4974   4
 -11   2   3 42.2031 22.6802   1
 -11   2   3 65.1050 24.7672   4
 -11   2   3 39.2515 23.3978   2
 -10   2   3 43.5430 23.1798   4
 -10   2   3 46.7174 22.5593   2
 -10   2   3 19.7050 18.9951   1
  -9   2   3 32.2697 17.6297   1
  -9   2   3 57.8454 22.0345   4
  -9   2   3 48.9281 18.7398   2
  -8   2   3 15.0150 16.9707   2
  -8   2   3 11.8035 16.1184   1
  -8   2   3 7.50265 18.4553   4
  -7   2   3 19.4499 12.5566   3
  -7   2   3 11.9978 15.1058   2
  -7   2   3 32.8735 16.7082   4
  -7   2   3 19.8526 15.4218   1
  -6   2   3 85.1744 14.5244   1
  -6   2   3 105.119 16.0531   2
  -6   2   3 74.5097 17.1534   4
  -6   2   3 95.0534 13.7082   3
  -5   2   3 123.945 15.2580   1
  -5   2   3 134.609 15.1148   4
  -5   2   3 116.153 13.8725   2
  -5   2   3 138.231 13.3360   3
  -4   2   3 262.812 18.5597   4
  -4   2   3 290.987 16.4166   3
  -4   2   3 287.880 16.8287   2
  -4   2   3 278.377 18.2645   1
  -3   2   3 839.755 20.0912   3
  -3   2   3 872.719 20.0813   2
  -3   2   3 887.129 23.0658   4
  -3   2   3 852.122 22.6076   1
  -2   2   3 181.528 13.5104   2
  -2   2   3 151.763 11.1351   1
  -2   2   3 186.644 12.7042   4
  -1   2   3 88.2878 8.96441   1
   0   2   3 203.095 8.72916   1
  -2  -2  -3 56.1304 7.66494   3
  -3  -2  -3 298.700 9.03791   1
  -3  -2  -3 303.106 15.5911   2
  -3  -2  -3 303.113 12.6175   3
  -4  -2  -3 32.2851 9.97869   4
  -4  -2  -3 40.2631 10.7534   2
  -4  -2  -3 22.0845 6.70660   1
  -4  -2  -3 32.5288 7.83570   3
  -5  -2  -3 73.4357 9.52513   3
  -5  -2  -3 77.0557 9.07908   1
  -5  -2  -3 73.3973 11.9755   4
  -5  -2  -3 69.2065 12.8035   2
  -6  -2  -3 20.3845 9.08420   3
  -6  -2  -3 15.2121 9.32773   1
  -6  -2  -3 25.2217 12.8709   2
  -6  -2  -3 29.2135 12.5399   4
  -7  -2  -3 94.7466 17.7166   2
  -7  -2  -3 118.180 13.6566   1
  -7  -2  -3 124.814 17.5320   4
  -8  -2  -3 104.012 18.0305   4
  -8  -2  -3 125.912 21.4277   2
  -9  -2  -3 199.192 25.2930   2
  -9  -2  -3 256.899 26.0059   4
 -10  -2  -3 53.4978 19.4849   2
 -10  -2  -3 83.6077 21.2994   4
 -11  -2  -3 -22.362 21.3110   2
 -11  -2  -3 14.8928 20.6647   4
 -12  -2  -3 38.4877 26.2609   2
 -12  -2  -3 22.0868 22.2946   4
 -11   3   3 -19.090 20.5418   1
 -11   3   3 -4.7289 22.5128   2
 -11   3   3 -5.1000 22.0881   4
 -10   3   3 -24.812 19.0206   4
 -10   3   3 -19.887 19.1880   2
 -10   3   3 -19.773 18.8030   1
  -9   3   3 51.2844 20.1190   1
  -9   3   3 28.3786 19.8208   4
  -9   3   3 36.1447 20.1442   2
  -8   3   3 79.0684 17.8617   2
  -8   3   3 70.0270 20.0513   4
  -8   3   3 97.5644 20.0641   1
  -8   3   3 105.621 17.4995   3
  -7   3   3 26.4134 15.3207   2
  -7   3   3 29.9911 14.4044   3
  -7   3   3 32.5221 15.8692   1
  -7   3   3 23.0298 17.7502   4
  -6   3   3 51.7390 13.3087   3
  -6   3   3 39.5118 13.1907   2
  -6   3   3 83.1523 16.2657   1
  -6   3   3 34.8527 16.8864   4
  -5   3   3 85.3919 14.4303   4
  -5   3   3 101.425 13.1451   3
  -5   3   3 104.496 13.0842   2
  -5   3   3 100.726 13.8410   1
  -4   3   3 117.022 14.1272   4
  -4   3   3 141.900 13.3198   3
  -4   3   3 89.9798 12.2043   1
  -4   3   3 108.729 12.1676   2
  -3   3   3 83.1943 11.0448   3
  -3   3   3 63.2889 10.9610   4
  -3   3   3 76.8679 11.5299   1
  -3   3   3 95.5307 9.90877   2
  -2   3   3 210.539 14.9754   3
  -2   3   3 222.590 14.9512   1
  -2   3   3 202.469 14.1112   4
  -1   3   3 188.467 10.9725   1
  -1   3   3 197.000 12.4678   4
   0   3   3 2.13521 5.63176   1
  -2  -3  -3 62.0137 7.94672   3
  -3  -3  -3 9.94164 6.50071   3
  -3  -3  -3 -0.3093 7.44702   2
  -3  -3  -3 -5.9282 7.45365   1
  -4  -3  -3 490.614 14.3587   3
  -4  -3  -3 488.342 19.6277   2
  -4  -3  -3 491.090 12.4261   1
  -5  -3  -3 625.640 16.1518   1
  -5  -3  -3 647.955 22.9946   2
  -5  -3  -3 640.285 16.8221   3
  -5  -3  -3 629.613 22.8780   4
  -6  -3  -3 245.328 14.4004   1
  -6  -3  -3 268.756 20.9980   2
  -6  -3  -3 220.750 17.2956   4
  -6  -3  -3 271.277 14.7019   3
  -7  -3  -3 89.6690 16.8025   4
  -7  -3  -3 93.1710 16.4768   2
  -8  -3  -3 11.3228 16.7132   2
  -8  -3  -3 32.9646 16.4535   4
  -9  -3  -3 35.5623 18.0201   4
  -9  -3  -3 79.2704 21.3789   2
 -10  -3  -3 81.4406 21.7002   4
 -10  -3  -3 107.975 24.1368   2
 -11  -3  -3 0.69150 21.5885   2
 -11  -3  -3 -2.8729 20.4609   4
 -12  -3  -3 -8.7401 19.8072   4
 -12  -3  -3 -24.181 23.4204   2
 -11   4   3 -2.7720 21.3763   4
 -11   4   3 13.9487 22.2937   1
 -11   4   3 25.8991 24.2763   2
 -10   4   3 98.3576 24.5935   2
 -10   4   3 46.2419 22.0843   1
 -10   4   3 29.0387 21.1608   4
  -9   4   3 13.7143 18.1350   4
  -9   4   3 5.08959 19.3611   2
  -9   4   3 22.6083 18.5018   1
  -8   4   3 -16.037 15.4368   2
  -8   4   3 6.65682 17.2483   1
  -8   4   3 -17.171 16.8563   4
  -8   4   3 8.69922 15.1284   3
  -7   4   3 -16.227 13.7749   1
  -7   4   3 -13.455 13.6673   2
  -7   4   3 7.37874 13.8139   3
  -7   4   3 3.82825 16.5225   4
  -6   4   3 109.276 16.0736   3
  -6   4   3 110.809 18.9651   4
  -6   4   3 137.142 17.0313   1
  -6   4   3 97.1467 15.5187   2
  -5   4   3 168.631 16.6126   1
  -5   4   3 153.045 15.0656   2
  -5   4   3 194.503 18.6483   4
  -5   4   3 142.192 15.7927   3
  -4   4   3 360.592 19.1542   1
  -4   4   3 325.373 19.4110   4
  -4   4   3 365.438 17.8930   2
  -4   4   3 355.456 19.5850   3
  -3   4   3 758.647 22.4665   4
  -3   4   3 787.398 18.2828   2
  -3   4   3 756.529 22.9834   3
  -3   4   3 783.685 23.0178   1
  -2   4   3 8.98019 9.72811   3
  -2   4   3 11.5621 10.3408   4
  -2   4   3 17.7641 9.53352   1
  -1   4   3 6.28103 7.70041   1
   0   4   3 16.7090 6.58525   1
  -2  -4  -3 1002.56 18.0703   2
  -3  -4  -3 95.2544 6.06186   1
  -3  -4  -3 101.260 8.12468   3
  -3  -4  -3 102.759 10.2979   2
  -4  -4  -3 84.5875 11.5054   2
  -4  -4  -3 81.5956 8.09599   3
  -4  -4  -3 92.8537 7.69190   1
  -5  -4  -3 -2.4932 10.5396   2
  -5  -4  -3 -2.1023 6.60207   3
  -5  -4  -3 4.98106 6.81119   1
  -6  -4  -3 9.78809 13.1347   4
  -6  -4  -3 23.7543 13.3804   2
  -6  -4  -3 24.7970 8.59620   1
  -7  -4  -3 54.1239 15.5119   2
  -7  -4  -3 54.6535 15.2937   4
  -8  -4  -3 159.530 22.4407   4
  -8  -4  -3 113.460 21.0835   2
  -9  -4  -3 35.0480 18.2041   4
  -9  -4  -3 53.5265 19.7569   2
 -10  -4  -3 -20.471 19.2894   2
 -10  -4  -3 -1.6551 19.9709   4
 -11  -4  -3 10.8798 23.1950   2
 -11  -4  -3 21.9248 21.1584   4
 -12  -4  -3 -1.9430 22.7111   2
 -12  -4  -3 -34.537 20.5463   4
 -11   5   3 7.18540 23.5251   2
 -11   5   3 -5.5613 22.3203   1
 -11   5   3 -2.5018 23.6323   4
 -10   5   3 8.01571 21.7821   4
 -10   5   3 1.36746 21.0837   1
 -10   5   3 27.0832 21.9746   2
  -9   5   3 67.2913 21.2495   2
  -9   5   3 28.4329 20.3976   1
  -9   5   3 24.8799 20.7215   4
  -9   5   3 45.8324 19.3226   3
  -8   5   3 133.100 24.0721   4
  -8   5   3 166.179 21.4146   3
  -8   5   3 126.632 20.3831   1
  -8   5   3 160.497 22.8594   2
  -7   5   3 45.8482 17.9234   1
  -7   5   3 55.4981 16.6202   3
  -7   5   3 86.4254 18.7260   4
  -7   5   3 82.5263 17.3570   2
  -6   5   3 -11.499 14.4671   1
  -6   5   3 8.80380 13.0754   2
  -6   5   3 -29.787 14.1581   4
  -6   5   3 -14.256 13.2717   3
  -5   5   3 -5.5017 12.4796   3
  -5   5   3 15.3329 13.9365   1
  -5   5   3 -4.1612 10.2683   2
  -5   5   3 6.71628 14.2596   4
  -4   5   3 14.9392 11.9405   3
  -4   5   3 4.82871 12.9013   4
  -4   5   3 -5.0140 10.1334   1
  -4   5   3 -8.2278 7.87519   2
  -3   5   3 140.680 15.0032   4
  -3   5   3 113.809 13.9562   3
  -3   5   3 119.449 10.0497   2
  -3   5   3 122.609 13.6761   1
  -2   5   3 407.143 18.9836   3
  -2   5   3 382.278 16.1456   1
  -2   5   3 355.877 19.0909   4
  -1   5   3 383.959 15.8411   5
  -1   5   3 403.714 15.5664   1
   0   5   3 37.9385 7.74037   1
   0   5   3 24.3100 9.54965   5
  -2  -5  -3 50.2515 7.80082   2
  -3  -5  -3 49.4612 9.30135   2
  -3  -5  -3 58.7226 7.41186   3
  -3  -5  -3 60.8980 6.09951   1
  -4  -5  -3 0.79346 5.73089   1
  -4  -5  -3 3.50348 9.12545   2
  -4  -5  -3 21.4317 6.47997   3
  -5  -5  -3 131.637 10.2159   1
  -5  -5  -3 125.193 14.9216   2
  -6  -5  -3 173.786 18.4629   2
  -7  -5  -3 74.4028 17.8662   2
  -7  -5  -3 71.2514 17.6965   4
  -8  -5  -3 -2.8767 16.9380   2
  -8  -5  -3 20.8424 16.4934   4
  -9  -5  -3 2.58090 18.7381   2
  -9  -5  -3 24.0613 19.0044   4
 -10  -5  -3 23.7637 20.0014   4
 -10  -5  -3 22.4525 21.1675   2
 -11  -5  -3 21.7888 21.9926   4
 -11  -5  -3 1.95368 22.0605   2
 -12  -5  -3 -9.4526 23.7868   2
 -12  -5  -3 36.8541 23.2258   4
 -11   6   3 -10.436 22.3705   4
 -11   6   3 29.6945 23.8810   1
 -11   6   3 19.2526 23.5821   2
 -10   6   3 20.3965 21.6884   2
 -10   6   3 -6.0604 21.8201   4
 -10   6   3 19.8963 22.9314   1
  -9   6   3 11.2898 18.7832   3
  -9   6   3 40.0951 20.7675   2
  -9   6   3 30.3359 22.9339   4
  -9   6   3 21.1061 19.8760   1
  -8   6   3 7.26482 18.0585   1
  -8   6   3 -10.118 16.0976   2
  -8   6   3 40.7528 20.6454   4
  -8   6   3 -3.3437 17.4803   3
  -7   6   3 8.18175 17.8872   4
  -7   6   3 6.05605 15.8016   2
  -7   6   3 29.8469 17.7019   1
  -7   6   3 1.91222 15.9762   3
  -6   6   3 8.16846 16.7126   4
  -6   6   3 23.6547 15.3728   3
  -6   6   3 -8.9424 12.8629   2
  -6   6   3 8.21681 14.4242   1
  -5   6   3 208.988 20.1467   1
  -5   6   3 200.843 16.5357   2
  -5   6   3 173.190 19.0845   3
  -5   6   3 204.946 20.7060   4
  -4   6   3 254.858 14.6757   5
  -4   6   3 267.193 20.5272   4
  -4   6   3 220.436 18.4076   3
  -4   6   3 240.861 17.9926   1
  -4   6   3 219.217 14.8896   2
  -3   6   3 410.611 20.9840   1
  -3   6   3 439.499 20.4120   4
  -3   6   3 404.302 16.4600   5
  -3   6   3 398.011 21.5919   3
  -3   6   3 402.476 16.0156   2
  -2   6   3 54.3746 11.1051   3
  -2   6   3 71.4397 11.8649   1
  -2   6   3 77.7377 10.0246   5
  -1   6   3 7.67431 9.24369   5
  -1   6   3 3.82064 8.45162   1
   0   6   3 144.644 12.2423   5
   1   6   3 568.087 20.4462   5
  -2  -6  -3 879.030 18.8037   2
  -3  -6  -3 -6.1535 5.67353   1
  -3  -6  -3 4.60973 6.40571   3
  -3  -6  -3 5.04591 8.30202   2
  -4  -6  -3 91.0680 8.12532   1
  -4  -6  -3 84.4068 7.94818   3
  -4  -6  -3 92.3033 12.3586   2
  -5  -6  -3 23.3048 11.6423   2
  -6  -6  -3 12.2553 11.9889   2
  -7  -6  -3 1.82555 16.2927   4
  -7  -6  -3 15.2947 13.9038   2
  -8  -6  -3 5.27246 15.1293   4
  -8  -6  -3 -15.215 16.6805   2
  -9  -6  -3 -23.711 16.2364   2
  -9  -6  -3 16.0025 20.2349   4
 -10  -6  -3 10.7068 20.1379   2
 -10  -6  -3 14.8277 20.1188   4
 -11  -6  -3 -16.814 22.0940   2
 -11  -6  -3 -0.3524 21.8001   4
 -11   7   3 -1.6378 26.7568   1
 -11   7   3 -7.7864 24.0400   4
 -10   7   3 21.9564 22.7728   1
 -10   7   3 -22.450 21.6616   4
  -9   7   3 -8.4824 20.0863   4
  -9   7   3 31.6291 20.7177   2
  -9   7   3 24.4683 20.8665   3
  -9   7   3 25.2253 22.2148   1
  -8   7   3 27.6890 18.4727   2
  -8   7   3 14.6195 20.2808   1
  -8   7   3 26.1596 18.8074   4
  -8   7   3 30.2609 19.0460   3
  -7   7   3 23.7310 17.3614   1
  -7   7   3 22.8381 16.5284   2
  -7   7   3 56.6172 19.7734   4
  -7   7   3 60.8660 18.1821   3
  -6   7   3 27.8730 15.9029   4
  -6   7   3 12.7311 14.7611   3
  -6   7   3 11.5126 13.2138   2
  -6   7   3 20.3832 16.9903   1
  -5   7   3 1.60623 14.6265   3
  -5   7   3 -5.9314 14.5190   1
  -5   7   3 23.8061 14.4154   4
  -5   7   3 2.07915 10.7805   2
  -4   7   3 26.6988 14.3167   3
  -4   7   3 47.4818 10.6676   5
  -4   7   3 25.9145 14.1436   4
  -4   7   3 27.2030 14.3591   1
  -4   7   3 21.2760 9.66848   2
  -3   7   3 28.6178 11.6258   1
  -3   7   3 42.7354 12.5990   3
  -3   7   3 39.1386 10.6939   5
  -2   7   3 639.732 20.4948   5
  -2   7   3 611.054 22.2590   1
  -2   7   3 653.615 24.5388   3
  -1   7   3 604.849 21.0139   5
  -1   7   3 635.779 19.7252   1
   0   7   3 122.684 13.3267   5
   1   7   3 135.770 13.4154   5
   2   7   3 33.1855 11.8253   5
  -3  -7  -3 54.0563 10.0205   2
  -3  -7  -3 56.9527 7.81211   1
   3   7   3 42.8623 13.0678   5
  -4  -7  -3 -2.7254 10.0759   2
  -5  -7  -3 90.2338 14.5054   2
  -6  -7  -3 88.4815 16.2528   2
  -7  -7  -3 14.7934 15.7673   2
   7   7   3 -14.739 13.4389   5
  -8  -7  -3 14.4499 19.2176   4
  -8  -7  -3 -10.683 16.6785   2
  -9  -7  -3 -6.7853 16.7245   4
  -9  -7  -3 21.5390 20.3104   2
 -10  -7  -3 31.6005 22.2479   2
 -10  -7  -3 14.8899 20.4799   4
 -11  -7  -3 10.4691 23.7134   4
 -11  -7  -3 25.9553 24.1123   2
 -10   8   3 38.6321 24.7016   4
 -10   8   3 6.16035 22.9687   1
  -9   8   3 26.4942 23.2009   1
  -9   8   3 32.6725 23.7100   4
  -9   8   3 31.2619 21.6853   3
  -8   8   3 -6.9867 18.9550   3
  -8   8   3 5.78780 18.0847   4
  -8   8   3 -11.783 16.7839   1
  -7   8   3 24.4647 20.1154   1
  -7   8   3 18.7025 18.0202   3
  -7   8   3 71.0389 20.8909   4
  -6   8   3 10.0512 15.1755   2
  -6   8   3 -8.8028 15.7405   3
  -6   8   3 5.40136 15.6640   4
  -6   8   3 20.2158 17.3138   1
  -5   8   3 -3.8440 16.0480   1
  -5   8   3 27.5450 12.2165   2
  -5   8   3 11.2657 16.8610   4
  -5   8   3 -6.6941 15.3077   3
  -4   8   3 178.782 19.7959   1
  -4   8   3 163.405 15.0232   5
  -4   8   3 157.882 18.2666   3
  -3   8   3 204.639 16.2637   5
  -3   8   3 230.193 19.4934   1
  -3   8   3 258.284 21.1854   3
  -2   8   3 55.0706 11.7440   5
  -2   8   3 46.8266 12.5355   1
  -2   8   3 29.9863 13.0743   3
  -1   8   3 42.2572 11.6350   5
   0   8   3 116.236 14.4562   5
   1   8   3 -2.8768 9.98772   5
   2   8   3 701.595 24.7525   5
  -3  -8  -3 264.553 16.3953   2
   3   8   3 299.425 22.1751   5
  -4  -8  -3 141.437 15.3681   2
   4   8   3 159.593 18.5658   5
  -5  -8  -3 43.7872 13.2743   2
   5   8   3 38.2229 15.9189   5
  -6  -8  -3 -4.8832 13.6688   2
   6   8   3 1.14614 13.8208   5
  -7  -8  -3 5.11945 14.8678   2
   7   8   3 4.38424 15.4856   5
  -8  -8  -3 31.7451 18.9706   2
  -8  -8  -3 51.8588 21.4741   4
  -9  -8  -3 58.7368 21.5944   4
  -9  -8  -3 18.9387 20.7604   2
 -10  -8  -3 20.0440 22.9250   4
 -10  -8  -3 21.6486 23.0828   2
 -11  -8  -3 -13.171 22.8513   2
 -11  -8  -3 3.73576 23.1105   4
 -10   9   3 -11.587 23.6599   1
 -10   9   3 7.12053 23.4953   4
  -9   9   3 22.8874 21.2233   1
  -9   9   3 21.3162 22.1859   4
  -9   9   3 -32.265 20.1272   3
  -8   9   3 23.2773 21.5053   4
  -8   9   3 -3.5500 19.8713   1
  -8   9   3 9.62209 20.0933   3
  -7   9   3 33.8063 19.0955   4
  -7   9   3 58.8237 21.8003   1
  -7   9   3 44.6222 20.9478   3
  -6   9   3 89.9611 20.9671   1
  -6   9   3 35.4647 19.4147   3
  -5   9   3 -29.933 15.4075   1
  -5   9   3 8.65710 16.1740   3
  -4   9   3 192.572 21.2217   1
  -4   9   3 160.438 16.4274   5
  -4   9   3 151.336 18.9465   3
  -3   9   3 155.269 19.3707   3
  -3   9   3 195.611 17.2940   5
  -3   9   3 167.418 17.2255   1
  -2   9   3 333.313 24.3409   3
  -2   9   3 330.085 20.8949   5
  -2   9   3 312.039 21.0816   1
  -1   9   3 116.254 15.0709   5
   0   9   3 168.250 17.8481   5
   1   9   3 42.9841 12.8919   5
   2   9   3 58.1054 14.7833   5
  -3  -9  -3 12.8359 10.3771   2
   3   9   3 17.2985 14.1280   5
  -4  -9  -3 -8.8847 11.2491   2
   4   9   3 -7.8978 14.1096   5
  -5  -9  -3 128.926 17.2551   2
   5   9   3 111.445 18.1216   5
  -6  -9  -3 68.6693 16.6856   2
   6   9   3 72.3871 18.1684   5
  -7  -9  -3 26.7532 17.2301   2
   7   9   3 30.0057 17.1994   5
  -8  -9  -3 15.7095 19.1496   2
   8   9   3 28.2801 21.1851   5
  -9  -9  -3 29.4320 22.4583   4
  -9  -9  -3 -17.217 19.5988   2
 -10  -9  -3 -11.541 23.4916   2
 -10  -9  -3 34.7027 23.4173   4
 -10  10   3 8.16245 25.2659   4
  -9  10   3 -8.3009 21.9295   4
  -9  10   3 39.3375 24.6320   1
  -9  10   3 -12.813 20.7858   3
  -8  10   3 6.27696 20.5283   3
  -8  10   3 26.4860 23.1529   1
  -7  10   3 36.5751 20.1558   1
  -7  10   3 8.04974 19.6563   3
  -6  10   3 33.2168 20.7375   3
  -6  10   3 73.9883 21.2076   1
  -5  10   3 67.1833 20.0812   3
  -5  10   3 64.3546 19.0932   1
  -4  10   3 53.7224 17.1585   3
  -4  10   3 79.2744 15.7598   5
  -4  10   3 64.6951 16.2860   1
  -3  10   3 77.8835 18.2508   3
  -3  10   3 54.6879 14.9402   5
  -3  10   3 71.7563 15.8987   1
  -2  10   3 39.1054 15.9895   3
  -2  10   3 46.9759 14.8664   5
  -1  10   3 17.9080 13.6663   5
   0  10   3 35.8514 13.2796   5
   1  10   3 74.5124 16.8376   5
   2  10   3 205.866 20.9572   5
  -3 -10  -3 339.033 21.4513   2
   3  10   3 335.886 24.2329   5
  -4 -10  -3 198.689 17.8453   2
   4  10   3 199.548 22.2198   5
  -5 -10  -3 -6.5755 13.1971   2
   5  10   3 -23.777 15.0081   5
  -6 -10  -3 36.5934 16.2497   2
   6  10   3 -0.3540 16.1355   5
  -7 -10  -3 36.6641 17.6478   2
   7  10   3 5.54105 17.3900   5
  -8 -10  -3 27.1452 19.6614   2
   8  10   3 26.9564 18.7590   5
  -9 -10  -3 36.7591 22.9415   4
  -9 -10  -3 3.02693 20.8199   2
 -10 -10  -3 44.0028 25.3549   2
 -10 -10  -3 -11.867 20.4577   4
  -9  11   3 -3.5779 23.3811   3
  -9  11   3 -0.7685 22.9689   1
  -8  11   3 35.5663 22.3651   1
  -8  11   3 32.9851 22.7313   3
  -7  11   3 37.9932 21.0271   1
  -7  11   3 38.7613 21.3153   3
  -6  11   3 -14.482 18.5028   3
  -6  11   3 -5.5352 18.1775   1
  -5  11   3 19.5581 16.1070   1
  -5  11   3 5.39221 18.5304   3
  -4  11   3 -17.294 16.4883   3
  -4  11   3 3.42676 13.8719   5
  -4  11   3 27.1406 14.9377   1
  -3  11   3 48.0086 16.7134   3
  -3  11   3 42.2770 15.9532   5
  -2  11   3 158.715 19.4635   5
  -1  11   3 110.224 16.7644   5
   0  11   3 34.3844 15.6443   5
   1  11   3 56.5733 16.8113   5
   2  11   3 85.5341 19.1529   5
   3  11   3 121.506 20.0048   5
   4  11   3 106.627 18.8024   5
   5  11   3 54.5639 19.2901   5
  -6 -11  -3 -19.585 15.4770   2
   6  11   3 -18.678 16.6926   5
  -7 -11  -3 23.4754 17.4454   2
   7  11   3 49.9040 20.0972   5
  -8 -11  -3 15.3719 20.8014   2
   8  11   3 28.4749 20.0029   5
  -9 -11  -3 1.79430 20.1567   4
  -9 -11  -3 26.2268 23.3043   2
  -8  12   3 -20.138 21.5862   3
  -8  12   3 0.64944 22.9219   1
  -7  12   3 19.3607 21.8213   3
  -7  12   3 5.09751 20.9866   1
  -6  12   3 21.2391 19.6069   1
  -6  12   3 64.1655 22.2037   3
  -5  12   3 -0.3836 19.0886   3
  -4  12   3 50.3553 17.0067   5
  -4  12   3 72.8163 21.4454   3
  -3  12   3 12.1883 17.8872   3
  -3  12   3 13.1119 15.2936   5
  -2  12   3 22.9052 15.4649   5
  -1  12   3 21.7647 16.4779   5
   0  12   3 83.3482 18.6953   5
   1  12   3 136.654 20.4730   5
   2  12   3 63.8974 18.9774   5
   3  12   3 73.9927 20.0524   5
   4  12   3 14.9307 17.8989   5
   5  12   3 -9.4853 17.5620   5
   6  12   3 -19.147 18.3270   5
   7  12   3 -23.401 19.1823   5
   8  12   3 23.3097 20.9226   5
  -8  13   3 15.5529 23.0372   1
  -7  13   3 0.15454 23.4186   3
  -6  13   3 4.85589 21.0547   3
  -5  13   3 -10.906 17.4771   3
  -4  13   3 3.52694 15.9360   5
  -3  13   3 30.8660 16.8648   5
  -2  13   3 54.3681 18.6723   5
  -1  13   3 70.7794 20.5562   5
   0  13   3 144.404 20.5499   5
   1  13   3 56.8840 18.8478   5
   2  13   3 -1.9465 15.2247   5
   3  13   3 22.5349 19.2873   5
   4  13   3 76.8926 19.5529   5
   5  13   3 0.00282 19.4919   5
   6  13   3 36.0838 21.1025   5
   7  13   3 -25.970 19.6357   5
   8  13   3 -24.880 19.2500   5
  -4  14   3 15.3640 17.9560   5
  -3  14   3 29.4248 18.0171   5
  -2  14   3 -27.985 15.7002   5
  -1  14   3 18.9046 19.2643   5
   0  14   3 42.3576 20.5568   5
   1  14   3 13.2719 18.2073   5
   2  14   3 31.3519 19.3430   5
   3  14   3 25.7385 20.0037   5
   4  14   3 36.0144 21.0943   5
   5  14   3 -13.218 19.4034   5
   6  14   3 -9.9151 19.5145   5
   7  14   3 9.06646 21.6629   5
   8  14   3 21.3701 22.6324   5
  -4  15   3 -18.369 20.8580   5
  -3  15   3 43.6150 19.5588   5
  -2  15   3 65.0120 21.6155   5
  -1  15   3 14.1656 20.0978   5
   0  15   3 7.77195 18.2004   5
   1  15   3 -7.3156 19.6788   5
   2  15   3 -4.1960 19.8343   5
   3  15   3 21.4766 18.7003   5
   4  15   3 44.0669 22.7003   5
   5  15   3 46.2903 23.6266   5
   6  15   3 14.8752 23.2764   5
   7  15   3 -1.7353 21.7288   5
  -3  16   3 38.8683 21.2521   5
  -2  16   3 18.8922 19.4479   5
  -1  16   3 -2.1050 20.3956   5
   0  16   3 -16.433 19.9768   5
   1  16   3 25.7289 21.8427   5
   2  16   3 -3.4598 20.2333   5
   3  16   3 13.2251 21.0917   5
   4  16   3 -24.138 18.3980   5
   5  16   3 32.7554 23.7821   5
   6  16   3 6.39625 23.8190   5
  -3  17   3 22.9341 23.0268   5
  -2  17   3 -5.1735 20.6524   5
  -1  17   3 47.6038 23.8917   5
   0  17   3 -3.9378 21.5511   5
   1  17   3 1.50976 22.6635   5
   2  17   3 19.2169 21.8930   5
   3  17   3 21.1379 21.2246   5
   4  17   3 -23.849 21.1376   5
  -2  18   3 -15.516 21.6524   5
  -1  18   3 -26.985 21.4290   5
   0  18   3 -20.566 19.8328   5
   1  18   3 -14.747 23.1746   5
   2  18   3 3.44706 24.8911   5
   1  17  -4 -15.772 24.1408   5
   0  17  -4 1.39382 24.8733   5
  -1  17  -4 -14.242 24.2269   5
  -2  17  -4 -4.4487 24.3555   5
  -3  17  -4 1.68813 24.4427   5
   3  16  -4 8.40818 22.3173   5
   2  16  -4 19.9026 20.9066   5
   1  16  -4 3.90717 22.6319   5
   0  16  -4 14.0932 24.2161   5
  -1  16  -4 -23.932 19.4991   5
  -2  16  -4 -16.528 22.8556   5
  -3  16  -4 34.7159 24.4986   5
  -4  16  -4 15.0545 25.1490   3
  -5  16  -4 5.86906 23.3668   3
   5  15  -4 -16.321 21.6789   5
   4  15  -4 23.9308 23.5063   5
   3  15  -4 -0.2119 21.3161   5
   2  15  -4 -30.470 17.8854   5
   1  15  -4 19.5805 20.6229   5
   0  15  -4 -2.5908 18.8249   5
  -1  15  -4 13.9750 22.3162   5
  -2  15  -4 27.3154 24.5774   5
  -3  15  -4 5.55771 21.3710   5
  -4  15  -4 -23.809 20.2194   3
  -5  15  -4 32.9155 23.5175   3
  -6  15  -4 12.6478 23.4905   3
  -6 -14   4 66.9496 26.0828   2
   5  14  -4 -15.731 20.6184   5
  -5 -14   4 -12.801 21.6777   2
   4  14  -4 -12.673 20.5472   5
   3  14  -4 -3.7051 17.6681   5
   2  14  -4 4.53828 20.4510   5
   1  14  -4 100.200 24.5241   5
   0  14  -4 57.5788 23.1327   5
  -1  14  -4 34.2591 22.1188   5
  -2  14  -4 13.2331 19.4215   5
  -3  14  -4 51.5494 21.0805   5
  -3  14  -4 21.9107 20.3232   3
  -4  14  -4 -3.0265 21.0146   3
  -5  14  -4 14.1444 22.4307   3
  -6  14  -4 32.3893 24.2117   3
  -7  14  -4 16.6058 24.1983   3
  -7 -13   4 -23.897 22.3699   2
  -6 -13   4 21.7509 24.1655   2
   5  13  -4 17.2992 20.5573   5
   4  13  -4 48.0553 21.5416   5
   3  13  -4 2.90448 19.0309   5
  -3 -13   4 16.2444 24.4849   1
   2  13  -4 28.4262 19.9560   5
   1  13  -4 4.19049 17.1052   5
   0  13  -4 36.4650 20.8212   5
  -1  13  -4 -7.2217 17.2583   5
  -2  13  -4 37.7819 19.2838   3
  -2  13  -4 20.0055 20.5643   5
  -3  13  -4 51.8047 21.8446   3
  -3  13  -4 33.4763 18.8110   5
  -4  13  -4 4.79157 19.9162   3
  -5  13  -4 4.89290 21.3034   3
  -6  13  -4 -48.375 20.5097   3
  -7  13  -4 -3.2998 23.6174   3
  -8  13  -4 -0.3446 22.4066   3
  -7 -12   4 3.35854 23.2124   2
  -6 -12   4 23.4459 21.7089   2
   5  12  -4 33.0321 20.2132   5
   4  12  -4 16.7853 18.9211   5
   3  12  -4 10.3707 18.9835   5
  -3 -12   4 6.79108 16.9715   1
   2  12  -4 7.81357 17.3224   5
   1  12  -4 44.8979 17.9525   5
   0  12  -4 52.4400 20.3238   5
  -1  12  -4 26.0890 19.6099   5
  -2  12  -4 33.2467 18.3670   3
  -2  12  -4 19.2597 20.1583   5
  -3  12  -4 6.06479 18.0932   3
  -3  12  -4 -16.047 17.9165   5
  -4  12  -4 -16.302 17.9674   3
  -5  12  -4 -2.0584 19.8072   3
  -6  12  -4 37.2827 22.8402   3
  -7  12  -4 46.0530 23.8288   3
  -8  12  -4 -7.4747 23.2337   3
  -9  12  -4 -32.076 22.5162   3
  -8 -11   4 -26.214 23.1681   2
  -8 -11   4 -14.980 24.0419   4
  -7 -11   4 -11.000 22.0229   2
  -6 -11   4 44.6581 22.3513   2
   5  11  -4 26.5183 18.8469   5
   4  11  -4 52.0001 19.2632   5
  -4 -11   4 70.9231 18.3714   1
   3  11  -4 113.807 19.4752   5
  -3 -11   4 106.083 19.8283   1
   2  11  -4 30.3762 16.2911   5
   1  11  -4 -9.3183 14.6536   5
   0  11  -4 -8.1294 16.6054   5
  -1  11  -4 14.5759 15.3937   3
  -1  11  -4 23.7074 18.2291   5
  -2  11  -4 40.0449 18.2699   3
  -2  11  -4 28.1805 16.8785   5
  -3  11  -4 31.6721 19.2470   5
  -3  11  -4 71.8786 19.4886   3
  -4  11  -4 45.2125 19.1729   3
  -5  11  -4 18.9949 18.8333   3
  -6  11  -4 -15.719 19.6825   3
  -7  11  -4 18.5942 20.5769   3
  -8  11  -4 43.6844 24.5062   3
  -9  11  -4 21.5082 23.7759   3
 -10  11  -4 31.2452 27.1279   3
  -9 -10   4 3.13888 23.7123   4
  -9 -10   4 -1.0775 24.5313   2
  -8 -10   4 10.1829 23.7409   2
  -8 -10   4 6.75302 20.8133   4
  -7 -10   4 -11.889 19.8899   2
  -7 -10   4 38.0560 24.6108   4
  -6 -10   4 36.1066 21.6717   2
   5  10  -4 31.4242 18.0338   5
  -5 -10   4 -3.3467 15.2355   1
   4  10  -4 46.4651 17.2920   5
  -4 -10   4 6.85492 15.7410   1
   3  10  -4 68.8424 18.4994   5
  -3 -10   4 45.2406 17.4045   1
   2  10  -4 77.1510 18.2733   5
   1  10  -4 49.5169 17.3211   5
   0  10  -4 105.968 17.9123   5
  -1  10  -4 18.1540 15.2418   5
  -1  10  -4 60.1426 15.5663   3
  -2  10  -4 60.2554 16.9297   5
  -2  10  -4 82.3521 16.9552   3
  -3  10  -4 2.55593 15.9334   5
  -3  10  -4 26.6816 16.3005   3
  -4  10  -4 108.050 19.7526   3
  -5  10  -4 101.030 21.3317   3
  -6  10  -4 83.0412 22.4370   3
  -7  10  -4 71.0560 23.4137   3
  -8  10  -4 -27.310 20.0635   3
  -9  10  -4 34.8366 24.0382   3
 -10  10  -4 -5.7122 23.8735   3
  -9  -9   4 -29.129 18.9289   4
  -9  -9   4 -27.635 22.3449   2
  -8  -9   4 -2.1908 22.3349   2
  -8  -9   4 -7.3651 22.0010   4
  -7  -9   4 -11.486 20.8288   4
  -7  -9   4 -6.5958 20.3551   2
  -6  -9   4 49.9875 20.8277   2
   5   9  -4 105.969 19.1079   5
  -5  -9   4 91.1469 18.5997   1
   4   9  -4 25.0515 16.3998   5
  -4  -9   4 33.8436 15.2223   1
   3   9  -4 151.662 20.0854   5
  -3  -9   4 123.452 18.1016   1
   2   9  -4 97.8387 17.6898   5
   1   9  -4 4.53123 12.9937   5
   0   9  -4 -20.295 10.6095   3
   0   9  -4 5.12550 14.7528   5
  -1   9  -4 125.948 15.9659   3
  -1   9  -4 86.5213 16.2869   5
  -2   9  -4 31.0607 16.6503   5
  -2   9  -4 28.7905 14.0253   3
  -3   9  -4 53.7278 16.8981   5
  -3   9  -4 49.9426 16.1659   3
  -4   9  -4 52.8009 17.6919   3
  -5   9  -4 -1.0103 16.1019   3
  -6   9  -4 18.6434 17.8811   3
  -7   9  -4 -22.126 17.2877   3
  -8   9  -4 18.6149 21.1215   3
  -9   9  -4 55.8558 23.2408   3
 -10   9  -4 5.06504 24.1596   3
 -11   9  -4 21.8382 26.3968   3
  -9  -8   4 32.0045 21.6845   2
  -9  -8   4 13.2777 24.2375   4
  -8  -8   4 8.32326 22.4563   4
  -8  -8   4 -10.708 21.6581   2
  -7  -8   4 64.8382 21.0519   4
  -7  -8   4 20.2304 21.1360   2
  -6  -8   4 15.6599 18.4050   2
  -6  -8   4 36.2262 16.3591   1
   5   8  -4 8.24795 14.0805   5
  -5  -8   4 5.62753 14.5354   1
   4   8  -4 6.96528 14.3084   5
  -4  -8   4 6.52826 13.8199   1
   3   8  -4 5.10080 13.7696   5
  -3  -8   4 12.1535 13.4155   1
   2   8  -4 116.511 17.3066   5
   1   8  -4 109.466 16.7427   5
   0   8  -4 218.156 18.8617   5
   0   8  -4 235.911 17.4817   3
  -1   8  -4 19.1294 14.6908   5
  -1   8  -4 22.4897 11.6848   3
  -2   8  -4 7.29635 12.1271   3
  -2   8  -4 7.06081 12.6105   5
  -3   8  -4 14.3355 14.5893   3
  -3   8  -4 4.38050 12.1873   5
  -4   8  -4 61.1356 17.0604   3
  -5   8  -4 103.896 17.9166   3
  -6   8  -4 30.7040 18.1742   3
  -7   8  -4 56.9503 20.1009   3
  -8   8  -4 -19.927 18.2468   3
  -9   8  -4 -12.149 20.9383   3
 -10   8  -4 24.9090 22.5034   3
 -11   8  -4 -17.994 24.4354   3
 -10  -7   4 15.9660 24.0602   2
 -10  -7   4 8.10992 24.6411   4
  -9  -7   4 -6.3066 21.3163   2
  -9  -7   4 40.8240 23.9308   4
  -8  -7   4 2.93955 21.1312   4
  -8  -7   4 -18.941 19.6202   2
  -7  -7   4 -15.110 14.9042   1
  -7  -7   4 23.4621 18.2356   4
  -7  -7   4 -1.5510 19.1406   2
  -6  -7   4 50.8401 16.1631   1
  -6  -7   4 33.2444 19.2442   4
  -6  -7   4 49.3842 19.2703   2
   5   7  -4 70.5175 14.9756   5
  -5  -7   4 53.3059 15.8677   1
   4   7  -4 55.5664 14.8953   5
  -4  -7   4 64.3659 14.8578   1
   3   7  -4 189.528 18.5353   5
  -3  -7   4 169.386 16.7243   1
   2   7  -4 50.4555 13.7531   5
  -2  -7   4 67.6383 13.9269   1
   1   7  -4 53.0062 12.7022   5
   1   7  -4 65.6037 9.84317   3
   0   7  -4 98.6507 14.3516   5
   0   7  -4 107.917 12.0442   3
  -1   7  -4 221.748 16.1798   3
  -1   7  -4 176.741 16.7919   5
  -2   7  -4 -7.6354 12.4212   5
  -2   7  -4 -0.0678 11.4546   3
  -3   7  -4 16.8031 12.3903   3
  -4   7  -4 74.9702 16.7662   3
  -5   7  -4 23.5954 15.2290   3
  -6   7  -4 18.3335 17.0405   3
  -7   7  -4 13.3121 17.6357   3
  -7   7  -4 -7.6798 15.1427   4
  -8   7  -4 99.2044 20.2200   4
  -8   7  -4 148.070 24.3314   3
  -9   7  -4 88.3759 23.0307   3
  -9   7  -4 104.858 23.9272   2
  -9   7  -4 90.3399 21.6884   4
 -10   7  -4 37.4701 23.4349   2
 -10   7  -4 26.1850 21.2115   4
 -10   7  -4 24.7668 22.7707   3
 -11   7  -4 -17.886 23.9574   2
 -11   7  -4 32.8510 25.6490   3
 -10  -6   4 -14.141 23.1265   4
 -10  -6   4 -15.542 21.6829   2
  -9  -6   4 35.2813 21.2269   2
  -9  -6   4 42.9798 24.7383   4
  -8  -6   4 54.7346 21.6978   4
  -8  -6   4 56.5163 22.4851   2
  -7  -6   4 56.9710 21.2407   2
  -7  -6   4 39.8840 16.2702   1
  -7  -6   4 76.2673 19.9494   4
  -6  -6   4 103.978 22.1546   4
  -6  -6   4 94.6732 16.7597   1
  -6  -6   4 131.391 21.4663   2
   5   6  -4 9.04785 13.0224   5
  -5  -6   4 -18.586 12.6497   1
  -5  -6   4 18.1588 15.7373   2
   4   6  -4 -18.224 10.9943   5
  -4  -6   4 -12.095 11.2868   1
   3   6  -4 54.7182 13.2569   5
  -3  -6   4 37.0098 12.2191   1
   2   6  -4 490.030 21.8614   5
  -2  -6   4 501.657 22.2279   1
   1   6  -4 168.233 12.0592   3
   1   6  -4 170.135 15.7620   5
   0   6  -4 150.393 15.8794   5
   0   6  -4 132.032 11.5114   3
  -1   6  -4 -6.2755 8.99637   3
  -1   6  -4 12.3663 10.5238   5
  -2   6  -4 22.1651 9.89805   3
  -2   6  -4 14.5393 11.8732   5
  -3   6  -4 160.431 15.7404   3
  -4   6  -4 -2.8233 13.2312   3
  -5   6  -4 193.082 19.7956   3
  -6   6  -4 2.80572 15.4963   3
  -6   6  -4 7.51216 13.3823   4
  -7   6  -4 51.8006 18.1892   3
  -7   6  -4 52.3199 15.9737   4
  -7   6  -4 48.3647 18.4365   2
  -8   6  -4 6.37392 18.5018   2
  -8   6  -4 -5.6669 15.8704   4
  -8   6  -4 -4.1872 17.4068   1
  -8   6  -4 15.0544 18.5813   3
  -9   6  -4 -1.8209 18.7417   1
  -9   6  -4 21.3743 20.7087   2
  -9   6  -4 24.5654 20.0286   3
  -9   6  -4 -1.1062 17.8175   4
 -10   6  -4 -43.738 20.2567   2
 -10   6  -4 6.32738 19.2149   4
 -10   6  -4 -34.594 18.6412   1
 -10   6  -4 37.2019 22.7740   3
 -11   6  -4 6.67472 23.5022   2
 -11   6  -4 28.0471 22.3403   1
 -11   6  -4 21.7450 23.6071   3
 -12   6  -4 -8.4493 25.9437   1
 -12   6  -4 -17.509 24.1374   2
 -10  -5   4 58.8540 25.7634   4
 -10  -5   4 44.7710 23.9451   2
  -9  -5   4 21.1807 21.1101   2
  -9  -5   4 27.7443 22.7994   4
  -8  -5   4 0.46363 19.5883   4
  -8  -5   4 -12.217 19.1768   2
  -8  -5   4 26.0693 17.4533   1
  -7  -5   4 -11.180 17.4445   4
  -7  -5   4 0.94092 18.4300   2
  -7  -5   4 18.9785 15.7467   1
  -6  -5   4 0.39465 16.4156   4
  -6  -5   4 8.66895 16.2402   2
  -6  -5   4 8.01697 13.2566   1
  -5  -5   4 110.266 15.9947   1
  -5  -5   4 116.243 18.7031   4
  -5  -5   4 130.952 18.9344   2
   4   5  -4 572.958 22.2682   5
  -4  -5   4 608.790 24.2699   1
   3   5  -4 192.600 15.1574   5
  -3  -5   4 180.304 16.2971   1
   2   5  -4 57.3515 11.8554   5
  -2  -5   4 54.9189 11.4380   1
   1   5  -4 21.7631 10.5355   5
   1   5  -4 -0.0122 6.49537   3
   0   5  -4 36.9575 11.7479   5
   0   5  -4 21.4951 8.22147   3
  -1   5  -4 6.47628 9.09716   3
  -1   5  -4 14.6132 10.9831   5
  -2   5  -4 -3.7677 10.3895   5
  -2   5  -4 9.70632 10.3037   3
  -3   5  -4 381.296 19.1998   3
  -4   5  -4 123.485 15.6625   3
  -5   5  -4 -2.2876 11.2129   3
  -5   5  -4 0.33722 10.9754   4
  -6   5  -4 70.9574 14.5816   4
  -6   5  -4 54.0482 14.4820   2
  -6   5  -4 49.9166 15.0355   1
  -6   5  -4 92.1797 16.0866   3
  -7   5  -4 59.3895 17.3563   1
  -7   5  -4 61.4502 18.1201   2
  -7   5  -4 39.1251 15.1721   4
  -7   5  -4 45.5649 17.4806   3
  -8   5  -4 220.105 23.1939   1
  -8   5  -4 175.006 21.2437   4
  -8   5  -4 195.573 22.0229   3
  -8   5  -4 194.048 23.8950   2
  -9   5  -4 43.1729 19.4747   2
  -9   5  -4 30.1569 19.1123   1
  -9   5  -4 85.5247 20.5604   3
  -9   5  -4 59.1197 19.3104   4
 -10   5  -4 37.1521 21.9751   3
 -10   5  -4 22.6963 18.9246   1
 -10   5  -4 9.41596 19.5011   4
 -10   5  -4 10.5434 22.4289   2
 -11   5  -4 26.7990 24.4748   2
 -11   5  -4 -2.1865 21.3032   4
 -11   5  -4 -5.0235 19.9088   1
 -12   5  -4 -38.450 23.2546   2
 -11  -4   4 28.6722 25.8054   4
 -11  -4   4 -3.8598 23.0887   2
 -10  -4   4 -0.3181 21.3011   2
 -10  -4   4 -1.2090 23.0146   4
  -9  -4   4 49.6521 19.5315   1
  -9  -4   4 51.3169 21.7330   4
  -9  -4   4 -20.280 19.0673   2
  -8  -4   4 37.6156 21.3906   4
  -8  -4   4 49.0702 16.8138   1
  -8  -4   4 32.5087 20.2062   2
  -7  -4   4 103.830 18.3003   1
  -7  -4   4 107.412 21.3647   4
  -7  -4   4 110.229 19.5786   2
  -6  -4   4 121.737 20.4289   4
  -6  -4   4 88.0321 18.7512   2
  -6  -4   4 82.4458 16.3620   1
  -5  -4   4 -7.0952 11.9308   2
  -5  -4   4 -3.9179 12.0252   1
  -5  -4   4 -21.076 12.0733   4
   4   4  -4 39.3219 10.5937   5
  -4  -4   4 22.7054 11.5176   1
   3   4  -4 108.256 11.8864   5
  -3  -4   4 113.884 13.2816   1
   2   4  -4 42.5089 10.0393   5
  -2  -4   4 60.9225 11.5992   1
   1   4  -4 140.480 9.96952   3
   1   4  -4 159.945 13.1022   5
   0   4  -4 603.643 16.3369   3
   0   4  -4 591.577 18.9571   5
  -1   4  -4 158.125 12.3421   3
  -1   4  -4 169.754 14.1199   5
  -2   4  -4 0.43872 9.46202   3
  -3   4  -4 312.273 18.6492   3
  -4   4  -4 57.4410 10.1282   4
  -4   4  -4 42.6562 12.7599   3
  -5   4  -4 541.461 23.3392   1
  -5   4  -4 541.680 25.1082   3
  -5   4  -4 529.661 23.4472   2
  -5   4  -4 517.134 19.8797   4
  -6   4  -4 179.334 18.8416   2
  -6   4  -4 185.154 19.3522   3
  -6   4  -4 212.411 18.0671   4
  -6   4  -4 199.063 18.2339   1
  -7   4  -4 16.7751 14.7331   1
  -7   4  -4 52.2586 18.0556   2
  -7   4  -4 37.9946 14.7734   4
  -7   4  -4 11.1083 14.4005   3
  -8   4  -4 12.2297 15.7856   1
  -8   4  -4 37.7266 16.6197   4
  -8   4  -4 22.8583 18.8626   2
  -8   4  -4 8.65881 16.4209   3
  -9   4  -4 28.4718 18.5510   3
  -9   4  -4 -5.4873 16.6686   4
  -9   4  -4 35.0486 18.0760   1
  -9   4  -4 5.07500 19.8952   2
 -10   4  -4 14.0256 20.2051   3
 -10   4  -4 9.68987 17.9781   1
 -10   4  -4 43.1254 19.5387   4
 -10   4  -4 1.80316 22.1247   2
 -11   4  -4 19.8565 23.9901   2
 -11   4  -4 5.74586 21.3488   1
 -11   4  -4 -9.1624 20.4098   4
 -12   4  -4 50.1195 26.3723   2
 -11  -3   4 20.7216 25.0142   2
 -11  -3   4 2.20757 24.6532   4
 -10  -3   4 27.4480 23.7722   2
 -10  -3   4 94.5103 23.5146   4
  -9  -3   4 18.5937 20.8286   2
  -9  -3   4 36.3466 21.5393   4
  -9  -3   4 25.8032 18.3602   1
  -8  -3   4 -0.1392 15.4293   1
  -8  -3   4 33.2365 17.8961   4
  -8  -3   4 -7.3883 17.8772   2
  -7  -3   4 29.0122 16.0221   1
  -7  -3   4 36.3677 18.3867   2
  -7  -3   4 51.7557 19.2656   4
  -6  -3   4 111.683 19.6855   4
  -6  -3   4 113.376 17.2141   1
  -6  -3   4 132.739 19.4639   2
  -5  -3   4 114.427 16.0845   4
  -5  -3   4 114.655 14.9222   1
  -5  -3   4 159.981 17.7629   2
   4   3  -4 77.0351 10.2297   5
  -4  -3   4 41.1647 13.2850   4
  -4  -3   4 79.9617 12.5964   1
   3   3  -4 235.329 13.5003   5
  -3  -3   4 209.610 15.1075   1
   2   3  -4 304.417 13.8834   5
  -2  -3   4 296.365 17.0856   1
   1   3  -4 447.793 12.5638   3
   1   3  -4 441.946 16.2839   5
  -1  -3   4 415.911 17.8229   1
   0   3  -4 214.285 13.5330   5
   0   3  -4 251.799 12.5263   3
  -1   3  -4 12.1990 8.28675   3
  -2   3  -4 48.5635 10.6387   3
  -3   3  -4 842.344 17.9995   4
  -4   3  -4 455.002 16.9151   4
  -4   3  -4 449.453 20.7478   3
  -4   3  -4 433.974 19.3036   2
  -5   3  -4 -5.6665 9.87576   3
  -5   3  -4 -4.8399 9.37705   4
  -5   3  -4 -0.9479 10.1662   2
  -5   3  -4 10.4418 9.99566   1
  -6   3  -4 100.270 16.1313   3
  -6   3  -4 93.9793 15.2634   1
  -6   3  -4 83.7441 15.2957   2
  -6   3  -4 46.6610 12.9362   4
  -7   3  -4 13.2969 14.0656   3
  -7   3  -4 10.5630 13.2064   1
  -7   3  -4 3.06930 16.0053   2
  -7   3  -4 -8.2059 12.6430   4
  -8   3  -4 45.3912 16.2423   4
  -8   3  -4 67.9836 20.2167   2
  -8   3  -4 33.0679 16.1661   1
  -8   3  -4 19.6452 15.2875   3
  -9   3  -4 53.3401 18.0023   1
  -9   3  -4 94.8189 21.5916   2
  -9   3  -4 37.4911 18.1682   4
  -9   3  -4 71.3749 18.9869   3
 -10   3  -4 30.9952 19.0315   1
 -10   3  -4 47.3357 20.8268   3
 -10   3  -4 -7.3751 17.6378   4
 -10   3  -4 35.2766 23.7684   2
 -11   3  -4 -5.8384 19.6752   4
 -11   3  -4 -6.3754 20.3537   2
 -12   3  -4 29.4267 26.5143   2
 -11  -2   4 22.1001 25.0908   4
 -11  -2   4 -12.099 22.7092   2
 -10  -2   4 -29.012 19.4622   4
 -10  -2   4 18.1375 19.2906   1
 -10  -2   4 34.9141 22.8940   2
  -9  -2   4 9.24312 20.6828   4
  -9  -2   4 86.0111 20.3006   1
  -9  -2   4 88.4592 22.7601   2
  -8  -2   4 145.137 20.3020   1
  -8  -2   4 129.651 22.6182   2
  -8  -2   4 146.102 23.4149   4
  -7  -2   4 171.598 21.7047   2
  -7  -2   4 173.497 19.4613   1
  -7  -2   4 132.420 21.7546   4
  -6  -2   4 90.4351 16.2303   1
  -6  -2   4 61.1067 17.2348   4
  -6  -2   4 67.1910 16.7490   2
  -5  -2   4 75.8724 13.5372   1
  -5  -2   4 65.5826 14.0435   4
  -5  -2   4 83.8808 15.1625   2
  -4  -2   4 5.44114 10.1942   1
  -4  -2   4 4.29718 11.1598   4
  -4  -2   4 -7.3563 9.21634   2
  -3  -2   4 153.693 13.5812   1
  -3  -2   4 158.145 14.4812   4
  -2  -2   4 54.9031 10.7101   1
   1   2  -4 564.569 13.3898   3
  -1  -2   4 524.678 18.0379   1
   0   2  -4 602.990 15.3970   3
  -1   2  -4 65.1819 9.23572   3
  -2   2  -4 42.8675 8.94735   3
  -3   2  -4 159.188 13.3464   3
  -3   2  -4 141.530 12.4401   2
  -4   2  -4 399.247 16.7499   1
  -4   2  -4 414.368 19.2890   3
  -4   2  -4 389.330 15.3384   4
  -5   2  -4 14.7751 10.8774   2
  -5   2  -4 15.1856 10.6692   3
  -5   2  -4 -2.0839 8.68725   4
  -5   2  -4 22.7373 10.1876   1
  -6   2  -4 155.208 14.7723   4
  -6   2  -4 149.333 17.8284   2
  -6   2  -4 132.722 15.3992   3
  -6   2  -4 134.013 14.9287   1
  -7   2  -4 35.0317 13.5458   4
  -7   2  -4 53.3256 15.0309   3
  -7   2  -4 70.6948 18.3008   2
  -7   2  -4 55.5041 14.0995   1
  -8   2  -4 81.6146 17.1987   1
  -8   2  -4 103.446 17.5312   4
  -8   2  -4 57.0280 16.0726   3
  -8   2  -4 107.636 20.6350   2
  -9   2  -4 9.24166 14.7810   3
  -9   2  -4 56.3222 17.9441   1
  -9   2  -4 30.6775 20.7612   2
  -9   2  -4 46.5830 17.1514   4
 -10   2  -4 -14.100 18.6534   2
 -10   2  -4 41.8947 21.8580   1
 -10   2  -4 29.7713 16.9934   4
 -11   2  -4 24.4763 20.0478   4
 -11   2  -4 14.7217 20.1273   2
 -12   2  -4 44.4714 22.2840   4
 -12   2  -4 59.9939 27.0443   2
 -11  -1   4 62.0525 24.6386   2
 -11  -1   4 67.6692 26.1473   4
 -10  -1   4 37.6244 24.0317   4
 -10  -1   4 37.5990 23.0232   2
 -10  -1   4 20.7637 19.1152   1
  -9  -1   4 73.5679 22.1020   2
  -9  -1   4 20.4738 17.0086   1
  -9  -1   4 37.7417 19.2778   4
  -8  -1   4 -21.892 15.2813   1
  -8  -1   4 0.51928 17.3472   4
  -8  -1   4 -10.833 16.6597   2
  -7  -1   4 23.8125 15.2981   1
  -7  -1   4 10.6766 16.3671   4
  -7  -1   4 -11.662 14.8815   2
  -6  -1   4 7.59037 14.2315   2
  -6  -1   4 22.3036 14.0567   1
  -6  -1   4 26.3662 15.0300   4
  -5  -1   4 184.971 16.8987   2
  -5  -1   4 147.682 17.1846   4
  -5  -1   4 179.044 16.9754   1
  -4  -1   4 197.538 15.7541   1
  -4  -1   4 203.382 15.5566   4
  -4  -1   4 209.433 16.0242   2
  -3  -1   4 158.775 13.0609   4
  -3  -1   4 193.358 14.5084   1
  -2  -1   4 53.9753 10.1462   4
  -2  -1   4 45.5711 10.6784   1
   1   1  -4 159.286 10.1314   3
  -1  -1   4 157.131 11.6830   1
   0   1  -4 58.3687 8.25665   3
  -1   1  -4 1089.61 19.1977   3
  -2   1  -4 656.524 17.8806   3
  -3   1  -4 87.4811 10.5769   2
  -3   1  -4 94.1070 11.1606   3
  -4   1  -4 309.161 18.6833   2
  -4   1  -4 319.265 16.8990   3
  -4   1  -4 332.237 14.3013   4
  -4   1  -4 322.662 14.6328   1
  -5   1  -4 67.0573 13.4280   2
  -5   1  -4 74.1645 10.7852   4
  -5   1  -4 80.1351 10.7992   1
  -5   1  -4 39.6009 11.2163   3
  -6   1  -4 76.1503 13.3001   3
  -6   1  -4 53.9216 12.1821   4
  -6   1  -4 64.7219 15.0144   2
  -6   1  -4 49.0018 12.3791   1
  -7   1  -4 7.17718 14.7643   2
  -7   1  -4 5.05177 12.4443   4
  -7   1  -4 5.97644 12.7975   1
  -7   1  -4 3.59697 11.8699   3
  -8   1  -4 14.8073 13.6725   3
  -8   1  -4 57.7350 18.8828   2
  -8   1  -4 16.4126 13.9717   4
  -8   1  -4 -6.2964 13.3541   1
  -9   1  -4 79.3025 16.9938   3
  -9   1  -4 45.0431 16.6640   1
  -9   1  -4 38.2873 16.9542   4
  -9   1  -4 68.7256 21.2078   2
 -10   1  -4 67.9149 22.7396   2
 -10   1  -4 40.2195 19.0862   4
 -11   1  -4 20.0819 23.7570   2
 -11   1  -4 28.3689 20.0265   4
 -12   1  -4 -21.319 24.4652   2
 -12   1  -4 14.8200 20.0906   4
 -11   0   4 13.0728 22.0412   2
 -11   0   4 33.9842 25.1189   4
 -11   0   4 -5.0144 20.8411   1
 -10   0   4 -1.1846 21.6565   4
 -10   0   4 15.8235 20.8124   2
 -10   0   4 1.96410 18.8149   1
  -9   0   4 51.5165 21.8375   4
  -9   0   4 61.3055 18.8111   1
  -9   0   4 58.6126 21.3501   2
  -8   0   4 32.9043 16.8248   1
  -8   0   4 29.3025 16.2870   2
  -8   0   4 32.6113 19.2807   4
  -7   0   4 125.334 20.0198   4
  -7   0   4 131.808 18.4647   2
  -7   0   4 99.8505 17.4182   1
  -6   0   4 123.297 16.9891   4
  -6   0   4 123.012 17.0960   1
  -6   0   4 128.637 17.6560   2
  -5   0   4 139.729 16.1047   2
  -5   0   4 139.474 14.6619   1
  -5   0   4 113.989 16.3595   4
  -4   0   4 -3.8686 9.68165   2
  -4   0   4 7.83034 10.7653   1
  -4   0   4 9.48371 10.9630   4
  -3   0   4 504.965 19.0533   1
  -3   0   4 471.132 17.8469   4
  -3   0   4 492.475 17.4777   2
  -2   0   4 186.917 13.1996   1
  -2   0   4 227.782 14.6295   4
  -1   0   4 1169.43 20.8302   1
   0   0  -4 1545.75 19.9495   3
   0   0   4 1489.57 19.1510   1
  -1   0  -4 107.295 8.92344   3
  -2   0  -4 1005.84 18.9258   3
  -2   0  -4 983.122 18.2793   2
  -3   0  -4 39.0007 10.0411   2
  -3   0  -4 38.9670 9.04558   3
  -4   0  -4 703.620 22.2006   2
  -4   0  -4 661.256 19.9512   3
  -4   0  -4 642.703 16.6087   1
  -4   0  -4 650.965 16.9641   4
  -5   0  -4 273.038 16.5840   4
  -5   0  -4 306.049 15.6110   1
  -5   0  -4 280.363 16.7441   3
  -5   0  -4 283.126 20.4739   2
  -6   0  -4 111.890 13.7288   4
  -6   0  -4 99.5035 12.9635   3
  -6   0  -4 128.751 15.6485   2
  -6   0  -4 126.420 12.8020   1
  -7   0  -4 6.30776 12.2732   4
  -7   0  -4 15.8138 11.2756   3
  -7   0  -4 20.7248 16.3547   2
  -7   0  -4 17.5152 12.0639   1
  -8   0  -4 47.2997 15.4296   4
  -8   0  -4 51.2019 14.7429   1
  -8   0  -4 46.0831 18.3540   2
  -8   0  -4 45.3618 13.7782   3
  -9   0  -4 32.5243 19.7781   2
  -9   0  -4 2.77282 14.6240   4
 -10   0  -4 -1.7636 19.9856   2
 -10   0  -4 59.3646 17.9643   4
 -11   0  -4 29.9649 23.0018   2
 -11   0  -4 -9.2309 17.8957   4
 -12   0  -4 -14.993 23.4621   2
 -12   0  -4 44.5094 22.3644   4
 -11   1   4 9.89634 23.1117   2
 -11   1   4 103.461 25.3688   4
 -11   1   4 99.9289 24.9629   1
 -10   1   4 54.6017 21.7839   2
 -10   1   4 28.7092 23.1785   4
 -10   1   4 50.1041 21.1444   1
  -9   1   4 34.0117 19.1522   1
  -9   1   4 29.0047 20.0638   2
  -9   1   4 54.5403 20.8815   4
  -8   1   4 1.43230 16.2627   4
  -8   1   4 19.6655 17.9887   2
  -8   1   4 9.42289 16.6313   1
  -7   1   4 19.1386 16.2553   2
  -7   1   4 46.2121 17.8741   4
  -7   1   4 31.1528 14.8136   1
  -6   1   4 72.0049 14.9068   2
  -6   1   4 65.0718 15.7558   1
  -6   1   4 99.9156 17.7516   4
  -5   1   4 238.268 17.4562   1
  -5   1   4 249.824 18.0966   2
  -5   1   4 265.020 19.6187   4
  -4   1   4 151.379 12.7515   2
  -4   1   4 188.607 15.5189   1
  -4   1   4 181.045 15.6504   4
  -3   1   4 22.1382 9.32258   1
  -3   1   4 38.6700 10.7263   4
  -3   1   4 32.3708 8.80109   2
  -2   1   4 -1.5565 7.85096   4
  -2   1   4 14.2933 7.59292   2
  -2   1   4 -0.0849 8.93348   1
  -1   1   4 128.248 9.54000   1
   0   1   4 1.15875 6.51943   1
  -1  -1  -4 22.3432 7.86826   3
   1   1   4 29.1554 5.49552   1
  -2  -1  -4 185.321 11.9860   3
  -2  -1  -4 166.095 12.0880   2
  -3  -1  -4 143.317 9.00326   1
  -3  -1  -4 135.585 11.0753   2
  -3  -1  -4 136.158 11.2858   3
  -4  -1  -4 171.822 11.9740   3
  -4  -1  -4 171.693 11.5975   4
  -4  -1  -4 159.475 13.6272   2
  -4  -1  -4 155.775 9.64833   1
  -5  -1  -4 69.8830 12.6476   2
  -5  -1  -4 77.6878 9.57634   1
  -5  -1  -4 83.9604 11.4112   4
  -5  -1  -4 78.6531 10.9372   3
  -6  -1  -4 6.12661 9.05555   1
  -6  -1  -4 2.95411 9.58492   3
  -6  -1  -4 -1.3621 11.0291   2
  -6  -1  -4 -8.4706 10.1247   4
  -7  -1  -4 90.4095 13.1215   1
  -7  -1  -4 108.540 18.2492   2
  -7  -1  -4 97.1666 13.8083   3
  -7  -1  -4 101.732 15.2463   4
  -8  -1  -4 25.2300 15.1658   4
  -8  -1  -4 46.7524 15.9858   1
  -8  -1  -4 57.1888 18.6778   2
  -9  -1  -4 130.746 21.4770   2
  -9  -1  -4 156.631 21.6417   4
 -10  -1  -4 24.0543 17.9504   4
 -10  -1  -4 50.3923 21.8596   2
 -11  -1  -4 -19.164 21.0859   2
 -11  -1  -4 17.7893 18.2944   4
 -12  -1  -4 6.87232 23.4293   2
 -12  -1  -4 12.7677 20.2246   4
 -11   2   4 -35.368 20.6215   2
 -11   2   4 -27.784 19.9657   4
 -11   2   4 10.6256 21.3464   1
 -10   2   4 -29.668 20.6059   4
 -10   2   4 -19.376 19.6481   2
 -10   2   4 -2.7435 18.6757   1
  -9   2   4 46.5848 21.2559   4
  -9   2   4 25.7336 19.0867   2
  -9   2   4 29.9553 20.0098   1
  -8   2   4 144.071 21.0424   2
  -8   2   4 131.969 20.7454   4
  -8   2   4 149.813 21.7739   1
  -7   2   4 24.2212 17.5838   4
  -7   2   4 20.8430 16.0717   1
  -7   2   4 33.6796 14.5563   2
  -6   2   4 95.7156 18.0790   4
  -6   2   4 115.538 16.7152   2
  -6   2   4 96.2604 16.1628   1
  -5   2   4 11.7719 11.6650   4
  -5   2   4 10.7783 10.7414   2
  -5   2   4 17.9321 11.4419   1
  -4   2   4 7.71346 10.2086   4
  -4   2   4 22.8886 11.3604   1
  -4   2   4 21.7665 9.43524   2
  -3   2   4 -1.2638 7.49267   2
  -3   2   4 7.65329 9.86552   1
  -3   2   4 6.31948 9.10774   4
  -2   2   4 220.420 14.8222   4
  -2   2   4 224.670 15.0794   1
  -2   2   4 189.915 11.9644   2
  -1   2   4 199.267 13.3088   1
   0   2   4 91.3007 7.57215   1
  -1  -2  -4 904.254 17.0145   3
  -2  -2  -4 317.636 13.7573   3
  -3  -2  -4 34.6791 9.04517   2
  -3  -2  -4 52.8294 8.62467   3
  -4  -2  -4 231.860 14.2246   4
  -4  -2  -4 188.528 13.0747   3
  -4  -2  -4 200.911 14.3595   2
  -4  -2  -4 187.758 9.66906   1
  -5  -2  -4 516.890 19.4339   4
  -5  -2  -4 493.666 22.4145   2
  -5  -2  -4 528.153 17.9615   3
  -5  -2  -4 491.546 15.0044   1
  -6  -2  -4 302.985 19.8557   4
  -6  -2  -4 317.417 17.2966   3
  -6  -2  -4 306.025 15.0919   1
  -6  -2  -4 291.614 20.3544   2
  -7  -2  -4 40.2191 11.1120   3
  -7  -2  -4 30.4031 11.1949   1
  -7  -2  -4 20.6068 13.3222   4
  -7  -2  -4 34.4131 15.5620   2
  -8  -2  -4 15.3144 15.0567   4
  -8  -2  -4 19.1418 15.2842   2
  -9  -2  -4 4.20984 18.4327   2
  -9  -2  -4 3.75277 15.9300   4
 -10  -2  -4 9.94382 17.0016   4
 -10  -2  -4 27.0028 19.1651   2
 -11  -2  -4 69.8041 24.6964   2
 -11  -2  -4 85.3538 22.0730   4
 -12  -2  -4 34.0636 20.8354   4
 -12  -2  -4 -13.298 24.5569   2
 -11   3   4 18.2231 22.7603   2
 -11   3   4 9.88278 22.5535   4
 -11   3   4 32.3804 23.1777   1
 -10   3   4 -4.7195 20.4417   2
 -10   3   4 52.6129 23.6908   4
 -10   3   4 26.4897 20.9795   1
  -9   3   4 30.2343 17.3681   1
  -9   3   4 26.6681 19.3240   2
  -9   3   4 -4.3181 19.4942   4
  -8   3   4 17.2471 17.0296   2
  -8   3   4 15.7724 17.9965   4
  -8   3   4 -21.182 16.8110   1
  -7   3   4 23.0105 16.8961   1
  -7   3   4 71.2691 16.5115   2
  -7   3   4 15.8531 17.2858   4
  -6   3   4 166.346 19.1478   1
  -6   3   4 155.121 17.3311   2
  -6   3   4 134.397 19.4001   4
  -5   3   4 209.598 17.6569   1
  -5   3   4 219.835 20.0887   4
  -5   3   4 250.060 17.8209   2
  -4   3   4 136.346 12.5191   2
  -4   3   4 182.951 16.5767   4
  -4   3   4 126.442 13.5711   1
  -3   3   4 26.8489 10.6966   1
  -3   3   4 10.3055 7.67034   2
  -3   3   4 13.8911 10.6931   4
  -2   3   4 0.77659 8.64051   4
  -2   3   4 11.5038 8.37813   1
  -1   3   4 118.081 10.2645   1
  -1   3   4 101.224 10.8162   4
   0   3   4 184.770 10.3116   1
  -2  -3  -4 15.2642 7.99647   3
  -3  -3  -4 718.553 17.1300   3
  -3  -3  -4 721.405 18.2431   2
  -4  -3  -4 216.579 8.92335   1
  -4  -3  -4 247.728 16.2294   2
  -4  -3  -4 200.577 12.7084   3
  -5  -3  -4 19.4874 6.86243   1
  -5  -3  -4 9.57042 10.2014   2
  -5  -3  -4 -1.2982 7.31206   3
  -5  -3  -4 18.4504 10.4070   4
  -6  -3  -4 2.22974 8.21258   1
  -6  -3  -4 17.7365 11.8090   4
  -6  -3  -4 2.34441 8.73553   3
  -6  -3  -4 -23.598 11.0392   2
  -7  -3  -4 86.2302 16.6538   4
  -7  -3  -4 72.8542 16.6705   2
  -8  -3  -4 29.1473 15.7848   2
  -8  -3  -4 41.4156 16.3980   4
  -9  -3  -4 131.720 20.9110   4
  -9  -3  -4 129.074 21.2420   2
 -10  -3  -4 65.6964 22.3328   2
 -10  -3  -4 42.0310 19.6130   4
 -11  -3  -4 -3.9768 19.5908   4
 -11  -3  -4 30.7651 22.0781   2
 -12  -3  -4 13.8364 21.0554   4
 -12  -3  -4 -18.744 23.9296   2
 -11   4   4 29.2784 24.3610   2
 -11   4   4 7.72836 22.8431   1
 -11   4   4 5.76763 21.3273   4
 -10   4   4 34.8594 22.0459   2
 -10   4   4 31.6843 21.5857   4
 -10   4   4 -13.288 20.2547   1
  -9   4   4 54.4110 20.2997   4
  -9   4   4 51.8942 20.3216   2
  -9   4   4 52.3817 20.8148   1
  -8   4   4 138.439 21.6178   1
  -8   4   4 122.731 21.2764   2
  -8   4   4 116.480 23.4136   4
  -7   4   4 77.4918 18.4976   1
  -7   4   4 61.8319 16.1654   3
  -7   4   4 74.2488 17.8160   4
  -7   4   4 63.6347 17.0298   2
  -6   4   4 120.017 18.0404   4
  -6   4   4 98.7321 16.7694   1
  -6   4   4 125.132 16.6233   2
  -6   4   4 130.255 16.7124   3
  -5   4   4 20.1093 10.8403   2
  -5   4   4 34.5604 12.9205   1
  -5   4   4 25.3185 12.3847   3
  -5   4   4 28.6536 15.0854   4
  -4   4   4 41.2739 13.3238   4
  -4   4   4 32.9688 9.67362   2
  -4   4   4 51.7631 12.0429   3
  -4   4   4 41.5525 12.8725   1
  -3   4   4 92.0494 12.8821   1
  -3   4   4 95.3194 13.4845   4
  -3   4   4 84.5015 9.19853   2
  -2   4   4 198.314 13.3931   1
  -2   4   4 231.243 14.9970   4
  -1   4   4 297.559 14.8145   1
   0   4   4 179.935 10.5948   1
   1   4   4 600.113 11.0128   1
  -3  -4  -4 198.318 13.0374   2
  -3  -4  -4 218.047 12.4230   3
  -4  -4  -4 148.911 13.0886   2
  -4  -4  -4 144.447 10.4352   3
  -4  -4  -4 144.202 7.78593   1
  -5  -4  -4 434.514 21.6094   2
  -5  -4  -4 430.329 15.3926   3
  -5  -4  -4 456.472 12.8239   1
  -6  -4  -4 188.975 17.5668   4
  -6  -4  -4 185.499 18.2842   2
  -7  -4  -4 62.0063 16.2689   4
  -7  -4  -4 89.1806 17.3733   2
  -8  -4  -4 7.18615 15.1919   4
  -8  -4  -4 3.03637 16.0917   2
  -9  -4  -4 -15.806 16.5472   4
  -9  -4  -4 22.7961 19.2739   2
 -10  -4  -4 34.0790 20.6600   4
 -10  -4  -4 57.6671 21.9206   2
 -11  -4  -4 47.9537 21.9186   4
 -11  -4  -4 32.0390 20.4041   2
 -12  -4  -4 -14.217 20.7823   2
 -12  -4  -4 11.3787 21.0226   4
 -11   5   4 6.16945 21.4113   1
 -11   5   4 -8.6991 21.7930   2
 -11   5   4 -22.378 21.4297   4
 -10   5   4 14.3561 22.1735   2
 -10   5   4 -0.2756 19.4876   4
 -10   5   4 -1.0364 20.6255   1
  -9   5   4 -16.238 20.9814   4
  -9   5   4 7.04062 20.3872   2
  -9   5   4 -32.163 16.0216   1
  -8   5   4 2.18993 18.5483   4
  -8   5   4 23.6979 16.5029   1
  -8   5   4 3.81860 16.9444   2
  -7   5   4 -16.835 15.3409   1
  -7   5   4 -4.9015 14.2556   2
  -7   5   4 -2.0985 17.6518   4
  -7   5   4 -32.168 14.4472   3
  -6   5   4 35.3865 15.5465   1
  -6   5   4 26.2311 13.4363   2
  -6   5   4 21.5577 14.2118   3
  -6   5   4 26.1064 15.6188   4
  -5   5   4 221.874 19.1904   3
  -5   5   4 140.038 17.4533   4
  -5   5   4 211.748 16.0423   2
  -5   5   4 202.810 19.8326   1
  -4   5   4 55.9161 10.1278   2
  -4   5   4 50.2070 12.9810   3
  -4   5   4 49.9906 13.4558   1
  -4   5   4 53.2433 14.3387   4
  -3   5   4 432.218 19.7316   3
  -3   5   4 411.940 18.8954   1
  -3   5   4 447.433 15.8328   2
  -3   5   4 451.611 21.3956   4
  -2   5   4 197.003 13.8566   1
  -2   5   4 238.255 16.3882   4
  -1   5   4 10.4529 8.13704   1
  -1   5   4 8.52585 8.22911   5
   0   5   4 85.3133 8.50023   1
  -2  -5  -4 676.028 15.3695   2
  -3  -5  -4 239.101 13.1931   2
  -3  -5  -4 232.848 12.6569   3
  -4  -5  -4 128.709 10.1753   3
  -4  -5  -4 138.023 12.7277   2
  -4  -5  -4 134.303 8.07257   1
  -5  -5  -4 -4.6138 10.5382   2
  -5  -5  -4 2.18578 7.37782   3
  -6  -5  -4 36.5365 13.7957   2
  -7  -5  -4 108.964 18.8069   4
  -7  -5  -4 52.4317 16.5975   2
  -8  -5  -4 22.2913 15.1642   4
  -8  -5  -4 41.3056 16.1921   2
  -9  -5  -4 43.4352 18.3857   2
  -9  -5  -4 18.3250 19.3768   4
 -10  -5  -4 49.2665 21.0270   4
 -10  -5  -4 50.0873 22.4503   2
 -11  -5  -4 27.7957 22.2816   4
 -11  -5  -4 13.2289 23.7373   2
 -12  -5  -4 25.2837 22.6329   4
 -12  -5  -4 -5.3776 23.5397   2
 -11   6   4 14.9873 25.2330   1
 -11   6   4 -26.315 22.5708   4
 -10   6   4 0.32672 20.8284   1
 -10   6   4 32.9385 23.0080   4
 -10   6   4 -19.252 20.7321   2
  -9   6   4 54.4967 21.9169   2
  -9   6   4 79.6360 23.7694   1
  -9   6   4 56.6692 21.7280   4
  -8   6   4 133.527 22.3283   4
  -8   6   4 125.920 21.8483   3
  -8   6   4 127.455 23.0082   1
  -8   6   4 172.730 22.6115   2
  -7   6   4 52.4174 19.9972   4
  -7   6   4 92.4359 18.6691   3
  -7   6   4 84.6547 20.0286   1
  -7   6   4 109.211 18.7099   2
  -6   6   4 -14.987 12.4945   2
  -6   6   4 -4.3398 14.2723   3
  -6   6   4 -10.767 13.3815   1
  -6   6   4 -10.821 14.6322   4
  -5   6   4 18.3672 15.7897   4
  -5   6   4 32.1727 13.9901   3
  -5   6   4 -17.434 13.9728   1
  -5   6   4 13.8051 11.0751   2
  -4   6   4 3.55957 11.5549   1
  -4   6   4 -1.3457 11.2698   3
  -4   6   4 -11.010 8.34581   2
  -4   6   4 0.82589 12.0418   4
  -3   6   4 -9.2755 7.22608   2
  -3   6   4 11.3976 10.7721   3
  -3   6   4 4.28693 9.96209   1
  -3   6   4 21.1382 12.5071   4
  -3   6   4 8.70609 8.17075   5
  -2   6   4 177.466 12.2277   5
  -2   6   4 156.938 12.7929   1
  -1   6   4 679.947 19.6775   1
  -1   6   4 660.570 19.7327   5
   0   6   4 163.031 10.8435   1
   0   6   4 143.868 13.0645   5
  -2  -6  -4 2.70194 6.54182   2
  -3  -6  -4 -1.8304 7.59663   2
  -3  -6  -4 -3.2234 6.97701   3
  -3  -6  -4 -3.8215 4.57699   1
  -4  -6  -4 419.703 19.4944   2
  -4  -6  -4 448.627 14.5888   3
  -5  -6  -4 123.951 14.6515   2
  -6  -6  -4 107.957 15.7474   2
  -7  -6  -4 47.0994 14.8672   2
  -8  -6  -4 -5.8281 15.9533   4
  -8  -6  -4 -15.401 16.8890   2
  -9  -6  -4 -28.471 17.4037   2
  -9  -6  -4 -6.3104 18.2654   4
 -10  -6  -4 91.9307 23.3445   2
 -10  -6  -4 43.4769 21.8748   4
 -11  -6  -4 9.45033 23.5790   2
 -11  -6  -4 57.2402 22.4189   4
 -11   7   4 13.2819 24.2888   4
 -10   7   4 12.3937 21.9060   1
 -10   7   4 14.4022 24.2678   4
  -9   7   4 23.4024 21.3884   1
  -9   7   4 43.8720 23.2479   4
  -8   7   4 -3.6745 19.3078   1
  -8   7   4 -34.394 22.2216   2
  -8   7   4 -6.5026 18.2272   3
  -8   7   4 -7.8923 17.8844   4
  -7   7   4 2.96551 16.6139   3
  -7   7   4 7.05553 17.0327   4
  -7   7   4 25.8299 16.0607   2
  -7   7   4 -7.4187 18.0288   1
  -6   7   4 -12.828 16.8212   4
  -6   7   4 6.99317 15.8330   3
  -6   7   4 9.78024 13.4843   2
  -6   7   4 40.1493 17.7607   1
  -5   7   4 157.025 15.7346   2
  -5   7   4 144.789 17.8942   1
  -5   7   4 184.262 21.2148   4
  -5   7   4 148.313 19.1895   3
  -4   7   4 164.955 18.4121   3
  -4   7   4 116.459 15.7259   1
  -4   7   4 148.555 18.5360   4
  -4   7   4 142.532 12.8602   2
  -3   7   4 178.067 15.9785   1
  -3   7   4 163.884 11.3038   2
  -3   7   4 183.255 14.0445   5
  -3   7   4 165.518 17.9232   3
  -2   7   4 82.6161 11.5078   5
  -2   7   4 82.0104 12.8338   1
  -1   7   4 245.902 15.6937   1
  -1   7   4 223.466 15.8037   5
   0   7   4 221.935 13.9158   1
   0   7   4 246.718 17.3239   5
   1   7   4 55.7079 12.3026   5
  -2  -7  -4 801.289 18.3059   2
  -3  -7  -4 155.304 9.73033   1
  -3  -7  -4 159.202 12.3480   2
  -4  -7  -4 68.5496 11.8476   2
  -4  -7  -4 84.5960 11.0485   3
  -5  -7  -4 9.40856 11.2821   2
  -6  -7  -4 15.9359 13.7778   2
  -7  -7  -4 15.7486 14.7555   2
  -8  -7  -4 48.0119 17.6658   4
  -8  -7  -4 71.9436 19.6332   2
  -9  -7  -4 56.4246 20.8876   2
  -9  -7  -4 43.3323 19.3754   4
 -10  -7  -4 39.7713 21.4741   4
 -10  -7  -4 -5.6063 17.8489   2
 -11  -7  -4 -26.139 22.1774   2
 -11  -7  -4 19.0411 22.7177   4
 -10   8   4 47.6566 25.9945   4
 -10   8   4 -2.7805 20.0728   1
  -9   8   4 30.0038 23.0618   1
  -9   8   4 57.1519 25.6870   4
  -8   8   4 38.3701 21.5911   1
  -8   8   4 40.3943 21.3272   3
  -8   8   4 21.4216 21.4483   4
  -7   8   4 93.0671 22.8427   4
  -7   8   4 93.1691 21.1922   3
  -7   8   4 40.5885 20.3719   1
  -6   8   4 22.4421 17.5803   3
  -6   8   4 36.0496 16.5126   1
  -6   8   4 27.9444 18.6493   4
  -5   8   4 0.99826 15.9273   1
  -5   8   4 -26.782 13.3028   4
  -5   8   4 -26.097 14.6791   3
  -4   8   4 35.6059 13.7018   1
  -4   8   4 55.5338 16.4722   3
  -3   8   4 85.9004 15.3199   3
  -3   8   4 81.1619 14.2727   1
  -3   8   4 78.0212 12.6186   5
  -2   8   4 943.040 26.1866   5
  -2   8   4 978.037 27.6082   1
  -1   8   4 330.928 18.4932   1
  -1   8   4 290.281 18.9573   5
   0   8   4 89.8664 13.6630   5
   1   8   4 -9.6675 11.1907   5
  -2  -8  -4 3.76253 7.23555   2
   2   8   4 0.27272 11.4060   5
  -3  -8  -4 110.630 11.9670   2
   3   8   4 125.390 16.5703   5
  -4  -8  -4 39.6737 11.6177   2
   4   8   4 40.7097 14.5043   5
  -5  -8  -4 13.4701 11.9652   2
  -6  -8  -4 50.6643 15.1875   2
   6   8   4 62.5617 16.1873   5
  -7  -8  -4 73.7487 18.3854   2
   7   8   4 48.2617 16.9966   5
  -8  -8  -4 19.5016 17.1743   2
   8   8   4 -8.2362 15.6643   5
  -9  -8  -4 3.30397 19.4822   4
  -9  -8  -4 31.4258 21.1159   2
 -10  -8  -4 64.0673 23.9800   4
 -10  -8  -4 -6.0499 21.4534   2
 -11  -8  -4 5.78302 22.8701   4
 -11  -8  -4 21.2644 23.9152   2
 -10   9   4 -13.208 22.7652   1
 -10   9   4 1.63700 22.8423   4
  -9   9   4 -12.845 22.4005   1
  -9   9   4 21.5637 23.2785   4
  -8   9   4 8.92764 21.4235   1
  -8   9   4 -26.194 20.1437   4
  -7   9   4 22.4951 20.4312   4
  -7   9   4 19.2811 20.1528   1
  -7   9   4 26.2513 17.5408   3
  -6   9   4 68.9771 21.6444   4
  -6   9   4 27.1370 18.7871   1
  -6   9   4 35.3355 19.2184   3
  -5   9   4 38.3079 18.2562   3
  -5   9   4 12.7599 15.0330   1
  -4   9   4 70.8602 18.2907   1
  -4   9   4 66.4692 18.4484   3
  -3   9   4 4.33695 12.0522   5
  -3   9   4 16.8294 14.0160   1
  -2   9   4 33.9670 12.5030   1
  -2   9   4 24.7820 12.2878   5
  -1   9   4 22.0601 12.3457   5
   0   9   4 72.1342 13.4034   5
   1   9   4 32.8526 13.8451   5
   2   9   4 233.980 19.0823   5
  -3  -9  -4 311.121 18.5596   2
   3   9   4 295.865 22.0770   5
  -4  -9  -4 80.7105 13.7887   2
   4   9   4 63.2453 15.0814   5
  -5  -9  -4 23.1375 12.9433   2
   5   9   4 9.49394 14.7048   5
  -6  -9  -4 -6.3061 12.9477   2
   6   9   4 6.08529 15.2409   5
  -7  -9  -4 82.8548 18.4844   2
   7   9   4 78.0635 19.2268   5
  -8  -9  -4 62.4129 19.9847   2
   8   9   4 44.6795 18.6738   5
  -9  -9  -4 30.9528 21.2945   4
  -9  -9  -4 42.2625 20.9891   2
 -10  -9  -4 10.6311 21.9675   2
 -10  -9  -4 18.8342 22.6742   4
 -10  10   4 12.6234 27.1145   4
  -9  10   4 35.6894 26.7356   4
  -9  10   4 -22.448 19.9077   1
  -8  10   4 17.4380 20.0988   1
  -8  10   4 64.9495 25.8453   4
  -7  10   4 48.2120 21.9037   3
  -7  10   4 -2.0204 18.4512   1
  -6  10   4 5.17441 18.6502   3
  -6  10   4 -4.5672 16.6273   1
  -5  10   4 26.1035 16.9663   3
  -5  10   4 -24.871 16.9149   1
  -4  10   4 111.238 20.6625   3
  -4  10   4 106.326 20.1262   1
  -3  10   4 178.897 18.2902   5
  -3  10   4 151.929 19.1458   1
  -2  10   4 188.223 18.1565   1
  -2  10   4 166.224 17.5145   5
  -1  10   4 171.647 17.9093   5
   0  10   4 61.9372 15.8054   5
   1  10   4 -2.2983 13.5865   5
   2  10   4 20.7574 15.0451   5
   3  10   4 112.786 18.5601   5
   4  10   4 20.1858 16.1165   5
  -5 -10  -4 53.4504 15.0480   2
   5  10   4 26.6932 17.1728   5
  -6 -10  -4 50.3825 16.1582   2
   6  10   4 42.3957 18.0651   5
  -7 -10  -4 51.1046 17.8007   2
   7  10   4 30.5916 18.4699   5
  -8 -10  -4 16.4961 18.8437   2
   8  10   4 -13.109 17.5903   5
  -9 -10  -4 22.3418 22.7410   4
  -9 -10  -4 18.7631 20.7207   2
 -10 -10  -4 6.91051 23.9060   2
 -10 -10  -4 22.3834 22.8217   4
  -9  11   4 -3.0930 23.4382   1
  -8  11   4 -3.0381 22.3156   1
  -7  11   4 -13.069 19.6884   1
  -6  11   4 112.529 24.1779   1
  -6  11   4 54.3682 20.8338   3
  -5  11   4 10.5607 18.6090   1
  -5  11   4 5.57426 18.3774   3
  -4  11   4 1.18617 15.4963   1
  -3  11   4 16.2537 14.6396   5
  -3  11   4 9.39800 15.4565   1
  -2  11   4 48.4583 15.4094   5
  -1  11   4 4.93764 13.5183   5
   0  11   4 39.7516 14.3102   5
   1  11   4 37.7728 15.2204   5
   2  11   4 214.746 22.6088   5
   3  11   4 344.148 26.0972   5
   4  11   4 63.2808 18.6589   5
   5  11   4 21.0994 17.7335   5
   6  11   4 6.65309 17.5559   5
   7  11   4 8.44992 18.4765   5
   8  11   4 49.9768 20.5737   5
  -9 -11  -4 -14.422 22.3403   4
 -10 -11  -4 20.5263 24.6195   4
  -8  12   4 19.2745 23.9923   1
  -7  12   4 39.1572 21.6899   1
  -6  12   4 14.9568 18.8746   1
  -5  12   4 -6.9652 17.4529   1
  -4  12   4 -6.1086 16.5671   1
  -3  12   4 85.5687 17.7424   5
  -2  12   4 66.0321 16.9696   5
  -1  12   4 35.9157 15.5740   5
   0  12   4 21.8687 16.3053   5
   1  12   4 8.44576 15.8842   5
   2  12   4 -6.9192 16.6917   5
   3  12   4 37.6963 18.3101   5
   4  12   4 64.1062 19.7186   5
   5  12   4 57.0312 19.5697   5
   6  12   4 31.0414 20.1377   5
   7  12   4 26.2173 20.8517   5
   8  12   4 2.76883 20.1649   5
  -8  13   4 -11.676 21.6701   1
  -7  13   4 -16.554 20.1452   1
  -6  13   4 18.9362 21.0416   1
  -3  13   4 17.2796 16.0803   5
  -2  13   4 -5.1831 15.9653   5
  -1  13   4 52.8283 18.6091   5
   0  13   4 118.726 20.8447   5
   1  13   4 169.345 23.3742   5
   2  13   4 115.143 22.1758   5
   3  13   4 93.8732 21.3335   5
   4  13   4 -15.575 18.2857   5
   5  13   4 -1.0467 17.1714   5
   6  13   4 -1.3120 20.0426   5
   7  13   4 51.0756 23.6564   5
   8  13   4 5.80866 21.7125   5
  -3  14   4 10.0144 17.6380   5
  -2  14   4 51.3973 19.9886   5
  -1  14   4 124.313 22.2586   5
   0  14   4 4.53140 18.4857   5
   1  14   4 5.43612 18.3939   5
   2  14   4 -1.2437 15.7773   5
   3  14   4 -7.6049 18.9411   5
   4  14   4 56.6936 21.8814   5
   5  14   4 60.7530 20.3512   5
   6  14   4 -4.0148 21.7750   5
   7  14   4 13.6905 23.1256   5
   8  14   4 1.38966 23.3197   5
  -3  15   4 26.9950 18.9645   5
  -2  15   4 32.8008 19.7943   5
  -1  15   4 8.95419 20.1057   5
   0  15   4 46.9796 21.3494   5
   1  15   4 53.4967 20.5571   5
   2  15   4 42.8076 21.3546   5
   3  15   4 -6.1739 17.4732   5
   4  15   4 -9.0591 19.2976   5
   5  15   4 9.37486 21.2479   5
   6  15   4 0.32469 21.2379   5
   7  15   4 -16.461 21.2632   5
  -3  16   4 20.6357 20.3359   5
  -2  16   4 7.25351 19.4372   5
  -1  16   4 11.0473 21.2480   5
   0  16   4 -15.546 17.2854   5
   1  16   4 6.00134 20.9175   5
   2  16   4 4.93221 21.2324   5
   3  16   4 -8.4763 20.8929   5
   4  16   4 27.7574 23.1655   5
   5  16   4 -23.839 19.5973   5
   6  16   4 -15.321 22.6883   5
  -3  17   4 40.3064 22.5492   5
  -2  17   4 4.88326 19.8240   5
  -1  17   4 5.96407 20.4594   5
   0  17   4 -21.974 21.2824   5
   1  17   4 20.8659 23.0404   5
   2  17   4 34.8870 24.2444   5
   3  17   4 -8.7095 22.4154   5
   4  17   4 -3.6320 23.1881   5
  -2  18   4 22.2904 22.3293   5
  -1  18   4 -30.181 19.8417   5
   0  18   4 2.20099 22.2819   5
   1  18   4 21.3691 25.3844   5
   2  18   4 -28.805 22.9504   5
   2  16  -5 79.2616 26.9844   5
   1  16  -5 7.11697 22.9829   5
   0  16  -5 -20.654 22.8912   5
  -1  16  -5 -12.167 23.8880   5
  -2  16  -5 -1.7345 23.4624   5
  -5  16  -5 2.11524 24.1448   3
   4  15  -5 -45.092 21.5623   5
   3  15  -5 -6.6672 23.2018   5
   2  15  -5 -2.5661 22.6141   5
   1  15  -5 47.8021 24.6005   5
   0  15  -5 13.0186 20.4245   5
  -1  15  -5 28.9232 24.8268   5
  -2  15  -5 7.27889 19.4647   5
  -4  15  -5 5.63272 21.5323   3
  -5  15  -5 -2.2009 24.0367   3
  -6  15  -5 50.4115 26.8360   3
   5  14  -5 16.8562 22.8921   5
   4  14  -5 13.1971 22.0011   5
   3  14  -5 8.12232 18.6646   5
   2  14  -5 4.33653 20.8097   5
  -2 -14   5 32.0070 19.8650   1
   1  14  -5 -44.590 16.7283   5
   0  14  -5 6.76820 18.9048   5
  -1  14  -5 29.2719 22.3467   5
  -2  14  -5 34.8912 23.0760   5
  -3  14  -5 15.8512 21.8893   5
  -3  14  -5 0.30449 20.5228   3
  -4  14  -5 -8.9074 21.0478   3
  -5  14  -5 -17.435 22.7060   3
  -6  14  -5 -24.590 21.2704   3
  -7  14  -5 55.0612 27.5700   3
  -6 -13   5 17.8152 24.1317   2
   5  13  -5 1.90090 21.1010   5
   4  13  -5 -0.9268 20.3183   5
   3  13  -5 -1.8210 19.8417   5
  -3 -13   5 15.4805 19.9120   1
   2  13  -5 11.3089 20.3570   5
  -2 -13   5 28.2957 20.3293   1
   1  13  -5 22.1117 19.0587   5
   0  13  -5 49.7212 22.2221   5
  -1  13  -5 25.8432 22.1652   5
  -2  13  -5 6.80034 21.2063   5
  -3  13  -5 -24.414 18.8378   5
  -3  13  -5 -1.1604 19.1599   3
  -4  13  -5 14.7600 21.0555   3
  -5  13  -5 44.4390 23.0208   3
  -6  13  -5 35.3296 23.8401   3
  -7  13  -5 17.6551 24.5556   3
  -8  13  -5 -2.7430 23.6669   3
  -7 -12   5 28.9043 24.4528   2
  -7 -12   5 31.6184 25.7000   4
  -6 -12   5 -1.7641 21.9260   2
   5  12  -5 20.0191 19.8615   5
   4  12  -5 34.7170 18.9523   5
  -4 -12   5 19.7969 19.1989   1
   3  12  -5 65.2472 20.9426   5
  -3 -12   5 108.657 22.0866   1
   2  12  -5 15.0182 18.6592   5
  -2 -12   5 13.9194 16.3949   1
   1  12  -5 -0.0244 18.9612   5
   0  12  -5 24.7565 19.6581   5
  -1  12  -5 44.0574 21.4849   5
  -2  12  -5 23.4534 20.5801   5
  -2  12  -5 53.3763 19.3356   3
  -3  12  -5 67.8664 20.2032   3
  -3  12  -5 39.0783 20.7719   5
  -4  12  -5 75.4679 22.2324   3
  -5  12  -5 -15.477 19.6273   3
  -6  12  -5 20.0624 22.3116   3
  -7  12  -5 27.5227 24.1906   3
  -8  12  -5 52.7947 25.3713   3
  -9  12  -5 4.77210 23.3268   3
  -8 -11   5 39.1914 26.4136   4
  -8 -11   5 -0.4672 24.1569   2
  -7 -11   5 30.7635 24.1035   2
  -7 -11   5 -2.3792 23.5188   4
  -6 -11   5 4.57289 21.4758   2
   5  11  -5 -31.796 16.4201   5
   4  11  -5 -4.7274 17.5093   5
  -4 -11   5 15.1226 17.7686   1
   3  11  -5 27.9186 17.8282   5
  -3 -11   5 1.74085 17.0280   1
   2  11  -5 45.9260 18.7071   5
   1  11  -5 81.9587 20.7128   5
   0  11  -5 85.1261 21.7423   5
  -1  11  -5 -3.1726 15.5747   3
  -1  11  -5 34.9927 19.4129   5
  -2  11  -5 -3.2901 18.9126   5
  -2  11  -5 34.3869 17.0278   3
  -3  11  -5 -7.3637 17.5971   5
  -3  11  -5 31.2608 18.6773   3
  -4  11  -5 22.1610 18.5016   3
  -5  11  -5 37.3929 18.6663   3
  -6  11  -5 75.9501 20.8932   3
  -7  11  -5 38.4760 22.3756   3
  -8  11  -5 -31.787 17.8040   3
  -9  11  -5 -24.949 21.0344   3
 -10  11  -5 -6.1132 25.6730   3
  -8 -10   5 -21.298 22.0271   4
  -8 -10   5 16.5872 24.3845   2
  -7 -10   5 -17.488 21.9080   2
  -7 -10   5 -51.252 20.5392   4
  -6 -10   5 21.3031 21.1462   2
   5  10  -5 13.5226 17.1654   5
  -5 -10   5 0.47849 15.8597   1
   4  10  -5 39.6231 17.5358   5
  -4 -10   5 33.1973 17.3206   1
   3  10  -5 125.658 20.6482   5
  -3 -10   5 142.656 20.6130   1
   2  10  -5 45.7639 17.5691   5
   1  10  -5 24.9720 17.7596   5
   0  10  -5 11.1851 16.6366   5
  -1  10  -5 54.6065 15.1893   3
  -1  10  -5 44.8983 18.8372   5
  -2  10  -5 93.9488 18.2118   3
  -2  10  -5 109.473 20.6789   5
  -3  10  -5 123.136 19.8089   3
  -3  10  -5 164.808 22.3545   5
  -4  10  -5 18.6777 17.9921   3
  -5  10  -5 -41.209 15.9135   3
  -6  10  -5 5.09924 18.8341   3
  -7  10  -5 -10.520 19.4192   3
  -8  10  -5 40.9883 23.1952   3
  -9  10  -5 -11.808 21.0184   3
 -10  10  -5 -16.243 23.0095   3
  -9  -9   5 17.0389 24.0980   2
  -9  -9   5 -1.4194 25.2993   4
  -8  -9   5 24.4069 25.0104   2
  -8  -9   5 -8.1649 19.8651   4
  -7  -9   5 86.9579 24.2992   2
  -7  -9   5 104.466 25.8296   4
  -6  -9   5 9.65308 17.1242   1
  -6  -9   5 -24.190 19.0341   2
   5   9  -5 15.6766 15.9516   5
  -5  -9   5 17.2986 16.5462   1
   4   9  -5 16.7267 14.9602   5
  -4  -9   5 -12.893 15.4186   1
   3   9  -5 59.3251 16.0543   5
  -3  -9   5 52.0158 16.8069   1
   2   9  -5 95.1362 18.1278   5
  -2  -9   5 104.842 17.5678   1
   1   9  -5 77.4844 17.5104   5
   0   9  -5 153.829 16.4185   3
   0   9  -5 188.969 22.0142   5
  -1   9  -5 53.8527 14.2255   3
  -1   9  -5 6.12838 16.5580   5
  -2   9  -5 7.68842 15.6512   5
  -2   9  -5 4.98310 13.8840   3
  -3   9  -5 9.79464 15.7995   3
  -4   9  -5 42.0592 17.5382   3
  -5   9  -5 42.9354 16.9409   3
  -6   9  -5 22.4952 19.4488   3
  -7   9  -5 103.943 21.2461   3
  -8   9  -5 1.73981 20.2299   3
  -9   9  -5 12.6157 20.8578   3
 -10   9  -5 12.2822 23.5817   3
 -11   9  -5 67.2786 28.1682   3
  -9  -8   5 14.3610 23.0688   4
  -9  -8   5 18.1927 24.1013   2
  -8  -8   5 -3.1510 22.3080   2
  -8  -8   5 -23.970 21.5026   4
  -7  -8   5 13.8419 20.8503   4
  -7  -8   5 8.99789 20.0889   2
  -6  -8   5 29.5814 16.4774   1
  -6  -8   5 -0.4563 19.0565   2
  -6  -8   5 55.9564 21.8874   4
  -5  -8   5 33.2511 16.6259   1
   4   8  -5 148.039 19.1976   5
  -4  -8   5 121.986 19.0263   1
   3   8  -5 119.635 18.0768   5
  -3  -8   5 53.9570 15.3534   1
   2   8  -5 53.1073 15.6968   5
  -2  -8   5 79.0110 15.9072   1
   1   8  -5 -2.2242 14.1953   5
   0   8  -5 121.112 16.9654   5
   0   8  -5 137.437 14.3179   3
  -1   8  -5 189.920 20.5814   5
  -1   8  -5 197.291 17.2323   3
  -2   8  -5 50.2105 16.7819   5
  -2   8  -5 85.0009 15.1025   3
  -3   8  -5 69.7970 16.0527   3
  -4   8  -5 80.1806 17.4948   3
  -5   8  -5 -17.613 13.6993   3
  -6   8  -5 15.2585 17.0854   3
  -7   8  -5 33.6769 19.1720   3
  -8   8  -5 -14.671 16.3203   3
  -9   8  -5 -15.774 20.9039   3
 -10   8  -5 -16.065 22.3055   3
 -11   8  -5 13.4493 24.6898   3
 -10  -7   5 -5.4723 23.3620   2
 -10  -7   5 -41.128 18.8155   4
  -9  -7   5 29.2506 24.3707   4
  -9  -7   5 28.3125 24.5896   2
  -8  -7   5 55.6168 22.8044   2
  -8  -7   5 49.5075 23.3905   4
  -7  -7   5 -12.899 19.1505   4
  -7  -7   5 10.3946 16.0233   1
  -7  -7   5 1.32280 19.3873   2
  -6  -7   5 27.7577 19.3981   2
  -6  -7   5 39.0800 16.3871   1
  -6  -7   5 54.0370 20.4918   4
  -5  -7   5 12.6622 14.7638   1
   4   7  -5 13.5177 13.9501   5
  -4  -7   5 18.2717 14.7191   1
   3   7  -5 89.7490 15.5424   5
  -3  -7   5 66.5379 15.4306   1
   2   7  -5 500.798 24.2484   5
  -2  -7   5 452.328 24.6026   1
   1   7  -5 278.933 20.5781   5
   1   7  -5 254.699 15.1918   3
   0   7  -5 127.935 12.9764   3
   0   7  -5 137.301 17.6842   5
  -1   7  -5 24.0104 13.8344   5
  -1   7  -5 32.5203 11.2485   3
  -2   7  -5 25.1015 13.9033   5
  -2   7  -5 25.5650 12.3838   3
  -3   7  -5 54.8776 15.2363   3
  -4   7  -5 40.5326 15.2105   3
  -5   7  -5 147.507 20.6660   3
  -6   7  -5 13.8555 16.7162   3
  -7   7  -5 59.9502 20.4404   3
  -8   7  -5 -2.3044 16.9515   4
  -8   7  -5 17.2372 19.6925   3
  -9   7  -5 38.3756 21.4854   3
 -10   7  -5 11.4643 22.5681   3
 -11   7  -5 44.8295 26.0825   3
 -10  -6   5 -11.077 21.1587   4
 -10  -6   5 36.6524 24.1831   2
  -9  -6   5 14.3309 22.0257   4
  -9  -6   5 -5.5493 21.4876   2
  -8  -6   5 -2.0438 17.7463   2
  -8  -6   5 -40.680 16.9299   4
  -8  -6   5 16.1455 17.6947   1
  -7  -6   5 13.0850 19.0351   4
  -7  -6   5 -35.820 17.2850   2
  -7  -6   5 12.9513 15.9844   1
  -6  -6   5 14.5461 17.7886   2
  -6  -6   5 43.1874 18.8745   4
  -6  -6   5 22.1224 15.5284   1
  -5  -6   5 74.3410 16.2807   1
  -5  -6   5 88.8027 19.8434   4
   4   6  -5 272.984 19.6231   5
  -4  -6   5 259.948 20.2330   1
   3   6  -5 33.2574 12.6531   5
  -3  -6   5 33.2168 13.3413   1
   2   6  -5 55.9418 13.1646   5
  -2  -6   5 75.1462 14.2328   1
   1   6  -5 9.35864 11.8717   5
   1   6  -5 0.42945 7.76266   3
   0   6  -5 -11.305 11.3143   5
   0   6  -5 4.69675 8.73605   3
  -1   6  -5 124.351 14.4866   5
  -1   6  -5 145.926 13.7420   3
  -2   6  -5 91.8712 13.5083   3
  -3   6  -5 234.465 18.2093   3
  -4   6  -5 27.0680 13.7612   3
  -5   6  -5 58.0049 16.1114   3
  -6   6  -5 14.2537 16.0049   3
  -7   6  -5 20.7296 14.5921   4
  -7   6  -5 26.3367 17.8157   3
  -8   6  -5 163.708 23.9205   3
  -8   6  -5 144.745 23.4767   2
  -8   6  -5 154.591 21.0097   4
  -9   6  -5 74.4057 20.0096   4
  -9   6  -5 49.7254 21.7029   2
  -9   6  -5 92.1665 22.0557   3
 -10   6  -5 34.9798 22.4009   3
 -10   6  -5 4.93682 21.7311   2
 -11   6  -5 -9.0493 22.2323   3
 -11   6  -5 42.0095 24.8821   2
 -12   6  -5 -34.149 35.0202   3
 -10  -5   5 -5.1858 23.4049   4
 -10  -5   5 14.7743 22.6710   2
  -9  -5   5 -14.954 17.1292   2
  -9  -5   5 12.2672 19.1609   4
  -8  -5   5 31.1013 20.9573   2
  -8  -5   5 46.0500 19.9050   4
  -8  -5   5 23.9245 18.8880   1
  -7  -5   5 67.5004 20.8879   2
  -7  -5   5 56.4219 17.2037   1
  -7  -5   5 63.6873 21.3387   4
  -6  -5   5 150.310 19.4780   1
  -6  -5   5 105.762 20.3035   4
  -6  -5   5 81.7913 19.6346   2
  -5  -5   5 5.47521 13.4119   2
  -5  -5   5 16.5004 15.7395   4
  -5  -5   5 -4.7931 13.1965   1
   4   5  -5 137.790 14.8166   5
  -4  -5   5 149.062 16.5415   1
   3   5  -5 129.956 13.9607   5
  -3  -5   5 113.860 15.1976   1
   2   5  -5 40.8544 11.5816   5
   2   5  -5 33.3770 6.86979   3
  -2  -5   5 24.4668 12.1736   1
   1   5  -5 484.474 15.3912   3
   1   5  -5 489.000 21.0310   5
   0   5  -5 273.244 18.0923   5
   0   5  -5 253.587 14.8372   3
  -1   5  -5 343.621 17.2407   3
  -1   5  -5 348.954 17.8368   5
  -2   5  -5 0.13511 9.62148   3
  -3   5  -5 22.0396 11.9897   3
  -4   5  -5 49.9256 14.2722   3
  -5   5  -5 160.986 18.7903   3
  -6   5  -5 -9.4259 12.5886   3
  -6   5  -5 14.8195 12.5149   4
  -7   5  -5 -1.6212 16.0713   3
  -7   5  -5 10.9731 13.7877   4
  -7   5  -5 3.41544 16.6131   2
  -8   5  -5 -13.530 17.8474   2
  -8   5  -5 -3.7020 17.3593   3
  -8   5  -5 -10.186 14.4730   4
  -9   5  -5 39.5442 20.8019   2
  -9   5  -5 -1.9575 16.7868   4
  -9   5  -5 -0.0214 16.5206   1
  -9   5  -5 7.03195 18.6670   3
 -10   5  -5 33.3353 21.7916   3
 -10   5  -5 6.92862 21.4092   2
 -10   5  -5 13.1653 18.5368   1
 -11   5  -5 -7.1465 22.9103   2
 -11   5  -5 -21.732 19.9853   1
 -11   5  -5 2.12182 22.2822   3
 -12   5  -5 20.0614 25.7558   2
 -10  -4   5 24.4955 25.0906   4
 -10  -4   5 39.8973 24.2715   2
  -9  -4   5 20.4424 17.4104   2
  -9  -4   5 27.7246 21.8139   4
  -9  -4   5 40.0575 19.8387   1
  -8  -4   5 25.5978 18.0633   4
  -8  -4   5 26.8179 17.7625   1
  -8  -4   5 -27.081 18.2541   2
  -7  -4   5 -13.092 17.7496   2
  -7  -4   5 0.60797 15.6603   4
  -7  -4   5 17.2242 15.9628   1
  -6  -4   5 48.2559 15.7667   1
  -6  -4   5 64.5148 18.6766   4
  -6  -4   5 86.3130 19.2080   2
  -5  -4   5 335.169 24.6275   4
  -5  -4   5 316.946 24.2319   2
  -5  -4   5 320.365 22.9523   1
   4   4  -5 202.450 14.7152   5
  -4  -4   5 214.776 19.5591   4
  -4  -4   5 194.784 17.7372   1
   3   4  -5 186.977 13.6770   5
  -3  -4   5 213.447 17.2658   1
   2   4  -5 97.0532 7.49409   3
   2   4  -5 114.558 12.5835   5
  -2  -4   5 90.3732 13.5503   1
   1   4  -5 23.8311 10.2922   5
   1   4  -5 34.0292 7.49544   3
   0   4  -5 -2.9376 7.70193   3
   0   4  -5 -0.3996 8.74608   5
  -1   4  -5 99.7574 11.5091   3
  -2   4  -5 698.251 21.9308   3
  -3   4  -5 8.08340 11.0237   3
  -4   4  -5 74.6785 12.4016   3
  -5   4  -5 -2.2349 9.76343   4
  -5   4  -5 29.7127 13.9471   3
  -5   4  -5 13.0705 11.6382   2
  -6   4  -5 59.0165 12.9623   4
  -6   4  -5 77.6368 16.7268   2
  -6   4  -5 66.1840 15.9258   3
  -7   4  -5 21.4787 15.1995   3
  -7   4  -5 5.86277 14.4604   2
  -7   4  -5 30.4046 14.7442   1
  -7   4  -5 12.1129 13.6995   4
  -8   4  -5 103.775 18.6635   4
  -8   4  -5 82.5840 21.2137   2
  -8   4  -5 75.1349 19.7892   3
  -8   4  -5 74.0086 17.8196   1
  -9   4  -5 81.4112 23.1251   2
  -9   4  -5 78.5520 20.7101   3
  -9   4  -5 61.9215 18.4293   4
  -9   4  -5 42.2407 17.6978   1
 -10   4  -5 24.5475 18.8317   1
 -10   4  -5 -7.2131 21.1443   2
 -10   4  -5 5.34895 19.1414   3
 -10   4  -5 -15.787 17.5416   4
 -11   4  -5 -12.063 23.0930   2
 -11   4  -5 -7.4398 21.3497   3
 -12   4  -5 -9.9718 24.5177   2
 -11  -3   5 -43.992 23.1747   4
 -11  -3   5 22.2450 23.9099   2
 -10  -3   5 -25.077 23.3489   1
 -10  -3   5 -3.4436 19.4766   4
 -10  -3   5 -7.9176 20.8579   2
  -9  -3   5 -7.3043 20.2954   2
  -9  -3   5 37.8761 19.8569   1
  -9  -3   5 -38.840 18.7100   4
  -8  -3   5 78.5772 21.8512   2
  -8  -3   5 91.5390 19.4542   1
  -8  -3   5 116.580 22.7717   4
  -7  -3   5 95.4038 19.3447   1
  -7  -3   5 54.1719 17.4365   4
  -7  -3   5 59.9939 19.7205   2
  -6  -3   5 170.475 21.6956   4
  -6  -3   5 132.263 17.9694   1
  -6  -3   5 110.414 17.8041   2
  -5  -3   5 53.0220 15.3266   2
  -5  -3   5 46.9032 14.2431   1
  -5  -3   5 47.8738 15.3976   4
   4   3  -5 10.7225 8.42069   5
  -4  -3   5 13.0981 10.9904   4
  -4  -3   5 8.70994 11.6821   1
   3   3  -5 68.0856 11.0088   3
   3   3  -5 53.0744 9.55344   5
  -3  -3   5 42.3768 11.9826   4
  -3  -3   5 56.0623 12.5261   1
   2   3  -5 50.3731 6.76087   3
   2   3  -5 64.1630 10.1194   5
  -2  -3   5 39.6838 11.5571   1
   1   3  -5 1160.97 23.7143   5
   1   3  -5 1164.47 19.3333   3
  -1  -3   5 1160.35 25.5604   1
   0   3  -5 317.652 13.1940   3
  -1   3  -5 9.55826 8.17562   3
  -2   3  -5 183.913 13.8389   3
  -3   3  -5 17.5104 10.2407   3
  -4   3  -5 -13.488 9.16254   3
  -4   3  -5 -6.4949 7.58527   4
  -5   3  -5 26.2841 12.6393   2
  -5   3  -5 33.1685 12.7762   3
  -5   3  -5 31.2881 10.2131   4
  -6   3  -5 202.443 17.2043   1
  -6   3  -5 197.700 16.3162   4
  -6   3  -5 211.966 18.9161   2
  -6   3  -5 184.257 19.2373   3
  -7   3  -5 9.99124 12.5180   1
  -7   3  -5 -1.2841 13.3161   3
  -7   3  -5 0.80608 15.6992   2
  -7   3  -5 9.91729 12.8642   4
  -8   3  -5 -0.5822 14.3321   4
  -8   3  -5 -0.3971 14.3261   1
  -8   3  -5 20.4100 18.8930   2
  -8   3  -5 34.5222 16.4858   3
  -9   3  -5 -25.173 15.6037   3
  -9   3  -5 -32.302 14.8335   1
  -9   3  -5 10.1098 20.5603   2
  -9   3  -5 7.97653 15.6371   4
 -10   3  -5 -45.242 19.8627   2
 -10   3  -5 19.7088 19.1281   3
 -10   3  -5 -2.8118 17.4556   4
 -10   3  -5 3.66000 17.5897   1
 -11   3  -5 18.6112 24.8678   2
 -12   3  -5 54.9792 27.7630   2
 -11  -2   5 29.1296 25.1789   4
 -11  -2   5 9.07992 24.3571   2
 -10  -2   5 44.0654 21.0129   1
 -10  -2   5 31.1535 20.5746   2
 -10  -2   5 34.9741 24.1087   4
  -9  -2   5 15.6030 20.5342   2
  -9  -2   5 44.4997 18.8637   1
  -9  -2   5 30.1005 22.3150   4
  -8  -2   5 -25.447 17.2635   4
  -8  -2   5 5.42519 16.1464   2
  -8  -2   5 -6.2452 16.1148   1
  -7  -2   5 31.1182 16.5322   4
  -7  -2   5 18.2947 17.6818   2
  -7  -2   5 36.6520 17.3227   1
  -6  -2   5 114.030 18.3756   4
  -6  -2   5 73.8560 16.4948   2
  -6  -2   5 86.9102 17.5215   1
  -5  -2   5 94.6585 15.0382   1
  -5  -2   5 95.2376 15.1034   2
  -5  -2   5 63.2212 14.5405   4
  -4  -2   5 225.973 17.5797   1
  -4  -2   5 251.106 18.7945   2
  -4  -2   5 264.594 18.8681   4
   3   2  -5 474.084 13.1509   3
  -3  -2   5 495.154 20.1580   4
  -3  -2   5 450.167 19.1070   1
   2   2  -5 415.915 12.8548   3
  -2  -2   5 406.669 17.3467   1
  -2  -2   5 429.916 17.2897   4
   1   2  -5 473.841 14.7155   3
  -1  -2   5 537.440 19.1495   1
   0   2  -5 398.757 14.0722   3
  -1   2  -5 197.941 13.9878   3
  -2   2  -5 367.867 16.5236   3
  -3   2  -5 75.4357 11.7122   3
  -4   2  -5 785.080 23.2791   2
  -4   2  -5 819.499 24.3066   3
  -4   2  -5 796.549 18.0161   4
  -5   2  -5 77.6099 10.8664   4
  -5   2  -5 58.3457 13.3737   3
  -5   2  -5 70.1154 13.8767   2
  -6   2  -5 113.095 13.9241   1
  -6   2  -5 140.912 18.5967   2
  -6   2  -5 119.469 13.7187   4
  -6   2  -5 131.038 16.2738   3
  -7   2  -5 -2.6091 11.5920   4
  -7   2  -5 9.81105 16.1815   2
  -7   2  -5 -1.1775 12.9793   3
  -7   2  -5 22.7909 13.0650   1
  -8   2  -5 27.6032 15.9392   3
  -8   2  -5 57.0112 15.1643   4
  -8   2  -5 0.55277 14.2701   1
  -8   2  -5 48.7984 17.5780   2
  -9   2  -5 35.2487 15.9973   1
  -9   2  -5 44.0848 16.6206   4
  -9   2  -5 35.8858 20.5660   2
  -9   2  -5 51.9171 17.9715   3
 -10   2  -5 42.8823 20.8521   2
 -10   2  -5 44.2222 18.7658   4
 -10   2  -5 36.9017 20.0322   3
 -11   2  -5 27.4205 22.8344   4
 -11   2  -5 28.2363 24.4898   2
 -12   2  -5 -18.171 24.5828   2
 -11  -1   5 26.8910 25.4179   4
 -11  -1   5 -35.937 20.3446   2
 -11  -1   5 -29.651 19.4119   1
 -10  -1   5 17.1057 19.9823   1
 -10  -1   5 23.2315 22.4888   2
 -10  -1   5 9.36734 19.5558   4
  -9  -1   5 170.792 26.9981   2
  -9  -1   5 138.846 24.9780   4
  -9  -1   5 121.329 21.7857   1
  -8  -1   5 213.665 24.9888   2
  -8  -1   5 231.708 23.9527   1
  -8  -1   5 206.303 26.0995   4
  -7  -1   5 128.425 20.9351   2
  -7  -1   5 149.944 20.4543   1
  -7  -1   5 137.557 21.2009   4
  -6  -1   5 97.8997 17.5138   2
  -6  -1   5 125.402 18.9656   4
  -6  -1   5 89.9691 17.4922   1
  -5  -1   5 89.6467 15.2615   2
  -5  -1   5 84.4056 14.6357   4
  -5  -1   5 116.844 16.5045   1
  -4  -1   5 -12.796 9.49120   4
  -4  -1   5 22.9042 10.6560   1
  -4  -1   5 15.5927 9.73234   2
  -3  -1   5 421.173 19.1164   4
  -3  -1   5 442.446 19.9066   1
   2   1  -5 266.310 12.4540   3
  -2  -1   5 254.454 16.9604   1
  -2  -1   5 275.547 14.8329   4
   1   1  -5 369.961 12.7928   3
  -1  -1   5 319.538 16.7430   1
  -1  -1   5 342.521 15.3922   4
   0   1  -5 122.217 10.1867   3
   0  -1   5 120.258 10.4009   1
  -1   1  -5 759.282 18.4170   3
  -2   1  -5 20.2453 9.76328   3
  -3   1  -5 20.4522 9.82573   2
  -3   1  -5 17.9835 8.56656   3
  -4   1  -5 74.8457 11.2783   3
  -4   1  -5 84.3533 12.8787   2
  -4   1  -5 76.1258 8.70471   4
  -5   1  -5 187.246 13.2810   1
  -5   1  -5 192.135 14.3900   4
  -5   1  -5 159.303 15.4337   2
  -5   1  -5 164.513 15.4361   3
  -6   1  -5 198.656 16.7656   3
  -6   1  -5 197.290 18.8839   2
  -6   1  -5 221.202 15.9497   1
  -6   1  -5 215.508 15.6783   4
  -7   1  -5 13.8569 12.2976   4
  -7   1  -5 24.7726 16.0395   2
  -7   1  -5 33.1881 13.6130   3
  -7   1  -5 11.3300 11.6818   1
  -8   1  -5 71.5479 19.8958   2
  -8   1  -5 83.1426 15.8967   4
  -8   1  -5 80.7816 16.0867   3
  -8   1  -5 82.9209 15.8684   1
  -9   1  -5 18.3465 15.0788   3
  -9   1  -5 24.8742 20.3405   2
  -9   1  -5 11.7942 14.9545   4
  -9   1  -5 -7.6777 18.1042   1
 -10   1  -5 16.1750 18.9638   2
 -10   1  -5 15.6025 17.4195   4
 -11   1  -5 -4.4322 19.3549   2
 -11   1  -5 28.9123 19.7292   4
 -12   1  -5 -0.0308 25.9384   2
 -11   0   5 54.5640 24.2879   2
 -11   0   5 53.0334 26.0102   4
 -11   0   5 26.6706 23.0773   1
 -10   0   5 22.4294 22.8150   2
 -10   0   5 48.6902 21.4184   1
 -10   0   5 38.3746 24.0287   4
  -9   0   5 53.2356 23.1439   4
  -9   0   5 80.4731 20.8719   2
  -9   0   5 57.7152 20.3189   1
  -8   0   5 33.7274 18.4673   2
  -8   0   5 15.8129 17.8463   1
  -8   0   5 28.4519 19.6415   4
  -7   0   5 0.59647 16.2571   4
  -7   0   5 43.5143 17.0266   2
  -7   0   5 22.2884 14.5687   1
  -6   0   5 75.0313 16.8026   2
  -6   0   5 82.9811 16.1144   4
  -6   0   5 100.400 15.6440   1
  -5   0   5 560.310 26.4841   4
  -5   0   5 551.904 25.8349   2
  -5   0   5 579.389 26.2453   1
  -4   0   5 80.0654 13.6509   1
  -4   0   5 77.2131 12.5118   4
  -4   0   5 93.8310 12.7701   2
  -3   0   5 55.3063 11.2734   4
  -3   0   5 17.5772 9.29604   1
  -2   0   5 148.262 12.0465   4
  -2   0   5 150.729 12.6698   1
  -1   0   5 511.420 17.3781   1
   0   0  -5 227.827 13.1931   3
   0   0   5 258.651 13.5658   1
  -1   0  -5 382.040 14.1639   3
  -2   0  -5 213.902 12.9248   3
  -3   0  -5 56.7874 9.41419   2
  -3   0  -5 50.4809 10.4881   3
  -4   0  -5 574.742 21.5165   2
  -4   0  -5 561.330 19.4865   3
  -4   0  -5 602.326 15.7634   4
  -5   0  -5 154.123 12.2037   4
  -5   0  -5 140.964 13.3385   3
  -5   0  -5 164.963 12.0161   1
  -5   0  -5 146.666 15.4277   2
  -6   0  -5 7.45478 11.3300   2
  -6   0  -5 3.78436 9.84568   1
  -6   0  -5 9.52608 10.9117   3
  -6   0  -5 12.3559 10.5587   4
  -7   0  -5 122.329 18.8574   2
  -7   0  -5 130.892 15.8008   4
  -7   0  -5 118.039 15.3373   3
  -7   0  -5 122.150 14.3474   1
  -8   0  -5 -8.2729 14.4418   2
  -8   0  -5 20.0393 13.1314   1
  -8   0  -5 20.6836 13.8717   4
  -8   0  -5 16.9000 13.4900   3
  -9   0  -5 106.079 18.3205   4
  -9   0  -5 66.9510 18.7053   2
 -10   0  -5 47.6086 20.0859   2
 -10   0  -5 46.0570 18.6907   4
 -11   0  -5 -26.058 21.4564   2
 -11   0  -5 14.9810 19.1734   4
 -12   0  -5 26.2423 25.1863   2
 -11   1   5 -5.4778 23.8381   4
 -11   1   5 12.9281 22.2460   1
 -11   1   5 -8.4549 22.8181   2
 -10   1   5 -4.2928 19.4240   1
 -10   1   5 32.7672 23.0263   4
 -10   1   5 15.5149 20.2573   2
  -9   1   5 91.9345 22.2532   4
  -9   1   5 67.7743 20.0946   2
  -9   1   5 71.9198 20.8692   1
  -8   1   5 96.8437 21.0994   4
  -8   1   5 153.556 23.1898   2
  -8   1   5 90.4106 19.8281   1
  -7   1   5 112.596 19.1470   1
  -7   1   5 110.154 17.7155   2
  -7   1   5 94.7101 20.6317   4
  -6   1   5 71.9306 15.2287   1
  -6   1   5 60.9457 17.2974   4
  -6   1   5 73.2667 15.5517   2
  -5   1   5 15.1733 12.4859   4
  -5   1   5 1.18917 10.1666   2
  -5   1   5 24.8591 12.9309   1
  -4   1   5 -3.9664 11.3172   4
  -4   1   5 5.69429 11.7493   1
  -4   1   5 9.13876 10.2982   2
  -3   1   5 46.7733 9.61524   2
  -3   1   5 27.9027 10.9505   1
  -3   1   5 13.0371 9.31188   4
  -2   1   5 1059.52 23.4503   1
  -2   1   5 1086.98 22.3195   4
  -1   1   5 132.459 10.1923   1
   0  -1  -5 636.911 17.2476   3
   0   1   5 625.766 14.9672   1
  -1  -1  -5 63.7837 9.10838   3
   1   1   5 78.2400 7.61309   1
  -2  -1  -5 56.9756 10.1958   3
  -2  -1  -5 37.1977 8.21009   2
  -3  -1  -5 16.8923 8.94176   3
  -3  -1  -5 -4.1166 8.59665   2
  -4  -1  -5 109.401 9.95657   4
  -4  -1  -5 112.286 8.55404   1
  -4  -1  -5 109.983 11.4167   2
  -4  -1  -5 125.072 11.5307   3
  -5  -1  -5 497.206 21.5375   2
  -5  -1  -5 506.057 15.4510   1
  -5  -1  -5 500.956 17.8124   4
  -5  -1  -5 499.155 19.8923   3
  -6  -1  -5 251.855 16.3571   1
  -6  -1  -5 239.800 17.7234   4
  -6  -1  -5 260.564 18.6543   3
  -6  -1  -5 238.170 18.4742   2
  -7  -1  -5 42.9978 11.8426   1
  -7  -1  -5 64.3906 14.0060   4
  -7  -1  -5 31.2227 16.0858   2
  -7  -1  -5 41.2517 12.5879   3
  -8  -1  -5 115.928 20.5135   2
  -8  -1  -5 89.6970 14.9550   3
  -8  -1  -5 88.7299 16.5845   4
  -9  -1  -5 5.14904 15.0181   4
  -9  -1  -5 -19.787 15.0671   2
 -10  -1  -5 56.8819 18.3335   4
 -10  -1  -5 44.5799 22.5767   2
 -11  -1  -5 43.4098 23.3361   2
 -11  -1  -5 46.0226 19.5948   4
 -12  -1  -5 -6.3716 19.2380   4
 -12  -1  -5 9.39981 20.8446   2
 -11   2   5 53.0069 25.2041   2
 -11   2   5 12.6235 24.5169   4
 -11   2   5 47.1869 23.6430   1
 -10   2   5 59.9678 23.1779   1
 -10   2   5 103.788 26.9899   4
 -10   2   5 38.4272 21.9689   2
  -9   2   5 40.5425 20.6850   2
  -9   2   5 91.1422 21.5450   1
  -9   2   5 77.7342 21.1429   4
  -8   2   5 -12.765 16.5091   2
  -8   2   5 14.1596 17.1351   1
  -8   2   5 21.2411 19.8170   4
  -7   2   5 101.913 18.6507   2
  -7   2   5 80.4078 19.4108   4
  -7   2   5 90.3923 18.5854   1
  -6   2   5 160.764 18.2844   1
  -6   2   5 187.821 21.2268   4
  -6   2   5 181.573 18.5145   2
  -5   2   5 202.606 19.7083   4
  -5   2   5 202.678 16.6923   2
  -5   2   5 237.714 19.5155   1
  -4   2   5 723.896 22.6547   2
  -4   2   5 703.091 24.8805   1
  -4   2   5 697.506 25.0922   4
  -3   2   5 161.117 12.1794   2
  -3   2   5 154.738 13.2615   4
  -3   2   5 154.670 13.2694   1
  -2   2   5 -4.8586 9.50427   1
  -2   2   5 -17.329 8.42259   4
  -2   2   5 11.7797 6.98760   2
  -1   2   5 23.7787 9.05924   1
  -1   2   5 12.1626 8.28713   4
   0   2   5 406.426 13.2975   1
  -1  -2  -5 995.469 19.6493   3
   1   2   5 985.402 13.4615   1
  -2  -2  -5 536.982 17.0882   3
  -2  -2  -5 517.066 14.6568   2
  -3  -2  -5 263.116 14.5971   2
  -3  -2  -5 262.164 14.4060   3
  -4  -2  -5 207.410 14.7652   2
  -4  -2  -5 184.591 13.6624   4
  -4  -2  -5 208.888 9.28418   1
  -4  -2  -5 195.599 14.8596   3
  -5  -2  -5 75.6275 8.27634   1
  -5  -2  -5 68.1345 12.3829   2
  -5  -2  -5 67.5149 10.7909   4
  -5  -2  -5 61.3947 10.0900   3
  -6  -2  -5 14.7368 11.2182   4
  -6  -2  -5 32.9137 10.7627   3
  -6  -2  -5 72.7800 14.6922   2
  -6  -2  -5 20.4900 8.72581   1
  -7  -2  -5 239.595 19.1097   4
  -7  -2  -5 240.116 17.8010   3
  -7  -2  -5 271.358 22.4361   2
  -8  -2  -5 17.7154 13.6953   4
  -8  -2  -5 31.8197 15.7101   2
  -9  -2  -5 115.495 22.8496   2
  -9  -2  -5 82.9590 18.3560   4
 -10  -2  -5 0.99860 20.0602   2
 -10  -2  -5 6.17709 17.0487   4
 -11  -2  -5 20.7548 18.8800   4
 -11  -2  -5 20.0151 22.8340   2
 -12  -2  -5 -6.9701 19.5721   4
 -12  -2  -5 -19.036 22.9059   2
 -11   3   5 29.9197 23.1612   2
 -11   3   5 51.3315 23.7672   1
 -11   3   5 7.42203 23.6128   4
 -10   3   5 44.1454 20.7828   1
 -10   3   5 -11.459 20.2791   2
 -10   3   5 35.1079 21.6973   4
  -9   3   5 43.1946 20.5073   2
  -9   3   5 58.7261 20.4935   1
  -9   3   5 26.9102 18.9879   4
  -8   3   5 59.3222 19.7615   1
  -8   3   5 57.0638 18.2313   2
  -8   3   5 51.8231 20.7700   4
  -7   3   5 -2.0167 14.9080   2
  -7   3   5 31.9372 16.3202   4
  -7   3   5 34.2907 16.8271   1
  -6   3   5 72.4998 18.4352   4
  -6   3   5 40.0889 14.7225   2
  -6   3   5 54.4520 16.5246   1
  -5   3   5 3.47197 14.5710   4
  -5   3   5 31.4210 11.8062   2
  -5   3   5 16.7679 12.1085   1
  -4   3   5 29.8729 11.1495   1
  -4   3   5 39.4219 10.1716   2
  -4   3   5 41.1753 12.6506   4
  -3   3   5 34.5887 10.2963   1
  -3   3   5 39.5971 8.51633   2
  -3   3   5 62.2691 12.5026   4
  -2   3   5 535.806 14.6394   2
  -2   3   5 530.688 19.1422   1
  -2   3   5 528.998 19.3473   4
  -1   3   5 178.025 11.7708   1
  -1   3   5 196.712 13.7355   4
   0   3   5 309.865 12.2402   1
   1   3   5 3.24423 4.89103   1
  -2  -3  -5 31.9922 9.31238   3
  -3  -3  -5 21.0482 8.46414   3
  -3  -3  -5 48.2052 8.80569   2
  -4  -3  -5 280.000 14.5843   3
  -4  -3  -5 307.231 16.8667   2
  -4  -3  -5 308.152 8.54444   1
  -5  -3  -5 1192.07 24.5810   3
  -5  -3  -5 1181.10 17.7552   1
  -5  -3  -5 1228.59 29.8375   2
  -6  -3  -5 229.025 16.4155   3
  -6  -3  -5 227.863 17.4642   4
  -6  -3  -5 271.186 20.0801   2
  -7  -3  -5 70.5731 15.0756   4
  -7  -3  -5 57.9058 16.8055   2
  -8  -3  -5 -5.9767 14.3999   4
  -8  -3  -5 8.22329 14.6079   2
  -9  -3  -5 -14.804 15.2417   2
  -9  -3  -5 13.9777 16.8393   4
 -10  -3  -5 -1.9550 20.7146   2
 -10  -3  -5 26.1358 18.7055   4
 -11  -3  -5 34.5052 20.8544   4
 -11  -3  -5 6.17142 22.8411   2
 -12  -3  -5 -5.0437 19.7615   4
 -12  -3  -5 5.24636 24.5354   2
 -11   4   5 17.5427 24.2077   4
 -11   4   5 -2.7117 22.8730   1
 -11   4   5 0.33655 22.7264   2
 -10   4   5 44.1856 22.2727   2
 -10   4   5 71.8202 23.2009   1
 -10   4   5 59.5547 24.6266   4
  -9   4   5 -8.3395 18.2003   2
  -9   4   5 25.9941 20.2777   1
  -9   4   5 19.7615 19.4609   4
  -8   4   5 29.7129 20.0469   4
  -8   4   5 52.0770 20.0030   1
  -8   4   5 15.0484 16.6923   2
  -7   4   5 99.4268 19.6945   1
  -7   4   5 74.3561 17.2916   2
  -7   4   5 41.6633 17.3602   4
  -6   4   5 252.487 19.5799   2
  -6   4   5 229.616 23.7116   4
  -6   4   5 253.316 22.8283   1
  -5   4   5 392.921 24.3052   1
  -5   4   5 374.666 23.7504   4
  -5   4   5 382.958 20.2987   2
  -4   4   5 195.742 18.5337   4
  -4   4   5 166.727 13.4870   2
  -4   4   5 187.475 17.5210   1
  -3   4   5 250.763 13.6604   2
  -3   4   5 273.657 18.3457   4
  -3   4   5 228.945 16.3390   1
  -2   4   5 257.117 17.1928   4
  -2   4   5 262.358 14.8818   1
  -1   4   5 55.2667 9.62484   1
  -1   4   5 72.6044 10.9893   4
   0   4   5 3.60395 6.59280   1
   1   4   5 595.547 11.1148   1
  -2  -4  -5 229.897 13.7574   3
  -3  -4  -5 724.619 18.3828   2
  -3  -4  -5 705.185 18.0642   3
  -4  -4  -5 26.7867 9.03809   2
  -4  -4  -5 40.9952 8.99293   3
  -5  -4  -5 57.0529 12.1168   2
  -5  -4  -5 37.5248 9.23977   3
  -6  -4  -5 87.1918 15.0516   2
  -6  -4  -5 53.1601 13.9518   4
  -6  -4  -5 82.7936 11.3166   3
  -7  -4  -5 33.0707 15.2878   2
  -7  -4  -5 36.4242 14.0106   4
  -8  -4  -5 29.1363 16.3964   4
  -8  -4  -5 37.3182 17.7558   2
  -9  -4  -5 26.7027 17.8574   4
  -9  -4  -5 77.1958 21.0028   2
 -10  -4  -5 33.9762 19.7349   4
 -10  -4  -5 26.2988 21.5569   2
 -11  -4  -5 12.2493 22.6665   2
 -11  -4  -5 28.1370 20.4081   4
 -12  -4  -5 18.7115 25.5463   2
 -12  -4  -5 -3.0962 19.9003   4
 -11   5   5 7.98900 23.7466   1
 -11   5   5 22.3485 25.0241   4
 -11   5   5 57.6443 30.4420   2
 -10   5   5 30.5061 21.6156   4
 -10   5   5 38.4165 22.3518   2
 -10   5   5 -23.686 20.7388   1
  -9   5   5 22.9770 23.4951   4
  -9   5   5 4.22408 19.1318   2
  -9   5   5 56.5723 19.6339   1
  -8   5   5 152.778 26.0597   4
  -8   5   5 95.7055 21.9988   1
  -8   5   5 139.967 21.8042   2
  -7   5   5 139.311 22.0123   4
  -7   5   5 160.918 20.3591   2
  -7   5   5 121.175 19.6695   1
  -6   5   5 41.8856 18.6125   4
  -6   5   5 24.7150 13.1890   2
  -6   5   5 12.7821 15.8415   1
  -5   5   5 21.6531 13.4378   1
  -5   5   5 24.5270 11.4696   2
  -5   5   5 7.53568 13.3592   4
  -4   5   5 64.1074 10.3844   2
  -4   5   5 56.6326 14.8359   4
  -4   5   5 59.4696 14.8409   1
  -3   5   5 120.035 13.4587   1
  -3   5   5 148.554 14.7326   4
  -3   5   5 158.226 10.6066   2
  -2   5   5 40.2512 10.6104   4
  -2   5   5 28.7959 9.25892   1
  -1   5   5 0.84766 8.10068   1
   0   5   5 139.157 9.68252   1
   1   5   5 -5.5178 5.30515   1
  -3  -5  -5 128.772 10.4801   2
  -3  -5  -5 130.837 11.0026   3
  -4  -5  -5 258.037 14.1436   3
  -4  -5  -5 238.049 16.7329   2
  -5  -5  -5 163.897 15.7834   2
  -5  -5  -5 162.416 12.2064   3
  -6  -5  -5 508.722 25.4938   2
  -7  -5  -5 67.1477 16.3642   2
  -7  -5  -5 70.0291 16.4734   4
  -8  -5  -5 4.14582 16.1998   2
  -8  -5  -5 -10.670 15.0749   4
  -9  -5  -5 33.1345 18.8350   2
  -9  -5  -5 3.74857 17.4713   4
 -10  -5  -5 -14.405 18.9484   4
 -10  -5  -5 22.3664 21.4809   2
 -11  -5  -5 63.5773 24.4363   2
 -11  -5  -5 9.21045 20.5128   4
 -12  -5  -5 50.4210 25.5528   2
 -12  -5  -5 13.3904 22.1860   4
 -11   6   5 8.44495 25.2535   4
 -10   6   5 2.00919 23.4002   4
 -10   6   5 9.17805 22.4788   1
  -9   6   5 -9.6255 20.4726   1
  -9   6   5 -7.4078 24.6475   2
  -9   6   5 19.0144 23.2231   4
  -8   6   5 -6.7533 17.8936   1
  -8   6   5 36.6284 18.1877   2
  -8   6   5 12.6521 21.5330   4
  -7   6   5 50.0959 21.4617   4
  -7   6   5 62.4665 18.9243   1
  -7   6   5 56.9830 17.0681   2
  -6   6   5 115.691 19.6215   4
  -6   6   5 116.312 20.0902   1
  -6   6   5 87.0190 15.7168   2
  -5   6   5 118.071 16.8507   1
  -5   6   5 107.099 19.6878   4
  -5   6   5 158.237 15.3116   2
  -4   6   5 93.8588 14.4839   1
  -4   6   5 77.8074 15.0770   4
  -4   6   5 113.456 11.9976   2
  -3   6   5 116.350 10.5406   5
  -3   6   5 117.465 14.8664   1
  -3   6   5 79.8929 13.6480   4
  -3   6   5 110.847 9.70120   2
  -2   6   5 110.421 10.7528   5
  -2   6   5 98.3293 12.8614   1
  -1   6   5 50.9098 10.1952   5
  -1   6   5 64.2190 9.97079   1
   0   6   5 493.555 15.5537   1
   1   6   5 726.914 15.0348   1
  -2  -6  -5 446.383 13.1315   2
  -3  -6  -5 20.9410 8.28000   3
  -3  -6  -5 8.68416 7.35815   2
  -4  -6  -5 -8.1134 7.46678   3
  -4  -6  -5 5.54642 8.97571   2
  -5  -6  -5 -8.9351 13.3510   3
  -5  -6  -5 23.4548 11.4166   2
  -6  -6  -5 43.1947 14.2984   2
  -7  -6  -5 9.15328 15.2260   2
  -8  -6  -5 44.0291 18.4799   4
  -8  -6  -5 31.4844 16.9535   2
  -9  -6  -5 36.5865 18.8257   4
  -9  -6  -5 56.6414 19.7415   2
 -10  -6  -5 44.3529 20.5700   4
 -10  -6  -5 46.0240 20.4023   2
 -11  -6  -5 31.4818 22.4730   4
 -11  -6  -5 38.3327 23.1393   2
 -12  -6  -5 -0.9499 22.6263   4
 -10   7   5 8.72589 23.5224   4
 -10   7   5 40.3888 24.6872   1
  -9   7   5 99.8306 26.9468   4
  -9   7   5 106.485 23.6893   1
  -8   7   5 48.2652 22.8472   4
  -8   7   5 69.4482 20.0328   1
  -7   7   5 57.6691 19.9541   1
  -7   7   5 68.5851 19.6426   4
  -6   7   5 21.3712 17.3019   1
  -6   7   5 -14.299 14.8002   4
  -5   7   5 -16.744 14.5530   1
  -5   7   5 -2.3225 14.2459   4
  -4   7   5 13.5676 15.0683   4
  -4   7   5 9.71207 13.8813   2
  -4   7   5 -13.815 12.6603   1
  -3   7   5 56.4073 10.3931   5
  -3   7   5 49.7133 13.2511   1
  -3   7   5 20.9019 10.8980   2
  -2   7   5 33.5433 11.5187   1
  -2   7   5 45.5408 10.6990   5
  -1   7   5 -1.3028 8.54988   1
  -1   7   5 -9.7362 9.06104   5
   0   7   5 263.520 14.2893   1
   0   7   5 265.388 17.5660   5
  -2  -7  -5 6.76407 6.25208   2
  -3  -7  -5 8.82018 7.67025   2
  -4  -7  -5 126.887 11.0539   3
  -4  -7  -5 99.7039 12.1766   2
  -5  -7  -5 260.101 19.4577   2
  -6  -7  -5 170.706 18.2037   2
  -7  -7  -5 103.841 18.2984   2
  -8  -7  -5 -10.907 16.3325   2
  -8  -7  -5 21.0621 17.1420   4
  -9  -7  -5 12.4698 19.0474   2
  -9  -7  -5 -32.615 16.0788   4
 -10  -7  -5 36.3958 21.5141   2
 -10  -7  -5 -9.2305 20.2182   4
 -11  -7  -5 74.4001 25.6209   2
 -11  -7  -5 -24.731 21.0453   4
 -10   8   5 50.8556 25.3515   1
 -10   8   5 -0.1767 23.2046   4
  -9   8   5 -16.003 21.7607   4
  -9   8   5 -15.653 21.4102   1
  -8   8   5 1.51185 17.4866   1
  -8   8   5 -14.329 20.4984   4
  -7   8   5 19.9033 19.9134   1
  -7   8   5 18.7721 18.8586   4
  -6   8   5 -15.077 18.0245   4
  -6   8   5 32.6789 17.7629   1
  -5   8   5 53.1979 18.0924   1
  -5   8   5 51.0162 18.0481   4
  -4   8   5 127.289 18.0776   1
  -3   8   5 11.4241 12.9647   1
  -3   8   5 4.34965 10.0388   5
  -2   8   5 2.52923 10.4963   5
  -2   8   5 8.55825 11.1821   1
  -1   8   5 83.2896 13.1492   5
  -1   8   5 71.9263 11.7840   1
   0   8   5 161.483 15.8241   5
   0   8   5 168.258 12.7231   1
   1   8   5 134.142 15.8877   5
  -2  -8  -5 307.523 16.1485   2
   2   8   5 305.742 19.5410   5
  -3  -8  -5 95.3859 11.1141   2
  -4  -8  -5 21.1539 10.0795   2
  -5  -8  -5 -20.635 10.4771   2
  -6  -8  -5 41.5943 14.0039   2
  -7  -8  -5 109.570 18.8547   2
  -8  -8  -5 64.7339 19.7179   2
  -9  -8  -5 53.8080 20.2612   2
  -9  -8  -5 38.9850 20.5013   4
 -10  -8  -5 48.6166 22.4648   4
 -10  -8  -5 7.48971 21.6071   2
 -11  -8  -5 9.54817 23.4967   4
 -11  -8  -5 -4.7026 22.1129   2
 -10   9   5 -6.3988 24.6588   4
  -9   9   5 50.9525 24.9147   4
  -9   9   5 -0.4039 22.3014   1
  -8   9   5 41.1749 20.5379   1
  -8   9   5 30.4517 22.5018   4
  -7   9   5 68.9717 20.1163   1
  -7   9   5 73.7307 21.3869   4
  -6   9   5 31.7307 18.6869   4
  -6   9   5 25.8487 16.5743   1
  -5   9   5 -3.5321 15.9927   1
  -4   9   5 118.653 17.7196   1
  -3   9   5 85.9238 16.2339   1
  -3   9   5 53.1606 13.2907   5
  -2   9   5 77.8805 13.7820   5
  -2   9   5 112.607 15.7104   1
  -1   9   5 207.786 18.0801   5
  -1   9   5 205.851 15.7637   1
   0   9   5 129.943 16.3678   5
   1   9   5 14.1684 11.8271   5
   2   9   5 -7.6838 11.4729   5
   3   9   5 18.5614 14.2605   5
  -4  -9  -5 305.524 20.4243   2
   4   9   5 238.662 20.7716   5
  -5  -9  -5 319.043 22.1198   2
   5   9   5 341.263 24.5174   5
  -6  -9  -5 96.7989 16.7708   2
   6   9   5 79.6181 18.6017   5
  -7  -9  -5 -7.0896 14.4072   2
   7   9   5 32.8918 17.4885   5
  -8  -9  -5 -26.431 15.9695   2
   8   9   5 30.9563 18.5536   5
  -9  -9  -5 15.0279 20.6466   2
  -9  -9  -5 -13.059 20.0452   4
 -10  -9  -5 9.49441 21.6000   2
 -10  -9  -5 -7.8222 21.1999   4
 -11  -9  -5 30.5676 24.9168   2
 -11  -9  -5 -30.989 22.6175   4
  -9  10   5 49.2681 25.1079   1
  -9  10   5 -9.7864 24.6086   4
  -8  10   5 16.1186 21.7878   1
  -8  10   5 15.2891 24.7809   4
  -7  10   5 44.5599 23.0695   1
  -6  10   5 34.0228 18.0431   1
  -5  10   5 35.5261 18.3865   1
  -4  10   5 18.0034 16.7919   1
  -3  10   5 9.34660 14.6576   1
  -3  10   5 6.26627 13.0747   5
  -2  10   5 2.92707 11.9690   1
  -2  10   5 14.6015 12.9279   5
  -1  10   5 2.36432 12.8143   5
   0  10   5 33.6773 14.4128   5
   1  10   5 27.5779 13.2718   5
   2  10   5 13.7788 13.2409   5
   3  10   5 19.8196 15.0358   5
   4  10   5 36.1769 15.1244   5
   5  10   5 17.1302 14.9030   5
   6  10   5 28.7646 16.0521   5
  -7 -10  -5 20.4774 16.9929   2
   7  10   5 26.4840 18.6619   5
  -8 -10  -5 34.2045 19.2971   2
   8  10   5 7.49040 18.1147   5
  -9 -10  -5 -0.1671 19.6708   4
  -9 -10  -5 32.2232 21.2139   2
 -10 -10  -5 58.9264 23.6396   2
 -10 -10  -5 20.0285 23.6160   4
  -9  11   5 4.16602 24.2299   1
  -8  11   5 29.7072 23.7874   1
  -7  11   5 -6.5287 21.0258   1
  -6  11   5 -28.761 18.5239   1
  -5  11   5 -7.8915 15.5358   1
  -4  11   5 30.7535 16.7120   1
  -3  11   5 48.2829 15.9050   1
  -3  11   5 49.5637 15.6811   5
  -2  11   5 72.4469 16.2587   5
  -1  11   5 399.641 25.2440   5
   0  11   5 41.5641 15.6652   5
   1  11   5 18.9049 15.0435   5
   2  11   5 32.5174 16.4073   5
   3  11   5 381.103 27.6659   5
   4  11   5 166.458 22.6447   5
   5  11   5 59.1944 19.6539   5
   6  11   5 13.9215 17.9569   5
   7  11   5 1.85729 18.3571   5
   8  11   5 27.6362 19.1987   5
 -10 -11  -5 15.9361 25.0421   4
  -8  12   5 2.38802 23.3688   1
  -7  12   5 38.0233 22.2241   1
  -6  12   5 57.5910 22.1785   1
  -5  12   5 18.9943 17.0975   1
  -4  12   5 57.0214 18.5633   1
  -3  12   5 18.9240 15.5654   5
  -2  12   5 5.22192 14.0886   5
  -1  12   5 1.26338 15.3367   5
   0  12   5 51.2777 15.4623   5
   1  12   5 115.060 19.9899   5
   2  12   5 14.8375 14.9922   5
   3  12   5 26.5571 15.9521   5
   4  12   5 20.6598 18.3726   5
   5  12   5 -3.9022 17.1896   5
   6  12   5 20.2339 16.7854   5
   7  12   5 46.1982 20.6673   5
   8  12   5 14.8896 21.1033   5
  -8  13   5 56.4516 24.5430   1
  -7  13   5 16.2486 22.2352   1
  -6  13   5 8.93715 20.8682   1
  -5  13   5 -33.908 17.5129   1
  -3  13   5 64.0479 17.9031   5
  -2  13   5 40.2017 16.8411   5
  -1  13   5 48.4664 17.7540   5
   0  13   5 -7.0393 16.1004   5
   1  13   5 31.6406 17.9006   5
   2  13   5 -6.4118 17.5895   5
   3  13   5 95.3953 22.0882   5
   4  13   5 65.8472 19.0524   5
   5  13   5 -10.057 19.4266   5
   6  13   5 -4.2173 19.5005   5
   7  13   5 -15.063 18.4999   5
   8  13   5 -4.8699 21.1946   5
  -7  14   5 22.3531 24.2537   1
  -3  14   5 -5.2804 15.9669   5
  -2  14   5 16.6871 18.5326   5
  -1  14   5 -9.5814 17.1475   5
   0  14   5 94.7748 19.4210   5
   1  14   5 6.92470 16.6485   5
   2  14   5 9.93963 17.1609   5
   3  14   5 50.0942 21.0468   5
   4  14   5 -5.1481 18.7130   5
   5  14   5 -14.478 20.0206   5
   6  14   5 17.1756 22.3395   5
   7  14   5 31.6774 22.2212   5
   8  14   5 57.7236 25.2891   5
  -3  15   5 9.01735 18.9129   5
  -2  15   5 32.9089 20.0609   5
  -1  15   5 62.0867 19.2973   5
   0  15   5 26.9734 17.9240   5
   1  15   5 15.8739 19.6648   5
   2  15   5 33.2474 20.5637   5
   3  15   5 6.67447 20.5168   5
   4  15   5 26.4868 19.4944   5
   5  15   5 38.4972 23.6072   5
   6  15   5 32.4566 23.4091   5
   7  15   5 -39.591 20.8478   5
  -3  16   5 20.5740 19.5200   5
  -2  16   5 30.7887 21.0081   5
  -1  16   5 -11.331 20.3500   5
   0  16   5 0.12624 17.6331   5
   1  16   5 18.1994 21.3645   5
   2  16   5 -11.681 19.8340   5
   3  16   5 -6.4061 18.6504   5
   4  16   5 20.3787 22.4289   5
   5  16   5 41.7817 23.8209   5
   6  16   5 30.5092 21.3511   5
  -3  17   5 50.4377 26.6153   5
  -2  17   5 5.14175 21.2760   5
  -1  17   5 31.4842 22.1886   5
   0  17   5 -17.991 20.5524   5
   1  17   5 22.0524 23.3774   5
   2  17   5 12.2406 23.5650   5
   3  17   5 26.7896 24.3733   5
   4  17   5 38.2151 24.1866   5
  -2  18   5 -6.4824 21.2110   5
  -1  18   5 -2.1716 22.4004   5
   0  18   5 10.9522 23.7689   5
   1  18   5 22.2203 25.1373   5
   2  18   5 -6.9557 23.9320   5
   2  16  -6 -12.589 24.5108   5
   1  16  -6 -4.6922 23.6346   5
   0  16  -6 4.62668 23.6046   5
  -1  16  -6 27.1963 23.7240   5
   3  15  -6 20.2740 25.0655   5
   2  15  -6 -15.348 22.0400   5
  -2 -15   6 -11.429 23.4427   1
   1  15  -6 -2.5552 22.8371   5
   0  15  -6 19.4390 23.2256   5
  -1  15  -6 23.3334 23.2521   5
  -2  15  -6 26.4577 24.3525   5
  -4  15  -6 8.83664 24.3700   3
  -5  15  -6 1.22417 24.0952   3
  -6  15  -6 -8.2278 25.1952   3
   4  14  -6 35.5003 23.3584   5
   3  14  -6 -12.777 20.5174   5
   2  14  -6 20.1958 22.3642   5
  -2 -14   6 33.2824 20.9711   1
   1  14  -6 -2.7977 22.2904   5
   0  14  -6 55.6526 24.1723   5
  -1  14  -6 16.1625 21.9492   5
  -2  14  -6 15.3805 22.0933   5
  -4  14  -6 -6.0907 22.1219   3
  -5  14  -6 -15.212 23.1099   3
  -6  14  -6 4.86520 25.0093   3
  -7  14  -6 13.5521 24.5929   3
  -6 -13   6 8.65545 23.7078   2
   4  13  -6 -0.6719 20.0097   5
   3  13  -6 11.0286 20.4877   5
  -3 -13   6 9.49666 20.4795   1
   2  13  -6 -8.1991 20.3100   5
  -2 -13   6 34.0536 20.0101   1
   1  13  -6 -13.140 19.7896   5
   0  13  -6 41.7470 21.9636   5
  -1  13  -6 58.1801 23.1801   5
  -2  13  -6 50.6131 22.0545   5
  -3  13  -6 13.0429 19.8700   3
  -4  13  -6 16.0893 21.3831   3
  -5  13  -6 -7.1531 22.4374   3
  -6  13  -6 2.88741 22.7529   3
  -7  13  -6 20.0129 23.7668   3
  -8  13  -6 23.2769 25.3221   3
  -7 -12   6 32.2839 27.1298   4
  -7 -12   6 -6.1210 24.6507   2
  -6 -12   6 -14.706 22.2956   2
   4  12  -6 33.1101 20.6812   5
  -4 -12   6 -3.8439 19.3405   1
   3  12  -6 -20.260 17.2338   5
  -3 -12   6 18.1157 18.5414   1
   2  12  -6 7.49622 19.9953   5
  -2 -12   6 -5.2975 18.5492   1
   1  12  -6 47.3576 21.3227   5
   0  12  -6 24.7551 21.3945   5
  -1  12  -6 20.1947 20.2990   5
  -2  12  -6 15.2873 17.4709   5
  -2  12  -6 58.6636 19.8455   3
  -3  12  -6 -1.0142 18.0447   3
  -4  12  -6 61.6332 21.8719   3
  -5  12  -6 48.3595 23.6211   3
  -6  12  -6 73.3793 24.5718   3
  -7  12  -6 -9.2430 21.9264   3
  -8  12  -6 25.4919 24.9641   3
  -9  12  -6 9.96522 24.2781   3
  -7 -11   6 14.5068 25.0395   4
  -7 -11   6 9.36604 23.0215   2
  -6 -11   6 -15.556 21.0916   2
  -5 -11   6 33.2013 19.9769   1
   4  11  -6 23.8544 18.4151   5
  -4 -11   6 17.7028 18.4394   1
   3  11  -6 81.5586 21.1518   5
  -3 -11   6 62.5585 19.7919   1
   2  11  -6 2.29164 18.1632   5
  -2 -11   6 6.15994 17.2664   1
   1  11  -6 4.20539 18.1149   5
   0  11  -6 25.6374 19.3607   5
  -1  11  -6 7.60743 19.5059   5
  -2  11  -6 72.0574 18.7557   3
  -2  11  -6 63.0903 18.9029   5
  -3  11  -6 66.6804 19.8148   3
  -4  11  -6 36.5542 19.0648   3
  -5  11  -6 -1.8583 19.1332   3
  -6  11  -6 -0.3115 20.6430   3
  -7  11  -6 64.5156 24.1170   3
  -8  11  -6 50.3415 22.7874   3
  -9  11  -6 -10.934 21.5937   3
  -8 -10   6 -11.245 21.2062   2
  -8 -10   6 24.2967 26.0489   4
  -7 -10   6 -29.628 23.5465   4
  -7 -10   6 45.8249 21.7620   2
  -6 -10   6 -10.310 21.2526   2
  -5 -10   6 0.68735 17.2927   1
   4  10  -6 12.4259 17.2413   5
  -4 -10   6 -14.370 16.9497   1
   3  10  -6 -9.4691 16.3961   5
  -3 -10   6 6.20749 16.8877   1
   2  10  -6 48.0491 18.8635   5
  -2 -10   6 48.4192 18.0795   1
   1  10  -6 67.0761 19.8721   5
   0  10  -6 136.806 22.3471   5
  -1  10  -6 12.6964 17.6351   5
  -1  10  -6 11.0849 14.7430   3
  -2  10  -6 -1.2696 16.8968   5
  -2  10  -6 -7.7865 14.8940   3
  -3  10  -6 17.2876 16.6865   3
  -4  10  -6 28.3069 18.2476   3
  -5  10  -6 37.5263 19.9269   3
  -6  10  -6 26.6065 19.4153   3
  -7  10  -6 13.8753 20.5199   3
  -8  10  -6 36.6485 22.3170   3
  -9  10  -6 -37.169 21.2547   3
 -10  10  -6 -2.1006 24.4375   3
  -8  -9   6 -0.5131 24.0196   2
  -8  -9   6 -6.4562 22.5703   4
  -7  -9   6 22.2067 22.5337   4
  -7  -9   6 0.93236 21.6847   2
  -6  -9   6 42.7845 18.2805   1
  -6  -9   6 29.9631 21.6889   2
  -6  -9   6 34.1152 22.0117   4
  -5  -9   6 35.4881 18.3130   1
   4   9  -6 36.2213 16.6272   5
  -4  -9   6 23.7848 17.5967   1
   3   9  -6 41.7884 17.2662   5
  -3  -9   6 35.7836 17.1378   1
   2   9  -6 82.5969 18.6312   5
  -2  -9   6 126.662 19.2719   1
   1   9  -6 -18.994 15.4264   5
   0   9  -6 76.7756 19.5705   5
  -1   9  -6 108.880 18.6237   5
  -1   9  -6 186.839 18.5420   3
  -2   9  -6 177.171 21.7455   5
  -2   9  -6 180.686 19.7307   3
  -3   9  -6 133.368 19.6456   3
  -4   9  -6 19.1190 16.9284   3
  -5   9  -6 8.17812 16.8346   3
  -6   9  -6 -0.7322 18.0732   3
  -7   9  -6 9.19862 19.4690   3
  -8   9  -6 85.8066 23.9982   3
  -9   9  -6 1.09924 22.3728   3
 -10   9  -6 -11.605 22.9780   3
  -9  -8   6 29.9562 24.7755   4
  -9  -8   6 2.25437 21.1815   2
  -8  -8   6 50.4717 25.3886   4
  -8  -8   6 46.8516 25.0385   2
  -7  -8   6 48.4217 23.4127   4
  -7  -8   6 46.8916 22.7739   2
  -7  -8   6 29.4615 19.0451   1
  -6  -8   6 27.4920 21.0395   2
  -6  -8   6 77.9638 19.4132   1
  -6  -8   6 106.382 24.7437   4
  -5  -8   6 17.4935 16.3098   1
   4   8  -6 2.58395 14.1265   5
  -4  -8   6 15.0394 15.5939   1
   3   8  -6 14.5052 15.1226   5
  -3  -8   6 13.2831 15.3780   1
   2   8  -6 104.584 18.1329   5
  -2  -8   6 133.636 18.9806   1
   1   8  -6 144.601 19.9492   5
   0   8  -6 127.065 19.8743   5
   0   8  -6 114.388 14.3337   3
  -1   8  -6 72.7611 17.2511   5
  -1   8  -6 53.7467 13.9201   3
  -2   8  -6 1.29015 13.0447   3
  -2   8  -6 9.36456 14.4142   5
  -3   8  -6 -5.5004 14.1386   3
  -4   8  -6 12.9471 13.7963   3
  -5   8  -6 75.2440 19.6439   3
  -6   8  -6 24.6147 18.5379   3
  -7   8  -6 89.1369 20.2515   3
  -8   8  -6 8.16475 17.9609   3
  -9   8  -6 -13.063 20.6162   3
 -10   8  -6 -16.261 21.9937   3
 -11   8  -6 30.3216 25.8777   3
  -9  -7   6 -27.222 23.5524   4
  -9  -7   6 27.3399 24.1257   2
  -8  -7   6 -27.955 21.4505   4
  -8  -7   6 0.54943 20.9590   2
  -7  -7   6 10.1327 20.1198   4
  -7  -7   6 -18.363 18.7624   2
  -7  -7   6 -12.640 16.5317   1
  -6  -7   6 38.6821 17.5564   1
  -6  -7   6 24.2412 21.2755   4
  -6  -7   6 55.2869 21.2068   2
  -5  -7   6 81.7520 19.0818   1
   4   7  -6 56.7678 15.1463   5
  -4  -7   6 19.7383 15.5317   1
   3   7  -6 40.7260 14.9149   5
  -3  -7   6 73.7766 16.1431   1
   2   7  -6 120.152 17.3565   5
  -2  -7   6 131.292 17.8096   1
   1   7  -6 19.7485 12.8595   5
   0   7  -6 22.1895 10.7632   3
   0   7  -6 13.9992 14.4254   5
  -1   7  -6 224.634 17.3116   3
  -1   7  -6 213.624 18.6328   5
  -2   7  -6 131.361 15.9974   3
  -3   7  -6 286.249 21.3123   3
  -4   7  -6 110.239 18.6701   3
  -5   7  -6 -13.384 14.6898   3
  -6   7  -6 9.02201 17.0364   3
  -7   7  -6 -7.0332 16.7479   3
  -8   7  -6 6.04599 19.8654   3
  -9   7  -6 -20.010 20.2427   3
 -10   7  -6 9.40180 21.9740   3
 -11   7  -6 -15.341 23.4212   3
 -10  -6   6 -13.527 23.7921   4
 -10  -6   6 3.45577 23.1834   2
  -9  -6   6 15.1254 22.8265   2
  -9  -6   6 21.9608 24.7843   4
  -8  -6   6 34.5857 21.8909   2
  -8  -6   6 58.2360 23.5877   4
  -8  -6   6 20.3801 19.0510   1
  -7  -6   6 67.5718 19.1576   1
  -7  -6   6 21.5024 21.3287   4
  -7  -6   6 57.2608 21.8820   2
  -6  -6   6 88.6960 20.7891   2
  -6  -6   6 123.329 19.9947   1
  -6  -6   6 113.827 22.5191   4
  -5  -6   6 56.9724 17.3293   4
  -5  -6   6 17.7086 15.4130   1
   4   6  -6 -2.2107 11.7944   5
  -4  -6   6 18.6463 14.1798   1
   3   6  -6 70.7672 14.3674   5
  -3  -6   6 89.3375 16.5382   1
   2   6  -6 678.435 25.9519   5
  -2  -6   6 664.802 25.6565   1
   1   6  -6 612.252 18.8762   3
   1   6  -6 611.254 25.7509   5
   0   6  -6 98.3378 15.6015   5
   0   6  -6 100.149 12.2358   3
  -1   6  -6 170.247 17.1461   5
  -1   6  -6 150.059 14.6948   3
  -2   6  -6 -2.1076 11.1165   3
  -3   6  -6 -20.177 11.6099   3
  -4   6  -6 153.812 19.0844   3
  -5   6  -6 108.657 16.9195   3
  -6   6  -6 65.3670 18.0832   3
  -7   6  -6 0.72672 17.2781   3
  -8   6  -6 -10.378 15.5848   3
  -9   6  -6 7.82981 20.0497   3
 -10   6  -6 13.8404 22.9158   2
 -10   6  -6 21.9440 22.1965   3
 -11   6  -6 85.7987 27.2618   2
 -11   6  -6 20.8916 24.1990   3
 -10  -5   6 17.8010 23.2969   2
 -10  -5   6 61.9701 26.7986   4
  -9  -5   6 17.8803 19.8294   1
  -9  -5   6 -6.2302 21.4315   2
  -9  -5   6 20.0645 24.0321   4
  -8  -5   6 -5.0779 20.3046   4
  -8  -5   6 -6.5732 18.3497   1
  -8  -5   6 14.4703 20.2655   2
  -7  -5   6 -25.564 14.6163   1
  -7  -5   6 12.7565 17.7228   4
  -7  -5   6 -21.036 16.0825   2
  -6  -5   6 50.0774 19.1902   2
  -6  -5   6 48.4661 19.5130   4
  -6  -5   6 89.8686 18.2472   1
  -5  -5   6 100.958 18.2758   1
  -5  -5   6 164.861 20.6212   4
   4   5  -6 152.806 15.7840   5
  -4  -5   6 145.460 18.4360   1
  -4  -5   6 148.995 17.8950   4
   3   5  -6 289.698 18.8609   5
  -3  -5   6 337.290 21.2669   1
   2   5  -6 162.766 15.9121   5
  -2  -5   6 134.908 14.7492   1
   1   5  -6 10.2918 11.3534   5
   1   5  -6 9.84275 7.66329   3
   0   5  -6 11.8419 8.83650   3
   0   5  -6 20.0312 10.3673   5
  -1   5  -6 332.053 17.4614   3
  -2   5  -6 314.376 19.2699   3
  -3   5  -6 27.9078 11.0969   3
  -4   5  -6 65.8300 14.9705   3
  -5   5  -6 -4.9786 13.3741   3
  -6   5  -6 21.6247 12.5306   4
  -6   5  -6 22.8024 16.5719   3
  -7   5  -6 -9.0381 16.3630   3
  -7   5  -6 19.2253 13.8922   4
  -8   5  -6 110.402 22.3381   3
  -8   5  -6 171.063 24.1722   2
  -9   5  -6 36.7245 21.8476   2
  -9   5  -6 27.5359 19.5625   3
 -10   5  -6 23.7935 20.3190   2
 -10   5  -6 -7.9751 20.2660   3
 -11   5  -6 24.5580 25.7018   2
 -11   5  -6 26.3538 24.3758   3
 -12   5  -6 -16.226 24.1859   2
 -10  -4   6 -15.697 23.6788   4
 -10  -4   6 0.24529 22.9137   2
  -9  -4   6 -6.1609 20.9724   2
  -9  -4   6 25.3629 18.9766   1
  -9  -4   6 -7.3157 21.2506   4
  -8  -4   6 71.1043 22.7937   4
  -8  -4   6 93.3111 21.2350   1
  -8  -4   6 59.6592 21.7796   2
  -7  -4   6 7.66092 16.9846   1
  -7  -4   6 44.4842 18.0563   4
  -7  -4   6 69.2763 18.7938   2
  -6  -4   6 20.0331 17.3780   2
  -6  -4   6 71.6281 17.0353   1
  -6  -4   6 51.8991 17.1460   4
  -5  -4   6 4.69284 15.3139   2
  -5  -4   6 27.6908 16.0561   4
  -5  -4   6 5.81290 13.6397   1
   4   4  -6 12.2751 16.9497   5
  -4  -4   6 25.2139 13.0459   4
  -4  -4   6 6.95326 12.1126   1
   3   4  -6 111.423 13.4083   5
  -3  -4   6 109.864 15.6944   1
   2   4  -6 365.163 19.1223   5
   2   4  -6 368.984 13.3713   3
  -2  -4   6 431.693 21.9660   1
   1   4  -6 1041.87 24.9875   5
   1   4  -6 1031.07 19.6256   3
  -1  -4   6 1007.89 27.1102   1
   0   4  -6 228.854 13.4614   3
  -1   4  -6 9.55096 9.14670   3
  -2   4  -6 70.9725 12.3367   3
  -3   4  -6 21.0358 11.5456   3
  -4   4  -6 139.051 16.9947   3
  -5   4  -6 283.845 17.0061   4
  -5   4  -6 344.776 23.4980   3
  -6   4  -6 163.889 15.4943   4
  -6   4  -6 162.829 19.8754   2
  -6   4  -6 174.652 20.2898   3
  -7   4  -6 27.9430 17.1657   2
  -7   4  -6 9.22442 12.9700   4
  -7   4  -6 19.6020 16.3258   3
  -8   4  -6 1.60677 18.1227   2
  -8   4  -6 -7.3637 16.2927   3
  -8   4  -6 40.5413 15.6419   4
  -9   4  -6 16.2141 20.3432   2
  -9   4  -6 36.7498 19.0194   3
 -10   4  -6 25.1521 22.6753   2
 -10   4  -6 17.0845 20.0716   3
 -11   4  -6 20.1437 21.0424   3
 -11   4  -6 37.5948 25.2209   2
 -12   4  -6 29.8420 27.4984   2
 -10  -3   6 25.6130 20.7435   1
 -10  -3   6 69.2242 24.9674   2
 -10  -3   6 24.7765 24.2831   4
  -9  -3   6 28.0282 20.6110   2
  -9  -3   6 26.2986 20.5580   1
  -9  -3   6 -6.3590 21.0851   4
  -8  -3   6 19.1470 20.3573   4
  -8  -3   6 -9.6099 16.6789   1
  -8  -3   6 13.2252 19.7710   2
  -7  -3   6 155.423 23.3919   4
  -7  -3   6 179.302 22.6645   1
  -7  -3   6 199.791 24.4710   2
  -6  -3   6 177.761 21.9318   2
  -6  -3   6 137.055 21.2298   4
  -6  -3   6 155.371 19.6513   1
  -5  -3   6 299.702 21.2871   1
  -5  -3   6 244.245 20.8484   4
  -5  -3   6 285.581 22.7326   2
  -4  -3   6 390.190 23.4747   4
  -4  -3   6 384.134 23.2599   1
   3   3  -6 257.168 15.0269   5
   3   3  -6 228.760 12.4121   3
  -3  -3   6 222.159 17.7551   4
  -3  -3   6 244.422 17.9000   1
   2   3  -6 24.3644 7.40698   3
   2   3  -6 22.7187 8.94399   5
  -2  -3   6 45.8207 12.0694   1
   1   3  -6 180.453 11.9351   3
  -1  -3   6 174.928 13.9252   1
   0   3  -6 1.06477 7.89826   3
  -1   3  -6 358.627 15.8039   3
  -2   3  -6 439.868 18.6553   3
  -3   3  -6 179.144 15.6418   3
  -4   3  -6 159.004 15.4953   3
  -4   3  -6 164.796 11.2206   4
  -5   3  -6 2.47789 8.65753   4
  -5   3  -6 -21.463 11.1985   3
  -5   3  -6 2.82355 12.3987   2
  -6   3  -6 3.56522 12.2450   3
  -6   3  -6 7.83174 12.8013   2
  -6   3  -6 13.3217 11.0232   4
  -7   3  -6 6.81806 16.3421   2
  -7   3  -6 6.23226 13.6265   3
  -7   3  -6 1.93143 12.2405   4
  -8   3  -6 67.8351 16.2570   4
  -8   3  -6 68.5957 16.1093   1
  -8   3  -6 35.1224 16.4158   3
  -8   3  -6 81.8998 19.4626   2
  -9   3  -6 35.4946 18.1711   3
  -9   3  -6 14.9480 18.3529   2
  -9   3  -6 36.3610 26.4101   4
  -9   3  -6 19.7250 16.9884   1
 -10   3  -6 13.3466 23.3026   2
 -10   3  -6 39.8591 19.9573   3
 -11   3  -6 10.7009 23.9428   2
 -12   3  -6 -13.285 25.2650   2
 -11  -2   6 12.7363 24.3117   2
 -11  -2   6 22.2640 25.4673   4
 -10  -2   6 -8.0251 22.5859   4
 -10  -2   6 -40.352 21.5009   2
 -10  -2   6 -4.5564 19.2278   1
  -9  -2   6 -3.3830 20.2255   2
  -9  -2   6 89.8450 24.8888   4
  -9  -2   6 57.7882 21.0114   1
  -8  -2   6 29.6165 20.0833   4
  -8  -2   6 6.61052 16.4604   1
  -8  -2   6 5.52056 17.8111   2
  -7  -2   6 131.391 20.5300   1
  -7  -2   6 168.838 23.1825   2
  -7  -2   6 144.172 22.2284   4
  -6  -2   6 359.151 26.4175   2
  -6  -2   6 279.027 22.8658   4
  -6  -2   6 267.651 22.6535   1
  -5  -2   6 13.3036 13.9248   2
  -5  -2   6 2.20840 14.4157   4
  -5  -2   6 29.4699 14.0872   1
  -4  -2   6 56.1608 13.6921   4
  -4  -2   6 61.3292 14.1795   1
   3   2  -6 408.677 13.7722   3
  -3  -2   6 415.396 19.6961   4
  -3  -2   6 456.438 22.1965   1
   2   2  -6 184.572 12.0017   3
  -2  -2   6 222.450 16.0409   1
  -2  -2   6 217.679 14.7816   4
   1   2  -6 228.910 13.1030   3
  -1  -2   6 213.052 15.2461   1
   0   2  -6 38.6032 9.08044   3
  -1   2  -6 503.176 17.9941   3
  -2   2  -6 53.7728 10.7302   3
  -3   2  -6 24.3344 9.58817   3
  -4   2  -6 374.034 13.5268   4
  -4   2  -6 365.503 20.2793   3
  -5   2  -6 266.041 19.3325   2
  -5   2  -6 219.831 14.4336   4
  -5   2  -6 253.681 18.9984   3
  -6   2  -6 112.290 13.4165   4
  -6   2  -6 113.060 17.0067   3
  -6   2  -6 95.6589 15.6247   2
  -7   2  -6 18.3113 12.3018   1
  -7   2  -6 7.12085 11.8129   4
  -7   2  -6 -10.365 13.6324   2
  -7   2  -6 -2.4112 13.5611   3
  -8   2  -6 30.0113 19.1210   2
  -8   2  -6 32.2805 14.3609   4
  -8   2  -6 26.3419 15.7806   3
  -8   2  -6 36.4701 14.8229   1
  -9   2  -6 5.90456 19.9322   2
  -9   2  -6 32.4245 17.4549   3
  -9   2  -6 30.1388 16.1548   1
  -9   2  -6 9.35286 14.6022   4
 -10   2  -6 12.5203 22.6104   2
 -10   2  -6 3.48214 17.8820   3
 -11   2  -6 23.5458 24.3305   2
 -12   2  -6 5.50879 25.2656   2
 -11  -1   6 -7.2719 22.0050   1
 -11  -1   6 13.7049 23.0152   4
 -11  -1   6 63.1637 26.8673   2
 -10  -1   6 -21.007 20.3393   2
 -10  -1   6 23.0723 21.2726   1
 -10  -1   6 -6.0586 22.7063   4
  -9  -1   6 7.59677 20.4008   2
  -9  -1   6 5.03858 18.2746   4
  -9  -1   6 -16.383 17.5165   1
  -8  -1   6 20.9852 17.8299   1
  -8  -1   6 51.8130 20.4685   4
  -8  -1   6 10.5291 16.3359   2
  -7  -1   6 107.689 20.9908   2
  -7  -1   6 94.4165 20.4992   4
  -7  -1   6 125.135 20.4245   1
  -6  -1   6 16.8766 14.3911   4
  -6  -1   6 42.3210 16.6681   2
  -6  -1   6 62.8839 17.6750   1
  -5  -1   6 243.096 20.7451   1
  -5  -1   6 201.840 19.1086   2
  -5  -1   6 255.246 21.2930   4
  -4  -1   6 202.219 17.4994   4
  -4  -1   6 232.931 18.4623   1
  -4  -1   6 219.694 17.9221   2
  -3  -1   6 50.5124 12.0471   1
  -3  -1   6 65.5200 11.8594   4
   2   1  -6 7.78357 7.53631   3
  -2  -1   6 0.82456 8.42297   4
  -2  -1   6 -3.7117 9.93166   1
   1   1  -6 82.1090 9.56045   3
  -1  -1   6 73.3206 8.91154   4
  -1  -1   6 59.0893 10.5225   1
   0   1  -6 992.573 20.4959   3
   0  -1   6 1037.84 22.5480   1
  -1   1  -6 -10.023 8.85515   3
  -2   1  -6 588.296 20.0210   3
  -3   1  -6 64.6679 10.4536   3
  -4   1  -6 12.3690 9.58463   2
  -4   1  -6 18.0838 10.3714   3
  -5   1  -6 10.4635 10.9593   2
  -5   1  -6 4.14648 10.9821   3
  -5   1  -6 -1.4369 7.81446   4
  -6   1  -6 -7.7916 12.0737   2
  -6   1  -6 8.02997 9.99115   4
  -6   1  -6 7.87615 12.4632   3
  -7   1  -6 55.2538 13.2656   4
  -7   1  -6 32.4840 14.8559   2
  -7   1  -6 30.4478 12.1904   1
  -7   1  -6 33.7589 14.2207   3
  -8   1  -6 18.2272 13.0742   4
  -8   1  -6 8.41296 12.9715   1
  -8   1  -6 -1.8716 13.8426   3
  -8   1  -6 9.09592 15.5601   2
  -9   1  -6 142.714 20.0571   3
  -9   1  -6 106.168 18.9891   4
  -9   1  -6 153.911 25.2187   2
 -10   1  -6 19.9132 22.0185   2
 -10   1  -6 63.9883 28.7734   4
 -11   1  -6 -18.669 22.1081   2
 -12   1  -6 15.7677 22.7542   2
 -11   0   6 -0.3915 22.4136   2
 -11   0   6 30.6926 23.0166   1
 -11   0   6 43.5821 25.8525   4
 -10   0   6 30.5264 23.6120   4
 -10   0   6 11.7750 20.7366   1
 -10   0   6 11.9933 22.5176   2
  -9   0   6 61.7841 20.8615   4
  -9   0   6 55.8866 19.7720   2
  -9   0   6 107.592 22.8847   1
  -8   0   6 156.739 24.6461   4
  -8   0   6 117.588 21.3245   1
  -8   0   6 118.241 22.1267   2
  -7   0   6 198.085 22.0625   4
  -7   0   6 234.792 23.0539   2
  -7   0   6 160.879 21.7842   1
  -6   0   6 51.5158 14.6410   2
  -6   0   6 72.4047 17.9387   4
  -6   0   6 48.6687 16.6641   1
  -5   0   6 15.1624 12.5977   4
  -5   0   6 -4.4193 12.1692   2
  -5   0   6 34.1296 14.2801   1
  -4   0   6 28.3317 12.8166   4
  -4   0   6 19.0005 11.1378   1
  -4   0   6 17.8407 10.8913   2
  -3   0   6 689.237 22.3414   4
  -3   0   6 685.551 23.5418   1
  -2   0   6 795.619 20.4906   4
  -2   0   6 745.158 20.9345   1
   1   0  -6 306.329 14.3895   3
  -1   0   6 333.603 16.6669   1
  -1   0   6 331.918 13.1767   4
   0   0  -6 807.949 19.3744   3
   0   0   6 822.356 19.7426   1
  -1   0  -6 209.950 13.3683   3
  -2   0  -6 106.400 12.0728   3
  -3   0  -6 917.678 22.6111   3
  -3   0  -6 982.378 23.2948   2
  -4   0  -6 63.6557 11.4373   3
  -4   0  -6 71.9788 11.2041   2
  -5   0  -6 8.97931 10.6992   2
  -5   0  -6 36.1320 11.5896   3
  -5   0  -6 10.3461 8.10438   4
  -6   0  -6 120.073 13.1156   4
  -6   0  -6 99.1649 12.1426   1
  -6   0  -6 120.679 14.9405   3
  -6   0  -6 110.976 15.6792   2
  -7   0  -6 53.7084 15.8654   2
  -7   0  -6 56.7000 13.1657   4
  -7   0  -6 61.4736 12.2364   1
  -7   0  -6 50.3337 14.3936   3
  -8   0  -6 28.7230 13.6351   4
  -8   0  -6 -6.0127 14.7697   2
  -8   0  -6 10.0038 13.1457   3
  -9   0  -6 11.8167 14.3710   3
  -9   0  -6 -0.8276 14.8431   4
  -9   0  -6 56.8964 20.7665   2
 -10   0  -6 17.9970 16.0856   4
 -10   0  -6 24.5176 21.4339   2
 -11   0  -6 10.4357 23.3833   2
 -12   0  -6 -6.7918 19.7050   2
 -11   1   6 41.5807 23.4794   1
 -11   1   6 -6.9282 22.2155   2
 -11   1   6 29.9154 22.5831   4
 -10   1   6 18.8930 20.9515   2
 -10   1   6 29.4374 21.4967   1
 -10   1   6 -11.873 21.9468   4
  -9   1   6 29.1003 20.1439   1
  -9   1   6 9.14701 20.0412   2
  -9   1   6 5.60149 20.2478   4
  -8   1   6 5.08543 16.8477   1
  -8   1   6 -11.014 18.7807   4
  -8   1   6 -27.844 16.6404   2
  -7   1   6 7.55816 15.5610   4
  -7   1   6 18.0113 15.5524   2
  -7   1   6 6.11973 14.8869   1
  -6   1   6 115.974 17.2587   2
  -6   1   6 124.603 17.4342   1
  -6   1   6 101.017 17.4855   4
  -5   1   6 195.557 18.0114   2
  -5   1   6 187.988 19.6436   4
  -5   1   6 273.991 20.9695   1
  -4   1   6 144.427 16.4716   1
  -4   1   6 159.858 16.0750   4
  -4   1   6 159.853 14.1743   2
  -3   1   6 128.037 12.1294   2
  -3   1   6 134.324 13.8819   4
  -3   1   6 117.984 12.7853   1
  -2   1   6 384.588 18.2918   1
  -2   1   6 427.378 16.8673   4
  -1   1   6 261.769 15.0841   1
  -1   1   6 265.760 13.3599   4
   0  -1  -6 1059.19 21.9892   3
   0   1   6 1043.88 19.5652   1
  -1  -1  -6 697.637 19.3892   3
   1   1   6 704.189 15.7043   1
  -2  -1  -6 16.8895 8.91908   3
  -3  -1  -6 24.3437 9.84761   3
  -3  -1  -6 25.0138 8.27498   2
  -4  -1  -6 129.829 13.4999   2
  -4  -1  -6 102.108 11.9314   3
  -4  -1  -6 109.178 9.26818   4
  -5  -1  -6 169.198 15.0937   2
  -5  -1  -6 216.549 16.3096   3
  -5  -1  -6 208.076 14.0386   4
  -6  -1  -6 -0.6107 8.47974   1
  -6  -1  -6 -3.2709 9.93131   4
  -6  -1  -6 22.6921 13.3060   2
  -6  -1  -6 8.28170 10.6024   3
  -7  -1  -6 265.031 18.6458   1
  -7  -1  -6 336.047 24.9516   2
  -7  -1  -6 270.150 19.9767   3
  -7  -1  -6 267.668 19.8310   4
  -8  -1  -6 48.6083 18.3043   2
  -8  -1  -6 68.5356 15.5447   4
  -8  -1  -6 42.6713 14.1448   3
  -9  -1  -6 93.2659 21.6148   2
  -9  -1  -6 87.4086 17.4836   4
 -10  -1  -6 12.5531 18.1941   2
 -10  -1  -6 45.2240 17.3721   4
 -11  -1  -6 23.5010 23.3080   2
 -12  -1  -6 7.84068 25.0224   2
 -11   2   6 2.10829 24.5036   4
 -11   2   6 65.6852 24.8807   1
 -11   2   6 2.62537 22.8643   2
 -10   2   6 3.23477 20.2285   1
 -10   2   6 26.6623 20.9034   2
 -10   2   6 3.74609 23.1911   4
  -9   2   6 15.2203 20.0431   2
  -9   2   6 10.9722 19.5101   1
  -9   2   6 -15.228 19.8588   4
  -8   2   6 198.234 26.9399   4
  -8   2   6 179.708 24.1399   1
  -8   2   6 205.759 24.9579   2
  -7   2   6 149.529 20.2488   2
  -7   2   6 214.598 22.5085   1
  -7   2   6 177.641 23.1396   4
  -6   2   6 -0.8529 15.9075   4
  -6   2   6 -10.558 12.8041   2
  -6   2   6 29.8075 15.4599   1
  -5   2   6 -4.7589 14.2031   4
  -5   2   6 32.2172 13.9556   1
  -5   2   6 6.53602 11.4323   2
  -4   2   6 151.212 16.6691   4
  -4   2   6 117.446 13.0195   2
  -4   2   6 119.514 14.1113   1
  -3   2   6 732.451 22.9398   1
  -3   2   6 718.780 20.6591   2
  -3   2   6 727.624 23.2430   4
  -2   2   6 413.940 18.5648   1
  -2   2   6 394.132 17.0668   4
  -1   2   6 552.234 16.4349   1
  -1   2   6 572.009 16.8641   4
   0   2   6 10.4372 7.46529   1
  -1  -2  -6 34.1688 9.35131   3
   1   2   6 52.2790 7.37099   1
  -2  -2  -6 310.112 13.6929   2
  -2  -2  -6 312.613 14.7766   3
   2   2   6 328.689 9.54786   1
  -3  -2  -6 216.095 14.4571   2
  -3  -2  -6 228.639 15.4818   3
  -4  -2  -6 14.7139 9.71025   2
  -4  -2  -6 29.8761 8.11136   4
  -4  -2  -6 31.2736 9.61415   3
  -5  -2  -6 401.595 21.9409   2
  -5  -2  -6 409.352 18.0876   3
  -5  -2  -6 401.586 17.2780   4
  -6  -2  -6 362.729 15.2035   1
  -6  -2  -6 359.888 19.0335   3
  -6  -2  -6 402.298 24.8825   2
  -6  -2  -6 352.181 19.7413   4
  -7  -2  -6 12.9894 12.2506   4
  -7  -2  -6 17.9933 15.6081   2
  -7  -2  -6 10.2463 11.7880   3
  -8  -2  -6 21.9108 15.5802   2
  -8  -2  -6 -8.3222 12.8535   4
  -9  -2  -6 0.91808 15.1208   4
  -9  -2  -6 -37.257 17.7744   2
 -10  -2  -6 7.79427 16.6816   4
 -10  -2  -6 11.1130 18.6353   2
 -11  -2  -6 39.2015 19.1883   4
 -11  -2  -6 14.5663 22.4664   2
 -12  -2  -6 -19.169 22.6866   2
 -11   3   6 15.5412 23.4593   4
 -11   3   6 38.3312 23.9770   1
 -11   3   6 -12.979 22.5940   2
 -10   3   6 4.63986 20.9073   1
 -10   3   6 34.7875 24.8724   4
 -10   3   6 29.7124 22.1158   2
  -9   3   6 18.5922 21.6992   4
  -9   3   6 3.46159 19.9641   1
  -9   3   6 1.40515 18.3486   2
  -8   3   6 -2.2174 17.8597   1
  -8   3   6 -11.137 15.7605   2
  -8   3   6 4.58808 20.4890   4
  -7   3   6 17.3364 17.2328   1
  -7   3   6 40.0912 16.6611   2
  -7   3   6 6.17591 18.6569   4
  -6   3   6 252.847 21.0504   2
  -6   3   6 243.770 22.0698   4
  -6   3   6 239.361 21.8933   1
  -5   3   6 384.890 23.8990   4
  -5   3   6 365.438 21.4663   2
  -5   3   6 376.990 22.5269   1
  -4   3   6 803.644 27.5381   4
  -4   3   6 808.939 23.8326   2
  -4   3   6 829.957 26.2525   1
  -3   3   6 449.784 19.3909   4
  -3   3   6 482.444 17.1504   2
  -3   3   6 462.568 21.0956   1
  -2   3   6 188.895 14.2531   1
  -2   3   6 213.457 11.5697   2
  -2   3   6 217.205 16.0817   4
  -1   3   6 97.5857 10.9975   4
  -1   3   6 109.534 11.1421   1
   0   3   6 140.809 10.3726   1
   1   3   6 -5.6778 5.63776   1
  -2  -3  -6 357.299 15.8343   2
  -2  -3  -6 351.078 16.2695   3
  -3  -3  -6 107.922 11.1743   3
  -3  -3  -6 107.909 10.3060   2
  -4  -3  -6 5.83485 8.43118   3
  -4  -3  -6 12.0907 8.78948   2
  -5  -3  -6 43.3912 10.5168   3
  -5  -3  -6 49.5476 6.46054   1
  -5  -3  -6 51.2007 12.1449   2
  -6  -3  -6 3.81939 9.77358   3
  -6  -3  -6 6.76093 12.5532   2
  -6  -3  -6 -15.354 9.91069   4
  -7  -3  -6 235.663 19.6293   4
  -7  -3  -6 268.667 19.0295   3
  -7  -3  -6 247.299 22.0558   2
  -8  -3  -6 119.313 18.2281   4
  -8  -3  -6 123.894 18.7986   2
  -9  -3  -6 62.9745 21.0102   2
  -9  -3  -6 66.8901 17.8729   4
 -10  -3  -6 -0.1267 17.1872   4
 -10  -3  -6 21.4668 20.8769   2
 -11  -3  -6 7.71399 22.9397   2
 -11  -3  -6 21.0618 18.9943   4
 -12  -3  -6 -2.0706 23.5234   2
 -11   4   6 14.4646 29.9732   1
 -11   4   6 -25.933 21.7420   2
 -11   4   6 3.35007 24.3432   4
 -10   4   6 -7.0404 21.2198   2
 -10   4   6 30.0535 23.4629   4
 -10   4   6 20.2176 22.1807   1
  -9   4   6 89.0507 25.2505   4
  -9   4   6 15.0672 19.8428   2
  -9   4   6 31.3906 20.1264   1
  -8   4   6 150.269 23.4590   4
  -8   4   6 159.843 24.1705   1
  -8   4   6 174.788 23.7060   2
  -7   4   6 40.3962 16.2879   2
  -7   4   6 54.3527 18.5188   1
  -7   4   6 79.3237 21.0425   4
  -6   4   6 8.57344 14.8519   1
  -6   4   6 28.4153 17.5510   4
  -6   4   6 8.25837 13.0901   2
  -5   4   6 -4.7500 14.7788   4
  -5   4   6 19.5182 14.0689   1
  -5   4   6 15.9955 11.0057   2
  -4   4   6 222.228 16.7693   2
  -4   4   6 225.276 17.3395   1
  -4   4   6 194.492 17.5935   4
  -3   4   6 129.177 14.5533   1
  -3   4   6 105.552 9.95954   2
  -3   4   6 118.018 15.0392   4
  -2   4   6 23.1551 6.38397   2
  -2   4   6 7.17992 9.61181   1
  -2   4   6 25.4875 11.0778   4
  -1   4   6 403.793 17.0029   4
  -1   4   6 394.649 16.1742   1
   0   4   6 896.105 17.9124   1
   1   4   6 12.7945 5.43909   1
  -2  -4  -6 214.453 14.9053   3
  -3  -4  -6 566.240 17.1133   2
  -3  -4  -6 600.258 18.5667   3
  -4  -4  -6 382.604 17.2679   2
  -4  -4  -6 347.636 16.9259   3
  -5  -4  -6 248.158 18.6600   2
  -5  -4  -6 262.710 16.4881   3
  -6  -4  -6 195.361 17.0961   4
  -6  -4  -6 197.758 14.7029   3
  -6  -4  -6 159.505 17.0149   2
  -7  -4  -6 10.7282 13.2712   4
  -7  -4  -6 26.1873 15.0631   2
  -8  -4  -6 2.71375 15.9372   2
  -8  -4  -6 10.5990 14.6362   4
  -9  -4  -6 8.40671 15.9300   4
  -9  -4  -6 9.81814 18.9028   2
 -10  -4  -6 10.4227 21.1126   2
 -10  -4  -6 31.2244 18.6220   4
 -11  -4  -6 71.9271 22.2527   4
 -11  -4  -6 -12.179 22.3008   2
 -12  -4  -6 3.22102 25.2101   2
 -11   5   6 33.2590 26.4799   4
 -10   5   6 24.7576 24.7962   4
 -10   5   6 -20.464 20.8374   1
  -9   5   6 38.8232 21.3394   1
  -9   5   6 -18.472 22.9826   4
  -9   5   6 23.7294 19.3945   2
  -8   5   6 -4.3633 16.4677   2
  -8   5   6 5.07363 18.6277   1
  -8   5   6 -11.965 21.0284   4
  -7   5   6 154.261 24.2980   4
  -7   5   6 155.887 19.9230   2
  -7   5   6 122.781 21.4489   1
  -6   5   6 269.274 20.7997   2
  -6   5   6 239.110 25.0398   4
  -6   5   6 244.442 23.2014   1
  -5   5   6 215.118 16.5019   2
  -5   5   6 213.255 22.0389   4
  -5   5   6 226.501 21.6933   1
  -4   5   6 194.538 17.1937   1
  -4   5   6 184.546 19.4067   4
  -4   5   6 188.852 13.6464   2
  -3   5   6 85.3596 9.22195   2
  -3   5   6 83.0318 14.6476   4
  -3   5   6 84.5510 13.6570   1
  -2   5   6 8.03530 11.2071   4
  -2   5   6 43.1381 10.9564   1
  -1   5   6 33.9900 9.23174   1
   0   5   6 0.87507 6.81711   1
   1   5   6 130.317 7.95592   1
  -3  -5  -6 161.442 12.4072   3
  -3  -5  -6 142.816 10.5729   2
  -4  -5  -6 0.13812 8.61999   2
  -4  -5  -6 2.77280 8.20359   3
  -5  -5  -6 65.5683 12.1817   2
  -5  -5  -6 64.5966 10.3380   3
  -6  -5  -6 89.5990 14.6782   3
  -6  -5  -6 95.5620 15.4798   2
  -7  -5  -6 218.242 21.2055   4
  -7  -5  -6 209.628 20.7378   2
  -8  -5  -6 82.6573 18.3741   4
  -8  -5  -6 51.8307 18.4054   2
  -9  -5  -6 31.5856 18.4512   4
  -9  -5  -6 19.0710 18.5392   2
 -10  -5  -6 72.5208 22.3483   2
 -10  -5  -6 67.1181 20.6879   4
 -11  -5  -6 29.0559 21.1449   2
 -11  -5  -6 -1.0786 19.3851   4
 -12  -5  -6 16.6084 25.5373   2
 -12  -5  -6 9.11591 22.5431   4
 -10   6   6 46.0033 23.4012   1
 -10   6   6 34.9962 26.1430   4
  -9   6   6 67.3172 23.2530   1
  -9   6   6 105.798 27.7165   4
  -8   6   6 85.2469 21.5246   1
  -8   6   6 80.5162 24.1736   4
  -7   6   6 71.7114 22.6484   2
  -7   6   6 66.2596 21.8421   4
  -7   6   6 52.1653 19.9313   1
  -6   6   6 11.3268 13.5561   2
  -6   6   6 46.8012 19.8590   4
  -6   6   6 11.2797 16.5794   1
  -5   6   6 61.3387 17.2226   1
  -5   6   6 40.1774 12.3878   2
  -5   6   6 32.7913 18.2194   4
  -4   6   6 18.6133 14.3066   1
  -4   6   6 15.5499 14.7672   4
  -4   6   6 32.8092 10.1378   2
  -3   6   6 62.9439 9.22920   5
  -3   6   6 39.5516 12.9281   4
  -3   6   6 80.2080 9.24115   2
  -3   6   6 63.5828 13.9157   1
  -2   6   6 206.673 14.2014   5
  -2   6   6 189.435 14.7394   1
  -1   6   6 65.8051 10.2434   1
   0   6   6 21.5249 7.65401   1
   1   6   6 394.400 12.2761   1
  -3  -6  -6 140.240 10.6430   2
  -3  -6  -6 148.420 12.5816   3
  -4  -6  -6 135.079 12.5931   2
  -4  -6  -6 131.117 12.0758   3
  -5  -6  -6 130.789 14.1818   2
  -5  -6  -6 143.230 12.8128   3
  -6  -6  -6 93.2427 15.0417   2
  -7  -6  -6 46.4975 15.4194   2
  -8  -6  -6 16.7624 16.5975   2
  -8  -6  -6 51.2320 18.1941   4
  -9  -6  -6 -4.5306 16.4788   4
  -9  -6  -6 5.90284 17.6512   2
 -10  -6  -6 16.0957 20.9840   2
 -10  -6  -6 15.0687 18.5301   4
 -11  -6  -6 56.4038 22.8330   4
 -11  -6  -6 22.0904 23.1506   2
 -12  -6  -6 -7.8021 25.6344   2
 -12  -6  -6 -23.839 20.4332   4
 -10   7   6 -13.215 18.9263   1
 -10   7   6 5.79084 23.5204   4
  -9   7   6 -16.205 22.9679   4
  -9   7   6 58.5230 22.5473   1
  -8   7   6 -34.494 19.6117   4
  -8   7   6 16.0794 17.4584   1
  -7   7   6 108.132 21.7351   1
  -7   7   6 61.7850 22.4573   4
  -6   7   6 65.2113 18.8036   1
  -6   7   6 24.8641 19.2754   4
  -5   7   6 160.754 20.4431   4
  -5   7   6 159.336 20.6059   1
  -4   7   6 172.964 19.0728   4
  -4   7   6 216.510 20.1761   1
  -3   7   6 139.460 18.3837   4
  -3   7   6 122.958 15.7110   1
  -3   7   6 130.169 12.1299   5
  -2   7   6 12.5386 9.44085   5
  -2   7   6 10.0556 11.1994   1
  -1   7   6 249.645 15.6873   1
  -1   7   6 239.447 16.0340   5
   0   7   6 245.454 14.1171   1
   1   7   6 140.806 9.74976   1
  -3  -7  -6 147.593 12.9425   3
  -3  -7  -6 151.324 11.0886   2
  -4  -7  -6 93.4081 11.2034   3
  -4  -7  -6 106.626 12.1414   2
  -5  -7  -6 -0.6736 10.9894   2
  -6  -7  -6 275.515 20.6506   2
  -7  -7  -6 186.357 19.5943   2
  -8  -7  -6 90.4154 20.1907   4
  -8  -7  -6 130.256 21.1037   2
  -9  -7  -6 34.8141 19.4283   4
  -9  -7  -6 6.06812 17.8334   2
 -10  -7  -6 35.2022 21.0097   4
 -10  -7  -6 29.5027 22.1321   2
 -11  -7  -6 44.1839 23.8587   2
 -11  -7  -6 31.4768 22.2559   4
 -10   8   6 8.88131 26.3967   4
 -10   8   6 11.4096 23.6415   1
  -9   8   6 68.9345 26.5424   4
  -9   8   6 24.9629 23.0619   1
  -8   8   6 26.3042 18.6616   1
  -8   8   6 18.1067 23.6093   4
  -7   8   6 -7.1132 21.0595   4
  -7   8   6 16.3382 16.9557   1
  -6   8   6 2.59160 19.4500   4
  -6   8   6 28.9700 18.0825   1
  -5   8   6 26.0340 16.7162   1
  -5   8   6 7.07056 15.4636   4
  -4   8   6 25.0997 15.1171   1
  -4   8   6 43.8764 16.1288   4
  -3   8   6 56.6910 11.5786   5
  -3   8   6 65.4603 14.5966   1
  -2   8   6 248.156 18.2321   1
  -2   8   6 239.787 16.4124   5
  -1   8   6 16.2652 10.7275   5
  -1   8   6 33.0909 10.4620   1
   0   8   6 78.2522 13.0206   5
   0   8   6 79.8247 10.7708   1
  -4  -8  -6 19.2484 9.42716   3
  -4  -8  -6 6.40138 9.75950   2
  -5  -8  -6 -3.9297 10.5258   2
  -6  -8  -6 101.551 16.9057   2
  -7  -8  -6 63.0495 17.3104   2
  -8  -8  -6 5.61514 16.5703   2
  -9  -8  -6 -2.2104 17.4706   2
  -9  -8  -6 3.08652 19.5836   4
 -10  -8  -6 -11.980 19.6001   2
 -10  -8  -6 9.11530 19.7642   4
 -11  -8  -6 48.3700 24.6665   2
 -11  -8  -6 15.4291 22.2962   4
 -10   9   6 -23.147 23.0010   4
  -9   9   6 -2.2856 22.4797   1
  -9   9   6 -16.494 22.6625   4
  -8   9   6 3.24567 22.9010   4
  -8   9   6 48.1500 20.4891   1
  -7   9   6 30.6571 21.6489   4
  -7   9   6 12.8497 20.5349   1
  -6   9   6 62.2261 22.3888   4
  -6   9   6 37.8309 17.9908   1
  -5   9   6 22.3042 18.0142   1
  -4   9   6 14.6806 16.2207   1
  -3   9   6 -16.508 12.7780   1
  -2   9   6 14.1891 11.3216   5
  -2   9   6 -4.1261 11.8010   1
  -1   9   6 -10.542 10.1469   1
  -1   9   6 6.42472 11.6215   5
   0   9   6 52.1167 13.9674   5
   0   9   6 51.0042 10.7104   1
   1   9   6 309.549 22.5092   5
   2   9   6 82.3661 14.8894   5
  -6  -9  -6 110.202 17.1548   2
  -7  -9  -6 78.7995 17.8755   2
  -8  -9  -6 21.6749 17.2999   2
  -9  -9  -6 1.55631 20.1260   4
  -9  -9  -6 22.5402 19.3474   2
   9   9   6 -9.4563 18.1446   5
 -10  -9  -6 8.21648 21.1011   4
 -10  -9  -6 4.40773 21.4924   2
 -11  -9  -6 -25.683 24.7405   2
 -11  -9  -6 0.27542 22.2356   4
  -9  10   6 -10.497 23.0607   1
  -9  10   6 -21.772 23.5933   4
  -8  10   6 -15.419 24.7130   4
  -8  10   6 38.0066 21.2167   1
  -7  10   6 35.6731 20.0910   1
  -6  10   6 -15.427 18.6615   1
  -5  10   6 0.79102 18.2821   1
  -4  10   6 106.304 20.3465   1
  -3  10   6 49.3983 15.6654   1
  -3  10   6 36.9709 13.3039   5
  -2  10   6 88.2219 15.4239   1
  -2  10   6 99.2430 15.5069   5
  -1  10   6 61.3760 14.7965   5
  -1  10   6 87.0968 13.7872   1
   0  10   6 -0.5575 13.5835   5
   1  10   6 52.9995 16.0526   5
   2  10   6 8.09967 14.4540   5
   3  10   6 117.482 19.0570   5
   4  10   6 27.8096 14.7001   5
   5  10   6 83.6672 18.9150   5
   6  10   6 68.7543 19.3475   5
   7  10   6 5.89595 17.6734   5
   8  10   6 14.2692 19.1469   5
  -9 -10  -6 -15.169 19.7816   4
   9  10   6 -10.111 18.4991   5
 -10 -10  -6 -23.951 20.2331   4
  -8  11   6 -0.5256 22.1646   1
  -7  11   6 14.0629 22.4829   1
  -6  11   6 81.1006 22.7752   1
  -5  11   6 16.3922 18.0706   1
  -4  11   6 -3.1124 17.0552   1
  -3  11   6 8.83265 15.2448   1
  -3  11   6 18.0627 14.2141   5
  -2  11   6 3.75500 13.2917   1
  -2  11   6 4.22660 13.2754   5
  -1  11   6 17.0678 14.4392   5
   0  11   6 1.14636 14.7260   5
   1  11   6 33.4942 14.2432   5
   2  11   6 2.38746 15.8501   5
   3  11   6 74.2510 18.9340   5
   4  11   6 6.98382 16.8416   5
   5  11   6 -24.369 16.9963   5
   6  11   6 33.3652 19.7549   5
   7  11   6 86.6346 22.0578   5
   8  11   6 11.0253 19.6163   5
   9  11   6 13.6049 20.7790   5
 -10 -11  -6 6.00160 22.7322   4
  -8  12   6 -13.411 23.1294   1
  -7  12   6 1.44221 22.2451   1
  -6  12   6 -7.7470 19.8728   1
  -5  12   6 -13.037 17.9825   1
  -4  12   6 14.2682 16.7137   1
  -3  12   6 91.9982 17.5420   5
  -3  12   6 104.120 18.8861   1
  -2  12   6 36.4032 15.6397   5
  -1  12   6 22.9344 15.2597   5
   0  12   6 -2.3879 15.3106   5
   1  12   6 17.4170 16.3081   5
   2  12   6 22.1517 17.2238   5
   3  12   6 18.1117 17.2351   5
   4  12   6 90.3410 18.8809   5
   5  12   6 97.0988 22.5930   5
   6  12   6 -17.019 18.5485   5
   7  12   6 -10.382 18.5782   5
   8  12   6 2.82972 19.6380   5
   9  12   6 -3.7630 20.9807   5
  -7  13   6 15.8011 22.6800   1
  -6  13   6 55.2533 23.0067   1
  -5  13   6 1.01884 19.3367   1
  -4  13   6 44.3678 19.1093   1
  -3  13   6 4.83070 15.7761   5
  -2  13   6 74.5185 18.1581   5
  -1  13   6 19.7575 15.9427   5
   0  13   6 39.5720 17.9305   5
   1  13   6 89.9050 20.2602   5
   2  13   6 42.8130 17.3243   5
   3  13   6 20.8889 18.2599   5
   4  13   6 20.0435 18.9592   5
   5  13   6 -35.456 18.3113   5
   6  13   6 4.51809 19.5195   5
   7  13   6 9.35585 20.6553   5
   8  13   6 13.9033 21.6179   5
   9  13   6 -2.9816 22.4592   5
  -7  14   6 -0.5901 22.3041   1
  -6  14   6 27.9246 22.4857   1
  -3  14   6 10.0014 20.9443   5
  -2  14   6 13.5484 17.2038   5
  -1  14   6 32.7092 17.4584   5
   0  14   6 24.0526 19.2871   5
   1  14   6 2.03200 17.8919   5
   2  14   6 11.0132 19.9520   5
   3  14   6 13.0245 19.5678   5
   4  14   6 65.9312 21.8331   5
   5  14   6 12.7368 20.5157   5
   6  14   6 -3.4814 21.0921   5
   7  14   6 -5.1418 20.1508   5
   8  14   6 44.0899 24.6117   5
  -2  15   6 1.43981 18.8239   5
  -1  15   6 -9.0498 16.9499   5
   0  15   6 33.3144 19.6952   5
   1  15   6 45.6468 18.7230   5
   2  15   6 -2.5208 19.0860   5
   3  15   6 -3.8214 20.2133   5
   4  15   6 2.56973 21.5227   5
   5  15   6 -30.575 17.4007   5
   6  15   6 -7.6132 22.4865   5
   7  15   6 -5.4897 21.6746   5
  -2  16   6 7.05174 19.1685   5
  -1  16   6 8.45726 19.8581   5
   0  16   6 5.12771 17.6077   5
   1  16   6 13.6249 22.1241   5
   2  16   6 -47.350 16.0467   5
   3  16   6 21.6325 21.6339   5
   4  16   6 -4.0156 21.3753   5
   5  16   6 0.75376 22.2511   5
   6  16   6 14.1046 24.3172   5
  -2  17   6 4.32950 20.0225   5
  -1  17   6 7.47566 21.5526   5
   0  17   6 5.77480 20.2703   5
   1  17   6 19.7979 22.1668   5
   2  17   6 7.57740 22.6107   5
   3  17   6 -6.0318 21.8819   5
   4  17   6 10.1756 21.0986   5
   5  17   6 57.1956 25.3884   5
  -2  18   6 10.4924 21.6820   5
  -1  18   6 -28.040 21.1340   5
   0  18   6 24.0577 22.9724   5
   1  18   6 -16.000 21.3719   5
   2  18   6 81.9648 26.1959   5
   0  16  -7 1.94722 20.7086   5
  -1  16  -7 40.7584 24.8846   5
   3  15  -7 8.28432 24.0267   5
   2  15  -7 44.8815 25.5650   5
  -2 -15   7 -4.6869 23.0569   1
   1  15  -7 -18.793 20.1321   5
   0  15  -7 11.3545 22.3390   5
  -1  15  -7 -9.5227 22.4652   5
  -5  15  -7 -17.459 24.4194   3
   4  14  -7 28.8159 24.4258   5
   3  14  -7 26.7077 23.8302   5
  -3 -14   7 -13.756 21.1978   1
   2  14  -7 -4.6001 23.0495   5
  -2 -14   7 13.7639 21.2915   1
   1  14  -7 7.30073 23.0568   5
   0  14  -7 -9.4750 21.5384   5
  -1  14  -7 28.5951 22.0709   5
  -4  14  -7 22.3638 23.0856   3
  -5  14  -7 6.29664 24.2838   3
  -6  14  -7 -3.0561 25.3443   3
  -7  14  -7 -7.0787 25.3585   3
   4  13  -7 -3.7242 21.2386   5
   3  13  -7 14.5222 22.2107   5
  -3 -13   7 2.97110 20.8061   1
   2  13  -7 -2.1443 18.8306   5
  -2 -13   7 18.6909 20.2711   1
   1  13  -7 42.7235 23.6604   5
   0  13  -7 7.83794 22.0018   5
  -1  13  -7 21.7416 19.9327   5
  -3  13  -7 17.6307 20.1551   3
  -4  13  -7 -14.162 21.2082   3
  -5  13  -7 37.3855 24.1995   3
  -6  13  -7 37.8157 24.5506   3
  -7  13  -7 -16.214 24.1042   3
  -8  13  -7 18.7128 23.4403   3
  -6 -12   7 -2.7620 24.3392   2
   4  12  -7 5.38711 19.4680   5
  -4 -12   7 1.28388 18.4818   1
   3  12  -7 28.2230 21.0529   5
  -3 -12   7 49.7665 20.6779   1
   2  12  -7 -35.575 19.7518   5
  -2 -12   7 12.0266 19.8363   1
   1  12  -7 12.6269 21.0926   5
   0  12  -7 11.3569 21.1105   5
  -1  12  -7 2.49326 19.0433   5
  -3  12  -7 43.6312 20.7424   3
  -4  12  -7 19.5766 20.1832   3
  -5  12  -7 -18.035 20.7428   3
  -6  12  -7 -1.4134 21.9794   3
  -7  12  -7 5.28711 22.1354   3
  -8  12  -7 44.4817 24.8115   3
  -9  12  -7 10.2470 25.1194   3
  -7 -11   7 33.4732 24.8919   2
  -7 -11   7 -5.5523 25.1712   4
  -6 -11   7 -1.8016 22.6786   4
  -6 -11   7 75.8363 26.6577   2
  -5 -11   7 -8.7521 18.9287   1
   4  11  -7 11.6386 19.1317   5
  -4 -11   7 16.8113 19.3633   1
   3  11  -7 4.32494 19.4124   5
  -3 -11   7 -15.330 16.7637   1
   2  11  -7 8.12890 20.0303   5
  -2 -11   7 29.8142 18.8869   1
   1  11  -7 20.6107 19.7407   5
   0  11  -7 13.7848 17.5443   5
  -1  11  -7 27.6963 17.2562   5
  -2  11  -7 13.0858 17.3397   3
  -3  11  -7 -9.9119 16.8758   3
  -4  11  -7 63.7160 21.0629   3
  -5  11  -7 124.680 24.2387   3
  -6  11  -7 53.0095 23.5100   3
  -7  11  -7 32.0084 22.7198   3
  -8  11  -7 -16.248 19.4856   3
  -9  11  -7 -23.996 22.0310   3
  -7 -10   7 -38.792 21.6270   2
  -7 -10   7 -35.569 21.0860   4
  -6 -10   7 24.2526 19.8431   1
  -6 -10   7 6.02741 21.8487   4
  -6 -10   7 -1.9128 21.5335   2
  -5 -10   7 42.5517 20.8117   1
   4  10  -7 75.1031 20.3265   5
  -4 -10   7 45.0749 18.7743   1
   3  10  -7 22.7978 18.6301   5
  -3 -10   7 23.0762 17.8893   1
   2  10  -7 53.3332 17.6727   5
  -2 -10   7 45.2627 19.0221   1
   1  10  -7 -20.706 17.4606   5
   0  10  -7 17.3931 16.1765   5
  -1  10  -7 120.557 19.3953   3
  -1  10  -7 105.628 20.9690   5
  -2  10  -7 186.267 21.6064   3
  -3  10  -7 153.848 22.2409   3
  -4  10  -7 27.0973 19.0862   3
  -5  10  -7 -12.057 17.9125   3
  -6  10  -7 -6.8077 19.3052   3
  -7  10  -7 21.5635 20.5484   3
  -8  10  -7 20.6187 22.0084   3
  -9  10  -7 -10.854 23.0163   3
 -10  10  -7 -37.563 22.7460   3
  -8  -9   7 -10.078 22.4861   2
  -8  -9   7 -16.158 24.2080   4
  -7  -9   7 28.6226 23.1645   2
  -7  -9   7 59.3496 24.0425   4
  -6  -9   7 53.5304 22.4193   2
  -6  -9   7 25.1950 19.0032   1
  -6  -9   7 25.4438 21.7860   4
  -5  -9   7 26.5900 17.8196   1
   4   9  -7 -3.3182 16.0766   5
  -4  -9   7 -15.837 17.0049   1
   3   9  -7 23.7997 17.6446   5
  -3  -9   7 44.3118 17.9471   1
   2   9  -7 25.4834 17.0413   5
  -2  -9   7 31.3000 17.4015   1
   1   9  -7 47.6758 18.4397   5
   0   9  -7 65.2324 19.7681   5
  -1   9  -7 -7.1084 13.5407   3
  -1   9  -7 12.1682 16.5618   5
  -2   9  -7 1.74009 14.6207   3
  -3   9  -7 -34.407 14.4141   3
  -4   9  -7 105.617 20.1814   3
  -5   9  -7 57.4733 19.3189   3
  -6   9  -7 82.6299 21.7907   3
  -7   9  -7 28.3682 20.5001   3
  -8   9  -7 14.4659 21.6590   3
  -9   9  -7 -13.340 21.7173   3
 -10   9  -7 -34.656 22.1985   3
  -9  -8   7 3.83646 24.2004   4
  -9  -8   7 26.9130 25.6237   2
  -8  -8   7 21.2737 23.6295   2
  -8  -8   7 -19.436 22.9883   4
  -7  -8   7 -18.719 20.6762   4
  -7  -8   7 -3.1118 18.2117   1
  -7  -8   7 -28.303 20.3640   2
  -6  -8   7 78.8962 23.5694   2
  -6  -8   7 73.5539 24.0859   4
  -6  -8   7 59.8739 19.9536   1
  -5  -8   7 76.3678 19.1709   1
   4   8  -7 8.35705 15.9091   5
  -4  -8   7 48.4913 18.3803   1
   3   8  -7 245.286 22.8546   5
  -3  -8   7 223.017 22.9953   1
   2   8  -7 81.3782 18.7035   5
  -2  -8   7 73.3948 18.4762   1
   1   8  -7 -11.067 15.3956   5
   0   8  -7 123.365 15.0356   3
   0   8  -7 142.045 19.9732   5
  -1   8  -7 318.877 21.6177   3
  -1   8  -7 271.068 22.9133   5
  -2   8  -7 161.511 18.9184   3
  -3   8  -7 208.992 20.8345   3
  -4   8  -7 62.8164 17.9958   3
  -5   8  -7 18.4322 17.8759   3
  -6   8  -7 7.80279 18.1581   3
  -7   8  -7 20.3965 19.5038   3
  -8   8  -7 48.4619 22.5348   3
  -9   8  -7 13.6681 19.7770   3
 -10   8  -7 -25.042 20.8856   3
 -11   8  -7 -7.8866 23.3437   3
  -9  -7   7 8.99664 23.7185   2
  -9  -7   7 72.8553 26.9526   4
  -8  -7   7 70.4742 26.6845   4
  -8  -7   7 35.8881 21.3562   2
  -8  -7   7 91.2507 22.1528   1
  -7  -7   7 35.2946 21.8517   2
  -7  -7   7 9.61808 21.8255   4
  -7  -7   7 16.0964 19.0004   1
  -6  -7   7 32.0845 18.5143   1
  -6  -7   7 29.2691 21.2989   4
  -6  -7   7 15.6579 20.2595   2
  -5  -7   7 -12.181 17.3560   4
  -5  -7   7 0.39596 16.6001   1
   4   7  -7 44.8368 15.5119   5
  -4  -7   7 25.3877 14.7512   1
   3   7  -7 -1.3652 14.5966   5
  -3  -7   7 8.55429 15.5067   1
   2   7  -7 94.5707 17.2141   5
  -2  -7   7 106.713 16.5843   1
   1   7  -7 250.603 21.7177   5
   0   7  -7 139.708 17.2359   5
   0   7  -7 174.082 15.7555   3
  -1   7  -7 45.7772 13.3208   3
  -2   7  -7 1.98265 12.3270   3
  -3   7  -7 43.1980 14.5596   3
  -4   7  -7 47.2236 16.2211   3
  -5   7  -7 123.830 20.5327   3
  -6   7  -7 21.2298 18.0904   3
  -7   7  -7 64.9288 20.4463   3
  -8   7  -7 16.7240 20.0894   3
  -9   7  -7 5.42953 20.6585   3
 -10   7  -7 29.4198 22.1968   3
 -11   7  -7 -7.5680 23.6491   3
  -9  -6   7 11.6723 24.2435   4
  -9  -6   7 12.6632 23.7281   2
  -8  -6   7 -11.289 20.9605   2
  -8  -6   7 -15.697 21.1188   4
  -8  -6   7 17.4134 19.6064   1
  -7  -6   7 -18.577 19.4933   4
  -7  -6   7 -11.524 16.5319   1
  -7  -6   7 -1.9897 19.4145   2
  -6  -6   7 29.5005 17.1682   1
  -6  -6   7 22.6756 19.3901   2
  -6  -6   7 26.9016 20.0596   4
  -5  -6   7 76.2746 18.7618   1
  -5  -6   7 81.4598 20.6528   4
   4   6  -7 129.629 26.9892   5
  -4  -6   7 116.913 18.5036   1
   3   6  -7 49.8373 14.9496   5
  -3  -6   7 40.2137 15.8344   1
   2   6  -7 1.24220 13.3321   5
  -2  -6   7 -21.702 13.3746   1
   1   6  -7 23.1356 9.84234   3
   1   6  -7 -3.1742 13.0461   5
   0   6  -7 25.2789 10.7776   3
   0   6  -7 9.20597 12.8238   5
  -1   6  -7 382.445 20.6572   3
  -2   6  -7 248.610 18.7941   3
  -3   6  -7 201.388 19.7295   3
  -4   6  -7 90.1441 17.1493   3
  -5   6  -7 -15.965 14.4326   3
  -6   6  -7 40.5852 17.1643   3
  -7   6  -7 63.7028 20.1789   3
  -8   6  -7 112.953 22.1528   3
  -9   6  -7 20.3461 20.5611   3
 -10   6  -7 0.47812 21.1562   3
 -11   6  -7 -5.0310 22.3123   3
 -10  -5   7 30.0447 26.1354   4
 -10  -5   7 11.1388 21.2052   2
  -9  -5   7 25.0934 21.3553   1
  -9  -5   7 79.2779 25.1878   2
  -9  -5   7 55.5957 24.4051   4
  -8  -5   7 55.0628 21.0190   1
  -8  -5   7 43.3025 22.9696   4
  -8  -5   7 18.3069 18.9775   2
  -7  -5   7 7.14645 16.3682   1
  -7  -5   7 60.3494 21.3189   4
  -7  -5   7 28.8603 19.9808   2
  -6  -5   7 89.2392 19.0206   1
  -6  -5   7 82.7453 20.5366   4
  -6  -5   7 142.031 23.1296   2
  -5  -5   7 45.9465 17.2347   1
  -5  -5   7 39.2777 17.5924   4
  -4  -5   7 156.224 19.9166   1
  -4  -5   7 135.877 18.5827   4
   3   5  -7 205.225 17.7329   5
  -3  -5   7 185.327 18.9417   1
   2   5  -7 183.389 17.1607   5
  -2  -5   7 234.299 19.5606   1
   1   5  -7 445.608 17.3935   3
   1   5  -7 452.048 21.5970   5
  -1  -5   7 438.261 23.7730   1
   0   5  -7 285.775 16.1935   3
  -1   5  -7 177.018 15.0300   3
  -2   5  -7 4.09242 11.0441   3
  -3   5  -7 36.8275 13.6037   3
  -4   5  -7 284.082 21.2424   3
  -5   5  -7 53.5736 16.2169   3
  -6   5  -7 70.1594 18.0400   3
  -7   5  -7 30.5301 17.1455   3
  -8   5  -7 44.4244 18.6625   3
  -9   5  -7 2.44729 20.4740   2
  -9   5  -7 15.0349 19.7851   3
 -10   5  -7 2.30609 19.7149   3
 -10   5  -7 14.3732 22.2134   2
 -11   5  -7 -17.749 22.1757   3
 -11   5  -7 -46.370 21.6373   2
 -12   5  -7 18.4030 27.7390   2
 -12   5  -7 21.5717 29.7345   3
 -10  -4   7 -3.7546 22.6989   2
 -10  -4   7 34.2295 21.9694   4
  -9  -4   7 48.5602 21.3636   1
  -9  -4   7 34.1783 22.3379   4
  -9  -4   7 12.0157 21.8582   2
  -8  -4   7 -23.437 18.4394   1
  -8  -4   7 9.62090 17.5556   2
  -8  -4   7 12.5673 20.9739   4
  -7  -4   7 16.4584 16.9785   1
  -7  -4   7 20.9124 19.8042   2
  -7  -4   7 8.39951 18.7049   4
  -6  -4   7 12.1151 17.6905   2
  -6  -4   7 1.90548 15.5130   1
  -6  -4   7 24.9861 18.0098   4
  -5  -4   7 476.632 28.1799   1
  -5  -4   7 495.147 29.4352   4
  -4  -4   7 436.947 25.9540   4
  -4  -4   7 485.449 27.2870   1
   3   4  -7 19.6086 11.0357   5
  -3  -4   7 48.7682 13.1029   4
  -3  -4   7 31.0790 12.5791   1
   2   4  -7 386.325 18.5442   5
   2   4  -7 369.083 14.8601   3
  -2  -4   7 361.199 22.6330   1
   1   4  -7 5.10934 7.83302   3
  -1  -4   7 -2.0638 10.4024   1
   0   4  -7 194.830 14.3483   3
  -1   4  -7 216.477 15.7300   3
  -2   4  -7 154.947 14.7587   3
  -3   4  -7 196.123 16.0280   3
  -4   4  -7 90.8240 14.3626   3
  -5   4  -7 11.4182 13.8635   3
  -6   4  -7 105.958 16.3423   4
  -6   4  -7 97.7267 18.5591   3
  -7   4  -7 18.7948 15.4787   2
  -7   4  -7 46.6541 17.8985   3
  -8   4  -7 112.423 21.2899   3
  -8   4  -7 92.5330 21.8873   2
  -9   4  -7 21.5856 20.1831   3
  -9   4  -7 63.0040 22.2438   2
 -10   4  -7 0.28848 21.7181   2
 -10   4  -7 9.61696 19.2404   3
 -11   4  -7 -23.854 19.5404   3
 -11   4  -7 -40.326 19.3425   2
 -12   4  -7 -20.566 25.9159   2
 -10  -3   7 25.4172 21.5729   1
 -10  -3   7 18.0519 22.5509   4
 -10  -3   7 -11.283 22.6101   2
  -9  -3   7 29.4211 23.5451   4
  -9  -3   7 -1.0425 20.2120   2
  -9  -3   7 18.5774 20.5822   1
  -8  -3   7 -23.834 17.6778   1
  -8  -3   7 -16.153 19.3172   2
  -8  -3   7 18.8137 20.5762   4
  -7  -3   7 -12.682 16.7184   1
  -7  -3   7 1.91571 18.3173   2
  -7  -3   7 13.4042 19.3132   4
  -6  -3   7 17.9951 16.6165   4
  -6  -3   7 -5.4037 14.7334   1
  -6  -3   7 20.2115 15.0851   2
  -5  -3   7 19.5571 15.9661   2
  -5  -3   7 22.7482 13.6239   1
  -5  -3   7 -4.9717 14.8361   4
  -4  -3   7 31.6735 13.7202   4
  -4  -3   7 42.2913 14.7757   1
  -3  -3   7 99.0270 13.6257   4
  -3  -3   7 78.8868 15.0619   1
   2   3  -7 245.420 13.7980   3
  -2  -3   7 269.256 19.0717   1
  -2  -3   7 260.711 16.7001   4
   1   3  -7 790.943 19.2191   3
  -1  -3   7 817.167 24.1942   1
   0   3  -7 832.872 21.0219   3
  -1   3  -7 94.2423 12.0270   3
  -2   3  -7 114.955 13.0871   3
  -3   3  -7 114.960 14.3234   3
  -4   3  -7 176.561 17.1946   3
  -5   3  -7 203.845 19.5140   3
  -5   3  -7 216.718 14.9291   4
  -6   3  -7 109.450 18.2909   2
  -6   3  -7 66.5636 17.3121   3
  -6   3  -7 115.500 13.2113   4
  -7   3  -7 53.4463 18.0568   2
  -7   3  -7 22.9996 16.1159   3
  -8   3  -7 18.9817 16.9673   3
  -8   3  -7 18.6974 19.3286   2
  -9   3  -7 23.4833 18.8370   2
  -9   3  -7 0.12107 17.4259   3
 -10   3  -7 8.58747 22.0427   2
 -10   3  -7 3.89769 18.3022   3
 -11   3  -7 0.81281 20.9150   2
 -11   3  -7 -16.728 19.0593   3
 -12   3  -7 66.0064 27.8378   2
 -10  -2   7 1.40545 20.6367   1
 -10  -2   7 -0.4690 23.5268   2
 -10  -2   7 21.5706 23.7899   4
  -9  -2   7 5.17789 20.0312   2
  -9  -2   7 -0.5557 19.6333   1
  -9  -2   7 -13.558 21.7566   4
  -8  -2   7 -7.1366 19.7201   4
  -8  -2   7 -6.0393 19.2768   2
  -8  -2   7 9.23238 17.9090   1
  -7  -2   7 82.5893 21.2060   2
  -7  -2   7 123.614 21.3980   4
  -7  -2   7 142.063 22.8778   1
  -6  -2   7 163.897 20.2226   4
  -6  -2   7 216.806 22.0489   1
  -6  -2   7 179.550 22.4000   2
  -5  -2   7 761.889 31.0096   1
  -5  -2   7 780.897 30.3645   2
  -5  -2   7 731.101 30.3743   4
  -4  -2   7 95.0944 15.8634   4
  -4  -2   7 127.794 17.2572   1
   3   2  -7 102.991 10.0890   3
  -3  -2   7 86.9879 13.8524   1
  -3  -2   7 87.9758 13.3890   4
   2   2  -7 179.511 13.0339   3
  -2  -2   7 172.639 15.1505   1
  -2  -2   7 192.339 14.0171   4
   1   2  -7 65.8332 10.0495   3
  -1  -2   7 57.2865 12.0418   1
  -1  -2   7 65.9845 9.60723   4
   0   2  -7 1980.76 29.6391   3
   0  -2   7 2007.50 32.4792   1
  -1   2  -7 167.160 13.6229   3
  -2   2  -7 785.824 21.7867   3
  -3   2  -7 66.4206 11.9463   3
  -4   2  -7 150.651 15.9501   3
  -5   2  -7 37.3987 14.0955   2
  -5   2  -7 27.0633 8.75463   4
  -5   2  -7 39.1427 12.0125   3
  -6   2  -7 40.0409 11.2825   4
  -6   2  -7 33.4447 13.9080   2
  -6   2  -7 103.102 17.3844   3
  -7   2  -7 75.2892 16.3449   3
  -7   2  -7 82.1866 14.2468   4
  -7   2  -7 74.7942 19.0774   2
  -8   2  -7 -2.5705 15.3583   3
  -8   2  -7 34.8583 16.9236   2
  -9   2  -7 52.4692 21.2699   2
  -9   2  -7 66.1983 18.7416   3
 -10   2  -7 18.6420 17.9875   3
 -10   2  -7 46.5146 24.0404   2
 -11   2  -7 -9.0089 22.6042   2
 -12   2  -7 4.63267 25.7202   2
 -10  -1   7 5.51331 23.3057   2
 -10  -1   7 21.5389 23.2467   4
 -10  -1   7 37.9098 21.3677   1
  -9  -1   7 26.6785 21.3363   1
  -9  -1   7 11.7321 18.7913   4
  -9  -1   7 14.9929 21.3203   2
  -8  -1   7 12.3456 19.2244   2
  -8  -1   7 -2.7406 19.5412   4
  -8  -1   7 1.48184 18.6215   1
  -7  -1   7 3.80440 14.7403   1
  -7  -1   7 14.0208 18.8262   4
  -7  -1   7 8.95175 17.9515   2
  -6  -1   7 20.7717 14.8430   1
  -6  -1   7 7.75587 13.8884   2
  -6  -1   7 2.84623 16.2946   4
  -5  -1   7 78.5764 16.8524   4
  -5  -1   7 70.9188 15.7192   2
  -5  -1   7 103.251 17.1865   1
  -4  -1   7 73.8888 15.6478   1
  -4  -1   7 66.9425 14.4620   4
   3   1  -7 179.853 13.4311   3
  -3  -1   7 178.945 14.8204   4
  -3  -1   7 167.941 15.2899   1
   2   1  -7 123.276 11.1196   3
  -2  -1   7 134.692 14.8202   1
  -2  -1   7 125.392 12.1658   4
   1   1  -7 2197.52 29.8665   3
  -1  -1   7 2203.15 34.3277   1
  -1  -1   7 2216.19 27.9820   4
   0   1  -7 596.534 18.5241   3
   0  -1   7 615.100 20.2048   1
  -1   1  -7 134.185 12.8352   3
  -2   1  -7 3.87358 9.80227   3
  -3   1  -7 346.319 17.3577   3
  -4   1  -7 76.5555 12.5409   3
  -5   1  -7 172.157 17.2179   2
  -5   1  -7 168.966 11.3420   4
  -5   1  -7 131.177 15.8055   3
  -6   1  -7 287.883 20.9467   3
  -6   1  -7 287.412 16.7363   4
  -6   1  -7 297.322 22.6205   2
  -7   1  -7 6.09128 11.2648   4
  -7   1  -7 4.88565 16.1247   2
  -7   1  -7 10.4541 14.1947   3
  -8   1  -7 50.0279 17.9267   2
  -8   1  -7 19.0174 15.3112   3
  -8   1  -7 47.9125 21.6614   4
  -9   1  -7 37.5800 17.1028   3
  -9   1  -7 16.4842 20.7255   2
 -10   1  -7 23.3120 19.9702   3
 -10   1  -7 43.0030 24.2067   2
 -11   1  -7 62.6163 26.1562   2
 -12   1  -7 7.40720 25.7577   2
 -10   0   7 5.04572 22.4871   4
 -10   0   7 -18.596 21.9524   2
 -10   0   7 27.0647 21.6379   1
  -9   0   7 -10.514 20.4718   2
  -9   0   7 -12.127 21.0334   4
  -9   0   7 18.1351 18.6461   1
  -8   0   7 26.7888 19.9409   4
  -8   0   7 -16.633 18.3147   1
  -8   0   7 22.5877 19.3452   2
  -7   0   7 47.9843 19.0259   2
  -7   0   7 66.9094 18.3987   4
  -7   0   7 91.8394 19.0743   1
  -6   0   7 317.737 24.5038   2
  -6   0   7 297.315 24.2995   1
  -6   0   7 342.077 25.1113   4
  -5   0   7 141.813 17.2615   1
  -5   0   7 172.405 19.5157   4
  -5   0   7 172.167 18.2931   2
  -4   0   7 144.956 15.7858   2
  -4   0   7 168.347 17.1305   1
  -4   0   7 141.629 16.2732   4
  -3   0   7 14.3285 10.7387   1
  -3   0   7 4.72644 9.26373   4
  -2   0   7 40.1881 11.3168   1
  -2   0   7 49.7871 10.1232   4
   1   0  -7 932.404 21.4950   3
  -1   0   7 959.751 19.3885   4
  -1   0   7 916.592 23.2880   1
   0   0  -7 385.599 16.6631   3
   0   0   7 401.777 17.1161   1
  -1   0  -7 495.373 18.6882   3
   1   0   7 541.056 16.7156   1
  -2   0  -7 383.851 16.8858   3
  -3   0  -7 76.3337 12.0876   3
  -4   0  -7 37.8821 11.3426   3
  -4   0  -7 9.53377 10.6270   2
  -5   0  -7 9.25822 12.0133   2
  -5   0  -7 3.06362 7.31099   4
  -5   0  -7 8.58440 11.2240   3
  -6   0  -7 37.9226 13.6554   3
  -6   0  -7 71.8836 16.0346   2
  -6   0  -7 37.9033 10.3935   4
  -7   0  -7 161.901 19.6996   2
  -7   0  -7 231.882 20.7390   3
  -7   0  -7 207.201 16.5336   4
  -8   0  -7 62.3860 16.3874   3
  -8   0  -7 69.7711 18.4281   2
  -8   0  -7 87.7579 15.6093   4
  -9   0  -7 52.0753 21.4580   2
  -9   0  -7 49.1208 17.0866   3
 -10   0  -7 0.79854 18.3124   2
 -11   0  -7 11.1558 24.0136   2
 -12   0  -7 22.2538 26.4559   2
 -11   1   7 30.4564 38.7163   1
 -11   1   7 17.9650 23.4452   2
 -11   1   7 38.6565 25.8049   4
 -10   1   7 -13.793 19.8101   1
 -10   1   7 -3.5890 23.0660   4
 -10   1   7 4.94182 22.9074   2
  -9   1   7 32.9660 20.5991   2
  -9   1   7 1.05512 19.4287   1
  -9   1   7 3.59306 21.7354   4
  -8   1   7 6.45282 15.5305   2
  -8   1   7 43.6599 18.9056   4
  -8   1   7 73.5750 20.2691   1
  -7   1   7 23.9471 19.1144   4
  -7   1   7 36.7013 16.7715   2
  -7   1   7 -11.361 14.7396   1
  -6   1   7 7.90094 14.8650   2
  -6   1   7 22.1488 15.6884   1
  -6   1   7 29.4821 17.5722   4
  -5   1   7 124.148 16.6582   2
  -5   1   7 106.787 17.2810   1
  -5   1   7 145.159 18.8936   4
  -4   1   7 361.513 20.5092   2
  -4   1   7 340.951 22.0524   4
  -4   1   7 348.328 23.1789   1
  -3   1   7 511.826 20.9715   4
  -3   1   7 535.748 22.6693   1
  -2   1   7 921.277 22.7907   4
  -2   1   7 957.264 24.9119   1
  -1   1   7 2005.19 29.6515   1
  -1   1   7 2065.20 26.5515   4
   0  -1  -7 5.52900 9.12598   3
   0   1   7 0.98756 7.86116   1
  -1  -1  -7 19.6036 9.18246   3
   1   1   7 9.75086 7.83815   1
  -2  -1  -7 -5.3875 9.53739   3
  -3  -1  -7 137.305 13.4394   3
  -3  -1  -7 156.060 12.2548   2
  -4  -1  -7 -4.8298 9.84524   2
  -4  -1  -7 7.61353 9.19198   3
  -5  -1  -7 344.211 14.9541   4
  -5  -1  -7 357.147 22.2091   2
  -5  -1  -7 376.553 19.2610   3
  -6  -1  -7 48.0436 13.1882   3
  -6  -1  -7 41.2904 13.0756   2
  -6  -1  -7 59.5769 11.0488   4
  -7  -1  -7 9.48503 12.3962   3
  -7  -1  -7 27.7804 11.9236   4
  -7  -1  -7 19.5450 15.7119   2
  -8  -1  -7 -11.626 11.9496   4
  -8  -1  -7 28.0796 18.0906   2
  -8  -1  -7 7.89050 13.0364   3
  -9  -1  -7 54.2114 21.2874   2
  -9  -1  -7 -2.3474 14.1269   4
 -10  -1  -7 118.897 25.5409   2
 -11  -1  -7 35.6025 24.7190   2
 -12  -1  -7 11.8294 21.9017   2
 -11   2   7 39.3930 26.5107   4
 -11   2   7 10.6397 23.6311   2
 -10   2   7 47.2732 25.8760   4
 -10   2   7 29.4476 22.1504   2
 -10   2   7 -13.733 20.9731   1
  -9   2   7 7.71400 20.4422   2
  -9   2   7 -23.194 17.9482   4
  -9   2   7 -6.3021 19.1069   1
  -8   2   7 5.71275 17.4531   2
  -8   2   7 20.0835 17.6723   4
  -8   2   7 -21.426 17.6596   1
  -7   2   7 20.4391 19.0846   4
  -7   2   7 78.7301 19.1445   2
  -7   2   7 26.1919 18.2228   1
  -6   2   7 87.7278 18.1778   1
  -6   2   7 114.908 17.4658   2
  -6   2   7 110.343 20.3338   4
  -5   2   7 131.342 17.6910   1
  -5   2   7 135.301 16.4886   2
  -5   2   7 115.561 16.9300   4
  -4   2   7 209.703 18.8236   4
  -4   2   7 221.407 17.8212   1
  -4   2   7 242.166 18.0689   2
  -3   2   7 11.7961 8.71208   2
  -3   2   7 20.5561 11.5336   4
  -3   2   7 35.8006 12.7287   1
  -2   2   7 81.2003 11.2652   1
  -2   2   7 92.8650 11.8145   4
  -1   2   7 21.0150 8.25211   4
  -1   2   7 20.0532 9.42161   1
   0   2   7 309.760 13.7804   1
  -1  -2  -7 285.058 15.3942   3
   1   2   7 306.813 12.8845   1
  -2  -2  -7 1074.57 24.5635   3
   2   2   7 1051.28 15.8769   1
  -3  -2  -7 18.4502 10.0802   3
  -3  -2  -7 36.4453 8.96097   2
  -4  -2  -7 40.8845 8.08666   4
  -4  -2  -7 40.3462 10.7744   3
  -4  -2  -7 45.6856 10.9535   2
  -5  -2  -7 46.7846 11.9742   2
  -5  -2  -7 48.3350 11.7173   3
  -5  -2  -7 46.7914 9.39280   4
  -6  -2  -7 291.361 20.9825   2
  -6  -2  -7 229.038 15.8480   4
  -6  -2  -7 236.757 17.4982   3
  -7  -2  -7 221.394 17.4349   4
  -7  -2  -7 185.677 20.3337   2
  -7  -2  -7 195.235 17.7429   3
  -8  -2  -7 0.86126 12.2541   3
  -8  -2  -7 -13.542 12.2482   4
  -8  -2  -7 -4.4264 16.2316   2
  -9  -2  -7 41.8189 15.9783   4
  -9  -2  -7 24.6214 17.4300   2
 -10  -2  -7 -0.4931 21.0014   2
 -11  -2  -7 8.45179 20.1848   2
 -12  -2  -7 -10.637 23.9158   2
 -11   3   7 -3.0798 22.9557   2
 -10   3   7 -5.8311 20.2297   1
 -10   3   7 16.6515 22.5138   2
 -10   3   7 13.0881 25.7220   4
  -9   3   7 9.08861 19.2818   2
  -9   3   7 55.3206 25.1612   4
  -9   3   7 24.1568 21.5350   1
  -8   3   7 46.0821 19.5768   1
  -8   3   7 83.6138 23.6696   4
  -8   3   7 33.4261 18.9959   2
  -7   3   7 74.1564 17.4738   1
  -7   3   7 59.1253 20.9790   4
  -7   3   7 54.9689 18.0401   2
  -6   3   7 19.8657 14.5371   2
  -6   3   7 15.5053 15.1635   4
  -6   3   7 24.5732 14.5582   1
  -5   3   7 0.66925 14.5083   1
  -5   3   7 27.8573 11.9687   2
  -5   3   7 41.6157 16.0465   4
  -4   3   7 97.6922 14.3802   4
  -4   3   7 106.115 12.8098   2
  -4   3   7 121.626 16.4909   1
  -3   3   7 303.102 19.8278   4
  -3   3   7 330.439 20.0564   1
  -3   3   7 316.406 16.1484   2
  -2   3   7 912.084 23.7366   4
  -2   3   7 893.380 23.4091   1
  -2   3   7 890.587 19.0053   2
  -1   3   7 183.693 12.9665   4
  -1   3   7 179.986 12.9954   1
   0   3   7 205.923 12.3244   1
  -1  -3  -7 55.6779 10.1136   3
   1   3   7 84.8998 7.92369   1
  -2  -3  -7 147.384 13.2708   3
   2   3   7 125.904 7.74631   1
  -3  -3  -7 17.6978 9.28792   3
  -3  -3  -7 34.8224 9.09297   2
  -4  -3  -7 518.079 20.5692   3
  -4  -3  -7 525.184 20.7168   2
  -5  -3  -7 203.417 15.6038   3
  -5  -3  -7 189.874 15.8550   2
  -5  -3  -7 196.136 14.0590   4
  -6  -3  -7 25.9101 11.0302   3
  -6  -3  -7 39.9634 14.1818   2
  -6  -3  -7 67.4631 12.1251   4
  -7  -3  -7 12.4741 11.8986   3
  -7  -3  -7 39.0085 13.4224   4
  -7  -3  -7 34.0282 15.6166   2
  -8  -3  -7 15.6829 17.6992   2
  -8  -3  -7 -13.441 12.9986   4
  -9  -3  -7 0.66333 15.0123   4
  -9  -3  -7 -21.929 17.9252   2
 -10  -3  -7 30.1794 18.7937   4
 -10  -3  -7 36.7741 21.4292   2
 -11  -3  -7 30.5414 23.3595   2
 -12  -3  -7 -5.0987 22.4323   2
 -10   4   7 77.4973 24.8653   1
 -10   4   7 -0.5887 24.9671   4
  -9   4   7 27.9285 24.6894   4
  -9   4   7 -22.825 17.5099   2
  -9   4   7 -15.876 19.3348   1
  -8   4   7 45.5443 18.8332   2
  -8   4   7 29.8381 19.5116   1
  -8   4   7 29.4612 23.3466   4
  -7   4   7 21.0620 18.1282   4
  -7   4   7 8.83660 15.2534   2
  -7   4   7 15.7723 16.9475   1
  -6   4   7 137.108 21.7374   4
  -6   4   7 141.029 18.2227   2
  -6   4   7 118.220 19.9088   1
  -5   4   7 251.338 18.5691   2
  -5   4   7 244.765 21.6769   1
  -5   4   7 208.609 20.6285   4
  -4   4   7 249.984 19.8140   1
  -4   4   7 221.948 16.9507   2
  -4   4   7 233.723 19.0401   4
  -3   4   7 44.1265 8.97366   2
  -3   4   7 53.9262 13.6976   4
  -3   4   7 36.1422 12.7929   1
  -2   4   7 5.88295 10.0701   1
  -2   4   7 8.69419 10.4350   4
  -2   4   7 -5.3381 5.90395   2
  -1   4   7 102.874 11.7502   4
  -1   4   7 91.9343 10.8211   1
   0   4   7 112.378 9.78093   1
   1   4   7 347.073 11.7510   1
  -2  -4  -7 80.5074 10.8188   3
  -3  -4  -7 57.0966 8.84669   2
  -3  -4  -7 49.8771 10.4228   3
  -4  -4  -7 82.6415 11.5377   2
  -4  -4  -7 95.4133 12.0803   3
  -5  -4  -7 31.4940 11.6451   2
  -5  -4  -7 12.1301 9.71671   3
  -6  -4  -7 36.2914 12.4940   4
  -6  -4  -7 13.8477 12.6003   2
  -6  -4  -7 6.14522 10.1311   3
  -7  -4  -7 10.6305 12.7917   4
  -7  -4  -7 13.0493 13.1099   3
  -7  -4  -7 8.01044 12.4463   2
  -8  -4  -7 60.4445 16.6007   2
  -8  -4  -7 51.5798 16.2961   4
  -9  -4  -7 59.8868 18.6283   2
  -9  -4  -7 26.8154 17.1727   4
 -10  -4  -7 -0.5949 16.4469   4
 -10  -4  -7 9.42630 21.3526   2
 -11  -4  -7 -2.5021 22.1394   2
 -12  -4  -7 -13.364 24.2322   2
 -10   5   7 10.6825 26.2622   4
 -10   5   7 27.6114 23.1610   1
  -9   5   7 20.5478 18.6731   1
  -9   5   7 59.0796 23.8312   4
  -8   5   7 50.6951 21.8586   4
  -8   5   7 22.8704 19.2360   1
  -8   5   7 42.2982 19.2599   2
  -7   5   7 115.480 19.8039   2
  -7   5   7 127.168 22.0447   1
  -7   5   7 132.671 23.5323   4
  -6   5   7 27.8645 17.1549   1
  -6   5   7 48.6473 14.5490   2
  -6   5   7 6.45611 18.5982   4
  -5   5   7 67.7249 18.3428   4
  -5   5   7 42.9092 16.4557   1
  -5   5   7 71.3674 13.1612   2
  -4   5   7 90.8153 16.3342   1
  -4   5   7 84.6889 11.4261   2
  -4   5   7 49.2752 16.2511   4
  -3   5   7 334.860 22.1469   4
  -3   5   7 349.271 21.5225   1
  -3   5   7 347.998 15.1789   2
  -2   5   7 451.244 20.1755   1
  -2   5   7 441.819 21.2167   4
  -1   5   7 377.661 17.5275   1
   0   5   7 85.2147 9.36827   1
   1   5   7 -6.4035 5.64694   1
  -2  -5  -7 232.104 16.1511   3
  -3  -5  -7 233.022 13.8467   2
  -3  -5  -7 269.397 15.8586   3
  -4  -5  -7 82.5156 11.2006   2
  -4  -5  -7 82.3600 10.9607   3
  -5  -5  -7 126.328 13.7299   2
  -5  -5  -7 156.751 14.3101   3
  -6  -5  -7 221.322 18.7852   2
  -6  -5  -7 245.469 16.8662   3
  -7  -5  -7 67.8186 15.9851   2
  -7  -5  -7 105.192 16.8759   4
  -8  -5  -7 67.7292 17.5226   2
  -8  -5  -7 61.3137 17.1546   4
  -9  -5  -7 14.6988 18.7242   2
  -9  -5  -7 12.4741 17.3370   4
 -10  -5  -7 59.7669 20.5911   4
 -10  -5  -7 31.6428 22.2329   2
 -11  -5  -7 68.3990 25.0495   2
 -12  -5  -7 26.7564 26.3874   2
 -10   6   7 20.9086 24.0417   4
 -10   6   7 18.0943 22.3715   1
  -9   6   7 -11.034 23.8023   4
  -9   6   7 3.47062 20.9268   1
  -8   6   7 -2.5180 19.3819   1
  -8   6   7 -26.264 23.2651   4
  -7   6   7 47.1645 19.8477   1
  -7   6   7 26.6176 21.4790   4
  -6   6   7 96.5260 22.1846   4
  -6   6   7 69.5362 16.9735   1
  -5   6   7 87.3775 18.5605   4
  -5   6   7 118.242 19.5455   1
  -4   6   7 58.6351 15.9515   1
  -4   6   7 61.7888 16.4960   4
  -3   6   7 199.211 17.6035   1
  -3   6   7 221.198 19.9969   4
  -2   6   7 -0.9023 11.9380   4
  -2   6   7 6.36601 8.54734   5
  -2   6   7 -6.7620 9.77252   1
  -1   6   7 38.9906 9.80213   1
   0   6   7 177.881 11.4917   1
   1   6   7 197.994 10.9277   1
  -3  -6  -7 87.8907 11.9023   3
  -3  -6  -7 126.977 10.0941   2
  -4  -6  -7 8.73137 9.32470   3
  -4  -6  -7 3.79255 8.80984   2
  -5  -6  -7 0.85099 9.98640   2
  -5  -6  -7 7.39361 9.93842   3
  -6  -6  -7 26.8806 12.7113   2
  -7  -6  -7 -9.6374 12.9931   2
  -8  -6  -7 134.555 21.5335   4
  -8  -6  -7 109.614 20.2274   2
  -9  -6  -7 8.45263 17.2180   4
  -9  -6  -7 19.1100 19.0210   2
 -10  -6  -7 42.9904 20.2714   4
 -10  -6  -7 2.47336 20.4166   2
 -11  -6  -7 -23.323 21.0132   2
 -11  -6  -7 -1.1437 19.2911   4
 -12  -6  -7 10.8443 25.2802   2
 -10   7   7 24.9148 26.8744   4
 -10   7   7 -21.870 20.9567   1
  -9   7   7 72.4119 23.3241   1
  -9   7   7 13.0016 25.6248   4
  -8   7   7 38.1851 21.1040   1
  -8   7   7 37.8324 24.9946   4
  -7   7   7 38.5552 19.5279   1
  -7   7   7 35.3135 20.1983   4
  -6   7   7 41.7662 20.4962   4
  -6   7   7 34.9563 17.5835   1
  -5   7   7 22.9463 15.0068   1
  -5   7   7 -7.0706 15.5269   4
  -4   7   7 108.305 19.7083   4
  -4   7   7 92.3574 17.6445   1
  -3   7   7 263.949 19.8108   1
  -3   7   7 220.211 20.6490   4
  -2   7   7 81.7124 13.0489   1
  -2   7   7 93.2020 11.5785   5
  -1   7   7 -2.7357 9.17721   1
  -1   7   7 0.89843 9.39896   5
   0   7   7 20.2864 8.37830   1
   1   7   7 62.3612 8.36238   1
  -3  -7  -7 190.881 12.5543   2
  -3  -7  -7 146.830 14.0329   3
  -4  -7  -7 173.696 13.2353   2
  -4  -7  -7 168.006 14.0990   3
  -5  -7  -7 40.1627 11.6799   2
  -5  -7  -7 41.0590 10.7488   3
  -6  -7  -7 16.7570 12.5493   2
  -7  -7  -7 17.1709 15.0160   2
  -8  -7  -7 4.14728 16.7196   4
  -8  -7  -7 26.3127 16.9842   2
  -9  -7  -7 50.5726 19.8160   4
  -9  -7  -7 70.9523 20.1153   2
 -10  -7  -7 -8.1268 19.2332   2
 -10  -7  -7 39.1972 20.8173   4
 -11  -7  -7 41.8780 24.5317   2
 -11  -7  -7 24.6467 21.7730   4
 -10   8   7 -12.133 25.4598   4
  -9   8   7 -32.421 20.5813   1
  -9   8   7 8.40984 24.6652   4
  -8   8   7 41.6352 22.9892   4
  -8   8   7 -18.326 19.5844   1
  -7   8   7 30.3962 18.3527   1
  -7   8   7 50.8249 23.5783   4
  -6   8   7 126.425 22.4025   1
  -6   8   7 129.689 22.9171   4
  -5   8   7 87.2202 21.1617   4
  -5   8   7 75.8247 19.4405   1
  -4   8   7 30.6377 14.3137   1
  -4   8   7 55.3224 19.2354   4
  -3   8   7 41.4634 14.0343   1
  -2   8   7 -2.9178 10.2503   5
  -2   8   7 24.5356 12.0067   1
  -1   8   7 74.8912 12.9013   5
  -1   8   7 81.4700 12.0981   1
   0   8   7 148.694 15.8119   5
   0   8   7 142.695 12.4036   1
   1   8   7 97.0693 9.82672   1
  -4  -8  -7 5.64952 9.49404   3
  -5  -8  -7 10.8794 10.5293   2
  -6  -8  -7 7.47660 12.7502   2
  -7  -8  -7 181.842 19.8731   2
  -8  -8  -7 92.2425 19.5695   2
  -9  -8  -7 -4.3219 18.0478   2
  -9  -8  -7 2.54026 18.6639   4
 -10  -8  -7 24.9685 20.4297   4
 -10  -8  -7 18.7001 21.9200   2
 -11  -8  -7 10.6611 20.8643   4
 -11  -8  -7 -4.1009 23.2493   2
  -9   9   7 30.3927 25.6959   4
  -9   9   7 -9.7450 22.0077   1
  -8   9   7 32.4085 22.8543   1
  -8   9   7 42.3545 23.5699   4
  -7   9   7 50.6419 24.5199   4
  -7   9   7 36.7853 21.7813   1
  -6   9   7 29.3225 19.5455   1
  -6   9   7 -27.217 19.6269   4
  -5   9   7 -1.9727 17.0300   1
  -5   9   7 52.5977 19.8363   4
  -4   9   7 78.5317 17.2338   1
  -3   9   7 136.020 18.3122   1
  -2   9   7 123.835 15.9653   1
  -2   9   7 140.951 15.5319   5
  -1   9   7 67.4926 12.9713   1
  -1   9   7 103.024 14.7700   5
   0   9   7 55.4349 11.0121   1
   0   9   7 63.0242 14.0992   5
   1   9   7 5.30257 13.2816   5
  -4  -9  -7 12.0543 12.7825   3
  -8  -9  -7 0.86806 16.1244   2
  -9  -9  -7 43.1176 20.8623   4
  -9  -9  -7 56.3894 20.4982   2
 -10  -9  -7 -20.370 19.2768   4
 -10  -9  -7 9.68862 21.7443   2
 -11  -9  -7 47.1862 26.1046   2
 -11  -9  -7 32.7152 23.1580   4
  -9  10   7 -3.5202 23.5842   1
  -9  10   7 -14.226 25.7455   4
  -8  10   7 -30.647 24.3260   4
  -8  10   7 36.1999 24.1563   1
  -7  10   7 28.2147 26.0933   4
  -7  10   7 15.1615 20.5518   1
  -6  10   7 73.7974 21.8713   1
  -5  10   7 10.8210 18.7185   1
  -4  10   7 -2.3606 15.8610   1
  -3  10   7 26.0316 15.2483   1
  -2  10   7 1.78533 12.1337   5
  -2  10   7 -7.9748 12.5286   1
  -1  10   7 48.9343 12.9885   1
  -1  10   7 44.3280 14.0366   5
   0  10   7 126.407 17.7554   5
   1  10   7 85.4571 17.2120   5
   2  10   7 4.28855 14.4670   5
   3  10   7 11.2049 15.0619   5
   8  10   7 70.5234 21.0109   5
  -9 -10  -7 8.71754 20.6249   4
   9  10   7 -0.0077 19.6953   5
 -10 -10  -7 4.58790 21.7818   4
  -8  11   7 55.6538 24.9152   1
  -7  11   7 8.55825 22.4560   1
  -6  11   7 16.3087 20.6305   1
  -5  11   7 54.2858 20.8974   1
  -4  11   7 24.8863 17.4321   1
  -3  11   7 97.6361 18.6038   1
  -2  11   7 91.0108 16.8255   1
  -2  11   7 103.506 16.5447   5
  -1  11   7 151.080 18.9843   5
  -1  11   7 112.375 15.6831   1
   0  11   7 14.3266 14.1190   5
   1  11   7 2.65414 15.4375   5
   2  11   7 44.5036 15.1355   5
   3  11   7 54.1958 16.4453   5
   4  11   7 137.879 21.7344   5
   5  11   7 16.7145 16.0564   5
   6  11   7 -32.540 14.3553   5
   7  11   7 -24.416 14.9073   5
   8  11   7 -6.0528 19.5701   5
   9  11   7 -26.739 19.3675   5
 -10 -11  -7 -8.9197 21.5446   4
  -8  12   7 -1.9693 23.2021   1
  -7  12   7 3.12277 21.9215   1
  -6  12   7 66.4995 24.0470   1
  -5  12   7 43.2130 21.5816   1
  -4  12   7 4.93350 17.0573   1
  -3  12   7 -14.387 14.9157   1
  -2  12   7 -13.896 13.6628   5
  -2  12   7 -8.5899 13.1771   1
  -1  12   7 -6.9899 14.4975   5
   0  12   7 -2.2445 15.1851   5
   1  12   7 -5.2074 15.6222   5
   2  12   7 27.8978 17.8896   5
   3  12   7 21.9169 17.9892   5
   4  12   7 13.9663 16.1272   5
   5  12   7 11.2665 18.8793   5
   6  12   7 30.4027 20.2459   5
   7  12   7 16.3939 19.2229   5
   8  12   7 -7.9048 19.0852   5
   9  12   7 31.4978 22.6126   5
  -7  13   7 -13.560 21.1577   1
  -6  13   7 1.32127 20.5956   1
  -5  13   7 8.18819 20.3912   1
  -4  13   7 2.15287 18.0647   1
  -3  13   7 23.0092 17.2794   1
  -2  13   7 27.4740 16.2193   5
  -1  13   7 5.58523 15.7748   5
   0  13   7 -14.387 15.4102   5
   1  13   7 -17.612 16.9716   5
   2  13   7 21.0264 17.4462   5
   3  13   7 24.1022 19.5721   5
   4  13   7 30.2893 17.4137   5
   5  13   7 17.2996 20.0941   5
   6  13   7 4.45225 19.9342   5
   7  13   7 -30.653 19.0639   5
   8  13   7 38.2739 23.3732   5
   9  13   7 -26.367 21.4545   5
  -7  14   7 -14.254 21.9466   1
  -6  14   7 19.1192 22.2792   1
  -5  14   7 -37.322 19.6136   1
  -2  14   7 -0.2909 16.1279   5
  -1  14   7 14.8532 16.8609   5
   0  14   7 38.4514 18.3500   5
   1  14   7 50.0985 19.5252   5
   2  14   7 6.43965 19.0912   5
   3  14   7 7.11263 17.4084   5
   4  14   7 12.9777 19.6966   5
   5  14   7 -3.4721 19.0818   5
   6  14   7 -21.697 19.9842   5
   7  14   7 42.6331 23.1976   5
   8  14   7 40.0574 24.0148   5
  -2  15   7 35.4276 20.1125   5
  -1  15   7 -7.6184 17.4257   5
   0  15   7 -18.172 17.6314   5
   1  15   7 11.4809 19.2575   5
   2  15   7 27.3375 18.7417   5
   3  15   7 32.7172 22.1778   5
   4  15   7 -17.566 17.7634   5
   5  15   7 37.5135 22.9535   5
   6  15   7 53.6146 21.8079   5
   7  15   7 -11.776 22.3509   5
  -2  16   7 5.61767 19.7234   5
  -1  16   7 -12.084 18.5002   5
   0  16   7 23.1467 20.8818   5
   1  16   7 42.4207 22.3296   5
   2  16   7 1.93407 18.5142   5
   3  16   7 -0.3036 21.7191   5
   4  16   7 20.5057 20.8556   5
   5  16   7 -5.2527 23.1281   5
   6  16   7 -2.3509 22.5048   5
  -2  17   7 -2.3298 20.9078   5
  -1  17   7 5.06477 20.4961   5
   0  17   7 -4.4985 21.6075   5
   1  17   7 14.2972 19.0364   5
   2  17   7 -3.1634 21.7410   5
   3  17   7 -7.8306 22.2055   5
   4  17   7 11.3390 20.7673   5
   5  17   7 11.9160 24.2672   5
  -2  18   7 18.6947 22.5409   5
  -1  18   7 -27.550 20.1948   5
   0  18   7 14.5486 23.7015   5
   1  18   7 19.8535 23.5338   5
   2  18   7 -10.549 22.1811   5
   2  15  -8 -3.0786 23.5133   5
  -2 -15   8 5.41053 23.8425   1
   1  15  -8 -1.5480 22.8263   5
  -1 -15   8 -46.145 22.3235   1
   0  15  -8 5.04103 23.0918   5
  -5  15  -8 8.39727 25.4407   3
   3  14  -8 -37.466 21.1421   5
  -3 -14   8 -27.565 21.1886   1
   2  14  -8 -7.7919 22.0949   5
  -2 -14   8 -3.7277 22.2938   1
   1  14  -8 57.3590 24.0612   5
  -1 -14   8 20.2297 21.6043   1
   0  14  -8 14.3580 22.2570   5
  -4  14  -8 1.58255 24.0898   3
  -5  14  -8 47.8249 27.4021   3
  -6  14  -8 19.8617 26.4286   3
   4  13  -8 46.7849 24.6022   5
  -4 -13   8 25.0480 22.2360   1
   3  13  -8 34.4248 23.5817   5
  -3 -13   8 41.4223 22.8674   1
   2  13  -8 -9.9197 20.8131   5
  -2 -13   8 -28.165 20.2045   1
   1  13  -8 -10.961 20.7923   5
   0  13  -8 5.48485 20.8054   5
  -4  13  -8 26.3891 22.8418   3
  -5  13  -8 -2.0748 23.3666   3
  -6  13  -8 -10.850 23.7037   3
  -7  13  -8 -12.386 22.3376   3
  -6 -12   8 -0.8538 25.6381   4
  -6 -12   8 7.92222 24.7020   2
   4  12  -8 20.7085 22.5825   5
  -4 -12   8 -16.638 20.3103   1
   3  12  -8 23.1548 21.9623   5
  -3 -12   8 24.4917 20.7759   1
   2  12  -8 44.5388 22.1471   5
  -2 -12   8 12.0304 19.6657   1
   1  12  -8 5.20467 20.0525   5
   0  12  -8 15.7952 19.7882   5
  -3  12  -8 21.9496 20.3816   3
  -4  12  -8 31.3647 21.4455   3
  -5  12  -8 68.2145 22.8091   3
  -6  12  -8 29.0843 22.8425   3
  -7  12  -8 16.0437 23.6112   3
  -8  12  -8 18.5287 25.1416   3
  -6 -11   8 37.3365 26.7543   4
  -6 -11   8 14.5550 24.8799   2
  -5 -11   8 -16.533 18.8923   1
   4  11  -8 43.9123 21.9349   5
  -4 -11   8 40.5456 20.9570   1
   3  11  -8 -7.9420 18.9735   5
  -3 -11   8 54.7944 19.9276   1
   2  11  -8 1.23464 19.9851   5
  -2 -11   8 -6.9838 17.3617   1
   1  11  -8 25.4473 19.2415   5
   0  11  -8 11.0774 16.8941   5
  -2  11  -8 67.4066 19.5335   3
  -3  11  -8 -17.218 17.6897   3
  -4  11  -8 -12.954 19.0980   3
  -5  11  -8 -2.0960 20.0182   3
  -6  11  -8 10.5306 20.7665   3
  -7  11  -8 -6.4666 21.3836   3
  -8  11  -8 48.6975 25.4887   3
  -9  11  -8 -2.2767 24.6431   3
  -7 -10   8 -29.984 22.7624   2
  -7 -10   8 -3.7502 23.4169   4
  -6 -10   8 -21.643 23.2379   4
  -6 -10   8 -21.533 18.4167   1
  -6 -10   8 -20.151 18.8016   2
  -5 -10   8 24.1857 19.6672   1
   4  10  -8 -10.564 17.8959   5
  -4 -10   8 8.04244 18.5265   1
   3  10  -8 38.6455 19.2592   5
  -3 -10   8 30.2322 18.9561   1
   2  10  -8 20.0119 18.7549   5
  -2 -10   8 18.9308 18.7741   1
   1  10  -8 123.216 21.8417   5
   0  10  -8 45.3572 18.8892   5
  -2  10  -8 36.2446 17.1580   3
  -3  10  -8 10.4736 17.7219   3
  -4  10  -8 74.6619 21.1314   3
  -5  10  -8 32.3710 20.8877   3
  -6  10  -8 84.1696 23.2276   3
  -7  10  -8 73.8703 24.0728   3
  -8  10  -8 1.89562 22.5210   3
  -9  10  -8 22.0603 22.5035   3
 -10  10  -8 20.0649 24.3808   3
  -8  -9   8 -1.1367 23.5971   2
  -8  -9   8 22.3986 25.6472   4
  -7  -9   8 14.6146 20.5753   1
  -7  -9   8 18.6196 23.8986   2
  -7  -9   8 -23.824 22.7129   4
  -6  -9   8 35.1086 20.2291   1
  -6  -9   8 -7.3587 18.2134   2
  -6  -9   8 -6.8037 21.9628   4
  -5  -9   8 18.6932 21.9446   4
  -5  -9   8 16.6998 19.2742   1
   4   9  -8 80.9855 29.3744   5
  -4  -9   8 73.0688 20.1343   1
   3   9  -8 32.7450 18.1212   5
  -3  -9   8 -13.791 17.3169   1
   2   9  -8 -29.324 16.4756   5
  -2  -9   8 -7.8770 16.5942   1
   1   9  -8 19.9794 17.3814   5
   0   9  -8 64.5992 17.9889   5
  -1   9  -8 164.988 19.0902   3
  -2   9  -8 196.772 21.5780   3
  -3   9  -8 118.097 20.5187   3
  -4   9  -8 37.6354 18.4589   3
  -5   9  -8 39.5445 19.3425   3
  -6   9  -8 9.42787 19.3826   3
  -7   9  -8 65.8287 22.4688   3
  -8   9  -8 -4.7427 20.7438   3
  -9   9  -8 -25.545 22.2065   3
 -10   9  -8 16.1089 23.3739   3
  -8  -8   8 23.4436 24.7410   4
  -8  -8   8 4.14370 23.8455   2
  -7  -8   8 28.6712 21.4265   4
  -7  -8   8 19.4429 22.5844   2
  -7  -8   8 21.3104 19.4653   1
  -6  -8   8 53.7796 23.3274   4
  -6  -8   8 49.8671 22.8895   2
  -6  -8   8 20.2649 18.8590   1
  -5  -8   8 21.2343 18.2122   1
  -5  -8   8 -12.478 20.4174   4
  -4  -8   8 -8.1475 16.3748   1
   3   8  -8 -0.1527 15.7817   5
  -3  -8   8 -6.5041 16.8182   1
   2   8  -8 197.345 22.7007   5
  -2  -8   8 198.452 22.6046   1
   1   8  -8 49.0234 16.5002   5
   0   8  -8 31.3553 16.6093   5
  -1   8  -8 6.10664 13.2311   3
  -2   8  -8 -9.8395 13.2390   3
  -3   8  -8 22.7990 15.2174   3
  -4   8  -8 54.7988 17.5234   3
  -5   8  -8 209.987 24.1149   3
  -6   8  -8 128.080 22.0926   3
  -7   8  -8 8.06862 17.3446   3
  -8   8  -8 -8.7615 19.4921   3
  -9   8  -8 -25.439 20.2588   3
 -10   8  -8 33.9662 24.1968   3
 -11   8  -8 39.6942 25.8505   3
  -9  -7   8 -6.4521 23.7297   4
  -9  -7   8 28.6971 25.1403   2
  -8  -7   8 1.85304 19.2663   1
  -8  -7   8 -14.081 22.3311   4
  -8  -7   8 -7.5501 22.4655   2
  -7  -7   8 -20.852 20.3425   2
  -7  -7   8 -23.745 17.5082   1
  -7  -7   8 41.6646 22.8642   4
  -6  -7   8 -0.6799 19.6037   2
  -6  -7   8 34.3590 21.3415   4
  -6  -7   8 13.3417 18.5148   1
  -5  -7   8 105.630 21.5712   1
  -5  -7   8 108.282 23.4519   4
  -4  -7   8 170.526 22.1586   1
   3   7  -8 18.8789 15.7927   5
  -3  -7   8 -0.4460 16.0476   1
   2   7  -8 -8.3200 14.2359   5
  -2  -7   8 18.1514 16.2245   1
   1   7  -8 0.87719 14.4060   5
  -1  -7   8 13.8536 15.9664   1
   0   7  -8 273.642 19.0885   3
  -1   7  -8 112.944 16.3253   3
  -2   7  -8 203.531 19.7173   3
  -3   7  -8 336.085 25.6209   3
  -4   7  -8 83.4312 17.6255   3
  -5   7  -8 7.26441 16.7441   3
  -6   7  -8 61.1516 19.6051   3
  -7   7  -8 79.9819 21.4974   3
  -8   7  -8 43.3811 20.8808   3
  -9   7  -8 55.0236 23.7859   3
 -10   7  -8 -8.9621 21.6148   3
 -11   7  -8 -13.517 22.8643   3
  -9  -6   8 -39.930 32.6667   1
  -9  -6   8 -33.942 23.6424   4
  -9  -6   8 26.7508 22.0263   2
  -8  -6   8 4.31525 19.4118   1
  -8  -6   8 35.0845 23.5485   4
  -8  -6   8 15.3664 23.3343   2
  -7  -6   8 68.5468 21.6132   1
  -7  -6   8 42.2839 22.5672   4
  -7  -6   8 47.7753 21.9816   2
  -6  -6   8 206.374 26.6539   4
  -6  -6   8 169.917 25.1569   2
  -6  -6   8 152.170 22.7393   1
  -5  -6   8 27.6287 18.0727   4
  -5  -6   8 -7.6084 16.1946   1
  -4  -6   8 1.10218 16.3950   4
  -4  -6   8 14.0722 16.3549   1
   3   6  -8 339.669 23.7850   5
  -3  -6   8 395.968 28.3927   1
   2   6  -8 430.217 23.9068   5
  -2  -6   8 419.552 25.0720   1
   1   6  -8 303.210 22.7549   5
  -1  -6   8 327.480 23.6117   1
   0   6  -8 181.950 15.5891   3
  -1   6  -8 22.7273 12.1121   3
  -2   6  -8 49.6295 14.7204   3
  -3   6  -8 30.5735 14.7298   3
  -4   6  -8 108.158 18.9364   3
  -5   6  -8 160.076 20.9210   3
  -6   6  -8 41.0489 18.7573   3
  -7   6  -8 10.5989 18.2300   3
  -8   6  -8 -22.313 17.4855   3
  -9   6  -8 20.0341 19.8488   3
 -10   6  -8 15.3484 22.7667   3
 -11   6  -8 -12.174 22.7887   3
  -9  -5   8 -29.308 22.0313   2
  -9  -5   8 -21.756 19.4221   1
  -9  -5   8 8.34679 22.7677   4
  -8  -5   8 -10.929 21.4391   4
  -8  -5   8 49.1422 21.4303   1
  -8  -5   8 -11.838 21.4288   2
  -7  -5   8 -23.568 16.0730   2
  -7  -5   8 -17.689 16.9913   1
  -7  -5   8 -0.6110 20.2653   4
  -6  -5   8 21.6258 18.0946   1
  -6  -5   8 20.2982 19.6026   2
  -6  -5   8 54.1937 20.3493   4
  -5  -5   8 123.237 20.8616   4
  -5  -5   8 103.889 19.2094   1
  -4  -5   8 28.5955 15.6605   4
  -4  -5   8 40.2271 17.6984   1
   3   5  -8 -1.6456 11.1991   5
  -3  -5   8 3.45221 13.1722   4
  -3  -5   8 -5.3370 12.7138   1
  -2  -5   8 67.8168 16.4529   1
   1   5  -8 2.30840 9.48039   3
  -1  -5   8 55.8285 14.9652   1
   0   5  -8 20.3582 10.6142   3
  -1   5  -8 209.312 16.5589   3
  -2   5  -8 391.032 21.9265   3
  -3   5  -8 163.996 17.0679   3
  -4   5  -8 36.0520 15.2847   3
  -5   5  -8 7.45355 15.5140   3
  -6   5  -8 94.1051 19.4302   3
  -7   5  -8 47.8040 19.0593   3
  -8   5  -8 87.6998 20.7059   3
  -9   5  -8 65.9524 23.0008   3
 -10   5  -8 34.3980 21.8557   3
 -11   5  -8 22.7528 23.8241   3
 -12   5  -8 19.0890 25.9949   3
 -10  -4   8 34.2183 23.9207   2
 -10  -4   8 -39.153 19.6243   1
 -10  -4   8 -25.814 24.1087   4
  -9  -4   8 27.1597 24.0321   4
  -9  -4   8 -12.659 21.7226   2
  -9  -4   8 33.3585 21.1046   1
  -8  -4   8 52.6552 22.3362   1
  -8  -4   8 70.4628 23.6922   4
  -8  -4   8 73.0317 23.3378   2
  -7  -4   8 100.672 23.1749   4
  -7  -4   8 96.6239 21.5707   1
  -7  -4   8 73.5764 22.0780   2
  -6  -4   8 -23.867 16.0816   1
  -6  -4   8 -7.9270 17.7341   4
  -6  -4   8 4.63721 17.3669   2
  -5  -4   8 12.3864 15.6029   1
  -5  -4   8 3.51344 16.5699   4
  -4  -4   8 398.382 25.0756   1
  -4  -4   8 407.674 26.4229   4
  -3  -4   8 619.399 28.5579   1
  -3  -4   8 583.837 26.0487   4
   2   4  -8 161.331 13.9729   3
  -2  -4   8 168.126 16.8880   1
   1   4  -8 427.852 17.6553   3
  -1  -4   8 446.911 24.1045   1
   0   4  -8 309.490 16.3587   3
  -1   4  -8 -12.444 9.44286   3
  -2   4  -8 150.450 15.4209   3
  -3   4  -8 160.298 17.1199   3
  -4   4  -8 309.312 23.1644   3
  -5   4  -8 238.939 21.8288   3
  -6   4  -8 182.041 21.4272   3
  -7   4  -8 -2.8024 14.8051   3
  -8   4  -8 12.5015 17.6007   3
  -9   4  -8 6.89650 20.6065   2
  -9   4  -8 41.1989 20.5969   3
 -10   4  -8 44.1255 21.6639   3
 -10   4  -8 26.3692 24.0318   2
 -11   4  -8 41.7374 25.7227   2
 -11   4  -8 -42.051 20.3836   3
 -12   4  -8 -32.353 24.9485   2
 -10  -3   8 -9.4855 22.1112   2
 -10  -3   8 29.7861 23.4248   1
 -10  -3   8 42.0150 25.9010   4
  -9  -3   8 14.5871 19.8937   1
  -9  -3   8 14.6279 22.8745   4
  -9  -3   8 20.1702 19.4429   2
  -8  -3   8 17.9847 18.7626   4
  -8  -3   8 -10.971 19.8506   2
  -8  -3   8 51.4922 20.4935   1
  -7  -3   8 82.5563 22.2985   4
  -7  -3   8 90.9408 21.2396   1
  -7  -3   8 56.5323 18.8820   2
  -6  -3   8 59.5439 19.0885   4
  -6  -3   8 39.9920 17.6184   1
  -6  -3   8 31.3593 18.2551   2
  -5  -3   8 70.0803 18.3132   2
  -5  -3   8 63.6205 18.3542   4
  -5  -3   8 42.8979 17.2551   1
  -4  -3   8 52.3359 15.9367   4
  -4  -3   8 19.0841 15.3111   1
  -3  -3   8 167.416 16.9655   4
  -3  -3   8 204.509 19.8011   1
   2   3  -8 15.6239 8.91982   3
  -2  -3   8 23.4566 11.0397   4
  -2  -3   8 15.3243 11.5596   1
   1   3  -8 -4.8961 8.14089   3
  -1  -3   8 -1.6788 10.6385   1
   0   3  -8 7.19924 9.36746   3
   0  -3   8 3.31642 10.3281   1
  -1   3  -8 239.700 16.5306   3
  -2   3  -8 677.648 22.7114   3
  -3   3  -8 123.740 15.1296   3
  -4   3  -8 239.167 18.4501   3
  -5   3  -8 -0.1877 13.5073   3
  -6   3  -8 67.6311 16.2037   3
  -7   3  -8 40.6275 16.3550   2
  -7   3  -8 48.5501 16.9538   3
  -8   3  -8 119.260 20.8407   3
  -8   3  -8 85.2987 22.2959   2
  -9   3  -8 59.4268 22.7186   2
  -9   3  -8 82.3069 20.5834   3
 -10   3  -8 5.66714 21.9946   2
 -10   3  -8 -4.5158 18.8022   3
 -11   3  -8 25.7748 24.3853   2
 -11   3  -8 43.2151 22.1035   3
 -12   3  -8 -10.669 25.7447   2
 -10  -2   8 9.59376 23.9409   2
 -10  -2   8 19.2719 22.1574   1
 -10  -2   8 29.3787 25.6439   4
  -9  -2   8 28.3063 22.1970   1
  -9  -2   8 54.3149 22.9908   2
  -9  -2   8 14.0271 20.5288   4
  -8  -2   8 4.05785 20.4896   2
  -8  -2   8 50.8913 18.1468   1
  -8  -2   8 23.3900 21.1709   4
  -7  -2   8 -7.6682 18.9131   4
  -7  -2   8 -3.2222 17.9166   2
  -7  -2   8 -4.4591 17.0522   1
  -6  -2   8 1.40324 14.7874   4
  -6  -2   8 8.34827 14.7481   2
  -6  -2   8 -5.8433 15.9259   1
  -5  -2   8 -7.3399 14.7802   4
  -5  -2   8 16.6719 15.3641   1
  -5  -2   8 -3.3861 15.3492   2
  -4  -2   8 378.463 23.2622   1
  -4  -2   8 325.542 23.5269   4
   3   2  -8 191.929 13.1380   3
  -3  -2   8 223.267 19.5263   1
  -3  -2   8 198.057 16.9219   4
   2   2  -8 242.804 14.5252   3
  -2  -2   8 219.228 15.1934   4
  -2  -2   8 231.811 18.2167   1
   1   2  -8 197.699 13.8394   3
  -1  -2   8 183.390 13.5121   4
  -1  -2   8 206.185 17.0896   1
   0   2  -8 23.8542 9.58398   3
   0  -2   8 24.6161 11.6072   1
   0  -2   8 23.1726 7.35640   4
  -1   2  -8 25.5570 9.91214   3
  -2   2  -8 1.68878 10.3384   3
  -3   2  -8 296.004 19.0156   3
  -4   2  -8 218.053 16.9545   3
  -5   2  -8 366.345 23.9445   3
  -6   2  -8 46.8538 15.2435   3
  -6   2  -8 27.6943 13.9252   2
  -7   2  -8 13.7403 15.2364   3
  -7   2  -8 -34.050 15.3633   2
  -8   2  -8 -12.123 17.9993   2
  -8   2  -8 11.0632 16.6979   3
  -9   2  -8 17.9733 20.5495   2
  -9   2  -8 4.72041 16.3724   3
 -10   2  -8 32.9023 19.9634   3
 -10   2  -8 61.2715 23.4930   2
 -11   2  -8 -7.6043 22.4012   2
 -12   2  -8 66.2641 27.6696   2
 -10  -1   8 10.7943 21.1285   1
 -10  -1   8 19.4754 24.3924   4
 -10  -1   8 -34.398 22.0656   2
  -9  -1   8 -24.960 19.3989   1
  -9  -1   8 17.6029 21.2938   4
  -9  -1   8 48.0123 21.8072   2
  -8  -1   8 2.74878 19.5885   4
  -8  -1   8 -4.4156 18.0315   2
  -8  -1   8 26.1939 19.0217   1
  -7  -1   8 115.710 22.2818   4
  -7  -1   8 55.6073 17.5617   2
  -7  -1   8 137.743 22.1202   1
  -6  -1   8 -23.452 15.9272   4
  -6  -1   8 -19.957 12.8531   2
  -6  -1   8 19.9759 17.0681   1
  -5  -1   8 56.6479 16.5618   1
  -5  -1   8 67.5022 16.5821   2
  -5  -1   8 85.2303 17.2955   4
  -4  -1   8 364.806 24.6554   1
  -4  -1   8 396.623 23.6931   4
   3   1  -8 170.583 13.4652   3
  -3  -1   8 201.510 18.7255   1
  -3  -1   8 183.402 16.2387   4
   2   1  -8 54.8418 9.97454   3
  -2  -1   8 49.1881 10.4166   4
  -2  -1   8 36.1136 11.7879   1
   1   1  -8 -3.3183 8.81357   3
  -1  -1   8 12.3541 7.92884   4
  -1  -1   8 -1.4178 10.4970   1
   0   1  -8 482.234 18.4207   3
   0  -1   8 451.998 18.4273   1
  -1   1  -8 2682.44 37.1077   3
  -2   1  -8 547.931 21.0344   3
  -3   1  -8 143.965 15.1934   3
  -4   1  -8 27.2853 10.5117   3
  -5   1  -8 -3.7450 12.2145   3
  -5   1  -8 -2.1531 11.0625   2
  -6   1  -8 30.8746 13.6966   2
  -6   1  -8 50.9241 15.3942   3
  -7   1  -8 85.4776 18.0740   3
  -7   1  -8 99.3967 19.4106   2
  -8   1  -8 9.92635 15.5745   3
  -8   1  -8 14.9767 18.3263   2
  -9   1  -8 86.6606 21.2633   2
  -9   1  -8 113.591 20.2238   3
 -10   1  -8 8.25038 22.8769   2
 -10   1  -8 41.1847 18.8536   3
 -11   1  -8 15.7903 23.4460   2
 -12   1  -8 -5.2515 24.8018   2
 -10   0   8 21.3890 21.5333   1
 -10   0   8 51.2057 25.2316   4
 -10   0   8 3.75454 23.7872   2
  -9   0   8 6.94770 22.2306   4
  -9   0   8 42.6049 21.5850   2
  -9   0   8 46.7980 22.2108   1
  -8   0   8 -7.7129 18.6927   1
  -8   0   8 -15.965 17.4790   2
  -8   0   8 0.56203 20.5257   4
  -7   0   8 24.2999 18.4543   2
  -7   0   8 35.8249 18.3668   1
  -7   0   8 28.1679 18.6007   4
  -6   0   8 7.59459 16.9817   1
  -6   0   8 -20.685 15.7439   4
  -6   0   8 6.96966 15.4944   2
  -5   0   8 -4.8623 13.1247   1
  -5   0   8 -1.9205 12.5893   4
  -5   0   8 -1.5594 13.2711   2
  -4   0   8 173.056 17.1961   2
  -4   0   8 202.576 19.3515   1
  -4   0   8 168.472 17.5845   4
  -3   0   8 143.188 15.1332   4
  -3   0   8 149.796 16.5801   1
   2   0  -8 258.894 16.5965   3
  -2   0   8 244.757 17.7901   1
  -2   0   8 255.323 15.7166   4
   1   0  -8 285.674 16.1868   3
  -1   0   8 259.520 16.0417   1
  -1   0   8 253.340 13.4984   4
   0   0  -8 728.016 21.3372   3
   0   0   8 731.493 20.3284   1
  -1   0  -8 521.030 19.9350   3
   1   0   8 497.972 17.8861   1
  -2   0  -8 136.389 12.7909   3
  -3   0  -8 318.647 17.2977   3
  -4   0  -8 405.040 21.2396   3
  -5   0  -8 167.726 17.2951   2
  -5   0  -8 207.551 17.4426   3
  -5   0  -8 173.184 12.0255   4
  -6   0  -8 17.1632 13.1415   3
  -6   0  -8 43.2155 15.2596   2
  -7   0  -8 3.56754 13.1640   3
  -7   0  -8 3.62597 14.1807   2
  -8   0  -8 4.15346 17.9699   2
  -8   0  -8 -2.4303 14.9329   3
  -9   0  -8 59.2979 21.8414   2
  -9   0  -8 80.7742 18.5154   3
 -10   0  -8 -25.273 21.4312   2
 -11   0  -8 47.4350 25.7468   2
 -12   0  -8 27.9534 26.5716   2
 -10   1   8 13.4971 20.9809   1
 -10   1   8 -6.1113 24.3815   4
 -10   1   8 -7.4534 22.8476   2
  -9   1   8 -34.522 18.6086   1
  -9   1   8 1.55292 21.8509   4
  -9   1   8 -12.108 20.2447   2
  -8   1   8 -19.086 18.3167   1
  -8   1   8 -2.7679 18.3359   2
  -8   1   8 -1.9590 20.3835   4
  -7   1   8 7.12344 18.4529   1
  -7   1   8 -1.2878 16.2778   2
  -7   1   8 13.9704 19.0382   4
  -6   1   8 41.7232 18.5573   4
  -6   1   8 39.0688 17.0377   1
  -6   1   8 68.3658 16.5382   2
  -5   1   8 306.707 21.9037   2
  -5   1   8 306.040 23.7396   4
  -5   1   8 298.471 24.0569   1
  -4   1   8 258.002 19.5711   1
  -4   1   8 268.205 20.2169   2
  -4   1   8 263.209 20.0704   4
  -3   1   8 27.8644 11.3138   1
  -3   1   8 6.55070 10.9697   4
  -2   1   8 12.5054 9.36005   4
  -2   1   8 2.08590 10.4711   1
   1  -1  -8 53.9984 11.0570   3
  -1   1   8 79.5629 12.1142   1
  -1   1   8 65.1709 9.46662   4
   0  -1  -8 1813.47 30.1305   3
   0   1   8 1802.54 28.1605   1
  -1  -1  -8 1862.55 30.7850   3
   1   1   8 1918.96 27.2926   1
  -2  -1  -8 308.476 16.5499   3
   2   1   8 315.934 13.5121   1
  -3  -1  -8 61.1543 12.5801   3
  -4  -1  -8 127.786 13.3046   2
  -4  -1  -8 131.604 14.8110   3
  -5  -1  -8 27.8054 12.1602   3
  -5  -1  -8 19.2168 7.76960   4
  -5  -1  -8 20.3814 11.0892   2
  -6  -1  -8 47.3515 10.7551   4
  -6  -1  -8 74.4449 16.1954   2
  -6  -1  -8 35.3171 12.9600   3
  -7  -1  -8 179.894 20.1146   2
  -7  -1  -8 200.922 19.1194   3
  -8  -1  -8 82.7333 17.3170   3
  -8  -1  -8 75.4879 19.7593   2
  -9  -1  -8 62.3267 17.3127   3
  -9  -1  -8 41.2897 18.1898   2
 -10  -1  -8 -0.3316 21.5375   2
 -11  -1  -8 31.3913 24.6506   2
 -12  -1  -8 27.0354 26.8828   2
 -10   2   8 13.5601 23.0336   4
 -10   2   8 7.93220 20.7216   1
 -10   2   8 19.9274 21.8646   2
  -9   2   8 13.5074 18.4078   1
  -9   2   8 7.58375 20.3458   2
  -9   2   8 -10.528 22.2687   4
  -8   2   8 129.003 25.0485   4
  -8   2   8 72.8111 22.4968   2
  -8   2   8 73.4853 20.3758   1
  -7   2   8 85.6645 19.0154   2
  -7   2   8 57.6945 18.5924   4
  -7   2   8 81.2532 20.5283   1
  -6   2   8 14.9727 16.3521   1
  -6   2   8 36.2344 18.2485   4
  -6   2   8 18.8806 15.1029   2
  -5   2   8 24.4798 15.2291   1
  -5   2   8 31.3685 16.2734   4
  -5   2   8 25.9737 13.0888   2
  -4   2   8 83.1999 13.1928   2
  -4   2   8 92.4521 16.9067   1
  -4   2   8 42.6114 14.7978   4
  -3   2   8 432.472 21.3526   4
  -3   2   8 408.115 19.4885   2
  -3   2   8 433.203 21.3883   1
  -2   2   8 586.104 21.8662   1
  -2   2   8 584.863 19.7151   4
  -1   2   8 45.4810 10.1366   1
  -1   2   8 45.5352 9.16195   4
   0  -2  -8 902.090 24.0838   3
   0   2   8 918.858 20.5908   1
  -1  -2  -8 152.641 14.0598   3
   1   2   8 154.779 10.6915   1
  -2  -2  -8 111.162 13.0528   3
   2   2   8 100.383 8.68090   1
  -3  -2  -8 144.676 14.1757   3
  -4  -2  -8 49.7797 10.9407   2
  -4  -2  -8 23.8244 10.8334   3
  -5  -2  -8 43.1969 12.8550   2
  -5  -2  -8 38.9214 12.4366   3
  -5  -2  -8 42.0878 8.96920   4
  -6  -2  -8 38.5788 12.6785   2
  -6  -2  -8 23.9782 9.98138   4
  -6  -2  -8 32.6009 12.1181   3
  -7  -2  -8 -0.0590 12.8500   3
  -7  -2  -8 14.6637 11.5276   4
  -7  -2  -8 -1.3939 15.4861   2
  -8  -2  -8 56.8841 15.4802   3
  -8  -2  -8 17.5212 18.0590   2
  -9  -2  -8 13.3167 19.2462   2
 -10  -2  -8 13.9986 22.2377   2
 -11  -2  -8 48.3623 24.5956   2
 -12  -2  -8 20.7533 25.7391   2
 -10   3   8 66.8048 29.4085   4
 -10   3   8 20.9742 23.9095   1
 -10   3   8 14.8995 22.4270   2
  -9   3   8 11.7307 19.2218   2
  -9   3   8 -7.7667 22.9153   4
  -9   3   8 27.2583 20.5642   1
  -8   3   8 -26.849 21.1993   4
  -8   3   8 -4.3820 19.0018   1
  -8   3   8 27.8996 18.8984   2
  -7   3   8 29.1320 17.8506   2
  -7   3   8 19.6721 19.4270   4
  -7   3   8 12.6100 15.3606   1
  -6   3   8 151.485 21.3422   1
  -6   3   8 173.497 23.4642   4
  -6   3   8 168.251 19.1286   2
  -5   3   8 86.1997 18.3998   4
  -5   3   8 103.056 16.5284   1
  -5   3   8 119.975 15.8009   2
  -4   3   8 345.050 19.3326   2
  -4   3   8 328.647 23.5051   1
  -4   3   8 319.999 21.3425   4
  -3   3   8 -4.0304 11.7485   1
  -3   3   8 -4.4962 10.2012   4
  -3   3   8 -8.1629 8.23192   2
  -2   3   8 104.223 12.9840   4
  -2   3   8 68.8622 11.7996   1
  -1   3   8 419.096 16.6775   4
  -1   3   8 421.848 17.9948   1
   0   3   8 556.423 17.3916   1
   0   3   8 548.926 16.5139   4
  -1  -3  -8 1414.41 28.0275   3
   1   3   8 1405.19 20.7887   1
  -2  -3  -8 86.1217 12.5984   3
   2   3   8 113.081 7.93718   1
  -3  -3  -8 356.822 18.4574   3
  -3  -3  -8 357.291 16.2532   2
   3   3   8 369.231 9.44990   1
  -4  -3  -8 63.7871 11.3357   2
  -4  -3  -8 54.4478 11.6712   3
  -5  -3  -8 47.5548 12.2983   3
  -5  -3  -8 44.9691 10.0833   4
  -5  -3  -8 60.8565 12.5984   2
  -6  -3  -8 84.9203 15.8621   2
  -6  -3  -8 75.3865 13.9507   3
  -6  -3  -8 95.3795 12.6771   4
  -7  -3  -8 176.276 16.6470   4
  -7  -3  -8 169.189 19.4065   2
  -7  -3  -8 204.689 18.2651   3
  -8  -3  -8 101.213 18.3462   2
  -8  -3  -8 123.341 17.1714   4
  -8  -3  -8 174.962 27.5356   3
  -9  -3  -8 35.0051 20.3748   2
 -10  -3  -8 -4.0430 20.5352   2
 -11  -3  -8 -12.885 18.9915   2
 -12  -3  -8 -30.137 23.9195   2
 -10   4   8 25.5226 22.1848   1
 -10   4   8 0.40473 27.2216   4
  -9   4   8 56.4664 20.6934   1
  -9   4   8 42.5039 26.4910   4
  -9   4   8 50.8914 21.5960   2
  -8   4   8 56.0283 19.8095   2
  -8   4   8 57.3333 20.3682   1
  -8   4   8 45.0988 24.7976   4
  -7   4   8 23.7647 19.0039   1
  -7   4   8 13.3873 16.6817   2
  -7   4   8 -6.2840 20.6487   4
  -6   4   8 8.37171 13.8174   1
  -6   4   8 -7.0805 15.9051   4
  -6   4   8 4.85293 14.2178   2
  -5   4   8 88.7908 17.6262   1
  -5   4   8 54.8872 13.6679   2
  -5   4   8 44.3897 17.8172   4
  -4   4   8 113.353 13.0115   2
  -4   4   8 115.097 17.3529   1
  -4   4   8 132.350 18.6497   4
  -3   4   8 243.647 18.4296   4
  -3   4   8 238.474 18.5532   1
  -3   4   8 246.780 15.4266   2
  -2   4   8 172.968 15.7439   4
  -2   4   8 165.466 11.3934   2
  -2   4   8 157.930 14.8226   1
  -1   4   8 283.801 15.9484   1
  -1   4   8 268.889 16.0941   4
   0   4   8 241.662 14.1848   1
   1   4   8 -0.9449 6.82111   1
  -2  -4  -8 225.991 16.0426   3
   2   4   8 172.786 9.12699   1
  -3  -4  -8 30.6100 8.48661   2
  -3  -4  -8 20.4339 10.2509   3
  -4  -4  -8 112.111 12.1649   2
  -4  -4  -8 91.7847 12.8685   3
  -5  -4  -8 70.5266 12.6502   2
  -5  -4  -8 100.122 13.4518   3
  -6  -4  -8 71.3412 14.6931   2
  -6  -4  -8 67.7320 12.8922   3
  -6  -4  -8 34.2009 12.2440   4
  -7  -4  -8 23.6798 11.9664   3
  -7  -4  -8 15.4135 12.4933   4
  -7  -4  -8 13.3450 14.7716   2
  -8  -4  -8 -1.1688 13.8506   4
  -8  -4  -8 -27.693 15.6345   2
  -9  -4  -8 -23.953 17.4894   2
 -10  -4  -8 12.6948 20.9119   2
 -11  -4  -8 17.8710 22.4080   2
 -12  -4  -8 20.5180 25.3507   2
 -10   5   8 18.2285 22.6167   1
 -10   5   8 5.90593 28.2679   4
  -9   5   8 7.95896 20.5856   1
  -9   5   8 -60.529 23.1809   4
  -8   5   8 -33.091 15.7143   1
  -8   5   8 0.73813 23.9652   4
  -7   5   8 51.3854 18.8891   1
  -7   5   8 93.8954 25.2915   4
  -6   5   8 155.572 24.4362   4
  -6   5   8 84.8755 19.0812   1
  -6   5   8 157.368 21.6490   2
  -5   5   8 8.83674 17.5186   4
  -5   5   8 20.6074 12.1959   2
  -5   5   8 1.93389 15.4142   1
  -4   5   8 182.619 14.3638   2
  -4   5   8 186.722 20.3456   4
  -4   5   8 205.787 19.7791   1
  -3   5   8 55.2354 13.7246   1
  -3   5   8 83.0636 15.6823   4
  -3   5   8 61.0467 9.40728   2
  -2   5   8 85.9833 13.2803   1
  -2   5   8 75.8949 13.8949   4
  -2   5   8 85.5258 8.05620   2
  -1   5   8 129.328 12.6674   1
   0   5   8 165.730 11.7286   1
   1   5   8 113.808 8.78094   1
  -2  -5  -8 148.056 14.5595   3
   2   5   8 136.837 7.46247   1
  -3  -5  -8 226.093 16.2291   3
  -3  -5  -8 198.102 13.9525   2
  -4  -5  -8 15.5376 9.28218   2
  -4  -5  -8 17.9507 10.0046   3
  -5  -5  -8 97.6955 13.7708   2
  -5  -5  -8 90.3013 13.1359   3
  -6  -5  -8 73.4686 13.5316   3
  -6  -5  -8 89.1051 15.1035   2
  -7  -5  -8 123.450 18.2640   2
  -7  -5  -8 107.679 16.6282   4
  -8  -5  -8 14.5674 14.1911   4
  -8  -5  -8 45.4143 17.7015   2
  -9  -5  -8 18.3220 16.7268   4
  -9  -5  -8 -3.0276 18.3170   2
 -10  -5  -8 -19.323 21.1788   2
 -11  -5  -8 0.24639 23.0986   2
 -12  -5  -8 13.5948 24.6483   2
 -10   6   8 19.9847 26.2688   1
 -10   6   8 61.0534 30.2703   4
  -9   6   8 69.6996 24.1662   1
  -9   6   8 35.1979 27.7237   4
  -8   6   8 24.1752 18.4511   1
  -8   6   8 13.6863 24.1528   4
  -7   6   8 27.1908 18.8667   1
  -7   6   8 23.0158 23.5736   4
  -6   6   8 -3.6181 20.2475   4
  -6   6   8 -2.6942 15.3592   1
  -5   6   8 31.8411 14.7881   1
  -5   6   8 38.4626 18.9411   4
  -4   6   8 25.0142 16.4399   4
  -4   6   8 11.1063 14.6665   1
  -3   6   8 270.735 19.7064   1
  -3   6   8 265.747 21.4029   4
  -2   6   8 139.069 16.5785   4
  -2   6   8 129.141 14.5308   1
  -1   6   8 123.705 12.7695   1
   0   6   8 66.5885 9.77450   1
   1   6   8 36.1969 7.12280   1
  -3  -6  -8 42.0261 11.4956   3
  -3  -6  -8 46.8577 8.47922   2
  -4  -6  -8 240.763 16.8471   2
  -4  -6  -8 234.824 17.7592   3
  -5  -6  -8 59.3066 12.3572   3
  -5  -6  -8 57.5249 11.9718   2
  -6  -6  -8 98.7112 13.9479   3
  -6  -6  -8 67.7012 14.2965   2
  -7  -6  -8 1.64797 13.9586   2
  -8  -6  -8 33.1388 17.1437   2
  -8  -6  -8 27.2464 16.4999   4
  -9  -6  -8 33.8866 19.9335   2
  -9  -6  -8 51.5783 18.8448   4
 -10  -6  -8 20.6515 20.7774   2
 -11  -6  -8 -15.242 22.2674   2
 -12  -6  -8 53.2001 27.0673   2
 -10   7   8 16.7496 27.8371   4
  -9   7   8 12.6204 26.9687   4
  -9   7   8 -3.4581 20.4420   1
  -8   7   8 -5.8033 20.9787   4
  -8   7   8 8.28022 17.9796   1
  -7   7   8 38.0088 20.8817   4
  -7   7   8 54.4384 20.7356   1
  -6   7   8 45.4093 19.0082   1
  -6   7   8 53.8304 22.8826   4
  -5   7   8 147.492 21.4722   1
  -5   7   8 127.465 22.5823   4
  -4   7   8 122.639 19.3162   4
  -4   7   8 152.884 19.0650   1
  -3   7   8 31.7770 15.7844   4
  -3   7   8 46.5320 14.1432   1
  -2   7   8 2.38439 10.7159   1
  -2   7   8 9.59898 9.58329   5
  -1   7   8 202.117 14.7793   1
   0   7   8 225.266 14.6784   1
   1   7   8 346.878 13.9562   1
  -3  -7  -8 50.6959 12.1054   3
  -4  -7  -8 -7.3159 9.72447   3
  -4  -7  -8 17.0655 9.74977   2
  -5  -7  -8 9.17647 10.7435   2
  -5  -7  -8 5.04419 9.88616   3
  -6  -7  -8 38.3419 13.3695   2
  -7  -7  -8 32.4976 14.6603   2
  -8  -7  -8 20.0867 16.4018   2
  -8  -7  -8 -14.750 16.1006   4
  -9  -7  -8 2.31472 18.3009   2
  -9  -7  -8 18.4551 17.6698   4
 -10  -7  -8 3.55763 21.2514   2
 -10  -7  -8 2.32417 19.4262   4
 -11  -7  -8 20.4425 24.4331   2
  -9   8   8 8.67168 27.3619   4
  -9   8   8 37.2575 23.4230   1
  -8   8   8 6.80461 24.9528   4
  -8   8   8 27.5133 19.2464   1
  -7   8   8 55.9240 21.3506   1
  -7   8   8 25.1214 24.6411   4
  -6   8   8 9.87158 22.3081   4
  -6   8   8 17.1397 18.5123   1
  -5   8   8 -17.123 15.1226   1
  -5   8   8 -11.177 18.5257   4
  -4   8   8 19.5601 18.2392   4
  -4   8   8 -5.4631 14.7647   1
  -3   8   8 185.041 18.3006   1
  -2   8   8 127.328 13.7396   5
  -2   8   8 88.7983 14.5695   1
  -1   8   8 141.683 15.0408   5
  -1   8   8 117.530 13.3517   1
   0   8   8 13.7085 9.28595   1
   1   8   8 1.05573 8.82678   1
  -3  -8  -8 131.392 14.8755   3
  -4  -8  -8 48.3384 12.0935   3
  -6  -8  -8 12.3043 20.1689   2
  -7  -8  -8 18.1090 14.8570   2
  -8  -8  -8 19.3396 16.9182   2
  -9  -8  -8 51.4284 20.2978   4
  -9  -8  -8 49.0937 20.1726   2
 -10  -8  -8 18.2678 20.1214   4
 -10  -8  -8 7.00968 20.8511   2
 -11  -8  -8 48.4696 25.1397   2
  -9   9   8 11.6122 27.8086   4
  -9   9   8 -3.8426 22.1644   1
  -8   9   8 19.5618 27.0412   4
  -8   9   8 18.5990 19.4848   1
  -7   9   8 33.5271 20.4474   1
  -7   9   8 25.2216 24.8547   4
  -6   9   8 94.5297 22.0278   1
  -6   9   8 103.432 25.6968   4
  -5   9   8 232.995 28.1013   4
  -5   9   8 138.035 20.5302   1
  -4   9   8 8.45319 15.3737   1
  -3   9   8 -25.707 13.1049   1
  -2   9   8 31.9303 12.2408   5
  -2   9   8 27.4935 12.8912   1
  -1   9   8 35.4756 11.9354   1
  -1   9   8 53.6270 13.3759   5
   0   9   8 152.190 13.9473   1
   0   9   8 146.053 16.2265   5
  -4  -9  -8 -11.397 10.7321   3
  -9  -9  -8 -10.548 18.3724   4
 -10  -9  -8 19.1773 20.7531   4
  -9  10   8 35.5724 27.8955   4
  -8  10   8 66.3014 22.5670   1
  -8  10   8 67.5888 30.5500   4
  -7  10   8 19.8214 21.9075   1
  -7  10   8 21.0666 26.8187   4
  -6  10   8 8.22227 19.7267   1
  -5  10   8 -17.024 15.3575   1
  -4  10   8 122.395 21.1217   1
  -3  10   8 146.416 18.6689   1
  -2  10   8 159.314 17.4925   5
  -2  10   8 147.022 17.5763   1
  -1  10   8 85.4065 15.7608   5
  -1  10   8 68.6324 13.6259   1
   0  10   8 1.50373 13.6183   5
   1  10   8 -3.9390 12.1227   5
 -10 -10  -8 -13.626 20.7361   4
  -8  11   8 15.4191 23.1496   1
  -7  11   8 22.9665 22.2397   1
  -6  11   8 87.9978 23.8760   1
  -5  11   8 60.6493 21.3110   1
  -4  11   8 14.3847 18.2259   1
  -3  11   8 -1.7289 15.3791   1
  -2  11   8 8.84442 14.2773   1
  -2  11   8 -14.165 13.0163   5
  -1  11   8 23.2718 13.1992   1
  -1  11   8 37.0891 14.8245   5
   0  11   8 51.5686 15.8183   5
   1  11   8 -10.331 15.0071   5
   2  11   8 27.8333 16.7494   5
   3  11   8 16.5111 16.1516   5
   4  11   8 -30.614 15.7787   5
   5  11   8 15.8610 16.1448   5
   6  11   8 7.67943 16.4088   5
   7  11   8 40.3119 19.4721   5
   8  11   8 -4.6879 18.2256   5
   9  11   8 25.5372 21.6088   5
 -10 -11  -8 -29.885 21.1079   4
  -8  12   8 17.1898 27.2821   1
  -7  12   8 20.3931 23.8869   1
  -6  12   8 17.4649 22.0703   1
  -5  12   8 18.4636 20.3246   1
  -4  12   8 96.8870 21.1170   1
  -3  12   8 27.3711 16.8850   1
  -2  12   8 68.4514 16.6053   5
  -2  12   8 47.0120 16.0040   1
  -1  12   8 38.0845 16.2092   5
   0  12   8 3.91730 14.5242   5
   1  12   8 16.0320 14.3330   5
   2  12   8 -3.2595 16.8886   5
   3  12   8 75.3174 20.3455   5
   4  12   8 40.9555 17.5557   5
   5  12   8 47.8897 20.8042   5
   6  12   8 -8.6950 19.3742   5
   7  12   8 2.05445 20.2351   5
   8  12   8 -17.132 18.4548   5
   9  12   8 1.39885 21.3306   5
  -7  13   8 -42.107 21.2889   1
  -6  13   8 33.4186 23.1839   1
  -5  13   8 45.5302 22.0185   1
  -4  13   8 31.6536 18.9905   1
  -3  13   8 0.27256 16.6281   1
  -2  13   8 1.91086 15.0511   5
  -1  13   8 -4.1215 15.7962   5
   0  13   8 39.4234 18.0517   5
   1  13   8 45.2113 18.2748   5
   2  13   8 47.1301 19.1379   5
   3  13   8 22.7125 16.9499   5
   4  13   8 -5.2707 18.1765   5
   5  13   8 5.18371 16.7058   5
   6  13   8 -18.982 19.7567   5
   7  13   8 -21.891 18.8598   5
   8  13   8 62.8555 24.0782   5
   9  13   8 28.3933 22.5491   5
  -6  14   8 15.4550 23.1658   1
  -5  14   8 70.7869 23.2666   1
  -4  14   8 27.7627 19.9667   1
  -2  14   8 16.6190 17.3726   5
  -1  14   8 -6.1022 16.0986   5
   0  14   8 2.00033 16.9902   5
   1  14   8 -17.737 18.5182   5
   2  14   8 18.7042 19.9751   5
   3  14   8 29.8472 20.2800   5
   4  14   8 20.2496 20.4440   5
   5  14   8 27.1829 21.0126   5
   6  14   8 22.4052 21.4619   5
   7  14   8 2.60342 20.7510   5
   8  14   8 -1.5361 21.6808   5
  -6  15   8 36.4808 24.4815   1
  -2  15   8 20.0434 18.9021   5
  -1  15   8 -1.6435 18.8681   5
   0  15   8 47.7894 19.3789   5
   1  15   8 -11.264 18.2937   5
   2  15   8 -2.9469 17.5745   5
   3  15   8 -21.355 19.9084   5
   4  15   8 13.4844 21.0636   5
   5  15   8 2.59347 21.5918   5
   6  15   8 21.5495 22.6999   5
   7  15   8 -15.778 20.8045   5
  -2  16   8 9.83262 20.3611   5
  -1  16   8 -6.8562 19.0570   5
   0  16   8 2.93660 19.9899   5
   1  16   8 -5.8197 19.8124   5
   2  16   8 51.3528 21.0729   5
   3  16   8 25.2629 23.0369   5
   4  16   8 -2.9218 19.8738   5
   5  16   8 31.5271 24.4695   5
   6  16   8 12.7245 20.5850   5
  -1  17   8 1.38031 19.9458   5
   0  17   8 50.3058 21.7186   5
   1  17   8 12.7543 22.0825   5
   2  17   8 22.4217 19.4678   5
   3  17   8 -42.542 20.5306   5
   4  17   8 6.86703 23.4974   5
  -1  18   8 -19.370 20.7230   5
   0  18   8 -4.7004 22.8145   5
   1  18   8 18.3608 21.9885   5
   2  18   8 14.9282 23.1975   5
  -1 -15   9 -4.4059 25.8771   1
   3  14  -9 13.6999 22.3774   5
  -3 -14   9 -15.354 24.0186   1
   2  14  -9 -12.410 22.4589   5
  -2 -14   9 -26.169 20.3873   1
  -1 -14   9 1.44347 20.9538   1
  -5  14  -9 4.99352 25.3970   3
  -6  14  -9 -16.300 26.2292   3
  -4 -13   9 8.82881 23.0858   1
   3  13  -9 1.33945 21.6342   5
  -3 -13   9 15.3370 22.9152   1
   2  13  -9 17.7482 21.2912   5
  -2 -13   9 -7.0786 20.2020   1
   1  13  -9 14.3487 22.7547   5
  -1 -13   9 31.5454 22.5878   1
  -4  13  -9 -32.769 20.1572   3
  -5  13  -9 23.1080 23.6120   3
  -6  13  -9 15.1015 24.4112   3
  -7  13  -9 58.3289 26.6026   3
  -5 -12   9 -2.2590 21.8473   1
  -4 -12   9 -11.321 21.5436   1
   3  12  -9 14.4570 19.9019   5
  -3 -12   9 11.1202 21.3066   1
   2  12  -9 -37.184 18.5343   5
  -2 -12   9 16.1334 21.4119   1
   1  12  -9 -63.607 17.0920   5
  -1 -12   9 17.2751 20.5660   1
  -3  12  -9 23.9392 20.4088   3
  -4  12  -9 -48.424 18.9843   3
  -5  12  -9 -10.499 21.3852   3
  -6  12  -9 -14.610 22.7129   3
  -7  12  -9 -24.713 22.1717   3
  -8  12  -9 24.9373 25.7376   3
  -6 -11   9 -32.283 24.8730   4
  -6 -11   9 -53.783 21.6399   2
  -5 -11   9 -9.0603 19.4715   1
  -5 -11   9 -1.5640 24.5101   4
  -4 -11   9 22.3662 21.3573   1
   3  11  -9 41.0479 20.1981   5
  -3 -11   9 18.8244 20.2828   1
   2  11  -9 26.8202 19.3853   5
  -2 -11   9 37.9646 21.3058   1
   1  11  -9 35.3426 20.5892   5
  -1 -11   9 97.6794 23.4534   1
  -3  11  -9 20.2956 18.8198   3
  -4  11  -9 40.1780 21.5271   3
  -5  11  -9 7.69321 21.3457   3
  -6  11  -9 27.1763 22.7073   3
  -7  11  -9 16.5030 23.5252   3
  -8  11  -9 -33.072 21.8296   3
  -9  11  -9 -28.983 23.0389   3
  -7 -10   9 4.71415 24.7760   4
  -7 -10   9 -21.932 23.1325   2
  -6 -10   9 13.6910 20.4199   1
  -6 -10   9 -62.578 21.2620   2
  -6 -10   9 22.8193 25.5088   4
  -5 -10   9 32.4836 20.6536   1
  -5 -10   9 4.28672 22.9430   4
  -4 -10   9 56.5506 21.6769   1
   3  10  -9 43.2563 19.2722   5
  -3 -10   9 46.6307 20.1207   1
   2  10  -9 36.4374 18.7758   5
  -2 -10   9 22.7685 19.1869   1
   1  10  -9 16.3562 18.4579   5
  -1 -10   9 -25.489 18.3202   1
  -2  10  -9 106.129 20.5429   3
  -3  10  -9 40.2567 20.0713   3
  -4  10  -9 -18.805 18.3993   3
  -5  10  -9 18.0222 19.7411   3
  -6  10  -9 10.1720 20.2707   3
  -7  10  -9 52.0479 23.5540   3
  -8  10  -9 15.1660 22.8036   3
  -9  10  -9 11.5524 24.6306   3
  -7  -9   9 28.0345 21.9177   1
  -7  -9   9 19.9197 25.0189   4
  -7  -9   9 19.2016 24.4853   2
  -6  -9   9 -17.629 21.0023   2
  -6  -9   9 5.09983 22.9279   4
  -6  -9   9 -10.130 19.5309   1
  -5  -9   9 18.4125 19.9002   1
  -5  -9   9 44.1139 23.3546   4
  -4  -9   9 -7.5936 18.6336   1
   3   9  -9 33.7220 18.1801   5
  -3  -9   9 43.0737 20.2286   1
   2   9  -9 112.133 20.1252   5
  -2  -9   9 71.5647 19.9207   1
   1   9  -9 37.7701 18.5086   5
  -1  -9   9 37.3952 16.6667   1
  -1   9  -9 25.6069 17.2725   3
  -2   9  -9 46.3216 17.1095   3
  -3   9  -9 -5.7601 16.4392   3
  -4   9  -9 119.455 22.0433   3
  -5   9  -9 68.0565 21.0016   3
  -6   9  -9 119.432 24.1744   3
  -7   9  -9 37.2426 20.7986   3
  -8   9  -9 -11.185 20.2687   3
  -9   9  -9 -5.0710 22.6782   3
 -10   9  -9 21.7879 25.1718   3
  -8  -8   9 5.39819 25.1526   4
  -8  -8   9 -19.540 23.0266   2
  -7  -8   9 9.70306 20.3297   1
  -7  -8   9 -14.371 22.0598   4
  -7  -8   9 20.9527 22.8874   2
  -6  -8   9 3.93325 21.6031   2
  -6  -8   9 16.1822 22.1519   4
  -6  -8   9 19.4815 18.8223   1
  -5  -8   9 35.7405 20.0455   1
  -5  -8   9 12.0600 21.2621   4
  -4  -8   9 45.8207 20.3971   1
   3   8  -9 34.9787 17.3891   5
  -3  -8   9 91.9248 21.1705   1
   2   8  -9 53.4301 17.8002   5
  -2  -8   9 40.0387 17.9623   1
  -1  -8   9 159.328 21.7900   1
  -1   8  -9 181.052 19.6939   3
  -2   8  -9 362.254 25.5607   3
  -3   8  -9 133.122 20.5368   3
  -4   8  -9 -9.2232 16.3434   3
  -5   8  -9 -8.0774 17.5654   3
  -6   8  -9 14.1412 16.8153   3
  -7   8  -9 76.7042 20.9427   3
  -8   8  -9 57.3191 21.3977   3
  -9   8  -9 56.9481 22.0457   3
 -10   8  -9 9.97676 22.7449   3
  -8  -7   9 37.3082 26.1420   4
  -8  -7   9 53.5255 22.2899   1
  -8  -7   9 65.7576 26.2741   2
  -7  -7   9 -13.625 17.6501   1
  -7  -7   9 -3.0757 20.9410   2
  -7  -7   9 -5.3146 22.1542   4
  -6  -7   9 21.4833 21.3489   2
  -6  -7   9 28.1227 21.9598   4
  -6  -7   9 3.24018 17.5006   1
  -5  -7   9 -22.171 17.4348   1
  -5  -7   9 15.3908 20.1829   4
  -4  -7   9 15.2493 17.7500   1
  -4  -7   9 36.7053 19.5796   4
   3   7  -9 14.1566 15.6053   5
  -3  -7   9 39.3430 17.9133   1
  -2  -7   9 23.9273 16.6940   1
  -1  -7   9 17.5254 15.9274   1
   0   7  -9 15.5412 12.8177   3
  -1   7  -9 6.34222 13.9477   3
  -2   7  -9 1.99265 14.0188   3
  -3   7  -9 -12.066 14.5159   3
  -4   7  -9 148.414 21.2291   3
  -5   7  -9 55.0722 18.2301   3
  -6   7  -9 55.1761 20.2493   3
  -7   7  -9 54.9748 19.9758   3
  -8   7  -9 14.5185 18.3242   3
  -9   7  -9 9.56019 21.4075   3
 -10   7  -9 -30.241 21.6735   3
 -11   7  -9 24.3876 25.5213   3
  -9  -6   9 -1.5831 25.2044   4
  -9  -6   9 19.5158 22.1934   1
  -9  -6   9 -6.5563 24.1567   2
  -8  -6   9 -7.5106 19.4039   1
  -8  -6   9 17.3485 21.0513   2
  -8  -6   9 -3.3186 23.2437   4
  -7  -6   9 -11.934 20.4990   2
  -7  -6   9 -30.014 19.8018   4
  -7  -6   9 20.6661 20.2825   1
  -6  -6   9 10.2354 18.8584   1
  -6  -6   9 12.5807 20.8038   2
  -6  -6   9 -29.005 19.3602   4
  -5  -6   9 53.8642 18.8055   1
  -5  -6   9 39.1148 20.1416   4
  -4  -6   9 57.5918 19.3304   4
  -4  -6   9 46.9830 18.3941   1
  -3  -6   9 15.3692 16.3161   1
  -2  -6   9 172.473 21.9112   1
  -1  -6   9 191.561 19.8815   1
   0   6  -9 208.474 17.6577   3
  -1   6  -9 248.275 19.2564   3
  -2   6  -9 216.236 19.8739   3
  -3   6  -9 190.168 20.7779   3
  -4   6  -9 65.8562 16.1841   3
  -5   6  -9 22.2585 16.8271   3
  -6   6  -9 25.8732 17.9988   3
  -7   6  -9 97.7667 21.6745   3
  -8   6  -9 130.227 24.2748   3
  -9   6  -9 51.7123 22.9703   3
 -10   6  -9 29.6315 22.2433   3
 -11   6  -9 19.2375 24.7895   3
  -9  -5   9 -11.261 22.4551   1
  -9  -5   9 -21.933 22.5044   2
  -9  -5   9 81.8812 27.1715   4
  -8  -5   9 34.2693 21.8995   1
  -8  -5   9 20.7481 23.7476   4
  -8  -5   9 27.9657 20.0695   2
  -7  -5   9 13.7570 20.7986   4
  -7  -5   9 9.46625 20.4963   2
  -7  -5   9 6.35404 18.8164   1
  -6  -5   9 43.3307 20.0140   4
  -6  -5   9 66.7519 21.7379   2
  -6  -5   9 6.96104 17.6451   1
  -5  -5   9 65.7765 20.0466   4
  -5  -5   9 54.5828 19.5248   1
  -4  -5   9 11.5487 16.5326   1
  -4  -5   9 21.8631 17.1026   4
  -3  -5   9 6.51753 14.8961   4
  -3  -5   9 16.9847 14.1459   1
  -2  -5   9 227.111 21.3805   1
   1   5  -9 255.906 17.3204   3
  -1  -5   9 324.073 23.3789   1
   0   5  -9 18.5778 11.4377   3
  -1   5  -9 28.7429 12.3623   3
  -2   5  -9 -17.346 11.4431   3
  -3   5  -9 312.328 23.5150   3
  -4   5  -9 150.465 19.2951   3
  -5   5  -9 160.093 19.5872   3
  -6   5  -9 169.299 20.9362   3
  -7   5  -9 93.1303 21.2231   3
  -8   5  -9 -24.129 17.6951   3
  -9   5  -9 18.3577 19.8885   3
 -10   5  -9 15.1008 21.5845   3
 -11   5  -9 -43.376 21.1984   3
  -9  -4   9 42.1562 25.5277   2
  -9  -4   9 -18.602 19.9787   1
  -9  -4   9 12.3256 24.4883   4
  -8  -4   9 -24.975 19.8077   1
  -8  -4   9 8.15511 22.1833   2
  -8  -4   9 30.8215 23.1982   4
  -7  -4   9 43.5516 20.1090   1
  -7  -4   9 43.1070 20.7025   2
  -7  -4   9 9.77259 20.7915   4
  -6  -4   9 6.43511 17.6919   1
  -6  -4   9 -9.8360 17.6428   2
  -6  -4   9 11.2176 16.6056   4
  -5  -4   9 86.9871 17.7577   4
  -5  -4   9 61.1857 19.0989   1
  -4  -4   9 108.047 18.6640   4
  -4  -4   9 84.5064 17.3928   1
  -3  -4   9 25.5925 13.8464   4
  -3  -4   9 10.4199 15.0998   1
  -2  -4   9 166.966 16.3712   4
  -2  -4   9 138.364 16.9830   1
   1   4  -9 29.6030 10.4471   3
  -1  -4   9 -12.732 13.2572   1
   0   4  -9 35.1677 11.3070   3
   0  -4   9 29.1557 14.2830   1
  -1   4  -9 250.194 17.4355   3
  -2   4  -9 34.4298 12.3805   3
  -3   4  -9 -9.8512 10.5321   3
  -4   4  -9 190.302 18.3481   3
  -5   4  -9 6.61218 13.3493   3
  -6   4  -9 83.7229 18.0671   3
  -7   4  -9 232.658 24.6022   3
  -8   4  -9 138.354 23.6248   3
  -9   4  -9 14.2203 20.1044   3
 -10   4  -9 16.5372 21.3711   3
 -11   4  -9 -11.744 21.4685   3
 -11   4  -9 -1.4541 25.4979   2
 -12   4  -9 8.95179 26.7809   2
 -12   4  -9 -6.6380 25.1006   3
  -9  -3   9 21.8293 23.7412   2
  -9  -3   9 34.5826 24.5818   4
  -9  -3   9 -4.9871 20.4715   1
  -8  -3   9 -2.4723 19.7091   1
  -8  -3   9 22.3696 23.3431   4
  -8  -3   9 56.8695 22.5966   2
  -7  -3   9 13.3331 19.6852   2
  -7  -3   9 39.6626 20.7705   4
  -7  -3   9 14.5252 19.4054   1
  -6  -3   9 75.3690 20.7877   4
  -6  -3   9 64.0559 18.1632   2
  -6  -3   9 63.7932 20.0899   1
  -5  -3   9 11.4652 16.7889   4
  -5  -3   9 0.81600 15.4757   1
  -4  -3   9 -7.0338 13.2508   4
  -4  -3   9 -8.7119 13.0154   1
  -3  -3   9 174.133 17.2712   4
  -3  -3   9 154.424 19.3082   1
   2   3  -9 147.095 13.5459   3
  -2  -3   9 161.832 17.7779   1
  -2  -3   9 157.136 15.0248   4
   1   3  -9 562.422 20.0667   3
  -1  -3   9 551.835 25.5535   1
  -1  -3   9 516.002 19.5602   4
   0   3  -9 223.054 16.6204   3
   0  -3   9 226.602 17.9036   1
  -1   3  -9 0.74777 10.2570   3
  -2   3  -9 274.700 19.4943   3
  -3   3  -9 455.129 21.3800   3
  -4   3  -9 783.012 29.2100   3
  -5   3  -9 267.218 21.4985   3
  -6   3  -9 70.2347 16.1751   3
  -7   3  -9 -12.958 15.4414   3
  -8   3  -9 32.3239 20.0669   2
  -8   3  -9 4.85725 17.5162   3
  -9   3  -9 15.2271 18.7300   3
  -9   3  -9 21.3145 21.7151   2
 -10   3  -9 33.5055 21.2182   3
 -10   3  -9 53.0641 24.0975   2
 -11   3  -9 45.2286 22.3925   3
 -11   3  -9 25.3224 25.8430   2
 -12   3  -9 -12.297 25.3353   2
 -10  -2   9 8.42411 21.4511   4
 -10  -2   9 1.24507 23.4522   2
 -10  -2   9 23.1883 24.0041   1
  -9  -2   9 -1.8290 20.9834   1
  -9  -2   9 -4.9002 20.6281   2
  -9  -2   9 -2.3330 22.9599   4
  -8  -2   9 -4.1477 19.2895   1
  -8  -2   9 29.0047 21.1272   2
  -8  -2   9 -7.6009 19.8726   4
  -7  -2   9 18.5590 19.7100   2
  -7  -2   9 3.20007 19.8464   4
  -7  -2   9 30.9768 19.7638   1
  -6  -2   9 43.2297 19.0468   4
  -6  -2   9 40.6948 16.5470   2
  -6  -2   9 48.9540 18.6686   1
  -5  -2   9 328.296 23.9008   4
  -5  -2   9 315.790 25.4335   1
  -5  -2   9 308.923 25.9730   2
  -4  -2   9 40.5173 15.8868   1
  -4  -2   9 22.0630 14.1784   4
   3   2  -9 -15.636 11.0653   3
  -3  -2   9 21.3741 13.0059   1
  -3  -2   9 4.29309 11.9521   4
   2   2  -9 -4.7771 8.91417   3
  -2  -2   9 35.9354 10.9683   4
  -2  -2   9 -16.598 10.6385   1
   1   2  -9 15.0450 10.0905   3
  -1  -2   9 5.14228 12.1961   1
  -1  -2   9 23.3161 9.13943   4
   0   2  -9 195.811 15.2302   3
   0  -2   9 154.687 11.3911   4
   0  -2   9 202.817 17.1655   1
  -1   2  -9 100.527 12.7029   3
  -2   2  -9 394.784 21.1827   3
  -3   2  -9 530.036 23.5938   3
  -4   2  -9 15.9956 12.4755   3
  -5   2  -9 41.4930 15.0660   3
  -6   2  -9 149.466 19.1245   3
  -7   2  -9 56.5350 16.3993   3
  -7   2  -9 77.3957 17.7739   2
  -8   2  -9 70.5261 18.5224   3
  -8   2  -9 55.7363 18.4790   2
  -9   2  -9 18.4658 21.1499   2
  -9   2  -9 10.9795 18.2231   3
 -10   2  -9 -10.209 21.3094   2
 -10   2  -9 -5.7727 18.8299   3
 -11   2  -9 21.9125 20.9034   3
 -11   2  -9 -9.0823 23.2361   2
 -12   2  -9 32.0357 26.8266   2
 -10  -1   9 28.4589 22.8124   1
 -10  -1   9 -16.788 23.8139   4
 -10  -1   9 -10.760 22.4146   2
  -9  -1   9 29.1686 24.0529   4
  -9  -1   9 55.3861 23.3359   2
  -9  -1   9 36.1310 21.3799   1
  -8  -1   9 71.4833 24.0929   4
  -8  -1   9 17.6924 18.6277   1
  -8  -1   9 90.5614 23.3646   2
  -7  -1   9 33.6033 18.2990   4
  -7  -1   9 9.14662 19.1938   1
  -7  -1   9 17.8710 19.0261   2
  -6  -1   9 2.01841 16.4163   2
  -6  -1   9 -6.6923 17.3086   4
  -6  -1   9 5.84692 15.5067   1
  -5  -1   9 49.5680 17.4738   1
  -5  -1   9 81.1576 17.7918   2
  -5  -1   9 91.1886 18.2412   4
  -4  -1   9 104.392 16.7633   4
  -4  -1   9 120.320 18.7013   1
   3   1  -9 237.578 16.8937   3
  -3  -1   9 286.951 21.2113   1
  -3  -1   9 243.201 17.9244   4
   2   1  -9 286.674 17.2541   3
  -2  -1   9 309.086 18.2501   4
  -2  -1   9 293.901 20.2409   1
   1   1  -9 6.88080 9.52118   3
  -1  -1   9 -8.0864 8.14662   4
  -1  -1   9 16.0397 10.6841   1
   0   1  -9 447.835 19.1198   3
   0  -1   9 395.184 18.7010   1
   0  -1   9 411.617 21.1620   4
  -1   1  -9 -10.935 8.81698   3
   1  -1   9 -7.8093 9.82438   1
  -2   1  -9 313.210 19.0699   3
  -3   1  -9 606.921 24.3651   3
  -4   1  -9 112.821 15.7345   3
  -5   1  -9 343.920 23.0986   3
  -6   1  -9 117.471 18.7136   3
  -6   1  -9 111.016 18.6028   2
  -7   1  -9 25.4438 15.5972   3
  -7   1  -9 24.2228 15.2581   2
  -8   1  -9 5.80856 18.3377   2
  -8   1  -9 20.3986 16.7248   3
  -9   1  -9 31.2632 20.6092   2
  -9   1  -9 38.5395 18.9062   3
 -10   1  -9 41.4911 20.7941   2
 -10   1  -9 82.8339 21.0873   3
 -11   1  -9 0.78711 21.6953   2
 -12   1  -9 -20.915 24.8961   2
 -10   0   9 10.8352 23.9701   4
 -10   0   9 19.7421 22.6724   1
 -10   0   9 12.7435 23.8844   2
  -9   0   9 -25.269 19.2716   2
  -9   0   9 25.7406 24.0479   4
  -9   0   9 48.7534 21.5182   1
  -8   0   9 -3.4351 20.7289   4
  -8   0   9 1.87470 19.9357   1
  -8   0   9 -15.428 17.8295   2
  -7   0   9 54.7059 21.4248   4
  -7   0   9 10.4924 17.5549   1
  -7   0   9 -14.504 16.9540   2
  -6   0   9 138.338 21.2524   2
  -6   0   9 151.385 20.5754   4
  -6   0   9 151.030 21.8521   1
  -5   0   9 241.227 23.0833   1
  -5   0   9 205.809 20.2907   4
  -5   0   9 202.304 20.7678   2
  -4   0   9 79.8304 15.4776   1
  -4   0   9 117.922 17.0448   4
   3   0  -9 1.98498 10.5996   3
  -3   0   9 -15.177 10.4050   4
  -3   0   9 2.99761 12.7848   1
   2   0  -9 99.5667 12.8890   3
  -2   0   9 97.0617 12.0116   4
  -2   0   9 76.0627 14.0751   1
   1   0  -9 41.1330 10.6465   3
  -1   0   9 47.2275 8.98855   4
  -1   0   9 49.0004 11.1336   1
   0   0  -9 1117.74 26.1531   3
   0   0   9 1094.00 26.1555   1
  -1   0  -9 231.419 16.2965   3
   1   0   9 200.046 13.7594   1
  -2   0  -9 120.210 13.2030   3
  -3   0  -9 15.4749 11.5904   3
  -4   0  -9 8.18463 12.3582   3
  -5   0  -9 -2.1247 11.4512   3
  -5   0  -9 17.2423 13.1195   2
  -6   0  -9 -3.7678 12.3593   2
  -6   0  -9 9.22150 13.3661   3
  -7   0  -9 76.1830 16.9495   2
  -7   0  -9 80.3657 17.6820   3
  -8   0  -9 23.7085 15.6599   3
  -8   0  -9 21.4916 18.5632   2
  -9   0  -9 7.96386 16.3341   3
  -9   0  -9 8.16733 20.8392   2
 -10   0  -9 8.32946 19.2595   3
 -10   0  -9 -18.662 21.3575   2
 -11   0  -9 17.3839 21.7090   2
 -12   0  -9 -18.588 24.2867   2
 -10   1   9 36.0934 24.9526   4
 -10   1   9 16.3210 24.2081   2
 -10   1   9 27.1530 23.6506   1
  -9   1   9 -16.452 20.8802   2
  -9   1   9 15.1057 20.6611   1
  -9   1   9 24.2361 23.2610   4
  -8   1   9 63.7204 21.1933   2
  -8   1   9 108.775 24.6601   4
  -8   1   9 15.2263 20.6270   1
  -7   1   9 27.0635 19.8279   4
  -7   1   9 32.3197 18.2339   2
  -7   1   9 82.8508 21.1597   1
  -6   1   9 49.5716 16.8512   4
  -6   1   9 20.5363 15.0198   1
  -6   1   9 -11.179 14.1284   2
  -5   1   9 -5.2652 13.2833   2
  -5   1   9 -6.1691 15.9820   1
  -5   1   9 -2.4469 14.9192   4
  -4   1   9 74.8076 14.1600   2
  -4   1   9 103.071 16.2280   1
  -4   1   9 81.7224 16.4303   4
  -3   1   9 285.318 20.3879   1
  -3   1   9 286.594 19.9887   4
  -2   1   9 396.252 18.0199   4
  -2   1   9 402.512 20.1733   1
   1  -1  -9 230.779 16.3779   3
  -1   1   9 224.907 14.0473   4
  -1   1   9 251.531 16.2557   1
   0  -1  -9 8.05971 10.1248   3
   0   1   9 22.3711 9.71959   1
  -1  -1  -9 14.0254 10.6999   3
   1   1   9 3.37838 8.54794   1
  -2  -1  -9 6.78366 9.34492   3
   2   1   9 2.73469 8.04146   1
  -3  -1  -9 314.524 19.9011   3
  -4  -1  -9 277.020 20.1820   3
  -5  -1  -9 309.448 22.3091   2
  -5  -1  -9 302.150 21.8535   3
  -6  -1  -9 132.581 16.8624   3
  -6  -1  -9 107.276 16.9765   2
  -7  -1  -9 -7.2476 16.1437   2
  -7  -1  -9 -26.620 13.1757   3
  -8  -1  -9 38.9391 15.6481   3
  -8  -1  -9 39.6411 19.2326   2
  -9  -1  -9 67.3512 18.4679   3
  -9  -1  -9 104.985 23.8757   2
 -10  -1  -9 60.5649 24.9088   2
 -11  -1  -9 -13.980 23.6847   2
 -12  -1  -9 36.2469 26.9506   2
 -10   2   9 43.7241 27.9126   4
 -10   2   9 12.5533 21.6146   1
 -10   2   9 -9.5385 21.4696   2
  -9   2   9 14.5787 25.3668   4
  -9   2   9 19.9806 21.2077   2
  -9   2   9 12.8353 20.5468   1
  -8   2   9 -20.393 19.7655   4
  -8   2   9 19.6341 19.3696   1
  -8   2   9 27.3884 20.0920   2
  -7   2   9 44.5897 19.8871   1
  -7   2   9 70.9699 18.8852   2
  -7   2   9 70.2139 22.2046   4
  -6   2   9 164.475 21.8752   1
  -6   2   9 194.034 22.2079   2
  -6   2   9 190.625 23.5372   4
  -5   2   9 23.1273 13.7729   1
  -5   2   9 -1.2126 13.6080   2
  -5   2   9 23.6900 16.8864   4
  -4   2   9 296.775 22.3200   4
  -4   2   9 272.046 20.8942   1
  -4   2   9 252.638 18.7893   2
  -3   2   9 -6.5079 9.57717   2
  -3   2   9 8.81040 12.9344   1
  -3   2   9 -11.361 11.1219   4
  -2   2   9 108.529 12.6650   4
  -2   2   9 89.8599 13.9741   1
  -1   2   9 195.259 14.8103   1
  -1   2   9 191.485 14.1568   4
   0  -2  -9 50.0435 11.0387   3
   0   2   9 46.2959 8.10995   4
   0   2   9 43.0693 9.74263   1
  -1  -2  -9 448.543 20.3639   3
   1   2   9 471.977 16.5903   1
  -2  -2  -9 587.973 22.6190   3
   2   2   9 629.626 16.5776   1
  -3  -2  -9 472.871 22.1345   3
   3   2   9 499.462 13.8803   1
  -4  -2  -9 -2.8920 10.9230   3
  -4  -2  -9 10.6142 10.1841   2
  -5  -2  -9 14.9102 11.5945   2
  -5  -2  -9 -14.107 11.5857   3
  -6  -2  -9 132.129 17.5748   2
  -6  -2  -9 123.268 16.0999   3
  -7  -2  -9 73.0110 16.4968   2
  -7  -2  -9 77.7775 16.0986   3
  -8  -2  -9 44.2136 15.6530   3
  -8  -2  -9 18.3415 18.4618   2
  -9  -2  -9 35.0741 20.7082   2
 -10  -2  -9 -0.8567 21.6845   2
 -11  -2  -9 19.2945 24.1186   2
 -12  -2  -9 53.0810 28.5400   2
 -10   3   9 20.1079 24.0306   4
 -10   3   9 8.79886 22.8517   1
  -9   3   9 80.6630 22.6900   2
  -9   3   9 56.7197 27.4480   4
  -9   3   9 33.2134 21.7099   1
  -8   3   9 68.8740 25.3346   4
  -8   3   9 45.8321 20.0337   2
  -8   3   9 63.4186 19.6280   1
  -7   3   9 72.3945 22.9399   4
  -7   3   9 12.7460 16.9862   2
  -7   3   9 33.0472 19.2121   1
  -6   3   9 -32.463 15.0942   1
  -6   3   9 -0.3221 18.8406   4
  -6   3   9 -0.1816 14.4977   2
  -5   3   9 2.24296 13.4323   1
  -5   3   9 30.2463 14.4213   2
  -5   3   9 38.3201 17.5308   4
  -4   3   9 151.720 15.3838   2
  -4   3   9 122.350 16.7359   1
  -4   3   9 153.126 19.1097   4
  -3   3   9 369.469 21.8774   4
  -3   3   9 343.441 21.4065   1
  -3   3   9 352.622 18.1920   2
  -2   3   9 381.777 21.3760   1
  -2   3   9 372.040 19.3393   4
  -1   3   9 10.1307 9.39079   1
  -1   3   9 16.5130 9.14372   4
   0   3   9 249.436 13.4741   4
   0   3   9 233.904 14.3699   1
  -1  -3  -9 54.8586 12.6489   3
   1   3   9 52.3224 8.52109   1
  -2  -3  -9 0.98835 9.30061   3
   2   3   9 0.56702 6.57052   1
  -3  -3  -9 131.610 14.6297   3
   3   3   9 119.658 8.77575   1
  -4  -3  -9 280.729 19.6514   3
  -4  -3  -9 286.474 17.3648   2
  -5  -3  -9 121.552 14.5821   2
  -5  -3  -9 111.992 11.3017   4
  -5  -3  -9 112.913 14.4729   3
  -6  -3  -9 35.1132 13.2655   3
  -6  -3  -9 41.8441 14.1430   2
  -7  -3  -9 7.42321 12.3237   3
  -7  -3  -9 11.7942 14.7897   2
  -8  -3  -9 37.0294 15.6107   3
  -8  -3  -9 52.8823 18.1180   2
  -9  -3  -9 28.9904 19.8997   2
 -10  -3  -9 43.4939 20.3920   2
 -11  -3  -9 -26.475 22.3157   2
 -12  -3  -9 0.70846 25.2908   2
 -10   4   9 21.1933 26.3246   1
 -10   4   9 47.4705 29.0235   4
  -9   4   9 7.90664 26.0788   4
  -9   4   9 21.0319 22.3042   1
  -8   4   9 35.3672 25.3707   4
  -8   4   9 48.6204 21.5891   1
  -7   4   9 47.1171 19.9325   1
  -7   4   9 26.2264 22.4542   4
  -7   4   9 74.9886 19.4917   2
  -6   4   9 73.3840 21.3111   4
  -6   4   9 52.5656 16.5695   1
  -6   4   9 59.9030 16.8347   2
  -5   4   9 82.8834 14.6886   2
  -5   4   9 57.4777 17.5593   1
  -5   4   9 50.9565 19.2098   4
  -4   4   9 73.7198 17.1512   1
  -4   4   9 128.513 18.8958   4
  -4   4   9 120.252 13.9710   2
  -3   4   9 8.70702 12.8865   4
  -3   4   9 6.23237 8.59047   2
  -3   4   9 3.08989 10.8000   1
  -2   4   9 31.0729 12.1102   4
  -2   4   9 21.3138 11.8527   1
  -2   4   9 10.7671 7.24287   2
  -1   4   9 27.6948 10.0209   4
  -1   4   9 44.2157 10.7738   1
   0   4   9 176.289 12.9890   1
  -1  -4  -9 999.865 27.4793   3
   1   4   9 913.726 18.8839   1
  -2  -4  -9 924.899 26.8105   3
   2   4   9 900.764 15.8411   1
  -3  -4  -9 31.9593 11.9891   3
  -4  -4  -9 64.9497 11.3924   2
  -4  -4  -9 83.2681 13.0915   3
  -5  -4  -9 18.0379 11.3721   2
  -5  -4  -9 -3.5995 10.9945   3
  -6  -4  -9 79.6914 14.9624   3
  -6  -4  -9 70.2134 14.3283   2
  -6  -4  -9 94.1113 13.4119   4
  -7  -4  -9 85.2241 17.1851   2
  -7  -4  -9 99.2903 14.8735   3
  -8  -4  -9 68.1703 18.6018   2
  -9  -4  -9 51.9690 20.5876   2
 -10  -4  -9 -6.5666 20.8939   2
 -11  -4  -9 -2.9646 23.1570   2
 -12  -4  -9 23.3011 25.9490   2
 -10   5   9 -11.088 27.7648   4
  -9   5   9 46.5068 29.1037   4
  -9   5   9 41.2882 22.6098   1
  -8   5   9 56.7544 22.3785   1
  -8   5   9 52.3181 27.0480   4
  -7   5   9 78.2824 21.0347   1
  -7   5   9 88.2181 26.4386   4
  -6   5   9 4.01905 21.1138   4
  -6   5   9 -5.3940 16.3904   1
  -5   5   9 84.4837 18.4558   1
  -5   5   9 106.427 19.6149   4
  -4   5   9 80.1144 18.4106   4
  -4   5   9 61.9602 16.2388   1
  -3   5   9 385.297 23.8893   1
  -3   5   9 389.941 24.3764   4
  -2   5   9 173.821 15.8516   1
  -2   5   9 216.801 17.5572   4
  -1   5   9 240.845 17.8388   4
  -1   5   9 236.229 16.8757   1
   0   5   9 229.285 15.0061   1
   1   5   9 -5.8497 6.83541   1
  -2  -5  -9 318.566 20.1623   3
   2   5   9 330.842 10.6263   1
  -3  -5  -9 387.167 20.2568   3
  -3  -5  -9 408.219 15.8806   2
  -4  -5  -9 212.287 16.2566   3
  -4  -5  -9 256.850 17.3845   2
  -5  -5  -9 24.5106 11.9417   3
  -5  -5  -9 33.3279 11.5738   2
  -6  -5  -9 67.6188 14.6948   2
  -6  -5  -9 77.9773 14.2932   3
  -7  -5  -9 4.62729 13.2684   4
  -7  -5  -9 5.88015 14.3938   2
  -7  -5  -9 24.9733 12.7916   3
  -8  -5  -9 -10.174 15.3160   2
  -9  -5  -9 -12.606 17.3924   2
 -10  -5  -9 -0.5407 19.9751   2
 -11  -5  -9 -10.364 21.8364   2
 -12  -5  -9 -5.5767 23.3013   2
 -10   6   9 19.3364 29.3704   4
  -9   6   9 0.27542 20.9277   1
  -9   6   9 28.3034 24.5350   4
  -8   6   9 48.9161 27.5099   4
  -8   6   9 62.5228 22.3534   1
  -7   6   9 53.0397 22.3578   4
  -7   6   9 68.1627 21.2478   1
  -6   6   9 44.6449 22.6849   4
  -6   6   9 71.7794 20.0373   1
  -5   6   9 88.7249 19.4906   4
  -5   6   9 76.0570 17.1108   1
  -4   6   9 79.4703 18.6737   4
  -4   6   9 71.5215 15.1662   1
  -3   6   9 101.762 17.4206   1
  -3   6   9 75.8668 16.8371   4
  -2   6   9 -1.6406 11.7301   1
  -2   6   9 11.5060 12.7683   4
  -1   6   9 337.839 19.8127   1
   0   6   9 42.6628 9.22998   1
   1   6   9 750.907 17.0943   1
  -2  -6  -9 257.398 19.5605   3
  -3  -6  -9 0.02078 10.7818   3
  -4  -6  -9 20.8264 9.49183   2
  -4  -6  -9 1.86545 10.0032   3
  -5  -6  -9 66.6333 12.6466   2
  -5  -6  -9 68.6498 13.7793   3
  -6  -6  -9 30.2853 12.1596   3
  -6  -6  -9 59.7884 14.4662   2
  -7  -6  -9 35.3981 15.3055   2
  -8  -6  -9 29.1364 18.0734   4
  -8  -6  -9 -3.4965 16.2807   2
  -9  -6  -9 -0.8075 17.6635   2
 -10  -6  -9 -9.8530 19.9262   2
 -11  -6  -9 -2.1044 23.0611   2
  -9   7   9 54.2414 23.7933   1
  -9   7   9 73.8169 30.5364   4
  -8   7   9 43.5679 27.5116   4
  -8   7   9 38.0493 19.5192   1
  -7   7   9 69.1388 25.9648   4
  -7   7   9 4.11485 19.4600   1
  -6   7   9 31.3486 16.6451   1
  -6   7   9 -2.3214 21.2786   4
  -5   7   9 -9.1541 19.1889   4
  -5   7   9 21.6801 17.5550   1
  -4   7   9 107.542 21.0548   4
  -4   7   9 118.546 19.3278   1
  -3   7   9 280.693 22.4577   4
  -3   7   9 300.070 21.8012   1
  -2   7   9 133.992 15.7877   1
  -2   7   9 151.869 13.6243   5
  -1   7   9 98.6041 12.7089   1
   0   7   9 2.22916 8.66253   1
   1   7   9 9.43128 7.54916   1
  -3  -7  -9 147.129 15.7541   3
  -4  -7  -9 166.990 15.7224   3
  -5  -7  -9 58.6691 13.1460   3
  -6  -7  -9 19.3428 13.1643   2
  -7  -7  -9 -3.9922 13.9163   2
  -8  -7  -9 45.6092 17.2930   4
  -8  -7  -9 -1.2402 15.6060   2
  -9  -7  -9 46.3365 19.6587   2
 -10  -7  -9 -8.1206 20.0217   2
 -11  -7  -9 38.5194 24.1390   2
  -9   8   9 -30.965 21.6204   1
  -9   8   9 -29.981 27.1270   4
  -8   8   9 3.21590 26.3304   4
  -8   8   9 26.6095 19.5323   1
  -7   8   9 37.3312 25.6812   4
  -7   8   9 21.5478 18.0067   1
  -6   8   9 95.8188 26.2386   4
  -6   8   9 120.896 22.9871   1
  -5   8   9 112.339 23.2870   4
  -5   8   9 116.474 20.7339   1
  -4   8   9 -9.4960 17.5082   4
  -4   8   9 11.5378 14.8472   1
  -3   8   9 98.0218 16.9607   1
  -2   8   9 9.43734 11.8321   1
  -2   8   9 27.6804 11.4034   5
  -1   8   9 235.929 16.8986   1
   0   8   9 279.223 16.4409   1
  -3  -8  -9 12.2400 11.8807   3
  -4  -8  -9 31.3157 12.2788   3
  -5  -8  -9 2.92690 10.9286   3
  -9  -8  -9 18.6203 23.8000   4
  -9  -8  -9 -2.9825 18.4829   2
 -10  -8  -9 12.4047 20.6864   2
 -11  -8  -9 -2.3104 24.6126   2
  -9   9   9 46.1943 30.2046   4
  -8   9   9 -16.813 18.4780   1
  -8   9   9 88.1813 29.6353   4
  -7   9   9 -19.833 24.3127   4
  -7   9   9 -18.956 19.3068   1
  -6   9   9 20.5806 19.2415   1
  -6   9   9 55.3182 22.6609   4
  -5   9   9 30.9951 18.4527   1
  -5   9   9 20.5907 23.0246   4
  -4   9   9 98.1439 19.0684   1
  -3   9   9 112.551 18.0845   1
  -2   9   9 239.616 17.8646   5
  -2   9   9 269.995 20.3062   1
  -1   9   9 15.8525 11.6592   1
  -1   9   9 11.4781 12.9400   5
   0   9   9 16.2179 10.2717   1
  -3  -9  -9 62.5881 14.0879   3
  -4  -9  -9 20.1448 12.5391   3
  -9  -9  -9 16.5123 19.0580   4
  -9  10   9 -2.8653 28.9228   4
  -8  10   9 11.3185 22.3280   1
  -8  10   9 6.01361 28.8733   4
  -7  10   9 33.6879 29.0046   4
  -7  10   9 3.18920 18.8868   1
  -6  10   9 125.424 22.1454   1
  -5  10   9 114.769 22.2540   1
  -4  10   9 49.5823 17.9103   1
  -3  10   9 18.3952 15.6570   1
  -2  10   9 18.4091 12.6803   5
  -2  10   9 16.2158 13.7068   1
  -1  10   9 31.6152 13.9186   5
  -1  10   9 25.9980 12.6725   1
   0  10   9 92.0571 16.9968   5
  -4 -10  -9 10.3428 12.3751   3
  -8  11   9 -4.0863 22.9044   1
  -7  11   9 -13.795 21.5475   1
  -6  11   9 7.69652 20.1644   1
  -5  11   9 45.6590 20.2634   1
  -4  11   9 68.3284 19.6352   1
  -3  11   9 17.7878 16.0069   1
  -2  11   9 170.610 19.2320   1
  -2  11   9 150.468 18.3465   5
  -1  11   9 75.0190 16.2498   5
   0  11   9 -1.8770 13.8550   5
   1  11   9 16.5050 15.9341   5
   2  11   9 23.5390 15.0479   5
   9  11   9 2.58209 21.4384   5
  10  11   9 0.13789 20.7702   5
  -7  12   9 70.0055 24.5928   1
  -6  12   9 43.6895 22.1747   1
  -5  12   9 25.8956 20.8322   1
  -4  12   9 45.2257 20.4015   1
  -3  12   9 -20.405 15.7211   1
  -2  12   9 52.9941 16.1901   5
  -2  12   9 1.52107 14.8720   1
  -1  12   9 61.4972 16.8219   5
   0  12   9 9.48089 16.0922   5
   1  12   9 -0.1149 16.5673   5
   2  12   9 24.9963 16.1208   5
   3  12   9 19.4977 16.6070   5
   4  12   9 -25.050 16.6782   5
   5  12   9 38.1491 19.6088   5
   6  12   9 33.2858 18.4427   5
   7  12   9 7.72796 20.4791   5
   8  12   9 28.5748 22.0392   5
   9  12   9 -25.162 21.4124   5
  -7  13   9 -0.4419 23.4707   1
  -6  13   9 7.79487 22.0439   1
  -5  13   9 7.93800 21.2948   1
  -4  13   9 45.0377 20.4721   1
  -3  13   9 71.3365 19.9193   1
  -2  13   9 23.2121 22.9879   5
  -1  13   9 -6.1478 15.9293   5
   0  13   9 -0.9395 16.3737   5
   1  13   9 35.3173 18.0747   5
   2  13   9 19.4980 19.6892   5
   3  13   9 40.3413 19.8916   5
   4  13   9 4.57405 17.2292   5
   5  13   9 38.0523 21.1788   5
   6  13   9 12.4412 20.8440   5
   7  13   9 6.70077 20.7507   5
   8  13   9 -7.2179 21.1656   5
   9  13   9 7.86583 22.5647   5
  -6  14   9 29.7445 23.3965   1
  -5  14   9 21.0031 22.1619   1
  -4  14   9 -7.5831 19.0466   1
  -1  14   9 50.4319 18.6785   5
   0  14   9 43.1845 19.1303   5
   1  14   9 30.8120 19.3885   5
   2  14   9 12.9019 18.8600   5
   3  14   9 -11.675 18.3693   5
   4  14   9 -11.071 18.9234   5
   5  14   9 13.4168 21.7014   5
   6  14   9 27.2417 21.5415   5
   7  14   9 -30.799 20.6935   5
   8  14   9 40.6373 23.0515   5
  -6  15   9 0.08235 23.4730   1
  -5  15   9 -6.5549 21.1972   1
  -1  15   9 9.30091 18.0792   5
   0  15   9 -1.9692 18.4036   5
   1  15   9 -2.3715 17.2295   5
   2  15   9 35.8115 19.2776   5
   3  15   9 -0.1230 20.5505   5
   4  15   9 -18.629 19.7131   5
   5  15   9 33.2332 23.0489   5
   6  15   9 -31.392 20.4044   5
   7  15   9 -6.8760 21.3236   5
  -1  16   9 7.01563 19.4444   5
   0  16   9 27.4983 20.2808   5
   1  16   9 11.8866 19.8388   5
   2  16   9 -3.2756 21.3615   5
   3  16   9 -0.3595 22.0232   5
   4  16   9 3.55967 22.0834   5
   5  16   9 17.8123 22.5775   5
   6  16   9 -23.936 20.2293   5
  -1  17   9 -3.5888 20.1584   5
   0  17   9 -12.163 20.0369   5
   1  17   9 -5.5692 20.4981   5
   2  17   9 17.1299 22.7334   5
   3  17   9 9.15631 20.2337   5
   4  17   9 4.97597 24.1603   5
  -1  18   9 -8.4407 22.0191   5
   0  18   9 43.9487 24.1055   5
   1  18   9 -13.559 21.4152   5
   2  18   9 17.3223 24.5215   5
  -2 -14  10 47.4739 25.8516   1
  -1 -14  10 -34.273 21.7792   1
  -5  14 -10 -25.860 24.2838   3
  -3 -13  10 -20.189 22.8480   1
  -2 -13  10 -28.233 20.6229   1
  -1 -13  10 11.3419 22.2093   1
  -4  13 -10 24.1579 22.7693   3
  -5  13 -10 -33.941 22.2374   3
  -6  13 -10 13.7342 25.0720   3
  -7  13 -10 -11.017 24.3260   3
  -4 -12  10 7.44996 22.8126   1
  -3 -12  10 20.9450 22.1976   1
  -2 -12  10 43.8646 22.8519   1
  -1 -12  10 53.8047 20.7801   1
  -4  12 -10 37.2755 22.1000   3
  -5  12 -10 31.1712 23.6230   3
  -6  12 -10 9.91992 24.2871   3
  -7  12 -10 14.3047 24.1319   3
  -8  12 -10 -26.107 23.0358   3
  -5 -11  10 -14.735 21.3308   1
  -5 -11  10 37.6174 25.9795   4
  -4 -11  10 48.4929 21.7399   1
  -3 -11  10 -5.8692 19.8263   1
  -2 -11  10 18.6877 20.7348   1
  -1 -11  10 14.3850 21.3084   1
  -3  11 -10 6.59614 20.3842   3
  -4  11 -10 14.4284 20.5196   3
  -5  11 -10 7.25933 21.7114   3
  -6  11 -10 4.49094 21.0315   3
  -7  11 -10 55.1933 25.0022   3
  -8  11 -10 13.5388 23.3794   3
  -6 -10  10 28.7839 24.7376   4
  -6 -10  10 -25.964 22.0952   2
  -6 -10  10 -17.162 19.8183   1
  -5 -10  10 -12.440 19.9462   1
  -5 -10  10 33.3563 24.0533   4
  -4 -10  10 27.7429 20.5506   1
  -3 -10  10 17.0366 20.5495   1
  -2 -10  10 27.3218 19.9054   1
  -1 -10  10 43.2932 21.2423   1
  -2  10 -10 -14.190 17.5069   3
  -3  10 -10 70.9811 20.4926   3
  -4  10 -10 179.490 26.3596   3
  -5  10 -10 79.8677 23.1315   3
  -6  10 -10 23.2959 21.7966   3
  -7  10 -10 -8.7259 21.2413   3
  -8  10 -10 -25.860 21.4597   3
  -9  10 -10 4.99317 24.2928   3
  -7  -9  10 27.8406 21.8473   1
  -7  -9  10 25.8259 23.8993   2
  -7  -9  10 26.4123 25.5073   4
  -6  -9  10 2.80419 24.0016   2
  -6  -9  10 -6.6047 20.3466   1
  -6  -9  10 38.4731 24.7080   4
  -5  -9  10 16.5151 20.7704   1
  -5  -9  10 36.9279 24.0769   4
  -4  -9  10 10.5516 19.9986   1
  -4  -9  10 10.5120 21.8305   4
  -3  -9  10 10.8479 19.2440   1
  -2  -9  10 8.83640 18.8910   1
  -1  -9  10 -37.848 17.0256   1
  -2   9 -10 282.896 25.7525   3
  -3   9 -10 46.6943 19.1025   3
  -4   9 -10 6.37599 17.6104   3
  -5   9 -10 -25.292 17.7459   3
  -6   9 -10 6.04021 19.3467   3
  -7   9 -10 87.3438 24.3929   3
  -8   9 -10 31.4228 22.1561   3
  -9   9 -10 36.5943 25.8700   3
 -10   9 -10 27.7981 24.8930   3
  -7  -8  10 25.0694 24.0172   4
  -7  -8  10 34.7602 23.9844   2
  -7  -8  10 54.6008 23.0027   1
  -6  -8  10 22.1119 22.7544   2
  -6  -8  10 -8.1870 21.5389   4
  -6  -8  10 28.6136 20.7500   1
  -5  -8  10 15.4899 19.6629   1
  -5  -8  10 5.56945 20.4235   4
  -4  -8  10 16.4671 20.1231   4
  -4  -8  10 28.8511 19.2371   1
  -3  -8  10 35.8206 19.4539   1
  -2  -8  10 108.910 22.3989   1
  -1  -8  10 58.6266 20.0455   1
  -1   8 -10 0.52306 15.0259   3
  -2   8 -10 59.5672 18.2954   3
  -3   8 -10 79.0970 19.1952   3
  -4   8 -10 76.2840 19.4582   3
  -5   8 -10 21.7174 17.2738   3
  -6   8 -10 44.5320 21.4073   3
  -7   8 -10 -7.4242 19.9211   3
  -8   8 -10 -13.006 20.4564   3
  -9   8 -10 15.8537 23.9142   3
 -10   8 -10 13.9199 24.9093   3
  -8  -7  10 25.0266 22.4207   1
  -8  -7  10 -12.901 25.0080   4
  -8  -7  10 9.03070 24.4300   2
  -7  -7  10 26.3282 24.5143   4
  -7  -7  10 23.5292 23.0440   2
  -7  -7  10 63.9487 23.0595   1
  -6  -7  10 -8.5026 19.1787   1
  -6  -7  10 12.0292 21.8966   4
  -6  -7  10 28.7661 22.1818   2
  -5  -7  10 11.0088 19.7075   4
  -5  -7  10 4.19805 16.5780   1
  -4  -7  10 38.9599 20.1857   1
  -4  -7  10 81.6457 21.6113   4
  -3  -7  10 57.8322 18.6866   4
  -3  -7  10 54.7983 19.3652   1
  -2  -7  10 -3.8187 16.5252   1
  -1  -7  10 28.1334 18.0542   1
  -1   7 -10 469.467 27.9478   3
  -2   7 -10 239.133 22.1369   3
  -3   7 -10 216.589 23.0697   3
  -4   7 -10 0.54521 16.5767   3
  -5   7 -10 58.8115 19.5694   3
  -6   7 -10 13.2415 19.0150   3
  -7   7 -10 71.4399 23.1223   3
  -8   7 -10 20.7608 21.0064   3
  -9   7 -10 59.0809 24.4579   3
 -10   7 -10 -41.360 20.3699   3
 -11   7 -10 24.3591 25.5114   3
  -8  -6  10 18.1823 22.2219   1
  -8  -6  10 10.2889 20.8981   2
  -8  -6  10 22.4767 24.4124   4
  -7  -6  10 73.9552 24.6125   2
  -7  -6  10 40.4579 21.6391   1
  -7  -6  10 7.99531 23.9052   4
  -6  -6  10 -29.266 17.2941   1
  -6  -6  10 -31.716 19.3239   2
  -6  -6  10 42.9870 21.4671   4
  -5  -6  10 6.09159 18.0905   1
  -5  -6  10 40.8447 19.7408   4
  -4  -6  10 85.8483 20.9817   4
  -4  -6  10 61.0641 17.7844   1
  -3  -6  10 43.6153 18.3609   1
  -3  -6  10 30.9118 17.0478   4
  -2  -6  10 75.2849 17.7094   1
  -1  -6  10 5.29965 16.0079   1
   0   6 -10 -0.4098 12.4466   3
  -1   6 -10 77.8674 15.4058   3
  -2   6 -10 60.4599 15.6298   3
  -3   6 -10 67.0277 17.3037   3
  -4   6 -10 24.0781 16.1796   3
  -5   6 -10 84.3856 19.7208   3
  -6   6 -10 21.9582 15.9678   3
  -7   6 -10 47.2317 20.9033   3
  -8   6 -10 -4.2626 17.2848   3
  -9   6 -10 21.7988 21.8397   3
 -10   6 -10 6.68485 22.1710   3
 -11   6 -10 15.3798 24.1946   3
  -9  -5  10 -15.380 23.4906   2
  -8  -5  10 -1.7568 20.0314   2
  -8  -5  10 -9.4987 19.9742   1
  -8  -5  10 -9.7248 23.7326   4
  -7  -5  10 26.9892 22.1394   2
  -7  -5  10 10.8348 20.0148   1
  -7  -5  10 19.5266 21.3695   4
  -6  -5  10 45.7874 22.4749   4
  -6  -5  10 37.9881 19.3016   1
  -6  -5  10 30.3210 20.5825   2
  -5  -5  10 -9.6889 17.8146   1
  -5  -5  10 -7.8780 17.3891   4
  -4  -5  10 21.1715 17.7865   1
  -4  -5  10 -17.242 15.3796   4
  -3  -5  10 7.00405 15.1116   4
  -3  -5  10 -0.4584 15.8984   1
  -2  -5  10 -9.0279 13.1081   4
  -2  -5  10 -2.5280 13.9153   1
   1   5 -10 88.7810 17.5331   3
  -1  -5  10 62.8875 15.8696   1
   0   5 -10 158.677 16.0980   3
   0  -5  10 161.788 20.1622   1
  -1   5 -10 207.665 18.5557   3
  -2   5 -10 236.511 20.6029   3
  -3   5 -10 204.954 20.5950   3
  -4   5 -10 14.6211 15.0778   3
  -5   5 -10 145.912 19.9055   3
  -6   5 -10 101.891 19.3888   3
  -7   5 -10 97.8574 21.7700   3
  -8   5 -10 99.3601 23.8212   3
  -9   5 -10 32.8663 20.4977   3
 -10   5 -10 8.92580 22.3926   3
 -11   5 -10 15.0690 23.8341   3
  -9  -4  10 -31.870 22.4028   2
  -9  -4  10 18.9893 22.8950   1
  -9  -4  10 69.2919 28.2899   4
  -8  -4  10 63.8652 23.5682   1
  -8  -4  10 37.3893 24.9355   4
  -8  -4  10 59.8619 24.8513   2
  -7  -4  10 2.88424 19.9016   2
  -7  -4  10 7.92929 20.8458   4
  -7  -4  10 3.04177 19.7377   1
  -6  -4  10 2.85044 18.4944   1
  -6  -4  10 -20.405 18.5197   2
  -6  -4  10 12.8611 18.5365   4
  -5  -4  10 25.2265 18.4091   4
  -5  -4  10 -4.1799 16.7288   1
  -4  -4  10 30.2323 17.0353   4
  -4  -4  10 5.56112 14.9331   1
  -3  -4  10 236.722 23.0930   1
  -3  -4  10 210.854 19.7709   4
  -2  -4  10 13.7218 14.8627   1
  -2  -4  10 2.80249 12.2643   4
   1   4 -10 -1.7081 10.6102   3
  -1  -4  10 4.94154 14.7526   1
  -1  -4  10 6.88636 10.4155   4
   0   4 -10 47.4349 12.3798   3
   0  -4  10 30.9891 14.7408   1
  -1   4 -10 -9.4726 10.8945   3
  -2   4 -10 30.3858 12.9390   3
  -3   4 -10 252.704 21.5282   3
  -4   4 -10 311.670 23.1886   3
  -5   4 -10 185.976 19.7067   3
  -6   4 -10 53.7072 16.8266   3
  -7   4 -10 15.6074 16.4816   3
  -8   4 -10 -3.6272 18.2096   3
  -9   4 -10 5.30673 19.6745   3
 -10   4 -10 41.6392 22.9227   3
 -11   4 -10 17.2924 23.1343   3
  -9  -3  10 -26.428 19.9629   1
  -9  -3  10 5.59724 24.6070   4
  -9  -3  10 37.2967 24.8614   2
  -8  -3  10 26.7753 22.6515   4
  -8  -3  10 2.68120 21.9750   2
  -8  -3  10 4.96963 20.8558   1
  -7  -3  10 79.6796 23.0650   4
  -7  -3  10 55.0948 21.6140   2
  -7  -3  10 91.6622 22.4511   1
  -6  -3  10 18.3891 18.7448   2
  -6  -3  10 46.0543 19.9547   1
  -6  -3  10 28.1812 19.7343   4
  -5  -3  10 42.8041 17.8669   4
  -5  -3  10 25.7588 18.1377   1
  -4  -3  10 -2.2021 15.7034   1
  -4  -3  10 25.6520 15.1307   4
  -3  -3  10 3.84775 12.7581   4
  -3  -3  10 24.7130 14.5336   1
   2   3 -10 16.4699 11.1301   3
  -2  -3  10 20.3548 14.4372   1
  -2  -3  10 32.5367 12.3984   4
   1   3 -10 -3.5255 9.72513   3
  -1  -3  10 2.62521 9.58503   4
  -1  -3  10 1.33301 13.9839   1
   0   3 -10 159.332 15.4189   3
   0  -3  10 145.060 12.3640   4
   0  -3  10 146.591 16.4630   1
  -1   3 -10 224.835 17.8484   3
  -2   3 -10 100.349 15.2327   3
  -3   3 -10 17.1400 12.8028   3
  -4   3 -10 21.4684 13.9990   3
  -5   3 -10 10.0595 14.0592   3
  -6   3 -10 79.9613 17.4215   3
  -7   3 -10 109.176 20.7143   3
  -8   3 -10 139.175 23.6793   3
  -9   3 -10 65.5406 22.2720   3
 -10   3 -10 12.3096 20.9358   3
 -10   3 -10 36.2511 21.3627   2
 -11   3 -10 12.2616 21.6726   3
 -11   3 -10 -17.206 23.7624   2
 -12   3 -10 40.4127 28.4091   2
  -9  -2  10 2.05784 21.6330   1
  -9  -2  10 46.8798 25.0982   4
  -9  -2  10 40.2467 24.3911   2
  -8  -2  10 19.6166 21.0565   1
  -8  -2  10 67.1929 24.5365   4
  -8  -2  10 49.8252 20.3526   2
  -7  -2  10 49.7910 21.7079   4
  -7  -2  10 -1.4476 19.9206   2
  -7  -2  10 13.8125 20.0274   1
  -6  -2  10 18.0777 18.2335   4
  -6  -2  10 8.05120 18.0236   2
  -6  -2  10 5.71507 16.1662   1
  -5  -2  10 55.7762 17.4813   4
  -5  -2  10 18.0239 16.8696   2
  -5  -2  10 63.0704 19.2146   1
  -4  -2  10 75.3499 16.8268   1
  -4  -2  10 79.7782 16.7732   4
  -3  -2  10 35.0968 13.2664   4
  -3  -2  10 7.21477 13.3664   1
   2   2 -10 237.839 16.3135   3
  -2  -2  10 224.042 16.7161   4
  -2  -2  10 232.400 20.1994   1
   1   2 -10 237.557 17.3468   3
  -1  -2  10 254.072 15.6910   4
  -1  -2  10 211.521 19.6919   1
   0   2 -10 14.9564 11.0237   3
   0  -2  10 2.41343 10.8600   1
   0  -2  10 26.4579 8.21454   4
  -1   2 -10 42.3486 12.3201   3
   1  -2  10 47.3701 12.9562   1
  -2   2 -10 166.683 17.0334   3
  -3   2 -10 355.644 22.6572   3
  -4   2 -10 589.089 26.1176   3
  -5   2 -10 187.703 20.3489   3
  -6   2 -10 -3.2140 15.5980   3
  -7   2 -10 23.0479 17.5650   3
  -8   2 -10 -16.368 17.5306   3
  -8   2 -10 -4.8169 18.7496   2
  -9   2 -10 13.0021 21.1012   2
  -9   2 -10 24.4517 19.5829   3
 -10   2 -10 30.0394 20.6956   3
 -10   2 -10 23.0949 23.0835   2
 -11   2 -10 10.0057 26.1544   2
 -11   2 -10 26.1875 22.0839   3
 -12   2 -10 5.79549 26.7306   2
  -9  -1  10 7.35920 22.6156   1
  -9  -1  10 32.8501 25.1600   4
  -9  -1  10 -24.274 20.4251   2
  -8  -1  10 8.89040 21.1513   2
  -8  -1  10 27.1160 19.9811   1
  -8  -1  10 91.7679 25.1565   4
  -7  -1  10 100.346 23.4328   1
  -7  -1  10 85.7897 21.8415   2
  -7  -1  10 115.774 24.5161   4
  -6  -1  10 -20.239 17.9457   4
  -6  -1  10 12.8422 17.5770   2
  -6  -1  10 11.0017 16.8804   1
  -5  -1  10 -11.222 13.8128   1
  -5  -1  10 -13.228 15.8469   4
  -5  -1  10 -11.432 15.6250   2
  -4  -1  10 679.063 31.6852   1
  -4  -1  10 631.930 28.9345   4
   3   1 -10 131.030 14.2324   3
  -3  -1  10 114.410 15.6021   4
  -3  -1  10 84.3922 17.1620   1
   2   1 -10 32.5504 10.7597   3
  -2  -1  10 6.77395 10.4118   4
  -2  -1  10 21.2634 13.0800   1
   1   1 -10 65.9675 12.2091   3
  -1  -1  10 55.7395 10.1837   4
  -1  -1  10 85.6664 13.6517   1
   0   1 -10 438.511 20.6518   3
   0  -1  10 439.874 14.2761   4
   0  -1  10 419.278 22.0301   1
  -1   1 -10 127.333 14.3700   3
   1  -1  10 115.351 13.9203   1
  -2   1 -10 247.400 17.6445   3
  -3   1 -10 20.2217 12.6967   3
  -4   1 -10 80.0881 16.1656   3
  -5   1 -10 10.0176 12.3826   3
  -6   1 -10 68.2450 17.4671   3
  -7   1 -10 168.773 22.2072   2
  -7   1 -10 218.312 23.0259   3
  -8   1 -10 170.676 22.8417   3
  -8   1 -10 129.519 23.3624   2
  -9   1 -10 35.9255 21.8825   2
  -9   1 -10 75.8639 20.4381   3
 -10   1 -10 15.9590 22.5826   2
 -10   1 -10 14.6183 19.0040   3
 -11   1 -10 34.2050 25.1978   2
 -12   1 -10 -28.397 24.9819   2
 -10   0  10 20.0393 24.7087   2
 -10   0  10 66.0558 27.8661   4
  -9   0  10 -4.3584 21.9154   2
  -9   0  10 22.8997 21.4701   4
  -9   0  10 32.2771 23.0660   1
  -8   0  10 72.9979 22.3141   2
  -8   0  10 76.7500 24.7161   4
  -8   0  10 43.5153 22.1347   1
  -7   0  10 19.1788 19.0147   1
  -7   0  10 53.0335 19.2596   2
  -7   0  10 35.3772 20.8979   4
  -6   0  10 33.2707 18.9440   4
  -6   0  10 39.3435 17.8948   2
  -6   0  10 35.2954 19.5565   1
  -5   0  10 140.184 19.9374   4
  -5   0  10 74.5091 16.8407   2
  -5   0  10 105.279 19.7159   1
   4   0 -10 7.74926 14.5745   3
  -4   0  10 19.9640 15.3053   1
  -4   0  10 52.1108 15.1962   4
   3   0 -10 320.244 20.4343   3
  -3   0  10 276.315 20.5273   4
  -3   0  10 357.598 24.2428   1
   2   0 -10 196.048 16.2351   3
  -2   0  10 186.525 18.6328   1
  -2   0  10 191.913 15.2718   4
   1   0 -10 112.857 13.4488   3
  -1   0  10 104.302 10.9448   4
  -1   0  10 95.4138 14.9025   1
   0   0 -10 92.6680 13.4595   3
   0   0  10 91.7101 8.58589   4
   0   0  10 119.216 14.0680   1
  -1   0 -10 -7.1937 10.5372   3
   1   0  10 0.31353 10.2233   1
  -2   0 -10 269.482 20.0606   3
   2   0  10 284.746 16.5219   1
  -3   0 -10 323.960 20.8603   3
  -4   0 -10 159.700 17.5357   3
  -5   0 -10 687.335 28.8349   3
  -6   0 -10 174.930 20.1100   2
  -6   0 -10 162.232 18.0561   3
  -7   0 -10 25.3532 15.1486   2
  -7   0 -10 13.7291 15.4587   3
  -8   0 -10 23.4913 16.2603   3
  -8   0 -10 35.0027 19.4973   2
  -9   0 -10 66.5528 20.3143   3
  -9   0 -10 39.4665 21.5374   2
 -10   0 -10 30.3712 22.9902   2
 -10   0 -10 66.4096 20.2085   3
 -11   0 -10 63.3935 26.4395   2
 -12   0 -10 10.2711 25.5374   2
 -10   1  10 1.16308 24.8836   2
 -10   1  10 24.6387 25.4427   4
  -9   1  10 -13.252 22.2401   2
  -9   1  10 -29.648 22.3325   4
  -9   1  10 14.6739 21.2170   1
  -8   1  10 4.65572 19.4112   2
  -8   1  10 -7.8891 19.4575   1
  -8   1  10 -8.7555 21.5558   4
  -7   1  10 20.4783 18.9642   1
  -7   1  10 36.4324 18.8030   2
  -7   1  10 29.5724 20.5110   4
  -6   1  10 187.076 23.2802   2
  -6   1  10 169.036 23.4447   1
  -6   1  10 184.354 24.3571   4
  -5   1  10 176.367 20.5063   1
  -5   1  10 225.031 22.6672   4
  -5   1  10 163.942 19.8053   2
  -4   1  10 484.120 28.6888   1
  -4   1  10 482.806 27.1890   4
  -4   1  10 548.489 28.3946   2
  -3   1  10 10.0771 12.3390   1
  -3   1  10 35.8945 13.0042   4
   2  -1 -10 148.394 15.7234   3
  -2   1  10 126.555 15.8492   1
  -2   1  10 142.004 14.1394   4
   1  -1 -10 137.734 15.2025   3
  -1   1  10 149.019 12.4100   4
  -1   1  10 114.987 14.2205   1
   0  -1 -10 261.661 18.7208   3
   0   1  10 297.548 18.1390   1
   0   1  10 262.200 12.0683   4
  -1  -1 -10 239.444 18.0448   3
   1   1  10 222.843 15.4989   1
  -2  -1 -10 62.4499 13.6477   3
   2   1  10 44.8424 9.52371   1
  -3  -1 -10 142.098 16.1471   3
  -4  -1 -10 4.47076 10.9142   3
  -5  -1 -10 27.3982 12.6165   3
  -6  -1 -10 106.004 16.5055   3
  -6  -1 -10 53.1510 14.1424   2
  -7  -1 -10 74.1769 16.7362   3
  -7  -1 -10 98.8847 19.3044   2
  -8  -1 -10 71.3380 20.4731   2
  -8  -1 -10 73.6929 17.4941   3
  -9  -1 -10 44.8562 21.4834   2
  -9  -1 -10 -30.871 15.0042   3
 -10  -1 -10 -15.635 21.2599   2
 -11  -1 -10 11.8034 24.4955   2
 -12  -1 -10 9.15641 26.1281   2
 -10   2  10 40.2030 25.2070   2
 -10   2  10 -8.4908 27.1600   4
  -9   2  10 95.2766 27.9146   4
  -9   2  10 27.0006 21.5844   1
  -8   2  10 112.300 25.3049   4
  -8   2  10 120.389 23.5706   2
  -8   2  10 113.548 23.9900   1
  -7   2  10 16.7378 18.8090   2
  -7   2  10 53.3094 21.5562   4
  -7   2  10 7.45441 19.9866   1
  -6   2  10 26.0931 17.5433   1
  -6   2  10 54.2345 18.2620   2
  -6   2  10 43.9593 20.0231   4
  -5   2  10 14.2760 14.5954   1
  -5   2  10 25.6629 16.9974   4
  -5   2  10 -3.1050 13.3213   2
  -4   2  10 225.964 18.4794   2
  -4   2  10 204.750 19.8912   1
  -4   2  10 229.476 21.5479   4
  -3   2  10 486.446 24.0752   4
  -3   2  10 504.488 26.7302   1
  -2   2  10 106.114 13.6090   4
  -2   2  10 86.5951 13.3845   1
   1  -2 -10 20.5175 12.0886   3
  -1   2  10 23.6680 11.6701   1
  -1   2  10 30.1594 9.44864   4
   0  -2 -10 24.2222 11.7324   3
   0   2  10 41.0339 8.24432   4
   0   2  10 46.3247 10.9680   1
  -1  -2 -10 -0.5234 11.0742   3
   1   2  10 17.6051 9.16977   1
  -2  -2 -10 30.2222 11.0238   3
   2   2  10 25.3344 8.51559   1
  -3  -2 -10 308.136 21.0728   3
   3   2  10 323.743 13.8716   1
  -4  -2 -10 232.009 19.3388   3
  -5  -2 -10 47.8504 14.8144   3
  -5  -2 -10 71.1167 14.2556   2
  -6  -2 -10 111.565 17.4451   2
  -6  -2 -10 130.014 17.8245   3
  -7  -2 -10 7.94365 13.6968   3
  -7  -2 -10 24.4349 16.5507   2
  -8  -2 -10 22.5091 15.4180   3
  -8  -2 -10 30.6535 16.6439   2
  -9  -2 -10 68.5228 18.8346   3
  -9  -2 -10 67.7006 22.0465   2
 -10  -2 -10 87.1562 25.2182   2
 -11  -2 -10 29.1763 25.0372   2
 -12  -2 -10 9.60640 25.8550   2
 -10   3  10 -4.1582 28.0538   4
  -9   3  10 -4.2461 25.3656   4
  -9   3  10 16.2994 21.3600   1
  -8   3  10 14.6360 24.2402   4
  -8   3  10 12.7622 18.8357   2
  -8   3  10 18.5534 18.1783   1
  -7   3  10 32.3160 19.4764   1
  -7   3  10 71.3380 21.7174   4
  -7   3  10 77.7101 21.0483   2
  -6   3  10 58.5067 16.8740   2
  -6   3  10 92.3833 21.4174   1
  -6   3  10 119.968 23.6405   4
  -5   3  10 139.779 19.8767   4
  -5   3  10 148.494 20.6636   1
  -5   3  10 156.045 18.1862   2
  -4   3  10 264.150 22.5995   4
  -4   3  10 262.858 19.0380   2
  -4   3  10 236.650 21.8633   1
  -3   3  10 19.1277 13.2063   4
  -3   3  10 -4.0760 13.6611   1
  -3   3  10 11.5802 10.1147   2
  -2   3  10 89.8288 13.9248   4
  -2   3  10 115.033 15.6947   1
  -1   3  10 103.541 12.5532   4
  -1   3  10 122.743 13.5871   1
   0  -3 -10 148.745 16.2753   3
   0   3  10 165.551 13.4689   1
   0   3  10 158.107 11.5895   4
  -1  -3 -10 717.994 25.5679   3
   1   3  10 748.956 19.3815   1
  -2  -3 -10 456.991 22.1691   3
   2   3  10 440.929 14.9575   1
  -3  -3 -10 3.46034 10.2915   3
   3   3  10 -0.9122 6.45859   1
  -4  -3 -10 12.2262 12.0952   3
  -5  -3 -10 80.4241 15.0649   3
  -5  -3 -10 73.5713 13.3757   2
  -6  -3 -10 199.331 19.2742   2
  -6  -3 -10 207.146 19.4740   3
  -7  -3 -10 37.3505 17.1386   2
  -7  -3 -10 74.1249 14.9990   3
  -8  -3 -10 84.3589 20.2469   2
  -8  -3 -10 42.3019 16.3103   3
  -9  -3 -10 -7.0146 18.9412   2
 -10  -3 -10 4.06030 22.1431   2
 -11  -3 -10 -6.2235 22.8137   2
 -12  -3 -10 -10.682 25.1624   2
 -10   4  10 32.4047 28.6517   4
  -9   4  10 46.2349 28.3792   4
  -9   4  10 50.1755 23.5104   1
  -8   4  10 -18.417 19.3300   1
  -8   4  10 25.7623 24.6708   4
  -7   4  10 24.4421 19.0349   1
  -7   4  10 4.98621 23.2350   4
  -6   4  10 -14.950 17.0946   1
  -6   4  10 -12.447 20.4997   4
  -5   4  10 153.247 22.4866   4
  -5   4  10 166.616 21.5859   1
  -5   4  10 158.886 19.6324   2
  -4   4  10 100.968 19.4111   4
  -4   4  10 96.3474 14.0786   2
  -4   4  10 130.238 18.8586   1
  -3   4  10 311.403 21.7494   1
  -3   4  10 331.583 23.6427   4
  -3   4  10 349.638 17.9720   2
  -2   4  10 216.754 17.8119   1
  -2   4  10 182.913 16.8753   4
  -2   4  10 206.878 14.4260   2
  -1   4  10 151.160 14.1068   4
  -1   4  10 129.946 14.1274   1
   0   4  10 171.941 13.6487   1
  -1  -4 -10 68.0791 13.6942   3
   1   4  10 51.4362 8.91855   1
  -2  -4 -10 9.03796 10.6361   3
   2   4  10 4.60396 6.78895   1
  -3  -4 -10 57.3489 13.1774   3
  -4  -4 -10 344.346 18.7974   2
  -4  -4 -10 323.685 21.3689   3
  -5  -4 -10 50.5032 13.0218   2
  -5  -4 -10 92.4247 15.5215   3
  -6  -4 -10 36.5632 14.3484   3
  -6  -4 -10 58.3480 14.6249   2
  -7  -4 -10 -12.888 14.5235   2
  -7  -4 -10 0.92795 12.7441   3
  -8  -4 -10 34.8561 16.8110   3
  -8  -4 -10 47.6330 17.7902   2
  -9  -4 -10 -4.2208 18.1216   2
 -10  -4 -10 28.2780 21.0989   2
 -11  -4 -10 12.9142 23.8116   2
 -12  -4 -10 -4.7017 25.5896   2
  -9   5  10 48.5523 28.2366   4
  -9   5  10 -16.496 22.3539   1
  -8   5  10 41.3542 26.0362   4
  -8   5  10 -27.039 16.4170   1
  -7   5  10 103.689 22.3088   1
  -7   5  10 55.3537 26.1236   4
  -6   5  10 78.7660 20.5435   1
  -6   5  10 68.1458 24.0337   4
  -5   5  10 49.7599 17.9077   1
  -5   5  10 26.3857 17.3120   4
  -4   5  10 95.5293 17.4365   1
  -4   5  10 52.4087 18.2774   4
  -3   5  10 77.4188 16.4928   4
  -3   5  10 65.3153 15.9908   1
  -2   5  10 38.0359 13.2369   4
  -2   5  10 36.1029 13.1780   1
  -1   5  10 284.428 20.2934   4
  -1   5  10 304.091 19.5778   1
   0   5  10 118.138 12.2351   1
   1   5  10 438.828 15.7840   1
  -2  -5 -10 117.647 15.9635   3
   2   5  10 113.736 10.4823   1
  -3  -5 -10 230.373 18.0612   3
  -4  -5 -10 23.7587 11.8849   3
  -4  -5 -10 38.1974 10.4737   2
  -5  -5 -10 62.4947 12.5832   2
  -5  -5 -10 26.6501 12.9362   3
  -6  -5 -10 159.734 16.8752   3
  -6  -5 -10 139.552 17.0665   2
  -7  -5 -10 165.167 18.3470   3
  -7  -5 -10 176.677 19.9198   2
  -8  -5 -10 78.5124 18.2450   2
  -9  -5 -10 11.2741 18.8194   2
 -10  -5 -10 -40.745 19.1841   2
 -11  -5 -10 3.25616 21.9090   2
 -12  -5 -10 7.13644 24.9452   2
  -9   6  10 11.1732 24.7120   4
  -9   6  10 -2.6859 22.8129   1
  -8   6  10 22.7036 27.2710   4
  -8   6  10 20.2116 21.1644   1
  -7   6  10 3.33029 16.8060   1
  -7   6  10 18.4083 24.1399   4
  -6   6  10 11.0269 17.9934   1
  -6   6  10 25.0372 22.8756   4
  -5   6  10 91.1920 19.8944   1
  -5   6  10 51.2798 21.7919   4
  -4   6  10 83.3524 19.8430   4
  -4   6  10 47.5095 16.9286   1
  -3   6  10 358.720 26.7214   4
  -3   6  10 307.867 21.9775   1
  -2   6  10 321.810 21.3454   4
  -2   6  10 302.900 19.8616   1
  -1   6  10 154.091 14.7600   1
   0   6  10 21.4802 9.65713   1
   1   6  10 7.60434 7.99158   1
  -2  -6 -10 298.168 19.7491   3
  -3  -6 -10 199.425 17.6309   3
  -4  -6 -10 190.740 17.7102   3
  -5  -6 -10 74.8974 14.8107   3
  -5  -6 -10 67.1111 12.8564   2
  -6  -6 -10 48.9798 13.7702   2
  -6  -6 -10 56.5960 13.5361   3
  -7  -6 -10 -10.366 13.9731   2
  -8  -6 -10 -13.668 14.9095   2
  -9  -6 -10 14.1433 17.7676   2
 -10  -6 -10 9.67664 20.2116   2
 -11  -6 -10 48.4381 23.8150   2
  -9   7  10 -21.169 21.1403   1
  -9   7  10 -5.3777 27.0493   4
  -8   7  10 24.2281 21.4473   1
  -8   7  10 -18.616 21.8875   4
  -7   7  10 107.414 23.3468   1
  -7   7  10 63.2551 23.3264   4
  -6   7  10 71.5051 24.5452   4
  -6   7  10 33.3674 17.7007   1
  -5   7  10 42.1730 17.9257   1
  -5   7  10 78.6704 20.7895   4
  -4   7  10 10.1495 15.7508   1
  -4   7  10 15.1754 18.3429   4
  -3   7  10 18.0448 16.2372   4
  -3   7  10 15.3860 13.6240   1
  -2   7  10 122.325 15.6688   1
  -1   7  10 119.270 13.9586   1
   0   7  10 326.780 17.0133   1
  -3  -7 -10 111.958 15.8718   3
  -4  -7 -10 14.3442 11.5407   3
  -5  -7 -10 99.5730 14.8142   3
  -6  -7 -10 16.0786 12.3501   3
  -7  -7 -10 18.6546 14.1143   2
  -8  -7 -10 24.4116 16.1426   2
  -9  -7 -10 7.31023 17.4413   2
 -10  -7 -10 18.9707 19.9571   2
 -11  -7 -10 -4.9451 22.1131   2
  -9   8  10 30.1886 30.6922   4
  -8   8  10 14.3779 27.8098   4
  -8   8  10 -13.314 20.9853   1
  -7   8  10 22.3665 18.1275   1
  -7   8  10 -1.2492 21.2871   4
  -6   8  10 12.8630 23.6431   4
  -6   8  10 -3.0910 18.6069   1
  -5   8  10 37.1302 16.8872   1
  -5   8  10 53.5514 22.0373   4
  -4   8  10 173.189 21.1253   1
  -4   8  10 211.665 25.1332   4
  -3   8  10 289.758 22.5586   1
  -2   8  10 386.507 23.9342   1
  -1   8  10 2.67772 10.2712   1
   0   8  10 -3.1300 9.29595   1
  -3  -8 -10 305.188 22.3602   3
  -4  -8 -10 111.685 15.2524   3
  -5  -8 -10 8.09391 11.4499   3
  -9   9  10 44.8020 31.4949   4
  -8   9  10 -16.145 26.7697   4
  -8   9  10 19.4836 22.5953   1
  -7   9  10 -24.880 20.2029   1
  -7   9  10 16.8178 25.9918   4
  -6   9  10 60.5305 21.6900   1
  -6   9  10 35.2791 21.8922   4
  -5   9  10 37.3305 23.8373   4
  -5   9  10 68.1027 19.4915   1
  -4   9  10 11.8478 16.0423   1
  -3   9  10 7.27476 14.3303   1
  -2   9  10 151.795 17.8641   1
  -1   9  10 128.247 15.3334   1
  -1   9  10 157.003 16.5165   5
  -3  -9 -10 25.8832 13.7215   3
  -4  -9 -10 12.2258 12.4737   3
  -5  -9 -10 62.6297 16.3458   3
  -8  10  10 -34.140 28.7306   4
  -8  10  10 -30.926 21.0110   1
  -7  10  10 -49.237 26.7593   4
  -7  10  10 13.7159 19.6515   1
  -6  10  10 23.6319 20.7593   1
  -5  10  10 63.0588 19.8750   1
  -4  10  10 160.678 22.5508   1
  -3  10  10 66.1315 17.7859   1
  -2  10  10 108.808 17.0019   1
  -1  10  10 25.9544 14.2822   5
  -1  10  10 8.26071 12.3926   1
   0  10  10 12.6517 14.1479   5
  -3 -10 -10 55.1673 15.5747   3
  -4 -10 -10 63.9427 15.1283   3
  -7  11  10 61.4925 25.5513   1
  -6  11  10 55.6078 23.1802   1
  -5  11  10 31.8153 20.8710   1
  -4  11  10 31.5797 18.0972   1
  -3  11  10 -15.830 16.0499   1
  -2  11  10 -5.3074 14.5006   1
  -1  11  10 60.7758 16.2836   5
   0  11  10 142.057 19.4920   5
   1  11  10 40.4243 15.1100   5
  10  11  10 11.4598 21.7696   5
  -7  12  10 -17.252 21.9844   1
  -6  12  10 54.4889 24.4317   1
  -5  12  10 47.8090 22.3706   1
  -4  12  10 40.9788 20.4436   1
  -3  12  10 8.73399 17.6843   1
  -1  12  10 -0.9849 14.1190   5
   0  12  10 -20.901 14.5512   5
   1  12  10 13.4622 16.4340   5
   2  12  10 64.2987 18.8745   5
   3  12  10 36.8694 17.6046   5
   4  12  10 45.3383 20.6282   5
   8  12  10 9.63787 20.4710   5
   9  12  10 16.9424 22.6319   5
  -7  13  10 33.9988 28.8481   1
  -6  13  10 35.3167 24.9301   1
  -5  13  10 76.1301 23.1370   1
  -4  13  10 42.2553 20.4942   1
  -3  13  10 34.2173 27.6949   1
  -1  13  10 75.4821 19.2796   5
   0  13  10 49.7798 18.1358   5
   1  13  10 32.4062 18.2922   5
   2  13  10 30.1376 19.6593   5
   3  13  10 -20.949 18.5382   5
   4  13  10 24.4780 18.0511   5
   5  13  10 26.7146 21.1803   5
   6  13  10 -0.4252 19.9857   5
   7  13  10 1.79461 21.1447   5
   8  13  10 16.7613 22.2574   5
  -6  14  10 -23.445 21.9082   1
  -5  14  10 9.93412 22.1196   1
  -4  14  10 -15.318 19.9221   1
  -1  14  10 34.4229 18.0600   5
   0  14  10 18.6048 18.3754   5
   1  14  10 -12.796 17.5883   5
   2  14  10 13.0904 18.7990   5
   3  14  10 34.9028 20.5602   5
   4  14  10 24.4682 20.6967   5
   5  14  10 4.59384 20.8912   5
   6  14  10 -8.4937 20.2187   5
   7  14  10 14.1261 22.0477   5
   8  14  10 19.7799 22.6562   5
  -5  15  10 -21.027 22.4892   1
  -1  15  10 40.7855 19.3520   5
   0  15  10 67.6378 21.5854   5
   1  15  10 -18.117 18.2764   5
   2  15  10 2.11228 20.3118   5
   3  15  10 9.76179 20.0456   5
   4  15  10 20.8583 21.4189   5
   5  15  10 23.1174 22.4165   5
   6  15  10 -4.1517 19.2303   5
   7  15  10 11.9992 23.0044   5
  -1  16  10 0.54531 18.8689   5
   0  16  10 -29.417 17.6713   5
   1  16  10 3.65042 20.7056   5
   2  16  10 -4.3677 18.2636   5
   3  16  10 6.44748 21.5361   5
   4  16  10 -4.1318 21.7955   5
   5  16  10 36.4449 21.4650   5
   6  16  10 -18.434 21.8392   5
  -1  17  10 0.51255 20.4117   5
   0  17  10 -9.6713 19.9137   5
   1  17  10 20.7860 21.3164   5
   2  17  10 43.4568 23.2242   5
   3  17  10 52.7219 25.7675   5
   4  17  10 -29.235 20.5633   5
   1  18  10 -18.456 21.4785   5
   0 -14  11 -15.584 34.5645   1
  -2 -13  11 1.19535 22.9440   1
  -1 -13  11 -3.3660 23.1776   1
   0 -13  11 31.9893 23.9751   1
  -5  13 -11 42.1905 25.5443   3
  -6  13 -11 -11.153 24.7400   3
  -4 -12  11 -35.113 20.4729   1
  -3 -12  11 9.64532 22.5962   1
  -2 -12  11 -2.7254 22.6517   1
  -1 -12  11 -31.476 17.8293   1
   0 -12  11 53.3760 24.5622   1
  -4  12 -11 -13.286 21.7818   3
  -5  12 -11 -6.4800 23.1249   3
  -6  12 -11 32.1043 24.9161   3
  -7  12 -11 17.1117 25.8886   3
  -5 -11  11 -22.419 46.7681   4
  -5 -11  11 -11.360 22.1416   1
  -4 -11  11 24.9739 23.3947   1
  -3 -11  11 10.8784 21.6471   1
  -2 -11  11 43.5762 22.5841   1
  -1 -11  11 14.5446 22.2865   1
  -3  11 -11 -8.5058 20.5247   3
  -4  11 -11 64.9725 22.8088   3
  -5  11 -11 52.3622 24.2814   3
  -6  11 -11 62.2948 25.3990   3
  -7  11 -11 -16.998 23.5258   3
  -8  11 -11 -1.4507 24.1131   3
  -6 -10  11 23.8572 24.8548   2
  -6 -10  11 3.96998 25.0034   4
  -5 -10  11 95.5541 27.9554   4
  -5 -10  11 76.7046 25.3413   1
  -4 -10  11 17.3531 21.7896   1
  -3 -10  11 8.74131 18.4027   1
  -2 -10  11 2.44878 20.0303   1
  -1 -10  11 30.9213 20.9511   1
  -3  10 -11 -7.0701 18.1817   3
  -4  10 -11 15.2915 21.2850   3
  -5  10 -11 23.6199 22.4696   3
  -6  10 -11 -1.9538 21.4531   3
  -7  10 -11 58.2141 24.7896   3
  -8  10 -11 -5.3754 23.3070   3
  -9  10 -11 1.18723 25.3937   3
  -6  -9  11 -22.578 22.8702   2
  -6  -9  11 -6.4470 23.7632   4
  -6  -9  11 -2.9226 20.8686   1
  -5  -9  11 -28.191 19.1575   1
  -5  -9  11 -25.798 21.2388   4
  -4  -9  11 -3.6509 19.4530   1
  -4  -9  11 48.8708 23.8621   4
  -3  -9  11 10.2470 19.9474   1
  -2  -9  11 7.89621 20.2434   1
  -1  -9  11 45.4373 21.2404   1
   0  -9  11 18.3882 17.1891   1
  -2   9 -11 -3.9366 17.6729   3
  -3   9 -11 -5.3044 18.1470   3
  -4   9 -11 83.8875 21.6599   3
  -5   9 -11 61.4373 20.9471   3
  -6   9 -11 -7.7641 16.9107   3
  -7   9 -11 9.55768 21.7938   3
  -8   9 -11 1.61078 21.8305   3
  -9   9 -11 57.1660 25.8603   3
  -7  -8  11 27.2732 26.0556   4
  -7  -8  11 38.1314 23.1547   1
  -7  -8  11 37.5978 22.4104   2
  -6  -8  11 6.97004 21.6096   1
  -6  -8  11 2.22127 23.7372   2
  -6  -8  11 77.6512 26.1188   4
  -5  -8  11 50.6298 22.1753   1
  -5  -8  11 109.997 24.7654   4
  -4  -8  11 104.690 23.9498   4
  -4  -8  11 24.8438 20.1816   1
  -3  -8  11 30.5119 19.3856   1
  -3  -8  11 32.0053 20.9509   4
  -2  -8  11 16.4752 17.1027   1
  -1  -8  11 -15.355 17.5541   1
   0  -8  11 43.9676 19.3636   1
  -1   8 -11 -7.5643 17.8992   3
  -2   8 -11 -0.4486 16.9119   3
  -3   8 -11 10.5860 17.3267   3
  -4   8 -11 6.49014 17.9645   3
  -5   8 -11 22.1651 19.6229   3
  -6   8 -11 4.28692 19.4567   3
  -7   8 -11 70.8820 22.8868   3
  -8   8 -11 -10.618 20.6353   3
  -9   8 -11 15.1288 23.3749   3
 -10   8 -11 0.65317 24.2868   3
  -7  -7  11 32.7799 24.6632   4
  -7  -7  11 2.72592 20.9227   1
  -7  -7  11 33.0784 24.2939   2
  -6  -7  11 10.2704 19.8426   2
  -6  -7  11 25.3435 23.1097   4
  -6  -7  11 0.65000 18.9481   1
  -5  -7  11 19.3928 21.6553   4
  -5  -7  11 16.3810 20.1429   1
  -4  -7  11 94.7001 22.1085   1
  -4  -7  11 119.911 23.6527   4
  -3  -7  11 8.03612 18.1679   4
  -3  -7  11 9.09716 18.6107   1
  -2  -7  11 78.8557 20.8773   1
  -1  -7  11 36.8372 18.7151   1
   0  -7  11 14.8413 17.0135   1
  -1   7 -11 87.9740 18.2470   3
  -2   7 -11 3.71981 15.7833   3
  -3   7 -11 6.86745 15.9980   3
  -4   7 -11 69.8660 19.7409   3
  -5   7 -11 105.148 21.5062   3
  -6   7 -11 2.91870 19.6014   3
  -7   7 -11 -5.3144 17.9031   3
  -8   7 -11 20.4359 19.2051   3
  -9   7 -11 22.0492 22.9251   3
 -10   7 -11 23.7790 24.1539   3
  -8  -6  11 14.2021 24.5922   4
  -8  -6  11 -2.1470 24.1239   2
  -8  -6  11 -7.6847 22.5355   1
  -7  -6  11 11.1319 20.9939   1
  -7  -6  11 16.4399 24.6890   4
  -7  -6  11 27.4760 20.6166   2
  -6  -6  11 69.3524 24.6524   4
  -6  -6  11 28.4633 19.5463   2
  -6  -6  11 0.44431 19.5690   1
  -5  -6  11 36.6288 20.2909   1
  -5  -6  11 84.8566 23.5355   4
  -4  -6  11 2.19769 16.5820   1
  -4  -6  11 23.6356 18.3023   4
  -3  -6  11 34.3415 17.2630   4
  -3  -6  11 32.0298 18.7754   1
  -2  -6  11 20.5697 15.0792   4
  -2  -6  11 -15.432 16.4069   1
  -1  -6  11 123.912 20.8796   1
   0   6 -11 15.1579 14.1898   3
   0  -6  11 4.14632 16.7228   1
  -1   6 -11 6.98101 14.0625   3
  -2   6 -11 91.1472 17.6869   3
  -3   6 -11 460.129 28.8822   3
  -4   6 -11 47.1129 18.0243   3
  -5   6 -11 70.2484 20.6462   3
  -6   6 -11 0.16143 18.3922   3
  -7   6 -11 119.778 23.5590   3
  -8   6 -11 76.6119 24.2223   3
  -9   6 -11 26.9485 22.0421   3
 -10   6 -11 -25.892 21.7310   3
 -11   6 -11 25.3288 25.5859   3
  -8  -5  11 4.67175 23.8099   4
  -8  -5  11 14.1703 24.0340   2
  -8  -5  11 3.56352 21.8340   1
  -7  -5  11 -2.3115 22.5801   4
  -7  -5  11 5.97601 21.9606   2
  -7  -5  11 62.0578 22.4739   1
  -6  -5  11 -2.3812 20.5578   4
  -6  -5  11 -13.930 18.7724   1
  -6  -5  11 5.54222 21.0852   2
  -5  -5  11 -3.4096 18.6393   4
  -5  -5  11 18.1664 19.5972   1
  -4  -5  11 76.4121 19.5802   4
  -4  -5  11 100.496 21.2138   1
  -3  -5  11 135.127 21.6413   1
  -3  -5  11 200.106 21.2810   4
  -2  -5  11 41.7303 15.8222   4
  -2  -5  11 8.68913 15.1320   1
  -1  -5  11 45.8363 16.0732   1
   0   5 -11 -15.159 11.9343   3
   0  -5  11 -2.2059 16.1983   1
  -1   5 -11 25.7404 14.5054   3
  -2   5 -11 13.5463 14.6768   3
  -3   5 -11 223.969 22.4993   3
  -4   5 -11 127.768 18.6983   3
  -5   5 -11 8.29146 17.2083   3
  -6   5 -11 23.0358 18.7620   3
  -7   5 -11 13.8294 19.2282   3
  -8   5 -11 12.3369 18.0396   3
  -9   5 -11 14.0455 21.6855   3
 -10   5 -11 57.8365 24.0401   3
 -11   5 -11 24.6001 24.2606   3
  -8  -4  11 36.5732 23.3478   1
  -8  -4  11 43.3471 25.4189   2
  -8  -4  11 27.2567 25.3891   4
  -7  -4  11 15.3298 18.5347   2
  -7  -4  11 60.6921 24.8822   4
  -7  -4  11 53.9115 22.2732   1
  -6  -4  11 81.7703 20.5445   1
  -6  -4  11 32.5369 21.7845   4
  -6  -4  11 56.4871 22.1029   2
  -5  -4  11 79.3148 19.3552   1
  -5  -4  11 75.6497 21.1335   4
  -4  -4  11 6.90763 17.9917   1
  -4  -4  11 -26.234 14.6918   4
  -3  -4  11 13.1674 15.2943   4
  -3  -4  11 4.04112 16.3045   1
  -2  -4  11 16.7185 16.1428   1
  -2  -4  11 43.2843 14.0354   4
   1   4 -11 9.99492 12.0636   3
  -1  -4  11 40.9528 16.6429   1
   0   4 -11 30.2781 12.9474   3
   0  -4  11 21.7543 15.7455   1
  -1   4 -11 275.523 20.3139   3
  -2   4 -11 252.948 20.1898   3
  -3   4 -11 129.788 18.6570   3
  -4   4 -11 -1.6264 13.2824   3
  -5   4 -11 68.2936 18.5361   3
  -6   4 -11 193.324 25.0439   3
  -7   4 -11 87.0339 22.2328   3
  -8   4 -11 91.4307 23.0352   3
  -9   4 -11 33.5343 22.2458   3
 -10   4 -11 -6.1722 21.3382   3
 -11   4 -11 -26.646 21.6317   3
  -9  -3  11 59.5010 39.1053   1
  -9  -3  11 8.76458 26.4611   4
  -9  -3  11 -4.5284 23.8179   2
  -8  -3  11 48.3252 24.5427   2
  -8  -3  11 -5.0643 23.7347   4
  -8  -3  11 -13.329 21.2687   1
  -7  -3  11 63.6852 22.2556   2
  -7  -3  11 15.1898 19.6364   1
  -7  -3  11 -19.226 21.3418   4
  -6  -3  11 -18.695 17.7765   1
  -6  -3  11 0.44973 19.3518   2
  -6  -3  11 -9.4711 19.4701   4
  -5  -3  11 -11.761 14.7640   1
  -5  -3  11 37.2884 18.0664   4
  -4  -3  11 40.5085 18.0697   1
  -4  -3  11 73.4230 17.2448   4
  -3  -3  11 53.8547 15.4418   4
  -3  -3  11 36.5979 17.3097   1
  -2  -3  11 203.099 20.8734   1
  -2  -3  11 298.076 19.8950   4
   1   3 -11 189.629 16.3399   3
  -1  -3  11 195.432 22.4496   4
  -1  -3  11 191.579 19.9752   1
   0   3 -11 140.526 15.9434   3
   0  -3  11 135.820 17.7234   1
  -1   3 -11 -10.204 11.6420   3
   1  -3  11 8.98705 13.6064   1
  -2   3 -11 242.649 20.4756   3
  -3   3 -11 343.130 23.5132   3
  -4   3 -11 238.166 21.2109   3
  -5   3 -11 93.6087 19.0683   3
  -6   3 -11 9.37769 16.9120   3
  -7   3 -11 12.8876 17.8449   3
  -8   3 -11 22.4961 19.4070   3
  -9   3 -11 10.5691 20.4173   3
 -10   3 -11 16.8595 21.5377   3
 -11   3 -11 -24.145 21.2793   3
 -12   3 -11 -1.1124 27.0755   3
  -9  -2  11 14.4956 22.7066   1
  -9  -2  11 -25.304 22.1454   2
  -9  -2  11 -13.756 23.8144   4
  -8  -2  11 6.04157 21.7534   2
  -8  -2  11 17.0122 23.0756   4
  -8  -2  11 21.2145 22.4247   1
  -7  -2  11 39.0685 22.1788   1
  -7  -2  11 70.1598 22.9900   2
  -7  -2  11 50.2285 23.5184   4
  -6  -2  11 74.5171 20.4753   1
  -6  -2  11 99.7997 21.2060   2
  -6  -2  11 68.8180 22.3815   4
  -5  -2  11 90.3421 19.5895   4
  -5  -2  11 76.9775 20.4577   1
  -4  -2  11 14.7423 15.2729   4
  -4  -2  11 38.1548 17.3106   1
  -3  -2  11 16.1190 13.2058   4
  -3  -2  11 19.8509 14.4786   1
   2   2 -11 10.3452 11.4930   3
  -2  -2  11 10.8281 11.4569   4
  -2  -2  11 -8.0010 14.1491   1
   1   2 -11 252.857 18.3987   3
  -1  -2  11 225.272 16.5157   4
  -1  -2  11 242.433 21.3221   1
   0   2 -11 177.540 16.7705   3
   0  -2  11 197.941 19.2632   1
  -1   2 -11 184.639 17.4110   3
   1  -2  11 184.271 18.1120   1
  -2   2 -11 115.530 16.2821   3
  -3   2 -11 8.86199 13.4406   3
  -4   2 -11 7.94343 13.6712   3
  -5   2 -11 56.1678 16.8088   3
  -6   2 -11 102.809 19.2679   3
  -7   2 -11 89.4146 19.8511   3
  -8   2 -11 31.4426 20.9613   3
  -9   2 -11 42.1769 20.2612   3
 -10   2 -11 20.0143 21.3555   3
 -10   2 -11 -28.606 21.2142   2
 -11   2 -11 -7.1716 20.3454   3
 -11   2 -11 -64.040 23.0397   2
 -12   2 -11 11.4757 27.6877   2
  -9  -1  11 -0.7211 25.0077   4
  -9  -1  11 75.3020 25.5383   2
  -9  -1  11 63.4982 25.3041   1
  -8  -1  11 17.5560 18.9126   1
  -8  -1  11 62.4179 24.0895   2
  -8  -1  11 73.3029 25.2687   4
  -7  -1  11 6.98302 20.0919   2
  -7  -1  11 -4.0598 18.0574   1
  -7  -1  11 -3.3579 20.7409   4
  -6  -1  11 -20.177 18.3137   1
  -6  -1  11 -16.108 17.9955   4
  -6  -1  11 17.0000 18.8605   2
  -5  -1  11 34.7846 15.4174   2
  -5  -1  11 -1.7742 16.5113   4
  -5  -1  11 -26.136 15.9779   1
  -4  -1  11 13.9943 15.2492   4
  -4  -1  11 6.89667 16.5618   1
   3   1 -11 92.3395 14.4701   3
  -3  -1  11 100.979 16.4890   4
  -3  -1  11 109.550 18.4684   1
   2   1 -11 238.135 17.7693   3
  -2  -1  11 208.292 21.2519   1
  -2  -1  11 204.072 16.5406   4
   1   1 -11 181.285 16.0690   3
  -1  -1  11 143.611 12.7919   4
  -1  -1  11 169.905 18.3431   1
   0   1 -11 16.0568 12.3382   3
   0  -1  11 21.8932 13.1610   1
  -1   1 -11 23.3382 12.7877   3
   1  -1  11 31.9213 12.6853   1
  -2   1 -11 296.047 20.9385   3
   2  -1  11 290.859 19.7996   1
  -3   1 -11 230.951 20.0254   3
  -4   1 -11 368.950 23.0460   3
  -5   1 -11 252.621 20.3223   3
  -6   1 -11 57.8928 17.0643   3
  -7   1 -11 5.50502 17.1532   3
  -8   1 -11 -0.9651 16.0168   3
  -9   1 -11 22.9192 20.5718   3
  -9   1 -11 19.7145 21.4079   2
 -10   1 -11 -4.2260 18.9168   3
 -10   1 -11 28.2479 22.9072   2
 -11   1 -11 27.2744 22.5772   3
 -11   1 -11 42.6770 26.1462   2
 -12   1 -11 11.3771 27.1060   2
  -9   0  11 -26.356 21.9508   1
  -9   0  11 16.9578 24.6520   2
  -9   0  11 65.3617 26.6079   4
  -8   0  11 -3.5949 20.3276   2
  -8   0  11 10.4715 19.9697   1
  -8   0  11 -16.696 22.3206   4
  -7   0  11 29.8681 21.6693   4
  -7   0  11 49.9925 21.0157   2
  -7   0  11 53.9812 21.8989   1
  -6   0  11 244.873 25.6024   2
  -6   0  11 247.186 27.2186   1
  -6   0  11 268.743 27.4137   4
  -5   0  11 82.6719 17.9866   2
  -5   0  11 105.757 20.5880   4
  -5   0  11 62.3877 20.1544   1
  -4   0  11 57.8270 16.5761   4
  -4   0  11 29.4237 16.3852   1
   3   0 -11 2.43825 12.1865   3
  -3   0  11 15.4135 12.6124   4
  -3   0  11 5.95831 15.2429   1
   2   0 -11 226.551 17.7851   3
  -2   0  11 191.410 18.9180   1
  -2   0  11 206.070 16.2295   4
   1   0 -11 44.0043 12.8833   3
  -1   0  11 50.9924 10.4538   4
  -1   0  11 59.9310 13.6245   1
   0   0 -11 79.3589 14.0605   3
   0   0  11 74.4424 14.1012   1
  -1   0 -11 201.790 17.3551   3
   1   0  11 250.121 17.8144   1
  -2   0 -11 22.4173 13.1872   3
   2   0  11 31.9100 11.0855   1
  -3   0 -11 -3.3938 12.3754   3
  -4   0 -11 9.44152 13.9268   3
  -5   0 -11 56.7577 16.1923   3
  -6   0 -11 89.7530 17.6931   3
  -7   0 -11 25.5131 16.6750   3
  -7   0 -11 24.0791 17.7102   2
  -8   0 -11 135.225 21.5838   3
  -8   0 -11 153.192 23.7634   2
  -9   0 -11 39.9593 19.6094   3
  -9   0 -11 70.5715 22.9774   2
 -10   0 -11 -6.9179 21.7323   2
 -10   0 -11 -1.8975 19.5355   3
 -11   0 -11 8.00295 24.4570   2
 -12   0 -11 -26.184 23.9722   2
  -9   1  11 -27.050 20.9982   1
  -9   1  11 3.36642 21.3876   2
  -9   1  11 20.6372 25.8743   4
  -8   1  11 62.6340 24.0425   1
  -8   1  11 65.6347 24.9993   4
  -8   1  11 82.2925 23.5644   2
  -7   1  11 86.5876 22.4407   2
  -7   1  11 74.3508 21.9422   1
  -7   1  11 28.2643 21.8000   4
  -6   1  11 -7.5279 18.4768   4
  -6   1  11 -5.5875 16.9666   2
  -6   1  11 10.6513 18.9837   1
  -5   1  11 98.9702 20.1000   4
  -5   1  11 110.543 20.4199   1
  -5   1  11 45.7596 17.0442   2
  -4   1  11 21.1512 15.0625   2
  -4   1  11 21.1096 15.3036   4
  -4   1  11 3.50945 14.3682   1
   3  -1 -11 38.4437 14.1614   3
  -3   1  11 8.93291 13.1407   4
  -3   1  11 30.2814 15.3922   1
   2  -1 -11 242.690 19.1817   3
  -2   1  11 244.213 17.1192   4
  -2   1  11 242.596 19.0088   1
   1  -1 -11 160.603 16.7792   3
  -1   1  11 207.152 18.1282   1
  -1   1  11 179.821 13.2567   4
   0  -1 -11 21.0145 11.9911   3
   0   1  11 26.9290 11.5613   1
   0   1  11 23.5998 9.30397   4
  -1  -1 -11 19.4459 11.2127   3
   1   1  11 9.66129 10.3380   1
  -2  -1 -11 48.9611 14.1066   3
   2   1  11 54.9152 11.2064   1
  -3  -1 -11 301.192 21.2827   3
   3   1  11 255.748 16.6742   1
  -4  -1 -11 293.308 21.7332   3
  -5  -1 -11 290.970 23.4637   3
  -6  -1 -11 80.4005 17.6465   3
  -7  -1 -11 -2.5257 14.1709   3
  -7  -1 -11 7.18421 16.2796   2
  -8  -1 -11 5.09980 16.0141   2
  -8  -1 -11 25.2712 17.3255   3
  -9  -1 -11 63.3703 20.7654   3
  -9  -1 -11 75.0482 22.0214   2
 -10  -1 -11 106.755 26.3253   2
 -10  -1 -11 74.5162 24.5966   3
 -11  -1 -11 62.3359 25.7940   2
 -12  -1 -11 -7.6557 25.8860   2
  -9   2  11 9.43655 22.3765   1
  -9   2  11 8.03719 27.7401   2
  -9   2  11 18.9026 23.1523   4
  -8   2  11 40.9639 21.4371   2
  -8   2  11 20.0219 21.6304   1
  -8   2  11 38.1674 24.6509   4
  -7   2  11 77.2227 19.8984   1
  -7   2  11 112.479 23.9931   4
  -7   2  11 109.344 22.4730   2
  -6   2  11 147.448 21.3975   2
  -6   2  11 186.310 25.6078   4
  -6   2  11 162.142 23.6737   1
  -5   2  11 26.8849 17.7359   1
  -5   2  11 -14.848 13.6863   2
  -5   2  11 44.4181 18.3744   4
  -4   2  11 22.3247 13.7098   2
  -4   2  11 7.36388 16.3444   1
  -4   2  11 11.0416 15.5838   4
  -3   2  11 198.712 18.6950   1
  -3   2  11 201.057 18.4604   4
  -2   2  11 -7.6891 10.3550   4
  -2   2  11 -0.9225 12.3481   1
   1  -2 -11 258.493 19.6795   3
  -1   2  11 251.211 16.3579   4
  -1   2  11 237.280 17.7306   1
   0  -2 -11 183.535 17.2054   3
   0   2  11 204.642 13.3092   4
   0   2  11 223.684 16.2220   1
  -1  -2 -11 298.973 19.2468   3
   1   2  11 243.458 17.3109   1
  -2  -2 -11 223.373 17.7408   3
   2   2  11 265.526 16.1452   1
  -3  -2 -11 20.5031 13.5183   3
   3   2  11 -0.5467 8.34918   1
  -4  -2 -11 14.3642 14.0082   3
  -5  -2 -11 61.8943 16.3710   3
  -6  -2 -11 148.303 19.6272   3
  -6  -2 -11 147.642 17.9886   2
  -7  -2 -11 93.7616 18.0521   2
  -7  -2 -11 108.341 17.8604   3
  -8  -2 -11 122.307 22.1856   2
  -8  -2 -11 88.5690 18.7938   3
  -9  -2 -11 45.8029 21.2383   2
  -9  -2 -11 68.4103 18.7975   3
 -10  -2 -11 -20.392 18.2131   2
 -11  -2 -11 -11.510 20.0329   2
 -12  -2 -11 6.88332 25.2057   2
  -9   3  11 98.5958 30.0800   4
  -9   3  11 23.9707 22.5221   1
  -8   3  11 8.25373 25.4377   4
  -8   3  11 27.2474 21.2937   1
  -7   3  11 22.6145 20.4223   4
  -7   3  11 12.0452 20.1743   1
  -6   3  11 63.4852 18.4993   2
  -6   3  11 65.5340 20.5318   1
  -6   3  11 49.3307 22.3771   4
  -5   3  11 74.6413 18.6795   1
  -5   3  11 62.6532 17.0102   2
  -5   3  11 80.3998 19.9360   4
  -4   3  11 17.7461 16.1213   4
  -4   3  11 21.9677 16.2210   1
  -4   3  11 46.2147 13.9285   2
  -3   3  11 411.036 24.4012   4
  -3   3  11 388.011 21.6516   2
  -3   3  11 370.162 26.2161   1
  -2   3  11 193.545 16.8085   4
  -2   3  11 224.822 19.3558   1
  -1   3  11 141.929 15.0092   1
  -1   3  11 147.869 13.6575   4
   0  -3 -11 107.610 15.5144   3
   0   3  11 117.269 13.2686   1
   0   3  11 79.2622 10.5041   4
  -1  -3 -11 -2.8192 12.0468   3
   1   3  11 -5.3107 8.69916   1
  -2  -3 -11 63.4072 13.0320   3
   2   3  11 56.2689 9.61753   1
  -3  -3 -11 179.440 16.7452   3
   3   3  11 197.802 12.7795   1
  -4  -3 -11 245.274 20.3733   3
  -5  -3 -11 156.150 17.9451   3
  -5  -3 -11 110.512 15.3379   2
  -6  -3 -11 100.985 17.6810   3
  -6  -3 -11 78.7677 16.2105   2
  -7  -3 -11 -5.0972 13.4802   3
  -7  -3 -11 -17.027 14.2516   2
  -8  -3 -11 46.6860 16.4185   3
  -8  -3 -11 46.4950 19.1731   2
  -9  -3 -11 87.3587 22.7363   2
 -10  -3 -11 83.1514 25.6109   2
 -11  -3 -11 0.51717 22.3958   2
 -12  -3 -11 -9.1336 25.7277   2
  -9   4  11 -2.6316 21.7402   1
  -9   4  11 10.0074 27.9960   4
  -8   4  11 5.41483 21.3095   1
  -8   4  11 -34.313 24.5949   4
  -7   4  11 73.3177 24.5974   4
  -7   4  11 47.1574 20.9892   1
  -6   4  11 108.991 24.8849   4
  -6   4  11 90.0429 20.9988   1
  -5   4  11 -4.0365 16.3463   1
  -5   4  11 10.0178 18.8689   4
  -4   4  11 80.8418 17.6731   1
  -4   4  11 56.1806 18.9719   4
  -3   4  11 134.159 17.4859   1
  -3   4  11 124.712 17.7999   4
  -2   4  11 12.0569 12.8163   4
  -2   4  11 9.87420 11.4993   1
  -1   4  11 398.107 21.5731   1
  -1   4  11 373.961 19.6346   4
   0   4  11 234.132 15.7237   1
  -1  -4 -11 269.899 20.2788   3
   1   4  11 264.176 14.9883   1
  -2  -4 -11 276.235 19.8005   3
   2   4  11 342.964 14.8258   1
  -3  -4 -11 71.9256 14.9599   3
  -4  -4 -11 160.789 18.1325   3
  -5  -4 -11 229.453 17.5497   2
  -5  -4 -11 219.190 19.5063   3
  -6  -4 -11 224.516 20.6931   3
  -6  -4 -11 204.770 19.1796   2
  -7  -4 -11 91.3840 17.9100   2
  -7  -4 -11 78.8695 16.1403   3
  -8  -4 -11 73.9636 19.9144   2
  -8  -4 -11 77.2821 17.0972   3
  -9  -4 -11 33.7933 20.9726   2
 -10  -4 -11 4.75618 21.5947   2
 -11  -4 -11 -5.8659 23.7918   2
 -12  -4 -11 9.47129 25.5720   2
  -9   5  11 16.6641 28.2243   4
  -9   5  11 -9.4341 22.1625   1
  -8   5  11 -23.606 16.8854   1
  -8   5  11 -10.960 24.7299   4
  -7   5  11 -19.920 18.8499   1
  -7   5  11 -1.8477 20.9387   4
  -6   5  11 50.5137 23.0786   4
  -6   5  11 -8.5848 17.0164   1
  -5   5  11 100.575 18.2365   1
  -5   5  11 124.457 23.6841   4
  -4   5  11 44.6174 15.7008   1
  -4   5  11 27.9959 17.9216   4
  -3   5  11 537.532 28.2294   1
  -3   5  11 559.323 28.4482   4
  -2   5  11 617.595 25.9154   1
  -2   5  11 527.246 26.1239   4
  -1   5  11 8.14612 12.1002   4
  -1   5  11 13.4381 11.0827   1
   0   5  11 14.2686 9.81130   1
  -1  -5 -11 4.55994 11.9633   3
   1   5  11 -2.3474 8.45775   1
  -2  -5 -11 220.563 18.1766   3
  -3  -5 -11 396.959 23.5876   3
  -4  -5 -11 154.965 16.8665   3
  -5  -5 -11 17.4232 11.5677   2
  -5  -5 -11 17.8321 13.8052   3
  -6  -5 -11 -3.5594 12.7430   3
  -6  -5 -11 16.3403 13.7308   2
  -7  -5 -11 -2.8690 13.3137   3
  -7  -5 -11 3.79337 14.6123   2
  -8  -5 -11 7.95839 16.5158   2
  -9  -5 -11 8.34021 17.8926   2
 -10  -5 -11 4.01166 20.5864   2
 -11  -5 -11 -32.605 21.6866   2
 -12  -5 -11 46.4282 27.6278   2
  -9   6  11 12.5841 29.7330   4
  -9   6  11 17.6140 26.4987   1
  -8   6  11 -8.5878 26.7734   4
  -8   6  11 8.05945 21.9427   1
  -7   6  11 111.779 23.4491   1
  -7   6  11 118.013 26.1488   4
  -6   6  11 89.4292 26.1025   4
  -6   6  11 80.8266 20.7536   1
  -5   6  11 36.8926 18.4268   1
  -5   6  11 47.5755 22.2832   4
  -4   6  11 79.5260 19.9084   4
  -4   6  11 60.3781 15.5997   1
  -3   6  11 25.9103 14.9102   1
  -3   6  11 38.7238 17.0627   4
  -2   6  11 288.236 21.3134   4
  -2   6  11 269.608 19.8744   1
  -1   6  11 128.725 15.2434   1
   0   6  11 425.383 19.7949   1
   1   6  11 288.388 15.7132   1
  -2  -6 -11 110.404 15.3854   3
  -3  -6 -11 17.3922 13.3376   3
  -4  -6 -11 4.07503 12.6228   3
  -5  -6 -11 61.9044 15.3262   3
  -6  -6 -11 61.2063 15.1960   3
  -6  -6 -11 46.8826 14.6359   2
  -7  -6 -11 117.396 18.4355   2
  -7  -6 -11 103.366 17.6739   3
  -8  -6 -11 13.7963 16.2836   2
  -9  -6 -11 20.5680 18.3123   2
 -10  -6 -11 -26.401 19.8715   2
 -11  -6 -11 -39.869 20.2645   2
  -9   7  11 15.6365 28.5380   4
  -8   7  11 16.4061 23.4923   4
  -8   7  11 23.4376 22.4120   1
  -7   7  11 16.3627 24.9305   4
  -7   7  11 -29.329 16.2068   1
  -6   7  11 -6.7488 17.8125   1
  -6   7  11 1.82321 18.6005   4
  -5   7  11 10.4136 21.3472   4
  -5   7  11 22.7166 17.8183   1
  -4   7  11 4.42824 15.2478   1
  -4   7  11 45.6426 18.0233   4
  -3   7  11 200.345 22.5742   4
  -3   7  11 188.530 19.2559   1
  -2   7  11 437.393 24.6617   1
  -1   7  11 119.298 14.1947   1
   0   7  11 48.8918 11.0842   1
  -2  -7 -11 177.039 17.6830   3
  -3  -7 -11 158.662 18.1594   3
  -4  -7 -11 37.6044 13.8273   3
  -5  -7 -11 60.6268 14.7616   3
  -6  -7 -11 6.07750 13.2182   3
 -10  -7 -11 49.1894 25.5188   2
 -11  -7 -11 28.4988 25.7052   2
  -9   8  11 25.5523 29.4404   4
  -8   8  11 15.7086 19.5790   1
  -8   8  11 30.3031 28.6486   4
  -7   8  11 52.9169 22.9202   1
  -7   8  11 23.9613 27.2330   4
  -6   8  11 76.6237 22.3886   1
  -6   8  11 25.2310 25.0855   4
  -5   8  11 11.7679 22.2920   4
  -5   8  11 0.06380 17.0725   1
  -4   8  11 25.5675 18.7253   4
  -4   8  11 48.4321 17.9547   1
  -3   8  11 7.44796 14.4609   1
  -2   8  11 236.362 19.7387   1
  -1   8  11 260.930 18.9474   1
   0   8  11 165.615 17.1548   1
  -3  -8 -11 29.2862 13.9520   3
  -4  -8 -11 0.80940 12.5384   3
  -5  -8 -11 4.65239 12.3683   3
  -8   9  11 31.7229 29.9056   4
  -8   9  11 23.8270 23.4622   1
  -7   9  11 7.56844 27.6285   4
  -7   9  11 42.1035 21.2385   1
  -6   9  11 41.2278 21.4216   1
  -6   9  11 9.37847 25.1199   4
  -5   9  11 59.9600 19.7572   1
  -5   9  11 23.6792 24.2599   4
  -4   9  11 158.752 21.1530   1
  -3   9  11 236.170 22.2266   1
  -2   9  11 170.037 18.3240   1
  -1   9  11 7.70311 12.1950   1
  -3  -9 -11 114.090 18.4965   3
  -4  -9 -11 102.589 16.8090   3
  -5  -9 -11 18.6226 13.4496   3
  -8  10  11 0.26320 38.0580   1
  -8  10  11 -48.171 28.2260   4
  -7  10  11 -36.100 27.5344   4
  -7  10  11 -1.0553 20.8774   1
  -6  10  11 21.9236 20.8677   1
  -5  10  11 39.3040 20.3370   1
  -4  10  11 48.4143 19.0525   1
  -3  10  11 4.37476 16.1792   1
  -2  10  11 25.8681 14.4114   1
  -1  10  11 105.445 16.7212   5
  -3 -10 -11 -6.2939 14.1512   3
  -4 -10 -11 3.92229 13.7716   3
  -7  11  11 -1.9102 22.5993   1
  -6  11  11 40.7794 23.4192   1
  -5  11  11 35.9020 21.4462   1
  -4  11  11 53.1791 20.1042   1
  -3  11  11 61.4126 18.5267   1
  -2  11  11 122.953 20.4000   1
  -1  11  11 -7.2218 14.5045   5
   0  11  11 4.12153 14.7668   5
  -3 -11 -11 142.424 19.9146   3
  -4 -11 -11 125.089 18.9372   3
  -7  12  11 32.9881 23.8535   1
  -6  12  11 -39.552 20.9454   1
  -5  12  11 -16.336 20.3564   1
  -4  12  11 9.98046 19.0773   1
  -3  12  11 -16.957 16.0535   1
  -1  12  11 108.633 18.8647   5
   0  12  11 49.9724 17.5862   5
   1  12  11 34.9708 18.2404   5
   2  12  11 -0.7372 16.9772   5
  -6  13  11 15.9972 23.3264   1
  -5  13  11 37.6262 23.5195   1
  -4  13  11 18.1243 20.7961   1
  -1  13  11 -21.435 15.2459   5
   0  13  11 4.56715 17.0825   5
   1  13  11 51.5576 18.9455   5
   2  13  11 4.92472 18.9142   5
   3  13  11 51.4862 20.0891   5
   4  13  11 26.3599 20.5757   5
   5  13  11 41.5250 20.7757   5
   6  13  11 11.3040 20.9258   5
   7  13  11 33.1240 21.3792   5
   8  13  11 7.51400 22.7543   5
  -6  14  11 13.0518 24.5271   1
  -5  14  11 13.5299 22.0597   1
  -1  14  11 87.5286 20.1157   5
   0  14  11 50.9055 19.1840   5
   1  14  11 33.5967 19.5250   5
   2  14  11 2.60642 19.2374   5
   3  14  11 -26.781 19.1326   5
   4  14  11 25.4635 22.1044   5
   5  14  11 -0.1310 18.4953   5
   6  14  11 -21.817 20.8485   5
   7  14  11 -19.232 20.4330   5
   8  14  11 -7.5924 22.1297   5
  -1  15  11 11.6682 19.0037   5
   0  15  11 -2.5801 19.3743   5
   1  15  11 45.9225 20.5706   5
   2  15  11 -4.4038 18.7818   5
   3  15  11 12.6564 21.3708   5
   4  15  11 47.3103 23.2684   5
   5  15  11 -29.565 19.8550   5
   6  15  11 -35.889 21.5079   5
   7  15  11 35.2571 24.4566   5
   0  16  11 21.4029 20.7231   5
   1  16  11 30.6174 21.5823   5
   2  16  11 -23.073 19.9972   5
   3  16  11 8.67318 18.9546   5
   4  16  11 22.5711 22.9010   5
   5  16  11 -25.295 21.6459   5
   0  17  11 3.29496 19.9820   5
   1  17  11 30.7898 21.0714   5
   2  17  11 -35.463 19.8587   5
   3  17  11 11.0564 23.5718   5
   4  17  11 -32.421 21.9555   5
  -1 -13  12 -13.143 26.0518   1
   0 -13  12 -38.830 21.2778   1
  -5  13 -12 -21.696 24.4370   3
  -3 -12  12 28.9864 27.9075   1
  -2 -12  12 14.6698 23.5133   1
  -1 -12  12 81.5859 24.7582   1
   0 -12  12 28.8966 22.3782   1
  -4  12 -12 19.5240 25.0522   3
  -5  12 -12 -14.074 23.9312   3
  -6  12 -12 12.1125 24.4199   3
  -7  12 -12 -15.288 24.5487   3
  -4 -11  12 3.96374 23.0234   1
  -3 -11  12 17.4169 23.1955   1
  -2 -11  12 -11.120 21.1954   1
  -1 -11  12 -32.920 20.3764   1
   0 -11  12 32.1336 22.8115   1
  -4  11 -12 -12.365 20.7236   3
  -5  11 -12 18.9225 22.1516   3
  -6  11 -12 45.3930 25.6162   3
  -7  11 -12 -0.8012 24.5395   3
  -8  11 -12 27.9179 26.0147   3
  -5 -10  12 3.13711 23.0451   1
  -4 -10  12 -11.872 21.6546   1
  -3 -10  12 -0.9134 20.3832   1
  -2 -10  12 -6.0446 19.8667   1
  -1 -10  12 62.7249 21.2613   1
   0 -10  12 16.4260 20.9749   1
  -3  10 -12 35.8920 20.7869   3
  -4  10 -12 44.1554 21.1581   3
  -5  10 -12 41.1804 21.9364   3
  -6  10 -12 5.09340 21.4185   3
  -7  10 -12 -4.4284 22.2633   3
  -8  10 -12 47.9655 25.1204   3
  -6  -9  12 24.4866 29.3143   4
  -6  -9  12 20.0453 28.9877   1
  -6  -9  12 -11.096 24.1773   2
  -5  -9  12 40.7421 22.8791   1
  -4  -9  12 30.2917 22.6298   1
  -3  -9  12 -2.4312 20.4047   1
  -2  -9  12 -35.490 16.6693   1
  -1  -9  12 10.2947 20.2013   1
   0  -9  12 104.888 24.0697   1
  -2   9 -12 48.8429 20.3865   3
  -3   9 -12 -11.215 17.7765   3
  -4   9 -12 34.5488 20.1311   3
  -5   9 -12 44.5218 22.1568   3
  -6   9 -12 7.11769 20.9754   3
  -7   9 -12 10.5404 23.0450   3
  -8   9 -12 44.4475 25.0927   3
  -9   9 -12 29.5737 25.2809   3
  -6  -8  12 2.44142 24.1725   2
  -6  -8  12 -25.052 21.6945   4
  -6  -8  12 2.06284 20.8565   1
  -5  -8  12 19.5399 21.5225   1
  -5  -8  12 -14.303 24.3353   4
  -4  -8  12 19.0965 21.0131   1
  -3  -8  12 60.9657 19.9653   1
  -2  -8  12 75.5409 22.5676   1
  -1  -8  12 34.8622 17.6169   1
   0  -8  12 28.0964 19.9173   1
  -2   8 -12 11.4022 18.1834   3
  -3   8 -12 -6.6914 17.4399   3
  -4   8 -12 34.3623 20.4554   3
  -5   8 -12 13.9703 19.3750   3
  -6   8 -12 15.4527 20.8092   3
  -7   8 -12 -33.565 19.7168   3
  -8   8 -12 6.32189 21.5051   3
  -9   8 -12 21.5255 24.5497   3
 -10   8 -12 90.1050 28.5279   3
  -7  -7  12 -21.952 23.7470   4
  -7  -7  12 37.8927 25.6396   2
  -7  -7  12 -12.133 21.0478   1
  -6  -7  12 61.7916 26.4405   4
  -6  -7  12 43.6729 23.8568   2
  -6  -7  12 6.22934 21.5388   1
  -5  -7  12 42.2784 24.2003   4
  -5  -7  12 64.2465 23.2775   1
  -4  -7  12 28.8092 18.7999   1
  -4  -7  12 57.2546 33.7784   4
  -3  -7  12 -11.987 18.7789   1
  -2  -7  12 18.6057 19.3816   1
  -1  -7  12 25.1804 17.9785   1
   0  -7  12 98.6233 19.4991   1
  -1   7 -12 93.6727 19.0855   3
  -2   7 -12 -39.836 14.5881   3
  -3   7 -12 0.77551 17.4275   3
  -4   7 -12 33.3120 19.1144   3
  -5   7 -12 -8.0418 18.4868   3
  -6   7 -12 16.0600 20.2558   3
  -7   7 -12 10.1349 19.9978   3
  -8   7 -12 -1.7269 19.6404   3
  -9   7 -12 4.62789 22.3217   3
 -10   7 -12 -6.2333 23.4194   3
  -7  -6  12 15.0877 23.8572   2
  -7  -6  12 39.7797 26.1709   4
  -7  -6  12 37.4781 23.0694   1
  -6  -6  12 3.34355 21.7894   4
  -6  -6  12 -37.549 19.9643   2
  -6  -6  12 34.6757 21.8499   1
  -5  -6  12 32.0631 21.3560   1
  -5  -6  12 -2.1461 21.0112   4
  -4  -6  12 131.195 22.2496   1
  -4  -6  12 142.802 24.2024   4
  -3  -6  12 145.049 24.1945   1
  -2  -6  12 96.4456 21.4828   1
  -1  -6  12 70.9371 20.1527   1
   0  -6  12 46.1613 18.5539   1
  -1   6 -12 5.27158 14.8880   3
  -2   6 -12 19.9708 15.7446   3
  -3   6 -12 24.3642 16.2121   3
  -4   6 -12 20.6821 17.1832   3
  -5   6 -12 11.3696 19.1815   3
  -6   6 -12 -0.7832 18.9365   3
  -7   6 -12 1.69521 19.1744   3
  -8   6 -12 11.2673 22.2023   3
  -9   6 -12 20.8037 22.5571   3
 -10   6 -12 9.39646 23.4466   3
 -11   6 -12 60.3845 27.7412   3
  -8  -5  12 60.8027 28.7725   4
  -8  -5  12 6.45961 24.5115   2
  -7  -5  12 -11.219 22.2825   2
  -7  -5  12 37.1973 22.1234   1
  -7  -5  12 23.2725 23.6840   4
  -6  -5  12 71.3294 24.3630   2
  -6  -5  12 88.3638 24.9002   4
  -6  -5  12 53.1212 22.0590   1
  -5  -5  12 -0.5388 19.5645   4
  -5  -5  12 26.1344 19.5331   1
  -4  -5  12 -11.284 18.1619   4
  -4  -5  12 -0.5007 19.0159   1
  -3  -5  12 5.33146 24.9017   4
  -3  -5  12 -0.8266 15.8737   1
  -2  -5  12 20.8563 15.7026   1
  -1  -5  12 21.5823 16.7653   1
   0   5 -12 15.5597 13.6326   3
   0  -5  12 21.7523 17.0341   1
  -1   5 -12 183.872 19.5569   3
  -2   5 -12 -9.7511 14.2589   3
  -3   5 -12 57.8731 17.6041   3
  -4   5 -12 64.2859 18.6835   3
  -5   5 -12 44.1313 18.5785   3
  -6   5 -12 83.5180 21.6669   3
  -7   5 -12 43.9256 22.2728   3
  -8   5 -12 27.7143 21.4268   3
  -9   5 -12 -13.137 19.7472   3
 -10   5 -12 4.33464 22.9521   3
 -11   5 -12 16.3178 25.9839   3
  -8  -4  12 49.1810 23.9885   1
  -8  -4  12 -22.178 22.1163   2
  -8  -4  12 26.2409 26.3183   4
  -7  -4  12 3.15370 21.7993   2
  -7  -4  12 16.9364 20.6211   1
  -7  -4  12 -14.516 21.2643   4
  -6  -4  12 61.6325 22.2077   1
  -6  -4  12 -14.305 20.3171   2
  -6  -4  12 26.7403 21.1496   4
  -5  -4  12 29.0798 17.7517   1
  -5  -4  12 -0.1877 18.9450   4
  -4  -4  12 139.220 21.3892   1
  -4  -4  12 192.807 23.7156   4
  -3  -4  12 144.194 22.9293   1
  -3  -4  12 206.724 21.6462   4
  -2  -4  12 107.407 19.8825   1
   1   4 -12 153.975 18.4854   3
  -1  -4  12 117.060 18.5615   1
   0   4 -12 167.582 17.8567   3
   0  -4  12 150.681 20.5408   1
  -1   4 -12 68.3791 16.2197   3
   1  -4  12 80.3126 17.8531   1
  -2   4 -12 12.4470 13.7815   3
  -3   4 -12 -20.076 14.0864   3
  -4   4 -12 69.3826 18.3980   3
  -5   4 -12 102.697 18.8143   3
  -6   4 -12 -20.841 16.8073   3
  -7   4 -12 -5.9789 18.7028   3
  -8   4 -12 27.6917 20.8532   3
  -9   4 -12 34.9222 21.9596   3
 -10   4 -12 65.7382 25.1022   3
 -11   4 -12 38.3332 25.9236   3
  -8  -3  12 21.2271 24.0026   2
  -8  -3  12 35.2859 26.1407   4
  -8  -3  12 1.35057 23.6409   1
  -7  -3  12 56.2888 20.8989   1
  -7  -3  12 32.1886 21.6848   2
  -7  -3  12 43.9617 24.4731   4
  -6  -3  12 55.8674 23.4688   4
  -6  -3  12 75.2848 21.6023   1
  -6  -3  12 47.5718 20.7744   2
  -5  -3  12 41.6311 20.0857   1
  -5  -3  12 77.3374 20.4609   4
  -4  -3  12 22.7220 16.4162   4
  -4  -3  12 -28.713 14.1436   1
  -3  -3  12 -15.705 13.6276   4
  -3  -3  12 14.7196 17.0975   1
  -2  -3  12 9.55034 15.4527   1
   1   3 -12 20.0957 13.0312   3
  -1  -3  12 48.4516 17.1108   1
   0   3 -12 187.361 18.4478   3
   0  -3  12 205.231 21.2093   1
  -1   3 -12 284.690 22.0532   3
   1  -3  12 223.968 19.6373   1
  -2   3 -12 17.2641 14.0473   3
  -3   3 -12 243.317 21.3412   3
  -4   3 -12 233.823 22.6088   3
  -5   3 -12 44.5881 16.6181   3
  -6   3 -12 209.910 24.4794   3
  -7   3 -12 26.0424 17.1175   3
  -8   3 -12 102.606 24.3666   3
  -9   3 -12 -8.1168 19.4904   3
 -10   3 -12 13.3596 22.1738   3
 -11   3 -12 11.5133 23.1839   3
  -8  -2  12 48.2900 23.4131   1
  -8  -2  12 15.9517 24.9966   4
  -8  -2  12 32.7862 23.0527   2
  -7  -2  12 10.7726 21.2076   2
  -7  -2  12 -18.870 22.1195   4
  -7  -2  12 -9.4087 21.0995   1
  -6  -2  12 3.48873 18.7886   2
  -6  -2  12 -14.007 19.7561   4
  -6  -2  12 -24.602 16.0145   1
  -5  -2  12 31.9607 17.6255   1
  -5  -2  12 26.2166 19.4372   4
  -4  -2  12 55.3828 19.5376   1
  -4  -2  12 85.9535 18.1754   4
  -3  -2  12 308.216 25.9005   1
  -3  -2  12 295.279 22.3273   4
   2   2 -12 470.891 23.8992   3
  -2  -2  12 418.043 26.3062   1
  -2  -2  12 403.919 25.8308   4
   1   2 -12 139.836 16.6905   3
  -1  -2  12 147.495 19.5195   1
   0   2 -12 12.4346 12.7471   3
   0  -2  12 -11.383 13.6961   1
  -1   2 -12 -6.1479 12.0161   3
   1  -2  12 -4.3633 13.0296   1
  -2   2 -12 90.1824 16.4234   3
  -3   2 -12 -5.4321 13.8224   3
  -4   2 -12 461.611 27.8063   3
  -5   2 -12 137.063 19.2148   3
  -6   2 -12 13.8445 17.0483   3
  -7   2 -12 10.2895 18.2395   3
  -8   2 -12 -6.6315 16.9156   3
  -9   2 -12 -18.130 20.3205   3
 -10   2 -12 -18.292 20.2669   3
 -11   2 -12 45.8058 25.5136   3
  -9  -1  12 -19.671 22.4501   2
  -9  -1  12 23.8605 26.7426   4
  -8  -1  12 24.3746 24.3950   4
  -8  -1  12 5.57961 22.4130   1
  -8  -1  12 -20.479 21.6995   2
  -7  -1  12 2.57953 21.2965   2
  -7  -1  12 23.8670 22.9788   4
  -7  -1  12 53.8303 23.7069   1
  -6  -1  12 71.0878 22.7287   4
  -6  -1  12 122.562 23.1005   2
  -6  -1  12 68.6471 22.6779   1
  -5  -1  12 117.348 22.0159   4
  -5  -1  12 100.474 20.3712   2
  -5  -1  12 39.3197 17.2877   1
  -4  -1  12 101.100 18.6851   1
  -4  -1  12 120.353 19.3857   4
  -3  -1  12 10.1157 16.3676   1
  -3  -1  12 36.0616 15.2344   4
   2   1 -12 145.582 16.6458   3
  -2  -1  12 165.900 16.2359   4
  -2  -1  12 162.914 19.3685   1
   1   1 -12 19.7117 12.6724   3
  -1  -1  12 33.4264 13.6141   1
   0   1 -12 428.048 25.1879   3
   0  -1  12 368.658 24.2210   1
  -1   1 -12 304.765 22.5926   3
   1  -1  12 305.482 22.4402   1
  -2   1 -12 73.2286 13.9011   3
   2  -1  12 47.6921 12.8929   1
  -3   1 -12 146.990 18.5388   3
  -4   1 -12 1.56088 14.8020   3
  -5   1 -12 30.8069 15.8182   3
  -6   1 -12 109.834 18.1364   3
  -7   1 -12 98.3490 21.5326   3
  -8   1 -12 79.1110 21.4984   3
  -9   1 -12 26.0420 20.7803   3
 -10   1 -12 6.54247 19.6527   3
 -11   1 -12 -23.469 21.1627   3
 -11   1 -12 35.6105 23.6514   2
 -12   1 -12 15.4786 27.3319   2
  -9   0  12 54.5624 25.9806   2
  -9   0  12 66.1200 27.0250   4
  -8   0  12 -9.1350 21.9532   1
  -8   0  12 35.7722 23.2826   2
  -8   0  12 40.0061 25.2781   4
  -7   0  12 14.1917 18.4051   1
  -7   0  12 55.5481 21.7793   2
  -7   0  12 -23.585 20.2780   4
  -6   0  12 3.74142 19.9195   4
  -6   0  12 31.3073 18.4960   2
  -6   0  12 21.3039 20.2848   1
  -5   0  12 40.3980 17.8662   2
  -5   0  12 44.1054 19.2150   4
  -5   0  12 35.5102 18.9513   1
  -4   0  12 196.795 21.8637   4
  -4   0  12 157.519 21.3910   1
   3   0 -12 127.605 16.7932   3
  -3   0  12 98.1490 16.5483   4
  -3   0  12 47.5541 17.1004   1
   2   0 -12 102.323 15.6894   3
  -2   0  12 91.1848 17.0573   1
  -2   0  12 93.5825 14.1558   4
   1   0 -12 66.3117 14.7069   3
  -1   0  12 75.8536 16.2922   1
   0   0 -12 -2.2069 12.1803   3
   0   0  12 17.1618 12.6621   1
  -1   0 -12 67.3282 15.4846   3
   1   0  12 86.6896 14.5344   1
  -2   0 -12 170.074 18.1910   3
   2   0  12 177.138 15.7444   1
  -3   0 -12 158.899 17.9130   3
   3   0  12 173.395 15.6989   1
  -4   0 -12 564.133 29.5154   3
  -5   0 -12 241.071 22.6150   3
  -6   0 -12 24.2372 14.3481   3
  -7   0 -12 21.3689 16.4978   3
  -8   0 -12 1.19871 17.0572   3
  -9   0 -12 57.4785 21.4142   3
  -9   0 -12 99.2014 24.5017   2
 -10   0 -12 14.6766 23.1203   2
 -10   0 -12 33.5316 21.6880   3
 -11   0 -12 70.5038 27.0599   2
 -12   0 -12 39.9134 27.2415   2
  -9   1  12 -0.2488 25.4382   4
  -9   1  12 13.0874 24.3139   2
  -8   1  12 19.0836 24.8071   4
  -8   1  12 34.8924 23.7796   1
  -8   1  12 -0.1564 20.5770   2
  -7   1  12 79.8823 23.3670   1
  -7   1  12 158.730 26.7892   4
  -7   1  12 97.4194 22.9461   2
  -6   1  12 195.112 25.3466   2
  -6   1  12 197.079 25.9498   4
  -6   1  12 182.951 26.4584   1
  -5   1  12 31.3817 17.5107   2
  -5   1  12 32.3631 18.9134   4
  -5   1  12 61.6548 20.0773   1
   4  -1 -12 15.9317 14.9543   3
  -4   1  12 13.0368 15.1580   2
  -4   1  12 12.7497 16.2478   4
  -4   1  12 -0.3985 16.3987   1
   3  -1 -12 93.3957 16.3076   3
  -3   1  12 71.5739 15.5041   4
  -3   1  12 114.487 18.6429   1
   2  -1 -12 172.843 18.3996   3
  -2   1  12 151.740 18.8815   1
  -2   1  12 156.579 15.5553   4
   1  -1 -12 299.209 21.5760   3
  -1   1  12 318.895 20.2262   4
  -1   1  12 308.612 21.6360   1
   0  -1 -12 266.468 19.6097   3
   0   1  12 258.453 18.7394   1
  -1  -1 -12 245.301 19.9253   3
   1   1  12 195.296 16.3953   1
  -2  -1 -12 314.519 23.6036   3
   2   1  12 306.353 19.5228   1
  -3  -1 -12 12.7218 14.2182   3
   3   1  12 20.6860 10.4641   1
  -4  -1 -12 10.9905 14.5444   3
  -5  -1 -12 149.364 20.3014   3
  -6  -1 -12 34.5382 16.4534   3
  -7  -1 -12 84.2897 17.9822   3
  -8  -1 -12 84.7985 21.9091   2
  -8  -1 -12 89.2285 20.3491   3
  -9  -1 -12 0.65850 20.3290   2
  -9  -1 -12 18.6807 18.3615   3
 -10  -1 -12 -2.1682 19.7097   3
 -10  -1 -12 -31.272 20.8378   2
 -11  -1 -12 -12.506 20.1863   2
 -12  -1 -12 -32.587 24.4510   2
  -9   2  12 57.5522 29.0779   4
  -8   2  12 55.5592 25.9327   4
  -8   2  12 42.0605 23.0521   1
  -7   2  12 23.3259 23.0885   4
  -7   2  12 -3.9317 20.0433   1
  -7   2  12 -11.493 17.5069   2
  -6   2  12 3.49137 17.0684   2
  -6   2  12 22.9868 18.6737   1
  -6   2  12 16.3538 22.0468   4
  -5   2  12 55.6815 20.8688   4
  -5   2  12 71.3220 18.6878   2
  -5   2  12 50.6885 19.9337   1
  -4   2  12 97.7803 18.5894   4
  -4   2  12 73.2484 16.6301   2
  -4   2  12 86.0680 20.2877   1
  -3   2  12 152.266 17.6245   4
  -3   2  12 143.262 19.4643   1
   2  -2 -12 22.6445 13.8563   3
  -2   2  12 34.0325 14.9309   1
  -2   2  12 -9.6825 10.8856   4
   1  -2 -12 19.6500 13.7211   3
  -1   2  12 6.36092 10.2299   4
  -1   2  12 -3.3425 12.3228   1
   0  -2 -12 -3.9970 12.6188   3
   0   2  12 18.0914 11.9988   1
  -1  -2 -12 40.4165 12.8143   3
   1   2  12 23.6984 11.6415   1
  -2  -2 -12 42.4024 14.1261   3
   2   2  12 27.7943 10.3329   1
  -3  -2 -12 228.660 20.4282   3
   3   2  12 198.701 14.0111   1
  -4  -2 -12 343.511 23.3086   3
  -5  -2 -12 219.731 20.1344   3
  -6  -2 -12 91.1470 16.9535   3
  -7  -2 -12 31.7795 17.2706   2
  -7  -2 -12 5.22388 14.5272   3
  -8  -2 -12 27.0029 18.9701   2
  -8  -2 -12 89.9560 19.8501   3
  -9  -2 -12 44.4540 18.6534   3
  -9  -2 -12 74.5985 21.7105   2
 -10  -2 -12 7.94634 22.1601   2
 -11  -2 -12 27.7324 24.5421   2
 -12  -2 -12 17.3216 27.2199   2
  -9   3  12 -9.3120 27.2926   4
  -8   3  12 32.8306 26.0146   4
  -8   3  12 18.7635 19.5096   1
  -7   3  12 12.5560 20.1742   1
  -7   3  12 58.3167 24.3840   4
  -6   3  12 54.7896 22.9915   4
  -6   3  12 14.1986 19.0354   1
  -5   3  12 7.24421 19.5591   4
  -5   3  12 32.3783 18.5297   1
  -4   3  12 2.69888 16.1124   1
  -4   3  12 -15.200 15.9162   4
  -4   3  12 3.54246 14.0681   2
  -3   3  12 76.2167 17.3468   4
  -3   3  12 34.9372 16.0017   1
  -3   3  12 77.8283 14.4840   2
  -2   3  12 21.0845 14.2150   1
  -2   3  12 41.2378 13.6165   4
   1  -3 -12 203.652 20.2353   3
  -1   3  12 208.532 17.7212   1
  -1   3  12 197.238 15.0571   4
   0  -3 -12 357.604 24.3796   3
   0   3  12 340.178 19.4471   1
  -1  -3 -12 185.526 18.8984   3
   1   3  12 185.141 14.5845   1
  -2  -3 -12 139.980 18.0785   3
   2   3  12 146.883 12.7111   1
  -3  -3 -12 16.5015 13.8776   3
  -4  -3 -12 24.7630 14.7427   3
  -5  -3 -12 316.880 23.9232   3
  -6  -3 -12 388.006 27.6028   3
  -6  -3 -12 261.623 21.6004   2
  -7  -3 -12 80.8487 18.0047   2
  -7  -3 -12 134.801 19.6284   3
  -8  -3 -12 14.3036 16.0804   3
  -8  -3 -12 8.89966 17.7210   2
  -9  -3 -12 43.6113 18.5915   3
  -9  -3 -12 12.6620 20.4653   2
 -10  -3 -12 20.2150 21.8862   2
 -11  -3 -12 13.2768 23.7944   2
 -12  -3 -12 -17.717 25.5191   2
  -9   4  12 98.0578 32.6125   4
  -8   4  12 17.5917 26.9280   4
  -8   4  12 6.24417 20.8576   1
  -7   4  12 -7.9082 18.2882   1
  -7   4  12 18.0248 23.5190   4
  -6   4  12 31.5087 19.9382   1
  -6   4  12 25.1664 22.0703   4
  -5   4  12 135.409 22.7009   1
  -5   4  12 133.783 24.3500   4
  -4   4  12 92.2108 19.1603   1
  -4   4  12 57.8272 18.9980   4
  -3   4  12 50.3548 15.8834   1
  -3   4  12 15.9707 15.3449   4
  -2   4  12 19.1793 13.9875   1
  -2   4  12 3.17166 12.4660   4
  -1   4  12 20.6792 11.8966   4
  -1   4  12 12.9413 12.7918   1
   0  -4 -12 -0.7017 13.6852   3
   0   4  12 1.26459 10.7376   1
  -1  -4 -12 17.5538 12.5430   3
   1   4  12 11.5301 9.86216   1
  -2  -4 -12 193.833 19.0604   3
   2   4  12 183.562 12.8992   1
  -3  -4 -12 297.134 21.9764   3
  -4  -4 -12 188.198 18.4268   3
  -5  -4 -12 71.6204 16.5044   3
  -6  -4 -12 30.9480 14.1750   2
  -6  -4 -12 8.47990 14.2565   3
  -7  -4 -12 0.22587 14.9728   2
  -7  -4 -12 17.3355 14.9589   3
  -8  -4 -12 -3.9675 16.7751   2
  -8  -4 -12 8.58788 15.1423   3
  -9  -4 -12 22.4021 20.1581   2
 -10  -4 -12 14.5167 22.4128   2
 -11  -4 -12 20.5208 25.0032   2
 -12  -4 -12 -15.167 25.4651   2
  -9   5  12 -43.543 25.6266   4
  -8   5  12 11.9740 21.5534   1
  -8   5  12 20.6807 27.0666   4
  -7   5  12 19.2161 25.4466   4
  -7   5  12 24.6563 20.3107   1
  -6   5  12 7.34953 18.3977   1
  -6   5  12 47.8666 24.3515   4
  -5   5  12 13.4428 20.6459   4
  -5   5  12 19.8084 17.9358   1
  -4   5  12 -5.6482 17.1059   4
  -4   5  12 2.53390 16.0363   1
  -3   5  12 11.3774 15.5978   4
  -3   5  12 12.6065 14.7682   1
  -2   5  12 155.293 18.1569   1
  -2   5  12 148.897 18.3190   4
  -1   5  12 -1.2631 12.2766   4
  -1   5  12 10.2095 11.9636   1
   0   5  12 602.174 22.7747   1
  -1  -5 -12 298.942 22.7062   3
   1   5  12 292.090 17.8316   1
  -2  -5 -12 235.120 21.4432   3
  -3  -5 -12 -12.027 13.3003   3
  -4  -5 -12 166.605 18.5114   3
  -5  -5 -12 107.871 18.3475   3
  -5  -5 -12 154.438 15.8874   2
  -6  -5 -12 102.585 16.1243   2
  -6  -5 -12 111.075 17.2606   3
  -7  -5 -12 160.906 20.8944   3
  -7  -5 -12 156.741 20.0180   2
  -8  -5 -12 30.6981 17.8842   2
  -8  -5 -12 37.4211 17.5224   3
  -9  -5 -12 19.0848 18.9716   2
 -10  -5 -12 11.6338 21.6578   2
 -11  -5 -12 41.5759 23.7918   2
  -9   6  12 38.5727 31.1066   4
  -8   6  12 15.4755 22.3747   1
  -8   6  12 25.4483 24.5329   4
  -7   6  12 6.60319 19.6874   1
  -7   6  12 -28.277 24.9128   4
  -6   6  12 28.7570 18.6850   1
  -6   6  12 47.5503 24.3637   4
  -5   6  12 86.7085 23.9213   4
  -5   6  12 95.5318 21.2727   1
  -4   6  12 70.6423 20.2927   4
  -4   6  12 69.7286 18.4036   1
  -3   6  12 29.4797 17.1805   4
  -3   6  12 20.1474 15.6021   1
  -2   6  12 0.77895 13.3395   1
  -2   6  12 38.7666 15.2290   4
  -1   6  12 25.9947 13.0873   1
   0   6  12 34.7777 11.4549   1
  -1  -6 -12 136.748 17.4773   3
  -2  -6 -12 214.751 19.6905   3
  -3  -6 -12 158.162 17.4936   3
  -4  -6 -12 62.0791 15.7842   3
  -5  -6 -12 97.3344 17.2828   3
  -6  -6 -12 32.0329 15.1032   3
  -7  -6 -12 -2.3269 14.3327   3
  -8  -6 -12 -9.4216 16.1427   2
  -9  -6 -12 -0.7050 18.9444   2
 -10  -6 -12 34.1666 22.6942   2
 -11  -6 -12 -1.1923 24.9198   2
  -8   7  12 -5.2007 21.8968   1
  -8   7  12 -1.4937 26.8131   4
  -7   7  12 56.5552 24.3953   4
  -7   7  12 2.11761 20.5081   1
  -6   7  12 166.283 26.2679   4
  -6   7  12 99.7438 22.3635   1
  -5   7  12 102.035 21.5365   1
  -5   7  12 105.302 25.4254   4
  -4   7  12 0.39950 19.3522   4
  -4   7  12 20.5137 16.2766   1
  -3   7  12 97.4997 20.2226   4
  -3   7  12 84.0026 20.1134   1
  -2   7  12 32.2196 15.6660   1
  -1   7  12 637.119 26.3154   1
   0   7  12 433.829 23.1068   1
  -2  -7 -12 12.4591 15.0065   3
  -3  -7 -12 23.5631 14.4734   3
  -4  -7 -12 28.9299 14.2428   3
  -5  -7 -12 105.779 16.6273   3
  -6  -7 -12 93.7871 17.2024   3
  -8   8  12 -8.9381 18.9160   1
  -8   8  12 51.4448 30.7654   4
  -7   8  12 -25.263 19.8656   1
  -7   8  12 17.3202 27.8883   4
  -6   8  12 9.61709 19.0948   1
  -6   8  12 -32.542 22.8424   4
  -5   8  12 1.84526 16.6253   1
  -5   8  12 -31.431 20.5931   4
  -4   8  12 57.2423 18.8472   1
  -4   8  12 0.37286 21.2471   4
  -3   8  12 12.4696 15.1969   1
  -2   8  12 129.734 17.5392   1
  -1   8  12 90.1389 14.9803   1
  -2  -8 -12 16.2688 15.7888   3
  -3  -8 -12 202.468 20.2951   3
  -4  -8 -12 191.969 19.8009   3
  -5  -8 -12 1.36699 12.6871   3
  -6  -8 -12 6.37446 14.0720   3
  -8   9  12 31.4580 30.9353   4
  -7   9  12 21.4428 26.9108   4
  -7   9  12 54.5796 23.4536   1
  -6   9  12 55.8528 21.1451   1
  -6   9  12 35.5425 26.1218   4
  -5   9  12 14.4404 23.7971   4
  -5   9  12 4.13678 18.2436   1
  -4   9  12 39.5559 18.7967   1
  -3   9  12 -1.7881 15.8882   1
  -2   9  12 185.191 19.2508   1
  -1   9  12 295.995 24.2191   1
  -3  -9 -12 15.9796 15.1340   3
  -4  -9 -12 -28.301 13.2480   3
  -5  -9 -12 61.7033 15.4234   3
  -7  10  12 7.22628 21.6298   1
  -7  10  12 2.26679 30.0562   4
  -6  10  12 6.57194 20.3023   1
  -5  10  12 57.2749 21.6068   1
  -4  10  12 81.7792 20.7627   1
  -3  10  12 3.31208 16.3931   1
  -2  10  12 177.173 19.9243   1
  -1  10  12 107.416 16.8358   5
  -3 -10 -12 178.795 21.1439   3
  -4 -10 -12 109.700 17.7858   3
  -5 -10 -12 -0.1062 13.5644   3
  -7  11  12 -27.422 21.6325   1
  -6  11  12 3.71741 20.8418   1
  -5  11  12 3.00195 20.0679   1
  -4  11  12 15.7561 17.9321   1
  -3  11  12 25.4186 17.4719   1
  -1  11  12 119.676 20.6995   5
   0  11  12 93.2382 18.6003   5
  -3 -11 -12 -13.783 15.5150   3
  -4 -11 -12 19.7804 14.9236   3
  -6  12  12 31.9658 23.2522   1
  -5  12  12 -0.3143 20.3890   1
  -4  12  12 53.5016 21.8969   1
   0  12  12 23.9186 16.4920   5
   1  12  12 50.2703 18.6892   5
  -3 -12 -12 99.0530 20.2645   3
  -6  13  12 16.8191 24.0907   1
  -5  13  12 24.1440 23.2921   1
   0  13  12 56.0336 19.1672   5
   1  13  12 -1.3143 17.4895   5
   2  13  12 5.92497 18.6676   5
  -3 -13 -12 -0.3538 16.7770   3
   3  13  12 15.0779 19.9858   5
   4  13  12 -10.133 18.7849   5
   8  13  12 30.7575 23.6186   5
   0  14  12 8.01307 17.7377   5
   1  14  12 53.1619 19.9990   5
   2  14  12 24.4821 19.9219   5
   3  14  12 41.7149 19.5748   5
   4  14  12 32.2865 22.7892   5
   5  14  12 35.3909 22.6363   5
   6  14  12 -4.5666 21.5762   5
   7  14  12 -21.856 22.1625   5
   0  15  12 -8.2881 18.6230   5
   1  15  12 28.3489 19.3800   5
   2  15  12 -3.5443 18.3772   5
   3  15  12 -10.366 20.6968   5
   4  15  12 23.9205 22.7288   5
   5  15  12 10.0264 22.2520   5
   6  15  12 12.2013 22.0423   5
   0  16  12 -19.184 20.1683   5
   1  16  12 52.0232 23.0313   5
   2  16  12 42.6094 22.5455   5
   3  16  12 11.5986 21.4751   5
   4  16  12 41.2332 24.8225   5
   5  16  12 0.56476 23.1921   5
   0  17  12 -11.913 20.0053   5
   1  17  12 40.0226 22.8110   5
   2  17  12 7.22933 22.4863   5
   3  17  12 -36.852 21.5514   5
  -1 -12  13 36.9136 25.4952   1
   0 -12  13 49.5240 24.2784   1
  -5  12 -13 -16.158 23.6221   3
  -6  12 -13 19.1202 26.0186   3
  -3 -11  13 21.8189 24.3276   1
  -2 -11  13 41.0127 24.0068   1
  -1 -11  13 3.38661 22.7194   1
   0 -11  13 -28.021 21.6274   1
  -4  11 -13 48.4757 25.3627   3
  -5  11 -13 -12.896 23.5964   3
  -6  11 -13 45.6839 25.2708   3
  -7  11 -13 -6.2656 24.0940   3
  -4 -10  13 -8.6649 22.8599   1
  -3 -10  13 -23.470 19.6875   1
  -2 -10  13 -10.070 21.9715   1
  -1 -10  13 23.8932 21.4920   1
   0 -10  13 54.9065 23.8889   1
  -3  10 -13 8.03402 20.5106   3
  -4  10 -13 3.68502 21.5196   3
  -5  10 -13 35.6924 22.8101   3
  -6  10 -13 24.5614 23.8498   3
  -7  10 -13 5.47119 24.0048   3
  -8  10 -13 -1.7259 24.5343   3
  -5  -9  13 14.4995 22.3070   1
  -4  -9  13 25.6917 22.4096   1
  -3  -9  13 32.3047 22.8444   1
  -2  -9  13 34.0732 23.0218   1
  -1  -9  13 -16.451 19.9401   1
   0  -9  13 21.3439 20.7640   1
  -3   9 -13 63.6186 21.9940   3
  -4   9 -13 -3.0836 20.6255   3
  -5   9 -13 -20.167 19.7509   3
  -6   9 -13 31.3337 21.5183   3
  -7   9 -13 -7.7124 21.6534   3
  -8   9 -13 -21.136 21.5612   3
  -9   9 -13 -6.5063 23.4461   3
  -6  -8  13 20.0463 25.8624   2
  -5  -8  13 40.2413 22.9225   1
  -4  -8  13 12.9126 19.4749   1
  -3  -8  13 -25.512 16.8308   1
  -2  -8  13 7.30133 18.5954   1
  -1  -8  13 20.9203 18.5782   1
   0  -8  13 113.511 22.0209   1
  -2   8 -13 21.2707 19.4745   3
  -3   8 -13 -0.2815 18.5593   3
  -4   8 -13 5.18494 19.7287   3
  -5   8 -13 11.1050 20.8222   3
  -6   8 -13 -3.4899 17.5908   3
  -7   8 -13 59.6387 23.2981   3
  -8   8 -13 -21.907 21.1667   3
  -9   8 -13 -4.5436 23.9542   3
  -6  -7  13 -38.739 19.8644   1
  -6  -7  13 -35.847 18.4461   2
  -5  -7  13 41.3323 21.8811   1
  -4  -7  13 36.1266 22.6207   1
  -3  -7  13 -5.6297 19.5237   1
  -2  -7  13 3.27804 17.4736   1
  -1  -7  13 47.4395 20.0112   1
   0  -7  13 19.4661 19.2927   1
  -1   7 -13 41.7147 23.2550   3
   1  -7  13 10.6199 17.9564   1
  -2   7 -13 2.61009 16.8701   3
  -3   7 -13 21.9154 18.7906   3
  -4   7 -13 40.4081 20.2264   3
  -5   7 -13 115.689 22.2237   3
  -6   7 -13 10.9582 19.7418   3
  -7   7 -13 41.9209 22.4696   3
  -8   7 -13 -11.451 21.4269   3
  -9   7 -13 10.0336 24.1718   3
 -10   7 -13 67.9507 26.2010   3
  -7  -6  13 -4.9901 23.7694   4
  -7  -6  13 31.6334 24.3524   2
  -6  -6  13 71.0386 24.1372   1
  -6  -6  13 94.5751 26.6001   4
  -6  -6  13 64.0268 25.4176   2
  -5  -6  13 -6.3527 17.7002   1
  -4  -6  13 40.8457 21.0888   1
  -3  -6  13 14.7834 17.8440   1
  -2  -6  13 14.9665 18.8129   1
  -1  -6  13 50.1254 19.8628   1
   0  -6  13 140.466 21.0384   1
  -1   6 -13 129.548 20.5177   3
   1  -6  13 102.997 21.2531   1
  -2   6 -13 53.6866 18.5069   3
  -3   6 -13 125.946 21.5203   3
  -4   6 -13 1.65994 17.0952   3
  -5   6 -13 113.908 23.1073   3
  -6   6 -13 66.3143 21.5602   3
  -7   6 -13 112.648 24.0006   3
  -8   6 -13 11.6632 21.7965   3
  -9   6 -13 33.3634 24.3432   3
 -10   6 -13 19.7026 24.9058   3
  -7  -5  13 30.6682 24.3067   4
  -7  -5  13 -16.492 19.5813   1
  -7  -5  13 -2.4507 22.0683   2
  -6  -5  13 -25.948 21.0629   2
  -6  -5  13 1.52952 22.1779   4
  -6  -5  13 -12.546 20.5430   1
  -5  -5  13 52.2951 25.0996   4
  -5  -5  13 42.4553 22.1264   1
  -4  -5  13 67.2990 22.4977   1
  -3  -5  13 96.7814 22.4633   1
  -2  -5  13 50.6706 19.2680   1
  -1  -5  13 19.3675 17.7432   1
   0   5 -13 52.4223 16.1041   3
   0  -5  13 62.6949 17.5486   1
  -1   5 -13 -22.705 14.3973   3
   1  -5  13 -3.2691 15.7454   1
  -2   5 -13 52.3234 17.3009   3
  -3   5 -13 227.526 23.7282   3
  -4   5 -13 32.4734 18.3547   3
  -5   5 -13 33.8640 20.1706   3
  -6   5 -13 29.0400 19.5300   3
  -7   5 -13 5.60258 17.9785   3
  -8   5 -13 55.8563 20.9419   3
  -9   5 -13 30.7458 23.0972   3
 -10   5 -13 36.1724 24.7557   3
 -11   5 -13 17.4518 26.0861   3
  -7  -4  13 27.8856 26.1915   4
  -7  -4  13 57.1987 24.2243   2
  -7  -4  13 52.8112 23.8187   1
  -6  -4  13 55.8228 23.2704   4
  -6  -4  13 40.1204 23.2618   1
  -6  -4  13 38.4505 22.1898   2
  -5  -4  13 94.6254 22.4166   4
  -5  -4  13 63.9157 22.5525   1
  -4  -4  13 11.7867 18.7254   1
  -3  -4  13 6.42040 18.3390   1
  -2  -4  13 4.67147 16.9131   1
  -1  -4  13 28.1465 17.7296   1
   0   4 -13 241.657 21.3928   3
   0  -4  13 195.392 22.2476   1
  -1   4 -13 518.040 27.4723   3
   1  -4  13 522.136 30.6291   1
  -2   4 -13 7.13964 14.2518   3
  -3   4 -13 7.04437 14.9736   3
  -4   4 -13 65.7094 18.6724   3
  -5   4 -13 24.6721 18.4239   3
  -6   4 -13 74.6515 18.9212   3
  -7   4 -13 42.3042 21.3680   3
  -8   4 -13 -32.727 19.3819   3
  -9   4 -13 -44.937 19.7943   3
 -10   4 -13 15.4471 23.6940   3
 -11   4 -13 55.2685 26.2193   3
  -8  -3  13 -8.7325 24.9998   4
  -8  -3  13 -15.028 22.7404   2
  -7  -3  13 19.1963 22.5115   2
  -7  -3  13 60.5683 25.0281   1
  -7  -3  13 38.1181 24.5902   4
  -6  -3  13 10.0536 21.2308   2
  -6  -3  13 40.2191 22.4186   4
  -6  -3  13 8.41014 20.5364   1
  -5  -3  13 46.6440 22.3254   4
  -5  -3  13 40.1456 20.8924   1
  -4  -3  13 1.25559 18.2548   1
  -4  -3  13 -4.1300 18.0082   4
  -3  -3  13 215.412 25.3837   1
  -2  -3  13 186.212 22.9034   1
   1   3 -13 252.930 20.5227   3
  -1  -3  13 220.930 23.6151   1
   0   3 -13 22.9147 14.3688   3
   0  -3  13 2.96221 15.9813   1
  -1   3 -13 66.5493 16.4431   3
   1  -3  13 38.4519 16.2846   1
  -2   3 -13 310.901 24.2424   3
   2  -3  13 307.279 23.7713   1
  -3   3 -13 119.145 17.6797   3
  -4   3 -13 86.6552 18.4279   3
  -5   3 -13 -10.039 15.6242   3
  -6   3 -13 11.9621 15.9345   3
  -7   3 -13 -17.965 17.8966   3
  -8   3 -13 16.9699 21.5110   3
  -9   3 -13 39.8946 23.0382   3
 -10   3 -13 15.8026 22.4551   3
 -11   3 -13 5.54823 23.8863   3
  -8  -2  13 74.3077 28.2451   4
  -8  -2  13 93.2423 26.8803   2
  -8  -2  13 67.2228 24.9961   1
  -7  -2  13 93.9566 26.7730   1
  -7  -2  13 77.0876 25.7024   4
  -7  -2  13 48.0072 23.2059   2
  -6  -2  13 78.3559 23.3944   4
  -6  -2  13 56.0701 22.4846   2
  -6  -2  13 44.8792 22.1655   1
  -5  -2  13 68.2930 21.9084   1
  -5  -2  13 69.0787 21.7819   4
  -4  -2  13 27.5057 19.1693   1
  -4  -2  13 1.27472 16.6748   4
  -3  -2  13 -5.8142 15.0278   1
  -2  -2  13 80.2106 18.0905   1
   1   2 -13 183.107 18.6768   3
  -1  -2  13 203.037 22.2972   1
   0   2 -13 125.214 17.2755   3
   0  -2  13 158.278 20.2837   1
  -1   2 -13 87.0120 16.7642   3
   1  -2  13 92.7569 17.0545   1
  -2   2 -13 23.2131 15.2923   3
   2  -2  13 43.1772 14.6772   1
  -3   2 -13 101.837 18.3502   3
  -4   2 -13 -5.5549 13.4132   3
  -5   2 -13 74.2415 17.7972   3
  -6   2 -13 81.4041 19.8339   3
  -7   2 -13 39.4285 17.6058   3
  -8   2 -13 50.5643 20.4101   3
  -9   2 -13 35.3433 22.2333   3
 -10   2 -13 -32.609 20.5425   3
 -11   2 -13 1.61016 24.4181   3
  -8  -1  13 -17.219 21.5619   1
  -8  -1  13 46.2008 26.3716   4
  -8  -1  13 28.0495 23.2104   2
  -7  -1  13 -25.571 22.0353   4
  -7  -1  13 7.08192 21.8650   2
  -7  -1  13 20.3702 23.0566   1
  -6  -1  13 -14.044 20.2455   1
  -6  -1  13 -15.434 18.6021   2
  -6  -1  13 -28.597 19.3065   4
  -5  -1  13 24.7055 20.2131   1
  -5  -1  13 -10.092 18.4127   4
  -5  -1  13 22.2118 19.4277   2
  -4  -1  13 182.168 24.6475   1
  -4  -1  13 241.779 24.4668   4
  -3  -1  13 260.546 25.1996   1
  -3  -1  13 228.876 25.8217   4
   2   1 -13 223.899 19.4668   3
  -2  -1  13 194.391 22.1490   1
   1   1 -13 18.4657 13.1573   3
  -1  -1  13 13.1846 15.0180   1
   0   1 -13 -13.507 13.2678   3
   0  -1  13 20.2974 14.9815   1
  -1   1 -13 21.4837 14.4509   3
   1  -1  13 36.1609 13.8692   1
  -2   1 -13 319.065 23.0340   3
   2  -1  13 310.515 21.1688   1
  -3   1 -13 19.4526 15.6274   3
  -4   1 -13 75.8919 18.1678   3
  -5   1 -13 226.146 21.2937   3
  -6   1 -13 14.6586 16.4287   3
  -7   1 -13 -11.556 17.8751   3
  -8   1 -13 29.2462 20.2983   3
  -9   1 -13 30.8361 21.6612   3
 -10   1 -13 21.0646 22.2891   3
 -11   1 -13 44.0744 23.8190   3
  -8   0  13 29.0301 23.6671   2
  -8   0  13 12.8862 20.1744   1
  -8   0  13 46.6212 27.0293   4
  -7   0  13 14.3558 22.0070   1
  -7   0  13 31.9651 24.3714   4
  -7   0  13 54.1962 23.1448   2
  -6   0  13 133.110 22.9921   2
  -6   0  13 107.584 24.1880   1
  -6   0  13 107.160 24.3868   4
  -5   0  13 110.110 22.5978   1
  -5   0  13 138.332 21.9270   2
  -5   0  13 175.981 24.7422   4
  -4   0  13 25.0674 18.1399   1
  -4   0  13 -8.3093 16.2450   4
   3   0 -13 76.1488 15.2847   3
  -3   0  13 89.9216 19.9761   1
  -3   0  13 112.593 18.4179   4
   2   0 -13 226.513 20.3295   3
  -2   0  13 213.326 22.2838   1
   1   0 -13 175.070 18.7610   3
  -1   0  13 154.246 20.3593   1
   0   0 -13 88.7265 16.2118   3
   0   0  13 64.5004 14.5199   1
  -1   0 -13 42.2648 15.8305   3
   1   0  13 77.2421 15.3463   1
  -2   0 -13 -2.9376 12.3724   3
   2   0  13 8.86105 12.0633   1
  -3   0 -13 22.1544 14.3880   3
   3   0  13 -0.0541 11.6996   1
  -4   0 -13 220.025 22.8428   3
  -5   0 -13 1.53768 15.8553   3
  -6   0 -13 87.3762 18.6425   3
  -7   0 -13 134.832 23.1102   3
  -8   0 -13 60.8790 20.8809   3
  -9   0 -13 30.9976 20.0965   3
 -10   0 -13 -7.0438 20.2778   3
 -11   0 -13 12.2866 23.9082   3
 -11   0 -13 -11.923 20.9680   2
  -8   1  13 -13.164 19.7844   1
  -8   1  13 59.1085 27.1322   4
  -8   1  13 2.16861 21.7267   2
  -7   1  13 -11.663 19.9046   1
  -7   1  13 -13.121 19.4322   2
  -7   1  13 -49.507 22.1851   4
  -6   1  13 -4.8760 20.3871   4
  -6   1  13 12.3914 18.3147   2
  -6   1  13 30.5681 20.4958   1
  -5   1  13 46.8019 20.4402   4
  -5   1  13 44.4610 18.1433   2
  -5   1  13 73.2120 19.5754   1
  -4   1  13 9.02516 17.4844   1
  -4   1  13 68.9481 18.1000   4
   3  -1 -13 23.1646 14.9908   3
  -3   1  13 18.2476 16.9230   1
  -3   1  13 -14.878 14.4997   4
   2  -1 -13 37.5763 15.3398   3
  -2   1  13 30.0106 15.4094   1
   1  -1 -13 9.93338 13.4990   3
  -1   1  13 69.5936 15.8949   1
   0  -1 -13 -14.430 13.2429   3
   0   1  13 9.08092 13.5678   1
  -1  -1 -13 -3.2742 11.6002   3
   1   1  13 -19.659 10.8791   1
  -2  -1 -13 369.861 26.1217   3
   2   1  13 411.214 21.0376   1
  -3  -1 -13 101.736 16.1981   3
   3   1  13 96.6310 13.8142   1
  -4  -1 -13 81.2839 17.2226   3
  -5  -1 -13 591.889 31.9277   3
  -6  -1 -13 131.959 19.2999   3
  -7  -1 -13 72.0508 19.4108   3
  -8  -1 -13 62.7201 20.6357   3
  -9  -1 -13 94.1838 24.2870   2
  -9  -1 -13 109.779 22.6488   3
 -10  -1 -13 51.4273 22.5494   3
 -10  -1 -13 -29.034 20.0499   2
 -11  -1 -13 -8.8061 23.8711   2
 -12  -1 -13 -32.494 24.6575   2
  -8   2  13 46.4226 26.2074   4
  -8   2  13 8.69857 23.0635   1
  -7   2  13 15.7416 18.9585   1
  -7   2  13 78.9685 26.3067   4
  -6   2  13 92.1806 30.3287   2
  -6   2  13 98.2901 22.8899   1
  -6   2  13 82.6228 24.6471   4
  -5   2  13 37.2250 18.0572   1
  -5   2  13 33.1985 21.1089   4
  -5   2  13 34.5080 17.2509   2
  -4   2  13 -0.8516 16.0991   4
  -4   2  13 12.2983 16.0070   1
  -4   2  13 -2.7916 14.5391   2
   3  -2 -13 15.1760 14.8463   3
  -3   2  13 24.9960 15.9351   1
  -3   2  13 16.8443 14.8361   4
   2  -2 -13 124.534 18.7808   3
  -2   2  13 180.352 20.0501   1
  -2   2  13 167.115 17.1719   4
   1  -2 -13 332.813 24.7163   3
  -1   2  13 299.375 21.2600   1
   0  -2 -13 189.225 20.2583   3
   0   2  13 203.978 18.3681   1
  -1  -2 -13 213.647 20.5988   3
   1   2  13 222.904 17.7507   1
  -2  -2 -13 115.961 16.4568   3
   2   2  13 138.707 14.0069   1
  -3  -2 -13 9.73961 14.9046   3
   3   2  13 14.9015 10.2325   1
  -4  -2 -13 14.6937 13.7261   3
  -5  -2 -13 90.8179 17.3284   3
  -6  -2 -13 318.573 25.9979   3
  -7  -2 -13 80.0036 19.3843   3
  -8  -2 -13 6.14882 17.5296   3
  -8  -2 -13 20.7801 18.1852   2
  -9  -2 -13 19.6777 18.5629   3
  -9  -2 -13 -1.6398 19.5503   2
 -10  -2 -13 4.37305 21.8507   2
 -10  -2 -13 5.32144 25.3302   3
 -11  -2 -13 29.7168 25.6004   2
  -8   3  13 37.1161 27.6472   4
  -8   3  13 12.0705 19.2847   1
  -7   3  13 -0.8437 20.1192   1
  -7   3  13 20.1895 25.7895   4
  -6   3  13 -8.0381 18.9781   1
  -6   3  13 -0.5025 20.6959   4
  -5   3  13 29.3560 18.6607   1
  -5   3  13 41.5327 21.1976   4
  -4   3  13 52.9327 18.4016   4
  -4   3  13 57.1419 19.2262   1
  -3   3  13 61.6980 16.7871   4
  -3   3  13 34.6361 15.5558   1
   2  -3 -13 51.3915 16.5503   3
  -2   3  13 59.3484 16.3572   1
  -2   3  13 76.6098 15.2127   4
   1  -3 -13 11.0422 14.4694   3
  -1   3  13 -2.7083 13.0258   1
   0  -3 -13 181.369 20.5172   3
   0   3  13 191.428 16.6078   1
  -1  -3 -13 52.5990 16.0860   3
   1   3  13 92.7553 13.3024   1
  -2  -3 -13 286.773 22.3058   3
   2   3  13 291.806 18.8273   1
  -3  -3 -13 309.056 22.9139   3
  -4  -3 -13 352.545 25.2157   3
  -5  -3 -13 248.044 22.1148   3
  -6  -3 -13 0.42012 16.0464   3
  -7  -3 -13 64.8815 18.4868   3
  -8  -3 -13 3.22506 17.4302   2
  -8  -3 -13 27.2494 17.5367   3
  -9  -3 -13 21.4371 19.9527   2
  -9  -3 -13 48.6479 19.0079   3
 -10  -3 -13 74.8484 24.2163   2
 -11  -3 -13 59.8552 26.0783   2
  -8   4  13 -15.362 26.0102   4
  -8   4  13 9.97497 21.1602   1
  -7   4  13 6.92178 20.2916   1
  -7   4  13 -1.8908 24.8241   4
  -6   4  13 27.0225 20.2793   1
  -6   4  13 64.3881 24.7792   4
  -5   4  13 4.96422 20.3590   4
  -5   4  13 -3.0404 16.8687   1
  -4   4  13 15.6362 19.0973   4
  -4   4  13 17.5578 16.7084   1
  -3   4  13 15.3911 16.3286   1
  -3   4  13 22.4220 15.9274   4
  -2   4  13 128.615 18.4989   1
  -2   4  13 82.6387 16.3003   4
   1  -4 -13 286.916 22.2849   3
  -1   4  13 353.590 24.4679   1
  -1   4  13 370.007 22.5265   4
   0  -4 -13 -1.2856 14.9526   3
   0   4  13 6.65546 10.8969   1
  -1  -4 -13 30.5542 15.3707   3
   1   4  13 34.4547 11.6076   1
  -2  -4 -13 70.0480 16.4440   3
  -3  -4 -13 3.20432 14.5949   3
  -4  -4 -13 75.1151 16.8017   3
  -5  -4 -13 288.805 23.5906   3
  -6  -4 -13 287.858 24.6603   3
  -7  -4 -13 99.8608 18.7290   2
  -7  -4 -13 110.889 19.4459   3
  -8  -4 -13 24.3895 17.6115   2
  -8  -4 -13 40.1420 16.5902   3
  -9  -4 -13 15.2654 19.1203   2
 -10  -4 -13 35.1652 23.3393   2
 -11  -4 -13 -27.830 23.0790   2
  -8   5  13 22.2358 20.0962   1
  -8   5  13 -8.2310 26.9868   4
  -7   5  13 11.0291 25.3390   4
  -7   5  13 15.9480 20.9800   1
  -6   5  13 20.8439 19.9646   1
  -6   5  13 16.6194 23.1529   4
  -5   5  13 57.0004 19.3499   1
  -5   5  13 87.1841 23.4943   4
  -4   5  13 144.943 21.2551   1
  -4   5  13 138.326 23.0060   4
  -3   5  13 376.500 25.8507   4
  -3   5  13 359.915 25.6089   1
  -2   5  13 86.3101 16.7602   1
  -2   5  13 134.377 17.6198   4
  -1   5  13 17.4471 13.5673   1
   0  -5 -13 267.370 23.6623   3
   0   5  13 250.057 18.4951   1
  -1  -5 -13 375.586 24.3704   3
   1   5  13 347.580 19.4144   1
  -2  -5 -13 427.921 24.7661   3
  -3  -5 -13 257.938 21.7651   3
  -4  -5 -13 46.4328 15.7248   3
  -5  -5 -13 26.3149 15.8093   3
  -6  -5 -13 10.7854 14.7162   3
  -7  -5 -13 10.9206 14.9404   2
  -7  -5 -13 -30.861 14.5160   3
  -8  -5 -13 32.2483 16.2476   3
  -8  -5 -13 40.4414 18.3289   2
  -9  -5 -13 49.7067 20.5314   2
 -10  -5 -13 18.8040 21.6744   2
 -11  -5 -13 24.3610 24.5984   2
  -8   6  13 -8.9533 27.4385   4
  -8   6  13 50.7223 23.8201   1
  -7   6  13 8.57309 20.5384   1
  -7   6  13 27.1969 26.6599   4
  -6   6  13 64.4469 26.0624   4
  -6   6  13 -3.0120 20.5544   1
  -5   6  13 21.5308 21.5897   4
  -5   6  13 1.93117 18.2464   1
  -4   6  13 21.6274 17.2149   1
  -4   6  13 -0.5021 18.0889   4
  -3   6  13 16.8412 17.1604   4
  -3   6  13 30.0255 16.0516   1
  -2   6  13 36.2510 15.4855   1
  -2   6  13 19.5213 15.3193   4
  -1   6  13 -15.963 12.1526   1
   0   6  13 -6.1374 11.2634   1
  -1  -6 -13 277.603 23.8000   3
  -2  -6 -13 -7.7571 15.0991   3
  -3  -6 -13 -8.2025 14.1848   3
  -4  -6 -13 10.2191 14.5293   3
  -5  -6 -13 109.322 18.6459   3
  -6  -6 -13 216.381 21.7474   3
  -7  -6 -13 122.578 19.7546   3
  -8   7  13 17.8344 26.4455   1
  -8   7  13 -30.771 26.5231   4
  -7   7  13 5.66275 20.9818   1
  -7   7  13 1.74149 26.2184   4
  -6   7  13 11.3340 19.1693   1
  -6   7  13 52.7805 25.7283   4
  -5   7  13 51.7711 18.1329   1
  -5   7  13 17.0557 22.7655   4
  -4   7  13 154.654 24.3033   4
  -4   7  13 149.621 24.9801   1
  -3   7  13 -16.851 18.6357   4
  -3   7  13 -1.0472 15.3787   1
  -2   7  13 12.6458 13.9952   1
  -1   7  13 78.9213 14.9226   1
  -1  -7 -13 115.178 20.1992   3
  -2  -7 -13 78.7582 17.7847   3
  -3  -7 -13 81.9109 16.8193   3
  -4  -7 -13 48.7929 16.1016   3
  -5  -7 -13 28.3007 15.1102   3
  -6  -7 -13 20.0206 14.8880   3
  -7  -7 -13 26.4373 15.2869   3
  -8   8  13 94.4837 32.3893   4
  -7   8  13 19.9929 22.4466   1
  -7   8  13 43.3212 28.4262   4
  -6   8  13 84.5427 28.0019   4
  -6   8  13 65.9745 22.3621   1
  -5   8  13 22.4228 20.2055   1
  -5   8  13 -1.1646 21.5745   4
  -4   8  13 14.1290 22.0791   4
  -4   8  13 27.6624 18.0582   1
  -3   8  13 27.9638 16.8212   1
  -2   8  13 -2.2825 13.7268   1
  -1   8  13 14.3374 12.3120   1
  -2  -8 -13 95.9145 19.4794   3
  -3  -8 -13 30.1850 15.9937   3
  -4  -8 -13 44.3991 16.1707   3
  -5  -8 -13 165.099 19.5951   3
  -6  -8 -13 105.191 18.2888   3
  -7   9  13 18.8040 27.3580   4
  -7   9  13 3.27235 22.3056   1
  -6   9  13 19.7756 26.7533   4
  -6   9  13 -2.0890 20.2095   1
  -5   9  13 1.94449 24.6094   4
  -5   9  13 23.7246 20.4087   1
  -4   9  13 78.9808 20.1799   1
  -3   9  13 32.4492 17.4095   1
  -2   9  13 -24.692 13.4702   1
  -2  -9 -13 146.305 21.7422   3
  -3  -9 -13 40.0929 16.7199   3
  -4  -9 -13 45.9912 15.5620   3
  -5  -9 -13 16.7518 15.1016   3
  -7  10  13 42.3430 23.4063   1
  -6  10  13 36.2929 23.1347   1
  -5  10  13 45.6144 20.1545   1
  -4  10  13 -15.405 17.4581   1
  -3  10  13 27.2010 16.8241   1
  -3 -10 -13 5.13376 16.7742   3
  -4 -10 -13 29.0117 16.8198   3
  -5 -10 -13 70.0495 17.4227   3
  -6  11  13 -40.342 20.5428   1
  -5  11  13 24.2744 21.2729   1
  -4  11  13 17.6603 19.2272   1
  -3  11  13 47.3426 19.1243   1
   0  11  13 6.99846 15.2084   5
  -3 -11 -13 30.6858 17.2453   3
  -4 -11 -13 70.0996 18.5238   3
  -6  12  13 0.89024 23.4236   1
  -5  12  13 -12.004 22.0031   1
  -4  12  13 -3.1968 20.1813   1
   0  12  13 122.926 20.6589   5
   1  12  13 26.3749 18.2345   5
  -3 -12 -13 4.82947 17.3885   3
  -4 -12 -13 4.71472 16.5480   3
  -5  13  13 7.66546 22.1528   1
   0  13  13 49.7807 19.0422   5
   1  13  13 64.0601 20.5913   5
   2  13  13 1.01169 18.1625   5
  -3 -13 -13 -8.6435 17.4673   3
   3  13  13 9.16281 20.2085   5
   0  14  13 74.1376 21.2656   5
   1  14  13 2.24053 19.0927   5
   2  14  13 4.78144 19.0793   5
   3  14  13 10.8884 18.4637   5
   4  14  13 26.8180 22.1284   5
   5  14  13 32.0610 22.5134   5
   6  14  13 7.83566 19.9204   5
   7  14  13 -4.2532 22.3410   5
   0  15  13 38.2045 19.8928   5
   1  15  13 4.35249 19.9920   5
   2  15  13 5.99432 20.1125   5
   3  15  13 41.5915 23.2300   5
   4  15  13 3.49464 21.9856   5
   5  15  13 32.8985 23.6651   5
   6  15  13 15.1854 23.0984   5
   0  16  13 39.1219 22.8061   5
   1  16  13 -7.0521 20.9108   5
   2  16  13 -40.078 17.9643   5
   3  16  13 47.8175 23.4581   5
   4  16  13 23.0463 23.4562   5
   5  16  13 -5.4225 24.0057   5
   0  17  13 -20.550 21.8284   5
   1  17  13 -8.1931 21.8496   5
   2  17  13 6.22652 22.9437   5
   3  17  13 14.8481 22.5447   5
   1 -12  14 -3.0211 35.7378   1
  -5  12 -14 17.5284 26.4073   3
  -1 -11  14 18.3442 24.0952   1
   0 -11  14 39.6556 22.6375   1
   1 -11  14 26.6333 23.1034   1
  -4  11 -14 9.75216 31.6012   3
  -5  11 -14 -30.567 23.4924   3
  -6  11 -14 9.96218 25.2076   3
  -3 -10  14 27.3124 23.8860   1
  -2 -10  14 36.1379 23.2840   1
  -1 -10  14 55.1543 24.0201   1
   0 -10  14 -11.647 19.1652   1
   1 -10  14 -4.7722 21.3389   1
  -4  10 -14 57.9489 24.4176   3
  -5  10 -14 -22.153 21.8681   3
  -6  10 -14 13.1914 24.1455   3
  -7  10 -14 4.88449 25.5044   3
  -4  -9  14 24.4815 23.9728   1
  -3  -9  14 -36.797 20.1808   1
  -2  -9  14 22.7838 22.8219   1
  -1  -9  14 50.4601 23.8838   1
   0  -9  14 90.4490 25.2109   1
   1  -9  14 62.8970 22.7774   1
  -3   9 -14 56.7277 22.8776   3
  -4   9 -14 -6.4477 21.5123   3
  -5   9 -14 24.3406 22.2790   3
  -6   9 -14 6.83640 21.5179   3
  -7   9 -14 -3.8243 22.3722   3
  -8   9 -14 21.8393 24.1156   3
  -5  -8  14 30.7076 25.2956   1
  -4  -8  14 19.1880 24.0872   1
  -3  -8  14 58.1264 21.6958   1
  -2  -8  14 25.9323 22.3965   1
  -1  -8  14 -18.896 17.2983   1
   0  -8  14 34.1081 21.3924   1
   1  -8  14 22.8669 20.9626   1
  -2   8 -14 91.1979 25.0902   3
  -3   8 -14 49.2939 21.8247   3
  -4   8 -14 101.828 24.2240   3
  -5   8 -14 68.3422 24.1610   3
  -6   8 -14 48.1990 22.9705   3
  -7   8 -14 -35.842 20.8072   3
  -8   8 -14 17.0746 23.1645   3
  -9   8 -14 2.41696 24.3885   3
  -6  -7  14 23.6624 26.7042   2
  -5  -7  14 40.1906 23.1082   1
  -4  -7  14 51.9956 24.3347   1
  -3  -7  14 -20.809 19.1245   1
  -2  -7  14 22.6359 21.5648   1
  -1  -7  14 41.0047 20.4167   1
   0  -7  14 64.6666 20.8631   1
   1  -7  14 94.3656 22.6291   1
  -2   7 -14 42.2566 20.2973   3
  -3   7 -14 55.7105 21.5296   3
  -4   7 -14 -5.7760 20.0093   3
  -5   7 -14 3.64739 18.8832   3
  -6   7 -14 69.0549 21.2899   3
  -7   7 -14 89.6857 26.1170   3
  -8   7 -14 18.1277 22.7737   3
  -9   7 -14 15.4017 24.5720   3
  -6  -6  14 -19.311 22.5046   2
  -6  -6  14 -18.825 19.9113   1
  -5  -6  14 71.5052 24.4609   1
  -4  -6  14 -12.802 20.8395   1
  -3  -6  14 47.2014 21.9613   1
  -2  -6  14 13.5896 17.3169   1
  -1  -6  14 10.7496 18.6206   1
   0  -6  14 4.32773 18.2176   1
  -1   6 -14 62.1598 18.4868   3
   1  -6  14 46.5478 19.9639   1
  -2   6 -14 56.2040 19.9472   3
  -3   6 -14 176.356 23.9469   3
  -4   6 -14 127.909 22.3222   3
  -5   6 -14 -6.8066 20.0289   3
  -6   6 -14 16.4085 18.3724   3
  -7   6 -14 17.8722 19.3919   3
  -8   6 -14 -3.0895 21.9439   3
  -9   6 -14 -6.2721 22.1864   3
 -10   6 -14 19.7075 23.8653   3
  -7  -5  14 -16.837 23.1319   2
  -6  -5  14 -19.862 22.0218   2
  -6  -5  14 4.87600 21.5947   1
  -5  -5  14 27.9082 19.9801   1
  -4  -5  14 22.9763 20.9846   1
  -3  -5  14 -18.588 18.6503   1
  -2  -5  14 27.1984 19.5448   1
  -1  -5  14 10.2681 19.0614   1
   0  -5  14 16.1977 18.3997   1
  -1   5 -14 379.938 27.0827   3
   1  -5  14 398.461 29.2522   1
  -2   5 -14 110.786 20.6271   3
  -3   5 -14 -5.5857 16.1780   3
  -4   5 -14 27.0933 19.1056   3
  -5   5 -14 74.6305 22.1816   3
  -6   5 -14 42.7691 19.4377   3
  -7   5 -14 76.8553 24.2034   3
  -8   5 -14 -9.1188 21.2645   3
  -9   5 -14 4.96595 23.0802   3
 -10   5 -14 -22.899 22.8822   3
  -7  -4  14 -8.0221 26.9999   4
  -7  -4  14 0.58908 33.7678   1
  -7  -4  14 -29.448 21.4127   2
  -6  -4  14 52.1427 23.7257   1
  -6  -4  14 -9.5269 21.2391   2
  -5  -4  14 -24.257 19.5445   1
  -4  -4  14 84.5932 23.2638   1
  -3  -4  14 104.068 21.2699   1
  -2  -4  14 6.69914 18.1082   1
  -1  -4  14 56.6432 19.3384   1
   0   4 -14 -2.0416 14.5875   3
   0  -4  14 -17.636 14.0587   1
  -1   4 -14 47.1447 16.4983   3
   1  -4  14 52.0965 18.3752   1
  -2   4 -14 343.627 26.0118   3
   2  -4  14 340.605 27.3485   1
  -3   4 -14 66.7519 19.1537   3
  -4   4 -14 56.9768 17.0785   3
  -5   4 -14 -14.822 16.9066   3
  -6   4 -14 14.5852 17.2632   3
  -7   4 -14 13.7761 19.9237   3
  -8   4 -14 41.4737 21.8674   3
  -9   4 -14 -21.220 22.4565   3
 -10   4 -14 34.4266 25.5240   3
 -11   4 -14 35.9639 26.8318   3
  -7  -3  14 18.2497 24.5642   4
  -7  -3  14 9.99852 20.3343   1
  -7  -3  14 38.9120 24.6891   2
  -6  -3  14 64.9212 29.6611   4
  -6  -3  14 30.8151 22.6246   2
  -6  -3  14 77.2732 24.7086   1
  -5  -3  14 44.4482 20.3109   1
  -4  -3  14 3.22172 17.7325   1
  -3  -3  14 1.56348 18.8938   1
  -2  -3  14 -9.0885 15.4403   1
   1   3 -14 99.5392 17.8859   3
  -1  -3  14 84.0248 18.0617   1
   0   3 -14 150.111 19.3421   3
   0  -3  14 158.615 22.2212   1
  -1   3 -14 162.320 21.2401   3
   1  -3  14 173.373 20.7659   1
  -2   3 -14 -10.187 13.9104   3
   2  -3  14 -10.752 15.1971   1
  -3   3 -14 -14.418 14.6269   3
  -4   3 -14 7.15286 16.2122   3
  -5   3 -14 107.877 20.6580   3
  -6   3 -14 214.573 23.9474   3
  -7   3 -14 63.7795 19.7882   3
  -8   3 -14 50.9687 22.2537   3
  -9   3 -14 9.52754 22.4475   3
 -10   3 -14 -15.798 23.2110   3
 -11   3 -14 28.7294 25.5180   3
  -7  -2  14 -34.552 20.6697   2
  -7  -2  14 -29.010 21.7755   1
  -7  -2  14 -18.484 24.3246   4
  -6  -2  14 27.0888 21.6021   2
  -6  -2  14 8.89113 19.4588   1
  -6  -2  14 10.5406 22.1085   4
  -5  -2  14 -1.2608 19.5313   1
  -4  -2  14 68.6624 19.7724   1
  -3  -2  14 327.477 27.0868   1
  -2  -2  14 266.789 26.9229   1
   1   2 -14 18.0755 14.6290   3
  -1  -2  14 0.87581 16.4946   1
   0   2 -14 11.2459 14.0767   3
   0  -2  14 -2.9768 15.2973   1
  -1   2 -14 53.2897 16.4702   3
   1  -2  14 33.9083 16.1695   1
  -2   2 -14 227.490 22.2907   3
   2  -2  14 238.964 21.4835   1
  -3   2 -14 70.4504 18.4029   3
   3  -2  14 54.8590 15.3245   1
  -4   2 -14 23.2569 15.0036   3
  -5   2 -14 26.8597 17.4264   3
  -6   2 -14 -8.3049 15.4930   3
  -7   2 -14 6.75363 19.5372   3
  -8   2 -14 40.5142 22.0181   3
  -9   2 -14 21.2425 22.5371   3
 -10   2 -14 20.8576 23.7258   3
 -11   2 -14 53.7759 25.4686   3
  -8  -1  14 64.2965 25.6975   2
  -8  -1  14 12.3074 26.4121   4
  -7  -1  14 126.987 27.3582   2
  -7  -1  14 93.7650 26.6456   1
  -7  -1  14 131.301 30.0749   4
  -6  -1  14 78.4781 26.0839   4
  -6  -1  14 47.7536 21.3850   2
  -6  -1  14 52.7595 21.1884   1
  -5  -1  14 142.765 24.5929   4
  -5  -1  14 129.973 23.4838   2
  -5  -1  14 119.620 21.9589   1
  -4  -1  14 25.7291 19.3352   1
  -3  -1  14 45.0953 18.1645   1
   2   1 -14 83.7073 16.5383   3
  -2  -1  14 63.5610 19.2540   1
   1   1 -14 9.91607 14.4744   3
  -1  -1  14 33.4136 16.7687   1
   0   1 -14 128.078 18.5578   3
   0  -1  14 91.5014 16.6557   1
  -1   1 -14 96.6429 17.5239   3
   1  -1  14 99.5989 17.9760   1
  -2   1 -14 75.5616 16.0464   3
   2  -1  14 65.3898 16.1707   1
  -3   1 -14 33.2881 16.7187   3
   3  -1  14 25.7852 14.1978   1
  -4   1 -14 121.193 21.2219   3
  -5   1 -14 117.115 20.8379   3
  -6   1 -14 41.1251 16.9942   3
  -7   1 -14 38.7599 20.4029   3
  -8   1 -14 52.3078 21.2146   3
  -9   1 -14 17.0198 21.8653   3
 -10   1 -14 -3.8309 22.8137   3
 -11   1 -14 15.6682 24.3597   3
  -8   0  14 -5.4350 23.5222   2
  -8   0  14 49.7957 27.7634   4
  -7   0  14 45.7082 24.1396   1
  -7   0  14 7.15332 23.4941   4
  -7   0  14 21.9247 22.0644   2
  -6   0  14 23.7769 22.8804   1
  -6   0  14 -10.670 19.3510   2
  -6   0  14 -18.358 21.7799   4
  -5   0  14 129.479 23.2045   2
  -5   0  14 157.215 25.5794   1
  -5   0  14 140.208 23.9762   4
  -4   0  14 179.131 24.6291   1
  -3   0  14 75.3597 19.9390   1
   2   0 -14 52.3722 16.3084   3
  -2   0  14 47.8041 17.2832   1
   1   0 -14 9.63670 14.5577   3
  -1   0  14 2.71660 15.4419   1
   0   0 -14 4.18563 14.3553   3
   0   0  14 -2.3674 13.4171   1
  -1   0 -14 56.0905 17.5495   3
   1   0  14 29.0033 14.6290   1
  -2   0 -14 364.207 26.5567   3
   2   0  14 364.159 23.4565   1
  -3   0 -14 45.8667 16.6934   3
   3   0  14 33.1791 13.4191   1
  -4   0 -14 200.723 22.7982   3
   4   0  14 191.179 17.8755   1
  -5   0 -14 -3.5042 16.6768   3
  -6   0 -14 37.4680 17.5757   3
  -7   0 -14 45.0672 20.0153   3
  -8   0 -14 -7.0028 19.4580   3
  -9   0 -14 90.5777 23.1825   3
 -10   0 -14 -2.4685 21.3623   3
 -11   0 -14 -2.2354 21.5741   3
  -8   1  14 71.1273 28.1388   4
  -7   1  14 152.356 28.7191   4
  -7   1  14 161.399 26.8678   1
  -6   1  14 123.072 25.7977   4
  -6   1  14 94.8235 22.0783   1
  -6   1  14 128.281 24.9597   2
  -5   1  14 18.4423 18.3805   2
  -5   1  14 74.0771 22.0403   4
  -5   1  14 57.1558 20.0012   1
  -4   1  14 -0.2268 18.3810   4
  -4   1  14 -0.7442 18.0627   1
   3  -1 -14 -22.141 14.8249   3
  -3   1  14 -5.0299 16.1233   1
   2  -1 -14 169.512 20.0955   3
  -2   1  14 142.436 19.9869   1
   1  -1 -14 145.083 19.3473   3
  -1   1  14 94.0319 17.5897   1
   0  -1 -14 80.5461 16.9499   3
   0   1  14 90.0742 16.5253   1
  -1  -1 -14 155.207 19.9702   3
   1   1  14 156.382 17.2932   1
  -2  -1 -14 226.473 21.0067   3
   2   1  14 223.313 18.3466   1
  -3  -1 -14 79.4496 17.9560   3
   3   1  14 60.7478 13.4677   1
  -4  -1 -14 105.131 18.5718   3
  -5  -1 -14 25.2162 17.3116   3
  -6  -1 -14 27.8174 18.3240   3
  -7  -1 -14 63.4287 19.6162   3
  -8  -1 -14 27.5547 20.2452   3
  -9  -1 -14 -6.3313 19.3698   3
 -10  -1 -14 -5.3955 20.9392   3
  -8   2  14 38.5784 27.5153   4
  -8   2  14 20.3202 26.6815   1
  -7   2  14 10.1457 25.5760   4
  -7   2  14 20.5316 22.8168   1
  -6   2  14 40.7243 21.3216   1
  -6   2  14 73.8207 25.6272   4
  -5   2  14 70.0482 23.1301   4
  -5   2  14 22.9896 21.1374   1
   4  -2 -14 121.901 20.9370   3
  -4   2  14 130.056 22.1978   4
  -4   2  14 152.133 23.2985   1
   3  -2 -14 11.8969 15.9086   3
  -3   2  14 45.6579 17.5024   1
   2  -2 -14 15.9519 15.4371   3
  -2   2  14 -14.321 15.0353   1
   1  -2 -14 2.16055 14.3481   3
  -1   2  14 -36.297 12.6215   1
   0  -2 -14 -6.0953 14.6212   3
   0   2  14 -4.1824 13.2451   1
  -1  -2 -14 112.443 18.9512   3
   1   2  14 90.4914 15.0830   1
  -2  -2 -14 3.04476 13.3123   3
   2   2  14 11.6007 11.5455   1
  -3  -2 -14 98.9017 18.9802   3
  -4  -2 -14 5.78068 16.1017   3
  -5  -2 -14 19.5689 17.0629   3
  -6  -2 -14 89.8996 19.8240   3
  -7  -2 -14 27.2385 18.3284   3
  -8  -2 -14 107.384 21.5479   3
  -9  -2 -14 40.0168 21.6595   3
 -10  -2 -14 3.80336 20.9183   3
 -10  -2 -14 -34.008 21.2195   2
 -11  -2 -14 32.0169 26.2024   2
  -8   3  14 101.828 29.9105   4
  -8   3  14 111.317 39.6350   1
  -7   3  14 40.4441 27.6151   4
  -7   3  14 93.9284 25.0259   1
  -6   3  14 18.9090 20.9057   1
  -6   3  14 18.9258 22.6224   4
  -5   3  14 32.8144 19.6151   1
  -5   3  14 28.1324 21.1239   4
  -4   3  14 0.70024 19.1105   4
  -4   3  14 14.0171 18.5462   1
   3  -3 -14 -9.2304 15.7666   3
  -3   3  14 -4.9394 17.1420   1
  -3   3  14 -19.823 14.9045   4
   2  -3 -14 204.663 22.4959   3
  -2   3  14 177.489 20.4546   1
   1  -3 -14 452.786 29.0390   3
  -1   3  14 477.004 26.8252   1
   0  -3 -14 330.580 23.9487   3
   0   3  14 347.765 22.4690   1
  -1  -3 -14 312.009 23.7118   3
   1   3  14 336.384 21.6781   1
  -2  -3 -14 -24.211 13.0108   3
   2   3  14 -20.130 10.2253   1
  -3  -3 -14 203.139 21.6998   3
  -4  -3 -14 61.3708 16.0541   3
  -5  -3 -14 92.4265 18.9861   3
  -6  -3 -14 72.4170 19.3889   3
  -7  -3 -14 44.5626 18.7144   3
  -8  -3 -14 -5.7075 16.1642   3
  -9  -3 -14 -1.9084 18.7184   3
  -9  -3 -14 8.34620 19.2892   2
 -10  -3 -14 20.4591 22.7456   2
 -11  -3 -14 23.3513 24.1536   2
  -8   4  14 14.6898 29.3799   4
  -7   4  14 -19.564 20.1607   1
  -7   4  14 7.28512 25.3810   4
  -6   4  14 32.6587 21.1985   1
  -6   4  14 29.6141 24.5679   4
  -5   4  14 68.1379 22.9985   4
  -5   4  14 39.4123 19.8910   1
  -4   4  14 26.0550 17.6613   1
  -4   4  14 77.5193 20.8883   4
  -3   4  14 61.1763 18.3449   1
  -3   4  14 85.7420 19.8326   4
   2  -4 -14 38.6179 16.6805   3
  -2   4  14 39.8020 16.7102   1
   1  -4 -14 32.4242 17.4689   3
  -1   4  14 2.73533 14.0453   1
   0  -4 -14 5.90718 15.6088   3
   0   4  14 23.3642 12.4593   1
  -1  -4 -14 27.5982 15.8226   3
   1   4  14 41.9342 12.6946   1
  -2  -4 -14 0.55659 15.1464   3
  -3  -4 -14 431.852 28.1867   3
  -4  -4 -14 18.4708 14.4163   3
  -5  -4 -14 20.7119 16.6648   3
  -6  -4 -14 128.030 20.2291   3
  -7  -4 -14 12.6695 17.2094   3
  -8  -4 -14 55.4144 19.8944   2
  -8  -4 -14 82.6595 19.6826   3
  -9  -4 -14 49.0357 20.9293   2
  -9  -4 -14 25.0084 18.8858   3
 -10  -4 -14 49.3841 24.1092   2
 -11  -4 -14 -10.002 23.3333   2
  -8   5  14 -24.028 27.3521   4
  -7   5  14 5.74078 20.2557   1
  -7   5  14 22.8986 26.7510   4
  -6   5  14 6.85129 20.2015   1
  -6   5  14 19.4327 24.9134   4
  -5   5  14 46.3943 20.2731   1
  -5   5  14 58.6141 22.8200   4
  -4   5  14 14.1227 18.1272   1
  -4   5  14 4.11029 19.0020   4
  -3   5  14 60.0687 19.0547   4
  -3   5  14 57.9432 17.5467   1
  -2   5  14 40.6385 16.5246   4
  -2   5  14 55.5855 15.9078   1
  -1   5  14 51.2373 15.3017   1
   0  -5 -14 292.156 25.5228   3
   0   5  14 295.053 20.7031   1
  -1  -5 -14 37.7301 17.5075   3
  -2  -5 -14 19.2598 16.9552   3
  -3  -5 -14 76.4543 18.2840   3
  -4  -5 -14 153.667 21.5357   3
  -5  -5 -14 15.4965 15.7164   3
  -6  -5 -14 141.511 20.1895   3
  -7  -5 -14 178.911 23.4654   3
  -8  -5 -14 18.5947 17.6916   3
  -9  -5 -14 0.44816 20.2659   2
 -10  -5 -14 -11.542 20.5576   2
 -11  -5 -14 43.0253 24.3981   2
  -8   6  14 -36.097 26.7327   4
  -7   6  14 -41.938 25.2383   4
  -7   6  14 12.4604 21.4912   1
  -6   6  14 0.07137 24.5090   4
  -6   6  14 40.9641 21.9438   1
  -5   6  14 42.5749 24.1203   4
  -5   6  14 61.6659 18.8691   1
  -4   6  14 205.315 25.7991   4
  -4   6  14 183.696 23.6638   1
  -3   6  14 132.767 20.4426   1
  -3   6  14 122.354 21.2307   4
  -2   6  14 92.6898 17.8366   1
  -2   6  14 76.2749 19.2631   4
  -1   6  14 25.1256 14.7501   1
   0  -6 -14 45.0445 18.1381   3
   0   6  14 45.0795 13.4960   1
  -1  -6 -14 36.2838 17.4265   3
  -2  -6 -14 247.596 23.6131   3
  -3  -6 -14 132.365 20.5811   3
  -4  -6 -14 30.0165 16.8046   3
  -5  -6 -14 153.522 21.3667   3
  -6  -6 -14 -12.664 15.9743   3
  -7  -6 -14 42.4277 16.8251   3
  -8  -6 -14 64.7657 23.7937   3
  -8   7  14 45.6621 30.0276   4
  -7   7  14 11.8467 28.7137   4
  -7   7  14 49.2806 22.8915   1
  -6   7  14 49.7463 25.8422   4
  -6   7  14 36.3577 21.7076   1
  -5   7  14 67.6350 24.6871   4
  -5   7  14 42.8301 22.7852   1
  -4   7  14 -17.426 19.5657   4
  -4   7  14 -18.583 18.0621   1
  -3   7  14 13.8314 19.2985   4
  -3   7  14 49.0070 17.7316   1
  -2   7  14 18.4704 15.3859   1
  -1   7  14 162.983 18.5989   1
  -1  -7 -14 17.5893 15.4644   3
  -2  -7 -14 -16.172 13.8021   3
  -3  -7 -14 11.2574 15.4784   3
  -4  -7 -14 65.3396 17.5813   3
  -5  -7 -14 1.55071 15.3299   3
  -6  -7 -14 167.873 21.7989   3
  -7  -7 -14 171.554 21.9043   3
  -7   8  14 39.9929 23.4919   1
  -7   8  14 3.94868 27.8092   4
  -6   8  14 -21.643 24.9629   4
  -6   8  14 -16.652 19.7399   1
  -5   8  14 19.6474 23.1544   4
  -5   8  14 17.7982 20.2185   1
  -4   8  14 79.1664 20.0418   1
  -4   8  14 36.2000 23.1893   4
  -3   8  14 48.4247 17.4692   1
  -2   8  14 45.7498 15.5107   1
  -1  -8 -14 168.111 23.3402   3
  -2  -8 -14 109.223 21.1090   3
  -3  -8 -14 93.2062 19.5027   3
  -4  -8 -14 60.5994 18.5190   3
  -5  -8 -14 11.6703 15.1282   3
  -6  -8 -14 5.74623 15.1897   3
  -7   9  14 19.3954 22.2203   1
  -7   9  14 34.0653 29.3473   4
  -6   9  14 26.9280 27.7076   4
  -6   9  14 25.3761 21.7266   1
  -5   9  14 9.31737 19.8142   1
  -4   9  14 16.2631 18.6778   1
  -3   9  14 38.0897 17.1483   1
  -2   9  14 54.4537 16.4485   1
  -2  -9 -14 58.6785 19.7963   3
  -3  -9 -14 -26.313 15.9575   3
  -4  -9 -14 31.2735 17.0795   3
  -5  -9 -14 60.5098 17.4281   3
  -6  -9 -14 105.027 19.2549   3
  -6  10  14 -11.934 20.6594   1
  -5  10  14 63.7369 22.1501   1
  -4  10  14 55.2049 20.3651   1
  -3  10  14 8.39839 16.8333   1
  -2 -10 -14 13.5433 18.5286   3
  -3 -10 -14 76.8622 19.1696   3
  -4 -10 -14 40.7528 17.7564   3
  -5 -10 -14 -25.157 13.8201   3
  -6  11  14 28.2060 22.4383   1
  -5  11  14 8.28011 20.3437   1
  -4  11  14 19.9874 20.5233   1
  -2 -11 -14 7.73637 19.2356   3
  -3 -11 -14 5.56381 18.0869   3
  -4 -11 -14 23.2173 17.5711   3
  -5 -11 -14 35.3586 18.6666   3
  -6  12  14 -12.972 22.7797   1
  -5  12  14 25.9798 22.2804   1
   0  12  14 -11.125 16.8308   5
  -3 -12 -14 50.4482 20.7796   3
  -4 -12 -14 18.8933 17.6535   3
   0  13  14 34.3979 18.4826   5
   1  13  14 3.28035 18.2579   5
   2  13  14 12.8945 20.1613   5
  -3 -13 -14 31.0363 20.9301   3
   0  14  14 1.30778 18.0672   5
   1  14  14 -9.2796 19.1497   5
   2  14  14 12.9079 20.1172   5
  -3 -14 -14 41.0864 20.9663   3
   3  14  14 29.6770 21.6409   5
   4  14  14 6.83495 21.6821   5
   5  14  14 -4.8752 20.7026   5
   6  14  14 -9.5887 22.3496   5
   7  14  14 -0.0452 22.7361   5
   1  15  14 64.4987 21.9475   5
   2  15  14 -11.848 20.2191   5
   3  15  14 -0.5380 21.2571   5
   4  15  14 -28.687 20.5499   5
   5  15  14 -0.9610 22.0297   5
   6  15  14 58.3711 26.3691   5
   1  16  14 84.3158 23.5338   5
   2  16  14 49.8207 23.2720   5
   3  16  14 -1.6314 22.0256   5
   4  16  14 0.16328 22.4675   5
   0 -11  15 -10.323 27.2540   1
   1 -11  15 -19.947 23.2265   1
  -5  11 -15 1.72027 24.9437   3
  -2 -10  15 10.2342 36.3127   1
  -1 -10  15 56.3151 25.3989   1
   0 -10  15 42.9513 23.5666   1
   1 -10  15 22.4256 23.4804   1
  -4  10 -15 17.6672 24.1677   3
  -5  10 -15 27.7630 25.5450   3
  -6  10 -15 -21.243 22.2392   3
  -7  10 -15 18.5846 25.7743   3
  -3  -9  15 50.9597 25.4610   1
  -2  -9  15 63.6653 25.5876   1
  -1  -9  15 -43.954 20.4709   1
   0  -9  15 33.0848 21.8537   1
   1  -9  15 33.0665 23.4250   1
  -3   9 -15 37.9374 25.9799   3
  -4   9 -15 42.2654 23.2252   3
  -5   9 -15 36.7996 24.0662   3
  -6   9 -15 72.2661 25.7441   3
  -7   9 -15 2.16996 24.1786   3
  -8   9 -15 35.3456 24.5292   3
  -4  -8  15 17.9864 22.4837   1
  -3  -8  15 3.80485 21.2809   1
  -2  -8  15 2.28401 21.1819   1
  -1  -8  15 86.3633 24.1449   1
   0  -8  15 11.4384 20.6724   1
   1  -8  15 -4.9844 20.5994   1
   2  -8  15 -1.1980 17.6207   1
  -3   8 -15 17.1441 22.2639   3
  -4   8 -15 0.08846 20.9043   3
  -5   8 -15 58.9484 24.2812   3
  -6   8 -15 62.2471 24.5992   3
  -7   8 -15 -5.3666 21.9649   3
  -8   8 -15 47.0328 25.9011   3
  -4  -7  15 -32.992 20.9472   1
  -3  -7  15 70.3259 21.6746   1
  -2  -7  15 -0.8969 20.7598   1
  -1  -7  15 33.1446 21.8453   1
   0  -7  15 -12.467 19.4547   1
   1  -7  15 -18.628 19.4860   1
  -2   7 -15 11.0632 20.0874   3
   2  -7  15 28.7014 18.3406   1
  -3   7 -15 109.162 23.2748   3
  -4   7 -15 180.062 27.3223   3
  -5   7 -15 63.6142 23.6115   3
  -6   7 -15 25.2267 21.8995   3
  -7   7 -15 -15.065 22.4791   3
  -8   7 -15 6.12515 23.2642   3
  -9   7 -15 -2.4487 24.3277   3
  -5  -6  15 27.1665 23.1426   1
  -4  -6  15 36.5854 22.5413   1
  -3  -6  15 -6.7463 21.5315   1
  -2  -6  15 53.3132 22.7293   1
  -1  -6  15 52.8826 19.5664   1
   0  -6  15 124.028 23.7754   1
   1  -6  15 167.458 25.1999   1
  -2   6 -15 11.4577 19.2186   3
   2  -6  15 9.20250 18.9877   1
  -3   6 -15 1.69224 19.1461   3
  -4   6 -15 1.58617 19.0335   3
  -5   6 -15 88.2480 23.8950   3
  -6   6 -15 32.7868 22.5092   3
  -7   6 -15 46.0131 23.2316   3
  -8   6 -15 2.78627 23.6111   3
  -9   6 -15 -8.8824 22.8639   3
  -6  -5  15 -4.2967 23.7179   2
  -5  -5  15 2.16568 21.9896   1
  -4  -5  15 41.5335 22.4382   1
  -3  -5  15 123.395 25.5467   1
  -2  -5  15 58.4991 22.1811   1
  -1  -5  15 23.1457 17.8857   1
   0  -5  15 4.64418 18.7591   1
  -1   5 -15 62.9145 19.0186   3
   1  -5  15 21.9362 18.8741   1
  -2   5 -15 248.240 25.8307   3
   2  -5  15 182.818 22.3970   1
  -3   5 -15 150.247 22.5007   3
  -4   5 -15 79.9255 21.9111   3
  -5   5 -15 72.7762 21.7475   3
  -6   5 -15 -4.3312 20.1768   3
  -7   5 -15 -10.096 19.9662   3
  -8   5 -15 19.1039 24.0453   3
  -9   5 -15 52.4412 25.8166   3
 -10   5 -15 32.6010 26.0149   3
  -6  -4  15 31.4748 23.5833   1
  -6  -4  15 5.03561 23.9202   2
  -5  -4  15 22.8707 22.3197   1
  -4  -4  15 18.5324 21.4139   1
  -3  -4  15 12.5728 20.7295   1
  -2  -4  15 53.3640 20.7281   1
  -1  -4  15 169.455 24.1242   1
   0   4 -15 137.206 20.3613   3
   0  -4  15 129.133 22.3741   1
  -1   4 -15 116.368 20.4637   3
   1  -4  15 92.8219 20.4691   1
  -2   4 -15 -1.3129 15.5801   3
   2  -4  15 19.5812 16.7042   1
  -3   4 -15 -0.7200 16.5155   3
  -4   4 -15 44.0243 17.4533   3
  -5   4 -15 101.235 22.8597   3
  -6   4 -15 53.1843 21.9031   3
  -7   4 -15 18.8505 21.5498   3
  -8   4 -15 52.2378 23.8559   3
  -9   4 -15 -0.8506 23.8174   3
 -10   4 -15 -20.790 22.7566   3
  -7  -3  15 -9.1625 23.5942   2
  -6  -3  15 -22.123 20.8536   1
  -6  -3  15 -17.423 21.4795   2
  -5  -3  15 44.7285 23.6771   1
  -4  -3  15 103.690 24.7266   1
  -3  -3  15 106.460 22.8061   1
  -2  -3  15 93.7010 22.5994   1
  -1  -3  15 8.00849 17.4028   1
   0   3 -15 2.63783 15.3964   3
   0  -3  15 29.1412 18.3354   1
  -1   3 -15 1.23702 15.6229   3
   1  -3  15 33.8826 17.1486   1
  -2   3 -15 222.519 22.9492   3
   2  -3  15 177.201 21.7093   1
  -3   3 -15 51.0340 18.8607   3
   3  -3  15 41.2749 17.3969   1
  -4   3 -15 146.364 21.8304   3
  -5   3 -15 -0.7488 16.3065   3
  -6   3 -15 25.7562 20.5543   3
  -7   3 -15 18.2799 19.7476   3
  -8   3 -15 -14.075 21.0025   3
  -9   3 -15 28.1598 23.6119   3
 -10   3 -15 19.8885 25.1684   3
 -11   3 -15 3.38840 25.6346   3
  -7  -2  15 40.9617 25.0643   2
  -6  -2  15 34.2229 22.8627   1
  -6  -2  15 20.3542 22.7309   2
  -5  -2  15 5.23413 21.6151   1
  -4  -2  15 28.8445 21.4832   1
  -3  -2  15 37.9632 20.1739   1
  -2  -2  15 232.592 25.5969   1
   1   2 -15 79.6572 18.1375   3
  -1  -2  15 127.203 21.9160   1
   0   2 -15 6.58274 14.8681   3
   0  -2  15 15.7762 14.5472   1
  -1   2 -15 -2.8647 15.5467   3
   1  -2  15 51.2218 16.8881   1
  -2   2 -15 27.8459 17.6741   3
   2  -2  15 32.7020 16.2009   1
  -3   2 -15 58.4217 18.7905   3
   3  -2  15 30.1239 15.7799   1
  -4   2 -15 41.6746 18.8706   3
  -5   2 -15 49.3714 18.1245   3
  -6   2 -15 119.622 23.1931   3
  -7   2 -15 37.4275 19.4344   3
  -8   2 -15 33.2349 22.0573   3
  -9   2 -15 28.9452 22.7326   3
 -10   2 -15 13.5736 23.1305   3
 -11   2 -15 30.2192 24.6073   3
  -7  -1  15 45.3959 24.9803   1
  -7  -1  15 18.8974 36.8983   4
  -7  -1  15 -10.225 21.8524   2
  -6  -1  15 -34.314 18.5372   2
  -6  -1  15 -5.8480 22.4033   1
  -5  -1  15 66.4938 22.9169   1
  -5  -1  15 71.6518 22.9702   2
  -4  -1  15 42.3843 20.6551   1
  -3  -1  15 124.010 23.2659   1
  -2  -1  15 152.922 22.5183   1
   1   1 -15 31.8747 16.0555   3
  -1  -1  15 6.88779 17.0321   1
   0   1 -15 1.85743 15.2135   3
   0  -1  15 7.38843 15.7181   1
  -1   1 -15 26.5123 15.9299   3
   1  -1  15 -18.654 14.2245   1
  -2   1 -15 164.390 20.5216   3
   2  -1  15 162.303 19.7050   1
  -3   1 -15 182.022 21.9097   3
   3  -1  15 201.063 20.5967   1
  -4   1 -15 93.1934 20.5130   3
   4  -1  15 115.664 17.6569   1
  -5   1 -15 39.9749 17.2508   3
  -6   1 -15 11.2015 17.1866   3
  -7   1 -15 -2.3659 18.4495   3
  -8   1 -15 61.3863 22.4604   3
  -9   1 -15 104.581 25.9503   3
 -10   1 -15 -10.525 22.8944   3
 -11   1 -15 14.5487 24.7009   3
  -7   0  15 12.4478 22.7267   1
  -7   0  15 60.1225 28.3733   4
  -7   0  15 13.2756 23.6263   2
  -6   0  15 43.8201 21.5410   2
  -6   0  15 46.1048 24.3287   1
  -5   0  15 8.97297 19.2033   2
  -5   0  15 -0.0768 20.3686   1
  -4   0  15 -9.5149 18.8726   1
  -3   0  15 16.9670 18.8824   1
   2   0 -15 132.299 19.7902   3
  -2   0  15 127.291 21.8305   1
   1   0 -15 23.6788 14.9301   3
  -1   0  15 -20.563 14.9921   1
   0   0 -15 4.85600 15.0403   3
   0   0  15 42.2202 16.2723   1
  -1   0 -15 39.2968 17.0466   3
   1   0  15 5.01344 14.8180   1
  -2   0 -15 0.50149 15.4007   3
   2   0  15 8.50934 13.9880   1
  -3   0 -15 113.078 19.4799   3
   3   0  15 74.3660 15.6243   1
  -4   0 -15 9.93953 17.6118   3
  -5   0 -15 21.8975 18.1849   3
  -6   0 -15 42.9706 18.8206   3
  -7   0 -15 62.4786 20.3001   3
  -8   0 -15 42.4160 21.9107   3
  -9   0 -15 9.87404 21.8817   3
 -10   0 -15 -23.208 21.3769   3
 -11   0 -15 23.3887 23.8802   3
  -7   1  15 2.66885 23.9251   4
  -7   1  15 30.5770 21.7180   1
  -6   1  15 68.5771 25.6600   4
  -6   1  15 102.938 24.3858   1
  -5   1  15 26.4107 27.5236   2
  -5   1  15 24.8583 21.1287   1
  -4   1  15 79.7014 20.0563   1
   3  -1 -15 52.0638 17.8480   3
  -3   1  15 78.6901 20.4397   1
   2  -1 -15 231.427 22.6720   3
  -2   1  15 148.715 19.7508   1
   1  -1 -15 29.5706 16.5743   3
  -1   1  15 40.9094 16.2505   1
   0  -1 -15 -2.2032 15.1545   3
   0   1  15 -5.0057 14.6032   1
  -1  -1 -15 64.0664 18.0123   3
   1   1  15 42.2462 15.3574   1
  -2  -1 -15 262.582 24.0290   3
   2   1  15 251.861 20.1280   1
  -3  -1 -15 553.045 29.1792   3
   3   1  15 550.831 25.7492   1
  -4  -1 -15 3.59460 16.3606   3
  -5  -1 -15 16.6228 18.1821   3
  -6  -1 -15 29.5888 18.9316   3
  -7  -1 -15 165.081 22.0684   3
  -8  -1 -15 101.548 23.7738   3
  -9  -1 -15 73.6899 23.0067   3
 -10  -1 -15 47.2919 23.1549   3
 -11  -1 -15 7.22263 34.3359   3
  -7   2  15 30.9444 24.2146   1
  -7   2  15 52.8954 28.7747   4
  -6   2  15 111.545 26.5198   4
  -6   2  15 79.9355 20.5784   1
  -5   2  15 81.7991 26.5544   4
  -5   2  15 91.8931 24.1936   1
  -4   2  15 13.3839 17.1952   1
   3  -2 -15 30.5103 17.0254   3
  -3   2  15 4.66092 17.2882   1
   2  -2 -15 98.2865 19.8601   3
  -2   2  15 118.758 20.0232   1
   1  -2 -15 68.0719 18.2704   3
  -1   2  15 110.146 17.7159   1
   0  -2 -15 100.399 19.5789   3
   0   2  15 114.702 17.4144   1
  -1  -2 -15 168.233 21.4573   3
   1   2  15 164.811 18.4076   1
  -2  -2 -15 273.796 24.7551   3
   2   2  15 223.321 19.0219   1
  -3  -2 -15 21.5388 15.3472   3
  -4  -2 -15 10.3983 14.9046   3
  -5  -2 -15 157.614 22.7516   3
  -6  -2 -15 131.707 23.4369   3
  -7  -2 -15 3.98670 18.3656   3
  -8  -2 -15 -5.2262 18.0293   3
  -9  -2 -15 -18.139 19.4256   3
 -10  -2 -15 6.35128 20.0843   3
  -7   3  15 55.9362 29.5792   4
  -7   3  15 -8.4945 18.7318   1
  -6   3  15 81.7583 23.8334   1
  -6   3  15 95.2881 26.7781   4
  -5   3  15 62.3220 23.2828   4
  -5   3  15 83.9240 22.3443   1
   4  -3 -15 112.202 22.1800   3
  -4   3  15 91.6944 22.3630   1
   3  -3 -15 194.642 23.5596   3
  -3   3  15 259.655 26.2174   1
   2  -3 -15 16.0161 17.0413   3
  -2   3  15 55.6999 17.3074   1
   1  -3 -15 -12.977 15.5513   3
  -1   3  15 -1.9164 14.4272   1
   0  -3 -15 -6.3061 15.8010   3
   0   3  15 -21.016 12.2248   1
  -1  -3 -15 -5.2515 15.6019   3
   1   3  15 7.68972 12.8680   1
  -2  -3 -15 104.090 19.7926   3
  -3  -3 -15 56.6467 18.2445   3
  -4  -3 -15 -0.1206 14.5625   3
  -5  -3 -15 4.77623 14.9958   3
  -6  -3 -15 89.9433 20.8664   3
  -7  -3 -15 96.8234 21.5721   3
  -8  -3 -15 -11.600 17.2772   3
  -9  -3 -15 25.1910 19.7777   3
  -7   4  15 152.690 31.1338   4
  -7   4  15 35.3467 22.7137   1
  -6   4  15 50.9592 24.9465   4
  -6   4  15 36.9427 21.8129   1
  -5   4  15 23.2996 20.3761   1
  -5   4  15 -0.9719 22.5837   4
  -4   4  15 -5.6144 22.7507   4
  -4   4  15 -3.0593 17.6693   1
   3  -4 -15 32.6671 19.1942   3
  -3   4  15 31.7441 17.8943   1
   2  -4 -15 99.6422 20.3522   3
  -2   4  15 81.7998 18.2721   1
   1  -4 -15 591.747 33.1443   3
  -1   4  15 581.185 28.8497   1
   0  -4 -15 250.731 24.3963   3
   0   4  15 300.018 20.9853   1
  -1  -4 -15 27.1548 16.8301   3
   1   4  15 34.4911 13.2802   1
  -2  -4 -15 116.082 20.3139   3
  -3  -4 -15 29.4623 17.6182   3
  -4  -4 -15 375.214 28.4742   3
  -5  -4 -15 92.4032 20.1107   3
  -6  -4 -15 37.4006 18.7700   3
  -7  -4 -15 3.42326 18.1498   3
  -8  -4 -15 -14.791 15.9730   3
  -9  -4 -15 -35.330 17.4108   3
 -10  -4 -15 -10.566 21.8293   2
 -11  -4 -15 7.55741 23.6123   2
  -7   5  15 66.2824 28.9329   4
  -7   5  15 38.4738 23.0580   1
  -6   5  15 80.9509 27.1128   4
  -6   5  15 2.12597 20.9964   1
  -5   5  15 65.9451 19.6668   1
  -5   5  15 132.126 27.0909   4
  -4   5  15 114.239 24.1493   4
  -4   5  15 148.354 23.7755   1
  -3   5  15 232.285 24.1728   1
  -2   5  15 90.7117 18.2613   1
   1  -5 -15 -4.7649 16.9636   3
  -1   5  15 -6.3234 13.9266   1
   0  -5 -15 6.60725 17.3158   3
   0   5  15 30.2517 14.1425   1
  -1  -5 -15 143.365 21.5627   3
  -2  -5 -15 30.8539 17.3070   3
  -3  -5 -15 8.35955 15.0934   3
  -4  -5 -15 18.9648 16.2552   3
  -5  -5 -15 27.3552 17.2809   3
  -6  -5 -15 28.0022 17.7341   3
  -7  -5 -15 29.9652 18.9905   3
  -8  -5 -15 3.74279 17.5850   3
  -7   6  15 39.5491 27.4493   4
  -7   6  15 63.4730 25.8717   1
  -6   6  15 31.3179 25.3036   4
  -6   6  15 52.3132 22.5037   1
  -5   6  15 16.9164 19.0279   1
  -5   6  15 -3.4857 23.3124   4
  -4   6  15 -18.343 19.1172   4
  -4   6  15 -12.972 17.0499   1
  -3   6  15 14.9221 16.8796   1
  -3   6  15 22.0151 22.4657   4
  -2   6  15 55.7125 17.1396   1
  -1   6  15 86.3103 16.5141   1
   0  -6 -15 162.895 23.1696   3
  -1  -6 -15 72.9676 20.1610   3
  -2  -6 -15 -30.403 13.2057   3
  -3  -6 -15 14.6242 17.2834   3
  -4  -6 -15 80.6305 19.6855   3
  -5  -6 -15 -9.2598 16.4052   3
  -6  -6 -15 47.2455 18.8122   3
  -7  -6 -15 5.13483 17.3088   3
  -8  -6 -15 7.48437 17.3176   3
  -7   7  15 35.0335 27.7525   4
  -7   7  15 -13.367 22.3229   1
  -6   7  15 36.4375 26.7754   4
  -6   7  15 91.4438 23.1996   1
  -5   7  15 77.7753 25.2058   1
  -5   7  15 33.7101 25.6572   4
  -4   7  15 69.4996 20.6239   1
  -4   7  15 61.9746 22.8947   4
  -3   7  15 76.2742 23.0690   4
  -3   7  15 69.8644 19.6975   1
  -2   7  15 18.8494 16.3300   1
  -1   7  15 17.5313 15.0418   1
   0  -7 -15 179.460 24.6199   3
  -1  -7 -15 20.9633 17.9777   3
  -2  -7 -15 20.7029 17.2440   3
  -3  -7 -15 126.806 19.8716   3
  -4  -7 -15 107.092 20.6576   3
  -5  -7 -15 -4.4854 16.3740   3
  -6  -7 -15 1.45471 16.1022   3
  -7  -7 -15 11.0500 16.5516   3
  -7   8  15 31.7359 37.9903   1
  -7   8  15 27.3195 28.9624   4
  -6   8  15 31.9137 22.8759   1
  -6   8  15 20.8687 28.4230   4
  -5   8  15 28.9649 20.8156   1
  -5   8  15 8.46923 23.8313   4
  -4   8  15 -18.721 17.6956   1
  -4   8  15 -20.480 21.8663   4
  -3   8  15 33.8996 17.8411   1
  -2   8  15 168.492 25.0683   1
  -1  -8 -15 184.786 23.1702   3
  -2  -8 -15 45.5075 19.0300   3
  -3  -8 -15 -5.2378 16.8860   3
  -4  -8 -15 21.4850 17.6791   3
  -5  -8 -15 34.1065 18.2579   3
  -6  -8 -15 46.6320 19.0378   3
  -7  -8 -15 70.3483 19.2914   3
  -6   9  15 36.4181 22.2946   1
  -6   9  15 45.6580 29.0255   4
  -5   9  15 19.5489 21.2028   1
  -4   9  15 35.9764 19.6945   1
  -3   9  15 65.1079 19.2221   1
  -1  -9 -15 137.028 23.4945   3
  -2  -9 -15 70.0225 21.0863   3
  -3  -9 -15 59.8807 20.2498   3
  -4  -9 -15 29.0762 17.8566   3
  -5  -9 -15 6.16973 15.7083   3
  -6  -9 -15 -1.5208 15.9416   3
  -6  10  15 -29.556 20.3742   1
  -5  10  15 39.7504 21.6434   1
  -4  10  15 20.6798 20.1738   1
  -2 -10 -15 3.23920 18.8716   3
  -3 -10 -15 19.4581 18.9475   3
  -4 -10 -15 29.2015 18.7062   3
  -5 -10 -15 66.7568 19.2926   3
  -6  11  15 16.6283 24.7069   1
  -5  11  15 4.16101 22.4089   1
  -4  11  15 27.2531 25.1329   1
  -2 -11 -15 88.6830 23.5275   3
  -3 -11 -15 45.5465 21.0140   3
  -4 -11 -15 23.9867 18.6213   3
  -5 -11 -15 -11.759 16.8504   3
  -5  12  15 -29.165 24.0464   1
  -2 -12 -15 16.4473 21.5582   3
  -3 -12 -15 31.2756 20.9098   3
  -4 -12 -15 5.44863 18.5151   3
   1  13  15 14.7137 18.8134   5
  -2 -13 -15 5.92874 20.5618   3
  -3 -13 -15 8.86397 20.2265   3
  -4 -13 -15 -22.375 21.4538   3
   1  14  15 35.0571 20.1221   5
  -2 -14 -15 6.54868 22.2480   3
   2  14  15 19.4985 20.3435   5
   3  14  15 19.3297 20.7271   5
   4  14  15 36.4035 22.3557   5
   1  15  15 24.1734 21.1430   5
   2  15  15 2.77345 20.5822   5
   3  15  15 49.8332 23.4850   5
   4  15  15 -15.763 21.6484   5
   5  15  15 21.7059 24.1045   5
   1  16  15 -16.124 20.5256   5
   2  16  15 30.7457 22.2773   5
   3  16  15 6.46096 23.7801   5
   0 -10  16 -15.687 23.9695   1
   1 -10  16 59.2861 25.2313   1
   2 -10  16 76.2530 26.2664   1
  -5  10 -16 -4.0062 23.4683   3
  -6  10 -16 -27.407 23.2487   3
  -2  -9  16 12.7073 38.2229   1
  -1  -9  16 31.9533 24.3842   1
   0  -9  16 -19.455 20.4001   1
   1  -9  16 -5.3727 21.3978   1
   2  -9  16 -26.239 21.9515   1
  -4   9 -16 19.6264 23.5853   3
  -5   9 -16 55.8858 25.6078   3
  -6   9 -16 0.98867 24.2784   3
  -7   9 -16 43.3948 24.7731   3
  -3  -8  16 23.0172 22.6070   1
  -2  -8  16 -23.461 21.2554   1
  -1  -8  16 15.8920 22.5550   1
   0  -8  16 13.9204 20.8851   1
   1  -8  16 -5.2813 19.0615   1
   2  -8  16 36.9708 22.2135   1
  -3   8 -16 86.1133 25.6053   3
  -4   8 -16 16.4303 24.0480   3
  -5   8 -16 59.4324 24.8935   3
  -6   8 -16 -12.515 22.9226   3
  -7   8 -16 40.4281 25.1107   3
  -8   8 -16 19.7007 26.1019   3
  -4  -7  16 16.0398 38.1329   1
  -3  -7  16 0.52354 21.9572   1
  -2  -7  16 70.7724 23.9294   1
   0  -7  16 114.328 24.8784   1
   1  -7  16 20.9133 21.3863   1
  -2   7 -16 41.2610 34.5305   3
   2  -7  16 7.60433 20.0465   1
  -3   7 -16 -51.964 18.3077   3
  -4   7 -16 -8.1684 21.6875   3
  -5   7 -16 104.171 25.9460   3
  -6   7 -16 37.7166 23.8637   3
  -7   7 -16 3.55413 21.4247   3
  -8   7 -16 22.1621 24.9795   3
  -4  -6  16 49.6804 23.5624   1
  -3  -6  16 46.7324 24.0223   1
  -2  -6  16 41.2462 22.3405   1
  -1  -6  16 27.9615 21.7163   1
   0  -6  16 -9.0675 17.6518   1
   1  -6  16 4.44170 19.7084   1
  -2   6 -16 80.6913 22.7284   3
   2  -6  16 48.3594 21.1166   1
  -3   6 -16 90.9697 23.1376   3
  -4   6 -16 87.4577 23.8883   3
  -5   6 -16 -7.5788 20.5727   3
  -6   6 -16 24.1030 20.2850   3
  -7   6 -16 -7.8002 22.8216   3
  -8   6 -16 29.5935 24.2820   3
  -9   6 -16 27.4910 24.4791   3
  -5  -5  16 -27.851 21.7289   1
  -4  -5  16 28.2596 22.5990   1
  -3  -5  16 37.7406 23.1022   1
  -2  -5  16 57.6265 22.9884   1
  -1  -5  16 25.0533 20.5737   1
   0  -5  16 69.4615 22.4630   1
  -1   5 -16 100.550 21.6032   3
   1  -5  16 117.538 23.0564   1
  -2   5 -16 1.86895 17.8858   3
   2  -5  16 -17.115 18.0144   1
  -3   5 -16 17.4214 19.1842   3
   3  -5  16 -12.864 17.2895   1
  -4   5 -16 -12.048 18.5663   3
  -5   5 -16 83.5073 22.5002   3
  -6   5 -16 33.9532 21.4565   3
  -7   5 -16 19.1394 23.3173   3
  -8   5 -16 23.3081 23.2773   3
  -9   5 -16 2.14736 23.8941   3
  -6  -4  16 38.2815 25.1337   2
  -5  -4  16 20.7096 20.7700   1
  -4  -4  16 -5.1457 21.5956   1
  -3  -4  16 67.4740 21.6326   1
  -2  -4  16 44.6261 21.0691   1
  -1  -4  16 -19.983 17.7850   1
   0  -4  16 29.7932 19.5563   1
  -1   4 -16 120.393 21.3238   3
   1  -4  16 102.792 22.1479   1
  -2   4 -16 88.4033 19.4441   3
   2  -4  16 72.4187 21.0508   1
  -3   4 -16 65.4164 21.3300   3
   3  -4  16 97.2789 20.2834   1
  -4   4 -16 111.038 23.3199   3
  -5   4 -16 2.32637 19.5294   3
  -6   4 -16 28.4275 20.9813   3
  -7   4 -16 6.92643 19.0632   3
  -8   4 -16 17.2291 23.1381   3
  -9   4 -16 28.1878 25.8333   3
 -10   4 -16 21.3410 24.9553   3
  -6  -3  16 24.1631 38.2827   1
  -6  -3  16 15.8429 23.1699   2
  -5  -3  16 -24.972 21.0117   1
  -4  -3  16 24.0653 23.3001   1
  -3  -3  16 8.21332 18.4380   1
  -2  -3  16 171.780 26.5017   1
  -1  -3  16 63.5249 21.7377   1
   0   3 -16 227.970 24.3861   3
   0  -3  16 242.945 26.3284   1
  -1   3 -16 159.244 22.6766   3
   1  -3  16 150.841 22.9184   1
  -2   3 -16 66.1241 19.4018   3
   2  -3  16 18.2546 17.7930   1
  -3   3 -16 0.98638 17.9445   3
   3  -3  16 -8.5092 16.3562   1
  -4   3 -16 7.36508 17.3803   3
  -5   3 -16 87.0845 21.4478   3
  -6   3 -16 35.4806 22.0138   3
  -7   3 -16 79.1800 23.5105   3
  -8   3 -16 57.0998 24.1933   3
  -9   3 -16 27.9342 25.4312   3
 -10   3 -16 37.2629 26.1388   3
  -6  -2  16 63.3894 25.5073   2
  -6  -2  16 3.12145 22.5253   1
  -5  -2  16 22.8280 21.7855   1
  -4  -2  16 19.7056 19.0696   1
  -3  -2  16 108.656 23.0797   1
  -2  -2  16 85.5714 22.0507   1
   1   2 -16 29.7977 16.8643   3
  -1  -2  16 -10.424 18.0981   1
   0   2 -16 31.9032 16.6015   3
   0  -2  16 30.6828 18.1631   1
  -1   2 -16 37.9334 17.5958   3
   1  -2  16 14.8384 17.4243   1
  -2   2 -16 176.809 23.4281   3
   2  -2  16 188.227 22.7881   1
  -3   2 -16 -14.502 14.7319   3
   3  -2  16 -4.3203 15.6714   1
  -4   2 -16 9.62126 17.9910   3
   4  -2  16 3.15268 15.7331   1
  -5   2 -16 -2.0393 17.4296   3
  -6   2 -16 39.2102 21.0756   3
  -7   2 -16 31.8426 20.9193   3
  -8   2 -16 6.83823 20.9839   3
  -9   2 -16 14.2784 24.2602   3
 -10   2 -16 43.9324 26.4907   3
  -7  -1  16 36.3956 25.0492   2
  -6  -1  16 44.1685 22.9675   2
  -6  -1  16 4.10253 23.5227   1
  -5  -1  16 -16.519 20.2950   2
  -4  -1  16 -13.495 18.6562   1
  -3  -1  16 51.5247 20.6644   1
  -2  -1  16 38.7278 17.9731   1
   1   1 -16 212.582 23.9750   3
  -1  -1  16 266.599 26.8983   1
   0   1 -16 196.438 23.0606   3
   0  -1  16 199.294 23.0710   1
  -1   1 -16 26.8985 16.5304   3
   1  -1  16 -0.0584 15.8731   1
  -2   1 -16 -9.8089 14.7123   3
   2  -1  16 10.8492 15.7574   1
  -3   1 -16 56.1629 19.4600   3
   3  -1  16 -11.913 14.0089   1
  -4   1 -16 171.669 24.7094   3
   4  -1  16 143.378 19.0876   1
  -5   1 -16 258.280 27.7014   3
  -6   1 -16 49.5602 17.6325   3
  -7   1 -16 15.8810 20.9352   3
  -8   1 -16 15.1854 22.3889   3
  -9   1 -16 -2.8815 22.4778   3
 -10   1 -16 54.7784 26.2284   3
 -11   1 -16 16.3014 25.9617   3
  -6   0  16 12.8867 23.1790   1
  -5   0  16 33.8316 20.5575   1
  -5   0  16 29.1079 20.7632   2
  -4   0  16 158.446 25.6182   1
  -3   0  16 95.3913 22.1705   1
   2   0 -16 98.2454 18.8751   3
  -2   0  16 89.7275 21.1180   1
   1   0 -16 5.73236 15.6161   3
  -1   0  16 28.3228 17.7467   1
   0   0 -16 -1.1541 15.8877   3
   0   0  16 32.6870 17.3539   1
  -1   0 -16 -4.5424 16.0186   3
   1   0  16 12.1519 15.5245   1
  -2   0 -16 46.1536 18.1450   3
   2   0  16 69.3457 17.1642   1
  -3   0 -16 217.781 23.6385   3
   3   0  16 253.865 21.8921   1
  -4   0 -16 138.577 23.1349   3
  -5   0 -16 176.215 25.0433   3
  -6   0 -16 6.80478 19.2087   3
  -7   0 -16 19.9575 19.6708   3
  -8   0 -16 44.7108 21.6861   3
  -9   0 -16 76.3372 24.1813   3
 -10   0 -16 18.9750 24.7138   3
 -11   0 -16 22.4617 25.4710   3
  -6   1  16 38.6273 23.8664   1
  -5   1  16 63.2172 23.1708   1
  -4   1  16 6.75973 19.7301   1
  -3   1  16 21.6275 18.8598   1
   2  -1 -16 141.499 20.8231   3
  -2   1  16 84.3306 20.4298   1
   1  -1 -16 294.590 25.4661   3
  -1   1  16 298.826 25.4290   1
   0  -1 -16 28.0371 16.1801   3
   0   1  16 21.0647 15.8639   1
  -1  -1 -16 -22.578 13.2208   3
   1   1  16 1.07108 15.0632   1
  -2  -1 -16 42.2852 17.8801   3
   2   1  16 51.9057 15.3173   1
  -3  -1 -16 37.3192 17.8412   3
  -4  -1 -16 4.91514 16.6484   3
  -5  -1 -16 3.32562 18.2622   3
  -6  -1 -16 -37.532 14.9112   3
  -7  -1 -16 7.14699 17.5744   3
  -8  -1 -16 -24.600 17.9122   3
  -9  -1 -16 27.2159 22.5614   3
 -10  -1 -16 34.9062 23.2370   3
 -11  -1 -16 -23.677 22.9430   3
  -6   2  16 8.78132 21.1176   1
  -5   2  16 19.2642 21.4186   1
  -4   2  16 133.711 25.4099   1
   3  -2 -16 40.9906 17.9365   3
  -3   2  16 27.8365 18.4774   1
   2  -2 -16 4.23852 16.9029   3
  -2   2  16 26.8576 17.8129   1
   1  -2 -16 20.2863 17.1467   3
  -1   2  16 0.21970 15.4536   1
   0  -2 -16 55.8669 18.8838   3
   0   2  16 44.7749 16.2884   1
  -1  -2 -16 106.415 20.2212   3
   1   2  16 77.1068 16.4982   1
  -2  -2 -16 72.7250 19.3744   3
   2   2  16 119.503 17.3448   1
  -3  -2 -16 248.531 24.7468   3
  -4  -2 -16 66.0799 17.7228   3
  -5  -2 -16 29.9378 18.0890   3
  -6  -2 -16 5.12903 18.0304   3
  -7  -2 -16 6.91525 20.1758   3
  -8  -2 -16 53.8671 20.8037   3
  -9  -2 -16 57.4810 23.5173   3
 -10  -2 -16 40.6188 23.7326   3
  -7   3  16 105.454 42.8228   1
  -7   3  16 51.8133 32.6225   4
  -6   3  16 43.8078 22.2361   1
  -5   3  16 2.69323 20.5358   1
   4  -3 -16 -21.697 24.8023   3
  -4   3  16 20.9218 20.6059   1
   3  -3 -16 51.8208 19.5083   3
  -3   3  16 24.0458 19.8189   1
   2  -3 -16 67.4950 20.2984   3
  -2   3  16 102.269 19.9366   1
   1  -3 -16 459.679 30.7356   3
  -1   3  16 384.082 28.2713   1
   0  -3 -16 169.334 23.1200   3
   0   3  16 139.702 18.6963   1
  -1  -3 -16 68.7228 17.3321   3
   1   3  16 85.3530 16.4882   1
  -2  -3 -16 65.1527 19.0174   3
  -3  -3 -16 71.3946 20.3025   3
  -4  -3 -16 80.4101 20.2243   3
  -5  -3 -16 -8.2678 17.6640   3
  -6  -3 -16 -9.1230 15.8437   3
  -7  -3 -16 29.8319 19.1443   3
  -8  -3 -16 -29.532 17.0701   3
  -9  -3 -16 10.1228 21.0839   3
 -10  -3 -16 4.44465 20.5749   3
  -7   4  16 20.0748 38.7377   1
  -7   4  16 25.1443 27.0607   4
  -6   4  16 22.2900 40.8911   4
  -6   4  16 -2.7290 21.9664   1
  -5   4  16 91.8019 23.0720   1
   4  -4 -16 105.660 23.1668   3
  -4   4  16 69.5053 20.0498   1
   3  -4 -16 114.520 23.5831   3
  -3   4  16 84.2727 20.2740   1
   2  -4 -16 52.3613 20.2228   3
  -2   4  16 46.6389 18.2653   1
   1  -4 -16 -9.2148 17.3767   3
  -1   4  16 38.1163 16.4658   1
   0  -4 -16 28.9993 18.0335   3
   0   4  16 17.4265 13.9358   1
  -1  -4 -16 -20.695 14.6403   3
  -2  -4 -16 22.9652 18.0032   3
  -3  -4 -16 271.987 25.6845   3
  -4  -4 -16 9.58017 17.2424   3
  -5  -4 -16 14.8041 18.0793   3
  -6  -4 -16 13.2761 18.3068   3
  -7  -4 -16 4.03732 19.3172   3
  -8  -4 -16 123.298 23.9345   3
  -9  -4 -16 16.9826 20.1119   3
  -7   5  16 36.7924 28.7522   4
  -6   5  16 22.5478 21.0069   1
  -6   5  16 57.9891 27.2422   4
  -5   5  16 4.15125 19.9577   1
  -4   5  16 33.1958 18.8702   1
   3  -5 -16 85.5841 22.6744   3
  -3   5  16 78.5839 20.2554   1
   2  -5 -16 172.079 24.2466   3
  -2   5  16 159.801 21.7896   1
   1  -5 -16 267.735 28.0137   3
  -1   5  16 253.657 23.2559   1
   0  -5 -16 103.312 20.6562   3
   0   5  16 102.862 18.1596   1
  -1  -5 -16 24.2124 18.2405   3
  -2  -5 -16 5.15771 16.7718   3
  -3  -5 -16 5.14070 17.2266   3
  -4  -5 -16 93.3190 19.9100   3
  -5  -5 -16 9.97672 17.6072   3
  -6  -5 -16 80.5478 20.3817   3
  -7  -5 -16 48.8194 20.7891   3
  -8  -5 -16 -15.869 17.6927   3
  -9  -5 -16 0.27206 18.7008   3
  -7   6  16 -10.312 24.9861   4
  -6   6  16 53.5569 26.6369   4
  -6   6  16 29.5984 21.9659   1
  -5   6  16 192.027 32.5436   4
  -5   6  16 151.004 24.2392   1
  -4   6  16 120.888 23.4222   1
  -3   6  16 101.079 21.0838   1
  -2   6  16 8.13864 16.3723   1
   1  -6 -16 40.9927 19.9541   3
  -1   6  16 1.01712 15.4441   1
   0  -6 -16 119.657 22.2878   3
  -1  -6 -16 -20.769 16.7914   3
  -2  -6 -16 92.2929 21.2459   3
  -3  -6 -16 94.1672 18.6963   3
  -4  -6 -16 9.64412 18.0326   3
  -5  -6 -16 28.1847 18.3517   3
  -6  -6 -16 15.6762 18.0074   3
  -7  -6 -16 9.83652 17.9358   3
  -8  -6 -16 20.1847 20.5476   3
  -6   7  16 70.2969 28.0768   4
  -6   7  16 20.8180 21.3018   1
  -5   7  16 -10.724 20.6179   1
  -5   7  16 -28.172 24.2780   4
  -4   7  16 22.4637 18.8046   1
  -3   7  16 -5.7657 16.6145   1
  -2   7  16 134.257 20.4986   1
   0  -7 -16 132.256 23.7496   3
  -1  -7 -16 32.9069 19.6067   3
  -2  -7 -16 21.6611 18.3036   3
  -3  -7 -16 22.8906 16.6561   3
  -4  -7 -16 148.911 23.6466   3
  -5  -7 -16 33.7728 18.6456   3
  -6  -7 -16 18.7055 18.0051   3
  -7  -7 -16 0.36408 17.6388   3
  -6   8  16 89.2301 25.4222   1
  -6   8  16 98.6551 29.5631   4
  -5   8  16 77.0901 28.2492   4
  -5   8  16 62.3410 23.2980   1
  -4   8  16 11.5220 19.9758   1
  -3   8  16 18.5992 22.8190   1
   0  -8 -16 67.8321 19.7219   3
  -1  -8 -16 130.297 24.1217   3
  -2  -8 -16 117.473 20.7676   3
  -3  -8 -16 131.999 23.7574   3
  -4  -8 -16 30.5231 18.4707   3
  -5  -8 -16 49.3209 19.2382   3
  -6  -8 -16 15.8950 17.4252   3
  -7  -8 -16 22.3033 17.7769   3
  -6   9  16 -13.321 27.4435   4
  -6   9  16 2.81349 22.0634   1
  -5   9  16 20.3939 21.5146   1
  -4   9  16 22.5547 20.9905   1
  -3   9  16 20.5824 19.2881   1
  -1  -9 -16 29.1600 20.4188   3
  -2  -9 -16 -6.1431 18.4753   3
  -3  -9 -16 -8.3059 17.7601   3
  -4  -9 -16 32.4819 19.6393   3
  -5  -9 -16 40.8835 18.3300   3
  -6  -9 -16 18.2631 18.1819   3
  -6  10  16 12.6136 26.1037   1
  -5  10  16 48.3143 23.2746   1
  -4  10  16 16.7837 20.8110   1
  -1 -10 -16 131.617 24.7721   3
  -2 -10 -16 66.7134 20.1014   3
  -3 -10 -16 31.0347 20.5474   3
  -4 -10 -16 69.6656 21.3830   3
  -5 -10 -16 -7.2463 17.2287   3
  -6 -10 -16 -7.1889 18.2486   3
  -5  11  16 -29.605 20.5366   1
  -1 -11 -16 50.0980 22.2657   3
  -2 -11 -16 -46.140 19.7119   3
  -3 -11 -16 -34.603 18.4086   3
  -4 -11 -16 -13.902 18.2769   3
  -5 -11 -16 -0.6838 18.9443   3
  -2 -12 -16 87.3759 25.0127   3
  -3 -12 -16 40.6914 22.3190   3
  -4 -12 -16 7.95377 20.4131   3
   1  13  16 19.1231 19.6645   5
  -2 -13 -16 18.0023 21.8803   3
  -3 -13 -16 -25.449 20.5764   3
  -4 -13 -16 9.82703 21.2162   3
   1  14  16 -6.7927 20.3384   5
  -2 -14 -16 -21.696 21.5227   3
   2  14  16 7.07883 20.6368   5
  -3 -14 -16 13.3296 22.9238   3
   3  14  16 42.2049 22.7464   5
   1  15  16 -33.685 19.5079   5
  -2 -15 -16 6.19563 24.1814   3
   2  15  16 76.6325 23.1755   5
   3  15  16 23.3250 22.7426   5
   4  15  16 -8.2817 21.3903   5
   5  15  16 50.7214 25.8851   5
   1  16  16 -3.8926 32.1069   5
  -2 -16 -16 46.2395 26.3868   3
   2  16  16 -18.382 21.4849   5
   0  -9  17 22.4969 24.7742   1
   1  -9  17 8.55867 23.4381   1
   2  -9  17 43.3387 26.1954   1
   3  -9  17 14.4430 23.2845   1
  -4   9 -17 10.3143 24.8810   3
  -5   9 -17 34.4530 25.3152   3
  -6   9 -17 14.1053 25.1094   3
  -1  -8  17 9.79234 23.8235   1
   0  -8  17 96.8948 26.5207   1
   1  -8  17 -0.1342 22.1671   1
   2  -8  17 -15.987 20.9646   1
   3  -8  17 -1.6479 19.1270   1
  -4   8 -17 -15.641 22.4993   3
  -5   8 -17 47.9595 25.3248   3
  -6   8 -17 34.2165 25.2225   3
  -7   8 -17 4.35908 24.7540   3
  -2  -7  17 -3.8886 22.4106   1
  -1  -7  17 -9.5576 20.7570   1
   0  -7  17 22.3785 20.4889   1
   1  -7  17 2.91977 19.7317   1
   2  -7  17 54.7650 23.2919   1
  -3   7 -17 81.7770 24.2716   3
   3  -7  17 68.0325 23.2346   1
  -4   7 -17 86.2561 25.4352   3
  -5   7 -17 37.4984 24.5336   3
  -6   7 -17 14.2619 23.4970   3
  -7   7 -17 11.8638 23.7314   3
  -8   7 -17 34.4099 26.1931   3
  -3  -6  17 -20.078 21.7283   1
  -2  -6  17 21.4121 22.3431   1
  -1  -6  17 94.9254 24.9043   1
   0  -6  17 75.6371 22.8874   1
   1  -6  17 30.8397 21.3113   1
  -2   6 -17 17.7260 20.5437   3
   2  -6  17 -1.4335 17.5123   1
  -3   6 -17 -10.721 20.8229   3
   3  -6  17 4.50492 20.4283   1
  -4   6 -17 28.9694 21.3896   3
  -5   6 -17 33.2609 22.4120   3
  -6   6 -17 41.9480 23.4731   3
  -7   6 -17 17.7230 24.8369   3
  -8   6 -17 17.9462 24.9121   3
  -4  -5  17 16.6112 24.5671   1
  -3  -5  17 45.1904 23.2351   1
  -2  -5  17 -19.852 20.5522   1
  -1  -5  17 2.10931 20.5529   1
   0  -5  17 23.1146 20.3277   1
   1  -5  17 31.5841 20.9552   1
  -2   5 -17 125.903 24.1795   3
   2  -5  17 113.215 23.6472   1
  -3   5 -17 79.3531 22.7347   3
   3  -5  17 142.507 24.5271   1
  -4   5 -17 83.8339 23.1524   3
  -5   5 -17 14.3834 21.7329   3
  -6   5 -17 -11.212 20.0228   3
  -7   5 -17 70.8804 26.0668   3
  -8   5 -17 -2.2374 23.9472   3
  -9   5 -17 42.4877 26.4012   3
  -4  -4  17 12.3196 22.5490   1
  -3  -4  17 -12.370 21.2315   1
  -2  -4  17 63.9290 23.1194   1
  -1  -4  17 9.94975 20.4272   1
   0  -4  17 97.5461 23.3602   1
  -1   4 -17 95.4722 22.1299   3
   1  -4  17 63.1232 21.1252   1
  -2   4 -17 10.0620 18.8890   3
   2  -4  17 16.1316 19.7576   1
  -3   4 -17 29.3104 20.2707   3
   3  -4  17 -21.894 18.1306   1
  -4   4 -17 -4.8729 18.5660   3
   4  -4  17 24.4814 18.7861   1
  -5   4 -17 15.6215 18.5723   3
  -6   4 -17 13.2630 20.8752   3
  -7   4 -17 9.50839 21.2383   3
  -8   4 -17 -25.610 22.0123   3
  -9   4 -17 43.6545 24.9123   3
  -5  -3  17 3.75045 23.0163   1
  -4  -3  17 52.4578 24.5936   1
  -3  -3  17 10.0759 22.1762   1
  -2  -3  17 4.25054 20.5609   1
  -1  -3  17 -10.924 18.7574   1
   0   3 -17 -8.2224 17.2804   3
   0  -3  17 -2.6091 18.7280   1
  -1   3 -17 108.227 21.5825   3
   1  -3  17 125.354 22.2687   1
  -2   3 -17 136.478 22.9152   3
   2  -3  17 152.373 23.6633   1
  -3   3 -17 36.0819 18.9380   3
   3  -3  17 42.1271 18.7610   1
  -4   3 -17 42.2181 18.9747   3
   4  -3  17 44.7279 18.7176   1
  -5   3 -17 12.4631 20.0163   3
  -6   3 -17 25.8993 21.9058   3
  -7   3 -17 40.8393 22.7425   3
  -8   3 -17 -15.751 21.5806   3
  -9   3 -17 -2.3224 23.7438   3
 -10   3 -17 2.61842 24.6902   3
  -6  -2  17 -21.329 21.4726   2
  -5  -2  17 33.3408 23.8650   1
  -5  -2  17 -49.731 20.2014   2
  -4  -2  17 -11.897 20.3992   1
  -3  -2  17 22.3618 18.9247   1
  -2  -2  17 123.050 23.6898   1
  -1  -2  17 198.417 27.0363   1
   0   2 -17 53.5115 19.0333   3
   0  -2  17 44.5412 19.1282   1
  -1   2 -17 56.2370 19.7780   3
   1  -2  17 51.9526 19.0850   1
  -2   2 -17 11.2006 18.0233   3
   2  -2  17 31.6717 18.1913   1
  -3   2 -17 24.6437 19.4245   3
   3  -2  17 -15.500 16.0199   1
  -4   2 -17 -24.824 17.2361   3
   4  -2  17 -19.082 16.3419   1
  -5   2 -17 80.0439 21.2644   3
  -6   2 -17 126.265 23.8269   3
  -7   2 -17 89.1533 24.5117   3
  -8   2 -17 29.5245 23.9879   3
  -9   2 -17 -4.0906 23.7876   3
 -10   2 -17 15.2949 24.6738   3
  -6  -1  17 23.0806 28.9944   2
  -5  -1  17 34.4775 23.1806   2
  -5  -1  17 -6.1262 21.0223   1
  -4  -1  17 64.6754 24.5005   1
  -3  -1  17 44.5280 19.5163   1
  -2  -1  17 21.2284 19.8093   1
   1   1 -17 8.00798 17.4854   3
  -1  -1  17 6.70551 18.5583   1
   0   1 -17 38.3496 18.2193   3
   0  -1  17 33.3743 17.7551   1
  -1   1 -17 146.710 21.7456   3
   1  -1  17 134.218 21.3172   1
  -2   1 -17 210.169 25.4024   3
   2  -1  17 138.042 21.3245   1
  -3   1 -17 56.0636 21.0698   3
   3  -1  17 46.2024 17.7465   1
  -4   1 -17 74.8790 21.8538   3
  -5   1 -17 13.9902 19.3961   3
  -6   1 -17 15.0618 18.8127   3
  -7   1 -17 3.36762 20.7249   3
  -8   1 -17 62.6016 24.1485   3
  -9   1 -17 59.8850 24.4041   3
 -10   1 -17 51.2479 26.5415   3
  -6   0  17 38.5780 26.0785   1
  -5   0  17 32.3010 22.7238   1
  -4   0  17 26.4959 18.8699   1
  -3   0  17 -5.6040 19.7200   1
  -2   0  17 133.048 23.4216   1
   1   0 -17 82.9124 20.3799   3
  -1   0  17 118.822 22.8959   1
   0   0 -17 26.7373 17.5806   3
   0   0  17 39.0418 18.7509   1
  -1   0 -17 49.6126 18.5848   3
   1   0  17 79.5157 19.0230   1
  -2   0 -17 26.9650 16.3155   3
   2   0  17 44.3907 16.7538   1
  -3   0 -17 61.4821 20.1220   3
   3   0  17 32.7375 16.4146   1
  -4   0 -17 61.7462 20.8640   3
  -5   0 -17 214.458 26.8581   3
  -6   0 -17 61.2410 19.8119   3
  -7   0 -17 -19.426 18.3929   3
  -8   0 -17 12.7170 20.7723   3
  -9   0 -17 8.95336 22.1601   3
 -10   0 -17 25.5550 24.5884   3
  -6   1  17 -2.5134 22.4818   1
  -5   1  17 6.21152 23.4495   1
  -4   1  17 121.102 25.4009   1
  -3   1  17 32.2065 17.9418   1
   2  -1 -17 41.1880 19.7875   3
  -2   1  17 -4.9153 16.8478   1
   1  -1 -17 20.3343 17.1534   3
  -1   1  17 -14.642 16.5677   1
   0  -1 -17 34.7017 18.5397   3
   0   1  17 28.2976 17.2290   1
  -1  -1 -17 94.0245 21.1766   3
   1   1  17 116.691 19.9864   1
  -2  -1 -17 372.179 28.3533   3
   2   1  17 396.257 26.0376   1
  -3  -1 -17 387.071 30.3684   3
  -4  -1 -17 62.4032 18.3113   3
  -5  -1 -17 43.8509 21.0059   3
  -6  -1 -17 -2.4568 18.5643   3
  -7  -1 -17 -1.7925 18.7760   3
  -8  -1 -17 -14.178 18.9970   3
  -9  -1 -17 10.2494 23.3422   3
 -10  -1 -17 -15.706 22.0690   3
  -6   2  17 57.0571 24.9913   1
  -5   2  17 9.19883 22.5262   1
  -4   2  17 -10.794 19.7203   1
   3  -2 -17 19.2821 19.0171   3
  -3   2  17 49.4682 20.8759   1
   2  -2 -17 115.620 21.7579   3
  -2   2  17 68.0903 20.3026   1
   1  -2 -17 261.936 26.3273   3
  -1   2  17 257.531 24.8721   1
   0  -2 -17 159.689 22.4727   3
   0   2  17 176.546 21.7509   1
  -1  -2 -17 121.962 21.5463   3
   1   2  17 65.2209 17.6130   1
  -2  -2 -17 -14.928 17.2361   3
  -3  -2 -17 21.8546 18.6341   3
  -4  -2 -17 30.7572 18.4913   3
  -5  -2 -17 151.389 24.5215   3
  -6  -2 -17 98.9430 22.2162   3
  -7  -2 -17 24.8623 21.2327   3
  -8  -2 -17 -11.081 18.4864   3
  -9  -2 -17 12.7655 21.7851   3
 -10  -2 -17 5.11769 23.1439   3
  -6   3  17 46.8951 24.1410   1
  -5   3  17 5.19267 21.1860   1
  -4   3  17 55.7099 22.0035   1
   3  -3 -17 71.9403 21.0847   3
  -3   3  17 70.6661 20.8545   1
   2  -3 -17 17.1498 19.6614   3
  -2   3  17 26.4339 18.7673   1
   1  -3 -17 -12.973 17.4270   3
  -1   3  17 0.18047 16.1798   1
   0  -3 -17 123.185 23.1391   3
   0   3  17 118.879 19.7276   1
  -1  -3 -17 255.807 26.5637   3
   1   3  17 250.863 22.3078   1
  -2  -3 -17 70.7365 19.5530   3
  -3  -3 -17 129.199 23.2046   3
  -4  -3 -17 31.2441 19.4817   3
  -5  -3 -17 5.74123 18.1092   3
  -6  -3 -17 21.6605 19.7074   3
  -7  -3 -17 1.76844 20.1987   3
  -8  -3 -17 27.0958 19.4084   3
  -9  -3 -17 37.9534 22.6087   3
 -10  -3 -17 22.5733 23.3786   3
  -6   4  17 49.3210 24.6827   1
  -5   4  17 21.1654 21.1283   1
   4  -4 -17 -12.538 20.5841   3
  -4   4  17 32.9734 20.2546   1
   3  -4 -17 93.4486 23.2272   3
  -3   4  17 78.1367 21.3734   1
   2  -4 -17 184.348 26.0792   3
  -2   4  17 181.849 24.0985   1
   1  -4 -17 250.783 27.4070   3
  -1   4  17 222.898 23.5472   1
   0  -4 -17 98.9491 22.1071   3
   0   4  17 117.550 18.8077   1
  -1  -4 -17 8.04488 18.4922   3
  -2  -4 -17 -3.0736 18.2571   3
  -3  -4 -17 7.12425 17.2675   3
  -4  -4 -17 63.2575 21.7945   3
  -5  -4 -17 15.2655 20.0970   3
  -6  -4 -17 28.2612 19.3300   3
  -7  -4 -17 43.8176 21.3924   3
  -8  -4 -17 3.60943 20.4936   3
  -9  -4 -17 -13.828 18.7276   3
  -6   5  17 30.8316 23.1185   1
  -5   5  17 74.5457 23.0489   1
   4  -5 -17 105.930 25.1305   3
  -4   5  17 94.4404 22.7909   1
   3  -5 -17 75.4121 23.4009   3
  -3   5  17 77.6288 21.6196   1
   2  -5 -17 -20.828 19.4052   3
  -2   5  17 2.47448 17.0791   1
   1  -5 -17 -10.034 18.7883   3
  -1   5  17 0.49702 15.6987   1
   0  -5 -17 67.7261 21.7752   3
  -1  -5 -17 85.7441 21.6715   3
  -2  -5 -17 87.5852 22.1619   3
  -3  -5 -17 28.7749 18.6827   3
  -4  -5 -17 31.8416 19.2307   3
  -5  -5 -17 -8.0096 15.7170   3
  -6  -5 -17 -15.698 17.4011   3
  -7  -5 -17 3.26790 19.5892   3
  -8  -5 -17 46.1840 21.7587   3
  -9  -5 -17 29.5169 20.5309   3
  -6   6  17 15.9016 22.5031   1
  -5   6  17 25.1936 21.4571   1
  -4   6  17 -9.2382 19.1109   1
   3  -6 -17 58.8841 23.4967   3
  -3   6  17 24.1759 18.6691   1
   2  -6 -17 8.45453 18.9888   3
  -2   6  17 22.7533 18.3023   1
   1  -6 -17 2.21782 19.3387   3
  -1   6  17 30.1624 29.2843   1
   0  -6 -17 163.300 24.3440   3
  -1  -6 -17 -20.776 15.1483   3
  -2  -6 -17 -22.858 15.2111   3
  -3  -6 -17 -3.0325 17.8495   3
  -4  -6 -17 107.212 23.0139   3
  -5  -6 -17 91.9266 21.4700   3
  -6  -6 -17 16.5163 18.9071   3
  -7  -6 -17 9.91581 19.3221   3
  -8  -6 -17 22.9887 20.7544   3
  -6   7  17 52.4130 23.6629   1
  -5   7  17 72.5158 25.8545   1
  -4   7  17 46.0005 21.9947   1
  -3   7  17 15.8725 18.3470   1
   2  -7 -17 11.0285 20.6479   3
  -2   7  17 3.85112 17.1404   1
   1  -7 -17 34.3752 19.2178   3
   0  -7 -17 105.425 21.7124   3
  -1  -7 -17 70.8635 19.6409   3
  -2  -7 -17 14.2789 16.9303   3
  -3  -7 -17 73.8881 19.3001   3
  -4  -7 -17 43.6845 19.3813   3
  -5  -7 -17 -7.5267 19.2268   3
  -6  -7 -17 -3.9754 18.1487   3
  -7  -7 -17 36.1583 19.6055   3
  -8  -7 -17 -12.452 18.9945   3
  -6   8  17 -18.171 25.2723   1
  -5   8  17 21.7621 21.1842   1
  -4   8  17 0.31413 19.6842   1
  -3   8  17 43.3870 23.7521   1
   1  -8 -17 64.7801 22.8955   3
   0  -8 -17 63.6616 21.7240   3
  -1  -8 -17 26.2379 20.3963   3
  -2  -8 -17 33.3772 19.7055   3
  -3  -8 -17 -23.882 17.6754   3
  -4  -8 -17 110.046 23.1450   3
  -5  -8 -17 90.9290 21.7277   3
  -6  -8 -17 62.4170 20.8814   3
  -7  -8 -17 24.7510 19.6430   3
  -5   9  17 86.2284 25.4266   1
  -4   9  17 61.5133 22.9471   1
   0  -9 -17 67.5347 22.9636   3
  -1  -9 -17 95.2964 22.2273   3
  -2  -9 -17 17.8298 18.8010   3
  -3  -9 -17 3.03298 19.1514   3
  -4  -9 -17 15.9197 19.4228   3
  -5  -9 -17 24.6634 19.5054   3
  -6  -9 -17 24.6172 19.3747   3
  -7  -9 -17 53.6197 23.5439   3
  -5  10  17 -20.270 21.6514   1
   0 -10 -17 72.6621 24.1258   3
  -1 -10 -17 22.6494 19.3681   3
  -2 -10 -17 -23.345 19.3104   3
  -3 -10 -17 0.78808 20.0000   3
  -4 -10 -17 27.6684 21.1514   3
  -5 -10 -17 58.8559 21.1910   3
  -6 -10 -17 -15.066 17.4414   3
  -1 -11 -17 85.8690 25.0041   3
  -2 -11 -17 76.0905 24.0212   3
  -3 -11 -17 -11.270 18.4190   3
  -4 -11 -17 23.3850 21.4961   3
  -5 -11 -17 41.6680 21.0042   3
  -1 -12 -17 -12.105 22.4915   3
  -2 -12 -17 15.9500 22.4079   3
  -3 -12 -17 -23.157 19.0802   3
  -4 -12 -17 -4.2808 19.4389   3
  -5 -12 -17 39.0781 21.2240   3
  -1 -13 -17 37.4732 25.2950   3
   1  13  17 15.6246 28.7414   5
  -2 -13 -17 3.11685 23.7080   3
  -3 -13 -17 25.7946 23.0291   3
  -4 -13 -17 -10.707 21.8716   3
  -2 -14 -17 -1.5899 24.5530   3
   2  14  17 45.0533 21.9353   5
  -3 -14 -17 -50.951 21.9240   3
  -2 -15 -17 -14.317 24.6731   3
   2  15  17 -6.8908 21.2449   5
  -3 -15 -17 66.5342 26.2419   3
   3  15  17 -24.258 20.6421   5
   4  15  17 -8.9993 22.2070   5
   3  -9  18 -5.1918 36.0788   1
   0  -8  18 -2.0437 24.3093   1
   1  -8  18 -24.147 20.5835   1
   2  -8  18 31.3618 23.1515   1
   3  -8  18 57.5017 24.2139   1
  -4   8 -18 -11.617 23.3506   3
  -5   8 -18 12.1383 24.3224   3
  -6   8 -18 48.9095 27.3795   3
  -1  -7  18 -16.254 21.5533   1
   0  -7  18 43.7743 23.6109   1
   1  -7  18 7.34109 23.2136   1
   2  -7  18 40.0093 22.9757   1
  -3   7 -18 -14.692 22.6216   3
   3  -7  18 -25.994 20.1107   1
  -4   7 -18 42.2118 25.2392   3
   4  -7  18 31.1175 23.1849   1
  -5   7 -18 44.9585 25.9501   3
  -6   7 -18 33.2133 26.0715   3
  -7   7 -18 0.45716 23.8837   3
  -2  -6  18 46.9717 24.3384   1
  -1  -6  18 1.29194 20.5292   1
   0  -6  18 33.1233 22.5833   1
   1  -6  18 -9.8915 21.1296   1
   2  -6  18 25.6539 21.1436   1
  -3   6 -18 80.5624 26.0382   3
   3  -6  18 54.2075 23.2763   1
  -4   6 -18 41.0936 22.9556   3
   4  -6  18 12.3918 20.9377   1
  -5   6 -18 -0.3775 21.8744   3
  -6   6 -18 12.2120 24.1288   3
  -7   6 -18 2.90436 25.6793   3
  -8   6 -18 15.5846 25.2235   3
  -3  -5  18 21.2501 22.5249   1
  -2  -5  18 17.2731 23.1778   1
  -1  -5  18 19.6916 21.2393   1
   0  -5  18 71.0905 22.9828   1
   1  -5  18 -7.2163 17.4914   1
  -2   5 -18 -22.889 18.9557   3
   2  -5  18 -2.1448 20.4241   1
  -3   5 -18 36.1843 21.7686   3
   3  -5  18 60.7489 22.3449   1
  -4   5 -18 7.95019 20.5490   3
   4  -5  18 -15.823 18.2307   1
  -5   5 -18 19.4427 22.0640   3
  -6   5 -18 -24.126 20.9683   3
  -7   5 -18 -5.8065 23.7533   3
  -8   5 -18 -41.360 22.4865   3
  -4  -4  18 -6.2810 30.9895   1
  -3  -4  18 42.7309 23.4232   1
  -2  -4  18 5.01906 21.8800   1
  -1  -4  18 2.79790 20.4272   1
   0  -4  18 5.41779 20.1993   1
  -1   4 -18 118.023 24.2656   3
   1  -4  18 112.171 24.5718   1
  -2   4 -18 79.0298 21.7456   3
   2  -4  18 147.681 25.5422   1
  -3   4 -18 58.3768 21.2288   3
   3  -4  18 73.4068 20.9746   1
  -4   4 -18 22.3069 20.3655   3
   4  -4  18 52.1606 20.7983   1
  -5   4 -18 9.67530 21.7417   3
  -6   4 -18 -3.4085 21.2127   3
  -7   4 -18 66.7866 24.9230   3
  -8   4 -18 59.4162 26.2979   3
  -9   4 -18 43.1679 27.0796   3
  -4  -3  18 -33.188 21.3146   1
  -3  -3  18 11.6579 21.3124   1
  -2  -3  18 26.0973 19.9559   1
  -1  -3  18 48.3711 22.5387   1
   0  -3  18 54.1448 20.9191   1
  -1   3 -18 34.5917 19.4745   3
   1  -3  18 73.1099 21.9601   1
  -2   3 -18 15.1509 19.0607   3
   2  -3  18 6.29565 19.1619   1
  -3   3 -18 -40.794 17.9245   3
   3  -3  18 -16.101 17.3771   1
  -4   3 -18 49.7945 21.4747   3
   4  -3  18 33.0205 19.2001   1
  -5   3 -18 15.2294 21.3046   3
  -6   3 -18 49.4917 22.6657   3
  -7   3 -18 36.0677 21.7138   3
  -8   3 -18 -12.860 22.3337   3
  -9   3 -18 -23.624 24.3682   3
  -5  -2  18 32.4746 24.7990   2
  -4  -2  18 7.58398 22.8468   1
  -3  -2  18 35.6188 22.3417   1
  -2  -2  18 18.3724 21.3064   1
  -1  -2  18 39.8740 21.3525   1
   0   2 -18 4.48460 16.9269   3
   0  -2  18 -3.7950 17.8853   1
  -1   2 -18 100.653 21.6476   3
   1  -2  18 118.637 21.6771   1
  -2   2 -18 76.4389 22.2712   3
   2  -2  18 50.9711 20.4379   1
  -3   2 -18 103.050 23.2935   3
   3  -2  18 115.418 21.1656   1
  -4   2 -18 52.2979 21.1761   3
   4  -2  18 102.533 31.5938   1
  -5   2 -18 -17.411 18.5079   3
  -6   2 -18 7.45568 21.2102   3
  -7   2 -18 78.4359 22.2422   3
  -8   2 -18 93.7887 26.8455   3
  -9   2 -18 23.5252 25.5562   3
  -5  -1  18 -21.341 23.3872   1
  -4  -1  18 19.8176 23.5820   1
  -3  -1  18 14.6770 18.9018   1
  -2  -1  18 99.5386 24.2349   1
  -1  -1  18 73.7685 20.9843   1
   0   1 -18 52.4290 19.1426   3
   0  -1  18 43.5322 21.0549   1
  -1   1 -18 3.39338 17.3861   3
   1  -1  18 15.3639 17.9157   1
  -2   1 -18 -10.189 16.6199   3
   2  -1  18 17.2743 17.5436   1
  -3   1 -18 30.9877 20.8588   3
   3  -1  18 18.9390 18.0850   1
  -4   1 -18 125.671 24.2034   3
  -5   1 -18 139.927 25.3452   3
  -6   1 -18 110.528 22.9718   3
  -7   1 -18 16.3956 20.9674   3
  -8   1 -18 -20.236 21.4222   3
  -9   1 -18 -2.6684 23.4812   3
 -10   1 -18 -2.6649 25.5946   3
  -5   0  18 42.7299 24.7767   1
  -4   0  18 50.6400 23.5295   1
  -3   0  18 104.748 25.0703   1
  -2   0  18 -11.232 18.9086   1
   1   0 -18 -40.940 17.0317   3
  -1   0  18 3.56976 18.1002   1
   0   0 -18 46.3369 19.4952   3
   0   0  18 8.63881 18.6711   1
  -1   0 -18 84.6380 21.6723   3
   1   0  18 87.1110 20.1129   1
  -2   0 -18 164.660 23.8717   3
   2   0  18 187.109 22.3200   1
  -3   0 -18 142.159 23.7920   3
  -4   0 -18 51.3047 20.4388   3
  -5   0 -18 -2.7093 18.5638   3
  -6   0 -18 1.18315 17.4420   3
  -7   0 -18 42.6892 21.5692   3
  -8   0 -18 29.0198 22.5402   3
  -9   0 -18 3.92499 22.7393   3
 -10   0 -18 4.85038 25.3125   3
  -5   1  18 -11.679 22.4957   1
  -4   1  18 9.03053 19.2314   1
  -3   1  18 32.2009 21.3090   1
   2  -1 -18 71.5731 20.0695   3
  -2   1  18 76.6538 22.1469   1
   1  -1 -18 96.0293 21.6429   3
  -1   1  18 161.513 23.3700   1
   0  -1 -18 62.3876 20.5960   3
   0   1  18 132.581 21.5886   1
  -1  -1 -18 61.4013 21.4830   3
   1   1  18 37.5558 18.2456   1
  -2  -1 -18 23.9018 18.2919   3
   2   1  18 6.21941 24.5539   1
  -3  -1 -18 78.7638 21.5898   3
  -4  -1 -18 24.6482 19.2141   3
  -5  -1 -18 114.819 24.0787   3
  -6  -1 -18 99.9763 22.0382   3
  -7  -1 -18 17.3584 20.6211   3
  -8  -1 -18 0.01012 20.3022   3
  -9  -1 -18 23.3560 23.9411   3
 -10  -1 -18 -2.6807 23.7575   3
  -5   2  18 9.76181 22.3946   1
  -4   2  18 63.0289 22.7412   1
  -3   2  18 41.7364 20.9754   1
   2  -2 -18 -19.388 18.3536   3
  -2   2  18 -13.064 18.2168   1
   1  -2 -18 17.1796 19.3281   3
  -1   2  18 14.9051 18.0323   1
   0  -2 -18 102.783 21.8331   3
   0   2  18 45.1452 18.5655   1
  -1  -2 -18 107.492 22.2094   3
   1   2  18 126.167 20.0009   1
  -2  -2 -18 153.289 23.4292   3
  -3  -2 -18 246.833 27.4730   3
  -4  -2 -18 13.7459 19.0229   3
  -5  -2 -18 14.0205 18.8000   3
  -6  -2 -18 22.2969 20.7591   3
  -7  -2 -18 22.5246 22.2482   3
  -8  -2 -18 0.23187 19.6443   3
  -9  -2 -18 -3.5330 20.8442   3
 -10  -2 -18 41.6899 24.8818   3
  -5   3  18 -16.155 20.5518   1
  -4   3  18 -5.9910 21.3845   1
   3  -3 -18 77.1098 23.5163   3
  -3   3  18 83.5210 22.3119   1
   2  -3 -18 164.457 25.1352   3
  -2   3  18 141.479 23.5846   1
   1  -3 -18 146.442 24.5487   3
  -1   3  18 193.043 23.2346   1
   0  -3 -18 83.6532 22.8357   3
   0   3  18 126.835 20.3206   1
  -1  -3 -18 29.8712 18.9532   3
  -2  -3 -18 -11.950 16.2293   3
  -3  -3 -18 13.5298 19.2263   3
  -4  -3 -18 107.541 22.7775   3
  -5  -3 -18 103.603 22.5618   3
  -6  -3 -18 127.340 25.5071   3
  -7  -3 -18 44.6417 22.0263   3
  -8  -3 -18 -9.3889 20.1831   3
  -9  -3 -18 -11.266 21.0966   3
 -10  -3 -18 16.1614 22.9850   3
  -5   4  18 32.8656 23.0963   1
  -4   4  18 43.3292 21.9083   1
   3  -4 -18 67.6977 23.7906   3
  -3   4  18 47.5609 22.1863   1
   2  -4 -18 9.90442 20.5288   3
  -2   4  18 8.10116 18.7329   1
   1  -4 -18 34.9855 20.9399   3
  -1   4  18 34.5276 17.6552   1
   0  -4 -18 60.7547 21.3390   3
  -1  -4 -18 9.47692 19.0961   3
  -2  -4 -18 151.987 24.2483   3
  -3  -4 -18 125.943 24.2871   3
  -4  -4 -18 38.3001 20.1520   3
  -5  -4 -18 23.1039 20.6077   3
  -6  -4 -18 10.0447 19.9571   3
  -7  -4 -18 36.2183 22.4223   3
  -8  -4 -18 29.7317 22.2420   3
  -9  -4 -18 38.5750 21.7447   3
 -10  -4 -18 -27.976 22.9887   3
  -5   5  18 -37.208 19.6323   1
   4  -5 -18 19.1471 23.3615   3
  -4   5  18 -13.101 19.5012   1
   3  -5 -18 66.5407 23.9405   3
  -3   5  18 98.2355 23.1649   1
   2  -5 -18 136.739 25.9747   3
  -2   5  18 87.7957 21.1858   1
   1  -5 -18 156.724 25.2540   3
  -1   5  18 151.743 22.2534   1
   0  -5 -18 105.122 23.2352   3
  -1  -5 -18 13.0973 19.5207   3
  -2  -5 -18 6.44633 18.7640   3
  -3  -5 -18 78.5913 20.8872   3
  -4  -5 -18 220.402 27.0416   3
  -5  -5 -18 73.1736 22.2119   3
  -6  -5 -18 21.1214 20.4327   3
  -7  -5 -18 -1.7627 19.7688   3
  -8  -5 -18 3.53569 19.7600   3
  -9  -5 -18 21.6849 21.0858   3
  -5   6  18 109.593 25.3265   1
   4  -6 -18 13.7561 24.5362   3
  -4   6  18 6.55332 21.0228   1
   3  -6 -18 58.9459 23.7143   3
  -3   6  18 5.55944 19.3389   1
   2  -6 -18 0.94209 20.8670   3
  -2   6  18 -10.867 17.1040   1
   1  -6 -18 44.0317 21.6760   3
   0  -6 -18 64.8994 22.8219   3
  -1  -6 -18 128.401 23.4889   3
  -2  -6 -18 119.784 23.6487   3
  -3  -6 -18 30.0983 20.5048   3
  -4  -6 -18 23.1447 19.4030   3
  -5  -6 -18 37.2430 20.8697   3
  -6  -6 -18 13.5236 19.7113   3
  -7  -6 -18 15.6909 20.6318   3
  -8  -6 -18 95.4639 24.5515   3
  -9  -6 -18 46.1032 32.8256   3
  -5   7  18 11.5376 23.4158   1
  -4   7  18 37.9694 21.3271   1
   3  -7 -18 64.1749 24.2119   3
  -3   7  18 51.3768 20.4275   1
   2  -7 -18 110.577 26.2554   3
   1  -7 -18 109.277 22.6999   3
   0  -7 -18 42.3563 22.2582   3
  -1  -7 -18 -6.6151 18.3026   3
  -2  -7 -18 -6.6065 19.7588   3
  -3  -7 -18 92.3592 21.0673   3
  -4  -7 -18 76.6349 21.8622   3
  -5  -7 -18 59.4365 20.9219   3
  -6  -7 -18 11.8313 19.7675   3
  -7  -7 -18 -0.3866 19.0040   3
  -8  -7 -18 -8.2252 20.3465   3
  -5   8  18 -3.2008 21.1582   1
  -4   8  18 68.1182 26.8540   1
   2  -8 -18 2.95757 22.2622   3
   1  -8 -18 16.7521 20.9136   3
   0  -8 -18 93.6240 25.0002   3
  -1  -8 -18 92.4879 23.1740   3
  -2  -8 -18 34.3816 21.7963   3
  -3  -8 -18 15.6738 20.6119   3
  -4  -8 -18 22.3562 17.5631   3
  -5  -8 -18 22.8771 19.5741   3
  -6  -8 -18 35.7673 20.6042   3
  -7  -8 -18 40.6039 21.0657   3
  -5   9  18 -17.103 22.1128   1
   1  -9 -18 71.6128 24.2633   3
   0  -9 -18 22.3284 21.7117   3
  -1  -9 -18 34.1076 21.9553   3
  -2  -9 -18 -31.302 18.7217   3
  -3  -9 -18 10.5594 19.8445   3
  -4  -9 -18 8.01774 20.9397   3
  -5  -9 -18 110.625 24.6238   3
  -6  -9 -18 12.4131 20.4490   3
   0 -10 -18 -3.2587 21.0345   3
  -1 -10 -18 50.8931 23.8485   3
  -2 -10 -18 42.8835 22.9932   3
  -3 -10 -18 -10.274 19.2466   3
  -4 -10 -18 -3.1250 20.1276   3
  -5 -10 -18 15.6834 20.8445   3
  -6 -10 -18 33.3256 22.0024   3
   0 -11 -18 24.8737 24.3556   3
  -1 -11 -18 -0.1554 21.7511   3
  -2 -11 -18 33.2658 21.9873   3
  -3 -11 -18 57.6212 23.7830   3
  -4 -11 -18 -17.714 21.3594   3
  -5 -11 -18 42.1827 22.2291   3
  -6 -11 -18 16.9221 23.8707   3
   0 -12 -18 -0.2629 23.7796   3
  -1 -12 -18 50.8919 26.4428   3
  -2 -12 -18 43.4839 24.0895   3
  -3 -12 -18 20.6475 22.1930   3
  -4 -12 -18 -12.584 21.3238   3
  -5 -12 -18 -30.254 19.3753   3
  -1 -13 -18 -52.573 20.4577   3
  -2 -13 -18 33.6471 24.9921   3
  -3 -13 -18 29.5018 23.7660   3
  -4 -13 -18 -0.4138 21.2198   3
  -1 -14 -18 -25.812 23.7879   3
  -2 -14 -18 7.36343 24.4337   3
   2  14  18 21.3041 22.1667   5
  -3 -14 -18 45.3267 25.8092   3
  -4 -14 -18 22.3038 23.8138   3
   3  -8  19 1.51380 26.0788   1
  -4   8 -19 -2.1129 25.3130   3
   4  -8  19 -0.4587 25.4476   1
   0  -7  19 16.8842 24.3299   1
   1  -7  19 62.1926 25.1019   1
   2  -7  19 -4.7209 21.2288   1
   3  -7  19 -29.977 21.5205   1
  -4   7 -19 -16.491 23.6565   3
   4  -7  19 -6.8613 22.2251   1
  -5   7 -19 7.25397 25.1889   3
  -6   7 -19 2.87627 25.3096   3
  -1  -6  19 39.4899 24.1297   1
   0  -6  19 21.8538 22.7925   1
   1  -6  19 25.3614 22.9585   1
   2  -6  19 22.2737 21.9058   1
  -3   6 -19 -33.161 22.1606   3
   3  -6  19 -0.5446 20.1418   1
  -4   6 -19 18.0438 23.0047   3
   4  -6  19 8.87461 22.3944   1
  -5   6 -19 93.3801 26.4351   3
   5  -6  19 45.6477 22.8584   1
  -6   6 -19 50.2482 26.6686   3
  -7   6 -19 3.96395 25.0619   3
  -2  -5  19 31.7003 24.2605   1
  -1  -5  19 32.3620 23.7196   1
   0  -5  19 17.9647 22.0608   1
   1  -5  19 11.8508 22.0268   1
  -2   5 -19 -24.308 21.2666   3
   2  -5  19 26.6480 21.7027   1
  -3   5 -19 130.656 26.4200   3
   3  -5  19 119.923 25.4498   1
  -4   5 -19 48.8060 24.4465   3
   4  -5  19 56.9877 23.2158   1
  -5   5 -19 5.81650 22.5958   3
   5  -5  19 31.6521 21.3833   1
  -6   5 -19 58.3489 24.6913   3
  -7   5 -19 28.9934 25.7269   3
  -8   5 -19 -36.627 23.4343   3
  -3  -4  19 50.4785 28.0158   1
  -2  -4  19 -18.812 22.4476   1
  -1  -4  19 30.3172 24.0312   1
   0  -4  19 -5.0800 20.2752   1
   1  -4  19 1.69987 21.3782   1
  -2   4 -19 -3.6279 18.9935   3
   2  -4  19 -27.597 19.2874   1
  -3   4 -19 -9.1760 20.3882   3
   3  -4  19 48.4667 21.4426   1
  -4   4 -19 98.5364 25.2739   3
   4  -4  19 69.5300 23.0189   1
  -5   4 -19 45.2176 23.7830   3
  -6   4 -19 12.8245 22.8569   3
  -7   4 -19 39.8206 25.9268   3
  -8   4 -19 -1.3179 23.8773   3
  -3  -3  19 4.60806 23.4742   1
  -2  -3  19 -22.059 20.4707   1
  -1  -3  19 23.4259 22.8351   1
   0  -3  19 -6.5662 19.3874   1
  -1   3 -19 94.3302 22.2603   3
   1  -3  19 113.272 24.5396   1
  -2   3 -19 97.9959 23.8866   3
   2  -3  19 14.2837 19.8449   1
  -3   3 -19 97.9512 24.4419   3
   3  -3  19 90.6660 22.4984   1
  -4   3 -19 33.5825 21.0659   3
   4  -3  19 59.7692 21.6130   1
  -5   3 -19 39.2600 22.0412   3
  -6   3 -19 29.3779 22.2478   3
  -7   3 -19 40.9768 25.2376   3
  -8   3 -19 105.511 28.0851   3
  -9   3 -19 13.8857 27.3762   3
  -4  -2  19 -13.392 26.8858   1
  -3  -2  19 -13.747 21.7875   1
  -2  -2  19 16.8775 21.8667   1
  -1  -2  19 39.2639 22.2612   1
   0   2 -19 71.1934 23.3287   3
   0  -2  19 52.5410 22.6978   1
  -1   2 -19 2.39812 19.0560   3
   1  -2  19 28.4485 20.1149   1
  -2   2 -19 1.16068 19.3767   3
   2  -2  19 -5.3832 18.3311   1
  -3   2 -19 43.8899 21.5721   3
   3  -2  19 -15.134 17.6725   1
  -4   2 -19 105.545 24.7070   3
  -5   2 -19 98.1849 23.9539   3
  -6   2 -19 58.0723 24.8553   3
  -7   2 -19 51.8934 24.9453   3
  -8   2 -19 18.9407 20.9213   3
  -9   2 -19 14.8698 24.6171   3
  -4  -1  19 37.8303 24.8416   1
  -3  -1  19 -14.049 20.9672   1
  -2  -1  19 -38.297 17.8407   1
  -1  -1  19 -13.528 18.2479   1
   0   1 -19 15.9347 19.7979   3
   0  -1  19 -15.845 18.5708   1
  -1   1 -19 61.8372 21.3537   3
   1  -1  19 45.6642 20.4993   1
  -2   1 -19 115.878 23.5352   3
   2  -1  19 80.3805 20.4687   1
  -3   1 -19 64.0019 22.4194   3
  -4   1 -19 12.9035 20.2992   3
  -5   1 -19 15.7857 18.4541   3
  -6   1 -19 29.7412 20.4916   3
  -7   1 -19 33.8289 23.1672   3
  -8   1 -19 51.0652 25.5238   3
  -9   1 -19 33.2279 26.1543   3
  -4   0  19 9.94705 21.8828   1
  -3   0  19 32.2974 23.1300   1
  -2   0  19 44.4192 21.7546   1
   1   0 -19 74.1319 23.1017   3
  -1   0  19 63.6003 21.9280   1
   0   0 -19 5.25601 19.0165   3
   0   0  19 13.1971 18.6487   1
  -1   0 -19 18.2849 19.5566   3
   1   0  19 -13.632 17.6699   1
  -2   0 -19 16.4537 17.9429   3
   2   0  19 11.1658 16.9246   1
  -3   0 -19 26.0299 20.1316   3
  -4   0 -19 99.5882 23.2667   3
  -5   0 -19 171.007 27.1643   3
  -6   0 -19 74.5152 23.1638   3
  -7   0 -19 2.00383 21.0355   3
  -8   0 -19 -19.410 22.1613   3
  -9   0 -19 49.9942 25.0156   3
  -4   1  19 34.5628 23.5410   1
  -3   1  19 18.3641 19.9693   1
  -2   1  19 15.2132 20.5445   1
   1  -1 -19 4.00220 19.0309   3
  -1   1  19 14.1293 18.7885   1
   0  -1 -19 60.5366 20.8641   3
   0   1  19 73.5396 20.9936   1
  -1  -1 -19 63.6479 22.1948   3
   1   1  19 83.0817 20.7389   1
  -2  -1 -19 197.318 27.5333   3
  -3  -1 -19 118.680 23.3673   3
  -4  -1 -19 14.1074 20.2145   3
  -5  -1 -19 2.76747 19.9682   3
  -6  -1 -19 22.7858 22.4337   3
  -7  -1 -19 39.7856 22.6975   3
  -8  -1 -19 52.3144 24.5292   3
  -9  -1 -19 27.4829 24.8902   3
  -5   2  19 -3.9060 26.8497   1
  -4   2  19 3.85353 21.6190   1
  -3   2  19 20.4489 20.9669   1
   2  -2 -19 43.1243 21.1100   3
  -2   2  19 -0.6598 18.8632   1
   1  -2 -19 97.8851 22.9115   3
  -1   2  19 87.7180 21.7476   1
   0  -2 -19 115.833 23.9417   3
   0   2  19 131.892 21.8876   1
  -1  -2 -19 -1.0382 18.8661   3
  -2  -2 -19 20.5644 20.2820   3
  -3  -2 -19 79.3123 23.1981   3
  -4  -2 -19 88.4685 20.2620   3
  -5  -2 -19 30.3364 21.0059   3
  -6  -2 -19 66.2123 23.6675   3
  -7  -2 -19 66.2282 24.3374   3
  -8  -2 -19 24.4888 21.7365   3
  -9  -2 -19 -4.1050 21.8848   3
  -5   3  19 28.8528 23.5575   1
  -4   3  19 67.9487 25.4358   1
  -3   3  19 11.7948 21.7911   1
   2  -3 -19 25.5044 21.5260   3
  -2   3  19 58.5500 21.2223   1
   1  -3 -19 21.6467 20.3856   3
  -1   3  19 7.27083 17.5007   1
   0  -3 -19 79.8864 23.1024   3
   0   3  19 86.2977 20.9395   1
  -1  -3 -19 131.888 23.9018   3
  -2  -3 -19 101.913 23.0514   3
  -3  -3 -19 77.7021 20.6239   3
  -4  -3 -19 19.1292 18.1099   3
  -5  -3 -19 -4.7471 19.2792   3
  -6  -3 -19 49.9038 23.3680   3
  -7  -3 -19 5.93562 22.3451   3
  -8  -3 -19 63.1684 22.9018   3
  -9  -3 -19 10.8170 23.5040   3
  -5   4  19 -15.332 22.2894   1
  -4   4  19 -20.198 20.9605   1
   3  -4 -19 50.2253 23.1993   3
  -3   4  19 -6.8612 19.0606   1
   2  -4 -19 19.8962 22.0134   3
  -2   4  19 82.7073 22.9076   1
   1  -4 -19 120.788 25.0011   3
  -1   4  19 114.487 21.6391   1
   0  -4 -19 48.9041 21.3032   3
  -1  -4 -19 44.0776 20.2950   3
  -2  -4 -19 -6.7613 19.3317   3
  -3  -4 -19 86.6817 21.8707   3
  -4  -4 -19 87.7011 23.5548   3
  -5  -4 -19 46.7348 19.5503   3
  -6  -4 -19 78.1091 23.0349   3
  -7  -4 -19 30.1002 21.9468   3
  -8  -4 -19 -17.847 21.1573   3
  -9  -4 -19 -0.2234 21.4029   3
  -5   5  19 38.7278 24.6104   1
   4  -5 -19 51.4985 27.5684   3
  -4   5  19 24.9891 21.2481   1
   3  -5 -19 -11.382 22.8406   3
  -3   5  19 21.4914 20.7300   1
   2  -5 -19 1.12203 21.2612   3
  -2   5  19 7.01975 18.3001   1
   1  -5 -19 -15.303 19.6849   3
   0  -5 -19 59.7303 20.3504   3
  -1  -5 -19 131.842 23.5034   3
  -2  -5 -19 64.1097 20.0133   3
  -3  -5 -19 -20.722 18.8845   3
  -4  -5 -19 9.16264 19.2121   3
  -5  -5 -19 -22.778 18.6795   3
  -6  -5 -19 18.6057 20.9200   3
  -7  -5 -19 55.5137 24.0433   3
  -8  -5 -19 51.2470 23.6144   3
  -9  -5 -19 15.7120 21.6913   3
  -5   6  19 -38.175 20.7332   1
   4  -6 -19 -9.0751 23.2565   3
  -4   6  19 -30.826 19.9197   1
   3  -6 -19 11.0766 23.9949   3
  -3   6  19 -29.483 19.2242   1
   2  -6 -19 131.754 27.9552   3
   1  -6 -19 83.1909 24.4569   3
   0  -6 -19 62.7267 23.3136   3
  -1  -6 -19 42.9571 21.6986   3
  -2  -6 -19 2.96570 19.6548   3
  -3  -6 -19 66.0947 22.3889   3
  -4  -6 -19 91.5946 21.6358   3
  -5  -6 -19 93.6396 23.5004   3
  -6  -6 -19 -22.100 18.9718   3
  -7  -6 -19 -43.866 18.9723   3
  -8  -6 -19 7.97958 22.1429   3
  -9  -6 -19 12.1069 22.1890   3
   5  -7 -19 67.9825 28.3505   3
  -5   7  19 67.3094 30.1255   1
   4  -7 -19 25.0706 25.6797   3
  -4   7  19 -14.392 19.6729   1
   3  -7 -19 4.48947 22.9992   3
  -3   7  19 25.6642 22.8356   1
   2  -7 -19 -17.798 21.4754   3
   1  -7 -19 41.5966 22.7952   3
   0  -7 -19 88.2533 22.1983   3
  -1  -7 -19 88.9322 23.3852   3
  -2  -7 -19 31.4540 20.9104   3
  -3  -7 -19 24.7423 18.8367   3
  -4  -7 -19 -7.8805 20.3648   3
  -5  -7 -19 4.22791 19.8881   3
  -6  -7 -19 35.7789 21.4115   3
  -7  -7 -19 55.9647 23.8774   3
  -8  -7 -19 28.5578 22.7085   3
   4  -8 -19 4.54785 25.4608   3
  -4   8  19 -8.9595 25.3261   1
   3  -8 -19 37.5979 24.8812   3
   2  -8 -19 178.749 30.5824   3
   1  -8 -19 50.3084 23.9881   3
   0  -8 -19 20.7305 21.6577   3
  -1  -8 -19 -40.527 16.4909   3
  -2  -8 -19 -8.5109 17.8172   3
  -3  -8 -19 -19.981 18.6279   3
  -4  -8 -19 75.8274 23.3857   3
  -5  -8 -19 96.7592 24.5604   3
  -6  -8 -19 23.8360 20.6443   3
  -7  -8 -19 10.4221 21.2627   3
  -8  -8 -19 8.57998 22.3277   3
   2  -9 -19 3.07767 22.9691   3
   1  -9 -19 11.5617 23.8161   3
   0  -9 -19 93.2547 25.8433   3
  -1  -9 -19 125.951 27.5800   3
  -2  -9 -19 51.5454 23.6579   3
  -3  -9 -19 23.6336 22.3039   3
  -4  -9 -19 -25.349 18.2857   3
  -5  -9 -19 76.5019 24.0630   3
  -6  -9 -19 -8.1913 20.1651   3
  -7  -9 -19 26.8092 22.2096   3
   2 -10 -19 19.0061 24.2401   3
   1 -10 -19 43.2808 25.5467   3
   0 -10 -19 14.4342 24.0532   3
  -1 -10 -19 12.9038 23.4220   3
  -2 -10 -19 -20.181 21.0135   3
  -3 -10 -19 65.7287 23.8776   3
  -4 -10 -19 52.0647 23.0332   3
  -5 -10 -19 16.6844 22.0451   3
  -6 -10 -19 -43.956 20.3931   3
   1 -11 -19 42.0573 26.2276   3
   0 -11 -19 19.3486 24.6061   3
  -1 -11 -19 87.9369 27.0586   3
  -2 -11 -19 4.67777 23.2732   3
  -3 -11 -19 0.70683 22.7450   3
  -4 -11 -19 8.03018 22.5640   3
  -5 -11 -19 -3.1671 21.8455   3
  -6 -11 -19 2.64665 21.8362   3
   0 -12 -19 21.7709 25.3033   3
  -1 -12 -19 22.5913 25.6743   3
  -2 -12 -19 32.6910 25.1809   3
  -3 -12 -19 -14.168 22.7202   3
  -4 -12 -19 12.3339 23.3348   3
  -5 -12 -19 82.0297 25.3218   3
   0 -13 -19 2.98996 25.2228   3
  -1 -13 -19 -7.9408 24.4507   3
  -2 -13 -19 18.7304 24.9171   3
  -3 -13 -19 13.7491 24.0587   3
  -4 -13 -19 0.08182 24.2784   3
  -1 -14 -19 -0.3232 24.3248   3
  -2 -14 -19 61.7580 28.4522   3
  -3 -14 -19 2.14050 23.4999   3
   3  -7  20 -22.893 25.7923   1
  -4   7 -20 -5.7046 25.8084   3
   4  -7  20 63.9044 27.0282   1
   1  -6  20 59.0199 25.1155   1
   2  -6  20 50.2257 25.2704   1
  -3   6 -20 32.7121 25.0268   3
   3  -6  20 8.40867 22.6602   1
  -4   6 -20 -8.1113 23.8182   3
   4  -6  20 6.33826 21.7300   1
  -5   6 -20 30.3709 24.4999   3
   5  -6  20 -18.341 22.8190   1
  -6   6 -20 -31.685 23.8767   3
  -1  -5  20 48.4413 25.9283   1
   0  -5  20 26.2373 22.7827   1
   1  -5  20 20.1869 23.6030   1
   2  -5  20 -7.9872 22.2738   1
  -3   5 -20 5.27308 22.6883   3
   3  -5  20 34.9189 23.0530   1
  -4   5 -20 48.0070 25.5222   3
   4  -5  20 48.3456 23.2234   1
  -5   5 -20 -23.325 23.4378   3
  -6   5 -20 42.1011 25.2930   3
  -7   5 -20 -41.958 24.0336   3
  -1  -4  20 -0.2028 23.3360   1
   0  -4  20 21.9732 21.8600   1
   1  -4  20 62.0882 23.5919   1
  -2   4 -20 50.8144 22.4997   3
   2  -4  20 46.9458 23.3445   1
  -3   4 -20 20.9653 22.1960   3
   3  -4  20 11.7930 21.5778   1
  -4   4 -20 -37.840 19.5721   3
   4  -4  20 -10.299 21.0191   1
  -5   4 -20 35.1392 23.6743   3
  -6   4 -20 12.1370 25.1495   3
  -7   4 -20 27.8991 25.2320   3
  -2  -3  20 65.5561 24.9732   1
  -1  -3  20 80.8796 25.6648   1
   0  -3  20 60.8870 24.5244   1
  -1   3 -20 -27.022 20.9498   3
   1  -3  20 39.9025 22.6404   1
  -2   3 -20 0.30072 20.5778   3
   2  -3  20 51.5873 22.3297   1
  -3   3 -20 -33.586 19.8425   3
   3  -3  20 -5.1429 20.6326   1
  -4   3 -20 5.62279 21.4539   3
  -5   3 -20 39.5248 22.7278   3
  -6   3 -20 35.6655 22.9255   3
  -7   3 -20 39.8246 25.9777   3
  -8   3 -20 49.0055 24.3831   3
  -3  -2  20 -14.056 20.5584   1
  -2  -2  20 34.6499 22.5449   1
  -1  -2  20 1.66846 19.9953   1
   0  -2  20 51.3974 23.6371   1
  -1   2 -20 44.4258 21.7951   3
   1  -2  20 49.2824 22.7786   1
  -2   2 -20 37.0420 21.6986   3
   2  -2  20 10.2355 19.2178   1
  -3   2 -20 9.04041 20.8037   3
   3  -2  20 0.69094 29.2878   1
  -4   2 -20 92.9309 24.5522   3
  -5   2 -20 29.0935 22.0898   3
  -6   2 -20 -13.033 21.3972   3
  -7   2 -20 70.1154 27.0134   3
  -8   2 -20 40.1106 26.5173   3
  -3  -1  20 86.6744 26.1766   1
  -2  -1  20 120.868 26.3319   1
  -1  -1  20 98.1616 24.4208   1
   0   1 -20 18.6138 19.7039   3
   0  -1  20 4.75357 21.1711   1
  -1   1 -20 -3.8150 19.6421   3
   1  -1  20 -2.5275 19.6491   1
  -2   1 -20 38.5903 21.3053   3
   2  -1  20 12.9685 18.6247   1
  -3   1 -20 21.5334 21.1229   3
  -4   1 -20 138.898 25.5271   3
  -5   1 -20 141.440 27.1961   3
  -6   1 -20 67.1987 24.0133   3
  -7   1 -20 33.4936 23.3778   3
  -8   1 -20 -12.011 23.2974   3
  -9   1 -20 13.5032 25.1026   3
  -3   0  20 -18.101 22.3126   1
  -2   0  20 39.9464 22.6180   1
  -1   0  20 8.64960 20.8903   1
   0   0 -20 -9.4059 19.4135   3
   0   0  20 3.25725 19.9341   1
  -1   0 -20 101.492 23.8559   3
   1   0  20 28.7522 19.6360   1
  -2   0 -20 132.411 24.3715   3
  -3   0 -20 66.1096 22.6143   3
  -4   0 -20 42.5056 22.9241   3
  -5   0 -20 -11.460 20.8527   3
  -6   0 -20 -6.4617 20.7406   3
  -7   0 -20 9.29928 22.1481   3
  -8   0 -20 46.3653 25.6494   3
  -9   0 -20 17.6662 26.0296   3
  -4   1  20 15.8271 24.0241   1
  -3   1  20 14.7048 21.4309   1
  -2   1  20 22.7071 22.2020   1
   1  -1 -20 51.4933 22.4846   3
  -1   1  20 112.813 23.5127   1
   0  -1 -20 62.2062 24.3318   3
   0   1  20 45.5750 21.1780   1
  -1  -1 -20 9.78948 20.2408   3
   1   1  20 31.8386 31.2170   1
  -2  -1 -20 -1.8654 18.7742   3
  -3  -1 -20 64.2612 21.5253   3
  -4  -1 -20 47.0599 19.8744   3
  -5  -1 -20 91.1967 24.4990   3
  -6  -1 -20 30.5997 22.2602   3
  -7  -1 -20 -11.554 20.0532   3
  -8  -1 -20 -10.965 22.7174   3
  -9  -1 -20 10.1786 25.0359   3
  -4   2  20 8.63329 24.0408   1
  -3   2  20 23.5130 22.7252   1
   2  -2 -20 -5.3340 23.1352   3
  -2   2  20 -6.4807 20.2099   1
   1  -2 -20 47.3110 21.4683   3
  -1   2  20 47.3221 21.3741   1
   0  -2 -20 15.8581 20.9369   3
   0   2  20 21.7415 19.2186   1
  -1  -2 -20 107.531 24.3318   3
  -2  -2 -20 84.1010 23.2053   3
  -3  -2 -20 59.8113 23.2340   3
  -4  -2 -20 -3.4119 19.6568   3
  -5  -2 -20 -23.994 19.8985   3
  -6  -2 -20 13.9724 22.5518   3
  -7  -2 -20 87.5741 25.5665   3
  -8  -2 -20 72.9230 24.8939   3
  -9  -2 -20 29.2261 25.2537   3
  -4   3  20 9.15120 23.4732   1
  -3   3  20 39.2643 23.4279   1
   2  -3 -20 99.0682 25.9145   3
  -2   3  20 40.6919 22.3059   1
   1  -3 -20 93.1392 25.0110   3
  -1   3  20 18.4055 19.6650   1
   0  -3 -20 3.55211 20.1729   3
  -1  -3 -20 -17.371 20.1585   3
  -2  -3 -20 24.1983 21.2912   3
  -3  -3 -20 74.8603 23.4752   3
  -4  -3 -20 47.8699 21.8356   3
  -5  -3 -20 83.2964 23.7290   3
  -6  -3 -20 15.8180 21.7761   3
  -7  -3 -20 7.35878 21.7327   3
  -8  -3 -20 4.36525 20.2946   3
  -9  -3 -20 12.9738 24.0954   3
  -4   4  20 -21.103 21.4010   1
   3  -4 -20 3.26953 23.3700   3
  -3   4  20 -1.0735 20.3484   1
   2  -4 -20 19.3662 22.7968   3
  -2   4  20 3.03679 20.7345   1
   1  -4 -20 5.01150 21.7355   3
   0  -4 -20 77.6862 23.2808   3
  -1  -4 -20 95.4630 23.7263   3
  -2  -4 -20 47.8055 21.8440   3
  -3  -4 -20 62.4056 22.8939   3
  -4  -4 -20 -24.396 19.6262   3
  -5  -4 -20 0.04573 20.5507   3
  -6  -4 -20 27.7155 21.9571   3
  -7  -4 -20 47.4148 24.0398   3
  -8  -4 -20 28.0024 23.3383   3
  -9  -4 -20 34.1335 22.6778   3
  -4   5  20 -34.132 20.4525   1
   3  -5 -20 26.6060 23.7524   3
  -3   5  20 20.9737 21.7315   1
   2  -5 -20 -3.1136 22.8426   3
  -2   5  20 43.9681 23.4503   1
   1  -5 -20 17.0841 22.9653   3
   0  -5 -20 48.3086 22.7927   3
  -1  -5 -20 21.1366 21.4858   3
  -2  -5 -20 29.8815 21.1365   3
  -3  -5 -20 102.894 24.9249   3
  -4  -5 -20 105.631 24.6354   3
  -5  -5 -20 41.6501 23.1196   3
  -6  -5 -20 13.4608 21.8388   3
  -7  -5 -20 -33.015 20.2214   3
  -8  -5 -20 30.7310 23.1503   3
  -9  -5 -20 37.6190 23.5746   3
   4  -6 -20 -7.9225 24.5680   3
  -4   6  20 23.5579 22.7257   1
   3  -6 -20 -18.458 23.6948   3
  -3   6  20 -0.0812 19.4825   1
   2  -6 -20 -19.565 21.6803   3
   1  -6 -20 -27.797 20.9418   3
   0  -6 -20 39.9699 20.9757   3
  -1  -6 -20 128.645 26.3479   3
  -2  -6 -20 30.1920 21.5502   3
  -3  -6 -20 25.8351 22.1376   3
  -4  -6 -20 41.0785 23.3231   3
  -5  -6 -20 11.5733 19.1615   3
  -6  -6 -20 -5.3158 20.0303   3
  -7  -6 -20 28.5889 22.7378   3
  -8  -6 -20 30.1532 23.7039   3
  -9  -6 -20 32.3883 23.5466   3
   4  -7 -20 16.6404 26.7293   3
  -4   7  20 -31.718 20.2643   1
   3  -7 -20 10.2065 25.0028   3
   2  -7 -20 33.7263 25.0484   3
   1  -7 -20 8.66221 24.2633   3
   0  -7 -20 44.0650 25.0077   3
  -1  -7 -20 36.3506 21.3582   3
  -2  -7 -20 18.6150 21.1441   3
  -3  -7 -20 45.9012 20.4138   3
  -4  -7 -20 48.6262 22.5177   3
  -5  -7 -20 17.5405 22.1558   3
  -6  -7 -20 33.9345 22.8170   3
  -7  -7 -20 24.7490 21.5759   3
  -8  -7 -20 -23.263 22.0869   3
   3  -8 -20 53.2673 27.1738   3
   2  -8 -20 10.6682 24.3174   3
   1  -8 -20 59.5903 26.3690   3
   0  -8 -20 93.1546 26.0056   3
  -1  -8 -20 111.049 23.8141   3
  -2  -8 -20 74.6434 24.8990   3
  -3  -8 -20 61.4736 21.4500   3
  -4  -8 -20 -1.3937 20.9937   3
  -5  -8 -20 -18.176 19.6970   3
  -6  -8 -20 -14.207 20.6253   3
  -7  -8 -20 -3.9878 20.0227   3
  -8  -8 -20 61.2820 25.3693   3
   3  -9 -20 67.3656 28.4391   3
   2  -9 -20 2.88774 24.0860   3
   1  -9 -20 68.4647 25.1483   3
   0  -9 -20 8.04741 23.9935   3
  -1  -9 -20 -11.480 22.6840   3
  -2  -9 -20 -22.859 18.5701   3
  -3  -9 -20 3.76469 22.6153   3
  -4  -9 -20 51.0692 22.9465   3
  -5  -9 -20 81.1283 24.8096   3
  -6  -9 -20 -0.4093 22.0380   3
  -7  -9 -20 -34.048 20.6944   3
   3 -10 -20 63.5059 27.7771   3
   2 -10 -20 -21.350 23.0314   3
   1 -10 -20 4.30317 23.0431   3
   0 -10 -20 41.8097 25.6706   3
  -1 -10 -20 115.125 28.3762   3
  -2 -10 -20 67.5924 25.8152   3
  -3 -10 -20 44.5669 25.4949   3
  -4 -10 -20 13.7015 23.1912   3
  -5 -10 -20 -13.983 21.8947   3
  -6 -10 -20 27.4871 23.7311   3
  -7 -10 -20 28.1043 22.9687   3
   2 -11 -20 34.3437 27.1538   3
   1 -11 -20 38.8502 26.8133   3
   0 -11 -20 59.3244 26.3752   3
  -1 -11 -20 -6.6659 23.6612   3
  -2 -11 -20 53.7546 26.3789   3
  -3 -11 -20 60.2592 25.5750   3
  -4 -11 -20 -1.2337 22.7653   3
  -5 -11 -20 -17.692 20.8452   3
  -6 -11 -20 24.1080 22.9270   3
   1 -12 -20 5.24159 25.8012   3
   0 -12 -20 5.34098 25.4487   3
  -1 -12 -20 89.0648 29.3766   3
  -2 -12 -20 81.5646 27.0859   3
  -3 -12 -20 5.78310 24.9992   3
  -4 -12 -20 14.3062 24.5972   3
  -5 -12 -20 26.8310 23.2029   3
  -1 -13 -20 -4.2982 24.5987   3
  -2 -13 -20 22.1495 26.7082   3
  -3 -13 -20 17.1027 26.4720   3
   3  -6  21 -11.082 23.9380   1
   1  -5  21 81.1883 25.5953   1
   2  -5  21 17.1083 24.3493   1
  -3   5 -21 39.6633 25.5193   3
   3  -5  21 34.8206 25.0653   1
  -4   5 -21 -10.121 24.7693   3
   4  -5  21 30.2035 24.1309   1
  -5   5 -21 34.7407 27.0557   3
   0  -4  21 119.077 27.6252   1
   1  -4  21 -16.180 20.9148   1
  -2   4 -21 2.19418 31.2409   3
   2  -4  21 14.3777 23.4010   1
  -3   4 -21 4.99998 23.4146   3
   3  -4  21 41.2755 24.0246   1
  -4   4 -21 41.3179 25.9329   3
  -5   4 -21 48.4163 26.0550   3
  -6   4 -21 27.8339 26.5267   3
  -1  -3  21 2.69943 22.1559   1
   0  -3  21 19.8362 24.7333   1
   1  -3  21 34.3239 23.0081   1
  -2   3 -21 32.3468 23.7454   3
   2  -3  21 59.4278 23.6101   1
  -3   3 -21 11.4044 22.0304   3
   3  -3  21 8.77273 26.3179   1
  -4   3 -21 49.0767 24.7881   3
  -5   3 -21 14.0404 23.9713   3
  -6   3 -21 36.1525 25.9197   3
  -7   3 -21 81.6678 28.4661   3
  -2  -2  21 61.1860 28.3830   1
  -1  -2  21 55.7302 24.3522   1
   0  -2  21 11.9329 23.3028   1
  -1   2 -21 -13.523 20.4455   3
   1  -2  21 10.5460 22.5066   1
  -2   2 -21 3.06110 21.3945   3
   2  -2  21 18.0971 21.7720   1
  -3   2 -21 28.4436 22.0546   3
  -4   2 -21 57.9007 24.8416   3
  -5   2 -21 -5.1930 20.7536   3
  -6   2 -21 38.0970 23.6585   3
  -7   2 -21 -7.0325 23.0906   3
  -2  -1  21 41.6609 23.8297   1
  -1  -1  21 32.0021 22.5871   1
   0  -1  21 7.52659 21.0539   1
  -1   1 -21 52.9398 23.4698   3
   1  -1  21 48.6543 23.1645   1
  -2   1 -21 36.0028 22.6871   3
  -3   1 -21 -14.796 19.6837   3
  -4   1 -21 10.4674 22.5577   3
  -5   1 -21 9.27790 22.3922   3
  -6   1 -21 -19.412 20.2488   3
  -7   1 -21 53.0100 24.4312   3
  -8   1 -21 29.1059 26.2830   3
  -3   0  21 -20.527 33.3773   1
  -2   0  21 64.6694 24.4415   1
  -1   0  21 36.9902 21.8312   1
   0   0 -21 5.81186 21.1346   3
   0   0  21 21.2955 21.7093   1
  -1   0 -21 3.78677 20.2407   3
   1   0  21 24.5691 20.8987   1
  -2   0 -21 31.9202 22.1491   3
  -3   0 -21 85.6608 24.1921   3
  -4   0 -21 -26.766 19.6789   3
  -5   0 -21 36.1857 24.1924   3
  -6   0 -21 25.9442 22.5603   3
  -7   0 -21 12.2715 22.9033   3
  -8   0 -21 -19.416 23.7029   3
  -3   1  21 -24.815 22.0524   1
  -2   1  21 4.70522 21.8489   1
   1  -1 -21 0.81499 22.9035   3
  -1   1  21 32.6390 22.8340   1
   0  -1 -21 42.0304 23.6198   3
   0   1  21 46.7157 20.8932   1
  -1  -1 -21 23.9524 21.9461   3
  -2  -1 -21 80.1377 24.5623   3
  -3  -1 -21 -10.737 19.7358   3
  -4  -1 -21 -9.8170 21.1691   3
  -5  -1 -21 -32.954 20.8773   3
  -6  -1 -21 38.6466 24.2213   3
  -7  -1 -21 3.75859 21.9405   3
  -8  -1 -21 62.7865 26.3049   3
  -3   2  21 17.6663 24.9057   1
  -2   2  21 17.6619 22.6873   1
   1  -2 -21 38.2204 23.8445   3
  -1   2  21 50.6398 22.3468   1
   0  -2 -21 72.3792 25.1791   3
  -1  -2 -21 35.1625 23.6281   3
  -2  -2 -21 23.3756 21.8266   3
  -3  -2 -21 40.4904 22.0927   3
  -4  -2 -21 24.4757 22.1247   3
  -5  -2 -21 91.7798 26.0324   3
  -6  -2 -21 24.9942 24.5082   3
  -7  -2 -21 19.3973 23.7121   3
  -8  -2 -21 -5.4381 21.9904   3
  -3   3  21 24.9177 23.6269   1
   2  -3 -21 21.7281 23.6317   3
  -2   3  21 -22.469 20.5927   1
   1  -3 -21 36.4739 23.5655   3
  -1   3  21 99.9187 34.4883   1
   0  -3 -21 39.2369 22.1934   3
  -1  -3 -21 6.25805 20.6976   3
  -2  -3 -21 31.6884 22.3835   3
  -3  -3 -21 26.8916 20.7461   3
  -4  -3 -21 -24.893 19.5843   3
  -5  -3 -21 -12.535 20.4376   3
  -6  -3 -21 37.6978 23.6760   3
  -7  -3 -21 -13.093 22.9841   3
  -8  -3 -21 49.0225 24.3669   3
  -3   4  21 41.4227 23.6249   1
   2  -4 -21 92.2749 25.6002   3
  -2   4  21 83.9201 23.8434   1
   1  -4 -21 16.2653 23.8359   3
   0  -4 -21 63.0225 22.7420   3
  -1  -4 -21 -20.517 17.9826   3
  -2  -4 -21 -10.459 20.0489   3
  -3  -4 -21 62.4042 24.6642   3
  -4  -4 -21 64.3639 23.2059   3
  -5  -4 -21 60.6921 23.7374   3
  -6  -4 -21 66.6920 25.3776   3
  -7  -4 -21 27.8894 23.7159   3
  -8  -4 -21 15.2921 23.1403   3
   3  -5 -21 -9.8023 23.7843   3
  -3   5  21 25.6466 22.4000   1
   2  -5 -21 29.5819 24.4380   3
   1  -5 -21 17.3233 22.3598   3
   0  -5 -21 46.1980 23.8042   3
  -1  -5 -21 59.6351 24.7748   3
  -2  -5 -21 23.0460 23.3495   3
  -3  -5 -21 9.10636 21.6386   3
  -4  -5 -21 -56.668 19.8262   3
  -5  -5 -21 22.8232 23.1642   3
  -6  -5 -21 12.2240 22.3677   3
  -7  -5 -21 18.5448 23.3215   3
  -8  -5 -21 22.1134 23.9528   3
   3  -6 -21 -8.2100 24.0151   3
   2  -6 -21 39.8166 24.8744   3
   1  -6 -21 46.6096 24.6342   3
   0  -6 -21 -7.1586 22.0076   3
  -1  -6 -21 -3.5209 22.7155   3
  -2  -6 -21 8.93549 21.9651   3
  -3  -6 -21 50.1048 23.8836   3
  -4  -6 -21 68.9258 24.4807   3
  -5  -6 -21 84.9499 24.5495   3
  -6  -6 -21 79.4577 25.0207   3
  -7  -6 -21 9.52332 22.6039   3
  -8  -6 -21 -10.633 22.8807   3
   3  -7 -21 33.1327 27.1695   3
   2  -7 -21 4.00808 24.6972   3
   1  -7 -21 -28.950 22.1547   3
   0  -7 -21 19.8580 24.4228   3
  -1  -7 -21 37.3954 21.2392   3
  -2  -7 -21 2.25411 22.4777   3
  -3  -7 -21 6.08715 20.0094   3
  -4  -7 -21 10.0980 23.1434   3
  -5  -7 -21 -36.286 20.5423   3
  -6  -7 -21 46.0309 24.4848   3
  -7  -7 -21 27.9739 23.2157   3
  -8  -7 -21 -3.0711 23.1011   3
   2  -8 -21 -0.1403 25.8033   3
   1  -8 -21 2.35453 24.2041   3
   0  -8 -21 -10.217 23.2437   3
  -1  -8 -21 26.2393 21.2687   3
  -2  -8 -21 1.71807 22.0278   3
  -3  -8 -21 42.3818 24.1725   3
  -4  -8 -21 131.693 27.0350   3
  -5  -8 -21 74.5633 25.6843   3
  -6  -8 -21 -1.9446 21.1621   3
  -7  -8 -21 -0.0767 22.6646   3
   2  -9 -21 46.6459 26.5287   3
   1  -9 -21 -32.735 24.6431   3
   0  -9 -21 -29.020 20.9799   3
  -1  -9 -21 43.9172 25.5352   3
  -2  -9 -21 87.8948 27.4130   3
  -3  -9 -21 11.6999 24.5111   3
  -4  -9 -21 -19.550 22.1991   3
  -5  -9 -21 22.8623 23.1375   3
  -6  -9 -21 0.34353 22.1367   3
  -7  -9 -21 -22.607 21.8349   3
   1 -10 -21 12.9761 27.4330   3
   0 -10 -21 -11.584 23.0068   3
  -1 -10 -21 6.55014 24.1578   3
  -2 -10 -21 70.5337 27.0217   3
  -3 -10 -21 42.0964 25.9708   3
  -4 -10 -21 31.6106 24.4170   3
  -5 -10 -21 12.3721 24.3043   3
  -6 -10 -21 -7.3351 23.0052   3
   0 -11 -21 14.0285 26.4235   3
  -1 -11 -21 54.2336 26.3022   3
  -2 -11 -21 11.4268 24.1626   3
  -3 -11 -21 -22.310 21.9951   3
  -4 -11 -21 -46.617 21.0199   3
  -5 -11 -21 -14.479 22.9275   3
  -1 -12 -21 3.46941 25.4539   3
  -2 -12 -21 -3.0658 24.9771   3
  -3 -12 -21 16.1551 24.9952   3
   2  -4  22 37.7936 23.2777   1
  -3   4 -22 42.3697 25.2143   3
   3  -4  22 17.8718 27.7685   1
  -4   4 -22 -11.959 23.4869   3
   0  -3  22 21.4007 27.0957   1
   1  -3  22 7.06400 23.5615   1
  -2   3 -22 67.3864 26.2406   3
   2  -3  22 31.0901 23.4833   1
  -3   3 -22 -2.8049 22.3663   3
  -4   3 -22 11.3652 23.6385   3
  -5   3 -22 53.7927 26.3903   3
   0  -2  22 -51.123 19.6747   1
   1  -2  22 87.0603 25.4092   1
  -2   2 -22 38.9848 23.5888   3
  -3   2 -22 16.8112 22.9922   3
  -4   2 -22 7.28337 22.7510   3
  -5   2 -22 8.32808 22.0747   3
  -6   2 -22 -0.5791 23.2509   3
  -1  -1  22 -16.979 21.5550   1
   0  -1  22 -7.2591 21.5908   1
  -1   1 -22 -22.477 22.2490   3
   1  -1  22 -22.545 20.8802   1
  -2   1 -22 101.283 26.9524   3
  -3   1 -22 54.8364 24.8305   3
  -4   1 -22 21.8654 22.5528   3
  -5   1 -22 76.4680 24.9222   3
  -6   1 -22 -24.421 20.3838   3
  -7   1 -22 -29.106 23.4933   3
  -2   0  22 96.0237 40.7680   1
  -1   0  22 -2.7378 22.9104   1
   0   0 -22 23.6307 23.1176   3
   0   0  22 4.74892 21.9407   1
  -1   0 -22 35.5893 22.9329   3
  -2   0 -22 53.2479 24.2119   3
  -3   0 -22 13.3234 23.3451   3
  -4   0 -22 -5.4552 23.4262   3
  -5   0 -22 23.0644 23.4818   3
  -6   0 -22 22.5604 22.5693   3
  -7   0 -22 63.5936 25.8356   3
  -2   1  22 -52.456 19.6384   1
  -1   1  22 -8.9675 21.1935   1
   0  -1 -22 5.70215 22.2336   3
  -1  -1 -22 10.8182 22.1918   3
  -2  -1 -22 -28.663 18.7907   3
  -3  -1 -22 3.09002 21.8619   3
  -4  -1 -22 52.9893 26.2696   3
  -5  -1 -22 54.2820 24.3387   3
  -6  -1 -22 6.37921 23.4562   3
  -7  -1 -22 8.23723 21.0575   3
  -2   2  22 0.04828 22.8893   1
   1  -2 -22 92.6352 27.0962   3
  -1   2  22 43.1184 24.7513   1
   0  -2 -22 19.4241 23.7925   3
  -1  -2 -22 32.6260 23.3575   3
  -2  -2 -22 119.565 26.8250   3
  -3  -2 -22 -10.112 20.5148   3
  -4  -2 -22 5.86862 21.6246   3
  -5  -2 -22 52.4280 24.7185   3
  -6  -2 -22 -1.8587 23.7192   3
  -7  -2 -22 -14.694 22.8301   3
  -2   3  22 46.1428 23.3701   1
   1  -3 -22 61.9150 25.9304   3
   0  -3 -22 16.1767 22.7586   3
  -1  -3 -22 -5.2075 22.6187   3
  -2  -3 -22 37.7880 24.6953   3
  -3  -3 -22 55.7305 24.7035   3
  -4  -3 -22 60.1104 21.8142   3
  -5  -3 -22 64.0257 22.1075   3
  -6  -3 -22 15.5799 23.7184   3
  -7  -3 -22 14.8077 25.0355   3
   2  -4 -22 -8.1996 24.8937   3
   1  -4 -22 70.7628 26.5647   3
   0  -4 -22 41.0776 23.5917   3
  -1  -4 -22 96.4786 27.7016   3
  -2  -4 -22 14.8497 21.7565   3
  -3  -4 -22 -5.8594 20.8343   3
  -4  -4 -22 21.3696 22.6594   3
  -5  -4 -22 15.4387 20.6695   3
  -6  -4 -22 14.5222 24.4375   3
  -7  -4 -22 6.80670 24.5330   3
   2  -5 -22 63.7721 26.4769   3
   1  -5 -22 25.0802 24.8567   3
   0  -5 -22 -18.101 22.2820   3
  -1  -5 -22 14.9847 22.4945   3
  -2  -5 -22 16.7125 23.0898   3
  -3  -5 -22 46.4627 21.5592   3
  -4  -5 -22 5.10150 22.0290   3
  -5  -5 -22 17.9295 23.3619   3
  -6  -5 -22 56.5313 25.3523   3
  -7  -5 -22 21.3383 23.7296   3
   2  -6 -22 -10.545 24.9749   3
   1  -6 -22 -19.309 23.1872   3
   0  -6 -22 47.7528 26.0258   3
  -1  -6 -22 65.6377 25.2524   3
  -2  -6 -22 7.49771 21.5324   3
  -3  -6 -22 -35.563 20.5946   3
  -4  -6 -22 -36.781 21.3560   3
  -5  -6 -22 10.7316 21.7861   3
  -6  -6 -22 33.0368 23.8860   3
  -7  -6 -22 64.4352 26.8558   3
   2  -7 -22 3.06243 25.9244   3
   1  -7 -22 -11.871 23.9310   3
   0  -7 -22 18.6361 24.6118   3
  -1  -7 -22 -4.5570 22.6354   3
  -2  -7 -22 1.25578 22.2110   3
  -3  -7 -22 -0.7063 21.9916   3
  -4  -7 -22 52.7684 25.1902   3
  -5  -7 -22 33.6434 23.8819   3
  -6  -7 -22 9.18749 23.9311   3
  -7  -7 -22 21.5977 24.2766   3
   1  -8 -22 44.5876 26.5401   3
   0  -8 -22 -49.441 21.8793   3
  -1  -8 -22 25.7312 23.7616   3
  -2  -8 -22 71.7990 26.5611   3
  -3  -8 -22 32.0400 24.5835   3
  -4  -8 -22 13.5594 24.6317   3
  -5  -8 -22 -1.9587 23.7090   3
  -6  -8 -22 17.5538 24.5599   3
   1  -9 -22 -10.657 23.8926   3
   0  -9 -22 -14.484 25.1312   3
  -1  -9 -22 20.0164 24.9808   3
  -2  -9 -22 91.4128 27.8211   3
  -3  -9 -22 40.0443 25.3935   3
  -4  -9 -22 91.6534 27.1779   3
  -5  -9 -22 51.8236 26.2445   3
  -6  -9 -22 20.1824 24.0293   3
   0 -10 -22 17.1298 25.8753   3
  -1 -10 -22 2.85938 25.0139   3
  -2 -10 -22 42.4186 26.4665   3
  -3 -10 -22 12.8394 23.7922   3
  -4 -10 -22 -7.3631 23.6063   3
  -5 -10 -22 9.71935 25.1852   3
  -2 -11 -22 71.7285 27.9396   3
  -2   2 -23 25.8486 24.1231   3
  -3   2 -23 26.3949 25.2841   3
  -4   2 -23 58.5126 25.8903   3
  -1   1 -23 -13.717 23.2952   3
  -2   1 -23 9.72895 23.6205   3
  -3   1 -23 -0.8983 22.9646   3
  -4   1 -23 7.99773 23.6628   3
  -5   1 -23 25.2315 23.6064   3
  -1   0 -23 -18.262 22.0446   3
  -2   0 -23 -0.1716 22.9233   3
  -3   0 -23 90.2836 26.2625   3
  -4   0 -23 62.0147 26.2917   3
  -5   0 -23 12.6671 24.1517   3
  -6   0 -23 17.8008 22.8770   3
   0  -1 -23 1.74882 23.0342   3
  -1  -1 -23 9.57471 22.6125   3
  -2  -1 -23 50.6691 24.2962   3
  -3  -1 -23 48.7850 24.3701   3
  -4  -1 -23 12.1759 24.2289   3
  -5  -1 -23 62.9234 27.0108   3
  -6  -1 -23 0.16364 22.9271   3
   0  -2 -23 -11.374 23.4027   3
  -1  -2 -23 -1.8229 23.7327   3
  -2  -2 -23 -24.705 21.7708   3
  -3  -2 -23 128.915 27.3306   3
  -4  -2 -23 -26.276 22.8956   3
  -5  -2 -23 1.96325 21.1724   3
  -6  -2 -23 9.89709 23.5431   3
   1  -3 -23 29.7717 25.5490   3
   0  -3 -23 47.1355 25.9333   3
  -1  -3 -23 34.4592 24.8828   3
  -2  -3 -23 59.9647 26.3902   3
  -3  -3 -23 -33.685 20.0711   3
  -4  -3 -23 20.0818 22.6135   3
  -5  -3 -23 -15.326 22.2104   3
  -6  -3 -23 14.2452 24.4293   3
   1  -4 -23 21.2546 24.9111   3
   0  -4 -23 -34.255 22.2940   3
  -1  -4 -23 -13.697 22.9879   3
  -2  -4 -23 5.54846 22.8642   3
  -3  -4 -23 23.4608 23.2456   3
  -4  -4 -23 6.68671 22.1503   3
  -5  -4 -23 43.0061 23.4480   3
  -6  -4 -23 24.3132 25.5185   3
   1  -5 -23 56.5784 26.6407   3
   0  -5 -23 56.3391 26.2427   3
  -1  -5 -23 55.8513 26.1391   3
  -2  -5 -23 58.8988 25.1771   3
  -3  -5 -23 4.32988 22.5526   3
  -4  -5 -23 9.07055 23.8855   3
  -5  -5 -23 8.48240 22.8695   3
  -6  -5 -23 33.4326 23.6386   3
   1  -6 -23 11.3680 25.2162   3
   0  -6 -23 5.46173 24.9825   3
  -1  -6 -23 17.3921 23.3352   3
  -2  -6 -23 8.09665 24.2251   3
  -3  -6 -23 24.3055 24.6243   3
  -4  -6 -23 8.37442 22.4210   3
  -5  -6 -23 -24.681 22.2287   3
  -6  -6 -23 10.8887 22.2169   3
   0  -7 -23 83.2532 26.9359   3
  -1  -7 -23 52.9880 26.3645   3
  -2  -7 -23 33.6380 24.0670   3
  -3  -7 -23 -7.8229 23.4279   3
  -4  -7 -23 27.3935 23.6737   3
  -5  -7 -23 36.3665 24.4765   3
   0  -8 -23 -48.236 21.9340   3
  -1  -8 -23 32.4190 25.8374   3
  -2  -8 -23 44.8921 25.8900   3
  -3  -8 -23 14.3017 25.9366   3
  -4  -8 -23 39.3611 26.4158   3
  -5  -8 -23 36.2966 25.3826   3
  -2  -9 -23 41.7011 26.5534   3
  -3  -9 -23 -6.8621 23.0315   3
  -2  -1 -24 65.5091 26.6613   3
  -3  -1 -24 80.8631 27.3178   3
  -4  -1 -24 35.9584 26.4065   3
  -2  -2 -24 18.8260 25.0727   3
  -3  -2 -24 3.61441 23.9001   3
  -4  -2 -24 8.03739 24.3013   3
  -1  -3 -24 9.41225 24.4770   3
  -2  -3 -24 6.29803 23.7862   3
  -3  -3 -24 17.8569 23.7449   3
  -4  -3 -24 128.915 29.5119   3
  -1  -4 -24 -2.3046 24.9731   3
  -2  -4 -24 33.1471 26.2647   3
  -3  -4 -24 46.9583 25.7771   3
  -4  -4 -24 15.7767 23.9359   3
  -1  -5 -24 -4.1996 25.1006   3
  -2  -5 -24 55.3605 26.5124   3
  -3  -5 -24 37.1341 24.9816   3
  -4  -5 -24 20.7218 23.5814   3
  -2  -6 -24 27.6926 25.9015   3
  -3  -6 -24 25.5400 25.9199   3
  -4  -6 -24 -29.594 22.3915   3
   0   0   0    0.00    0.00   0
;
_shelx_hkl_checksum              84680
_shelx_fab_file
;
    2    0    0     27.27      0.00
    3    0    0      5.73      0.00
    4    0    0      6.32      0.00
    5    0    0      6.67      0.00
    6    0    0      0.91      0.00
    7    0    0      1.78      0.00
    8    0    0      2.74      0.00
    9    0    0      1.81      0.00
   10    0    0     -2.72      0.00
  -10    1    0     -2.09      0.00
   -9    1    0     -1.56      0.00
   -8    1    0     -4.31      0.00
   -7    1    0     -1.46      0.00
   -6    1    0     -0.53      0.00
   -5    1    0     -5.72      0.00
   -4    1    0    -13.77      0.00
   -3    1    0     -0.31      0.00
   -2    1    0     11.68      0.00
    2    1    0      7.84      0.00
    3    1    0      9.27      0.00
    4    1    0      1.61      0.00
    5    1    0     -0.84      0.00
    6    1    0     -1.33      0.00
    7    1    0     -1.53      0.00
    8    1    0     -4.05      0.00
    9    1    0     -3.81      0.00
   10    1    0     -3.05      0.00
  -10    2    0     -1.63      0.00
   -9    2    0      1.98      0.00
   -8    2    0      3.32      0.00
   -7    2    0      3.18      0.00
   -6    2    0      2.10      0.00
   -5    2    0      5.31      0.00
   -4    2    0     12.53      0.00
   -3    2    0     13.34      0.00
   -2    2    0     -8.42      0.00
   -1    2    0    -18.55      0.00
    2    2    0     30.10      0.00
    3    2    0      6.72      0.00
    4    2    0      5.11      0.00
    5    2    0      5.49      0.00
    6    2    0      0.24      0.00
    7    2    0     -0.27      0.00
    8    2    0      1.28      0.00
    9    2    0      0.11      0.00
   10    2    0     -0.78      0.00
  -10    3    0     -0.75      0.00
   -9    3    0      0.16      0.00
   -8    3    0     -2.69      0.00
   -7    3    0     -1.92      0.00
   -6    3    0      1.11      0.00
   -5    3    0     -2.55      0.00
   -4    3    0     -9.38      0.00
   -3    3    0     -9.30      0.00
   -2    3    0     -3.68      0.00
   -1    3    0      0.82      0.00
    2    3    0    -23.98      0.00
    3    3    0    -13.30      0.00
    4    3    0     -2.44      0.00
    5    3    0     -0.80      0.00
    6    3    0     -0.83      0.00
    7    3    0      1.86      0.00
    8    3    0      1.24      0.00
    9    3    0     -0.87      0.00
   10    3    0      0.06      0.00
  -10    4    0      0.81      0.00
   -9    4    0      0.84      0.00
   -8    4    0      0.50      0.00
   -7    4    0      0.11      0.00
   -6    4    0      0.05      0.00
   -5    4    0      0.07      0.00
   -4    4    0      8.90      0.00
   -3    4    0     18.10      0.00
   -2    4    0     13.42      0.00
   -1    4    0      8.09      0.00
    0    4    0      6.28      0.00
    1    4    0      8.88      0.00
    2    4    0     14.61      0.00
    3    4    0      7.05      0.00
    4    4    0      1.00      0.00
    5    4    0     -0.51      0.00
    6    4    0     -1.65      0.00
    7    4    0     -0.16      0.00
    8    4    0      1.31      0.00
    9    4    0      0.80      0.00
   10    4    0      0.80      0.00
  -10    5    0     -1.76      0.00
   -9    5    0     -1.75      0.00
   -8    5    0     -1.89      0.00
   -7    5    0     -1.05      0.00
   -6    5    0      1.39      0.00
   -5    5    0      1.68      0.00
   -4    5    0     -0.21      0.00
   -3    5    0     -5.65      0.00
   -2    5    0     -8.44      0.00
   -1    5    0      2.82      0.00
    0    5    0     11.12      0.00
    1    5    0     13.02      0.00
    2    5    0      4.48      0.00
    3    5    0     -1.75      0.00
    4    5    0     -2.57      0.00
    5    5    0     -1.85      0.00
    6    5    0     -2.28      0.00
    7    5    0     -0.14      0.00
    8    5    0      0.08      0.00
    9    5    0     -0.09      0.00
   10    5    0      0.25      0.00
  -10    6    0      0.69      0.00
   -9    6    0      0.85      0.00
   -8    6    0      0.55      0.00
   -7    6    0      0.05      0.00
   -6    6    0      0.05      0.00
   -5    6    0     -1.98      0.00
   -4    6    0     -2.24      0.00
   -3    6    0      2.50      0.00
   -2    6    0      6.70      0.00
   -1    6    0      9.46      0.00
    0    6    0      4.64      0.00
    1    6    0      1.95      0.00
    2    6    0      3.66      0.00
    3    6    0      8.83      0.00
    4    6    0      5.96      0.00
    5    6    0      3.38      0.00
    6    6    0     -0.05      0.00
    7    6    0     -0.45      0.00
    8    6    0     -1.74      0.00
    9    6    0     -1.33      0.00
   -9    7    0     -2.08      0.00
   -8    7    0     -1.98      0.00
   -7    7    0     -0.79      0.00
   -6    7    0      0.46      0.00
   -5    7    0      0.84      0.00
   -4    7    0      1.29      0.00
   -3    7    0      0.68      0.00
   -2    7    0     -2.30      0.00
   -1    7    0     -6.51      0.00
    0    7    0     -6.08      0.00
    1    7    0     -0.01      0.00
    2    7    0      2.06      0.00
    3    7    0      3.12      0.00
    4    7    0      0.16      0.00
    5    7    0      1.06      0.00
    6    7    0     -0.06      0.00
    7    7    0     -0.14      0.00
    8    7    0     -3.76      0.00
    9    7    0     -3.04      0.00
   -9    8    0      2.10      0.00
   -8    8    0      1.94      0.00
   -7    8    0      0.90      0.00
   -6    8    0      1.11      0.00
   -5    8    0      0.23      0.00
   -4    8    0     -0.84      0.00
   -3    8    0     -3.12      0.00
   -2    8    0     -1.61      0.00
   -1    8    0      0.69      0.00
    0    8    0      3.48      0.00
    1    8    0      0.67      0.00
    2    8    0     -4.41      0.00
    3    8    0     -2.59      0.00
    4    8    0     -1.54      0.00
    5    8    0     -0.45      0.00
    6    8    0     -1.52      0.00
    7    8    0     -0.11      0.00
    8    8    0     -1.51      0.00
    9    8    0      0.27      0.00
   -9    9    0      0.71      0.00
   -8    9    0     -1.17      0.00
   -7    9    0     -1.44      0.00
   -6    9    0     -1.46      0.00
   -5    9    0     -1.56      0.00
   -4    9    0      0.01      0.00
   -3    9    0      1.27      0.00
   -2    9    0      5.73      0.00
   -1    9    0      2.17      0.00
    0    9    0     -2.59      0.00
    1    9    0     -1.95      0.00
    2    9    0     -0.21      0.00
    3    9    0      0.15      0.00
    4    9    0      0.23      0.00
    5    9    0     -1.04      0.00
    6    9    0     -0.47      0.00
    7    9    0      1.47      0.00
    8    9    0      0.49      0.00
   -8   10    0      0.32      0.00
   -7   10    0      0.23      0.00
   -6   10    0     -1.04      0.00
   -5   10    0     -1.31      0.00
   -4   10    0      0.99      0.00
   -3   10    0      1.81      0.00
   -2   10    0     -1.16      0.00
   -1   10    0     -3.31      0.00
    0   10    0     -0.01      0.00
    1   10    0      3.30      0.00
    2   10    0      1.00      0.00
    3   10    0     -0.25      0.00
    4   10    0      3.13      0.00
    5   10    0      0.31      0.00
    6   10    0     -1.21      0.00
    7   10    0     -1.44      0.00
    8   10    0     -1.26      0.00
   -8   11    0      1.15      0.00
   -7   11    0     -0.40      0.00
   -6   11    0     -1.06      0.00
   -5   11    0      0.14      0.00
   -4   11    0     -2.29      0.00
   -3   11    0     -1.87      0.00
   -2   11    0      0.84      0.00
   -1   11    0      3.51      0.00
    0   11    0     -0.67      0.00
    1   11    0     -0.37      0.00
    2   11    0      0.75      0.00
    3   11    0      1.58      0.00
    4   11    0      3.38      0.00
    5   11    0      1.65      0.00
    6   11    0      2.52      0.00
    7   11    0      2.05      0.00
   -7   12    0     -0.54      0.00
   -6   12    0      0.01      0.00
   -5   12    0     -0.50      0.00
   -4   12    0     -1.66      0.00
   -3   12    0      4.56      0.00
   -2   12    0      2.12      0.00
   -1   12    0     -2.14      0.00
    0   12    0     -1.94      0.00
    1   12    0      3.43      0.00
    2   12    0      0.03      0.00
    3   12    0     -1.81      0.00
    4   12    0      0.33      0.00
    5   12    0      0.56      0.00
    6   12    0     -0.93      0.00
   -6   13    0      0.02      0.00
   -5   13    0      2.68      0.00
   -4   13    0      1.13      0.00
   -3   13    0      0.13      0.00
   -2   13    0     -2.81      0.00
   -1   13    0     -2.20      0.00
    0   13    0     -0.08      0.00
    1   13    0      0.29      0.00
    2   13    0     -2.48      0.00
    3   13    0     -0.33      0.00
    4   13    0     -0.02      0.00
    5   13    0     -0.26      0.00
   -5   14    0      0.47      0.00
   -4   14    0     -2.87      0.00
   -3   14    0     -0.05      0.00
   -2   14    0      3.43      0.00
   -1   14    0      1.04      0.00
    0   14    0      0.34      0.00
    1   14    0      0.62      0.00
    2   14    0      0.71      0.00
    3   14    0      0.97      0.00
    4   14    0     -0.38      0.00
   -3   15    0      1.27      0.00
   -2   15    0      0.80      0.00
   -1   15    0     -2.15      0.00
    0   15    0     -0.10      0.00
    1   15    0     -0.88      0.00
    2   15    0     -2.13      0.00
    3   15    0     -0.69      0.00
   -2  -15    1      0.15      0.00
   -1  -15    1     -0.95      0.00
    0  -15    1     -0.54      0.00
    1  -15    1      2.50      0.00
    2  -15    1      2.12      0.00
    3  -15    1      0.50      0.00
   -4  -14    1     -0.28      0.00
   -3  -14    1     -0.56      0.00
   -2  -14    1     -0.66      0.00
   -1  -14    1     -0.78      0.00
    0  -14    1      0.29      0.00
    1  -14    1      0.19      0.00
    2  -14    1     -2.15      0.00
    3  -14    1     -0.53      0.00
    4  -14    1      1.54      0.00
    5  -14    1      0.98      0.00
   -5  -13    1     -0.71      0.00
   -4  -13    1     -0.79      0.00
   -3  -13    1     -0.32      0.00
   -2  -13    1      1.17      0.00
   -1  -13    1     -0.85      0.00
    0  -13    1     -1.29      0.00
    1  -13    1     -1.14      0.00
    2  -13    1     -0.01      0.00
    3  -13    1      1.36      0.00
    4  -13    1      1.03      0.00
    5  -13    1     -0.82      0.00
    6  -13    1     -0.14      0.00
   -6  -12    1      1.35      0.00
   -5  -12    1     -0.29      0.00
   -4  -12    1     -1.22      0.00
   -3  -12    1     -0.13      0.00
   -2  -12    1     -0.87      0.00
   -1  -12    1     -2.81      0.00
    0  -12    1      1.52      0.00
    1  -12    1      2.08      0.00
    2  -12    1     -0.20      0.00
    3  -12    1     -0.77      0.00
    4  -12    1      2.70      0.00
    5  -12    1      1.66      0.00
    6  -12    1      1.02      0.00
    7  -12    1      0.85      0.00
   -7  -11    1      0.35      0.00
   -6  -11    1      1.03      0.00
   -5  -11    1      2.58      0.00
   -4  -11    1      0.99      0.00
   -3  -11    1      1.87      0.00
   -2  -11    1      1.40      0.00
   -1  -11    1      1.72      0.00
    0  -11    1      2.11      0.00
    1  -11    1     -2.51      0.00
    2  -11    1     -1.83      0.00
    3  -11    1     -0.33      0.00
    4  -11    1     -0.79      0.00
    5  -11    1     -2.39      0.00
    6  -11    1     -1.02      0.00
    7  -11    1     -1.84      0.00
    8  -11    1     -1.68      0.00
   -7  -10    1      2.30      0.00
   -6  -10    1      1.64      0.00
   -5  -10    1      1.33      0.00
   -4  -10    1      0.20      0.00
   -3  -10    1      4.25      0.00
   -2  -10    1      2.09      0.00
   -1  -10    1     -1.65      0.00
    0  -10    1     -0.55      0.00
    1  -10    1      1.64      0.00
    2  -10    1      1.97      0.00
    3  -10    1      0.31      0.00
    4  -10    1      0.77      0.00
    5  -10    1      0.53      0.00
    6  -10    1     -0.62      0.00
    7  -10    1     -0.71      0.00
    8  -10    1      1.75      0.00
   -8   -9    1      1.41      0.00
   -7   -9    1     -2.34      0.00
   -6   -9    1     -3.01      0.00
   -5   -9    1     -1.04      0.00
   -4   -9    1     -0.04      0.00
   -3   -9    1      0.57      0.00
   -2   -9    1     -1.87      0.00
   -1   -9    1     -1.25      0.00
    0   -9    1      0.34      0.00
    1   -9    1     -2.13      0.00
    2   -9    1     -1.99      0.00
    3   -9    1      1.23      0.00
    4   -9    1     -0.35      0.00
    5   -9    1     -2.30      0.00
    6   -9    1     -2.01      0.00
    7   -9    1     -1.51      0.00
    8   -9    1     -0.08      0.00
    9   -9    1     -0.72      0.00
   -8   -8    1      0.25      0.00
   -7   -8    1     -0.50      0.00
   -6   -8    1      1.96      0.00
   -5   -8    1     -0.51      0.00
   -4   -8    1     -3.94      0.00
   -3   -8    1     -5.32      0.00
   -2   -8    1     -2.22      0.00
   -1   -8    1     -0.42      0.00
    0   -8    1      1.29      0.00
    1   -8    1      3.28      0.00
    2   -8    1      3.23      0.00
    3   -8    1      0.68      0.00
    4   -8    1     -0.26      0.00
    5   -8    1      1.37      0.00
    6   -8    1      1.48      0.00
    7   -8    1      0.71      0.00
    8   -8    1     -0.10      0.00
    9   -8    1     -0.12      0.00
   -9   -7    1     -1.86      0.00
   -8   -7    1     -1.14      0.00
   -7   -7    1     -2.87      0.00
   -6   -7    1     -1.09      0.00
   -5   -7    1     -1.49      0.00
   -4   -7    1      1.93      0.00
   -3   -7    1      3.57      0.00
   -2   -7    1      3.40      0.00
   -1   -7    1     -1.13      0.00
    0   -7    1     -3.60      0.00
    1   -7    1     -6.38      0.00
    2   -7    1     -6.25      0.00
    3   -7    1     -3.78      0.00
    4   -7    1     -0.54      0.00
    5   -7    1     -1.00      0.00
    6   -7    1     -2.04      0.00
    7   -7    1     -0.97      0.00
    8   -7    1     -0.41      0.00
    9   -7    1      0.26      0.00
   -9   -6    1     -2.89      0.00
   -8   -6    1     -2.26      0.00
   -7   -6    1     -2.01      0.00
   -6   -6    1      2.54      0.00
   -5   -6    1      5.72      0.00
   -4   -6    1      7.80      0.00
   -3   -6    1      2.91      0.00
   -2   -6    1      0.23      0.00
   -1   -6    1      0.62      0.00
    0   -6    1      2.12      0.00
    1   -6    1      2.82      0.00
    2   -6    1      6.04      0.00
    3   -6    1      3.42      0.00
    4   -6    1      1.66      0.00
    5   -6    1     -1.29      0.00
    6   -6    1     -0.61      0.00
    7   -6    1      2.17      0.00
    8   -6    1      0.20      0.00
    9   -6    1     -1.14      0.00
   10   -6    1     -0.77      0.00
   -9   -5    1      1.27      0.00
   -8   -5    1      0.37      0.00
   -7   -5    1     -0.95      0.00
   -6   -5    1     -0.32      0.00
   -5   -5    1     -3.27      0.00
   -4   -5    1     -4.21      0.00
   -3   -5    1      1.46      0.00
   -2   -5    1     10.82      0.00
   -1   -5    1     15.60      0.00
    0   -5    1     11.33      0.00
    1   -5    1      2.82      0.00
    2   -5    1      0.36      0.00
    3   -5    1     -4.45      0.00
    4   -5    1     -3.20      0.00
    5   -5    1     -1.70      0.00
    6   -5    1     -0.40      0.00
    7   -5    1      0.27      0.00
    8   -5    1     -1.15      0.00
    9   -5    1     -1.66      0.00
   10   -5    1     -0.68      0.00
  -10   -4    1      1.43      0.00
   -9   -4    1      1.82      0.00
   -8   -4    1      0.48      0.00
   -7   -4    1      0.32      0.00
   -6   -4    1     -0.22      0.00
   -5   -4    1     -0.46      0.00
   -4   -4    1      6.17      0.00
   -3   -4    1      8.81      0.00
   -2   -4    1      0.51      0.00
   -1   -4    1     -2.12      0.00
    0   -4    1     -2.19      0.00
    1   -4    1      5.48      0.00
    2   -4    1      8.23      0.00
    3   -4    1      2.92      0.00
    4   -4    1      6.40      0.00
    5   -4    1      5.03      0.00
    6   -4    1     -0.40      0.00
    7   -4    1     -1.73      0.00
    8   -4    1     -0.26      0.00
    9   -4    1      1.11      0.00
   10   -4    1      2.05      0.00
  -10   -3    1      0.70      0.00
   -9   -3    1      0.94      0.00
   -8   -3    1     -1.49      0.00
   -7   -3    1     -1.48      0.00
   -6   -3    1      1.14      0.00
   -5   -3    1      0.93      0.00
   -4   -3    1     -4.07      0.00
   -3   -3    1    -11.98      0.00
   -2   -3    1    -12.05      0.00
    1   -3    1      9.86      0.00
    2   -3    1      6.63      0.00
    3   -3    1      2.53      0.00
    4   -3    1      0.71      0.00
    5   -3    1     -5.62      0.00
    6   -3    1     -4.70      0.00
    7   -3    1      0.82      0.00
    8   -3    1      2.29      0.00
    9   -3    1     -1.14      0.00
   10   -3    1     -0.74      0.00
  -10   -2    1     -0.59      0.00
   -9   -2    1     -0.21      0.00
   -8   -2    1     -0.84      0.00
   -7   -2    1      2.52      0.00
   -6   -2    1      2.62      0.00
   -5   -2    1     -2.38      0.00
   -4   -2    1      2.30      0.00
   -3   -2    1     12.06      0.00
   -2   -2    1      4.21      0.00
   -1   -2    1     -4.68      0.00
    1   -2    1     -7.43      0.00
    2   -2    1     -8.11      0.00
    3   -2    1    -11.34      0.00
    4   -2    1     -2.12      0.00
    5   -2    1      4.08      0.00
    6   -2    1      5.81      0.00
    7   -2    1      1.08      0.00
    8   -2    1     -2.67      0.00
    9   -2    1     -1.49      0.00
   10   -2    1      3.03      0.00
  -10   -1    1      0.44      0.00
   -9   -1    1     -0.19      0.00
   -8   -1    1     -2.13      0.00
   -7   -1    1     -4.18      0.00
   -6   -1    1     -2.17      0.00
   -5   -1    1      6.26      0.00
   -4   -1    1     16.30      0.00
   -3   -1    1     10.97      0.00
   -2   -1    1      3.53      0.00
   -1   -1    1     39.77      0.00
    1   -1    1     41.86      0.00
    2   -1    1      1.11      0.00
    3   -1    1      5.34      0.00
    4   -1    1     10.80      0.00
    5   -1    1     -1.68      0.00
    6   -1    1     -5.80      0.00
    7   -1    1     -2.27      0.00
    8   -1    1      2.73      0.00
    9   -1    1      1.51      0.00
   10   -1    1      1.31      0.00
  -10    0    1      0.20      0.00
   -9    0    1     -3.49      0.00
   -8    0    1     -2.75      0.00
   -7    0    1      1.86      0.00
   -6    0    1      5.79      0.00
   -5    0    1     -0.35      0.00
   -4    0    1     -6.72      0.00
   -3    0    1     -1.87      0.00
   -2    0    1     17.07      0.00
   -1    0    1     43.36      0.00
    2    0    1      4.09      0.00
    3    0    1     -0.87      0.00
    4    0    1    -10.15      0.00
    5    0    1     -7.10      0.00
    6    0    1      4.13      0.00
    7    0    1      3.47      0.00
    8    0    1     -1.79      0.00
    9    0    1     -4.16      0.00
   10    0    1      0.31      0.00
  -10    1    1      0.60      0.00
   -9    1    1     -0.10      0.00
   -8    1    1      3.43      0.00
   -7    1    1     -0.44      0.00
   -6    1    1     -5.88      0.00
   -5    1    1     -4.04      0.00
   -4    1    1      8.39      0.00
   -3    1    1     10.64      0.00
   -2    1    1      8.35      0.00
   -1    1    1     33.41      0.00
    2    1    1      8.16      0.00
    3    1    1     10.93      0.00
    4    1    1     11.49      0.00
    5    1    1      6.71      0.00
    6    1    1     -0.65      0.00
    7    1    1     -5.93      0.00
    8    1    1     -2.85      0.00
    9    1    1      0.08      0.00
   10    1    1      1.83      0.00
  -10    2    1      2.56      0.00
   -9    2    1     -0.31      0.00
   -8    2    1     -2.02      0.00
   -7    2    1     -1.17      0.00
   -6    2    1      4.88      0.00
   -5    2    1      8.36      0.00
   -4    2    1      0.53      0.00
   -3    2    1    -11.88      0.00
   -2    2    1     -9.26      0.00
   -1    2    1     -5.49      0.00
    2    2    1     -7.07      0.00
    3    2    1     13.35      0.00
    4    2    1      2.07      0.00
    5    2    1     -4.00      0.00
    6    2    1     -0.22      0.00
    7    2    1      0.67      0.00
    8    2    1     -0.69      0.00
    9    2    1     -1.22      0.00
   10    2    1     -0.09      0.00
  -10    3    1     -0.34      0.00
   -9    3    1     -1.02      0.00
   -8    3    1      2.74      0.00
   -7    3    1      3.37      0.00
   -6    3    1     -1.27      0.00
   -5    3    1     -3.62      0.00
   -4    3    1     -2.64      0.00
   -3    3    1      5.20      0.00
   -2    3    1     11.00      0.00
   -1    3    1      6.76      0.00
    0    3    1     -3.32      0.00
    2    3    1     -9.96      0.00
    3    3    1     -8.39      0.00
    4    3    1     -6.95      0.00
    5    3    1      0.54      0.00
    6    3    1      2.19      0.00
    7    3    1     -1.57      0.00
    8    3    1     -0.79      0.00
    9    3    1      1.49      0.00
   10    3    1      1.31      0.00
  -10    4    1      0.42      0.00
   -9    4    1      1.40      0.00
   -8    4    1      0.12      0.00
   -7    4    1     -2.70      0.00
   -6    4    1     -2.29      0.00
   -5    4    1      5.09      0.00
   -4    4    1      6.59      0.00
   -3    4    1      6.96      0.00
   -2    4    1      7.53      0.00
   -1    4    1      2.93      0.00
    0    4    1     -2.10      0.00
    1    4    1     -4.16      0.00
    2    4    1     -4.92      0.00
    3    4    1      4.65      0.00
    4    4    1      5.05      0.00
    5    4    1      0.50      0.00
    6    4    1     -1.01      0.00
    7    4    1     -0.48      0.00
    8    4    1      0.70      0.00
    9    4    1      1.19      0.00
   10    4    1      0.35      0.00
  -10    5    1     -0.95      0.00
   -9    5    1     -0.89      0.00
   -8    5    1     -0.89      0.00
   -7    5    1     -0.51      0.00
   -6    5    1      0.97      0.00
   -5    5    1      2.55      0.00
   -4    5    1     -1.25      0.00
   -3    5    1     -1.01      0.00
   -2    5    1      2.64      0.00
   -1    5    1      6.64      0.00
    0    5    1     15.48      0.00
    1    5    1     15.73      0.00
    2    5    1     11.50      0.00
    3    5    1      1.60      0.00
    4    5    1     -5.33      0.00
    5    5    1     -6.11      0.00
    6    5    1     -3.25      0.00
    7    5    1     -2.88      0.00
    8    5    1     -0.48      0.00
    9    5    1      1.47      0.00
   10    5    1      1.37      0.00
  -10    6    1     -1.14      0.00
   -9    6    1     -1.02      0.00
   -8    6    1      0.21      0.00
   -7    6    1      0.97      0.00
   -6    6    1     -0.31      0.00
   -5    6    1     -1.89      0.00
   -4    6    1     -0.95      0.00
   -3    6    1      3.38      0.00
   -2    6    1      6.44      0.00
   -1    6    1      5.04      0.00
    0    6    1      4.47      0.00
    1    6    1      2.84      0.00
    2    6    1      3.50      0.00
    3    6    1      2.13      0.00
    4    6    1      7.16      0.00
    5    6    1      5.81      0.00
    6    6    1      2.59      0.00
    7    6    1     -0.92      0.00
    8    6    1     -1.38      0.00
    9    6    1     -2.27      0.00
   -9    7    1     -0.30      0.00
   -8    7    1      0.52      0.00
   -7    7    1     -0.97      0.00
   -6    7    1     -1.26      0.00
   -5    7    1      0.83      0.00
   -4    7    1      2.20      0.00
   -3    7    1      0.27      0.00
   -2    7    1     -4.82      0.00
   -1    7    1     -5.43      0.00
    0    7    1     -3.20      0.00
    1    7    1     -0.84      0.00
    2    7    1      4.21      0.00
    3    7    1      3.21      0.00
    4    7    1      3.87      0.00
    5    7    1     -0.45      0.00
    6    7    1     -1.67      0.00
    7    7    1     -3.39      0.00
    8    7    1     -2.12      0.00
    9    7    1     -2.44      0.00
   -9    8    1      1.82      0.00
   -8    8    1      0.81      0.00
   -7    8    1      0.75      0.00
   -6    8    1      1.76      0.00
   -5    8    1      2.23      0.00
   -4    8    1     -1.09      0.00
   -3    8    1     -1.18      0.00
   -2    8    1      0.21      0.00
   -1    8    1      4.32      0.00
    0    8    1      1.41      0.00
    1    8    1     -0.57      0.00
    2    8    1      0.50      0.00
    3    8    1     -4.14      0.00
    4    8    1     -2.30      0.00
    5    8    1     -0.04      0.00
    6    8    1      2.76      0.00
    7    8    1      1.05      0.00
    8    8    1      0.88      0.00
    9    8    1     -0.91      0.00
   -9    9    1     -1.17      0.00
   -8    9    1     -0.70      0.00
   -7    9    1     -0.41      0.00
   -6    9    1     -1.57      0.00
   -5    9    1     -1.38      0.00
   -4    9    1     -1.03      0.00
   -3    9    1      3.31      0.00
   -2    9    1     -0.46      0.00
   -1    9    1     -0.47      0.00
    0    9    1     -0.62      0.00
    1    9    1     -1.75      0.00
    2    9    1     -1.68      0.00
    3    9    1     -1.97      0.00
    4    9    1     -0.59      0.00
    5    9    1     -0.29      0.00
    6    9    1     -1.33      0.00
    7    9    1     -2.01      0.00
    8    9    1      1.11      0.00
   -8   10    1      1.92      0.00
   -7   10    1      0.78      0.00
   -6   10    1     -1.17      0.00
   -5   10    1      1.29      0.00
   -4   10    1      1.15      0.00
   -3   10    1      0.21      0.00
   -2   10    1      0.13      0.00
   -1   10    1      3.44      0.00
    0   10    1      0.84      0.00
    1   10    1     -2.21      0.00
    2   10    1      2.08      0.00
    3   10    1      4.35      0.00
    4   10    1      0.09      0.00
    5   10    1     -0.35      0.00
    6   10    1     -0.04      0.00
    7   10    1     -0.26      0.00
    8   10    1     -0.42      0.00
   -8   11    1     -1.84      0.00
   -7   11    1     -1.60      0.00
   -6   11    1     -1.18      0.00
   -5   11    1     -1.33      0.00
   -4   11    1     -1.28      0.00
   -3   11    1     -0.62      0.00
   -2   11    1      0.67      0.00
   -1   11    1     -1.02      0.00
    0   11    1      1.19      0.00
    1   11    1      1.53      0.00
    2   11    1      2.88      0.00
    3   11    1      2.24      0.00
    4   11    1      0.33      0.00
    5   11    1      2.76      0.00
    6   11    1      1.81      0.00
    7   11    1     -0.19      0.00
   -7   12    1      1.32      0.00
   -6   12    1      0.54      0.00
   -5   12    1      1.13      0.00
   -4   12    1      3.63      0.00
   -3   12    1     -1.81      0.00
   -2   12    1     -0.55      0.00
   -1   12    1      1.28      0.00
    0   12    1      1.87      0.00
    1   12    1     -3.39      0.00
    2   12    1     -1.12      0.00
    3   12    1     -0.15      0.00
    4   12    1     -1.72      0.00
    5   12    1     -1.45      0.00
    6   12    1      0.41      0.00
   -6   13    1     -0.10      0.00
   -5   13    1     -0.37      0.00
   -4   13    1      1.39      0.00
   -3   13    1     -1.75      0.00
   -2   13    1      0.01      0.00
   -1   13    1     -0.48      0.00
    0   13    1     -1.10      0.00
    1   13    1     -0.37      0.00
    2   13    1      3.79      0.00
    3   13    1      0.86      0.00
    4   13    1     -0.65      0.00
    5   13    1     -0.21      0.00
    6   13    1      0.96      0.00
   -5   14    1      0.88      0.00
   -4   14    1      2.54      0.00
   -3   14    1     -1.60      0.00
   -2   14    1     -2.72      0.00
   -1   14    1      0.42      0.00
    0   14    1      0.09      0.00
    1   14    1      0.10      0.00
    2   14    1      0.63      0.00
    3   14    1     -1.01      0.00
    4   14    1     -0.42      0.00
   -4   15    1      0.00      0.00
   -3   15    1     -0.24      0.00
   -2   15    1      1.16      0.00
   -1   15    1      4.12      0.00
    0   15    1     -0.44      0.00
    1   15    1     -1.05      0.00
    2   15    1      0.69      0.00
    3   15    1      1.08      0.00
   -1  -15    2     -0.62      0.00
    0  -15    2      0.34      0.00
    1  -15    2     -0.65      0.00
    2  -15    2     -1.50      0.00
    3  -15    2      0.13      0.00
   -3  -14    2     -0.74      0.00
   -2  -14    2      0.31      0.00
   -1  -14    2     -0.05      0.00
    0  -14    2     -1.21      0.00
    1  -14    2      1.38      0.00
    2  -14    2      3.38      0.00
    3  -14    2      1.15      0.00
    4  -14    2     -1.07      0.00
    5  -14    2     -0.05      0.00
   -5  -13    2      0.52      0.00
   -4  -13    2      0.35      0.00
   -3  -13    2     -0.56      0.00
   -2  -13    2     -2.10      0.00
   -1  -13    2     -1.66      0.00
    0  -13    2     -1.51      0.00
    1  -13    2     -0.32      0.00
    2  -13    2     -1.20      0.00
    3  -13    2     -1.73      0.00
    4  -13    2      1.09      0.00
    5  -13    2      1.33      0.00
    6  -13    2     -0.33      0.00
   -6  -12    2     -0.63      0.00
   -5  -12    2      0.01      0.00
   -4  -12    2     -0.37      0.00
   -3  -12    2     -2.93      0.00
   -2  -12    2     -1.66      0.00
   -1  -12    2      2.39      0.00
    0  -12    2     -0.53      0.00
    1  -12    2     -1.64      0.00
    2  -12    2      1.30      0.00
    3  -12    2      3.10      0.00
    4  -12    2      1.27      0.00
    5  -12    2     -0.75      0.00
    6  -12    2      0.81      0.00
    7  -12    2      0.34      0.00
   -6  -11    2      4.23      0.00
   -5  -11    2      2.32      0.00
   -4  -11    2      2.29      0.00
   -3  -11    2      1.71      0.00
   -2  -11    2      2.23      0.00
   -1  -11    2      0.50      0.00
    0  -11    2     -1.62      0.00
    1  -11    2      3.09      0.00
    2  -11    2      2.39      0.00
    3  -11    2     -2.12      0.00
    4  -11    2     -1.70      0.00
    5  -11    2     -0.29      0.00
    6  -11    2     -0.31      0.00
    7  -11    2     -0.43      0.00
    8  -11    2     -0.06      0.00
   -7  -10    2     -0.80      0.00
   -6  -10    2     -0.05      0.00
   -5  -10    2     -0.07      0.00
   -4  -10    2      2.74      0.00
   -3  -10    2      0.51      0.00
   -2  -10    2      0.16      0.00
   -1  -10    2      1.35      0.00
    0  -10    2      0.45      0.00
    1  -10    2     -1.60      0.00
    2  -10    2     -3.58      0.00
    3  -10    2     -0.66      0.00
    4  -10    2      0.53      0.00
    5  -10    2     -2.06      0.00
    6  -10    2     -1.67      0.00
    7  -10    2      0.84      0.00
    8  -10    2      0.28      0.00
   -8   -9    2      0.70      0.00
   -7   -9    2      1.38      0.00
   -6   -9    2      0.71      0.00
   -5   -9    2     -1.09      0.00
   -4   -9    2     -0.82      0.00
   -3   -9    2     -1.11      0.00
   -2   -9    2      0.66      0.00
   -1   -9    2     -1.30      0.00
    0   -9    2     -3.75      0.00
    1   -9    2      1.07      0.00
    2   -9    2      4.38      0.00
    3   -9    2      3.26      0.00
    4   -9    2      1.00      0.00
    5   -9    2     -0.28      0.00
    6   -9    2     -0.76      0.00
    7   -9    2     -0.60      0.00
    8   -9    2     -2.16      0.00
    9   -9    2     -0.13      0.00
   -8   -8    2     -1.32      0.00
   -7   -8    2     -0.28      0.00
   -6   -8    2     -2.38      0.00
   -5   -8    2     -2.14      0.00
   -4   -8    2     -1.71      0.00
   -3   -8    2     -1.94      0.00
   -2   -8    2     -2.62      0.00
   -1   -8    2     -0.66      0.00
    0   -8    2      2.48      0.00
    1   -8    2      2.65      0.00
    2   -8    2     -2.79      0.00
    3   -8    2     -4.01      0.00
    4   -8    2     -2.71      0.00
    5   -8    2     -0.83      0.00
    6   -8    2     -0.26      0.00
    7   -8    2     -0.42      0.00
    8   -8    2      0.88      0.00
    9   -8    2      2.32      0.00
   -9   -7    2     -2.82      0.00
   -8   -7    2     -4.43      0.00
   -7   -7    2     -1.30      0.00
   -6   -7    2     -1.24      0.00
   -5   -7    2      0.48      0.00
   -4   -7    2     -0.95      0.00
   -3   -7    2     -1.36      0.00
   -2   -7    2     -1.66      0.00
   -1   -7    2     -2.06      0.00
    0   -7    2     -5.37      0.00
    1   -7    2     -5.31      0.00
    2   -7    2     -3.41      0.00
    3   -7    2      1.24      0.00
    4   -7    2      1.66      0.00
    5   -7    2      1.73      0.00
    6   -7    2      0.89      0.00
    7   -7    2     -0.72      0.00
    8   -7    2     -0.74      0.00
    9   -7    2     -2.36      0.00
   10   -7    2     -1.78      0.00
   -9   -6    2     -1.00      0.00
   -8   -6    2     -1.30      0.00
   -7   -6    2      0.83      0.00
   -6   -6    2      0.79      0.00
   -5   -6    2      4.15      0.00
   -4   -6    2      5.87      0.00
   -3   -6    2      8.10      0.00
   -2   -6    2      5.73      0.00
   -1   -6    2      0.45      0.00
    0   -6    2      0.61      0.00
    1   -6    2      4.75      0.00
    2   -6    2      3.20      0.00
    3   -6    2      1.31      0.00
    4   -6    2     -4.66      0.00
    5   -6    2     -3.90      0.00
    6   -6    2     -1.50      0.00
    7   -6    2     -1.95      0.00
    8   -6    2      0.51      0.00
    9   -6    2      0.69      0.00
   10   -6    2      0.58      0.00
   -9   -5    2     -0.05      0.00
   -8   -5    2      0.09      0.00
   -7   -5    2      0.40      0.00
   -6   -5    2     -1.51      0.00
   -5   -5    2     -0.46      0.00
   -4   -5    2      0.19      0.00
   -3   -5    2      0.21      0.00
   -2   -5    2      3.04      0.00
   -1   -5    2      6.28      0.00
    0   -5    2      9.11      0.00
    1   -5    2      2.98      0.00
    2   -5    2     -7.33      0.00
    3   -5    2     -5.98      0.00
    4   -5    2     -2.35      0.00
    5   -5    2      3.08      0.00
    6   -5    2      2.24      0.00
    7   -5    2     -0.78      0.00
    8   -5    2     -0.32      0.00
    9   -5    2     -0.58      0.00
   10   -5    2     -1.48      0.00
  -10   -4    2      0.82      0.00
   -9   -4    2      1.30      0.00
   -8   -4    2      1.90      0.00
   -7   -4    2      0.07      0.00
   -6   -4    2     -1.36      0.00
   -5   -4    2      0.74      0.00
   -4   -4    2      1.01      0.00
   -3   -4    2      5.07      0.00
   -2   -4    2     13.94      0.00
   -1   -4    2     11.07      0.00
    0   -4    2      8.36      0.00
    1   -4    2      1.60      0.00
    2   -4    2      5.94      0.00
    3   -4    2     14.57      0.00
    4   -4    2      7.29      0.00
    5   -4    2      0.56      0.00
    6   -4    2     -2.41      0.00
    7   -4    2     -1.28      0.00
    8   -4    2      0.89      0.00
    9   -4    2      1.36      0.00
   10   -4    2     -0.68      0.00
  -10   -3    2      0.31      0.00
   -9   -3    2     -0.36      0.00
   -8   -3    2      0.95      0.00
   -7   -3    2      1.05      0.00
   -6   -3    2      0.33      0.00
   -5   -3    2     -0.58      0.00
   -4   -3    2     -2.88      0.00
   -3   -3    2     -6.08      0.00
   -2   -3    2    -15.04      0.00
    0   -3    2     -7.74      0.00
    1   -3    2     -0.57      0.00
    2   -3    2      4.11      0.00
    3   -3    2     -4.89      0.00
    4   -3    2    -11.97      0.00
    5   -3    2     -3.01      0.00
    6   -3    2      0.46      0.00
    7   -3    2     -1.25      0.00
    8   -3    2     -3.01      0.00
    9   -3    2     -0.42      0.00
   10   -3    2     -0.27      0.00
  -10   -2    2     -0.13      0.00
   -9   -2    2      0.19      0.00
   -8   -2    2      2.71      0.00
   -7   -2    2      0.08      0.00
   -6   -2    2     -0.50      0.00
   -5   -2    2      3.48      0.00
   -4   -2    2      3.37      0.00
   -3   -2    2      3.96      0.00
   -2   -2    2     12.27      0.00
   -1   -2    2     16.30      0.00
    1   -2    2    -13.80      0.00
    2   -2    2    -10.35      0.00
    3   -2    2      5.61      0.00
    4   -2    2     10.69      0.00
    5   -2    2      8.06      0.00
    6   -2    2      0.00      0.00
    7   -2    2     -0.09      0.00
    8   -2    2      2.46      0.00
    9   -2    2      2.07      0.00
   10   -2    2     -1.91      0.00
  -10   -1    2     -1.73      0.00
   -9   -1    2     -3.11      0.00
   -8   -1    2     -3.13      0.00
   -7   -1    2     -2.00      0.00
   -6   -1    2      1.96      0.00
   -5   -1    2      2.88      0.00
   -4   -1    2      2.76      0.00
   -3   -1    2     12.94      0.00
   -2   -1    2     11.59      0.00
   -1   -1    2    -28.64      0.00
    2   -1    2      7.75      0.00
    3   -1    2      3.00      0.00
    4   -1    2    -12.81      0.00
    5   -1    2     -7.98      0.00
    6   -1    2     -2.47      0.00
    7   -1    2     -0.02      0.00
    8   -1    2     -2.25      0.00
    9   -1    2     -2.93      0.00
   10   -1    2     -1.90      0.00
   11   -1    2      2.40      0.00
  -10    0    2     -1.08      0.00
   -9    0    2      0.88      0.00
   -8    0    2      3.21      0.00
   -7    0    2      2.77      0.00
   -6    0    2      1.07      0.00
   -5    0    2      3.28      0.00
   -4    0    2      7.11      0.00
   -3    0    2     10.11      0.00
   -2    0    2     13.85      0.00
   -1    0    2     33.49      0.00
    2    0    2     31.91      0.00
    3    0    2     -3.34      0.00
    4    0    2      0.83      0.00
    5    0    2      7.43      0.00
    6    0    2      1.47      0.00
    7    0    2      0.43      0.00
    8    0    2      2.28      0.00
    9    0    2      1.50      0.00
   10    0    2     -2.28      0.00
   11    0    2      0.96      0.00
  -10    1    2     -1.03      0.00
   -9    1    2     -0.91      0.00
   -8    1    2     -3.99      0.00
   -7    1    2     -2.80      0.00
   -6    1    2     -0.23      0.00
   -5    1    2     -2.37      0.00
   -4    1    2     -8.63      0.00
   -3    1    2     -2.01      0.00
   -2    1    2     12.00      0.00
   -1    1    2      2.55      0.00
    3    1    2      2.66      0.00
    4    1    2      1.97      0.00
    5    1    2     -3.88      0.00
    6    1    2     -4.65      0.00
    7    1    2     -1.67      0.00
    8    1    2     -3.24      0.00
    9    1    2     -4.37      0.00
   10    1    2     -3.63      0.00
  -10    2    2     -0.27      0.00
   -9    2    2      0.84      0.00
   -8    2    2      2.98      0.00
   -7    2    2      5.33      0.00
   -6    2    2      3.34      0.00
   -5    2    2      2.51      0.00
   -4    2    2      9.67      0.00
   -3    2    2     12.07      0.00
   -2    2    2     -5.90      0.00
   -1    2    2    -17.89      0.00
    3    2    2      8.28      0.00
    4    2    2      4.85      0.00
    5    2    2      4.07      0.00
    6    2    2      0.92      0.00
    7    2    2     -0.97      0.00
    8    2    2     -0.68      0.00
    9    2    2      0.34      0.00
   10    2    2     -0.50      0.00
  -10    3    2     -1.27      0.00
   -9    3    2      0.02      0.00
   -8    3    2     -0.82      0.00
   -7    3    2     -0.76      0.00
   -6    3    2      0.70      0.00
   -5    3    2     -1.32      0.00
   -4    3    2     -3.90      0.00
   -3    3    2    -10.45      0.00
   -2    3    2     -7.48      0.00
   -1    3    2      1.66      0.00
    0    3    2     -1.73      0.00
    2    3    2    -26.66      0.00
    3    3    2    -20.99      0.00
    4    3    2     -2.98      0.00
    5    3    2     -1.44      0.00
    6    3    2     -1.62      0.00
    7    3    2      1.49      0.00
    8    3    2      0.57      0.00
    9    3    2     -1.05      0.00
   10    3    2     -0.70      0.00
  -10    4    2      1.53      0.00
   -9    4    2      0.39      0.00
   -8    4    2      0.93      0.00
   -7    4    2      2.04      0.00
   -6    4    2      1.91      0.00
   -5    4    2      0.86      0.00
   -4    4    2      9.59      0.00
   -3    4    2     15.80      0.00
   -2    4    2     18.59      0.00
   -1    4    2     12.93      0.00
    0    4    2      2.69      0.00
    2    4    2     10.98      0.00
    3    4    2      6.62      0.00
    4    4    2      2.40      0.00
    5    4    2     -0.92      0.00
    6    4    2     -0.98      0.00
    7    4    2      0.03      0.00
    8    4    2     -0.02      0.00
    9    4    2      0.62      0.00
   10    4    2      0.78      0.00
  -10    5    2     -1.88      0.00
   -9    5    2     -2.87      0.00
   -8    5    2     -2.34      0.00
   -7    5    2     -0.47      0.00
   -6    5    2      0.74      0.00
   -5    5    2      0.53      0.00
   -4    5    2      1.91      0.00
   -3    5    2     -4.93      0.00
   -2    5    2     -6.22      0.00
   -1    5    2      1.36      0.00
    0    5    2      9.10      0.00
    1    5    2     14.12      0.00
    2    5    2      5.59      0.00
    3    5    2     -3.95      0.00
    4    5    2     -6.08      0.00
    5    5    2     -3.62      0.00
    6    5    2     -2.80      0.00
    7    5    2     -0.56      0.00
    8    5    2     -0.53      0.00
    9    5    2      0.03      0.00
   10    5    2      0.56      0.00
   -9    6    2      0.43      0.00
   -8    6    2      0.64      0.00
   -7    6    2      1.71      0.00
   -6    6    2      0.16      0.00
   -5    6    2     -1.09      0.00
   -4    6    2      0.41      0.00
   -3    6    2      3.04      0.00
   -2    6    2      9.32      0.00
   -1    6    2     12.84      0.00
    0    6    2      9.57      0.00
    1    6    2      4.68      0.00
    2    6    2      1.57      0.00
    3    6    2      6.81      0.00
    4    6    2      4.63      0.00
    5    6    2      3.05      0.00
    6    6    2     -0.09      0.00
    7    6    2     -1.51      0.00
    8    6    2     -2.63      0.00
    9    6    2     -1.36      0.00
   10    6    2     -0.52      0.00
   -9    7    2     -1.74      0.00
   -8    7    2     -2.71      0.00
   -7    7    2     -0.36      0.00
   -6    7    2     -0.10      0.00
   -5    7    2      0.26      0.00
   -4    7    2      0.98      0.00
   -3    7    2      0.02      0.00
   -2    7    2     -1.71      0.00
   -1    7    2     -6.65      0.00
    0    7    2     -6.78      0.00
    1    7    2     -0.24      0.00
    2    7    2      4.04      0.00
    3    7    2      7.34      0.00
    4    7    2      1.19      0.00
    5    7    2      1.11      0.00
    6    7    2      0.74      0.00
    7    7    2      0.54      0.00
    8    7    2     -2.30      0.00
    9    7    2     -2.20      0.00
   -9    8    2      1.18      0.00
   -8    8    2      1.71      0.00
   -7    8    2      1.98      0.00
   -6    8    2      1.75      0.00
   -5    8    2      1.44      0.00
   -4    8    2      1.24      0.00
   -3    8    2     -1.18      0.00
   -2    8    2     -0.19      0.00
   -1    8    2     -0.44      0.00
    0    8    2      3.79      0.00
    1    8    2      2.55      0.00
    2    8    2     -4.65      0.00
    3    8    2     -2.52      0.00
    4    8    2     -2.97      0.00
    5    8    2      0.15      0.00
    6    8    2      0.16      0.00
    7    8    2     -0.04      0.00
    8    8    2     -1.00      0.00
    9    8    2     -0.06      0.00
   -9    9    2      1.36      0.00
   -8    9    2     -0.07      0.00
   -7    9    2     -0.96      0.00
   -6    9    2     -0.80      0.00
   -5    9    2     -2.09      0.00
   -4    9    2      0.33      0.00
   -3    9    2     -0.07      0.00
   -2    9    2      4.70      0.00
   -1    9    2      1.77      0.00
    0    9    2     -1.68      0.00
    1    9    2     -3.40      0.00
    2    9    2     -3.43      0.00
    3    9    2      0.93      0.00
    4    9    2      0.31      0.00
    5    9    2     -0.55      0.00
    6    9    2     -0.73      0.00
    7    9    2      1.07      0.00
    8    9    2      0.98      0.00
   -8   10    2      0.57      0.00
   -7   10    2     -0.23      0.00
   -6   10    2      0.13      0.00
   -5   10    2     -1.40      0.00
   -4   10    2      2.53      0.00
   -3   10    2      2.87      0.00
   -2   10    2      1.31      0.00
   -1   10    2     -3.77      0.00
    0   10    2     -0.49      0.00
    1   10    2      4.38      0.00
    2   10    2      1.58      0.00
    3   10    2      0.37      0.00
    4   10    2      1.71      0.00
    5   10    2     -0.03      0.00
    6   10    2     -2.25      0.00
    7   10    2     -2.32      0.00
    8   10    2     -1.25      0.00
   -8   11    2      1.11      0.00
   -7   11    2     -0.45      0.00
   -6   11    2     -0.17      0.00
   -5   11    2     -1.17      0.00
   -4   11    2     -0.42      0.00
   -3   11    2     -1.51      0.00
   -2   11    2     -0.72      0.00
   -1   11    2      3.41      0.00
    0   11    2      2.14      0.00
    1   11    2      0.61      0.00
    2   11    2     -1.33      0.00
    3   11    2      0.66      0.00
    4   11    2      2.80      0.00
    5   11    2      0.43      0.00
    6   11    2     -0.30      0.00
    7   11    2      0.07      0.00
   -7   12    2     -0.68      0.00
   -6   12    2      0.29      0.00
   -5   12    2     -1.82      0.00
   -4   12    2     -1.89      0.00
   -3   12    2      4.90      0.00
   -2   12    2      2.93      0.00
   -1   12    2     -0.96      0.00
    0   12    2     -3.14      0.00
    1   12    2      2.74      0.00
    2   12    2      0.74      0.00
    3   12    2     -0.27      0.00
    4   12    2      1.21      0.00
    5   12    2      1.34      0.00
    6   12    2     -0.42      0.00
    7   12    2     -0.45      0.00
   -6   13    2     -0.18      0.00
   -5   13    2      0.82      0.00
   -4   13    2      1.20      0.00
   -3   13    2      2.03      0.00
   -2   13    2     -5.08      0.00
   -1   13    2     -4.56      0.00
    0   13    2     -0.37      0.00
    1   13    2      2.10      0.00
    2   13    2     -2.39      0.00
    3   13    2     -0.52      0.00
    4   13    2     -0.32      0.00
    5   13    2     -1.78      0.00
    6   13    2     -2.30      0.00
   -5   14    2      0.53      0.00
   -4   14    2     -3.61      0.00
   -3   14    2     -0.46      0.00
   -2   14    2      1.25      0.00
   -1   14    2      0.37      0.00
    0   14    2      1.31      0.00
    1   14    2      1.65      0.00
    2   14    2      1.27      0.00
    3   14    2      2.59      0.00
    4   14    2      0.75      0.00
    5   14    2      0.84      0.00
   -4   15    2     -0.42      0.00
   -3   15    2      3.23      0.00
   -2   15    2      2.41      0.00
   -1   15    2     -2.57      0.00
    0   15    2      0.00      0.00
    1   15    2     -0.13      0.00
    2   15    2     -1.00      0.00
    3   15    2      0.10      0.00
   -1   16    2     -0.83      0.00
    0   16    2      1.63      0.00
   -1  -15    3     -0.01      0.00
    0  -15    3      0.03      0.00
    1  -15    3      0.53      0.00
    2  -15    3      2.72      0.00
   -3  -14    3      0.44      0.00
   -2  -14    3     -0.75      0.00
   -1  -14    3     -1.11      0.00
    0  -14    3      1.09      0.00
    1  -14    3     -0.25      0.00
    2  -14    3     -0.57      0.00
    3  -14    3     -1.06      0.00
    4  -14    3      0.47      0.00
   -4  -13    3     -0.50      0.00
   -3  -13    3     -0.13      0.00
   -2  -13    3     -1.18      0.00
   -1  -13    3     -2.29      0.00
    0  -13    3     -1.06      0.00
    1  -13    3     -2.28      0.00
    2  -13    3      0.34      0.00
    3  -13    3      2.68      0.00
    4  -13    3      0.76      0.00
    5  -13    3      0.06      0.00
    6  -13    3     -0.54      0.00
   -5  -12    3      0.73      0.00
   -4  -12    3     -1.21      0.00
   -3  -12    3     -1.03      0.00
   -2  -12    3     -1.45      0.00
   -1  -12    3     -2.68      0.00
    0  -12    3      0.80      0.00
    1  -12    3      1.37      0.00
    2  -12    3      0.85      0.00
    3  -12    3      0.81      0.00
    4  -12    3      0.44      0.00
    5  -12    3      2.89      0.00
    6  -12    3     -0.13      0.00
    7  -12    3      0.12      0.00
   -6  -11    3      0.03      0.00
   -5  -11    3      1.89      0.00
   -4  -11    3      1.13      0.00
   -3  -11    3      1.00      0.00
   -2  -11    3      0.54      0.00
   -1  -11    3      1.26      0.00
    0  -11    3      3.61      0.00
    1  -11    3     -0.86      0.00
    2  -11    3     -2.15      0.00
    3  -11    3      0.30      0.00
    4  -11    3     -1.60      0.00
    5  -11    3     -0.64      0.00
    6  -11    3     -2.12      0.00
    7  -11    3     -0.98      0.00
    8  -11    3     -0.36      0.00
   -7  -10    3      3.57      0.00
   -6  -10    3      2.39      0.00
   -5  -10    3      2.66      0.00
   -4  -10    3      0.61      0.00
   -3  -10    3      1.80      0.00
   -2  -10    3      1.75      0.00
   -1  -10    3     -0.60      0.00
    0  -10    3     -0.92      0.00
    1  -10    3     -0.18      0.00
    2  -10    3      2.55      0.00
    3  -10    3      1.28      0.00
    4  -10    3     -0.48      0.00
    5  -10    3      2.04      0.00
    6  -10    3      0.10      0.00
    7  -10    3      0.18      0.00
    8  -10    3      2.19      0.00
   -7   -9    3     -1.57      0.00
   -6   -9    3     -4.21      0.00
   -5   -9    3     -2.28      0.00
   -4   -9    3     -0.48      0.00
   -3   -9    3      0.93      0.00
   -2   -9    3     -0.87      0.00
   -1   -9    3     -1.16      0.00
    0   -9    3      0.35      0.00
    1   -9    3     -2.41      0.00
    2   -9    3     -2.11      0.00
    3   -9    3     -0.86      0.00
    4   -9    3     -0.96      0.00
    5   -9    3     -2.14      0.00
    6   -9    3     -3.44      0.00
    7   -9    3     -2.62      0.00
    8   -9    3      0.35      0.00
    9   -9    3      0.04      0.00
   -8   -8    3     -0.17      0.00
   -7   -8    3     -1.18      0.00
   -6   -8    3      0.69      0.00
   -5   -8    3      0.08      0.00
   -4   -8    3     -3.31      0.00
   -3   -8    3     -5.73      0.00
   -2   -8    3     -4.20      0.00
   -1   -8    3     -1.22      0.00
    0   -8    3      0.53      0.00
    1   -8    3      0.96      0.00
    2   -8    3      4.61      0.00
    3   -8    3      2.38      0.00
    4   -8    3      1.41      0.00
    5   -8    3      2.03      0.00
    6   -8    3      2.26      0.00
    7   -8    3      2.01      0.00
    8   -8    3      0.58      0.00
    9   -8    3     -1.15      0.00
   -8   -7    3     -0.82      0.00
   -7   -7    3     -2.47      0.00
   -6   -7    3     -1.20      0.00
   -5   -7    3     -2.51      0.00
   -4   -7    3     -1.08      0.00
   -3   -7    3      1.38      0.00
   -2   -7    3      2.44      0.00
   -1   -7    3     -0.40      0.00
    0   -7    3     -2.93      0.00
    1   -7    3     -6.21      0.00
    2   -7    3     -5.58      0.00
    3   -7    3     -6.35      0.00
    4   -7    3     -3.50      0.00
    5   -7    3     -3.25      0.00
    6   -7    3     -3.15      0.00
    7   -7    3     -1.49      0.00
    8   -7    3     -2.03      0.00
    9   -7    3      0.15      0.00
   10   -7    3      0.48      0.00
   -9   -6    3     -1.74      0.00
   -8   -6    3     -1.88      0.00
   -7   -6    3     -2.40      0.00
   -6   -6    3      1.76      0.00
   -5   -6    3      4.68      0.00
   -4   -6    3      7.46      0.00
   -3   -6    3      3.67      0.00
   -2   -6    3     -2.44      0.00
   -1   -6    3     -2.98      0.00
    0   -6    3     -1.31      0.00
    1   -6    3      0.83      0.00
    2   -6    3      5.39      0.00
    3   -6    3      3.53      0.00
    4   -6    3      3.28      0.00
    5   -6    3     -0.18      0.00
    6   -6    3     -0.60      0.00
    7   -6    3      2.80      0.00
    8   -6    3     -0.03      0.00
    9   -6    3     -0.22      0.00
   10   -6    3     -0.32      0.00
   -9   -5    3      1.01      0.00
   -8   -5    3      1.07      0.00
   -7   -5    3      0.34      0.00
   -6   -5    3      1.55      0.00
   -5   -5    3     -0.05      0.00
   -4   -5    3     -2.31      0.00
   -3   -5    3     -0.11      0.00
   -2   -5    3      7.07      0.00
   -1   -5    3     14.42      0.00
    0   -5    3      7.33      0.00
    1   -5    3     -0.81      0.00
    2   -5    3     -4.33      0.00
    3   -5    3     -7.21      0.00
    4   -5    3     -5.32      0.00
    5   -5    3     -5.91      0.00
    6   -5    3     -2.56      0.00
    7   -5    3      0.46      0.00
    8   -5    3     -1.57      0.00
    9   -5    3     -1.09      0.00
   10   -5    3     -0.32      0.00
   -9   -4    3      1.85      0.00
   -8   -4    3      0.84      0.00
   -7   -4    3      0.93      0.00
   -6   -4    3      0.54      0.00
   -5   -4    3     -0.76      0.00
   -4   -4    3      4.79      0.00
   -3   -4    3     10.72      0.00
   -2   -4    3      5.24      0.00
   -1   -4    3      1.13      0.00
    0   -4    3     -4.75      0.00
    1   -4    3      5.64      0.00
    2   -4    3      7.82      0.00
    3   -4    3      3.54      0.00
    4   -4    3      5.80      0.00
    5   -4    3      4.52      0.00
    6   -4    3      3.18      0.00
    7   -4    3      0.58      0.00
    8   -4    3     -0.25      0.00
    9   -4    3      0.74      0.00
   10   -4    3      2.72      0.00
  -10   -3    3      0.90      0.00
   -9   -3    3      0.30      0.00
   -8   -3    3     -1.09      0.00
   -7   -3    3     -1.15      0.00
   -6   -3    3     -0.75      0.00
   -5   -3    3      0.72      0.00
   -4   -3    3     -1.90      0.00
   -3   -3    3    -13.19      0.00
   -2   -3    3    -16.95      0.00
    0   -3    3      4.23      0.00
    1   -3    3     10.65      0.00
    2   -3    3     -1.60      0.00
    3   -3    3     -1.63      0.00
    4   -3    3      0.78      0.00
    5   -3    3     -6.44      0.00
    6   -3    3     -5.50      0.00
    7   -3    3     -2.46      0.00
    8   -3    3      1.21      0.00
    9   -3    3     -0.20      0.00
   10   -3    3     -0.50      0.00
  -10   -2    3     -0.61      0.00
   -9   -2    3      0.63      0.00
   -8   -2    3      0.17      0.00
   -7   -2    3      3.23      0.00
   -6   -2    3      3.71      0.00
   -5   -2    3     -0.07      0.00
   -4   -2    3      0.32      0.00
   -3   -2    3      7.36      0.00
   -2   -2    3     13.06      0.00
   -1   -2    3      2.55      0.00
    1   -2    3     -9.91      0.00
    2   -2    3     -7.72      0.00
    3   -2    3     -3.27      0.00
    4   -2    3     -1.70      0.00
    5   -2    3      0.33      0.00
    6   -2    3      6.65      0.00
    7   -2    3      2.68      0.00
    8   -2    3     -2.14      0.00
    9   -2    3     -2.28      0.00
   10   -2    3      2.01      0.00
   11   -2    3     -0.53      0.00
  -10   -1    3     -0.48      0.00
   -9   -1    3      0.15      0.00
   -8   -1    3     -1.13      0.00
   -7   -1    3     -1.86      0.00
   -6   -1    3     -3.42      0.00
   -5   -1    3      3.43      0.00
   -4   -1    3     14.08      0.00
   -3   -1    3      8.56      0.00
   -2   -1    3     -2.95      0.00
   -1   -1    3      3.34      0.00
    1   -1    3     29.04      0.00
    2   -1    3     -7.55      0.00
    3   -1    3     -2.47      0.00
    4   -1    3      5.31      0.00
    5   -1    3     -0.93      0.00
    6   -1    3     -4.17      0.00
    7   -1    3     -4.60      0.00
    8   -1    3     -0.15      0.00
    9   -1    3      2.87      0.00
   10   -1    3      1.17      0.00
   11   -1    3     -2.82      0.00
  -10    0    3     -0.57      0.00
   -9    0    3     -1.14      0.00
   -8    0    3     -2.29      0.00
   -7    0    3      1.21      0.00
   -6    0    3      6.05      0.00
   -5    0    3      6.46      0.00
   -4    0    3     -0.79      0.00
   -3    0    3     -2.08      0.00
   -2    0    3     21.56      0.00
   -1    0    3     39.07      0.00
    0    0    3      1.32      0.00
    1    0    3     21.99      0.00
    2    0    3     -7.47      0.00
    3    0    3      1.59      0.00
    4    0    3     -8.43      0.00
    5    0    3     -9.24      0.00
    6    0    3      2.32      0.00
    7    0    3      5.16      0.00
    8    0    3     -0.07      0.00
    9    0    3     -2.52      0.00
   10    0    3     -0.97      0.00
   11    0    3     -2.27      0.00
  -10    1    3     -0.69      0.00
   -9    1    3     -0.22      0.00
   -8    1    3      1.89      0.00
   -7    1    3      0.84      0.00
   -6    1    3     -4.63      0.00
   -5    1    3     -6.00      0.00
   -4    1    3      1.51      0.00
   -3    1    3      9.85      0.00
   -2    1    3     11.77      0.00
   -1    1    3     12.71      0.00
    0    1    3      8.43      0.00
    2    1    3      6.48      0.00
    3    1    3      6.59      0.00
    4    1    3      1.74      0.00
    5    1    3      3.83      0.00
    6    1    3      0.32      0.00
    7    1    3     -5.58      0.00
    8    1    3     -4.50      0.00
    9    1    3      0.82      0.00
   10    1    3      2.03      0.00
   11    1    3     -1.83      0.00
  -10    2    3      1.17      0.00
   -9    2    3      1.56      0.00
   -8    2    3     -1.12      0.00
   -7    2    3     -1.91      0.00
   -6    2    3      3.88      0.00
   -5    2    3     10.00      0.00
   -4    2    3      4.53      0.00
   -3    2    3     -7.00      0.00
   -2    2    3     -9.82      0.00
   -1    2    3     -7.18      0.00
    0    2    3    -19.03      0.00
    2    2    3    -10.10      0.00
    3    2    3     12.92      0.00
    4    2    3      2.11      0.00
    5    2    3     -3.35      0.00
    6    2    3     -2.72      0.00
    7    2    3     -0.12      0.00
    8    2    3     -0.38      0.00
    9    2    3     -1.16      0.00
   10    2    3     -0.41      0.00
  -10    3    3     -0.21      0.00
   -9    3    3     -0.43      0.00
   -8    3    3      1.18      0.00
   -7    3    3      3.92      0.00
   -6    3    3      2.47      0.00
   -5    3    3     -1.88      0.00
   -4    3    3     -6.21      0.00
   -3    3    3      2.60      0.00
   -2    3    3      8.12      0.00
   -1    3    3      1.88      0.00
    0    3    3     -4.81      0.00
    2    3    3    -10.43      0.00
    3    3    3     -4.91      0.00
    4    3    3     -9.41      0.00
    5    3    3     -1.14      0.00
    6    3    3      1.87      0.00
    7    3    3     -0.87      0.00
    8    3    3     -0.81      0.00
    9    3    3      1.29      0.00
   10    3    3      1.92      0.00
  -10    4    3     -0.43      0.00
   -9    4    3      1.47      0.00
   -8    4    3      0.81      0.00
   -7    4    3     -1.51      0.00
   -6    4    3     -1.00      0.00
   -5    4    3      4.46      0.00
   -4    4    3      6.49      0.00
   -3    4    3     11.87      0.00
   -2    4    3      7.37      0.00
   -1    4    3      0.44      0.00
    0    4    3     -3.51      0.00
    2    4    3    -10.61      0.00
    3    4    3      0.35      0.00
    4    4    3      1.98      0.00
    5    4    3      0.92      0.00
    6    4    3     -1.00      0.00
    7    4    3     -0.15      0.00
    8    4    3      1.60      0.00
    9    4    3      0.27      0.00
   10    4    3     -0.80      0.00
  -10    5    3     -0.85      0.00
   -9    5    3     -0.52      0.00
   -8    5    3     -0.92      0.00
   -7    5    3     -1.15      0.00
   -6    5    3      2.10      0.00
   -5    5    3      5.00      0.00
   -4    5    3      0.62      0.00
   -3    5    3      1.57      0.00
   -2    5    3      1.19      0.00
   -1    5    3      7.63      0.00
    0    5    3     16.87      0.00
    2    5    3      9.05      0.00
    3    5    3      1.34      0.00
    4    5    3     -5.62      0.00
    5    5    3     -7.77      0.00
    6    5    3     -4.68      0.00
    7    5    3     -3.74      0.00
    8    5    3     -0.74      0.00
    9    5    3      0.79      0.00
   10    5    3      1.20      0.00
   -9    6    3     -0.32      0.00
   -8    6    3      0.37      0.00
   -7    6    3     -0.10      0.00
   -6    6    3      1.11      0.00
   -5    6    3     -1.41      0.00
   -4    6    3     -3.12      0.00
   -3    6    3      2.74      0.00
   -2    6    3      5.80      0.00
   -1    6    3      7.11      0.00
    0    6    3      5.07      0.00
    1    6    3      2.37      0.00
    2    6    3      2.65      0.00
    3    6    3      0.88      0.00
    4    6    3      5.16      0.00
    5    6    3      4.10      0.00
    6    6    3      2.43      0.00
    7    6    3      0.35      0.00
    8    6    3      0.46      0.00
    9    6    3     -1.38      0.00
   10    6    3     -1.73      0.00
   -9    7    3     -0.95      0.00
   -8    7    3      0.93      0.00
   -7    7    3     -1.46      0.00
   -6    7    3     -0.92      0.00
   -5    7    3      0.40      0.00
   -4    7    3      3.05      0.00
   -3    7    3      3.15      0.00
   -2    7    3     -2.30      0.00
   -1    7    3     -4.14      0.00
    0    7    3     -2.54      0.00
    1    7    3      1.17      0.00
    2    7    3      5.19      0.00
    3    7    3      3.09      0.00
    4    7    3      4.60      0.00
    5    7    3     -0.42      0.00
    6    7    3     -2.15      0.00
    7    7    3     -3.08      0.00
    8    7    3     -2.50      0.00
    9    7    3     -2.54      0.00
   -9    8    3      2.41      0.00
   -8    8    3      1.50      0.00
   -7    8    3      0.00      0.00
   -6    8    3      2.78      0.00
   -5    8    3      3.02      0.00
   -4    8    3     -0.21      0.00
   -3    8    3     -2.33      0.00
   -2    8    3     -1.61      0.00
   -1    8    3      3.41      0.00
    0    8    3      1.20      0.00
    1    8    3     -1.15      0.00
    2    8    3      0.77      0.00
    3    8    3     -3.49      0.00
    4    8    3     -0.56      0.00
    5    8    3      0.04      0.00
    6    8    3      2.20      0.00
    7    8    3      2.74      0.00
    8    8    3      1.25      0.00
    9    8    3     -0.03      0.00
   -8    9    3     -0.15      0.00
   -7    9    3      0.29      0.00
   -6    9    3     -0.49      0.00
   -5    9    3     -1.07      0.00
   -4    9    3     -1.41      0.00
   -3    9    3      3.66      0.00
   -2    9    3      2.10      0.00
   -1    9    3      0.15      0.00
    0    9    3     -2.80      0.00
    1    9    3     -3.28      0.00
    2    9    3     -1.86      0.00
    3    9    3     -4.31      0.00
    4    9    3     -1.06      0.00
    5    9    3     -0.51      0.00
    6    9    3     -0.61      0.00
    7    9    3     -0.45      0.00
    8    9    3      0.37      0.00
    9    9    3      1.27      0.00
   -8   10    3      1.92      0.00
   -7   10    3      1.25      0.00
   -6   10    3     -1.04      0.00
   -5   10    3      1.82      0.00
   -4   10    3      1.15      0.00
   -3   10    3      0.97      0.00
   -2   10    3     -0.91      0.00
   -1   10    3      2.82      0.00
    0   10    3      1.88      0.00
    1   10    3     -1.47      0.00
    2   10    3      1.75      0.00
    3   10    3      2.53      0.00
    4   10    3      0.40      0.00
    5   10    3     -1.86      0.00
    6   10    3     -1.54      0.00
    7   10    3     -1.29      0.00
    8   10    3     -2.46      0.00
   -7   11    3     -0.49      0.00
   -6   11    3     -0.64      0.00
   -5   11    3      0.88      0.00
   -4   11    3     -3.07      0.00
   -3   11    3     -0.97      0.00
   -2   11    3      2.82      0.00
   -1   11    3      1.40      0.00
    0   11    3      0.67      0.00
    1   11    3      0.70      0.00
    2   11    3      3.32      0.00
    3   11    3      1.33      0.00
    4   11    3     -0.19      0.00
    5   11    3      1.81      0.00
    6   11    3      2.04      0.00
    7   11    3     -0.87      0.00
   -7   12    3      0.60      0.00
   -6   12    3     -1.00      0.00
   -5   12    3      0.52      0.00
   -4   12    3      1.00      0.00
   -3   12    3     -0.90      0.00
   -2   12    3      0.34      0.00
   -1   12    3      0.28      0.00
    0   12    3      1.87      0.00
    1   12    3     -2.61      0.00
    2   12    3     -0.74      0.00
    3   12    3     -0.38      0.00
    4   12    3     -1.16      0.00
    5   12    3     -2.08      0.00
    6   12    3     -0.74      0.00
    7   12    3     -0.12      0.00
   -6   13    3     -0.46      0.00
   -5   13    3      1.38      0.00
   -4   13    3      0.09      0.00
   -3   13    3     -3.71      0.00
   -2   13    3      0.16      0.00
   -1   13    3     -0.36      0.00
    0   13    3     -1.21      0.00
    1   13    3     -1.24      0.00
    2   13    3      4.39      0.00
    3   13    3      1.39      0.00
    4   13    3     -0.82      0.00
    5   13    3     -0.04      0.00
    6   13    3      1.96      0.00
   -4   14    3      0.66      0.00
   -3   14    3     -3.33      0.00
   -2   14    3     -2.32      0.00
   -1   14    3     -0.34      0.00
    0   14    3     -0.61      0.00
    1   14    3      0.11      0.00
    2   14    3      1.69      0.00
    3   14    3     -0.83      0.00
    4   14    3     -0.46      0.00
    5   14    3     -1.11      0.00
   -4   15    3      0.93      0.00
   -3   15    3     -0.93      0.00
   -2   15    3      1.15      0.00
   -1   15    3      4.32      0.00
    0   15    3     -0.30      0.00
    1   15    3     -0.71      0.00
    2   15    3      1.55      0.00
    3   15    3      2.54      0.00
   -1   16    3      0.80      0.00
    0   16    3     -1.15      0.00
    1   16    3      0.41      0.00
   -2  -14    4      0.75      0.00
   -1  -14    4      1.00      0.00
    0  -14    4     -1.52      0.00
    1  -14    4      2.10      0.00
    2  -14    4      2.40      0.00
    3  -14    4      2.67      0.00
    4  -14    4     -0.26      0.00
   -4  -13    4      0.56      0.00
   -3  -13    4     -0.93      0.00
   -2  -13    4     -1.57      0.00
   -1  -13    4     -2.28      0.00
    0  -13    4     -3.99      0.00
    1  -13    4      0.69      0.00
    2  -13    4     -0.79      0.00
    3  -13    4     -1.78      0.00
    4  -13    4     -0.23      0.00
    5  -13    4     -0.26      0.00
    6  -13    4     -0.64      0.00
   -5  -12    4     -0.27      0.00
   -4  -12    4      0.10      0.00
   -3  -12    4     -2.48      0.00
   -2  -12    4     -2.51      0.00
   -1  -12    4      0.96      0.00
    0  -12    4     -0.69      0.00
    1  -12    4      0.45      0.00
    2  -12    4      1.03      0.00
    3  -12    4      2.70      0.00
    4  -12    4      3.23      0.00
    5  -12    4     -1.42      0.00
    6  -12    4      1.64      0.00
    7  -12    4      0.71      0.00
   -6  -11    4      3.75      0.00
   -5  -11    4      1.83      0.00
   -4  -11    4      0.96      0.00
   -3  -11    4      0.44      0.00
   -2  -11    4      1.13      0.00
   -1  -11    4      1.41      0.00
    0  -11    4     -2.02      0.00
    1  -11    4      1.95      0.00
    2  -11    4      2.68      0.00
    3  -11    4     -1.23      0.00
    4  -11    4     -0.21      0.00
    5  -11    4     -1.29      0.00
    6  -11    4      2.52      0.00
    7  -11    4     -0.14      0.00
   -7  -10    4     -0.34      0.00
   -6  -10    4      0.66      0.00
   -5  -10    4     -0.76      0.00
   -4  -10    4      1.37      0.00
   -3  -10    4      1.63      0.00
   -2  -10    4     -0.29      0.00
   -1  -10    4      0.92      0.00
    0  -10    4      1.74      0.00
    1  -10    4      1.96      0.00
    2  -10    4     -2.09      0.00
    3  -10    4     -1.69      0.00
    4  -10    4      1.05      0.00
    5  -10    4     -3.10      0.00
    6  -10    4     -0.98      0.00
    7  -10    4     -0.83      0.00
    8  -10    4     -0.19      0.00
   -7   -9    4      0.42      0.00
   -6   -9    4      0.84      0.00
   -5   -9    4     -1.19      0.00
   -4   -9    4     -1.30      0.00
   -3   -9    4     -1.16      0.00
   -2   -9    4     -0.46      0.00
   -1   -9    4     -0.78      0.00
    0   -9    4     -3.79      0.00
    1   -9    4     -1.34      0.00
    2   -9    4      1.41      0.00
    3   -9    4      3.41      0.00
    4   -9    4      2.22      0.00
    5   -9    4      0.14      0.00
    6   -9    4      1.78      0.00
    7   -9    4      1.11      0.00
    8   -9    4     -0.30      0.00
    9   -9    4      0.65      0.00
   -8   -8    4     -0.34      0.00
   -7   -8    4     -0.07      0.00
   -6   -8    4     -1.76      0.00
   -5   -8    4     -3.36      0.00
   -4   -8    4     -2.64      0.00
   -3   -8    4     -1.35      0.00
   -2   -8    4     -1.35      0.00
   -1   -8    4     -0.70      0.00
    0   -8    4      1.52      0.00
    1   -8    4      3.67      0.00
    2   -8    4     -1.95      0.00
    3   -8    4     -3.39      0.00
    4   -8    4     -3.05      0.00
    5   -8    4     -1.39      0.00
    6   -8    4     -0.76      0.00
    7   -8    4     -2.52      0.00
    8   -8    4     -1.07      0.00
    9   -8    4      1.49      0.00
   -8   -7    4     -2.89      0.00
   -7   -7    4     -1.73      0.00
   -6   -7    4     -1.88      0.00
   -5   -7    4     -0.59      0.00
   -4   -7    4     -0.97      0.00
   -3   -7    4     -2.54      0.00
   -2   -7    4     -4.15      0.00
   -1   -7    4     -3.84      0.00
    0   -7    4     -4.65      0.00
    1   -7    4     -3.84      0.00
    2   -7    4     -4.15      0.00
    3   -7    4      0.92      0.00
    4   -7    4      2.16      0.00
    5   -7    4      2.91      0.00
    6   -7    4      1.98      0.00
    7   -7    4     -0.19      0.00
    8   -7    4      1.15      0.00
    9   -7    4     -1.64      0.00
   -8   -6    4     -0.50      0.00
   -7   -6    4      1.10      0.00
   -6   -6    4      1.29      0.00
   -5   -6    4      3.84      0.00
   -4   -6    4      4.60      0.00
   -3   -6    4      4.92      0.00
   -2   -6    4      4.08      0.00
   -1   -6    4      0.11      0.00
    0   -6    4     -1.12      0.00
    1   -6    4      1.41      0.00
    2   -6    4      0.53      0.00
    3   -6    4      0.20      0.00
    4   -6    4     -5.44      0.00
    5   -6    4     -5.64      0.00
    6   -6    4     -3.42      0.00
    7   -6    4     -4.07      0.00
    8   -6    4      0.23      0.00
    9   -6    4     -0.14      0.00
   10   -6    4      0.68      0.00
   -9   -5    4     -0.67      0.00
   -8   -5    4      0.42      0.00
   -7   -5    4      0.81      0.00
   -6   -5    4     -0.22      0.00
   -5   -5    4     -0.24      0.00
   -4   -5    4      1.15      0.00
   -3   -5    4      2.01      0.00
   -2   -5    4      2.15      0.00
   -1   -5    4      0.46      0.00
    0   -5    4      4.82      0.00
    1   -5    4      1.80      0.00
    2   -5    4     -4.32      0.00
    3   -5    4     -5.59      0.00
    4   -5    4     -3.62      0.00
    5   -5    4      3.07      0.00
    6   -5    4      2.52      0.00
    7   -5    4     -1.09      0.00
    8   -5    4      0.86      0.00
    9   -5    4     -0.56      0.00
   10   -5    4     -0.76      0.00
   -9   -4    4      0.87      0.00
   -8   -4    4      2.28      0.00
   -7   -4    4      0.81      0.00
   -6   -4    4     -0.52      0.00
   -5   -4    4      1.17      0.00
   -4   -4    4      2.65      0.00
   -3   -4    4      3.57      0.00
   -2   -4    4      9.21      0.00
   -1   -4    4      8.10      0.00
    0   -4    4      9.31      0.00
    1   -4    4     -2.49      0.00
    2   -4    4     -0.30      0.00
    3   -4    4      6.03      0.00
    4   -4    4      4.95      0.00
    5   -4    4      1.25      0.00
    6   -4    4     -3.95      0.00
    7   -4    4     -2.02      0.00
    8   -4    4      1.97      0.00
    9   -4    4      2.19      0.00
   10   -4    4     -0.84      0.00
   -9   -3    4     -0.30      0.00
   -8   -3    4     -0.26      0.00
   -7   -3    4      0.01      0.00
   -6   -3    4      1.40      0.00
   -5   -3    4     -0.74      0.00
   -4   -3    4     -3.36      0.00
   -3   -3    4     -3.28      0.00
   -2   -3    4     -6.98      0.00
   -1   -3    4    -18.83      0.00
    0   -3    4     -7.60      0.00
    1   -3    4     -2.39      0.00
    2   -3    4     11.39      0.00
    3   -3    4      0.18      0.00
    4   -3    4     -8.72      0.00
    5   -3    4     -2.74      0.00
    6   -3    4     -0.56      0.00
    7   -3    4      0.95      0.00
    8   -3    4     -2.02      0.00
    9   -3    4     -1.36      0.00
   10   -3    4     -0.78      0.00
   -9   -2    4      1.07      0.00
   -8   -2    4      3.03      0.00
   -7   -2    4      1.50      0.00
   -6   -2    4     -0.65      0.00
   -5   -2    4     -0.53      0.00
   -4   -2    4      1.32      0.00
   -3   -2    4      1.13      0.00
   -2   -2    4     -1.43      0.00
   -1   -2    4      3.46      0.00
    0   -2    4     20.14      0.00
    1   -2    4     -8.01      0.00
    2   -2    4     -9.52      0.00
    3   -2    4     -7.58      0.00
    4   -2    4      5.50      0.00
    5   -2    4      8.28      0.00
    6   -2    4     -1.41      0.00
    7   -2    4     -1.71      0.00
    8   -2    4      0.20      0.00
    9   -2    4      1.91      0.00
   10   -2    4     -1.08      0.00
   11   -2    4      0.47      0.00
  -10   -1    4     -0.75      0.00
   -9   -1    4     -1.77      0.00
   -8   -1    4     -2.07      0.00
   -7   -1    4     -1.81      0.00
   -6   -1    4      3.09      0.00
   -5   -1    4      4.30      0.00
   -4   -1    4      3.98      0.00
   -3   -1    4     10.47      0.00
   -2   -1    4     10.41      0.00
   -1   -1    4     -7.01      0.00
    0   -1    4    -22.23      0.00
    1   -1    4    -42.28      0.00
    2   -1    4      2.98      0.00
    3   -1    4      4.58      0.00
    4   -1    4     -4.55      0.00
    5   -1    4     -7.30      0.00
    6   -1    4     -4.81      0.00
    7   -1    4      1.22      0.00
    8   -1    4     -0.12      0.00
    9   -1    4     -3.62      0.00
   10   -1    4     -1.86      0.00
   11   -1    4      2.63      0.00
  -10    0    4      0.64      0.00
   -9    0    4     -0.09      0.00
   -8    0    4      2.88      0.00
   -7    0    4      3.46      0.00
   -6    0    4      1.81      0.00
   -5    0    4      0.02      0.00
   -4    0    4      5.27      0.00
   -3    0    4      9.65      0.00
   -2    0    4      3.10      0.00
   -1    0    4     15.16      0.00
    0    0    4     52.77      0.00
    1    0    4     33.69      0.00
    2    0    4     24.51      0.00
    3    0    4    -13.45      0.00
    4    0    4     -6.68      0.00
    5    0    4      3.62      0.00
    6    0    4      1.38      0.00
    7    0    4     -0.47      0.00
    8    0    4      0.92      0.00
    9    0    4     -0.32      0.00
   10    0    4     -0.84      0.00
   11    0    4      1.21      0.00
  -10    1    4      0.47      0.00
   -9    1    4     -0.90      0.00
   -8    1    4     -1.77      0.00
   -7    1    4     -3.24      0.00
   -6    1    4     -0.90      0.00
   -5    1    4     -0.20      0.00
   -4    1    4     -1.61      0.00
   -3    1    4     -0.89      0.00
   -2    1    4      8.87      0.00
   -1    1    4     21.61      0.00
    0    1    4     11.43      0.00
    1    1    4    -31.95      0.00
    2    1    4     -5.43      0.00
    3    1    4     -3.31      0.00
    4    1    4      4.59      0.00
    5    1    4     -3.15      0.00
    6    1    4     -5.48      0.00
    7    1    4     -1.60      0.00
    8    1    4     -0.14      0.00
    9    1    4     -4.03      0.00
   10    1    4     -2.65      0.00
   11    1    4      1.76      0.00
  -10    2    4      1.33      0.00
   -9    2    4     -0.76      0.00
   -8    2    4      2.05      0.00
   -7    2    4      4.47      0.00
   -6    2    4      3.43      0.00
   -5    2    4      1.03      0.00
   -4    2    4      4.94      0.00
   -3    2    4      5.83      0.00
   -2    2    4     -5.05      0.00
   -1    2    4    -13.78      0.00
    0    2    4     -0.04      0.00
    1    2    4     14.82      0.00
    2    2    4     38.39      0.00
    3    2    4      8.64      0.00
    4    2    4      3.01      0.00
    5    2    4      0.23      0.00
    6    2    4      0.42      0.00
    7    2    4     -2.32      0.00
    8    2    4     -1.77      0.00
    9    2    4     -0.80      0.00
   10    2    4      0.31      0.00
   11    2    4      2.00      0.00
  -10    3    4     -1.02      0.00
   -9    3    4     -0.52      0.00
   -8    3    4      1.66      0.00
   -7    3    4      0.45      0.00
   -6    3    4      0.10      0.00
   -5    3    4     -0.09      0.00
   -4    3    4     -0.23      0.00
   -3    3    4     -8.20      0.00
   -2    3    4     -7.72      0.00
   -1    3    4      1.35      0.00
    0    3    4     -2.95      0.00
    2    3    4    -22.72      0.00
    3    3    4    -23.37      0.00
    4    3    4     -3.53      0.00
    5    3    4     -1.40      0.00
    6    3    4     -1.78      0.00
    7    3    4      0.20      0.00
    8    3    4      1.24      0.00
    9    3    4     -0.79      0.00
   10    3    4     -0.79      0.00
  -10    4    4      0.98      0.00
   -9    4    4      0.05      0.00
   -8    4    4      1.20      0.00
   -7    4    4      2.33      0.00
   -6    4    4      2.02      0.00
   -5    4    4      2.15      0.00
   -4    4    4      8.46      0.00
   -3    4    4     11.04      0.00
   -2    4    4     17.42      0.00
   -1    4    4     12.18      0.00
    0    4    4     -2.91      0.00
    1    4    4     -5.13      0.00
    3    4    4      4.23      0.00
    4    4    4      4.25      0.00
    5    4    4     -0.35      0.00
    6    4    4     -0.58      0.00
    7    4    4     -0.09      0.00
    8    4    4     -0.69      0.00
    9    4    4      0.20      0.00
   10    4    4      0.50      0.00
   -9    5    4     -2.44      0.00
   -8    5    4     -1.64      0.00
   -7    5    4      0.60      0.00
   -6    5    4      0.91      0.00
   -5    5    4      1.34      0.00
   -4    5    4      3.16      0.00
   -3    5    4     -3.43      0.00
   -2    5    4     -2.65      0.00
   -1    5    4     -0.24      0.00
    0    5    4      4.49      0.00
    2    5    4      4.00      0.00
    3    5    4     -6.69      0.00
    4    5    4     -8.68      0.00
    5    5    4     -5.04      0.00
    6    5    4     -4.07      0.00
    7    5    4     -1.05      0.00
    8    5    4     -0.42      0.00
    9    5    4      0.67      0.00
   10    5    4      0.74      0.00
   -9    6    4      0.72      0.00
   -8    6    4      0.69      0.00
   -7    6    4      2.93      0.00
   -6    6    4     -0.33      0.00
   -5    6    4     -0.66      0.00
   -4    6    4      1.84      0.00
   -3    6    4      2.74      0.00
   -2    6    4      9.70      0.00
   -1    6    4     12.32      0.00
    0    6    4     12.07      0.00
    2    6    4      1.39      0.00
    3    6    4      3.52      0.00
    4    6    4      3.59      0.00
    5    6    4      4.18      0.00
    6    6    4      0.14      0.00
    7    6    4     -1.49      0.00
    8    6    4     -2.67      0.00
    9    6    4     -0.45      0.00
   10    6    4     -0.22      0.00
   -9    7    4     -0.66      0.00
   -8    7    4     -3.05      0.00
   -7    7    4     -0.44      0.00
   -6    7    4     -1.33      0.00
   -5    7    4      0.29      0.00
   -4    7    4      0.53      0.00
   -3    7    4     -0.47      0.00
   -2    7    4     -1.49      0.00
   -1    7    4     -6.14      0.00
    0    7    4     -6.64      0.00
    1    7    4     -2.74      0.00
    2    7    4      3.25      0.00
    3    7    4      7.30      0.00
    4    7    4      1.42      0.00
    5    7    4      1.11      0.00
    6    7    4     -0.06      0.00
    7    7    4      0.13      0.00
    8    7    4     -0.72      0.00
    9    7    4     -0.83      0.00
   -9    8    4      0.80      0.00
   -8    8    4      0.83      0.00
   -7    8    4      3.19      0.00
   -6    8    4      1.55      0.00
   -5    8    4      2.67      0.00
   -4    8    4      1.61      0.00
   -3    8    4      0.30      0.00
   -2    8    4     -0.10      0.00
   -1    8    4     -0.62      0.00
    0    8    4      3.27      0.00
    1    8    4      3.52      0.00
    2    8    4     -1.85      0.00
    3    8    4     -1.78      0.00
    4    8    4     -3.51      0.00
    5    8    4      0.50      0.00
    6    8    4      1.17      0.00
    7    8    4     -0.72      0.00
    8    8    4      0.07      0.00
    9    8    4      0.14      0.00
   -8    9    4     -0.52      0.00
   -7    9    4     -0.74      0.00
   -6    9    4     -1.29      0.00
   -5    9    4     -0.95      0.00
   -4    9    4      0.05      0.00
   -3    9    4      0.53      0.00
   -2    9    4      2.65      0.00
   -1    9    4      1.87      0.00
    0    9    4     -1.50      0.00
    1    9    4     -5.51      0.00
    2    9    4     -6.43      0.00
    3    9    4     -0.64      0.00
    4    9    4     -0.55      0.00
    5    9    4     -0.04      0.00
    6    9    4     -0.26      0.00
    7    9    4      0.02      0.00
    8    9    4      2.56      0.00
    9    9    4      0.35      0.00
   -8   10    4      0.78      0.00
   -7   10    4      0.80      0.00
   -6   10    4      0.66      0.00
   -5   10    4      0.21      0.00
   -4   10    4      3.19      0.00
   -3   10    4      3.13      0.00
   -2   10    4      1.37      0.00
   -1   10    4     -3.02      0.00
    0   10    4     -2.42      0.00
    1   10    4      2.42      0.00
    2   10    4      1.54      0.00
    3   10    4      0.76      0.00
    4   10    4     -0.24      0.00
    5   10    4     -0.51      0.00
    6   10    4     -2.37      0.00
    7   10    4     -3.35      0.00
    8   10    4     -0.27      0.00
   -7   11    4     -0.41      0.00
   -6   11    4     -0.44      0.00
   -5   11    4     -1.91      0.00
   -4   11    4      0.44      0.00
   -3   11    4     -2.10      0.00
   -2   11    4     -2.74      0.00
   -1   11    4      2.96      0.00
    0   11    4      4.68      0.00
    1   11    4      2.76      0.00
    2   11    4     -1.45      0.00
    3   11    4      0.26      0.00
    4   11    4      1.68      0.00
    5   11    4      0.23      0.00
    6   11    4     -1.99      0.00
    7   11    4     -1.41      0.00
    8   11    4     -0.48      0.00
   -7   12    4     -0.05      0.00
   -6   12    4      0.29      0.00
   -5   12    4     -2.20      0.00
   -4   12    4     -0.38      0.00
   -3   12    4      2.96      0.00
   -2   12    4      3.05      0.00
   -1   12    4      1.57      0.00
    0   12    4     -2.55      0.00
    1   12    4      1.01      0.00
    2   12    4      0.31      0.00
    3   12    4      0.66      0.00
    4   12    4      0.66      0.00
    5   12    4      1.55      0.00
    6   12    4     -0.19      0.00
    7   12    4     -0.37      0.00
   -6   13    4     -1.19      0.00
   -3   13    4      1.52      0.00
   -2   13    4     -6.21      0.00
   -1   13    4     -5.93      0.00
    0   13    4     -1.16      0.00
    1   13    4      2.82      0.00
    2   13    4     -1.98      0.00
    3   13    4     -0.54      0.00
    4   13    4     -0.47      0.00
    5   13    4     -1.75      0.00
    6   13    4     -3.20      0.00
   -3   14    4     -1.64      0.00
   -2   14    4     -1.73      0.00
   -1   14    4     -0.37      0.00
    0   14    4      1.36      0.00
    1   14    4      1.65      0.00
    2   14    4      0.76      0.00
    3   14    4      3.14      0.00
    4   14    4      0.97      0.00
    5   14    4      0.30      0.00
   -3   15    4      3.92      0.00
   -2   15    4      2.49      0.00
   -1   15    4     -2.16      0.00
    0   15    4      0.08      0.00
    1   15    4      0.89      0.00
    2   15    4      0.56      0.00
    3   15    4      1.11      0.00
    4   15    4      1.84      0.00
   -1   16    4     -1.75      0.00
    0   16    4      1.40      0.00
    1   16    4     -0.40      0.00
   -2  -14    5      0.42      0.00
   -1  -14    5     -0.54      0.00
    0  -14    5      2.31      0.00
    1  -14    5     -0.27      0.00
    2  -14    5      0.76      0.00
    3  -14    5     -1.20      0.00
    4  -14    5      0.49      0.00
   -3  -13    5      1.18      0.00
   -2  -13    5     -0.65      0.00
   -1  -13    5     -2.78      0.00
    0  -13    5      0.57      0.00
    1  -13    5     -2.68      0.00
    2  -13    5      1.15      0.00
    3  -13    5      2.43      0.00
    4  -13    5      1.80      0.00
    5  -13    5      0.04      0.00
   -4  -12    5     -0.94      0.00
   -3  -12    5     -1.58      0.00
   -2  -12    5     -2.07      0.00
   -1  -12    5     -3.60      0.00
    0  -12    5      0.19      0.00
    1  -12    5     -1.75      0.00
    2  -12    5      0.90      0.00
    3  -12    5      0.95      0.00
    4  -12    5      0.14      0.00
    5  -12    5      2.36      0.00
    6  -12    5     -0.92      0.00
   -5  -11    5      1.12      0.00
   -4  -11    5      0.30      0.00
   -3  -11    5      0.20      0.00
   -2  -11    5      0.81      0.00
   -1  -11    5      0.28      0.00
    0  -11    5      4.86      0.00
    1  -11    5      1.48      0.00
    2  -11    5      0.48      0.00
    3  -11    5      1.18      0.00
    4  -11    5     -0.56      0.00
    5  -11    5      0.81      0.00
    6  -11    5     -3.16      0.00
    7  -11    5     -0.20      0.00
   -6  -10    5      1.75      0.00
   -5  -10    5      2.55      0.00
   -4  -10    5      0.79      0.00
   -3  -10    5     -0.37      0.00
   -2  -10    5      1.20      0.00
   -1  -10    5     -0.33      0.00
    0  -10    5      0.31      0.00
    1  -10    5     -1.04      0.00
    2  -10    5      1.52      0.00
    3  -10    5      1.15      0.00
    4  -10    5     -0.62      0.00
    5  -10    5      3.05      0.00
    6  -10    5      0.82      0.00
    7  -10    5      3.39      0.00
    8  -10    5      2.69      0.00
   -7   -9    5     -0.42      0.00
   -6   -9    5     -3.54      0.00
   -5   -9    5     -2.76      0.00
   -4   -9    5     -1.60      0.00
   -3   -9    5     -0.34      0.00
   -2   -9    5      0.72      0.00
   -1   -9    5     -0.68      0.00
    0   -9    5      0.67      0.00
    1   -9    5     -0.63      0.00
    2   -9    5     -0.36      0.00
    3   -9    5     -1.05      0.00
    4   -9    5     -1.01      0.00
    5   -9    5     -1.36      0.00
    6   -9    5     -4.29      0.00
    7   -9    5     -2.52      0.00
    8   -9    5     -1.40      0.00
    9   -9    5     -0.21      0.00
   -7   -8    5     -0.37      0.00
   -6   -8    5     -0.10      0.00
   -5   -8    5      0.57      0.00
   -4   -8    5     -1.69      0.00
   -3   -8    5     -4.07      0.00
   -2   -8    5     -3.26      0.00
   -1   -8    5     -1.53      0.00
    0   -8    5     -0.17      0.00
    1   -8    5     -0.57      0.00
    2   -8    5      3.19      0.00
    3   -8    5      2.47      0.00
    4   -8    5      2.53      0.00
    5   -8    5      2.59      0.00
    6   -8    5      2.84      0.00
    7   -8    5      4.54      0.00
    8   -8    5      2.16      0.00
    9   -8    5     -0.16      0.00
   -8   -7    5     -1.52      0.00
   -7   -7    5     -1.61      0.00
   -6   -7    5     -1.10      0.00
   -5   -7    5     -2.15      0.00
   -4   -7    5     -3.21      0.00
   -3   -7    5     -1.75      0.00
   -2   -7    5      0.74      0.00
   -1   -7    5     -0.01      0.00
    0   -7    5     -2.00      0.00
    1   -7    5     -4.91      0.00
    2   -7    5     -4.19      0.00
    3   -7    5     -6.33      0.00
    4   -7    5     -4.76      0.00
    5   -7    5     -4.46      0.00
    6   -7    5     -3.07      0.00
    7   -7    5     -0.82      0.00
    8   -7    5     -3.53      0.00
    9   -7    5     -1.00      0.00
   -8   -6    5     -1.67      0.00
   -7   -6    5     -1.25      0.00
   -6   -6    5      1.23      0.00
   -5   -6    5      3.67      0.00
   -4   -6    5      5.80      0.00
   -3   -6    5      4.40      0.00
   -2   -6    5     -1.78      0.00
   -1   -6    5     -5.33      0.00
    0   -6    5     -3.85      0.00
    1   -6    5     -0.29      0.00
    2   -6    5      4.98      0.00
    3   -6    5      4.03      0.00
    4   -6    5      3.92      0.00
    5   -6    5      0.90      0.00
    6   -6    5      0.06      0.00
    7   -6    5      3.22      0.00
    8   -6    5     -0.62      0.00
    9   -6    5      0.23      0.00
   10   -6    5     -0.27      0.00
   -9   -5    5      1.20      0.00
   -8   -5    5      0.56      0.00
   -7   -5    5      1.30      0.00
   -6   -5    5      1.31      0.00
   -5   -5    5      1.60      0.00
   -4   -5    5     -0.99      0.00
   -3   -5    5     -2.28      0.00
   -2   -5    5      2.06      0.00
   -1   -5    5      9.46      0.00
    0   -5    5      4.88      0.00
    1   -5    5     -2.23      0.00
    2   -5    5     -7.52      0.00
    3   -5    5     -8.66      0.00
    4   -5    5     -7.00      0.00
    5   -5    5     -8.89      0.00
    6   -5    5     -5.43      0.00
    7   -5    5     -0.22      0.00
    8   -5    5     -2.21      0.00
    9   -5    5      0.13      0.00
   10   -5    5      0.25      0.00
   -9   -4    5      1.88      0.00
   -8   -4    5      0.15      0.00
   -7   -4    5      1.21      0.00
   -6   -4    5      1.16      0.00
   -5   -4    5      0.44      0.00
   -4   -4    5      2.22      0.00
   -3   -4    5      9.64      0.00
   -2   -4    5      9.76      0.00
   -1   -4    5      4.50      0.00
    0   -4    5     -6.00      0.00
    1   -4    5      3.27      0.00
    2   -4    5      6.31      0.00
    3   -4    5      6.51      0.00
    4   -4    5      4.97      0.00
    5   -4    5      3.47      0.00
    6   -4    5      5.45      0.00
    7   -4    5      3.22      0.00
    8   -4    5     -0.17      0.00
    9   -4    5     -0.04      0.00
   10   -4    5      1.36      0.00
   -9   -3    5     -0.35      0.00
   -8   -3    5     -1.13      0.00
   -7   -3    5     -0.69      0.00
   -6   -3    5     -2.22      0.00
   -5   -3    5      0.10      0.00
   -4   -3    5     -0.80      0.00
   -3   -3    5    -10.26      0.00
   -2   -3    5    -18.27      0.00
   -1   -3    5     -7.05      0.00
    0   -3    5      0.24      0.00
    1   -3    5      9.88      0.00
    2   -3    5     -6.53      0.00
    3   -3    5     -4.66      0.00
    4   -3    5     -2.86      0.00
    5   -3    5     -6.27      0.00
    6   -3    5     -4.76      0.00
    7   -3    5     -4.51      0.00
    8   -3    5      0.20      0.00
    9   -3    5      1.17      0.00
   10   -3    5      0.68      0.00
   -9   -2    5      1.54      0.00
   -8   -2    5      1.75      0.00
   -7   -2    5      2.67      0.00
   -6   -2    5      3.76      0.00
   -5   -2    5      2.41      0.00
   -4   -2    5     -2.52      0.00
   -3   -2    5      0.85      0.00
   -2   -2    5     12.67      0.00
   -1   -2    5     10.39      0.00
    0   -2    5    -15.38      0.00
    1   -2    5     -8.59      0.00
    2   -2    5     -7.29      0.00
    3   -2    5      7.02      0.00
    4   -2    5      1.09      0.00
    5   -2    5      0.08      0.00
    6   -2    5      6.73      0.00
    7   -2    5      3.31      0.00
    8   -2    5      0.24      0.00
    9   -2    5     -2.59      0.00
   10   -2    5      0.19      0.00
   11   -2    5     -1.13      0.00
   -9   -1    5      0.49      0.00
   -8   -1    5      0.16      0.00
   -7   -1    5     -0.71      0.00
   -6   -1    5     -3.47      0.00
   -5   -1    5     -0.23      0.00
   -4   -1    5      6.72      0.00
   -3   -1    5      6.22      0.00
   -2   -1    5     -5.55      0.00
   -1   -1    5    -19.01      0.00
    0   -1    5    -15.46      0.00
    1   -1    5      8.43      0.00
    2   -1    5    -12.65      0.00
    3   -1    5     -7.15      0.00
    4   -1    5     -5.05      0.00
    5   -1    5     -2.06      0.00
    6   -1    5     -2.67      0.00
    7   -1    5     -6.75      0.00
    8   -1    5     -3.06      0.00
    9   -1    5      1.56      0.00
   10   -1    5      0.65      0.00
   11   -1    5     -3.27      0.00
   -9    0    5      0.73      0.00
   -8    0    5     -0.53      0.00
   -7    0    5      0.78      0.00
   -6    0    5      5.33      0.00
   -5    0    5      9.93      0.00
   -4    0    5      3.71      0.00
   -3    0    5     -0.65      0.00
   -2    0    5     15.76      0.00
   -1    0    5     28.55      0.00
    0    0    5     18.89      0.00
    1    0    5     10.30      0.00
    2    0    5    -11.21      0.00
    3    0    5      4.48      0.00
    4    0    5     -3.88      0.00
    5    0    5     -5.26      0.00
    6    0    5      1.51      0.00
    7    0    5      4.85      0.00
    8    0    5      2.04      0.00
    9    0    5     -0.50      0.00
   10    0    5     -2.27      0.00
   11    0    5     -2.35      0.00
   -9    1    5      0.36      0.00
   -8    1    5     -0.01      0.00
   -7    1    5      0.91      0.00
   -6    1    5     -3.18      0.00
   -5    1    5     -6.36      0.00
   -4    1    5     -4.89      0.00
   -3    1    5      5.87      0.00
   -2    1    5     11.39      0.00
   -1    1    5     -0.70      0.00
    0    1    5      1.76      0.00
    1    1    5     19.72      0.00
    2    1    5      1.00      0.00
    3    1    5      0.82      0.00
    4    1    5     -7.59      0.00
    5    1    5     -0.58      0.00
    6    1    5      0.17      0.00
    7    1    5     -4.61      0.00
    8    1    5     -6.15      0.00
    9    1    5      0.35      0.00
   10    1    5      0.66      0.00
   11    1    5     -1.91      0.00
   -9    2    5      2.76      0.00
   -8    2    5     -0.24      0.00
   -7    2    5     -0.86      0.00
   -6    2    5      2.41      0.00
   -5    2    5      8.60      0.00
   -4    2    5      6.76      0.00
   -3    2    5     -0.45      0.00
   -2    2    5     -8.02      0.00
   -1    2    5     -8.89      0.00
    0    2    5      1.00      0.00
    1    2    5      4.79      0.00
    2    2    5     -3.99      0.00
    3    2    5     11.18      0.00
    4    2    5      3.34      0.00
    5    2    5      0.22      0.00
    6    2    5     -2.26      0.00
    7    2    5      0.19      0.00
    8    2    5      0.19      0.00
    9    2    5      0.87      0.00
   10    2    5     -0.73      0.00
   11    2    5     -2.02      0.00
   -9    3    5      0.21      0.00
   -8    3    5     -1.19      0.00
   -7    3    5      2.94      0.00
   -6    3    5      3.37      0.00
   -5    3    5     -1.33      0.00
   -4    3    5     -8.05      0.00
   -3    3    5     -3.51      0.00
   -2    3    5      0.43      0.00
   -1    3    5     -2.93      0.00
    0    3    5     -3.09      0.00
    1    3    5     -4.67      0.00
    2    3    5     -8.64      0.00
    3    3    5     -2.98      0.00
    4    3    5     -9.68      0.00
    5    3    5     -2.95      0.00
    6    3    5      0.82      0.00
    7    3    5     -0.57      0.00
    8    3    5     -2.73      0.00
    9    3    5      0.50      0.00
   10    3    5      1.16      0.00
   -9    4    5      1.15      0.00
   -8    4    5      1.30      0.00
   -7    4    5      1.03      0.00
   -6    4    5      1.12      0.00
   -5    4    5      3.24      0.00
   -4    4    5      5.71      0.00
   -3    4    5     12.90      0.00
   -2    4    5      8.13      0.00
   -1    4    5      0.32      0.00
    0    4    5     -4.18      0.00
    1    4    5    -12.28      0.00
    2    4    5    -12.38      0.00
    3    4    5     -2.95      0.00
    4    4    5     -0.71      0.00
    5    4    5      1.57      0.00
    6    4    5      0.54      0.00
    7    4    5      0.73      0.00
    8    4    5      1.63      0.00
    9    4    5      0.35      0.00
   10    4    5     -1.42      0.00
   -9    5    5     -1.44      0.00
   -8    5    5     -0.99      0.00
   -7    5    5     -0.94      0.00
   -6    5    5      2.10      0.00
   -5    5    5      4.19      0.00
   -4    5    5      1.81      0.00
   -3    5    5      1.96      0.00
   -2    5    5     -1.91      0.00
   -1    5    5      4.51      0.00
    0    5    5     12.77      0.00
    1    5    5     11.17      0.00
    3    5    5      0.48      0.00
    4    5    5     -5.45      0.00
    5    5    5     -7.68      0.00
    6    5    5     -3.80      0.00
    7    5    5     -3.63      0.00
    8    5    5     -1.66      0.00
    9    5    5      0.18      0.00
   10    5    5      0.93      0.00
   -9    6    5     -0.11      0.00
   -8    6    5      1.27      0.00
   -7    6    5     -0.24      0.00
   -6    6    5      2.70      0.00
   -5    6    5      0.08      0.00
   -4    6    5     -2.82      0.00
   -3    6    5      2.06      0.00
   -2    6    5      4.70      0.00
   -1    6    5      9.04      0.00
    0    6    5      5.22      0.00
    1    6    5      0.34      0.00
    2    6    5     -1.07      0.00
    3    6    5     -1.79      0.00
    4    6    5      1.66      0.00
    5    6    5      1.56      0.00
    6    6    5      3.17      0.00
    7    6    5      1.01      0.00
    8    6    5      1.33      0.00
    9    6    5     -0.53      0.00
   10    6    5     -0.81      0.00
   -9    7    5     -1.95      0.00
   -8    7    5      1.24      0.00
   -7    7    5     -1.17      0.00
   -6    7    5     -0.52      0.00
   -5    7    5     -1.53      0.00
   -4    7    5      2.06      0.00
   -3    7    5      3.66      0.00
   -2    7    5     -1.20      0.00
   -1    7    5     -3.38      0.00
    0    7    5     -3.27      0.00
    2    7    5      5.76      0.00
    3    7    5      4.21      0.00
    4    7    5      4.64      0.00
    5    7    5     -0.30      0.00
    6    7    5     -0.37      0.00
    7    7    5     -1.92      0.00
    8    7    5     -2.71      0.00
    9    7    5     -1.93      0.00
   10    7    5     -0.30      0.00
   -8    8    5      1.79      0.00
   -7    8    5     -1.53      0.00
   -6    8    5      2.49      0.00
   -5    8    5      2.47      0.00
   -4    8    5      1.29      0.00
   -3    8    5     -2.71      0.00
   -2    8    5     -2.35      0.00
   -1    8    5      1.96      0.00
    0    8    5      1.23      0.00
    1    8    5     -0.69      0.00
    2    8    5     -1.35      0.00
    3    8    5     -3.08      0.00
    4    8    5     -0.84      0.00
    5    8    5     -1.12      0.00
    6    8    5      1.42      0.00
    7    8    5      3.51      0.00
    8    8    5      0.70      0.00
    9    8    5      0.79      0.00
   -8    9    5      0.47      0.00
   -7    9    5      0.54      0.00
   -6    9    5      1.15      0.00
   -5    9    5     -1.79      0.00
   -4    9    5     -0.53      0.00
   -3    9    5      2.50      0.00
   -2    9    5      4.15      0.00
   -1    9    5     -0.47      0.00
    0    9    5     -4.82      0.00
    1    9    5     -4.98      0.00
    2    9    5     -3.62      0.00
    3    9    5     -4.23      0.00
    4    9    5     -1.31      0.00
    5    9    5     -0.60      0.00
    6    9    5     -0.10      0.00
    7    9    5      1.45      0.00
    8    9    5     -1.18      0.00
    9    9    5      1.84      0.00
   -8   10    5      1.47      0.00
   -7   10    5      0.05      0.00
   -6   10    5     -0.81      0.00
   -5   10    5      0.24      0.00
   -4   10    5      2.50      0.00
   -3   10    5      1.73      0.00
   -2   10    5     -0.52      0.00
   -1   10    5     -0.30      0.00
    0   10    5      2.05      0.00
    1   10    5     -0.12      0.00
    2   10    5      0.49      0.00
    3   10    5      1.46      0.00
    4   10    5      0.67      0.00
    5   10    5     -2.16      0.00
    6   10    5     -2.13      0.00
    7   10    5      0.05      0.00
    8   10    5     -3.04      0.00
   -7   11    5      0.02      0.00
   -6   11    5      0.94      0.00
   -5   11    5      1.17      0.00
   -4   11    5     -2.92      0.00
   -3   11    5     -2.03      0.00
   -2   11    5      2.91      0.00
   -1   11    5      2.04      0.00
    0   11    5      0.91      0.00
    1   11    5     -0.03      0.00
    2   11    5      1.89      0.00
    3   11    5      0.04      0.00
    4   11    5     -1.13      0.00
    5   11    5      0.16      0.00
    6   11    5      1.62      0.00
    7   11    5     -0.69      0.00
    8   11    5     -3.45      0.00
   -6   12    5     -1.42      0.00
   -5   12    5     -1.86      0.00
   -4   12    5     -2.04      0.00
   -3   12    5      0.35      0.00
   -2   12    5      0.93      0.00
   -1   12    5     -1.24      0.00
    0   12    5      1.21      0.00
    1   12    5     -0.49      0.00
    2   12    5      0.31      0.00
    3   12    5      0.00      0.00
    4   12    5      0.89      0.00
    5   12    5     -0.90      0.00
    6   12    5     -0.56      0.00
    7   12    5     -0.53      0.00
   -6   13    5     -0.82      0.00
   -5   13    5      1.64      0.00
   -3   13    5     -3.22      0.00
   -2   13    5     -0.41      0.00
   -1   13    5     -0.16      0.00
    0   13    5     -0.76      0.00
    1   13    5     -1.25      0.00
    2   13    5      3.54      0.00
    3   13    5      0.85      0.00
    4   13    5     -1.14      0.00
    5   13    5     -1.42      0.00
    6   13    5      1.92      0.00
   -3   14    5     -4.02      0.00
   -2   14    5     -2.04      0.00
   -1   14    5     -1.44      0.00
    0   14    5     -2.05      0.00
    1   14    5     -0.73      0.00
    2   14    5      1.56      0.00
    3   14    5     -1.45      0.00
    4   14    5     -0.30      0.00
    5   14    5     -0.60      0.00
   -3   15    5     -0.10      0.00
   -2   15    5      1.52      0.00
   -1   15    5      3.35      0.00
    0   15    5     -0.38      0.00
    1   15    5     -0.48      0.00
    2   15    5      2.35      0.00
    3   15    5      3.60      0.00
    4   15    5      3.00      0.00
   -1   16    5      1.42      0.00
    0   16    5     -0.73      0.00
    1   16    5      0.32      0.00
    0  -14    6     -0.34      0.00
    1  -14    6      2.87      0.00
    2  -14    6      1.91      0.00
   -3  -13    6     -0.43      0.00
   -2  -13    6     -1.15      0.00
   -1  -13    6     -0.86      0.00
    0  -13    6     -4.92      0.00
    1  -13    6      1.30      0.00
    2  -13    6     -0.89      0.00
    3  -13    6     -1.39      0.00
    4  -13    6     -1.56      0.00
    5  -13    6      0.20      0.00
   -4  -12    6      0.43      0.00
   -3  -12    6     -1.09      0.00
   -2  -12    6     -2.02      0.00
   -1  -12    6      0.94      0.00
    0  -12    6     -1.89      0.00
    1  -12    6      2.96      0.00
    2  -12    6      1.36      0.00
    3  -12    6      3.27      0.00
    4  -12    6      2.64      0.00
    5  -12    6     -0.31      0.00
    6  -12    6      0.72      0.00
   -5  -11    6      0.96      0.00
   -4  -11    6      0.36      0.00
   -3  -11    6     -0.51      0.00
   -2  -11    6     -0.93      0.00
   -1  -11    6      1.73      0.00
    0  -11    6     -2.94      0.00
    1  -11    6      0.74      0.00
    2  -11    6      0.23      0.00
    3  -11    6     -0.72      0.00
    4  -11    6     -1.07      0.00
    5  -11    6     -0.60      0.00
    6  -11    6      3.39      0.00
    7  -11    6      0.67      0.00
   -6  -10    6      1.29      0.00
   -5  -10    6      0.12      0.00
   -4  -10    6      0.60      0.00
   -3  -10    6      1.62      0.00
   -2  -10    6     -0.72      0.00
   -1  -10    6      1.87      0.00
    0  -10    6      2.32      0.00
    1  -10    6      5.59      0.00
    2  -10    6      1.71      0.00
    3  -10    6      0.61      0.00
    4  -10    6      1.18      0.00
    5  -10    6     -0.92      0.00
    6  -10    6     -0.14      0.00
    7  -10    6     -2.93      0.00
    8  -10    6     -0.76      0.00
   -6   -9    6     -0.51      0.00
   -5   -9    6     -1.67      0.00
   -4   -9    6     -1.60      0.00
   -3   -9    6     -0.79      0.00
   -2   -9    6     -1.76      0.00
   -1   -9    6      0.10      0.00
    0   -9    6     -2.39      0.00
    1   -9    6     -2.08      0.00
    2   -9    6     -1.37      0.00
    3   -9    6      1.77      0.00
    4   -9    6      1.04      0.00
    5   -9    6      0.62      0.00
    6   -9    6      2.36      0.00
    7   -9    6      1.78      0.00
    8   -9    6      3.58      0.00
   -7   -8    6     -0.26      0.00
   -6   -8    6     -0.31      0.00
   -5   -8    6     -2.32      0.00
   -4   -8    6     -2.34      0.00
   -3   -8    6     -1.00      0.00
   -2   -8    6     -0.74      0.00
   -1   -8    6      0.46      0.00
    0   -8    6      1.49      0.00
    1   -8    6      3.50      0.00
    2   -8    6      0.19      0.00
    3   -8    6     -1.12      0.00
    4   -8    6     -2.51      0.00
    5   -8    6     -0.22      0.00
    6   -8    6     -0.43      0.00
    7   -8    6     -3.59      0.00
    8   -8    6     -1.47      0.00
    9   -8    6     -0.01      0.00
   -7   -7    6     -1.83      0.00
   -6   -7    6     -1.25      0.00
   -5   -7    6     -1.10      0.00
   -4   -7    6     -0.51      0.00
   -3   -7    6     -1.56      0.00
   -2   -7    6     -3.46      0.00
   -1   -7    6     -3.83      0.00
    0   -7    6     -3.56      0.00
    1   -7    6     -3.09      0.00
    2   -7    6     -4.27      0.00
    3   -7    6     -0.44      0.00
    4   -7    6      1.47      0.00
    5   -7    6      4.26      0.00
    6   -7    6      2.54      0.00
    7   -7    6      0.06      0.00
    8   -7    6      3.30      0.00
    9   -7    6      0.09      0.00
   -8   -6    6      0.85      0.00
   -7   -6    6      0.08      0.00
   -6   -6    6      1.48      0.00
   -5   -6    6      3.01      0.00
   -4   -6    6      3.79      0.00
   -3   -6    6      1.45      0.00
   -2   -6    6      0.35      0.00
   -1   -6    6     -0.58      0.00
    0   -6    6     -1.13      0.00
    1   -6    6      0.03      0.00
    2   -6    6     -0.40      0.00
    3   -6    6      0.01      0.00
    4   -6    6     -4.17      0.00
    5   -6    6     -4.92      0.00
    6   -6    6     -4.49      0.00
    7   -6    6     -4.96      0.00
    8   -6    6      0.38      0.00
    9   -6    6     -0.48      0.00
   10   -6    6      0.26      0.00
   -8   -5    6      1.32      0.00
   -7   -5    6     -0.06      0.00
   -6   -5    6      1.21      0.00
   -5   -5    6     -0.17      0.00
   -4   -5    6      0.49      0.00
   -3   -5    6      1.65      0.00
   -2   -5    6      1.67      0.00
   -1   -5    6     -0.90      0.00
    0   -5    6      0.49      0.00
    1   -5    6     -0.08      0.00
    2   -5    6     -1.93      0.00
    3   -5    6     -4.03      0.00
    4   -5    6     -3.88      0.00
    5   -5    6      1.90      0.00
    6   -5    6      1.69      0.00
    7   -5    6     -1.90      0.00
    8   -5    6      1.18      0.00
    9   -5    6     -1.04      0.00
   10   -5    6     -0.79      0.00
   -8   -4    6      3.08      0.00
   -7   -4    6      1.14      0.00
   -6   -4    6      0.16      0.00
   -5   -4    6     -0.10      0.00
   -4   -4    6      3.54      0.00
   -3   -4    6      3.23      0.00
   -2   -4    6      4.13      0.00
   -1   -4    6      5.26      0.00
    0   -4    6      7.87      0.00
    1   -4    6     -2.48      0.00
    2   -4    6     -3.69      0.00
    3   -4    6     -1.81      0.00
    4   -4    6      1.97      0.00
    5   -4    6      1.39      0.00
    6   -4    6     -4.40      0.00
    7   -4    6     -3.27      0.00
    8   -4    6      2.42      0.00
    9   -4    6      2.86      0.00
   10   -4    6      0.30      0.00
   -9   -3    6     -0.59      0.00
   -8   -3    6     -0.44      0.00
   -7   -3    6     -1.28      0.00
   -6   -3    6      1.98      0.00
   -5   -3    6      0.32      0.00
   -4   -3    6     -2.29      0.00
   -3   -3    6     -3.45      0.00
   -2   -3    6     -3.76      0.00
   -1   -3    6     -9.26      0.00
    0   -3    6     -5.34      0.00
    1   -3    6     -3.78      0.00
    2   -3    6     12.69      0.00
    3   -3    6      4.45      0.00
    4   -3    6     -2.39      0.00
    5   -3    6     -2.11      0.00
    6   -3    6     -1.12      0.00
    7   -3    6      2.46      0.00
    8   -3    6      0.14      0.00
    9   -3    6     -1.53      0.00
   10   -3    6     -1.79      0.00
   -9   -2    6      1.40      0.00
   -8   -2    6      2.89      0.00
   -7   -2    6      2.82      0.00
   -6   -2    6     -0.30      0.00
   -5   -2    6     -3.79      0.00
   -4   -2    6     -0.80      0.00
   -3   -2    6     -1.06      0.00
   -2   -2    6     -6.84      0.00
   -1   -2    6     -5.63      0.00
    0   -2    6      7.05      0.00
    1   -2    6     -3.96      0.00
    2   -2    6     -5.97      0.00
    3   -2    6    -15.70      0.00
    4   -2    6     -0.18      0.00
    5   -2    6      5.09      0.00
    6   -2    6     -1.18      0.00
    7   -2    6     -1.70      0.00
    8   -2    6     -1.93      0.00
    9   -2    6      1.66      0.00
   10   -2    6      0.19      0.00
   11   -2    6      0.44      0.00
   -9   -1    6      0.14      0.00
   -8   -1    6     -0.45      0.00
   -7   -1    6     -0.64      0.00
   -6   -1    6      2.40      0.00
   -5   -1    6      4.23      0.00
   -4   -1    6      4.53      0.00
   -3   -1    6      4.25      0.00
   -2   -1    6      4.71      0.00
   -1   -1    6      1.78      0.00
    0   -1    6    -14.76      0.00
    1   -1    6    -30.79      0.00
    2   -1    6     -1.70      0.00
    3   -1    6      3.66      0.00
    4   -1    6      5.46      0.00
    5   -1    6     -3.98      0.00
    6   -1    6     -4.71      0.00
    7   -1    6      1.79      0.00
    8   -1    6      0.70      0.00
    9   -1    6     -2.39      0.00
   10   -1    6     -2.28      0.00
   11   -1    6      1.52      0.00
   -9    0    6     -0.19      0.00
   -8    0    6      1.85      0.00
   -7    0    6      3.91      0.00
   -6    0    6      2.31      0.00
   -5    0    6     -1.34      0.00
   -4    0    6      2.75      0.00
   -3    0    6      5.51      0.00
   -2    0    6     -0.18      0.00
   -1    0    6      2.15      0.00
    0    0    6     12.52      0.00
    1    0    6     17.54      0.00
    2    0    6     14.03      0.00
    3    0    6    -17.11      0.00
    4    0    6    -10.90      0.00
    5    0    6     -2.88      0.00
    6    0    6      0.25      0.00
    7    0    6     -0.63      0.00
    8    0    6     -2.00      0.00
    9    0    6     -2.56      0.00
   10    0    6     -0.95      0.00
   11    0    6      0.47      0.00
   -9    1    6     -1.08      0.00
   -8    1    6     -0.05      0.00
   -7    1    6     -2.56      0.00
   -6    1    6     -1.88      0.00
   -5    1    6      0.20      0.00
   -4    1    6      3.18      0.00
   -3    1    6      0.83      0.00
   -2    1    6      6.18      0.00
   -1    1    6     22.44      0.00
    0    1    6     11.75      0.00
    1    1    6    -11.81      0.00
    2    1    6    -10.50      0.00
    3    1    6     -7.30      0.00
    4    1    6      6.73      0.00
    5    1    6     -0.01      0.00
    6    1    6     -3.41      0.00
    7    1    6     -0.35      0.00
    8    1    6      1.99      0.00
    9    1    6     -2.29      0.00
   10    1    6     -1.08      0.00
   11    1    6      1.65      0.00
   -9    2    6     -1.25      0.00
   -8    2    6      1.09      0.00
   -7    2    6      2.26      0.00
   -6    2    6      2.97      0.00
   -5    2    6      0.62      0.00
   -4    2    6      2.01      0.00
   -3    2    6     -0.07      0.00
   -2    2    6     -4.58      0.00
   -1    2    6    -10.54      0.00
    0    2    6    -13.61      0.00
    1    2    6      8.50      0.00
    2    2    6     25.70      0.00
    3    2    6      9.12      0.00
    4    2    6      1.93      0.00
    5    2    6     -3.10      0.00
    6    2    6     -0.84      0.00
    7    2    6     -2.13      0.00
    8    2    6     -2.50      0.00
    9    2    6     -2.67      0.00
   10    2    6      0.47      0.00
   11    2    6      1.35      0.00
   -9    3    6     -1.05      0.00
   -8    3    6      2.78      0.00
   -7    3    6      0.67      0.00
   -6    3    6      0.20      0.00
   -5    3    6      0.09      0.00
   -4    3    6      0.16      0.00
   -3    3    6     -6.26      0.00
   -2    3    6     -6.56      0.00
   -1    3    6     -0.69      0.00
    0    3    6     -2.89      0.00
    1    3    6     -7.02      0.00
    2    3    6    -16.13      0.00
    3    3    6    -19.18      0.00
    4    3    6     -4.10      0.00
    5    3    6     -0.82      0.00
    6    3    6     -1.09      0.00
    7    3    6      0.30      0.00
    8    3    6      2.60      0.00
    9    3    6     -0.29      0.00
   10    3    6      0.06      0.00
   -9    4    6     -0.17      0.00
   -8    4    6      0.94      0.00
   -7    4    6      0.96      0.00
   -6    4    6      1.57      0.00
   -5    4    6      2.30      0.00
   -4    4    6      5.51      0.00
   -3    4    6      6.15      0.00
   -2    4    6     11.14      0.00
   -1    4    6      6.08      0.00
    0    4    6     -7.76      0.00
    1    4    6     -8.29      0.00
    2    4    6     -2.97      0.00
    3    4    6      3.02      0.00
    4    4    6      5.43      0.00
    5    4    6      0.29      0.00
    6    4    6     -0.75      0.00
    7    4    6      0.24      0.00
    8    4    6     -0.93      0.00
    9    4    6     -1.74      0.00
   10    4    6     -0.39      0.00
   -9    5    6     -1.01      0.00
   -8    5    6     -0.71      0.00
   -7    5    6      0.73      0.00
   -6    5    6      1.56      0.00
   -5    5    6      2.96      0.00
   -4    5    6      3.00      0.00
   -3    5    6     -1.78      0.00
   -2    5    6     -0.53      0.00
   -1    5    6     -1.53      0.00
    0    5    6      1.04      0.00
    1    5    6      5.45      0.00
    3    5    6     -6.98      0.00
    4    5    6     -9.51      0.00
    5    5    6     -6.25      0.00
    6    5    6     -5.25      0.00
    7    5    6     -0.60      0.00
    8    5    6      0.98      0.00
    9    5    6      0.63      0.00
   10    5    6      0.63      0.00
   -9    6    6      1.14      0.00
   -8    6    6      0.03      0.00
   -7    6    6      3.23      0.00
   -6    6    6      0.28      0.00
   -5    6    6     -0.07      0.00
   -4    6    6      1.24      0.00
   -3    6    6      1.81      0.00
   -2    6    6      7.85      0.00
   -1    6    6      8.52      0.00
    0    6    6     10.78      0.00
    1    6    6      7.15      0.00
    3    6    6      1.30      0.00
    4    6    6      2.59      0.00
    5    6    6      4.82      0.00
    6    6    6     -0.02      0.00
    7    6    6     -0.11      0.00
    8    6    6     -1.46      0.00
    9    6    6     -0.22      0.00
   10    6    6      0.23      0.00
   -8    7    6     -2.67      0.00
   -7    7    6     -0.96      0.00
   -6    7    6     -2.27      0.00
   -5    7    6      0.63      0.00
   -4    7    6      0.24      0.00
   -3    7    6     -0.51      0.00
   -2    7    6     -0.63      0.00
   -1    7    6     -5.38      0.00
    0    7    6     -5.03      0.00
    1    7    6     -4.69      0.00
    3    7    6      4.48      0.00
    4    7    6      0.78      0.00
    5    7    6      0.75      0.00
    6    7    6     -2.08      0.00
    7    7    6      0.33      0.00
    8    7    6      1.33      0.00
    9    7    6     -0.15      0.00
   10    7    6     -0.41      0.00
   -8    8    6     -0.71      0.00
   -7    8    6      3.45      0.00
   -6    8    6      1.86      0.00
   -5    8    6      3.10      0.00
   -4    8    6      0.49      0.00
   -3    8    6     -0.09      0.00
   -2    8    6     -1.06      0.00
   -1    8    6     -1.81      0.00
    0    8    6      1.77      0.00
    4    8    6     -2.44      0.00
    5    8    6      1.17      0.00
    6    8    6      1.07      0.00
    7    8    6     -0.47      0.00
    8    8    6      1.45      0.00
    9    8    6      0.05      0.00
   -8    9    6     -1.40      0.00
   -7    9    6     -0.98      0.00
   -6    9    6     -2.27      0.00
   -5    9    6     -0.13      0.00
   -4    9    6     -1.24      0.00
   -3    9    6      1.16      0.00
   -2    9    6      1.46      0.00
   -1    9    6      2.26      0.00
    0    9    6     -1.56      0.00
    1    9    6     -6.90      0.00
    2    9    6     -7.31      0.00
    6    9    6     -0.29      0.00
    7    9    6     -0.86      0.00
    8    9    6      4.53      0.00
    9    9    6      0.19      0.00
   -7   10    6      1.32      0.00
   -6   10    6      0.60      0.00
   -5   10    6      2.31      0.00
   -4   10    6      2.46      0.00
   -3   10    6      3.73      0.00
   -2   10    6      1.20      0.00
   -1   10    6     -1.34      0.00
    0   10    6     -4.96      0.00
    1   10    6     -0.96      0.00
    2   10    6      1.77      0.00
    3   10    6      0.35      0.00
    4   10    6     -0.84      0.00
    5   10    6     -1.02      0.00
    6   10    6     -1.54      0.00
    7   10    6     -3.67      0.00
    8   10    6      1.20      0.00
   -7   11    6     -0.02      0.00
   -6   11    6     -1.32      0.00
   -5   11    6     -0.98      0.00
   -4   11    6     -1.02      0.00
   -3   11    6     -2.36      0.00
   -2   11    6     -3.97      0.00
   -1   11    6      1.63      0.00
    0   11    6      4.12      0.00
    1   11    6      3.84      0.00
    2   11    6      0.02      0.00
    3   11    6     -0.21      0.00
    4   11    6      1.34      0.00
    5   11    6      0.92      0.00
    6   11    6     -1.06      0.00
    7   11    6     -1.42      0.00
    8   11    6      1.56      0.00
   -6   12    6     -0.75      0.00
   -5   12    6     -0.79      0.00
   -4   12    6     -0.36      0.00
   -3   12    6      0.39      0.00
   -2   12    6      2.28      0.00
   -1   12    6      3.33      0.00
    0   12    6     -0.84      0.00
    1   12    6     -0.24      0.00
    2   12    6      0.61      0.00
    3   12    6      1.40      0.00
    4   12    6     -0.20      0.00
    5   12    6      0.46      0.00
    6   12    6     -0.40      0.00
    7   12    6     -0.65      0.00
   -5   13    6     -3.20      0.00
   -4   13    6     -0.52      0.00
   -3   13    6     -0.27      0.00
   -2   13    6     -4.91      0.00
   -1   13    6     -5.93      0.00
    0   13    6     -1.55      0.00
    1   13    6      2.07      0.00
    2   13    6     -1.04      0.00
    3   13    6     -0.61      0.00
    4   13    6     -1.03      0.00
    5   13    6     -0.46      0.00
    6   13    6     -2.25      0.00
   -3   14    6     -2.95      0.00
   -2   14    6     -3.00      0.00
   -1   14    6     -0.68      0.00
    0   14    6      1.77      0.00
    1   14    6      0.69      0.00
    2   14    6     -0.30      0.00
    3   14    6      2.99      0.00
    4   14    6      0.40      0.00
    5   14    6     -0.45      0.00
   -2   15    6      2.11      0.00
   -1   15    6     -1.52      0.00
    0   15    6     -0.14      0.00
    1   15    6      1.01      0.00
    2   15    6      1.31      0.00
    3   15    6      1.84      0.00
    4   15    6      1.17      0.00
    0   16    6      1.29      0.00
    1   16    6      0.19      0.00
   -2  -13    7      1.25      0.00
   -1  -13    7     -2.06      0.00
    0  -13    7      2.30      0.00
    1  -13    7     -1.64      0.00
    3  -13    7      2.52      0.00
    4  -13    7      2.14      0.00
   -3  -12    7     -0.64      0.00
   -2  -12    7     -1.16      0.00
   -1  -12    7     -3.97      0.00
    0  -12    7      0.58      0.00
    1  -12    7     -4.24      0.00
    3  -12    7      0.15      0.00
    4  -12    7      0.66      0.00
    5  -12    7     -0.17      0.00
    6  -12    7     -0.39      0.00
   -4  -11    7     -0.06      0.00
   -3  -11    7     -0.24      0.00
   -2  -11    7      1.38      0.00
   -1  -11    7     -0.88      0.00
    0  -11    7      4.60      0.00
    1  -11    7      1.23      0.00
    2  -11    7      3.25      0.00
    3  -11    7      2.03      0.00
    4  -11    7      1.88      0.00
    5  -11    7     -0.27      0.00
    6  -11    7     -1.67      0.00
    7  -11    7     -0.23      0.00
   -5  -10    7      0.84      0.00
   -4  -10    7      0.68      0.00
   -3  -10    7     -0.79      0.00
   -2  -10    7      0.93      0.00
   -1  -10    7     -1.20      0.00
    0  -10    7      2.09      0.00
    1  -10    7     -1.13      0.00
    2  -10    7      0.44      0.00
    3  -10    7     -0.82      0.00
    4  -10    7      0.27      0.00
    5  -10    7      0.66      0.00
    6  -10    7      1.78      0.00
    7  -10    7      4.34      0.00
    8  -10    7      2.07      0.00
   -6   -9    7     -1.80      0.00
   -5   -9    7     -1.94      0.00
   -4   -9    7     -1.19      0.00
   -3   -9    7     -1.18      0.00
   -2   -9    7      1.38      0.00
   -1   -9    7     -0.61      0.00
    0   -9    7      1.57      0.00
    1   -9    7      0.85      0.00
    2   -9    7      2.14      0.00
    3   -9    7      0.16      0.00
    4   -9    7      1.16      0.00
    5   -9    7     -1.45      0.00
    6   -9    7     -1.55      0.00
    7   -9    7     -1.05      0.00
    8   -9    7     -3.75      0.00
   -7   -8    7      0.74      0.00
   -6   -8    7     -0.77      0.00
   -5   -8    7     -0.36      0.00
   -4   -8    7     -0.93      0.00
   -3   -8    7     -1.97      0.00
   -2   -8    7     -0.75      0.00
   -1   -8    7     -0.92      0.00
    0   -8    7      0.12      0.00
    1   -8    7     -0.38      0.00
    2   -8    7      1.69      0.00
    3   -8    7      0.85      0.00
    4   -8    7      2.86      0.00
    5   -8    7      0.81      0.00
    6   -8    7      2.98      0.00
    7   -8    7      4.87      0.00
    8   -8    7      1.93      0.00
    9   -8    7      1.84      0.00
   -7   -7    7     -0.05      0.00
   -6   -7    7     -1.15      0.00
   -5   -7    7     -1.00      0.00
   -4   -7    7     -2.65      0.00
   -3   -7    7     -2.78      0.00
   -2   -7    7     -1.00      0.00
   -1   -7    7      0.08      0.00
    0   -7    7     -1.17      0.00
    1   -7    7     -3.03      0.00
    2   -7    7     -2.91      0.00
    3   -7    7     -4.96      0.00
    4   -7    7     -3.39      0.00
    5   -7    7     -4.75      0.00
    6   -7    7     -0.76      0.00
    7   -7    7      1.05      0.00
    8   -7    7     -3.79      0.00
    9   -7    7     -1.43      0.00
   -7   -6    7      0.49      0.00
   -6   -6    7      0.73      0.00
   -5   -6    7      3.38      0.00
   -4   -6    7      4.05      0.00
   -3   -6    7      4.59      0.00
   -2   -6    7     -0.03      0.00
   -1   -6    7     -4.59      0.00
    0   -6    7     -4.83      0.00
    1   -6    7     -0.77      0.00
    2   -6    7      4.01      0.00
    3   -6    7      3.76      0.00
    4   -6    7      3.83      0.00
    5   -6    7      1.06      0.00
    6   -6    7      2.14      0.00
    7   -6    7      3.33      0.00
    8   -6    7     -1.39      0.00
    9   -6    7     -0.20      0.00
   10   -6    7     -0.04      0.00
   -8   -5    7      0.21      0.00
   -7   -5    7      2.89      0.00
   -6   -5    7      0.01      0.00
   -5   -5    7      1.09      0.00
   -4   -5    7     -0.69      0.00
   -3   -5    7     -3.28      0.00
   -2   -5    7     -3.10      0.00
   -1   -5    7      2.75      0.00
    0   -5    7      3.44      0.00
    1   -5    7     -1.37      0.00
    2   -5    7     -7.25      0.00
    3   -5    7     -8.45      0.00
    4   -5    7     -6.84      0.00
    5   -5    7     -9.28      0.00
    6   -5    7     -6.46      0.00
    7   -5    7     -1.66      0.00
    8   -5    7     -3.03      0.00
    9   -5    7      0.46      0.00
   10   -5    7      1.25      0.00
   -8   -4    7     -0.31      0.00
   -7   -4    7      1.71      0.00
   -6   -4    7      1.18      0.00
   -5   -4    7      2.11      0.00
   -4   -4    7      0.61      0.00
   -3   -4    7      6.62      0.00
   -2   -4    7     11.12      0.00
   -1   -4    7      6.43      0.00
    0   -4    7     -3.38      0.00
    1   -4    7     -0.26      0.00
    2   -4    7      3.94      0.00
    3   -4    7      7.57      0.00
    4   -4    7      4.45      0.00
    5   -4    7      2.10      0.00
    6   -4    7      5.64      0.00
    7   -4    7      4.99      0.00
    8   -4    7      0.20      0.00
    9   -4    7     -0.65      0.00
   10   -4    7     -0.37      0.00
   -8   -3    7     -2.15      0.00
   -7   -3    7      0.26      0.00
   -6   -3    7     -2.55      0.00
   -5   -3    7     -1.47      0.00
   -4   -3    7     -0.85      0.00
   -3   -3    7     -5.36      0.00
   -2   -3    7    -14.29      0.00
   -1   -3    7    -12.67      0.00
    0   -3    7     -2.72      0.00
    1   -3    7      8.18      0.00
    2   -3    7     -4.65      0.00
    3   -3    7     -6.04      0.00
    4   -3    7     -6.66      0.00
    5   -3    7     -5.82      0.00
    6   -3    7     -4.08      0.00
    7   -3    7     -4.84      0.00
    8   -3    7     -1.55      0.00
    9   -3    7      1.51      0.00
   10   -3    7      1.75      0.00
   -9   -2    7      2.19      0.00
   -8   -2    7      2.45      0.00
   -7   -2    7      2.31      0.00
   -6   -2    7      3.40      0.00
   -5   -2    7      4.52      0.00
   -4   -2    7     -1.96      0.00
   -3   -2    7     -3.11      0.00
   -2   -2    7      6.50      0.00
   -1   -2    7     10.40      0.00
    0   -2    7     -2.15      0.00
    1   -2    7     -5.22      0.00
    2   -2    7     -5.98      0.00
    3   -2    7     11.15      0.00
    4   -2    7      4.66      0.00
    5   -2    7      2.72      0.00
    6   -2    7      5.76      0.00
    7   -2    7      4.26      0.00
    8   -2    7      3.01      0.00
    9   -2    7     -1.07      0.00
   10   -2    7     -0.71      0.00
   -9   -1    7      0.97      0.00
   -8   -1    7      0.56      0.00
   -7   -1    7     -0.09      0.00
   -6   -1    7     -2.36      0.00
   -5   -1    7     -3.25      0.00
   -4   -1    7     -0.56      0.00
   -3   -1    7      3.33      0.00
   -2   -1    7     -4.75      0.00
   -1   -1    7    -22.90      0.00
    0   -1    7    -22.63      0.00
    1   -1    7     -4.98      0.00
    2   -1    7    -11.08      0.00
    3   -1    7     -7.19      0.00
    4   -1    7    -11.79      0.00
    5   -1    7     -3.69      0.00
    6   -1    7     -2.95      0.00
    7   -1    7     -6.73      0.00
    8   -1    7     -4.57      0.00
    9   -1    7     -1.35      0.00
   10   -1    7     -0.23      0.00
   11   -1    7     -2.97      0.00
   -9    0    7      1.12      0.00
   -8    0    7      0.75      0.00
   -7    0    7      0.55      0.00
   -6    0    7      4.31      0.00
   -5    0    7      9.70      0.00
   -4    0    7      6.36      0.00
   -3    0    7      1.95      0.00
   -2    0    7      6.61      0.00
   -1    0    7     16.26      0.00
    0    0    7     21.07      0.00
    1    0    7      6.93      0.00
    2    0    7     -9.21      0.00
    3    0    7      4.12      0.00
    4    0    7     -0.20      0.00
    5    0    7      0.85      0.00
    6    0    7      1.20      0.00
    7    0    7      3.19      0.00
    8    0    7      3.45      0.00
    9    0    7      0.39      0.00
   10    0    7     -2.48      0.00
   11    0    7     -2.15      0.00
   -9    1    7      0.63      0.00
   -8    1    7     -0.89      0.00
   -7    1    7      0.21      0.00
   -6    1    7     -1.78      0.00
   -5    1    7     -5.39      0.00
   -4    1    7     -7.40      0.00
   -3    1    7      2.45      0.00
   -2    1    7      8.25      0.00
   -1    1    7     -1.68      0.00
    0    1    7     -4.13      0.00
    1    1    7     -2.26      0.00
    2    1    7     -3.37      0.00
    3    1    7     -2.26      0.00
    4    1    7    -10.84      0.00
    5    1    7     -3.68      0.00
    6    1    7     -1.27      0.00
    7    1    7     -4.25      0.00
    8    1    7     -5.85      0.00
    9    1    7     -1.81      0.00
   10    1    7     -1.30      0.00
   11    1    7     -1.99      0.00
   -9    2    7      2.02      0.00
   -8    2    7      0.15      0.00
   -7    2    7     -0.08      0.00
   -6    2    7      0.55      0.00
   -5    2    7      5.48      0.00
   -4    2    7      6.33      0.00
   -3    2    7      4.92      0.00
   -2    2    7     -4.66      0.00
   -1    2    7     -7.11      0.00
    0    2    7      6.23      0.00
    1    2    7      5.96      0.00
    2    2    7      2.98      0.00
    3    2    7      7.86      0.00
    4    2    7      4.38      0.00
    5    2    7      3.83      0.00
    6    2    7      0.09      0.00
    7    2    7     -0.13      0.00
    8    2    7      1.85      0.00
    9    2    7      2.70      0.00
   10    2    7     -0.35      0.00
   11    2    7     -1.13      0.00
   -9    3    7      0.63      0.00
   -8    3    7     -2.02      0.00
   -7    3    7      1.60      0.00
   -6    3    7      1.99      0.00
   -5    3    7     -1.23      0.00
   -4    3    7     -7.86      0.00
   -3    3    7     -7.53      0.00
   -2    3    7     -7.23      0.00
   -1    3    7     -5.72      0.00
    0    3    7     -3.89      0.00
    1    3    7     -8.98      0.00
    2    3    7     -5.46      0.00
    3    3    7     -2.79      0.00
    4    3    7     -7.00      0.00
    5    3    7     -3.61      0.00
    6    3    7     -0.22      0.00
    7    3    7     -1.61      0.00
    8    3    7     -3.36      0.00
    9    3    7     -0.55      0.00
   10    3    7     -0.24      0.00
   -9    4    7      0.86      0.00
   -8    4    7      1.21      0.00
   -7    4    7      2.54      0.00
   -6    4    7      1.54      0.00
   -5    4    7      2.17      0.00
   -4    4    7      4.23      0.00
   -3    4    7     10.07      0.00
   -2    4    7      7.24      0.00
   -1    4    7      1.89      0.00
    0    4    7     -4.61      0.00
    1    4    7    -13.02      0.00
    2    4    7     -9.24      0.00
    3    4    7     -4.76      0.00
    4    4    7     -0.76      0.00
    5    4    7      2.80      0.00
    6    4    7      2.30      0.00
    7    4    7      0.42      0.00
    8    4    7      1.66      0.00
    9    4    7      1.15      0.00
   10    4    7     -1.79      0.00
   -9    5    7     -2.14      0.00
   -8    5    7     -1.01      0.00
   -7    5    7     -0.09      0.00
   -6    5    7      0.90      0.00
   -5    5    7      1.65      0.00
   -4    5    7      1.84      0.00
   -3    5    7      0.57      0.00
   -2    5    7     -4.76      0.00
   -1    5    7     -0.48      0.00
    0    5    7      4.09      0.00
    1    5    7      4.18      0.00
    2    5    7      4.30      0.00
    3    5    7     -1.55      0.00
    4    5    7     -3.81      0.00
    5    5    7     -5.70      0.00
    6    5    7     -2.84      0.00
    7    5    7     -4.03      0.00
    8    5    7     -2.84      0.00
    9    5    7     -0.17      0.00
   10    5    7      0.21      0.00
   -8    6    7      2.38      0.00
   -7    6    7      0.24      0.00
   -6    6    7      2.35      0.00
   -5    6    7      1.18      0.00
   -4    6    7     -0.37      0.00
   -3    6    7      1.70      0.00
   -2    6    7      3.97      0.00
   -1    6    7     10.32      0.00
    0    6    7      5.70      0.00
    1    6    7     -0.59      0.00
    3    6    7     -5.16      0.00
    4    6    7     -0.69      0.00
    5    6    7      0.03      0.00
    6    6    7      3.32      0.00
    7    6    7      0.39      0.00
    8    6    7      1.48      0.00
    9    6    7      1.33      0.00
   10    6    7     -0.29      0.00
   -8    7    7      0.77      0.00
   -7    7    7     -0.57      0.00
   -6    7    7     -0.12      0.00
   -5    7    7     -2.68      0.00
   -4    7    7      0.86      0.00
   -3    7    7      2.59      0.00
   -2    7    7     -1.85      0.00
   -1    7    7     -3.34      0.00
    0    7    7     -5.48      0.00
    1    7    7      1.54      0.00
    3    7    7      3.94      0.00
    4    7    7      4.49      0.00
    5    7    7      0.52      0.00
    6    7    7      2.26      0.00
    7    7    7     -1.23      0.00
    8    7    7     -2.79      0.00
    9    7    7     -0.65      0.00
   10    7    7      0.34      0.00
   -8    8    7      2.35      0.00
   -7    8    7     -1.92      0.00
   -6    8    7      0.72      0.00
   -5    8    7      1.64      0.00
   -4    8    7      2.07      0.00
   -3    8    7     -2.55      0.00
   -2    8    7     -3.56      0.00
   -1    8    7      1.07      0.00
    0    8    7      1.63      0.00
    1    8    7      0.63      0.00
    4    8    7     -1.52      0.00
    5    8    7     -2.19      0.00
    6    8    7      1.23      0.00
    7    8    7      2.37      0.00
    8    8    7      0.13      0.00
    9    8    7      2.07      0.00
   -8    9    7      0.06      0.00
   -7    9    7     -0.08      0.00
   -6    9    7      1.45      0.00
   -5    9    7     -2.00      0.00
   -4    9    7     -0.65      0.00
   -3    9    7      0.84      0.00
   -2    9    7      3.68      0.00
   -1    9    7     -0.67      0.00
    0    9    7     -5.70      0.00
    1    9    7     -6.52      0.00
    4    9    7     -0.94      0.00
    8    9    7     -2.16      0.00
    9    9    7      2.33      0.00
   -7   10    7     -0.74      0.00
   -6   10    7     -0.94      0.00
   -5   10    7     -0.69      0.00
   -4   10    7      4.02      0.00
   -3   10    7      3.09      0.00
   -2   10    7      0.28      0.00
   -1   10    7     -2.58      0.00
    0   10    7      1.71      0.00
    1   10    7      0.17      0.00
    2   10    7     -1.27      0.00
    3   10    7      1.42      0.00
    8   10    7     -2.49      0.00
   -7   11    7     -0.48      0.00
   -6   11    7      1.37      0.00
   -5   11    7      0.47      0.00
   -4   11    7     -1.21      0.00
   -3   11    7     -3.07      0.00
   -2   11    7      0.83      0.00
   -1   11    7      1.94      0.00
    0   11    7      2.15      0.00
    1   11    7     -0.63      0.00
    2   11    7      0.14      0.00
    3   11    7      0.01      0.00
    4   11    7     -1.45      0.00
    5   11    7     -0.64      0.00
    6   11    7      0.47      0.00
    7   11    7      0.42      0.00
    8   11    7     -3.73      0.00
   -6   12    7     -0.52      0.00
   -5   12    7     -3.61      0.00
   -4   12    7     -2.71      0.00
   -3   12    7      0.55      0.00
   -2   12    7      0.49      0.00
   -1   12    7     -2.12      0.00
    0   12    7     -0.32      0.00
    1   12    7      0.82      0.00
    2   12    7      0.81      0.00
    3   12    7      0.38      0.00
    4   12    7      2.39      0.00
    5   12    7      1.48      0.00
    6   12    7      0.17      0.00
    7   12    7      0.22      0.00
   -5   13    7      0.28      0.00
   -4   13    7      0.31      0.00
   -3   13    7     -1.93      0.00
   -2   13    7     -2.16      0.00
   -1   13    7      0.26      0.00
    0   13    7      0.04      0.00
    1   13    7      0.57      0.00
    2   13    7      2.28      0.00
    3   13    7      0.54      0.00
    4   13    7     -0.62      0.00
    5   13    7     -2.46      0.00
    6   13    7      0.27      0.00
   -2   14    7     -2.18      0.00
   -1   14    7     -1.12      0.00
    0   14    7     -3.33      0.00
    1   14    7     -0.98      0.00
    2   14    7      0.38      0.00
    3   14    7     -2.51      0.00
    4   14    7     -0.72      0.00
    5   14    7     -0.46      0.00
   -2   15    7      1.55      0.00
   -1   15    7      2.47      0.00
    0   15    7     -0.39      0.00
    1   15    7      0.37      0.00
    2   15    7      2.52      0.00
    3   15    7      3.51      0.00
    4   15    7      3.97      0.00
    0   16    7     -0.71      0.00
   -1  -13    8      0.84      0.00
    0  -13    8     -3.46      0.00
    4  -13    8     -1.05      0.00
   -3  -12    8     -0.17      0.00
   -2  -12    8     -0.99      0.00
   -1  -12    8      1.84      0.00
    0  -12    8     -2.42      0.00
    3  -12    8      3.43      0.00
    4  -12    8      2.01      0.00
    5  -12    8      1.21      0.00
   -4  -11    8     -0.31      0.00
   -3  -11    8     -0.22      0.00
   -2  -11    8     -1.00      0.00
   -1  -11    8      2.24      0.00
    0  -11    8     -3.22      0.00
    2  -11    8     -2.55      0.00
    3  -11    8     -1.66      0.00
    4  -11    8     -2.92      0.00
    5  -11    8      0.65      0.00
    6  -11    8      0.70      0.00
   -5  -10    8      2.11      0.00
   -4  -10    8      0.97      0.00
   -3  -10    8      1.18      0.00
   -2  -10    8     -0.93      0.00
   -1  -10    8      2.57      0.00
    0  -10    8      0.88      0.00
    2  -10    8      2.94      0.00
    3  -10    8      2.97      0.00
    4  -10    8      0.91      0.00
    5  -10    8      3.08      0.00
    6  -10    8     -0.35      0.00
    7  -10    8     -2.02      0.00
   -5   -9    8     -1.83      0.00
   -4   -9    8     -2.55      0.00
   -3   -9    8     -1.02      0.00
   -2   -9    8     -2.36      0.00
   -1   -9    8      1.00      0.00
    0   -9    8     -1.34      0.00
    1   -9    8     -0.38      0.00
    2   -9    8     -2.39      0.00
    3   -9    8      0.14      0.00
    4   -9    8     -1.58      0.00
    5   -9    8      1.89      0.00
    6   -9    8     -0.46      0.00
    7   -9    8      1.17      0.00
    8   -9    8      5.13      0.00
   -6   -8    8      0.70      0.00
   -5   -8    8     -0.56      0.00
   -4   -8    8     -1.43      0.00
   -3   -8    8     -0.24      0.00
   -2   -8    8     -0.47      0.00
   -1   -8    8      2.08      0.00
    0   -8    8      1.85      0.00
    1   -8    8      3.29      0.00
    2   -8    8      1.51      0.00
    3   -8    8      1.82      0.00
    4   -8    8     -1.74      0.00
    5   -8    8      2.34      0.00
    6   -8    8     -0.49      0.00
    7   -8    8     -1.51      0.00
    8   -8    8      0.36      0.00
    9   -8    8     -1.59      0.00
   -7   -7    8     -1.89      0.00
   -6   -7    8      0.22      0.00
   -5   -7    8     -1.12      0.00
   -4   -7    8     -1.07      0.00
   -3   -7    8     -0.58      0.00
   -2   -7    8     -1.24      0.00
   -1   -7    8     -2.28      0.00
    0   -7    8     -2.51      0.00
    1   -7    8     -2.79      0.00
    2   -7    8     -4.13      0.00
    3   -7    8     -1.56      0.00
    4   -7    8     -1.05      0.00
    5   -7    8      4.81      0.00
    6   -7    8      1.17      0.00
    7   -7    8      0.16      0.00
    8   -7    8      4.10      0.00
    9   -7    8      0.80      0.00
   -7   -6    8     -0.70      0.00
   -6   -6    8      2.29      0.00
   -5   -6    8      1.98      0.00
   -4   -6    8      3.35      0.00
   -3   -6    8      0.31      0.00
   -2   -6    8     -1.70      0.00
   -1   -6    8     -2.13      0.00
    0   -6    8     -0.22      0.00
    1   -6    8      0.23      0.00
    2   -6    8      0.06      0.00
    3   -6    8      1.01      0.00
    4   -6    8     -1.73      0.00
    5   -6    8     -1.04      0.00
    6   -6    8     -4.03      0.00
    7   -6    8     -3.13      0.00
    8   -6    8      1.22      0.00
    9   -6    8     -0.37      0.00
   -7   -5    8     -1.43      0.00
   -6   -5    8      2.39      0.00
   -5   -5    8      0.49      0.00
   -4   -5    8     -0.29      0.00
   -3   -5    8     -0.35      0.00
   -2   -5    8      1.60      0.00
   -1   -5    8     -0.74      0.00
    0   -5    8     -1.88      0.00
    1   -5    8     -2.10      0.00
    2   -5    8     -1.44      0.00
    3   -5    8     -2.38      0.00
    4   -5    8     -3.79      0.00
    5   -5    8      0.28      0.00
    6   -5    8     -0.29      0.00
    7   -5    8     -1.31      0.00
    8   -5    8      1.08      0.00
    9   -5    8     -1.19      0.00
   10   -5    8     -1.76      0.00
   -8   -4    8      2.94      0.00
   -7   -4    8      1.59      0.00
   -6   -4    8      1.26      0.00
   -5   -4    8     -2.14      0.00
   -4   -4    8      1.55      0.00
   -3   -4    8      2.52      0.00
   -2   -4    8      2.08      0.00
   -1   -4    8      3.15      0.00
    0   -4    8      4.99      0.00
    1   -4    8      0.42      0.00
    2   -4    8     -3.37      0.00
    3   -4    8     -4.81      0.00
    4   -4    8     -0.28      0.00
    5   -4    8      1.70      0.00
    6   -4    8     -3.48      0.00
    7   -4    8     -3.50      0.00
    8   -4    8      1.51      0.00
    9   -4    8      2.43      0.00
   10   -4    8      0.77      0.00
   -8   -3    8      0.10      0.00
   -7   -3    8     -2.01      0.00
   -6   -3    8      1.62      0.00
   -5   -3    8      1.97      0.00
   -4   -3    8     -0.26      0.00
   -3   -3    8     -3.29      0.00
   -2   -3    8     -2.52      0.00
   -1   -3    8     -2.52      0.00
    0   -3    8     -4.20      0.00
    1   -3    8     -3.47      0.00
    2   -3    8      8.04      0.00
    3   -3    8      6.44      0.00
    4   -3    8      2.51      0.00
    5   -3    8     -1.25      0.00
    6   -3    8     -1.25      0.00
    7   -3    8      2.53      0.00
    8   -3    8      2.60      0.00
    9   -3    8     -0.42      0.00
   10   -3    8     -1.93      0.00
   -8   -2    8      2.25      0.00
   -7   -2    8      2.82      0.00
   -6   -2    8      0.49      0.00
   -5   -2    8     -4.76      0.00
   -4   -2    8     -3.36      0.00
   -3   -2    8     -2.02      0.00
   -2   -2    8     -5.82      0.00
   -1   -2    8     -6.38      0.00
    0   -2    8     -0.78      0.00
    1   -2    8      0.42      0.00
    2   -2    8     -0.87      0.00
    3   -2    8    -12.97      0.00
    4   -2    8     -3.80      0.00
    5   -2    8      0.90      0.00
    6   -2    8     -0.01      0.00
    7   -2    8     -1.46      0.00
    8   -2    8     -2.19      0.00
    9   -2    8      0.64      0.00
   10   -2    8      1.15      0.00
   -8   -1    8      1.30      0.00
   -7   -1    8     -0.06      0.00
   -6   -1    8      0.94      0.00
   -5   -1    8      3.64      0.00
   -4   -1    8      4.14      0.00
   -3   -1    8      0.37      0.00
   -2   -1    8     -0.68      0.00
   -1   -1    8      1.30      0.00
    0   -1    8     -9.10      0.00
    1   -1    8    -20.01      0.00
    2   -1    8     -6.46      0.00
    3   -1    8      1.71      0.00
    4   -1    8      9.75      0.00
    5   -1    8     -0.06      0.00
    6   -1    8     -1.64      0.00
    7   -1    8      1.12      0.00
    8   -1    8      1.40      0.00
    9   -1    8     -0.39      0.00
   10   -1    8     -1.59      0.00
   -9    0    8      0.30      0.00
   -8    0    8      1.49      0.00
   -7    0    8      3.65      0.00
   -6    0    8      2.98      0.00
   -5    0    8     -0.59      0.00
   -4    0    8      0.12      0.00
   -3    0    8      1.18      0.00
   -2    0    8     -0.02      0.00
   -1    0    8     -1.99      0.00
    0    0    8     -3.29      0.00
    1    0    8      5.70      0.00
    2    0    8      7.91      0.00
    3    0    8    -11.36      0.00
    4    0    8    -10.04      0.00
    5    0    8     -7.07      0.00
    6    0    8     -0.77      0.00
    7    0    8     -1.32      0.00
    8    0    8     -3.82      0.00
    9    0    8     -3.86      0.00
   10    0    8     -1.89      0.00
   -9    1    8     -1.15      0.00
   -8    1    8      0.46      0.00
   -7    1    8     -1.79      0.00
   -6    1    8     -2.84      0.00
   -5    1    8     -0.55      0.00
   -4    1    8      3.71      0.00
   -3    1    8      1.81      0.00
   -2    1    8      5.39      0.00
   -1    1    8     14.97      0.00
    0    1    8     11.01      0.00
    1    1    8     -1.66      0.00
    2    1    8    -11.14      0.00
    3    1    8     -9.06      0.00
    4    1    8      4.88      0.00
    5    1    8      2.14      0.00
    6    1    8     -0.56      0.00
    7    1    8      0.31      0.00
    8    1    8      1.15      0.00
    9    1    8     -0.80      0.00
   10    1    8     -0.39      0.00
   -9    2    8     -0.46      0.00
   -8    2    8      0.72      0.00
   -7    2    8      1.05      0.00
   -6    2    8      2.31      0.00
   -5    2    8      0.70      0.00
   -4    2    8      1.05      0.00
   -3    2    8     -2.29      0.00
   -2    2    8     -2.28      0.00
   -1    2    8     -7.73      0.00
    0    2    8    -13.23      0.00
    1    2    8      1.19      0.00
    2    2    8     13.58      0.00
    3    2    8      9.76      0.00
    4    2    8      2.47      0.00
    5    2    8     -3.21      0.00
    6    2    8     -1.41      0.00
    7    2    8     -0.37      0.00
    8    2    8     -3.57      0.00
    9    2    8     -3.06      0.00
   10    2    8      0.20      0.00
   -9    3    8     -0.96      0.00
   -8    3    8      2.12      0.00
   -7    3    8      0.43      0.00
   -6    3    8     -0.03      0.00
   -5    3    8     -1.02      0.00
   -4    3    8     -1.49      0.00
   -3    3    8     -6.31      0.00
   -2    3    8     -5.05      0.00
   -1    3    8     -3.61      0.00
    0    3    8     -0.30      0.00
    1    3    8      1.36      0.00
    2    3    8     -9.13      0.00
    3    3    8    -12.63      0.00
    4    3    8     -5.50      0.00
    5    3    8     -0.24      0.00
    6    3    8      0.01      0.00
    7    3    8      1.79      0.00
    8    3    8      1.83      0.00
    9    3    8      0.94      0.00
   10    3    8      0.82      0.00
   -8    4    8      0.62      0.00
   -7    4    8      0.22      0.00
   -6    4    8      1.79      0.00
   -5    4    8      1.58      0.00
   -4    4    8      2.35      0.00
   -3    4    8      2.20      0.00
   -2    4    8      5.34      0.00
   -1    4    8     -0.64      0.00
    0    4    8     -8.75      0.00
    1    4    8    -10.49      0.00
    2    4    8     -8.06      0.00
    3    4    8      2.78      0.00
    4    4    8      4.91      0.00
    5    4    8      1.37      0.00
    6    4    8     -0.31      0.00
    7    4    8      1.42      0.00
    8    4    8     -2.39      0.00
    9    4    8     -3.61      0.00
   10    4    8     -1.49      0.00
   -8    5    8      0.36      0.00
   -7    5    8      0.21      0.00
   -6    5    8      1.49      0.00
   -5    5    8      3.00      0.00
   -4    5    8      1.58      0.00
   -3    5    8     -0.84      0.00
   -2    5    8     -0.04      0.00
   -1    5    8     -3.08      0.00
    0    5    8     -0.02      0.00
    1    5    8      2.37      0.00
    2    5    8     -2.44      0.00
    3    5    8     -3.68      0.00
    4    5    8     -8.72      0.00
    5    5    8     -6.29      0.00
    6    5    8     -4.32      0.00
    7    5    8      0.42      0.00
    8    5    8      1.24      0.00
    9    5    8      0.18      0.00
   10    5    8      0.28      0.00
   -8    6    8     -0.63      0.00
   -7    6    8      2.32      0.00
   -6    6    8      1.63      0.00
   -5    6    8      0.42      0.00
   -4    6    8     -0.82      0.00
   -3    6    8      0.95      0.00
   -2    6    8      5.11      0.00
   -1    6    8      4.11      0.00
    0    6    8      7.60      0.00
    1    6    8      4.97      0.00
    3    6    8      0.67      0.00
    4    6    8      0.22      0.00
    5    6    8      3.82      0.00
    6    6    8      0.66      0.00
    7    6    8      1.26      0.00
    8    6    8     -0.96      0.00
    9    6    8     -1.43      0.00
   10    6    8      0.64      0.00
   -8    7    8     -1.22      0.00
   -7    7    8     -1.04      0.00
   -6    7    8     -2.47      0.00
   -5    7    8      0.39      0.00
   -4    7    8     -0.30      0.00
   -3    7    8      0.16      0.00
   -2    7    8      0.64      0.00
   -1    7    8     -4.02      0.00
    0    7    8     -2.33      0.00
    1    7    8     -4.24      0.00
    3    7    8      2.31      0.00
    4    7    8     -0.55      0.00
    5    7    8      0.28      0.00
    6    7    8     -2.70      0.00
    7    7    8      1.13      0.00
    8    7    8      2.57      0.00
    9    7    8     -0.10      0.00
   -8    8    8     -1.91      0.00
   -7    8    8      2.04      0.00
   -6    8    8      2.32      0.00
   -5    8    8      2.55      0.00
   -4    8    8     -0.67      0.00
   -3    8    8     -1.48      0.00
   -2    8    8     -2.24      0.00
   -1    8    8     -4.23      0.00
    0    8    8     -0.69      0.00
    1    8    8      1.76      0.00
    3    8    8      0.78      0.00
    4    8    8     -2.19      0.00
    6    8    8      1.02      0.00
    7    8    8      1.36      0.00
    8    8    8      1.87      0.00
    9    8    8     -0.88      0.00
   -7    9    8     -0.60      0.00
   -6    9    8     -1.90      0.00
   -5    9    8     -0.60      0.00
   -4    9    8     -1.60      0.00
   -3    9    8      0.16      0.00
   -2    9    8      1.04      0.00
   -1    9    8      1.35      0.00
    0    9    8     -1.37      0.00
    4    9    8     -1.33      0.00
    9    9    8      0.41      0.00
   -7   10    8      0.43      0.00
   -6   10    8      0.36      0.00
   -5   10    8      1.84      0.00
   -4   10    8      2.00      0.00
   -3   10    8      3.19      0.00
   -2   10    8      2.21      0.00
   -1   10    8     -0.11      0.00
    0   10    8     -6.01      0.00
    1   10    8     -2.54      0.00
   -6   11    8     -0.92      0.00
   -5   11    8     -0.06      0.00
   -4   11    8     -0.85      0.00
   -3   11    8     -1.27      0.00
   -2   11    8     -2.07      0.00
   -1   11    8     -0.03      0.00
    0   11    8      1.75      0.00
    1   11    8      4.18      0.00
    2   11    8      0.59      0.00
    3   11    8     -0.97      0.00
    4   11    8      0.53      0.00
    5   11    8      1.52      0.00
    6   11    8      1.40      0.00
    7   11    8     -0.62      0.00
    8   11    8      3.01      0.00
   -6   12    8     -1.46      0.00
   -5   12    8     -0.07      0.00
   -4   12    8     -0.82      0.00
   -3   12    8     -1.28      0.00
   -2   12    8      0.98      0.00
   -1   12    8      1.86      0.00
    0   12    8      0.40      0.00
    1   12    8     -0.08      0.00
    2   12    8      1.21      0.00
    3   12    8      2.62      0.00
    4   12    8      0.06      0.00
    5   12    8     -0.45      0.00
    6   12    8      0.14      0.00
    7   12    8     -1.01      0.00
   -5   13    8     -1.75      0.00
   -4   13    8     -2.10      0.00
   -3   13    8     -1.06      0.00
   -2   13    8     -2.12      0.00
   -1   13    8     -5.49      0.00
    0   13    8     -1.27      0.00
    1   13    8      0.59      0.00
    2   13    8      0.24      0.00
    3   13    8     -0.68      0.00
    4   13    8     -2.30      0.00
    5   13    8     -0.20      0.00
    6   13    8      0.00      0.00
   -4   14    8     -1.05      0.00
   -2   14    8     -2.26      0.00
   -1   14    8     -1.19      0.00
    0   14    8      2.95      0.00
    1   14    8     -0.46      0.00
    2   14    8     -0.70      0.00
    3   14    8      1.93      0.00
    4   14    8      0.02      0.00
    5   14    8     -0.72      0.00
   -2   15    8      1.60      0.00
   -1   15    8     -1.06      0.00
    0   15    8     -0.01      0.00
    1   15    8     -0.17      0.00
    2   15    8      1.67      0.00
    3   15    8      2.16      0.00
   -2  -12    9      0.11      0.00
   -1  -12    9     -2.78      0.00
    3  -12    9     -0.09      0.00
    4  -12    9      0.20      0.00
    5  -12    9     -1.45      0.00
   -3  -11    9      0.07      0.00
   -2  -11    9      1.28      0.00
   -1  -11    9     -1.03      0.00
    3  -11    9      2.23      0.00
    4  -11    9      2.38      0.00
    5  -11    9     -1.74      0.00
    6  -11    9      0.77      0.00
   -4  -10    9      0.24      0.00
   -3  -10    9     -0.25      0.00
   -2  -10    9      0.81      0.00
   -1  -10    9     -1.69      0.00
    2  -10    9      0.41      0.00
    3  -10    9     -2.29      0.00
    4  -10    9     -0.08      0.00
    5  -10    9     -2.23      0.00
    6  -10    9      2.32      0.00
    7  -10    9      1.36      0.00
   -5   -9    9     -0.48      0.00
   -4   -9    9      0.65      0.00
   -3   -9    9     -1.01      0.00
   -2   -9    9      0.40      0.00
   -1   -9    9     -1.71      0.00
    1   -9    9      0.18      0.00
    2   -9    9      2.41      0.00
    3   -9    9      0.61      0.00
    4   -9    9      2.71      0.00
    5   -9    9     -1.78      0.00
    6   -9    9      2.79      0.00
    7   -9    9      0.53      0.00
    8   -9    9     -3.25      0.00
   -6   -8    9     -1.14      0.00
   -5   -8    9     -1.20      0.00
   -4   -8    9     -0.76      0.00
   -3   -8    9     -1.48      0.00
   -2   -8    9      1.11      0.00
   -1   -8    9     -0.45      0.00
    1   -8    9      0.31      0.00
    2   -8    9      2.02      0.00
    3   -8    9     -0.40      0.00
    4   -8    9      2.39      0.00
    5   -8    9     -1.70      0.00
    6   -8    9      3.08      0.00
    7   -8    9      1.92      0.00
    8   -8    9     -0.03      0.00
   -6   -7    9     -1.76      0.00
   -5   -7    9     -0.47      0.00
   -4   -7    9     -0.97      0.00
   -3   -7    9     -2.55      0.00
   -2   -7    9     -1.47      0.00
   -1   -7    9     -0.44      0.00
    0   -7    9      0.03      0.00
    1   -7    9     -1.29      0.00
    2   -7    9     -1.28      0.00
    3   -7    9     -3.52      0.00
    4   -7    9     -0.54      0.00
    5   -7    9     -4.07      0.00
    6   -7    9      2.31      0.00
    7   -7    9      2.25      0.00
    8   -7    9     -2.02      0.00
    9   -7    9     -0.10      0.00
   -7   -6    9      0.73      0.00
   -6   -6    9     -0.49      0.00
   -5   -6    9      3.82      0.00
   -4   -6    9      3.35      0.00
   -3   -6    9      3.26      0.00
   -2   -6    9      1.14      0.00
   -1   -6    9     -1.89      0.00
    0   -6    9     -4.31      0.00
    1   -6    9     -1.27      0.00
    2   -6    9      2.40      0.00
    3   -6    9      2.13      0.00
    4   -6    9      3.21      0.00
    5   -6    9     -0.02      0.00
    6   -6    9      4.22      0.00
    7   -6    9      2.29      0.00
    8   -6    9     -1.56      0.00
    9   -6    9     -0.49      0.00
   -7   -5    9      3.61      0.00
   -6   -5    9     -0.74      0.00
   -5   -5    9      0.50      0.00
   -4   -5    9     -0.70      0.00
   -3   -5    9     -2.97      0.00
   -2   -5    9     -6.07      0.00
   -1   -5    9     -1.30      0.00
    0   -5    9      1.71      0.00
    1   -5    9      0.50      0.00
    2   -5    9     -4.43      0.00
    3   -5    9     -6.53      0.00
    4   -5    9     -4.61      0.00
    5   -5    9     -6.47      0.00
    6   -5    9     -3.69      0.00
    7   -5    9     -2.92      0.00
    8   -5    9     -2.72      0.00
    9   -5    9     -0.02      0.00
   10   -5    9      1.71      0.00
   -7   -4    9      1.61      0.00
   -6   -4    9      0.37      0.00
   -5   -4    9      3.13      0.00
   -4   -4    9      0.38      0.00
   -3   -4    9      2.87      0.00
   -2   -4    9      7.94      0.00
   -1   -4    9      7.88      0.00
    0   -4    9      0.16      0.00
    1   -4    9     -2.89      0.00
    2   -4    9      0.79      0.00
    3   -4    9      5.86      0.00
    4   -4    9      3.90      0.00
    5   -4    9      1.08      0.00
    6   -4    9      4.69      0.00
    7   -4    9      4.68      0.00
    8   -4    9      1.80      0.00
    9   -4    9     -0.25      0.00
   10   -4    9     -0.81      0.00
   -8   -3    9     -1.85      0.00
   -7   -3    9      0.91      0.00
   -6   -3    9     -1.20      0.00
   -5   -3    9     -2.69      0.00
   -4   -3    9     -2.24      0.00
   -3   -3    9     -2.61      0.00
   -2   -3    9     -9.38      0.00
   -1   -3    9    -11.87      0.00
    0   -3    9     -2.45      0.00
    1   -3    9      6.00      0.00
    2   -3    9      0.93      0.00
    3   -3    9     -4.63      0.00
    4   -3    9     -7.40      0.00
    5   -3    9     -4.42      0.00
    6   -3    9     -2.78      0.00
    7   -3    9     -4.11      0.00
    8   -3    9     -2.91      0.00
    9   -3    9      0.54      0.00
   10   -3    9      1.63      0.00
   -8   -2    9      2.18      0.00
   -7   -2    9      1.59      0.00
   -6   -2    9      2.03      0.00
   -5   -2    9      4.85      0.00
   -4   -2    9      1.19      0.00
   -3   -2    9     -3.37      0.00
   -2   -2    9      0.91      0.00
   -1   -2    9      6.84      0.00
    0   -2    9      5.58      0.00
    1   -2    9     -2.93      0.00
    2   -2    9     -4.06      0.00
    3   -2    9      8.16      0.00
    4   -2    9      6.84      0.00
    5   -2    9      5.30      0.00
    6   -2    9      4.47      0.00
    7   -2    9      5.22      0.00
    8   -2    9      4.40      0.00
    9   -2    9      2.01      0.00
   10   -2    9     -0.01      0.00
   -8   -1    9      0.30      0.00
   -7   -1    9      0.52      0.00
   -6   -1    9     -0.75      0.00
   -5   -1    9     -3.89      0.00
   -4   -1    9     -4.22      0.00
   -3   -1    9     -0.52      0.00
   -2   -1    9     -3.63      0.00
   -1   -1    9    -17.76      0.00
    0   -1    9    -20.03      0.00
    1   -1    9    -10.34      0.00
    2   -1    9     -5.16      0.00
    3   -1    9     -4.12      0.00
    4   -1    9    -10.34      0.00
    5   -1    9     -4.17      0.00
    6   -1    9     -3.87      0.00
    7   -1    9     -4.18      0.00
    8   -1    9     -4.96      0.00
    9   -1    9     -2.58      0.00
   10   -1    9     -1.36      0.00
   -8    0    9      0.50      0.00
   -7    0    9      0.67      0.00
   -6    0    9      2.68      0.00
   -5    0    9      7.46      0.00
   -4    0    9      7.47      0.00
   -3    0    9      3.10      0.00
   -2    0    9      0.44      0.00
   -1    0    9      5.67      0.00
    0    0    9     15.09      0.00
    1    0    9      6.25      0.00
    2    0    9     -5.38      0.00
    3    0    9      0.09      0.00
    4    0    9      1.10      0.00
    5    0    9      3.74      0.00
    6    0    9      0.63      0.00
    7    0    9      2.52      0.00
    8    0    9      2.70      0.00
    9    0    9      0.89      0.00
   10    0    9     -2.30      0.00
   -8    1    9     -0.85      0.00
   -7    1    9      0.28      0.00
   -6    1    9     -0.15      0.00
   -5    1    9     -3.21      0.00
   -4    1    9     -6.08      0.00
   -3    1    9     -0.39      0.00
   -2    1    9      4.40      0.00
   -1    1    9      1.61      0.00
    0    1    9     -4.10      0.00
    1    1    9     -8.47      0.00
    2    1    9     -4.61      0.00
    3    1    9     -2.51      0.00
    4    1    9     -7.91      0.00
    5    1    9     -4.71      0.00
    6    1    9     -2.91      0.00
    7    1    9     -3.27      0.00
    8    1    9     -4.30      0.00
    9    1    9     -3.31      0.00
   10    1    9     -2.69      0.00
   -8    2    9     -0.08      0.00
   -7    2    9     -0.21      0.00
   -6    2    9     -0.88      0.00
   -5    2    9      2.13      0.00
   -4    2    9      4.57      0.00
   -3    2    9      6.53      0.00
   -2    2    9     -1.43      0.00
   -1    2    9     -3.52      0.00
    0    2    9      3.83      0.00
    1    2    9      6.90      0.00
    2    2    9      6.16      0.00
    3    2    9      4.42      0.00
    4    2    9      3.91      0.00
    5    2    9      4.19      0.00
    6    2    9      1.64      0.00
    7    2    9     -0.91      0.00
    8    2    9      2.83      0.00
    9    2    9      2.14      0.00
   10    2    9     -0.42      0.00
   -8    3    9     -1.15      0.00
   -7    3    9      0.69      0.00
   -6    3    9      1.17      0.00
   -5    3    9     -0.94      0.00
   -4    3    9     -6.26      0.00
   -3    3    9     -7.99      0.00
   -2    3    9    -11.03      0.00
   -1    3    9     -5.92      0.00
    0    3    9     -5.49      0.00
    1    3    9     -7.65      0.00
    2    3    9     -3.94      0.00
    3    3    9     -3.10      0.00
    4    3    9     -3.36      0.00
    5    3    9     -3.58      0.00
    6    3    9     -0.67      0.00
    7    3    9     -2.16      0.00
    8    3    9     -0.84      0.00
    9    3    9     -1.66      0.00
   10    3    9     -0.67      0.00
   -8    4    9      0.72      0.00
   -7    4    9      2.09      0.00
   -6    4    9      1.00      0.00
   -5    4    9      1.43      0.00
   -4    4    9      2.60      0.00
   -3    4    9      5.91      0.00
   -2    4    9      4.07      0.00
   -1    4    9      3.01      0.00
    0    4    9     -5.14      0.00
    1    4    9     -9.27      0.00
    2    4    9     -5.32      0.00
    3    4    9     -4.52      0.00
    4    4    9      0.62      0.00
    5    4    9      2.74      0.00
    6    4    9      2.83      0.00
    7    4    9     -0.47      0.00
    8    4    9      2.61      0.00
    9    4    9      0.74      0.00
   10    4    9     -1.77      0.00
   -8    5    9     -0.98      0.00
   -7    5    9      0.63      0.00
   -6    5    9      0.39      0.00
   -5    5    9      0.28      0.00
   -4    5    9      1.59      0.00
   -3    5    9     -0.94      0.00
   -2    5    9     -6.38      0.00
   -1    5    9     -3.85      0.00
    0    5    9     -4.13      0.00
    1    5    9     -1.34      0.00
    2    5    9      2.02      0.00
    3    5    9     -2.93      0.00
    4    5    9     -0.98      0.00
    5    5    9     -3.29      0.00
    6    5    9     -2.93      0.00
    7    5    9     -3.85      0.00
    8    5    9     -2.46      0.00
    9    5    9     -1.60      0.00
   10    5    9     -0.96      0.00
   -8    6    9      2.43      0.00
   -7    6    9      0.76      0.00
   -6    6    9      0.41      0.00
   -5    6    9      0.65      0.00
   -4    6    9      1.71      0.00
   -3    6    9      0.72      0.00
   -2    6    9      3.31      0.00
   -1    6    9     10.22      0.00
    0    6    9      5.97      0.00
    1    6    9      1.03      0.00
    2    6    9     -2.11      0.00
    3    6    9     -6.22      0.00
    4    6    9     -0.23      0.00
    5    6    9     -0.46      0.00
    6    6    9      1.09      0.00
    7    6    9     -0.18      0.00
    8    6    9      1.86      0.00
    9    6    9      2.95      0.00
   10    6    9      0.00      0.00
   -8    7    9     -0.59      0.00
   -7    7    9     -0.59      0.00
   -6    7    9     -0.12      0.00
   -5    7    9     -2.76      0.00
   -4    7    9      0.52      0.00
   -3    7    9      0.95      0.00
   -2    7    9     -2.10      0.00
   -1    7    9     -3.49      0.00
    0    7    9     -7.57      0.00
    1    7    9     -1.38      0.00
    3    7    9      2.10      0.00
    4    7    9      3.94      0.00
    5    7    9      0.68      0.00
    6    7    9      2.28      0.00
    7    7    9     -0.27      0.00
    8    7    9     -1.89      0.00
    9    7    9      0.12      0.00
   -7    8    9     -0.90      0.00
   -6    8    9     -0.64      0.00
   -5    8    9      1.01      0.00
   -4    8    9      2.42      0.00
   -3    8    9     -2.35      0.00
   -2    8    9     -4.93      0.00
   -1    8    9     -0.09      0.00
    0    8    9      2.00      0.00
    3    8    9     -3.17      0.00
    4    8    9     -0.98      0.00
    5    8    9     -2.29      0.00
    9    8    9      2.87      0.00
   -7    9    9     -0.94      0.00
   -6    9    9      0.71      0.00
   -5    9    9     -1.43      0.00
   -4    9    9     -2.51      0.00
   -3    9    9     -0.95      0.00
   -2    9    9      1.13      0.00
   -1    9    9     -0.29      0.00
    0    9    9     -5.58      0.00
    3    9    9     -0.82      0.00
    4    9    9      0.24      0.00
    9    9    9      2.43      0.00
   -7   10    9     -0.36      0.00
   -6   10    9     -0.75      0.00
   -5   10    9      0.47      0.00
   -4   10    9      3.74      0.00
   -3   10    9      5.54      0.00
   -2   10    9      1.14      0.00
   -1   10    9     -2.06      0.00
    0   10    9      1.19      0.00
    4   10    9      2.05      0.00
   -6   11    9      0.61      0.00
   -5   11    9      0.88      0.00
   -4   11    9     -0.93      0.00
   -3   11    9     -2.32      0.00
   -2   11    9     -1.87      0.00
   -1   11    9      2.46      0.00
    0   11    9      3.28      0.00
    1   11    9     -1.85      0.00
    2   11    9      0.19      0.00
   -5   12    9     -2.29      0.00
   -4   12    9     -2.52      0.00
   -3   12    9      1.00      0.00
   -2   12    9      0.32      0.00
   -1   12    9     -0.49      0.00
    0   12    9     -1.72      0.00
    1   12    9      0.01      0.00
    2   12    9      1.75      0.00
    3   12    9      0.01      0.00
    4   12    9      2.82      0.00
    5   12    9      2.32      0.00
    6   12    9      0.03      0.00
    7   12    9      1.23      0.00
   -5   13    9     -0.23      0.00
   -4   13    9      1.58      0.00
   -3   13    9     -0.61      0.00
   -2   13    9     -3.92      0.00
   -1   13    9      0.10      0.00
    0   13    9     -0.57      0.00
    1   13    9      1.92      0.00
    2   13    9      1.49      0.00
    3   13    9      0.05      0.00
    4   13    9      0.71      0.00
    5   13    9     -1.96      0.00
    6   13    9     -1.78      0.00
   -1   14    9      0.73      0.00
    0   14    9     -3.82      0.00
    1   14    9     -0.61      0.00
    2   14    9     -0.98      0.00
    3   14    9     -2.59      0.00
    4   14    9     -1.31      0.00
    5   14    9     -0.70      0.00
   -1   15    9      2.08      0.00
    0   15    9     -0.37      0.00
    1   15    9      2.20      0.00
    2   15    9      2.06      0.00
    3   15    9      2.62      0.00
   -1  -12   10      1.63      0.00
    4  -12   10      2.20      0.00
   -2  -11   10      0.93      0.00
   -1  -11   10      2.65      0.00
    3  -11   10     -2.03      0.00
    4  -11   10     -2.60      0.00
    5  -11   10      0.54      0.00
   -3  -10   10      1.03      0.00
   -2  -10   10     -0.19      0.00
   -1  -10   10      1.93      0.00
    2  -10   10      0.46      0.00
    3  -10   10      1.79      0.00
    4  -10   10      0.91      0.00
    5  -10   10      3.74      0.00
    6  -10   10     -1.09      0.00
    7  -10   10      0.58      0.00
   -4   -9   10     -2.69      0.00
   -3   -9   10     -1.47      0.00
   -2   -9   10     -1.94      0.00
   -1   -9   10      1.22      0.00
    2   -9   10     -1.55      0.00
    3   -9   10     -0.65      0.00
    4   -9   10     -2.11      0.00
    5   -9   10      2.23      0.00
    6   -9   10     -2.71      0.00
    7   -9   10      0.38      0.00
   -5   -8   10     -0.22      0.00
   -4   -8   10     -1.13      0.00
   -3   -8   10      0.60      0.00
   -2   -8   10     -0.84      0.00
   -1   -8   10      2.66      0.00
    1   -8   10      3.38      0.00
    2   -8   10      1.27      0.00
    3   -8   10      2.90      0.00
    4   -8   10     -0.44      0.00
    5   -8   10      3.54      0.00
    6   -8   10     -0.71      0.00
    7   -8   10      1.94      0.00
    8   -8   10      2.10      0.00
   -6   -7   10      0.85      0.00
   -5   -7   10     -1.25      0.00
   -4   -7   10     -2.04      0.00
   -3   -7   10      0.17      0.00
   -2   -7   10     -0.20      0.00
   -1   -7   10      0.30      0.00
    1   -7   10     -1.97      0.00
    2   -7   10     -3.59      0.00
    3   -7   10     -1.46      0.00
    4   -7   10     -3.18      0.00
    5   -7   10      3.46      0.00
    6   -7   10     -0.88      0.00
    7   -7   10      0.40      0.00
    8   -7   10      2.44      0.00
    9   -7   10     -0.05      0.00
   -6   -6   10      2.70      0.00
   -5   -6   10      0.11      0.00
   -4   -6   10      2.10      0.00
   -3   -6   10      1.50      0.00
   -2   -6   10     -2.16      0.00
   -1   -6   10     -2.75      0.00
    0   -6   10      0.28      0.00
    1   -6   10      1.47      0.00
    2   -6   10      1.09      0.00
    3   -6   10      2.63      0.00
    4   -6   10      0.84      0.00
    5   -6   10      3.84      0.00
    6   -6   10     -1.71      0.00
    7   -6   10      0.47      0.00
    8   -6   10      1.62      0.00
    9   -6   10     -0.15      0.00
   -7   -5   10     -1.66      0.00
   -6   -5   10      2.40      0.00
   -5   -5   10      0.84      0.00
   -4   -5   10      0.27      0.00
   -3   -5   10     -1.17      0.00
   -2   -5   10      0.74      0.00
   -1   -5   10     -0.91      0.00
    0   -5   10     -1.76      0.00
    1   -5   10     -3.41      0.00
    2   -5   10     -2.46      0.00
    3   -5   10     -1.70      0.00
    4   -5   10     -3.54      0.00
    5   -5   10     -1.25      0.00
    6   -5   10     -2.61      0.00
    7   -5   10      0.54      0.00
    8   -5   10      0.20      0.00
    9   -5   10     -0.95      0.00
   -7   -4   10      2.70      0.00
   -6   -4   10      2.65      0.00
   -5   -4   10     -3.18      0.00
   -4   -4   10     -1.20      0.00
   -3   -4   10      1.49      0.00
   -2   -4   10      2.20      0.00
   -1   -4   10      0.81      0.00
    0   -4   10      3.55      0.00
    1   -4   10      3.33      0.00
    2   -4   10     -0.39      0.00
    3   -4   10     -3.60      0.00
    4   -4   10     -0.56      0.00
    5   -4   10      2.71      0.00
    6   -4   10     -0.61      0.00
    7   -4   10     -0.41      0.00
    8   -4   10     -0.01      0.00
    9   -4   10      1.49      0.00
   10   -4   10      0.27      0.00
   -7   -3   10     -1.08      0.00
   -6   -3   10     -0.11      0.00
   -5   -3   10      1.61      0.00
   -4   -3   10      0.94      0.00
   -3   -3   10     -2.69      0.00
   -2   -3   10     -1.96      0.00
   -1   -3   10     -0.94      0.00
    0   -3   10     -2.57      0.00
    1   -3   10     -2.02      0.00
    2   -3   10      1.92      0.00
    3   -3   10      4.79      0.00
    4   -3   10      4.42      0.00
    5   -3   10     -0.51      0.00
    6   -3   10     -1.44      0.00
    7   -3   10      2.32      0.00
    8   -3   10      3.37      0.00
    9   -3   10      1.45      0.00
   10   -3   10     -0.83      0.00
   -7   -2   10      2.73      0.00
   -6   -2   10      1.40      0.00
   -5   -2   10     -3.58      0.00
   -4   -2   10     -4.56      0.00
   -3   -2   10     -1.86      0.00
   -2   -2   10     -2.33      0.00
   -1   -2   10     -4.05      0.00
    0   -2   10     -2.89      0.00
    1   -2   10      4.90      0.00
    2   -2   10      3.97      0.00
    3   -2   10     -4.15      0.00
    4   -2   10     -3.28      0.00
    5   -2   10     -0.88      0.00
    6   -2   10      1.38      0.00
    7   -2   10     -0.41      0.00
    8   -2   10     -0.96      0.00
    9   -2   10     -0.48      0.00
   10   -2   10      1.51      0.00
   -8   -1   10      1.44      0.00
   -7   -1   10     -0.62      0.00
   -6   -1   10     -1.37      0.00
   -5   -1   10      1.35      0.00
   -4   -1   10      3.22      0.00
   -3   -1   10      0.35      0.00
   -2   -1   10     -2.74      0.00
   -1   -1   10     -1.89      0.00
    0   -1   10     -7.55      0.00
    1   -1   10    -11.43      0.00
    2   -1   10     -9.56      0.00
    3   -1   10     -0.30      0.00
    4   -1   10      7.61      0.00
    5   -1   10      2.41      0.00
    6   -1   10      1.21      0.00
    7   -1   10     -0.07      0.00
    8   -1   10      2.21      0.00
    9   -1   10      0.37      0.00
   10   -1   10      0.37      0.00
   -8    0   10      1.58      0.00
   -7    0   10      2.61      0.00
   -6    0   10      3.94      0.00
   -5    0   10      1.06      0.00
   -4    0   10     -0.69      0.00
   -3    0   10     -0.39      0.00
   -2    0   10     -0.19      0.00
   -1    0   10     -2.23      0.00
    0    0   10     -6.86      0.00
    1    0   10      0.89      0.00
    2    0   10      4.83      0.00
    3    0   10     -1.93      0.00
    4    0   10     -5.98      0.00
    5    0   10     -6.38      0.00
    6    0   10     -1.14      0.00
    7    0   10     -2.52      0.00
    8    0   10     -2.33      0.00
    9    0   10     -3.67      0.00
   10    0   10     -1.25      0.00
   -8    1   10      0.62      0.00
   -7    1   10     -1.57      0.00
   -6    1   10     -3.10      0.00
   -5    1   10     -1.81      0.00
   -4    1   10      1.99      0.00
   -3    1   10      2.27      0.00
   -2    1   10      4.14      0.00
   -1    1   10      7.88      0.00
    0    1   10      7.60      0.00
    1    1   10      2.22      0.00
    2    1   10     -9.10      0.00
    3    1   10     -8.78      0.00
    4    1   10      0.02      0.00
    5    1   10      1.75      0.00
    6    1   10      0.40      0.00
    7    1   10     -0.99      0.00
    8    1   10     -0.20      0.00
    9    1   10     -1.05      0.00
   10    1   10     -0.43      0.00
   -8    2   10      0.98      0.00
   -7    2   10      0.79      0.00
   -6    2   10      1.73      0.00
   -5    2   10      1.10      0.00
   -4    2   10      1.05      0.00
   -3    2   10     -0.92      0.00
   -2    2   10      0.35      0.00
   -1    2   10     -3.83      0.00
    0    2   10     -7.56      0.00
    1    2   10     -2.00      0.00
    2    2   10      5.99      0.00
    3    2   10      9.42      0.00
    4    2   10      3.69      0.00
    5    2   10     -1.02      0.00
    6    2   10     -1.42      0.00
    7    2   10      0.42      0.00
    8    2   10     -3.44      0.00
    9    2   10     -2.03      0.00
   10    2   10      0.49      0.00
   -8    3   10      1.09      0.00
   -7    3   10      0.29      0.00
   -6    3   10     -1.22      0.00
   -5    3   10     -2.41      0.00
   -4    3   10     -3.32      0.00
   -3    3   10     -6.28      0.00
   -2    3   10     -4.07      0.00
   -1    3   10     -5.37      0.00
    0    3   10      0.65      0.00
    1    3   10      3.37      0.00
    2    3   10     -3.58      0.00
    3    3   10     -7.43      0.00
    4    3   10     -6.50      0.00
    5    3   10     -0.16      0.00
    6    3   10      0.47      0.00
    7    3   10      2.19      0.00
    8    3   10     -0.40      0.00
    9    3   10      2.29      0.00
   10    3   10      0.69      0.00
   -8    4   10      0.39      0.00
   -7    4   10      0.55      0.00
   -6    4   10      1.90      0.00
   -5    4   10      1.37      0.00
   -4    4   10      0.66      0.00
   -3    4   10      0.46      0.00
   -2    4   10      2.48      0.00
   -1    4   10     -3.80      0.00
    0    4   10     -6.63      0.00
    1    4   10    -10.90      0.00
    2    4   10     -9.36      0.00
    3    4   10      1.40      0.00
    4    4   10      3.74      0.00
    5    4   10      3.18      0.00
    6    4   10      0.68      0.00
    7    4   10      2.09      0.00
    8    4   10     -3.56      0.00
    9    4   10     -2.95      0.00
   10    4   10     -2.24      0.00
   -8    5   10      1.18      0.00
   -7    5   10      0.15      0.00
   -6    5   10      0.58      0.00
   -5    5   10      1.84      0.00
   -4    5   10      0.28      0.00
   -3    5   10     -0.21      0.00
   -2    5   10     -0.18      0.00
   -1    5   10     -4.38      0.00
    0    5   10     -0.38      0.00
    1    5   10     -0.19      0.00
    2    5   10     -1.89      0.00
    3    5   10     -0.24      0.00
    4    5   10     -6.17      0.00
    5    5   10     -4.56      0.00
    6    5   10     -2.24      0.00
    7    5   10     -0.14      0.00
    8    5   10     -0.53      0.00
    9    5   10      0.52      0.00
   10    5   10     -0.43      0.00
   -8    6   10     -0.18      0.00
   -7    6   10      0.84      0.00
   -6    6   10      1.99      0.00
   -5    6   10      0.56      0.00
   -4    6   10     -2.62      0.00
   -3    6   10      1.05      0.00
   -2    6   10      3.04      0.00
   -1    6   10      1.48      0.00
    0    6   10      4.87      0.00
    1    6   10      1.62      0.00
    2    6   10     -2.04      0.00
    3    6   10     -0.09      0.00
    4    6   10     -2.14      0.00
    5    6   10      2.42      0.00
    6    6   10      2.47      0.00
    7    6   10      0.68      0.00
    8    6   10     -1.19      0.00
    9    6   10     -2.01      0.00
   10    6   10      0.36      0.00
   -7    7   10     -0.86      0.00
   -6    7   10     -2.51      0.00
   -5    7   10     -0.57      0.00
   -4    7   10     -1.63      0.00
   -3    7   10      1.14      0.00
   -2    7   10      0.83      0.00
   -1    7   10     -2.33      0.00
    0    7   10      0.12      0.00
    3    7   10      0.91      0.00
    4    7   10     -0.94      0.00
    5    7   10      0.53      0.00
    6    7   10     -0.93      0.00
    7    7   10     -0.03      0.00
    8    7   10      2.23      0.00
    9    7   10      0.35      0.00
   -7    8   10     -0.01      0.00
   -6    8   10      1.66      0.00
   -5    8   10      1.97      0.00
   -4    8   10     -1.74      0.00
   -3    8   10     -2.15      0.00
   -2    8   10     -3.19      0.00
   -1    8   10     -5.51      0.00
    0    8   10     -3.02      0.00
    3    8   10      1.47      0.00
    4    8   10     -2.83      0.00
    5    8   10      0.10      0.00
   -7    9   10     -0.09      0.00
   -6    9   10     -0.82      0.00
   -5    9   10     -0.54      0.00
   -4    9   10     -0.84      0.00
   -3    9   10     -1.20      0.00
   -2    9   10      0.36      0.00
   -1    9   10     -0.36      0.00
    3    9   10     -6.43      0.00
    4    9   10     -1.95      0.00
    5    9   10      2.17      0.00
   -6   10   10      0.17      0.00
   -5   10   10      0.33      0.00
   -4   10   10      2.08      0.00
   -3   10   10      0.76      0.00
   -2   10   10      2.75      0.00
   -1   10   10      0.16      0.00
    0   10   10     -4.85      0.00
    3   10   10      2.55      0.00
    4   10   10      1.41      0.00
   -6   11   10      0.12      0.00
   -5   11   10      0.39      0.00
   -4   11   10      2.22      0.00
   -3   11   10      0.12      0.00
   -2   11   10      2.22      0.00
   -1   11   10      0.06      0.00
    0   11   10      0.92      0.00
    1   11   10      5.06      0.00
   -5   12   10     -0.56      0.00
   -4   12   10      0.43      0.00
   -3   12   10     -2.31      0.00
   -1   12   10     -1.58      0.00
    0   12   10      0.46      0.00
    1   12   10      1.01      0.00
    2   12   10     -0.21      0.00
    3   12   10      3.91      0.00
    4   12   10      0.37      0.00
   -4   13   10     -1.04      0.00
   -3   13   10     -1.19      0.00
   -1   13   10     -4.65      0.00
    0   13   10     -0.42      0.00
    1   13   10     -0.14      0.00
    2   13   10      0.35      0.00
    3   13   10      0.56      0.00
    4   13   10     -3.34      0.00
    5   13   10     -0.67      0.00
    6   13   10      1.46      0.00
   -1   14   10     -2.11      0.00
    0   14   10      3.17      0.00
    1   14   10     -1.18      0.00
    2   14   10     -0.87      0.00
    3   14   10      0.43      0.00
    4   14   10     -0.61      0.00
    5   14   10     -0.56      0.00
   -1   15   10     -0.58      0.00
    0   15   10      0.61      0.00
    1   15   10     -1.63      0.00
    2   15   10      1.59      0.00
    3   15   10      1.99      0.00
   -1  -11   11     -0.03      0.00
    3  -11   11      1.24      0.00
    4  -11   11      0.87      0.00
    5  -11   11     -1.54      0.00
   -3  -10   11      0.35      0.00
   -2  -10   11      0.60      0.00
   -1  -10   11     -0.36      0.00
    3  -10   11     -1.48      0.00
    4  -10   11     -1.50      0.00
    5  -10   11     -1.84      0.00
    6  -10   11      1.89      0.00
   -4   -9   11      1.17      0.00
   -3   -9   11     -0.61      0.00
   -2   -9   11     -1.54      0.00
   -1   -9   11     -2.92      0.00
    0   -9   11      2.09      0.00
    2   -9   11      0.07      0.00
    3   -9   11     -0.52      0.00
    4   -9   11      0.99      0.00
    5   -9   11     -0.85      0.00
    6   -9   11      3.84      0.00
    7   -9   11      1.12      0.00
   -4   -8   11     -0.28      0.00
   -3   -8   11     -1.69      0.00
   -2   -8   11      1.63      0.00
   -1   -8   11     -0.21      0.00
    0   -8   11      2.96      0.00
    1   -8   11     -0.06      0.00
    2   -8   11      2.65      0.00
    3   -8   11      0.21      0.00
    4   -8   11      0.91      0.00
    5   -8   11     -1.85      0.00
    6   -8   11      2.62      0.00
    7   -8   11     -0.76      0.00
    8   -8   11     -1.38      0.00
   -5   -7   11     -0.87      0.00
   -4   -7   11     -0.56      0.00
   -3   -7   11     -2.62      0.00
   -2   -7   11     -0.56      0.00
   -1   -7   11     -1.90      0.00
    0   -7   11      1.52      0.00
    1   -7   11     -0.46      0.00
    2   -7   11      0.38      0.00
    3   -7   11     -2.06      0.00
    4   -7   11      1.05      0.00
    5   -7   11     -2.00      0.00
    6   -7   11      3.68      0.00
    7   -7   11      2.30      0.00
    8   -7   11      0.71      0.00
   -6   -6   11     -1.53      0.00
   -5   -6   11      3.67      0.00
   -4   -6   11      2.88      0.00
   -3   -6   11      0.70      0.00
   -2   -6   11      2.02      0.00
   -1   -6   11     -0.42      0.00
    0   -6   11     -2.04      0.00
    1   -6   11     -1.75      0.00
    2   -6   11      1.08      0.00
    3   -6   11      0.67      0.00
    4   -6   11      2.55      0.00
    5   -6   11     -0.98      0.00
    6   -6   11      4.11      0.00
    7   -6   11      0.51      0.00
    8   -6   11     -0.87      0.00
    9   -6   11     -0.69      0.00
   -6   -5   11     -0.44      0.00
   -5   -5   11      0.85      0.00
   -4   -5   11     -0.89      0.00
   -3   -5   11     -2.22      0.00
   -2   -5   11     -4.45      0.00
   -1   -5   11     -2.40      0.00
    0   -5   11      0.36      0.00
    1   -5   11      1.79      0.00
    2   -5   11     -1.00      0.00
    3   -5   11     -3.74      0.00
    4   -5   11     -1.74      0.00
    5   -5   11     -1.90      0.00
    6   -5   11      1.21      0.00
    7   -5   11     -2.48      0.00
    8   -5   11     -0.68      0.00
    9   -5   11     -0.65      0.00
   -6   -4   11     -0.58      0.00
   -5   -4   11      2.90      0.00
   -4   -4   11      0.34      0.00
   -3   -4   11     -0.11      0.00
   -2   -4   11      3.80      0.00
   -1   -4   11      7.86      0.00
    0   -4   11      1.79      0.00
    1   -4   11     -3.18      0.00
    2   -4   11     -1.81      0.00
    3   -4   11      2.76      0.00
    4   -4   11      2.61      0.00
    5   -4   11      0.58      0.00
    6   -4   11      3.11      0.00
    7   -4   11      2.46      0.00
    8   -4   11      4.12      0.00
    9   -4   11      0.39      0.00
   -7   -3   11      0.62      0.00
   -6   -3   11      1.44      0.00
   -5   -3   11     -1.98      0.00
   -4   -3   11     -4.27      0.00
   -3   -3   11     -2.62      0.00
   -2   -3   11     -5.55      0.00
   -1   -3   11     -6.79      0.00
    0   -3   11     -2.20      0.00
    1   -3   11      4.36      0.00
    2   -3   11      5.40      0.00
    3   -3   11     -0.87      0.00
    4   -3   11     -5.33      0.00
    5   -3   11     -1.59      0.00
    6   -3   11      0.19      0.00
    7   -3   11     -2.42      0.00
    8   -3   11     -1.48      0.00
    9   -3   11     -0.65      0.00
   10   -3   11      0.74      0.00
   -7   -2   11     -0.08      0.00
   -6   -2   11      0.13      0.00
   -5   -2   11      2.45      0.00
   -4   -2   11      1.76      0.00
   -3   -2   11     -2.41      0.00
   -2   -2   11     -1.88      0.00
   -1   -2   11      4.96      0.00
    0   -2   11      7.65      0.00
    1   -2   11     -0.85      0.00
    2   -2   11     -2.28      0.00
    3   -2   11      3.19      0.00
    4   -2   11      6.11      0.00
    5   -2   11      5.93      0.00
    6   -2   11      3.56      0.00
    7   -2   11      4.34      0.00
    8   -2   11      4.44      0.00
    9   -2   11      3.89      0.00
   10   -2   11      1.30      0.00
   -7   -1   11      0.35      0.00
   -6   -1   11      0.67      0.00
   -5   -1   11     -2.00      0.00
   -4   -1   11     -4.86      0.00
   -3   -1   11     -2.62      0.00
   -2   -1   11     -2.11      0.00
   -1   -1   11     -9.73      0.00
    0   -1   11    -14.06      0.00
    1   -1   11    -11.21      0.00
    2   -1   11      0.08      0.00
    3   -1   11      0.24      0.00
    4   -1   11     -4.06      0.00
    5   -1   11     -2.46      0.00
    6   -1   11     -2.40      0.00
    7   -1   11     -1.34      0.00
    8   -1   11     -4.24      0.00
    9   -1   11     -1.83      0.00
   10   -1   11     -1.91      0.00
   -7    0   11      0.57      0.00
   -6    0   11      0.57      0.00
   -5    0   11      4.56      0.00
   -4    0   11      5.72      0.00
   -3    0   11      2.73      0.00
   -2    0   11     -1.54      0.00
   -1    0   11     -0.34      0.00
    0    0   11      7.76      0.00
    1    0   11      3.95      0.00
    2    0   11     -1.68      0.00
    3    0   11     -3.63      0.00
    4    0   11      0.65      0.00
    5    0   11      2.71      0.00
    6    0   11      0.20      0.00
    7    0   11      2.21      0.00
    8    0   11      0.49      0.00
    9    0   11      1.52      0.00
   10    0   11     -2.18      0.00
   -7    1   11      1.05      0.00
   -6    1   11      1.02      0.00
   -5    1   11     -0.27      0.00
   -4    1   11     -3.86      0.00
   -3    1   11     -2.40      0.00
   -2    1   11      1.60      0.00
   -1    1   11      3.26      0.00
    0    1   11     -0.79      0.00
    1    1   11     -8.15      0.00
    2    1   11     -3.85      0.00
    3    1   11     -2.49      0.00
    4    1   11     -3.67      0.00
    5    1   11     -4.34      0.00
    6    1   11     -3.29      0.00
    7    1   11     -1.53      0.00
    8    1   11     -3.14      0.00
    9    1   11     -2.25      0.00
   10    1   11     -2.78      0.00
   -7    2   11      0.16      0.00
   -6    2   11     -1.16      0.00
   -5    2   11      0.02      0.00
   -4    2   11      2.38      0.00
   -3    2   11      4.93      0.00
   -2    2   11      1.24      0.00
   -1    2   11     -0.62      0.00
    0    2   11      2.08      0.00
    1    2   11      5.50      0.00
    2    2   11      7.21      0.00
    3    2   11      1.80      0.00
    4    2   11      1.77      0.00
    5    2   11      2.22      0.00
    6    2   11      1.82      0.00
    7    2   11     -0.95      0.00
    8    2   11      1.20      0.00
    9    2   11      0.47      0.00
   10    2   11     -1.34      0.00
   -7    3   11      0.55      0.00
   -6    3   11      1.23      0.00
   -5    3   11     -0.87      0.00
   -4    3   11     -4.62      0.00
   -3    3   11     -6.98      0.00
   -2    3   11    -10.07      0.00
   -1    3   11     -4.83      0.00
    0    3   11     -4.04      0.00
    1    3   11     -4.76      0.00
    2    3   11     -2.54      0.00
    3    3   11     -3.20      0.00
    4    3   11     -1.35      0.00
    5    3   11     -2.69      0.00
    6    3   11     -0.49      0.00
    7    3   11     -1.05      0.00
    8    3   11      1.66      0.00
    9    3   11     -1.97      0.00
   10    3   11     -0.25      0.00
   -7    4   11      1.08      0.00
   -6    4   11      0.97      0.00
   -5    4   11      0.65      0.00
   -4    4   11      1.13      0.00
   -3    4   11      2.14      0.00
   -2    4   11      1.50      0.00
   -1    4   11      2.81      0.00
    0    4   11     -4.35      0.00
    1    4   11     -5.41      0.00
    2    4   11     -2.63      0.00
    3    4   11     -2.96      0.00
    4    4   11      0.74      0.00
    5    4   11      1.26      0.00
    6    4   11      2.51      0.00
    7    4   11     -0.13      0.00
    8    4   11      2.66      0.00
    9    4   11     -0.82      0.00
   10    4   11     -1.03      0.00
   -7    5   11      0.95      0.00
   -6    5   11      1.14      0.00
   -5    5   11      0.55      0.00
   -4    5   11      1.68      0.00
   -3    5   11     -1.33      0.00
   -2    5   11     -5.34      0.00
   -1    5   11     -4.40      0.00
    0    5   11     -7.47      0.00
    1    5   11     -3.64      0.00
    2    5   11     -0.64      0.00
    3    5   11     -2.49      0.00
    4    5   11      0.52      0.00
    5    5   11     -1.31      0.00
    6    5   11     -2.28      0.00
    7    5   11     -1.70      0.00
    8    5   11     -1.16      0.00
    9    5   11     -3.40      0.00
   10    5   11     -1.40      0.00
   -7    6   11      1.02      0.00
   -6    6   11     -0.96      0.00
   -5    6   11     -0.57      0.00
   -4    6   11      2.23      0.00
   -3    6   11     -0.78      0.00
   -2    6   11      2.62      0.00
   -1    6   11      8.36      0.00
    0    6   11      5.61      0.00
    1    6   11      3.77      0.00
    2    6   11     -1.10      0.00
    3    6   11     -4.03      0.00
    4    6   11      0.73      0.00
    5    6   11     -0.61      0.00
    6    6   11     -1.95      0.00
    7    6   11      0.31      0.00
    8    6   11      1.08      0.00
    9    6   11      2.36      0.00
   -7    7   11     -0.64      0.00
   -6    7   11     -0.50      0.00
   -5    7   11     -2.83      0.00
   -4    7   11      0.34      0.00
   -3    7   11     -0.81      0.00
   -2    7   11     -0.69      0.00
   -1    7   11     -2.84      0.00
    0    7   11     -7.53      0.00
    2    7   11      0.43      0.00
    3    7   11      1.18      0.00
    4    7   11      1.97      0.00
    5    7   11     -0.27      0.00
    6    7   11     -0.01      0.00
   -7    8   11     -0.03      0.00
   -6    8   11     -1.15      0.00
   -5    8   11     -0.34      0.00
   -4    8   11      2.87      0.00
   -3    8   11     -2.35      0.00
   -2    8   11     -5.30      0.00
   -1    8   11     -2.36      0.00
    0    8   11      1.49      0.00
    3    8   11     -2.08      0.00
    4    8   11     -0.72      0.00
    5    8   11     -1.30      0.00
   -6    9   11      0.55      0.00
   -5    9   11     -1.01      0.00
   -4    9   11     -3.18      0.00
   -3    9   11     -2.60      0.00
   -2    9   11     -1.40      0.00
   -1    9   11     -0.20      0.00
    3    9   11      0.03      0.00
    4    9   11      0.54      0.00
    5    9   11     -0.29      0.00
   -6   10   11     -0.10      0.00
   -5   10   11      1.04      0.00
   -4   10   11      2.67      0.00
   -3   10   11      7.22      0.00
   -2   10   11      2.00      0.00
   -1   10   11     -0.29      0.00
    3   10   11      0.54      0.00
    4   10   11      2.20      0.00
   -5   11   11      1.60      0.00
   -4   11   11     -1.20      0.00
   -3   11   11      0.16      0.00
   -2   11   11     -3.27      0.00
   -1   11   11      2.59      0.00
    0   11   11      3.39      0.00
    3   11   11     -0.17      0.00
    4   11   11      2.71      0.00
   -5   12   11      0.04      0.00
   -4   12   11     -2.48      0.00
   -3   12   11      2.37      0.00
   -1   12   11      2.48      0.00
    0   12   11     -1.44      0.00
    1   12   11     -1.46      0.00
    2   12   11      3.67      0.00
   -4   13   11      0.93      0.00
   -1   13   11     -1.28      0.00
    0   13   11     -2.60      0.00
    1   13   11      0.95      0.00
    2   13   11      2.04      0.00
    3   13   11     -1.51      0.00
    4   13   11      1.83      0.00
    5   13   11     -1.30      0.00
    6   13   11     -2.32      0.00
   -1   14   11      1.94      0.00
    0   14   11     -3.14      0.00
    1   14   11     -0.82      0.00
    2   14   11     -1.48      0.00
    3   14   11     -2.31      0.00
    4   14   11     -0.76      0.00
    0   15   11     -0.52      0.00
    1   15   11      3.05      0.00
    2   15   11      1.69      0.00
    0  -11   12     -0.51      0.00
   -2  -10   12      0.96      0.00
   -1  -10   12      0.38      0.00
    0  -10   12     -2.02      0.00
    3  -10   12     -1.05      0.00
    4  -10   12      0.81      0.00
    5  -10   12      0.89      0.00
   -3   -9   12     -1.66      0.00
   -2   -9   12     -0.78      0.00
   -1   -9   12      0.80      0.00
    0   -9   12     -2.27      0.00
    2   -9   12     -0.55      0.00
    3   -9   12     -0.66      0.00
    4   -9   12     -0.23      0.00
    5   -9   12      0.77      0.00
    6   -9   12     -1.61      0.00
   -4   -8   12     -1.07      0.00
   -3   -8   12      0.66      0.00
   -2   -8   12     -1.27      0.00
   -1   -8   12      1.47      0.00
    0   -8   12     -1.15      0.00
    2   -8   12      0.50      0.00
    3   -8   12      1.40      0.00
    4   -8   12      0.95      0.00
    5   -8   12      1.91      0.00
    6   -8   12     -0.24      0.00
    7   -8   12      3.03      0.00
   -4   -7   12     -1.67      0.00
   -3   -7   12      0.90      0.00
   -2   -7   12     -0.42      0.00
   -1   -7   12      2.62      0.00
    0   -7   12     -2.50      0.00
    1   -7   12     -0.55      0.00
    2   -7   12     -2.50      0.00
    3   -7   12     -0.96      0.00
    4   -7   12     -2.85      0.00
    5   -7   12      0.60      0.00
    6   -7   12     -1.59      0.00
    7   -7   12      0.39      0.00
    8   -7   12      0.14      0.00
   -5   -6   12     -1.74      0.00
   -4   -6   12      0.01      0.00
   -3   -6   12      2.55      0.00
   -2   -6   12     -2.20      0.00
   -1   -6   12     -1.07      0.00
    0   -6   12     -0.49      0.00
    1   -6   12      2.94      0.00
    2   -6   12      2.24      0.00
    3   -6   12      3.65      0.00
    4   -6   12      2.80      0.00
    5   -6   12      6.44      0.00
    6   -6   12      1.52      0.00
    7   -6   12      3.03      0.00
    8   -6   12      1.28      0.00
   -6   -5   12      0.92      0.00
   -5   -5   12      0.37      0.00
   -4   -5   12      1.52      0.00
   -3   -5   12     -0.33      0.00
   -2   -5   12     -1.57      0.00
   -1   -5   12     -0.39      0.00
    0   -5   12     -1.45      0.00
    1   -5   12     -3.38      0.00
    2   -5   12     -3.59      0.00
    3   -5   12     -1.55      0.00
    4   -5   12     -2.51      0.00
    5   -5   12     -1.89      0.00
    6   -5   12     -3.87      0.00
    7   -5   12      1.25      0.00
    8   -5   12     -1.30      0.00
    9   -5   12     -0.50      0.00
   -6   -4   12      3.01      0.00
   -5   -4   12     -2.25      0.00
   -4   -4   12     -1.85      0.00
   -3   -4   12      0.98      0.00
   -2   -4   12      2.33      0.00
   -1   -4   12      0.93      0.00
    0   -4   12      3.60      0.00
    1   -4   12      4.69      0.00
    2   -4   12      2.58      0.00
    3   -4   12     -0.60      0.00
    4   -4   12      0.30      0.00
    5   -4   12      3.54      0.00
    6   -4   12      3.27      0.00
    7   -4   12      4.41      0.00
    8   -4   12     -0.54      0.00
    9   -4   12      1.36      0.00
   -6   -3   12     -2.29      0.00
   -5   -3   12     -0.83      0.00
   -4   -3   12      0.53      0.00
   -3   -3   12     -3.18      0.00
   -2   -3   12     -3.51      0.00
   -1   -3   12     -2.27      0.00
    0   -3   12     -0.16      0.00
    1   -3   12     -0.90      0.00
    2   -3   12     -2.24      0.00
    3   -3   12      0.95      0.00
    4   -3   12      3.52      0.00
    5   -3   12     -0.62      0.00
    6   -3   12     -2.21      0.00
    7   -3   12      1.86      0.00
    8   -3   12      1.80      0.00
    9   -3   12      2.99      0.00
   -7   -2   12      2.92      0.00
   -6   -2   12      1.82      0.00
   -5   -2   12     -1.15      0.00
   -4   -2   12     -3.07      0.00
   -3   -2   12     -1.81      0.00
   -2   -2   12      0.14      0.00
   -1   -2   12     -1.53      0.00
    0   -2   12     -0.25      0.00
    1   -2   12      6.37      0.00
    2   -2   12      6.68      0.00
    3   -2   12      3.47      0.00
    4   -2   12      0.45      0.00
    5   -2   12      0.62      0.00
    6   -2   12      3.05      0.00
    7   -2   12      2.63      0.00
    8   -2   12      0.51      0.00
    9   -2   12     -0.04      0.00
   10   -2   12      1.26      0.00
   -7   -1   12     -0.99      0.00
   -6   -1   12     -3.59      0.00
   -5   -1   12     -2.15      0.00
   -4   -1   12      2.07      0.00
   -3   -1   12      0.46      0.00
   -2   -1   12     -2.98      0.00
   -1   -1   12     -4.56      0.00
    0   -1   12     -5.48      0.00
    1   -1   12     -5.79      0.00
    2   -1   12     -9.08      0.00
    3   -1   12     -2.03      0.00
    4   -1   12      3.57      0.00
    5   -1   12      3.00      0.00
    6   -1   12      1.19      0.00
    7   -1   12     -0.41      0.00
    8   -1   12      1.39      0.00
    9   -1   12     -0.19      0.00
   10   -1   12      1.39      0.00
   -7    0   12      1.25      0.00
   -6    0   12      3.91      0.00
   -5    0   12      2.15      0.00
   -4    0   12      1.35      0.00
   -3    0   12     -0.05      0.00
   -2    0   12     -0.20      0.00
   -1    0   12     -1.87      0.00
    0    0   12     -5.09      0.00
    1    0   12     -0.60      0.00
    2    0   12      2.64      0.00
    3    0   12      4.62      0.00
    4    0   12     -1.06      0.00
    5    0   12     -2.57      0.00
    6    0   12     -1.22      0.00
    7    0   12     -2.08      0.00
    8    0   12      0.17      0.00
    9    0   12     -2.25      0.00
   10    0   12      0.32      0.00
   -7    1   12     -1.28      0.00
   -6    1   12     -2.14      0.00
   -5    1   12     -2.78      0.00
   -4    1   12      1.03      0.00
   -3    1   12      1.59      0.00
   -2    1   12      1.76      0.00
   -1    1   12      2.37      0.00
    0    1   12      3.19      0.00
    1    1   12      2.62      0.00
    2    1   12     -7.08      0.00
    3    1   12     -7.22      0.00
    4    1   12     -4.02      0.00
    5    1   12     -0.28      0.00
    6    1   12     -0.67      0.00
    7    1   12     -2.06      0.00
    8    1   12     -0.06      0.00
    9    1   12     -1.65      0.00
   10    1   12     -0.36      0.00
   -7    2   12      0.41      0.00
   -6    2   12      1.46      0.00
   -5    2   12      1.48      0.00
   -4    2   12      1.93      0.00
   -3    2   12      0.82      0.00
   -2    2   12      1.06      0.00
   -1    2   12     -0.66      0.00
    0    2   12     -2.30      0.00
    1    2   12     -0.49      0.00
    2    2   12      1.46      0.00
    3    2   12      7.87      0.00
    4    2   12      4.12      0.00
    5    2   12      0.10      0.00
    6    2   12     -1.63      0.00
    7    2   12     -0.44      0.00
    8    2   12     -1.64      0.00
    9    2   12     -1.13      0.00
   10    2   12      1.12      0.00
   -7    3   12      0.24      0.00
   -6    3   12     -1.63      0.00
   -5    3   12     -2.68      0.00
   -4    3   12     -3.75      0.00
   -3    3   12     -5.21      0.00
   -2    3   12     -3.93      0.00
   -1    3   12     -4.81      0.00
    0    3   12     -0.22      0.00
    1    3   12      3.80      0.00
    2    3   12     -0.78      0.00
    3    3   12     -3.17      0.00
    4    3   12     -5.75      0.00
    5    3   12     -1.43      0.00
    6    3   12      0.55      0.00
    7    3   12      1.41      0.00
    8    3   12     -0.99      0.00
    9    3   12      2.23      0.00
   10    3   12      0.16      0.00
   -7    4   12      0.51      0.00
   -6    4   12      1.22      0.00
   -5    4   12      1.37      0.00
   -4    4   12      0.18      0.00
   -3    4   12      0.51      0.00
   -2    4   12      0.95      0.00
   -1    4   12     -3.12      0.00
    0    4   12     -3.93      0.00
    1    4   12     -7.86      0.00
    2    4   12     -8.14      0.00
    3    4   12     -0.03      0.00
    4    4   12      2.97      0.00
    5    4   12      3.99      0.00
    6    4   12      1.56      0.00
    7    4   12      1.62      0.00
    8    4   12     -2.02      0.00
    9    4   12     -0.84      0.00
   10    4   12     -2.26      0.00
   -7    5   12      0.39      0.00
   -6    5   12      0.17      0.00
   -5    5   12      1.51      0.00
   -4    5   12      0.60      0.00
   -3    5   12      0.77      0.00
   -2    5   12     -0.89      0.00
   -1    5   12     -4.07      0.00
    0    5   12     -1.30      0.00
    1    5   12     -1.76      0.00
    2    5   12     -0.44      0.00
    3    5   12      1.43      0.00
    4    5   12     -2.28      0.00
    5    5   12     -2.48      0.00
    6    5   12     -1.29      0.00
    7    5   12     -1.97      0.00
    8    5   12     -1.81      0.00
    9    5   12      0.74      0.00
   10    5   12     -1.25      0.00
   -7    6   12     -0.06      0.00
   -6    6   12      1.31      0.00
   -5    6   12      0.44      0.00
   -4    6   12     -2.99      0.00
   -3    6   12      1.70      0.00
   -2    6   12      2.04      0.00
   -1    6   12      1.74      0.00
    0    6   12      3.41      0.00
    1    6   12     -0.85      0.00
    2    6   12     -1.23      0.00
    3    6   12     -1.58      0.00
    4    6   12     -2.73      0.00
    5    6   12      0.98      0.00
    6    6   12      3.35      0.00
    7    6   12     -0.96      0.00
    8    6   12     -0.26      0.00
    9    6   12     -1.08      0.00
   -6    7   12     -2.32      0.00
   -5    7   12     -1.57      0.00
   -4    7   12     -2.69      0.00
   -3    7   12      2.10      0.00
   -2    7   12      0.11      0.00
   -1    7   12     -1.05      0.00
    0    7   12      0.77      0.00
    2    7   12     -0.56      0.00
    3    7   12     -0.84      0.00
    4    7   12      0.35      0.00
    5    7   12      1.08      0.00
    6    7   12      0.92      0.00
   -6    8   12      0.49      0.00
   -5    8   12      1.59      0.00
   -4    8   12     -2.99      0.00
   -3    8   12     -1.92      0.00
   -2    8   12     -3.61      0.00
   -1    8   12     -4.65      0.00
    2    8   12      2.50      0.00
    3    8   12      0.95      0.00
    4    8   12     -1.88      0.00
    5    8   12     -2.18      0.00
    6    8   12      1.49      0.00
   -6    9   12     -0.23      0.00
   -5    9   12      0.50      0.00
   -4    9   12     -0.89      0.00
   -3    9   12     -1.27      0.00
   -2    9   12     -0.16      0.00
   -1    9   12     -1.53      0.00
    3    9   12     -5.63      0.00
    4    9   12     -1.33      0.00
    5    9   12      1.99      0.00
   -5   10   12      0.66      0.00
   -4   10   12      1.36      0.00
   -3   10   12     -1.15      0.00
   -2   10   12      2.21      0.00
   -1   10   12      0.01      0.00
    3   10   12      2.87      0.00
    4   10   12      3.07      0.00
    5   10   12      1.86      0.00
   -5   11   12      1.17      0.00
   -4   11   12      4.06      0.00
   -3   11   12      0.82      0.00
   -1   11   12      2.00      0.00
    0   11   12      2.18      0.00
    3   11   12      0.83      0.00
    4   11   12     -1.25      0.00
   -4   12   12      1.66      0.00
    0   12   12     -0.36      0.00
    1   12   12      1.45      0.00
    3   12   12      4.04      0.00
    0   13   12      0.30      0.00
    1   13   12      0.40      0.00
    2   13   12     -1.07      0.00
    3   13   12      2.57      0.00
    4   13   12     -3.06      0.00
    0   14   12      1.16      0.00
    1   14   12     -1.48      0.00
    2   14   12     -1.59      0.00
    3   14   12      0.17      0.00
    4   14   12     -1.66      0.00
    0  -10   13      2.40      0.00
    3  -10   13      0.07      0.00
    4  -10   13     -1.66      0.00
   -2   -9   13     -2.65      0.00
   -1   -9   13     -2.70      0.00
    0   -9   13      1.43      0.00
    3   -9   13     -1.85      0.00
    4   -9   13     -1.46      0.00
    5   -9   13      0.82      0.00
    6   -9   13      1.54      0.00
   -3   -8   13     -1.26      0.00
   -2   -8   13      0.99      0.00
   -1   -8   13      0.32      0.00
    0   -8   13      3.57      0.00
    2   -8   13      2.07      0.00
    3   -8   13      1.36      0.00
    4   -8   13     -0.57      0.00
    5   -8   13     -0.20      0.00
    6   -8   13      1.28      0.00
    7   -8   13     -0.81      0.00
   -4   -7   13     -0.87      0.00
   -3   -7   13     -2.17      0.00
   -2   -7   13      0.82      0.00
   -1   -7   13     -2.55      0.00
    0   -7   13      2.43      0.00
    1   -7   13     -0.61      0.00
    2   -7   13      1.19      0.00
    3   -7   13     -0.58      0.00
    4   -7   13      0.29      0.00
    5   -7   13      0.25      0.00
    6   -7   13      2.85      0.00
    7   -7   13      1.95      0.00
   -4   -6   13      2.15      0.00
   -3   -6   13     -1.01      0.00
   -2   -6   13      2.29      0.00
   -1   -6   13     -0.89      0.00
    0   -6   13      0.89      0.00
    1   -6   13     -1.92      0.00
    2   -6   13      0.22      0.00
    3   -6   13      0.61      0.00
    4   -6   13      2.22      0.00
    5   -6   13     -0.47      0.00
    6   -6   13      2.10      0.00
    7   -6   13     -0.57      0.00
    8   -6   13     -0.27      0.00
   -5   -5   13      0.79      0.00
   -4   -5   13     -1.33      0.00
   -3   -5   13     -1.74      0.00
   -2   -5   13     -0.55      0.00
   -1   -5   13     -2.46      0.00
    0   -5   13      0.80      0.00
    1   -5   13      1.62      0.00
    2   -5   13      1.18      0.00
    3   -5   13     -1.09      0.00
    4   -5   13      0.40      0.00
    5   -5   13      1.81      0.00
    6   -5   13      4.71      0.00
    7   -5   13     -0.23      0.00
    8   -5   13      1.25      0.00
   -5   -4   13      1.36      0.00
   -4   -4   13      0.15      0.00
   -3   -4   13     -0.86      0.00
   -2   -4   13      1.74      0.00
   -1   -4   13      4.70      0.00
    0   -4   13      2.30      0.00
    1   -4   13     -2.16      0.00
    2   -4   13     -2.79      0.00
    3   -4   13     -0.45      0.00
    4   -4   13      1.12      0.00
    5   -4   13      0.42      0.00
    6   -4   13      1.12      0.00
    7   -4   13      0.02      0.00
    8   -4   13      4.57      0.00
    9   -4   13      0.14      0.00
   -6   -3   13      2.95      0.00
   -5   -3   13     -0.26      0.00
   -4   -3   13     -4.93      0.00
   -3   -3   13     -2.96      0.00
   -2   -3   13     -2.33      0.00
   -1   -3   13     -2.61      0.00
    0   -3   13     -1.45      0.00
    1   -3   13      3.59      0.00
    2   -3   13      6.95      0.00
    3   -3   13      2.15      0.00
    4   -3   13     -2.41      0.00
    5   -3   13      0.85      0.00
    6   -3   13      3.27      0.00
    7   -3   13      0.25      0.00
    8   -3   13      1.78      0.00
    9   -3   13     -0.89      0.00
   -6   -2   13     -0.85      0.00
   -5   -2   13     -0.91      0.00
   -4   -2   13     -0.94      0.00
   -3   -2   13     -1.97      0.00
   -2   -2   13     -2.89      0.00
   -1   -2   13      2.55      0.00
    0   -2   13      5.62      0.00
    1   -2   13      1.70      0.00
    2   -2   13     -1.03      0.00
    3   -2   13     -0.68      0.00
    4   -2   13      3.42      0.00
    5   -2   13      4.44      0.00
    6   -2   13      2.61      0.00
    7   -2   13      1.40      0.00
    8   -2   13      3.52      0.00
    9   -2   13      3.05      0.00
   -6   -1   13      1.02      0.00
   -5   -1   13      0.15      0.00
   -4   -1   13     -3.87      0.00
   -3   -1   13     -1.54      0.00
   -2   -1   13      0.32      0.00
   -1   -1   13     -2.58      0.00
    0   -1   13     -8.79      0.00
    1   -1   13     -8.37      0.00
    2   -1   13      1.92      0.00
    3   -1   13      3.77      0.00
    4   -1   13      2.00      0.00
    5   -1   13      0.61      0.00
    6   -1   13      1.95      0.00
    7   -1   13      0.34      0.00
    8   -1   13     -2.16      0.00
    9   -1   13     -1.15      0.00
   -6    0   13     -0.68      0.00
   -5    0   13      2.05      0.00
   -4    0   13      2.16      0.00
   -3    0   13      2.91      0.00
   -2    0   13     -0.69      0.00
   -1    0   13     -2.05      0.00
    0    0   13      0.86      0.00
    1    0   13      2.21      0.00
    2    0   13      0.44      0.00
    3    0   13     -4.19      0.00
    4    0   13      0.07      0.00
    5    0   13      0.75      0.00
    6    0   13      0.60      0.00
    7    0   13      0.30      0.00
    8    0   13     -0.86      0.00
    9    0   13      1.15      0.00
   10    0   13     -1.55      0.00
   -7    1   13      0.95      0.00
   -6    1   13      0.53      0.00
   -5    1   13      1.48      0.00
   -4    1   13     -2.56      0.00
   -3    1   13     -2.01      0.00
   -2    1   13      0.13      0.00
   -1    1   13      2.97      0.00
    0    1   13      0.11      0.00
    1    1   13     -5.83      0.00
    2    1   13     -3.46      0.00
    3    1   13     -2.64      0.00
    4    1   13     -0.67      0.00
    5    1   13     -2.96      0.00
    6    1   13     -2.40      0.00
    7    1   13     -0.93      0.00
    8    1   13     -1.98      0.00
    9    1   13     -0.41      0.00
   10    1   13     -1.53      0.00
   -7    2   13      0.95      0.00
   -6    2   13     -0.65      0.00
   -5    2   13     -0.11      0.00
   -4    2   13      0.63      0.00
   -3    2   13      3.24      0.00
   -2    2   13      2.75      0.00
   -1    2   13      1.36      0.00
    0    2   13      0.89      0.00
    1    2   13      3.30      0.00
    2    2   13      6.68      0.00
    3    2   13     -0.13      0.00
    4    2   13     -0.40      0.00
    5    2   13      0.67      0.00
    6    2   13      1.20      0.00
    7    2   13     -0.18      0.00
    8    2   13     -0.76      0.00
    9    2   13     -0.09      0.00
   10    2   13     -1.31      0.00
   -7    3   13      0.76      0.00
   -6    3   13      0.57      0.00
   -5    3   13     -1.28      0.00
   -4    3   13     -3.65      0.00
   -3    3   13     -5.11      0.00
   -2    3   13     -6.48      0.00
   -1    3   13     -3.59      0.00
    0    3   13     -1.65      0.00
    1    3   13     -1.97      0.00
    2    3   13     -0.35      0.00
    3    3   13     -3.55      0.00
    4    3   13     -0.77      0.00
    5    3   13     -0.53      0.00
    6    3   13     -0.78      0.00
    7    3   13     -0.01      0.00
    8    3   13      1.45      0.00
    9    3   13     -1.15      0.00
   10    3   13     -0.06      0.00
   -6    4   13      0.96      0.00
   -5    4   13      0.21      0.00
   -4    4   13      0.37      0.00
   -3    4   13      0.01      0.00
   -2    4   13      0.92      0.00
   -1    4   13      1.67      0.00
    0    4   13     -2.22      0.00
    1    4   13     -2.84      0.00
    2    4   13     -0.19      0.00
    3    4   13     -1.41      0.00
    4    4   13      0.68      0.00
    5    4   13      0.72      0.00
    6    4   13      1.60      0.00
    7    4   13      1.46      0.00
    8    4   13      1.33      0.00
    9    4   13     -1.33      0.00
   -6    5   13      1.46      0.00
   -5    5   13      0.94      0.00
   -4    5   13      1.34      0.00
   -3    5   13     -0.98      0.00
   -2    5   13     -2.06      0.00
   -1    5   13     -3.36      0.00
    0    5   13     -5.82      0.00
    1    5   13     -3.80      0.00
    2    5   13     -2.18      0.00
    3    5   13     -1.75      0.00
    4    5   13      0.43      0.00
    5    5   13      0.41      0.00
    6    5   13     -0.38      0.00
    7    5   13      0.88      0.00
    8    5   13     -0.67      0.00
    9    5   13     -3.14      0.00
   -6    6   13     -1.09      0.00
   -5    6   13     -0.67      0.00
   -4    6   13      2.34      0.00
   -3    6   13     -0.87      0.00
   -2    6   13      2.71      0.00
   -1    6   13      5.24      0.00
    0    6   13      4.79      0.00
    1    6   13      4.67      0.00
    2    6   13     -1.00      0.00
    3    6   13     -1.60      0.00
    4    6   13      0.72      0.00
    5    6   13     -0.17      0.00
    6    6   13     -3.25      0.00
    7    6   13      0.23      0.00
   -6    7   13     -0.89      0.00
   -5    7   13     -2.57      0.00
   -4    7   13     -0.27      0.00
   -3    7   13     -2.15      0.00
   -2    7   13      1.13      0.00
   -1    7   13     -1.12      0.00
    1    7   13     -3.32      0.00
    2    7   13     -2.78      0.00
    3    7   13      1.32      0.00
    4    7   13     -0.47      0.00
    5    7   13     -1.30      0.00
    6    7   13     -1.63      0.00
    7    7   13      4.53      0.00
   -6    8   13     -1.63      0.00
   -5    8   13     -1.93      0.00
   -4    8   13      2.70      0.00
   -3    8   13     -2.29      0.00
   -2    8   13     -4.46      0.00
   -1    8   13     -4.08      0.00
    2    8   13      1.02      0.00
    3    8   13      0.08      0.00
    4    8   13     -1.74      0.00
    5    8   13      0.24      0.00
    6    8   13     -2.15      0.00
   -5    9   13     -0.51      0.00
   -4    9   13     -1.23      0.00
   -3    9   13     -3.38      0.00
   -2    9   13     -2.72      0.00
    2    9   13     -4.69      0.00
    3    9   13      0.94      0.00
    4    9   13     -0.51      0.00
    5    9   13      0.38      0.00
   -5   10   13      0.00      0.00
   -4   10   13      2.29      0.00
   -3   10   13      5.93      0.00
    3   10   13      1.66      0.00
    4   10   13      0.63      0.00
    5   10   13      1.86      0.00
   -4   11   13      0.28      0.00
   -3   11   13      2.07      0.00
    0   11   13      2.95      0.00
    3   11   13     -0.46      0.00
    4   11   13      1.94      0.00
    0   12   13      0.31      0.00
    1   12   13     -1.50      0.00
    3   12   13     -1.36      0.00
    4   12   13      2.58      0.00
    0   13   13     -3.77      0.00
    1   13   13     -1.13      0.00
    2   13   13      2.81      0.00
    3   13   13     -2.42      0.00
    0   14   13     -1.61      0.00
    1   14   13     -1.41      0.00
    2   14   13     -0.94      0.00
    3   14   13     -2.52      0.00
   -1   -9   14      0.18      0.00
    0   -9   14     -1.62      0.00
    1   -9   14      1.87      0.00
    3   -9   14     -0.17      0.00
    4   -9   14      1.06      0.00
    5   -9   14     -0.64      0.00
   -2   -8   14     -0.86      0.00
   -1   -8   14     -0.03      0.00
    0   -8   14     -2.09      0.00
    1   -8   14      3.52      0.00
    2   -8   14      0.39      0.00
    3   -8   14      0.00      0.00
    4   -8   14      1.25      0.00
    5   -8   14     -0.13      0.00
    6   -8   14      0.46      0.00
   -3   -7   14      1.51      0.00
   -2   -7   14     -0.53      0.00
   -1   -7   14      2.86      0.00
    0   -7   14     -2.42      0.00
    1   -7   14      0.52      0.00
    2   -7   14     -1.66      0.00
    3   -7   14     -1.15      0.00
    4   -7   14     -1.39      0.00
    5   -7   14     -1.61      0.00
    6   -7   14     -1.22      0.00
    7   -7   14      0.09      0.00
   -4   -6   14     -1.58      0.00
   -3   -6   14      2.20      0.00
   -2   -6   14     -1.30      0.00
   -1   -6   14      1.39      0.00
    0   -6   14     -1.11      0.00
    1   -6   14      3.77      0.00
    2   -6   14      3.13      0.00
    3   -6   14      3.23      0.00
    4   -6   14      3.22      0.00
    5   -6   14      5.62      0.00
    6   -6   14      3.39      0.00
    7   -6   14      3.22      0.00
   -4   -5   14      1.69      0.00
   -3   -5   14      0.64      0.00
   -2   -5   14     -3.11      0.00
   -1   -5   14      0.15      0.00
    0   -5   14     -2.51      0.00
    1   -5   14     -2.62      0.00
    2   -5   14     -3.75      0.00
    3   -5   14     -1.57      0.00
    4   -5   14     -0.87      0.00
    5   -5   14     -1.04      0.00
    6   -5   14     -3.26      0.00
    7   -5   14      0.19      0.00
    8   -5   14     -1.99      0.00
   -5   -4   14     -0.35      0.00
   -4   -4   14     -0.95      0.00
   -3   -4   14      0.67      0.00
   -2   -4   14      2.05      0.00
   -1   -4   14      3.25      0.00
    0   -4   14      2.99      0.00
    1   -4   14      4.69      0.00
    2   -4   14      3.70      0.00
    3   -4   14      2.04      0.00
    4   -4   14      0.69      0.00
    5   -4   14      3.28      0.00
    6   -4   14      5.77      0.00
    7   -4   14      7.05      0.00
    8   -4   14      0.47      0.00
   -5   -3   14     -2.70      0.00
   -4   -3   14     -0.84      0.00
   -3   -3   14     -3.88      0.00
   -2   -3   14     -5.12      0.00
   -1   -3   14     -2.69      0.00
    0   -3   14      0.20      0.00
    1   -3   14      0.02      0.00
    2   -3   14     -3.72      0.00
    3   -3   14     -2.11      0.00
    4   -3   14      0.35      0.00
    5   -3   14     -1.55      0.00
    6   -3   14     -3.38      0.00
    7   -3   14      0.12      0.00
    8   -3   14     -0.29      0.00
    9   -3   14      2.84      0.00
   -5   -2   14      0.85      0.00
   -4   -2   14     -0.80      0.00
   -3   -2   14     -2.13      0.00
   -2   -2   14      0.65      0.00
   -1   -2   14      1.76      0.00
    0   -2   14      2.78      0.00
    1   -2   14      5.48      0.00
    2   -2   14      6.60      0.00
    3   -2   14      7.17      0.00
    4   -2   14      3.44      0.00
    5   -2   14      2.90      0.00
    6   -2   14      4.21      0.00
    7   -2   14      5.91      0.00
    8   -2   14      2.01      0.00
    9   -2   14      1.40      0.00
   -6   -1   14     -3.47      0.00
   -5   -1   14     -3.78      0.00
   -4   -1   14      0.59      0.00
   -3   -1   14     -0.73      0.00
   -2   -1   14     -2.88      0.00
   -1   -1   14     -4.65      0.00
    0   -1   14     -3.53      0.00
    1   -1   14     -3.45      0.00
    2   -1   14     -6.12      0.00
    3   -1   14     -2.96      0.00
    4   -1   14      0.26      0.00
    5   -1   14      2.85      0.00
    6   -1   14     -0.49      0.00
    7   -1   14      0.09      0.00
    8   -1   14     -0.88      0.00
    9   -1   14     -1.10      0.00
   -6    0   14      2.50      0.00
   -5    0   14      1.97      0.00
   -4    0   14      3.44      0.00
   -3    0   14      0.74      0.00
   -2    0   14      1.01      0.00
   -1    0   14      0.25      0.00
    0    0   14     -0.56      0.00
    1    0   14     -1.31      0.00
    2    0   14      2.04      0.00
    3    0   14      6.85      0.00
    4    0   14      2.96      0.00
    5    0   14      1.77      0.00
    6    0   14     -0.89      0.00
    7    0   14      0.38      0.00
    8    0   14      0.68      0.00
    9    0   14     -0.72      0.00
   -6    1   14     -0.62      0.00
   -5    1   14     -2.65      0.00
   -4    1   14      0.86      0.00
   -3    1   14      0.10      0.00
   -2    1   14      0.28      0.00
   -1    1   14     -0.64      0.00
    0    1   14      0.79      0.00
    1    1   14     -0.40      0.00
    2    1   14     -4.67      0.00
    3    1   14     -5.25      0.00
    4    1   14     -5.40      0.00
    5    1   14     -1.70      0.00
    6    1   14     -1.75      0.00
    7    1   14     -1.00      0.00
    8    1   14      0.45      0.00
    9    1   14     -0.66      0.00
   -6    2   14      1.10      0.00
   -5    2   14      1.07      0.00
   -4    2   14      2.45      0.00
   -3    2   14      1.04      0.00
   -2    2   14      0.74      0.00
   -1    2   14      0.35      0.00
    0    2   14      1.61      0.00
    1    2   14      0.43      0.00
    2    2   14     -0.21      0.00
    3    2   14      5.24      0.00
    4    2   14      2.92      0.00
    5    2   14     -0.09      0.00
    6    2   14     -1.32      0.00
    7    2   14     -1.64      0.00
    8    2   14     -0.53      0.00
    9    2   14     -0.48      0.00
   -6    3   14     -0.48      0.00
   -5    3   14     -1.62      0.00
   -4    3   14     -2.58      0.00
   -3    3   14     -3.79      0.00
   -2    3   14     -3.57      0.00
   -1    3   14     -2.89      0.00
    0    3   14      0.28      0.00
    1    3   14      3.25      0.00
    2    3   14      1.02      0.00
    3    3   14      0.53      0.00
    4    3   14     -4.23      0.00
    5    3   14     -3.07      0.00
    6    3   14      1.37      0.00
    7    3   14      0.96      0.00
    8    3   14      0.37      0.00
    9    3   14      1.30      0.00
   -6    4   14      0.45      0.00
   -5    4   14      0.49      0.00
   -4    4   14     -0.48      0.00
   -3    4   14      0.48      0.00
   -2    4   14      0.01      0.00
   -1    4   14     -0.80      0.00
    0    4   14     -1.39      0.00
    1    4   14     -3.53      0.00
    2    4   14     -5.03      0.00
    3    4   14      0.11      0.00
    4    4   14      1.36      0.00
    5    4   14      2.74      0.00
    6    4   14      2.77      0.00
    7    4   14      0.65      0.00
    8    4   14      0.53      0.00
    9    4   14      0.16      0.00
   -6    5   14      0.73      0.00
   -5    5   14      1.95      0.00
   -4    5   14      2.06      0.00
   -3    5   14      1.94      0.00
   -2    5   14     -1.61      0.00
   -1    5   14     -2.40      0.00
    0    5   14     -2.55      0.00
    1    5   14     -2.04      0.00
    2    5   14      0.43      0.00
    3    5   14      2.39      0.00
    4    5   14      0.73      0.00
    5    5   14     -0.57      0.00
    6    5   14     -0.73      0.00
    7    5   14     -2.66      0.00
    8    5   14     -1.15      0.00
    9    5   14     -0.11      0.00
   -6    6   14      0.72      0.00
   -5    6   14      0.16      0.00
   -4    6   14     -2.32      0.00
   -3    6   14      1.52      0.00
   -2    6   14      1.20      0.00
   -1    6   14      3.54      0.00
    0    6   14      2.71      0.00
    1    6   14     -0.81      0.00
    2    6   14     -0.23      0.00
    3    6   14     -2.06      0.00
    4    6   14     -2.57      0.00
    5    6   14     -0.47      0.00
    6    6   14      2.41      0.00
    7    6   14     -1.25      0.00
    8    6   14      1.25      0.00
   -5    7   14     -1.92      0.00
   -4    7   14     -2.17      0.00
   -3    7   14      3.20      0.00
   -2    7   14      0.31      0.00
   -1    7   14      0.18      0.00
    1    7   14     -0.31      0.00
    2    7   14      1.12      0.00
    3    7   14     -2.59      0.00
    4    7   14      0.53      0.00
    5    7   14      1.13      0.00
    6    7   14      1.05      0.00
    7    7   14     -4.53      0.00
   -5    8   14      0.75      0.00
   -4    8   14     -3.50      0.00
   -3    8   14     -1.43      0.00
   -2    8   14     -3.34      0.00
    1    8   14     -2.62      0.00
    2    8   14      1.83      0.00
    3    8   14      0.37      0.00
    4    8   14      0.37      0.00
    5    8   14     -3.54      0.00
    6    8   14      0.46      0.00
   -5    9   14      0.83      0.00
   -4    9   14     -1.85      0.00
   -3    9   14     -0.43      0.00
   -2    9   14      0.05      0.00
    2    9   14      0.55      0.00
    3    9   14     -3.99      0.00
    4    9   14      0.17      0.00
    5    9   14      0.24      0.00
    6    9   14      3.52      0.00
   -4   10   14      0.11      0.00
   -3   10   14     -0.63      0.00
    2   10   14     -0.75      0.00
    3   10   14      1.48      0.00
    4   10   14      4.64      0.00
    5   10   14      0.54      0.00
   -4   11   14      2.74      0.00
    2   11   14      0.18      0.00
    3   11   14      0.66      0.00
    4   11   14      0.67      0.00
    5   11   14     -0.10      0.00
    0   12   14     -0.87      0.00
    3   12   14      2.34      0.00
    4   12   14      0.43      0.00
    0   13   14      0.25      0.00
    1   13   14      1.28      0.00
    2   13   14     -1.76      0.00
    3   13   14      2.47      0.00
    1   14   14     -1.61      0.00
   -1   -8   15      0.58      0.00
    0   -8   15      2.68      0.00
    1   -8   15     -2.12      0.00
    2   -8   15      0.97      0.00
    3   -8   15      1.31      0.00
    4   -8   15     -0.57      0.00
    5   -8   15      0.34      0.00
   -2   -7   15      1.76      0.00
   -1   -7   15     -1.21      0.00
    0   -7   15      2.16      0.00
    1   -7   15     -0.83      0.00
    2   -7   15      1.35      0.00
    3   -7   15      0.41      0.00
    4   -7   15     -0.86      0.00
    5   -7   15      0.57      0.00
    6   -7   15      1.46      0.00
   -3   -6   15     -0.66      0.00
   -2   -6   15      1.96      0.00
   -1   -6   15     -1.01      0.00
    0   -6   15      2.12      0.00
    1   -6   15     -1.75      0.00
    2   -6   15     -0.59      0.00
    3   -6   15      0.94      0.00
    4   -6   15      2.01      0.00
    5   -6   15      0.42      0.00
    6   -6   15      0.34      0.00
    7   -6   15     -0.76      0.00
   -3   -5   15     -1.76      0.00
   -2   -5   15      1.15      0.00
   -1   -5   15     -1.71      0.00
    0   -5   15      1.61      0.00
    1   -5   15      0.40      0.00
    2   -5   15      1.26      0.00
    3   -5   15      0.71      0.00
    4   -5   15      1.42      0.00
    5   -5   15      2.67      0.00
    6   -5   15      4.98      0.00
    7   -5   15      1.70      0.00
   -4   -4   15      0.12      0.00
   -3   -4   15      0.00      0.00
   -2   -4   15      1.19      0.00
   -1   -4   15      1.25      0.00
    0   -4   15      2.12      0.00
    1   -4   15     -1.79      0.00
    2   -4   15     -2.68      0.00
    3   -4   15     -2.50      0.00
    4   -4   15      0.51      0.00
    5   -4   15      0.62      0.00
    6   -4   15     -0.16      0.00
    7   -4   15     -1.14      0.00
    8   -4   15      2.40      0.00
   -4   -3   15     -3.45      0.00
   -3   -3   15     -2.53      0.00
   -2   -3   15     -0.85      0.00
   -1   -3   15     -0.89      0.00
    0   -3   15      0.73      0.00
    1   -3   15      2.52      0.00
    2   -3   15      5.99      0.00
    3   -3   15      2.48      0.00
    4   -3   15     -0.25      0.00
    5   -3   15      0.78      0.00
    6   -3   15      3.78      0.00
    7   -3   15      2.38      0.00
    8   -3   15      3.34      0.00
   -5   -2   15     -2.09      0.00
   -4   -2   15     -2.63      0.00
   -3   -2   15     -1.83      0.00
   -2   -2   15     -2.93      0.00
   -1   -2   15     -0.64      0.00
    0   -2   15      3.64      0.00
    1   -2   15      2.83      0.00
    2   -2   15      0.35      0.00
    3   -2   15     -2.95      0.00
    4   -2   15      0.94      0.00
    5   -2   15      1.77      0.00
    6   -2   15      1.18      0.00
    7   -2   15     -1.55      0.00
    8   -2   15      1.57      0.00
    9   -2   15      1.37      0.00
   -5   -1   15      0.69      0.00
   -4   -1   15     -2.00      0.00
   -3   -1   15      0.12      0.00
   -2   -1   15      1.71      0.00
   -1   -1   15      0.61      0.00
    0   -1   15     -3.29      0.00
    1   -1   15     -4.38      0.00
    2   -1   15      1.47      0.00
    3   -1   15      4.64      0.00
    4   -1   15      5.43      0.00
    5   -1   15      2.75      0.00
    6   -1   15      5.85      0.00
    7   -1   15      1.27      0.00
    8   -1   15     -0.10      0.00
    9   -1   15     -0.91      0.00
   -5    0   15      1.22      0.00
   -4    0   15      0.49      0.00
   -3    0   15      3.43      0.00
   -2    0   15      1.43      0.00
   -1    0   15     -1.54      0.00
    0    0   15     -2.15      0.00
    1    0   15      1.76      0.00
    2    0   15      0.99      0.00
    3    0   15     -2.42      0.00
    4    0   15      0.17      0.00
    5    0   15     -0.34      0.00
    6    0   15      1.64      0.00
    7    0   15     -1.94      0.00
    8    0   15     -0.84      0.00
    9    0   15     -0.10      0.00
   -5    1   15      0.95      0.00
   -4    1   15     -1.65      0.00
   -3    1   15     -0.32      0.00
   -2    1   15      0.01      0.00
   -1    1   15      1.71      0.00
    0    1   15     -0.65      0.00
    1    1   15     -2.34      0.00
    2    1   15     -3.89      0.00
    3    1   15     -1.68      0.00
    4    1   15      1.67      0.00
    5    1   15     -1.11      0.00
    6    1   15     -1.01      0.00
    7    1   15     -1.43      0.00
    8    1   15     -0.58      0.00
    9    1   15     -0.12      0.00
   -5    2   15      0.79      0.00
   -4    2   15      0.42      0.00
   -3    2   15      2.20      0.00
   -2    2   15      2.50      0.00
   -1    2   15      2.30      0.00
    0    2   15     -0.28      0.00
    1    2   15      2.91      0.00
    2    2   15      3.89      0.00
    3    2   15     -0.37      0.00
    4    2   15     -0.74      0.00
    5    2   15     -0.15      0.00
    6    2   15      0.12      0.00
    7    2   15      0.95      0.00
    8    2   15     -0.35      0.00
    9    2   15      0.36      0.00
   -5    3   15     -1.57      0.00
   -4    3   15     -2.77      0.00
   -3    3   15     -2.91      0.00
   -2    3   15     -2.88      0.00
   -1    3   15     -2.10      0.00
    0    3   15     -0.93      0.00
    1    3   15      1.01      0.00
    2    3   15      0.29      0.00
    3    3   15     -3.35      0.00
    4    3   15     -0.36      0.00
    5    3   15      0.98      0.00
    6    3   15     -1.85      0.00
    7    3   15      0.16      0.00
    8    3   15     -0.30      0.00
    9    3   15     -0.54      0.00
   -5    4   15      0.46      0.00
   -4    4   15      0.87      0.00
   -3    4   15      0.07      0.00
   -2    4   15      1.10      0.00
   -1    4   15      0.42      0.00
    0    4   15     -0.50      0.00
    1    4   15     -0.17      0.00
    2    4   15      1.38      0.00
    3    4   15      0.30      0.00
    4    4   15      2.36      0.00
    5    4   15      1.22      0.00
    6    4   15     -0.12      0.00
    7    4   15      3.09      0.00
    8    4   15      0.63      0.00
    9    4   15     -0.37      0.00
   -5    5   15      0.90      0.00
   -4    5   15      0.39      0.00
   -3    5   15     -1.11      0.00
   -2    5   15      0.34      0.00
   -1    5   15     -2.18      0.00
    0    5   15     -2.25      0.00
    1    5   15     -2.64      0.00
    2    5   15     -2.06      0.00
    3    5   15     -0.72      0.00
    4    5   15      1.12      0.00
    5    5   15      0.91      0.00
    6    5   15      0.84      0.00
    7    5   15      2.37      0.00
    8    5   15     -0.63      0.00
   -5    6   15      0.27      0.00
   -4    6   15      2.64      0.00
   -3    6   15      0.75      0.00
   -2    6   15      3.62      0.00
   -1    6   15      2.43      0.00
    0    6   15      3.62      0.00
    1    6   15      2.48      0.00
    2    6   15     -1.43      0.00
    3    6   15     -1.01      0.00
    4    6   15      0.94      0.00
    5    6   15      0.43      0.00
    6    6   15     -2.38      0.00
    7    6   15     -1.01      0.00
    8    6   15     -3.15      0.00
   -5    7   15     -1.32      0.00
   -4    7   15     -0.46      0.00
   -3    7   15     -2.40      0.00
   -2    7   15      1.88      0.00
   -1    7   15      0.35      0.00
    0    7   15     -0.06      0.00
    1    7   15     -2.24      0.00
    2    7   15     -3.74      0.00
    3    7   15      1.17      0.00
    4    7   15     -0.66      0.00
    5    7   15     -2.04      0.00
    6    7   15     -1.59      0.00
    7    7   15      4.03      0.00
   -5    8   15     -2.24      0.00
   -4    8   15      1.55      0.00
   -3    8   15     -2.01      0.00
   -2    8   15     -2.75      0.00
    1    8   15      2.83      0.00
    2    8   15      1.60      0.00
    3    8   15      1.27      0.00
    4    8   15     -2.52      0.00
    5    8   15      0.29      0.00
    6    8   15     -1.85      0.00
    7    8   15      0.97      0.00
   -4    9   15      0.87      0.00
   -3    9   15     -2.94      0.00
    1    9   15     -3.39      0.00
    2    9   15     -3.88      0.00
    3    9   15      1.84      0.00
    4    9   15     -0.53      0.00
    5    9   15      1.68      0.00
    6    9   15     -1.54      0.00
   -4   10   15      1.94      0.00
    2   10   15      2.92      0.00
    3   10   15      3.26      0.00
    4   10   15     -1.05      0.00
    5   10   15      2.71      0.00
    2   11   15      1.15      0.00
    3   11   15      1.29      0.00
    4   11   15     -0.47      0.00
    5   11   15      2.41      0.00
    2   12   15      1.76      0.00
    3   12   15     -0.88      0.00
    4   12   15     -0.12      0.00
    1   13   15     -2.18      0.00
    2   13   15      1.83      0.00
    3   13   15     -1.05      0.00
    2   -8   16      1.12      0.00
    3   -8   16      0.54      0.00
    0   -7   16     -1.63      0.00
    1   -7   16      0.50      0.00
    2   -7   16     -1.53      0.00
    3   -7   16     -1.61      0.00
    4   -7   16     -0.92      0.00
    5   -7   16     -1.44      0.00
   -2   -6   16      0.12      0.00
   -1   -6   16      2.32      0.00
    0   -6   16     -0.17      0.00
    1   -6   16      3.38      0.00
    2   -6   16      2.95      0.00
    3   -6   16      1.94      0.00
    4   -6   16      1.83      0.00
    5   -6   16      3.24      0.00
    6   -6   16      2.47      0.00
   -2   -5   16     -2.18      0.00
   -1   -5   16     -0.26      0.00
    0   -5   16     -2.94      0.00
    1   -5   16     -2.07      0.00
    2   -5   16     -3.18      0.00
    3   -5   16     -1.89      0.00
    4   -5   16     -0.05      0.00
    5   -5   16      0.81      0.00
    6   -5   16     -1.66      0.00
    7   -5   16     -0.78      0.00
   -3   -4   16      0.23      0.00
   -2   -4   16      1.39      0.00
   -1   -4   16      3.10      0.00
    0   -4   16      1.53      0.00
    1   -4   16      3.26      0.00
    2   -4   16      2.66      0.00
    3   -4   16      2.73      0.00
    4   -4   16      0.27      0.00
    5   -4   16      2.41      0.00
    6   -4   16      5.40      0.00
    7   -4   16      6.10      0.00
   -4   -3   16     -1.63      0.00
   -3   -3   16     -3.11      0.00
   -2   -3   16     -3.85      0.00
   -1   -3   16     -2.18      0.00
    0   -3   16     -0.84      0.00
    1   -3   16      0.91      0.00
    2   -3   16     -3.24      0.00
    3   -3   16     -3.05      0.00
    4   -3   16     -2.96      0.00
    5   -3   16     -1.99      0.00
    6   -3   16     -3.69      0.00
    7   -3   16     -1.86      0.00
    8   -3   16     -1.12      0.00
   -4   -2   16      0.15      0.00
   -3   -2   16     -1.72      0.00
   -2   -2   16      0.41      0.00
   -1   -2   16      3.31      0.00
    0   -2   16      3.41      0.00
    1   -2   16      4.95      0.00
    2   -2   16      4.46      0.00
    3   -2   16      7.25      0.00
    4   -2   16      3.42      0.00
    5   -2   16      3.14      0.00
    6   -2   16      3.32      0.00
    7   -2   16      6.28      0.00
    8   -2   16      2.97      0.00
   -4   -1   16     -0.30      0.00
   -3   -1   16     -1.10      0.00
   -2   -1   16     -2.07      0.00
   -1   -1   16     -2.69      0.00
    0   -1   16     -3.43      0.00
    1   -1   16     -1.82      0.00
    2   -1   16     -3.29      0.00
    3   -1   16     -2.48      0.00
    4   -1   16     -1.79      0.00
    5   -1   16      2.59      0.00
    6   -1   16     -1.25      0.00
    7   -1   16      0.56      0.00
    8   -1   16     -2.03      0.00
   -5    0   16      0.96      0.00
   -4    0   16      3.06      0.00
   -3    0   16      1.97      0.00
   -2    0   16      2.50      0.00
   -1    0   16      3.19      0.00
    0    0   16      2.18      0.00
    1    0   16     -0.13      0.00
    2    0   16      1.89      0.00
    3    0   16      5.99      0.00
    4    0   16      4.87      0.00
    5    0   16      4.81      0.00
    6    0   16     -0.03      0.00
    7    0   16      2.45      0.00
    8    0   16     -0.07      0.00
   -5    1   16     -1.62      0.00
   -4    1   16      0.49      0.00
   -3    1   16      0.00      0.00
   -2    1   16      0.32      0.00
   -1    1   16     -0.14      0.00
    0    1   16     -0.11      0.00
    1    1   16     -2.82      0.00
    2    1   16     -2.03      0.00
    3    1   16     -3.26      0.00
    4    1   16     -4.30      0.00
    5    1   16     -1.47      0.00
    6    1   16     -1.92      0.00
    7    1   16      0.45      0.00
    8    1   16      0.61      0.00
    9    1   16      0.89      0.00
   -5    2   16     -0.05      0.00
   -4    2   16      1.23      0.00
   -3    2   16      0.78      0.00
   -2    2   16      0.65      0.00
   -1    2   16      0.74      0.00
    0    2   16      3.00      0.00
    1    2   16     -0.37      0.00
    2    2   16      0.38      0.00
    3    2   16      1.95      0.00
    4    2   16      1.33      0.00
    5    2   16      0.63      0.00
    6    2   16      0.10      0.00
    7    2   16     -2.19      0.00
    8    2   16     -0.80      0.00
    9    2   16      0.19      0.00
   -5    3   16     -0.56      0.00
   -4    3   16     -1.16      0.00
   -3    3   16     -1.86      0.00
   -2    3   16     -2.47      0.00
   -1    3   16     -1.24      0.00
    0    3   16      1.60      0.00
    1    3   16      1.64      0.00
    2    3   16      2.83      0.00
    3    3   16      1.64      0.00
    4    3   16     -2.63      0.00
    5    3   16     -2.60      0.00
    6    3   16      2.19      0.00
    7    3   16      0.25      0.00
    8    3   16      1.65      0.00
    9    3   16      1.04      0.00
   -5    4   16     -0.55      0.00
   -4    4   16     -1.26      0.00
   -3    4   16      0.13      0.00
   -2    4   16     -0.05      0.00
   -1    4   16      1.14      0.00
    0    4   16      0.88      0.00
    1    4   16     -0.38      0.00
    2    4   16     -0.52      0.00
    3    4   16      0.58      0.00
    4    4   16     -0.80      0.00
    5    4   16      1.06      0.00
    6    4   16      3.58      0.00
    7    4   16     -0.46      0.00
    8    4   16      1.38      0.00
   -5    5   16      1.76      0.00
   -4    5   16      2.72      0.00
   -3    5   16      2.79      0.00
   -2    5   16     -1.12      0.00
   -1    5   16     -0.69      0.00
    0    5   16     -3.15      0.00
    1    5   16     -1.65      0.00
    2    5   16      0.97      0.00
    3    5   16      2.09      0.00
    4    5   16      1.42      0.00
    5    5   16      1.99      0.00
    6    5   16      0.69      0.00
    7    5   16     -1.99      0.00
    8    5   16      0.22      0.00
   -4    6   16     -1.43      0.00
   -3    6   16      0.49      0.00
   -2    6   16     -0.10      0.00
   -1    6   16      3.82      0.00
    0    6   16      1.62      0.00
    1    6   16      0.85      0.00
    2    6   16      0.32      0.00
    3    6   16     -1.00      0.00
    4    6   16     -1.75      0.00
    5    6   16     -0.03      0.00
    6    6   16      0.96      0.00
    7    6   16     -0.23      0.00
    8    6   16      1.64      0.00
   -4    7   16     -0.70      0.00
   -3    7   16      3.96      0.00
   -2    7   16      1.45      0.00
    0    7   16     -0.97      0.00
    1    7   16      0.62      0.00
    2    7   16      0.72      0.00
    3    7   16     -3.57      0.00
    4    7   16     -1.87      0.00
    5    7   16      1.17      0.00
    6    7   16      0.16      0.00
    7    7   16     -3.43      0.00
   -4    8   16     -2.70      0.00
   -3    8   16     -0.66      0.00
    0    8   16     -1.32      0.00
    1    8   16     -0.35      0.00
    2    8   16      0.96      0.00
    3    8   16      0.36      0.00
    4    8   16      1.43      0.00
    5    8   16     -2.04      0.00
    6    8   16     -0.83      0.00
    7    8   16     -1.28      0.00
   -3    9   16      0.18      0.00
    1    9   16      0.38      0.00
    2    9   16      1.97      0.00
    3    9   16     -1.91      0.00
    4    9   16      0.48      0.00
    5    9   16     -0.78      0.00
    6    9   16      2.27      0.00
    1   10   16      0.32      0.00
    2   10   16      0.63      0.00
    3   10   16      0.26      0.00
    4   10   16      4.87      0.00
    5   10   16     -0.23      0.00
    6   10   16      1.74      0.00
    1   11   16      3.42      0.00
    2   11   16      2.05      0.00
    3   11   16     -0.89      0.00
    4   11   16      1.99      0.00
    5   11   16     -1.96      0.00
    2   12   16     -1.08      0.00
    3   12   16      0.01      0.00
    4   12   16      1.72      0.00
    2   -7   17      1.22      0.00
    3   -7   17      0.79      0.00
    0   -6   17      1.28      0.00
    1   -6   17     -1.16      0.00
    2   -6   17     -0.96      0.00
    3   -6   17      0.49      0.00
    4   -6   17      1.56      0.00
    5   -6   17      0.14      0.00
   -1   -5   17     -0.53      0.00
    0   -5   17      0.87      0.00
    1   -5   17     -0.61      0.00
    2   -5   17      0.13      0.00
    3   -5   17      1.01      0.00
    4   -5   17      1.42      0.00
    5   -5   17      0.77      0.00
    6   -5   17      3.05      0.00
   -2   -4   17      0.99      0.00
   -1   -4   17      0.73      0.00
    0   -4   17      0.63      0.00
    1   -4   17     -1.96      0.00
    2   -4   17     -2.13      0.00
    3   -4   17     -2.68      0.00
    4   -4   17      0.79      0.00
    5   -4   17      0.88      0.00
    6   -4   17      0.27      0.00
   -3   -3   17     -1.74      0.00
   -2   -3   17     -1.25      0.00
   -1   -3   17     -0.25      0.00
    0   -3   17      1.07      0.00
    1   -3   17      0.74      0.00
    2   -3   17      3.33      0.00
    3   -3   17      0.95      0.00
    4   -3   17      0.48      0.00
    5   -3   17     -1.19      0.00
    6   -3   17      1.71      0.00
    7   -3   17      2.33      0.00
   -3   -2   17     -1.31      0.00
   -2   -2   17     -2.10      0.00
   -1   -2   17     -0.79      0.00
    0   -2   17      2.79      0.00
    1   -2   17      2.36      0.00
    2   -2   17      2.17      0.00
    3   -2   17     -2.93      0.00
    4   -2   17     -0.24      0.00
    5   -2   17     -0.39      0.00
    6   -2   17      0.00      0.00
    7   -2   17     -2.63      0.00
   -3   -1   17      0.11      0.00
   -2   -1   17      1.03      0.00
   -1   -1   17      0.79      0.00
    0   -1   17      0.76      0.00
    1   -1   17     -2.19      0.00
    2   -1   17      0.99      0.00
    3   -1   17      2.95      0.00
    4   -1   17      5.55      0.00
    5   -1   17      2.83      0.00
    6   -1   17      6.14      0.00
    7   -1   17      1.49      0.00
    8   -1   17      0.41      0.00
   -4    0   17      1.34      0.00
   -3    0   17      2.93      0.00
   -2    0   17      3.07      0.00
   -1    0   17      0.13      0.00
    0    0   17     -0.44      0.00
    1    0   17      0.71      0.00
    2    0   17      1.70      0.00
    3    0   17     -0.52      0.00
    4    0   17      0.35      0.00
    5    0   17     -0.46      0.00
    6    0   17      2.38      0.00
    7    0   17     -2.29      0.00
    8    0   17     -0.62      0.00
   -4    1   17     -0.74      0.00
   -3    1   17      0.28      0.00
   -2    1   17      1.11      0.00
   -1    1   17      0.61      0.00
    0    1   17     -0.04      0.00
    1    1   17     -0.69      0.00
    2    1   17     -3.25      0.00
    3    1   17     -0.51      0.00
    4    1   17      2.53      0.00
    5    1   17      0.33      0.00
    6    1   17      0.41      0.00
    7    1   17     -1.20      0.00
    8    1   17     -0.02      0.00
   -4    2   17      1.01      0.00
   -3    2   17      0.76      0.00
   -2    2   17      1.50      0.00
   -1    2   17      1.73      0.00
    0    2   17      0.30      0.00
    1    2   17      2.74      0.00
    2    2   17      1.28      0.00
    3    2   17      0.90      0.00
    4    2   17      0.01      0.00
    5    2   17     -0.70      0.00
    6    2   17     -0.69      0.00
    7    2   17      1.70      0.00
    8    2   17      0.68      0.00
   -4    3   17     -1.68      0.00
   -3    3   17     -1.84      0.00
   -2    3   17     -0.49      0.00
   -1    3   17     -0.67      0.00
    0    3   17     -0.54      0.00
    1    3   17      2.35      0.00
    2    3   17     -0.43      0.00
    3    3   17     -1.52      0.00
    4    3   17     -0.40      0.00
    5    3   17      0.50      0.00
    6    3   17     -1.92      0.00
    7    3   17      0.73      0.00
    8    3   17     -1.65      0.00
   -4    4   17      1.64      0.00
   -3    4   17      1.02      0.00
   -2    4   17      1.41      0.00
   -1    4   17     -0.22      0.00
    0    4   17      0.30      0.00
    1    4   17      1.85      0.00
    2    4   17      1.60      0.00
    3    4   17      2.22      0.00
    4    4   17      3.13      0.00
    5    4   17      0.86      0.00
    6    4   17     -1.35      0.00
    7    4   17      3.57      0.00
    8    4   17      0.65      0.00
   -4    5   17     -0.03      0.00
   -3    5   17     -1.48      0.00
   -2    5   17      0.45      0.00
   -1    5   17     -1.33      0.00
    0    5   17      0.41      0.00
    1    5   17     -1.08      0.00
    2    5   17     -0.88      0.00
    3    5   17      1.79      0.00
    4    5   17      2.44      0.00
    5    5   17     -0.27      0.00
    6    5   17      0.77      0.00
    7    5   17      3.00      0.00
    8    5   17     -0.25      0.00
   -4    6   17      2.17      0.00
   -3    6   17      1.75      0.00
   -2    6   17      3.82      0.00
   -1    6   17      1.06      0.00
    0    6   17      2.28      0.00
    1    6   17     -0.82      0.00
    2    6   17     -1.40      0.00
    3    6   17     -0.58      0.00
    4    6   17      1.06      0.00
    5    6   17      0.15      0.00
    6    6   17     -0.10      0.00
    7    6   17     -1.32      0.00
   -3    7   17     -1.51      0.00
   -2    7   17      1.62      0.00
   -1    7   17      0.42      0.00
    0    7   17      2.12      0.00
    1    7   17     -1.64      0.00
    2    7   17     -2.40      0.00
    3    7   17      0.73      0.00
    4    7   17      1.09      0.00
    5    7   17     -2.24      0.00
    6    7   17     -0.43      0.00
    7    7   17      2.03      0.00
   -3    8   17     -1.61      0.00
   -1    8   17     -1.39      0.00
    0    8   17     -0.42      0.00
    1    8   17      0.58      0.00
    2    8   17      2.26      0.00
    3    8   17      1.20      0.00
    4    8   17     -2.24      0.00
    5    8   17     -1.86      0.00
    6    8   17     -0.78      0.00
    7    8   17     -0.34      0.00
    0    9   17     -0.48      0.00
    1    9   17     -1.83      0.00
    2    9   17     -1.81      0.00
    3    9   17      1.70      0.00
    4    9   17      0.68      0.00
    5    9   17      1.53      0.00
    6    9   17     -0.38      0.00
    0   10   17     -1.82      0.00
    1   10   17      0.89      0.00
    2   10   17      2.05      0.00
    3   10   17      3.25      0.00
    4   10   17     -1.16      0.00
    5   10   17      2.04      0.00
    1   11   17      1.99      0.00
    2   11   17      0.79      0.00
    3   11   17      3.00      0.00
    4   11   17     -1.25      0.00
    1   12   17      0.21      0.00
    2   12   17      0.16      0.00
    0   -5   18     -1.42      0.00
    1   -5   18     -1.67      0.00
    2   -5   18     -2.42      0.00
    3   -5   18     -2.04      0.00
    4   -5   18     -0.48      0.00
   -1   -4   18      0.31      0.00
    0   -4   18      0.46      0.00
    1   -4   18      0.90      0.00
    2   -4   18      0.50      0.00
    3   -4   18      1.63      0.00
    4   -4   18     -0.24      0.00
    5   -4   18      1.77      0.00
   -2   -3   18     -1.40      0.00
   -1   -3   18     -1.82      0.00
    0   -3   18     -0.56      0.00
    1   -3   18      0.69      0.00
    2   -3   18     -2.06      0.00
    3   -3   18     -2.39      0.00
    4   -3   18     -3.92      0.00
    5   -3   18     -1.04      0.00
    6   -3   18     -2.42      0.00
   -2   -2   18      0.29      0.00
   -1   -2   18      1.35      0.00
    0   -2   18      2.86      0.00
    1   -2   18      4.25      0.00
    2   -2   18      1.93      0.00
    3   -2   18      4.84      0.00
    4   -2   18      1.70      0.00
    5   -2   18      1.38      0.00
    6   -2   18      0.71      0.00
    7   -2   18      3.70      0.00
   -3   -1   18     -0.16      0.00
   -2   -1   18     -0.87      0.00
   -1   -1   18     -1.26      0.00
    0   -1   18     -2.56      0.00
    1   -1   18      0.07      0.00
    2   -1   18     -1.45      0.00
    3   -1   18     -0.63      0.00
    4   -1   18     -1.93      0.00
    5   -1   18      1.87      0.00
    6   -1   18     -0.56      0.00
    7   -1   18      0.77      0.00
   -3    0   18      2.72      0.00
   -2    0   18      2.82      0.00
   -1    0   18      3.62      0.00
    0    0   18      1.83      0.00
    1    0   18      1.92      0.00
    2    0   18      0.53      0.00
    3    0   18      3.71      0.00
    4    0   18      4.37      0.00
    5    0   18      4.99      0.00
    6    0   18      0.82      0.00
    7    0   18      2.66      0.00
   -3    1   18      1.33      0.00
   -2    1   18      0.70      0.00
   -1    1   18      1.51      0.00
    0    1   18     -0.50      0.00
    1    1   18     -1.70      0.00
    2    1   18     -1.20      0.00
    3    1   18     -1.22      0.00
    4    1   18     -1.93      0.00
    5    1   18     -0.90      0.00
    6    1   18     -1.94      0.00
    7    1   18      0.35      0.00
   -3    2   18      0.73      0.00
   -2    2   18      0.35      0.00
   -1    2   18      1.58      0.00
    0    2   18      1.77      0.00
    1    2   18     -0.25      0.00
    2    2   18      0.27      0.00
    3    2   18     -0.25      0.00
    4    2   18      0.75      0.00
    5    2   18      1.54      0.00
    6    2   18      1.30      0.00
    7    2   18     -1.66      0.00
   -3    3   18      0.04      0.00
   -2    3   18     -1.45      0.00
   -1    3   18     -0.25      0.00
    0    3   18      1.23      0.00
    1    3   18      0.95      0.00
    2    3   18      2.76      0.00
    3    3   18      0.38      0.00
    4    3   18     -0.54      0.00
    5    3   18     -0.34      0.00
    6    3   18      1.68      0.00
    7    3   18     -1.20      0.00
   -3    4   18      0.28      0.00
   -2    4   18      0.06      0.00
   -1    4   18      1.79      0.00
    0    4   18      1.73      0.00
    1    4   18      1.57      0.00
    2    4   18      2.35      0.00
    3    4   18      0.46      0.00
    4    4   18     -0.61      0.00
    5    4   18      0.19      0.00
    6    4   18      2.29      0.00
    7    4   18     -1.22      0.00
   -3    5   18      2.63      0.00
   -2    5   18      0.29      0.00
   -1    5   18      0.67      0.00
    0    5   18     -2.35      0.00
    1    5   18     -0.56      0.00
    2    5   18      1.11      0.00
    3    5   18      0.23      0.00
    4    5   18      0.99      0.00
    5    5   18      3.39      0.00
    6    5   18      1.38      0.00
    7    5   18     -1.25      0.00
   -3    6   18     -0.15      0.00
   -2    6   18     -0.88      0.00
   -1    6   18      1.95      0.00
    0    6   18     -0.14      0.00
    1    6   18      1.71      0.00
    2    6   18      0.04      0.00
    3    6   18     -0.03      0.00
    4    6   18      1.06      0.00
    5    6   18      2.44      0.00
    6    6   18     -0.10      0.00
    7    6   18      0.46      0.00
   -3    7   18      3.36      0.00
   -2    7   18      1.71      0.00
   -1    7   18      2.25      0.00
    0    7   18     -0.66      0.00
    1    7   18      1.41      0.00
    2    7   18     -0.57      0.00
    3    7   18     -3.22      0.00
    4    7   18     -3.18      0.00
    5    7   18      1.42      0.00
    6    7   18     -0.56      0.00
   -2    8   18     -1.55      0.00
   -1    8   18     -0.96      0.00
    0    8   18     -0.06      0.00
    1    8   18      1.64      0.00
    2    8   18     -0.38      0.00
    3    8   18      0.02      0.00
    4    8   18      1.10      0.00
    5    8   18      0.77      0.00
    6    8   18     -1.58      0.00
   -1    9   18     -2.04      0.00
    0    9   18     -0.72      0.00
    1    9   18      0.26      0.00
    2    9   18      1.08      0.00
    3    9   18      0.03      0.00
    4    9   18      0.05      0.00
    5    9   18     -0.25      0.00
    0   10   18      2.20      0.00
    1   10   18      0.44      0.00
    2   10   18      0.05      0.00
    3   10   18     -0.03      0.00
    4   10   18      3.50      0.00
    1   11   18      1.97      0.00
    2   11   18      2.02      0.00
    3   11   18     -1.33      0.00
    1   -4   19     -1.59      0.00
    2   -4   19     -1.25      0.00
    3   -4   19     -1.64      0.00
    4   -4   19      0.97      0.00
    0   -3   19     -1.14      0.00
    1   -3   19     -0.66      0.00
    2   -3   19      0.59      0.00
    3   -3   19     -0.57      0.00
    4   -3   19      0.24      0.00
    5   -3   19     -2.51      0.00
   -1   -2   19      1.25      0.00
    0   -2   19      1.69      0.00
    1   -2   19      1.81      0.00
    2   -2   19      2.93      0.00
    3   -2   19     -1.19      0.00
    4   -2   19     -0.35      0.00
    5   -2   19     -0.97      0.00
    6   -2   19     -0.11      0.00
   -1   -1   19      0.48      0.00
    0   -1   19      0.77      0.00
    1   -1   19     -1.14      0.00
    2   -1   19      0.87      0.00
    3   -1   19      0.67      0.00
    4   -1   19      3.35      0.00
    5   -1   19      1.81      0.00
    6   -1   19      3.48      0.00
   -2    0   19      2.87      0.00
   -1    0   19      1.78      0.00
    0    0   19      1.55      0.00
    1    0   19     -0.16      0.00
    2    0   19      2.55      0.00
    3    0   19      0.41      0.00
    4    0   19      0.47      0.00
    5    0   19      0.25      0.00
    6    0   19      2.08      0.00
   -2    1   19      2.03      0.00
   -1    1   19      0.50      0.00
    0    1   19      0.77      0.00
    1    1   19     -1.45      0.00
    2    1   19     -1.52      0.00
    3    1   19     -1.04      0.00
    4    1   19      1.13      0.00
    5    1   19      0.71      0.00
    6    1   19      0.96      0.00
    7    1   19     -0.30      0.00
   -2    2   19      0.87      0.00
   -1    2   19      0.56      0.00
    0    2   19      1.82      0.00
    1    2   19      1.43      0.00
    2    2   19      1.00      0.00
    3    2   19      0.99      0.00
    4    2   19      0.10      0.00
    5    2   19     -0.39      0.00
    6    2   19     -0.67      0.00
    7    2   19      1.10      0.00
   -2    3   19      0.43      0.00
   -1    3   19     -0.19      0.00
    0    3   19      0.49      0.00
    1    3   19      0.90      0.00
    2    3   19     -0.37      0.00
    3    3   19      0.01      0.00
    4    3   19     -0.92      0.00
    5    3   19     -0.10      0.00
    6    3   19     -0.50      0.00
    7    3   19      1.48      0.00
   -2    4   19      1.51      0.00
   -1    4   19     -0.41      0.00
    0    4   19      0.91      0.00
    1    4   19      1.89      0.00
    2    4   19      2.15      0.00
    3    4   19      2.83      0.00
    4    4   19      0.86      0.00
    5    4   19      0.04      0.00
    6    4   19     -0.79      0.00
    7    4   19      2.43      0.00
   -2    5   19      0.04      0.00
   -1    5   19     -0.62      0.00
    0    5   19      1.54      0.00
    1    5   19     -0.31      0.00
    2    5   19      0.51      0.00
    3    5   19      3.49      0.00
    4    5   19      2.01      0.00
    5    5   19     -1.04      0.00
    6    5   19      0.40      0.00
   -2    6   19      2.37      0.00
   -1    6   19      0.65      0.00
    0    6   19      1.23      0.00
    1    6   19     -2.44      0.00
    2    6   19     -0.20      0.00
    3    6   19      0.93      0.00
    4    6   19      0.01      0.00
    5    6   19     -0.37      0.00
    6    6   19      2.13      0.00
   -1    7   19     -0.20      0.00
    0    7   19      1.43      0.00
    1    7   19     -1.58      0.00
    2    7   19     -0.81      0.00
    3    7   19      0.21      0.00
    4    7   19      1.52      0.00
    5    7   19     -0.97      0.00
    6    7   19      1.24      0.00
   -1    8   19     -0.44      0.00
    0    8   19      0.36      0.00
    1    8   19     -0.08      0.00
    2    8   19      2.58      0.00
    3    8   19      1.07      0.00
    4    8   19     -1.56      0.00
    5    8   19     -3.08      0.00
    0    9   19     -0.20      0.00
    1    9   19     -0.73      0.00
    2    9   19      0.07      0.00
    3    9   19      0.61      0.00
    4    9   19      0.61      0.00
    2   10   19      1.45      0.00
    1   -2   20      2.32      0.00
    2   -2   20      0.50      0.00
    3   -2   20      1.87      0.00
    4   -2   20      0.38      0.00
    0   -1   20     -0.19      0.00
    1   -1   20      0.71      0.00
    2   -1   20     -0.16      0.00
    3   -1   20      1.01      0.00
    4   -1   20     -0.75      0.00
    5   -1   20      0.86      0.00
    0    0   20      0.76      0.00
    1    0   20      1.88      0.00
    2    0   20     -0.53      0.00
    3    0   20      1.69      0.00
    4    0   20      2.31      0.00
    5    0   20      2.78      0.00
   -1    1   20      1.54      0.00
    0    1   20     -0.16      0.00
    1    1   20      0.16      0.00
    2    1   20     -1.49      0.00
    3    1   20      0.39      0.00
    4    1   20     -0.29      0.00
    5    1   20     -0.96      0.00
   -1    2   20      1.91      0.00
    0    2   20      0.29      0.00
    1    2   20      0.25      0.00
    2    2   20     -1.33      0.00
    3    2   20     -0.54      0.00
    4    2   20      0.26      0.00
    5    2   20      0.54      0.00
    6    2   20      0.92      0.00
   -1    3   20      0.25      0.00
    0    3   20     -0.29      0.00
    1    3   20      1.34      0.00
    2    3   20      0.91      0.00
    3    3   20     -0.23      0.00
    4    3   20      0.82      0.00
    5    3   20      0.86      0.00
    6    3   20      0.75      0.00
   -1    4   20      1.17      0.00
    0    4   20      0.74      0.00
    1    4   20      2.30      0.00
    2    4   20      1.60      0.00
    3    4   20      0.63      0.00
    4    4   20      1.52      0.00
    5    4   20     -0.32      0.00
    6    4   20     -0.10      0.00
   -1    5   20      1.46      0.00
    0    5   20     -0.84      0.00
    1    5   20      1.04      0.00
    2    5   20      0.75      0.00
    3    5   20     -0.48      0.00
    4    5   20      0.75      0.00
    5    5   20      1.42      0.00
    0    6   20     -1.38      0.00
    1    6   20      1.19      0.00
    2    6   20     -0.87      0.00
    3    6   20      0.08      0.00
    4    6   20      3.77      0.00
    5    6   20      3.57      0.00
    0    7   20     -0.48      0.00
    1    7   20      1.16      0.00
    2    7   20     -1.10      0.00
    3    7   20     -1.38      0.00
    4    7   20     -1.05      0.00
    1    8   20      1.55      0.00
    2    8   20     -0.96      0.00
    3    8   20     -0.62      0.00
    2    1   21     -0.85      0.00
    3    1   21     -2.03      0.00
    1    2   21      0.49      0.00
    2    2   21      1.18      0.00
    3    2   21     -0.52      0.00
    4    2   21     -0.28      0.00
    1    3   21     -0.85      0.00
    2    3   21     -0.23      0.00
    3    3   21     -0.72      0.00
    4    3   21     -0.89      0.00
    1    4   21      0.83      0.00
    2    4   21      3.00      0.00
    3    4   21      1.82      0.00
    4    4   21     -1.20      0.00
    2    5   21      1.19      0.00
    3    5   21      1.85      0.00
    1    0    0     46.13      0.00
   -1    1    0    -26.79      0.00
    0    1    0     -5.67      0.00
    1    1    0    -50.10      0.00
    0    2    0     38.78      0.00
    1    2    0     22.06      0.00
    0    3    0     -4.06      0.00
    1    3    0    -36.74      0.00
  -10    7    0     -0.41      0.00
   -4   15    0      0.21      0.00
    4  -15    1     -0.89      0.00
   -8  -10    1      1.68      0.00
   -9   -8    1     -1.34      0.00
   10   -7    1     -0.15      0.00
  -10   -5    1      1.04      0.00
   -1   -3    1      8.86      0.00
    0   -3    1      2.35      0.00
    0   -2    1    -47.36      0.00
    0   -1    1      8.21      0.00
   11   -1    1     -1.93      0.00
    0    0    1    -19.30      0.00
    1    0    1     36.71      0.00
   11    0    1     -1.90      0.00
    0    1    1     11.13      0.00
    1    1    1     62.51      0.00
    0    2    1    -41.93      0.00
    1    2    1     -3.05      0.00
    1    3    1     10.29      0.00
   10    6    1     -2.46      0.00
    7   12    1      0.90      0.00
    5   14    1     -1.34      0.00
   -1   16    1     -0.82      0.00
    0   16    1     -1.39      0.00
   -2  -15    2     -1.68      0.00
   -4  -14    2     -0.75      0.00
   -7  -11    2      2.68      0.00
   -1   -3    2    -28.94      0.00
    0   -2    2     34.74      0.00
   11   -2    2      0.78      0.00
    0   -1    2    -19.77      0.00
    1   -1    2    -44.55      0.00
    0    0    2    107.55      0.00
    1    0    2     45.73      0.00
    0    1    2      7.18      0.00
    1    1    2    -51.18      0.00
    2    1    2      1.58      0.00
   11    1    2      1.37      0.00
    0    2    2     23.61      0.00
    1    2    2     19.63      0.00
    2    2    2     41.38      0.00
    1    3    2    -35.46      0.00
    1    4    2      1.34      0.00
  -10    6    2      0.70      0.00
    9    9    2      1.03      0.00
   -2   16    2     -0.21      0.00
    1   16    2     -0.60      0.00
    3  -15    3      0.43      0.00
    5  -14    3      0.62      0.00
   -8   -9    3      1.06      0.00
   -1   -3    3      1.69      0.00
   11   -3    3     -2.27      0.00
    0   -2    3    -33.57      0.00
    0   -1    3     -1.90      0.00
    1    1    3     50.78      0.00
    1    2    3      2.32      0.00
   11    2    3     -1.75      0.00
    1    3    3      4.22      0.00
    1    4    3     -7.67      0.00
    1    5    3     15.25      0.00
   10    7    3     -1.05      0.00
   -9    9    3     -0.60      0.00
   -8   11    3     -0.27      0.00
    8   11    3     -1.98      0.00
   -5   14    3      0.54      0.00
    4   15    3      2.05      0.00
   -2   16    3     -0.80      0.00
    0  -15    4      0.91      0.00
    1  -15    4      1.01      0.00
    2  -15    4     -2.24      0.00
   -3  -14    4     -0.75      0.00
    8  -11    4     -0.60      0.00
   10   -7    4     -2.06      0.00
   -9   -6    4     -0.92      0.00
   11   -3    4      1.94      0.00
  -10   -2    4      0.40      0.00
    1    3    4    -22.55      0.00
   11    3    4      0.55      0.00
    2    4    4      4.43      0.00
    1    5    4      9.91      0.00
    1    6    4      6.97      0.00
   10    7    4     -0.45      0.00
   -5   13    4     -2.39      0.00
   -4   13    4      1.14      0.00
   -5   14    4     -0.29      0.00
   -4   14    4     -2.34      0.00
   -4   15    4     -0.25      0.00
   -2   16    4     -0.42      0.00
    2   16    4     -0.89      0.00
   -5  -12    5      1.23      0.00
    7  -12    5      0.11      0.00
   -6  -11    5     -0.22      0.00
   10   -7    5      0.13      0.00
   11   -3    5     -2.39      0.00
  -10    1    5     -1.20      0.00
  -10    2    5     -0.27      0.00
   11    3    5      0.36      0.00
    2    5    5      6.22      0.00
    1    7    5      2.70      0.00
   -9    8    5      1.15      0.00
   -7   12    5     -0.50      0.00
   -4   13    5     -0.91      0.00
   -5   14    5     -0.52      0.00
   -4   14    5     -2.96      0.00
   -4   15    5      0.93      0.00
    2   16    5      0.05      0.00
   -1  -14    6      2.62      0.00
    3  -14    6      2.34      0.00
   -7   -9    6     -0.95      0.00
    9   -9    6      1.83      0.00
   -8   -7    6     -0.76      0.00
   -9   -4    6     -0.18      0.00
   11    3    6      0.68      0.00
    2    5    6      0.04      0.00
    2    6    6      0.63      0.00
   -9    7    6      1.11      0.00
    2    7    6      0.50      0.00
    1    8    6      3.09      0.00
    2    8    6      2.14      0.00
    3    8    6     -0.62      0.00
    3    9    6     -3.67      0.00
    4    9    6     -0.96      0.00
    5    9    6      0.19      0.00
   -8   10    6      0.00      0.00
   -6   13    6     -2.02      0.00
   -5   14    6     -0.86      0.00
   -4   14    6     -1.19      0.00
   -3   15    6      2.57      0.00
   -1   16    6     -1.47      0.00
    2   16    6     -0.77      0.00
    1  -14    7      0.06      0.00
    2  -14    7      0.88      0.00
    2  -13    7      2.05      0.00
    5  -13    7     -0.67      0.00
   -4  -12    7      0.28      0.00
    2  -12    7      0.07      0.00
   -5  -11    7      0.65      0.00
   -8   -6    7     -1.63      0.00
   -9   -3    7     -1.14      0.00
   11   -2    7     -1.22      0.00
   11    3    7     -0.38      0.00
   -9    6    7      0.33      0.00
    2    6    7     -2.91      0.00
    2    7    7      5.36      0.00
    2    8    7     -3.05      0.00
    3    8    7     -3.04      0.00
    2    9    7     -5.42      0.00
    3    9    7     -2.40      0.00
    5    9    7     -0.05      0.00
    6    9    7      1.09      0.00
    7    9    7      2.30      0.00
    4   10    7      1.12      0.00
    5   10    7     -0.82      0.00
    6   10    7     -1.81      0.00
    7   10    7      1.44      0.00
   -4   14    7     -4.61      0.00
   -3   14    7     -4.25      0.00
   -3   15    7      1.29      0.00
   -1   16    7      1.16      0.00
    1   16    7     -0.11      0.00
    1  -13    8      1.53      0.00
    2  -13    8     -0.74      0.00
    3  -13    8     -1.60      0.00
    1  -12    8      3.71      0.00
    2  -12    8      1.69      0.00
    1  -11    8      0.41      0.00
    7  -11    8      1.18      0.00
    1  -10    8      5.87      0.00
   -6   -9    8     -1.41      0.00
   10   -6    8     -0.54      0.00
   -8   -5    8      1.29      0.00
   -9   -1    8      1.12      0.00
   11   -1    8      0.16      0.00
   11    0    8     -0.96      0.00
   11    1    8      0.93      0.00
   11    2    8      0.16      0.00
   -9    4    8     -0.29      0.00
    2    6    8     -1.29      0.00
    2    7    8     -2.21      0.00
   10    7    8     -0.12      0.00
    2    8    8      4.20      0.00
    5    8    8      1.30      0.00
    1    9    8     -5.79      0.00
    2    9    8     -7.03      0.00
    3    9    8     -5.90      0.00
    5    9    8      0.97      0.00
    6    9    8     -0.17      0.00
    7    9    8     -0.39      0.00
    8    9    8      4.79      0.00
    2   10    8      1.75      0.00
    3   10    8      0.93      0.00
    4   10    8      0.02      0.00
    5   10    8     -0.62      0.00
    6   10    8     -0.28      0.00
    7   10    8     -2.48      0.00
    8   10    8      1.84      0.00
   -3   14    8     -2.26      0.00
   -3   15    8      0.99      0.00
    4   15    8      0.03      0.00
    0   16    8      1.67      0.00
    1   16    8      0.98      0.00
    0  -13    9      2.29      0.00
    1  -13    9     -0.37      0.00
    2  -13    9      2.03      0.00
    3  -13    9      2.40      0.00
    0  -12    9      1.52      0.00
    1  -12    9     -3.28      0.00
    2  -12    9     -0.02      0.00
    0  -11    9      3.23      0.00
    1  -11    9     -0.96      0.00
    2  -11    9      2.99      0.00
    0  -10    9      3.11      0.00
    1  -10    9     -0.64      0.00
    0   -9    9      2.24      0.00
    0   -8    9      1.42      0.00
   -8   -4    9      1.02      0.00
    2    7    9      3.62      0.00
   10    7    9     -0.15      0.00
    1    8    9      2.23      0.00
    2    8    9     -2.47      0.00
    6    8    9      0.52      0.00
    7    8    9      0.75      0.00
    8    8    9      0.37      0.00
    1    9    9     -8.18      0.00
    2    9    9     -5.55      0.00
    5    9    9      0.06      0.00
    6    9    9      1.82      0.00
    7    9    9      2.25      0.00
    8    9    9     -0.88      0.00
    1   10    9     -0.75      0.00
    2   10    9     -1.09      0.00
    3   10    9      0.92      0.00
    5   10    9      0.50      0.00
    6   10    9     -0.92      0.00
    7   10    9      1.47      0.00
    8   10    9     -1.13      0.00
    3   11    9      0.46      0.00
    4   11    9      0.52      0.00
    5   11    9     -0.29      0.00
    6   11    9     -0.37      0.00
    7   11    9      1.52      0.00
    8   11    9     -2.25      0.00
   -4   14    9     -3.60      0.00
   -3   14    9     -4.33      0.00
   -2   14    9     -2.03      0.00
   -2   15    9      1.61      0.00
    0  -12   10     -1.79      0.00
    1  -12   10      2.33      0.00
    2  -12   10      1.22      0.00
    3  -12   10      2.75      0.00
   -3  -11   10      0.10      0.00
    0  -11   10     -2.05      0.00
    1  -11   10      1.09      0.00
    2  -11   10     -2.38      0.00
    6  -11   10     -1.70      0.00
   -4  -10   10      1.60      0.00
    0  -10   10     -1.25      0.00
    1  -10   10      3.01      0.00
   -5   -9   10     -1.10      0.00
    0   -9   10     -1.75      0.00
    1   -9   10      1.51      0.00
    0   -8   10      0.93      0.00
    0   -7   10     -2.22      0.00
   -8   -2   10      1.07      0.00
    1    7   10     -2.40      0.00
    2    7   10     -2.57      0.00
    1    8   10     -0.35      0.00
    2    8   10      3.70      0.00
    6    8   10      1.51      0.00
    7    8   10      1.79      0.00
    8    8   10      1.20      0.00
    9    8   10     -1.53      0.00
    0    9   10     -1.02      0.00
    1    9   10     -2.59      0.00
    2    9   10     -6.00      0.00
    6    9   10      1.16      0.00
    7    9   10      0.34      0.00
    8    9   10      2.98      0.00
    9    9   10      0.93      0.00
    1   10   10     -2.01      0.00
    2   10   10      0.04      0.00
    5   10   10      1.11      0.00
    6   10   10      0.83      0.00
    7   10   10     -0.85      0.00
    8   10   10      1.11      0.00
    2   11   10     -0.57      0.00
    3   11   10     -0.52      0.00
    4   11   10     -1.12      0.00
    5   11   10      2.01      0.00
    6   11   10      2.88      0.00
    7   11   10     -0.06      0.00
    8   11   10      2.03      0.00
   -2   12   10     -0.12      0.00
    5   12   10      0.65      0.00
    6   12   10      1.22      0.00
    7   12   10     -1.10      0.00
   -2   13   10      0.07      0.00
   -3   14   10     -0.42      0.00
   -2   14   10     -1.03      0.00
   -2   15   10      0.67      0.00
    1  -12   11     -0.80      0.00
    2  -12   11      0.82      0.00
   -2  -11   11      0.48      0.00
    0  -11   11      1.90      0.00
    1  -11   11     -2.45      0.00
    2  -11   11      0.62      0.00
    0  -10   11      3.15      0.00
    1  -10   11     -0.23      0.00
    2  -10   11      1.22      0.00
    1   -9   11     -1.75      0.00
   -5   -8   11     -0.56      0.00
   -7   -4   11      0.54      0.00
   10   -4   11     -0.45      0.00
   -8    1   11     -0.43      0.00
   -8    2   11     -0.13      0.00
   -8    3   11      0.08      0.00
   -8    4   11      0.19      0.00
   10    6   11      0.57      0.00
    1    7   11     -3.39      0.00
    7    7   11      2.31      0.00
    8    7   11     -0.67      0.00
    9    7   11      0.05      0.00
    1    8   11      4.00      0.00
    2    8   11     -0.45      0.00
    6    8   11     -1.08      0.00
    7    8   11      0.81      0.00
    8    8   11      0.03      0.00
    9    8   11      2.05      0.00
    0    9   11     -4.48      0.00
    1    9   11     -8.50      0.00
    2    9   11     -4.93      0.00
    6    9   11      0.84      0.00
    7    9   11      2.50      0.00
    8    9   11      0.88      0.00
    0   10   11      0.73      0.00
    1   10   11     -0.87      0.00
    2   10   11      1.44      0.00
    5   10   11      1.00      0.00
    6   10   11     -0.06      0.00
    7   10   11      1.34      0.00
    8   10   11      0.29      0.00
    1   11   11     -2.71      0.00
    2   11   11      1.50      0.00
    5   11   11      0.42      0.00
    6   11   11     -0.05      0.00
    7   11   11      1.91      0.00
   -2   12   11      1.03      0.00
    3   12   11     -0.87      0.00
    4   12   11      3.20      0.00
    5   12   11      1.11      0.00
    6   12   11     -0.27      0.00
    7   12   11      1.45      0.00
   -3   13   11      1.03      0.00
   -2   13   11     -4.23      0.00
   -3   14   11     -3.12      0.00
   -2   14   11     -1.49      0.00
   -1   15   11      1.45      0.00
    3   15   11      1.49      0.00
    1  -11   12      1.63      0.00
    2  -11   12     -0.30      0.00
    3  -11   12     -0.42      0.00
    4  -11   12     -0.65      0.00
    1  -10   12      0.78      0.00
    2  -10   12     -2.35      0.00
    1   -9   12      2.19      0.00
    7   -9   12      0.09      0.00
    1   -8   12      3.47      0.00
   -5   -7   12     -0.88      0.00
   10   -3   12      0.30      0.00
   -7    7   12     -0.85      0.00
    1    7   12     -1.04      0.00
    7    7   12     -3.04      0.00
    8    7   12      1.61      0.00
    9    7   12      0.81      0.00
    0    8   12     -3.77      0.00
    1    8   12     -2.51      0.00
    7    8   12     -0.37      0.00
    8    8   12      1.11      0.00
    9    8   12     -1.31      0.00
    0    9   12     -1.01      0.00
    1    9   12     -0.06      0.00
    2    9   12     -3.09      0.00
    6    9   12      2.93      0.00
    7    9   12     -0.22      0.00
    8    9   12      1.33      0.00
    0   10   12     -2.44      0.00
    1   10   12     -1.15      0.00
    2   10   12     -1.59      0.00
    6   10   12      1.41      0.00
    7   10   12     -0.48      0.00
    8   10   12      0.22      0.00
   -2   11   12      5.36      0.00
    1   11   12      5.53      0.00
    2   11   12     -1.28      0.00
    5   11   12      1.77      0.00
    6   11   12      2.64      0.00
    7   11   12      0.04      0.00
   -3   12   12     -2.59      0.00
   -2   12   12     -0.20      0.00
   -1   12   12     -3.25      0.00
    2   12   12     -2.59      0.00
    4   12   12      0.05      0.00
    5   12   12      2.13      0.00
    6   12   12      1.56      0.00
   -3   13   12     -1.44      0.00
   -2   13   12      0.68      0.00
   -1   13   12     -2.99      0.00
    5   13   12     -0.31      0.00
   -2   14   12     -0.29      0.00
   -1   14   12     -2.51      0.00
    1   15   12     -1.71      0.00
   -1  -10   13      1.47      0.00
    1  -10   13     -0.51      0.00
    2  -10   13      1.85      0.00
    1   -9   13     -2.68      0.00
    2   -9   13     -1.38      0.00
    1   -8   13     -1.39      0.00
    8   -7   13      1.94      0.00
   -5   -6   13      2.13      0.00
    9   -5   13     -1.11      0.00
   10   -1   13     -1.32      0.00
   -7    0   13      0.21      0.00
   -7    4   13      0.52      0.00
   10    4   13     -0.19      0.00
    8    6   13     -1.41      0.00
    9    6   13      0.59      0.00
    0    7   13     -4.42      0.00
    8    7   13     -0.12      0.00
    9    7   13      0.32      0.00
    0    8   13      0.05      0.00
    1    8   13      4.57      0.00
    7    8   13      1.59      0.00
    8    8   13     -1.60      0.00
   -1    9   13      0.03      0.00
    0    9   13     -2.54      0.00
    1    9   13     -6.26      0.00
    6    9   13     -0.97      0.00
    7    9   13      2.77      0.00
    8    9   13      0.74      0.00
   -2   10   13      1.83      0.00
   -1   10   13      1.11      0.00
    0   10   13      0.39      0.00
    1   10   13      0.63      0.00
    2   10   13      3.28      0.00
    6   10   13     -0.01      0.00
    7   10   13      1.68      0.00
    8   10   13      0.68      0.00
   -2   11   13     -2.80      0.00
   -1   11   13      2.21      0.00
    1   11   13     -1.49      0.00
    2   11   13      1.88      0.00
    5   11   13      1.44      0.00
    6   11   13      0.32      0.00
    7   11   13      1.48      0.00
   -4   12   13     -1.42      0.00
   -3   12   13      2.76      0.00
   -2   12   13      1.34      0.00
   -1   12   13      3.86      0.00
    2   12   13      3.96      0.00
    5   12   13      0.44      0.00
    6   12   13     -0.09      0.00
   -3   13   13      1.80      0.00
   -2   13   13     -3.05      0.00
   -1   13   13     -2.62      0.00
    4   13   13      1.93      0.00
    5   13   13     -0.86      0.00
   -1   14   13      1.26      0.00
    2  -10   14     -2.62      0.00
    2   -9   14     -0.80      0.00
    8   -6   14      1.03      0.00
    9   -4   14      1.52      0.00
   -6   -2   14      1.43      0.00
    9    6   14     -0.19      0.00
   -6    7   14     -1.37      0.00
    0    7   14     -0.24      0.00
    8    7   14      0.96      0.00
    9    7   14      0.27      0.00
   -1    8   14     -3.28      0.00
    0    8   14     -2.85      0.00
    7    8   14     -1.99      0.00
    8    8   14      1.84      0.00
   -1    9   14     -2.25      0.00
    0    9   14     -1.31      0.00
    1    9   14      0.52      0.00
    7    9   14     -1.06      0.00
    8    9   14      0.78      0.00
   -2   10   14      1.99      0.00
   -1   10   14     -0.43      0.00
    0   10   14      0.00      0.00
    1   10   14     -0.45      0.00
    6   10   14      1.70      0.00
    7   10   14     -0.95      0.00
   -3   11   14      1.10      0.00
   -2   11   14      5.15      0.00
   -1   11   14      2.66      0.00
    0   11   14      3.47      0.00
    1   11   14      4.71      0.00
    6   11   14      1.79      0.00
   -3   12   14     -1.66      0.00
   -2   12   14      0.54      0.00
   -1   12   14     -2.14      0.00
    1   12   14      0.63      0.00
    2   12   14     -2.73      0.00
    5   12   14      1.37      0.00
    6   12   14      1.38      0.00
   -2   13   14      0.23      0.00
   -1   13   14     -1.46      0.00
    4   13   14     -1.65      0.00
    0   14   14     -1.19      0.00
    2   14   14     -2.19      0.00
    1   -9   15     -1.65      0.00
    2   -9   15     -0.26      0.00
    3   -9   15     -1.72      0.00
   -4   -5   15     -1.46      0.00
    8   -5   15      1.39      0.00
   -5   -3   15      0.49      0.00
   -6    2   15     -0.25      0.00
   -6    3   15     -0.60      0.00
   -6    4   15      0.37      0.00
    9    5   15     -1.10      0.00
    9    6   15     -0.39      0.00
    8    7   15      0.38      0.00
   -1    8   15     -3.36      0.00
    0    8   15     -0.88      0.00
    8    8   15     -2.55      0.00
   -2    9   15     -2.49      0.00
   -1    9   15      1.01      0.00
    0    9   15     -0.98      0.00
    7    9   15      2.10      0.00
   -3   10   15      2.65      0.00
   -2   10   15      0.40      0.00
   -1   10   15      1.74      0.00
    0   10   15     -0.38      0.00
    1   10   15      1.68      0.00
    6   10   15     -0.64      0.00
    7   10   15      1.47      0.00
   -3   11   15      2.01      0.00
   -2   11   15     -1.41      0.00
   -1   11   15      2.55      0.00
    0   11   15      2.56      0.00
    1   11   15      0.84      0.00
    6   11   15     -0.25      0.00
   -2   12   15      0.66      0.00
   -1   12   15      2.89      0.00
    0   12   15      1.25      0.00
    1   12   15     -0.37      0.00
    5   12   15      1.08      0.00
   -1   13   15     -2.25      0.00
    0   13   15     -2.80      0.00
    4   13   15      1.04      0.00
    1   -8   16      3.15      0.00
   -1   -7   16      1.26      0.00
   -3   -5   16      1.02      0.00
    9    0   16     -0.51      0.00
    9    4   16     -0.05      0.00
   -5    6   16     -0.06      0.00
   -1    7   16      1.72      0.00
    8    7   16     -0.36      0.00
   -2    8   16     -2.55      0.00
   -1    8   16     -2.25      0.00
   -4    9   16     -2.13      0.00
   -2    9   16      0.14      0.00
   -1    9   16     -2.65      0.00
    0    9   16     -1.22      0.00
    7    9   16     -0.90      0.00
   -3   10   16      0.69      0.00
   -2   10   16      2.11      0.00
   -1   10   16     -0.82      0.00
    0   10   16      1.72      0.00
   -2   11   16      2.72      0.00
   -1   11   16      0.71      0.00
    0   11   16      3.27      0.00
   -1   12   16     -0.42      0.00
    0   12   16     -0.13      0.00
    1   12   16     -0.11      0.00
    1   13   16      1.46      0.00
    2   13   16     -0.68      0.00
    1   -7   17     -0.59      0.00
   -1   -6   17      0.01      0.00
   -2   -5   17      0.51      0.00
    7   -4   17     -0.89      0.00
    8   -2   17     -0.21      0.00
   -4   -1   17     -0.56      0.00
    8    6   17     -2.61      0.00
   -4    7   17      0.31      0.00
   -2    8   17     -0.95      0.00
   -3    9   17     -1.99      0.00
   -2    9   17     -0.98      0.00
   -1    9   17      1.85      0.00
   -2   10   17     -0.62      0.00
   -1   10   17      1.19      0.00
    6   10   17     -0.62      0.00
   -1   11   17      2.83      0.00
    0   11   17      2.02      0.00
    5   11   17      2.00      0.00
    3   12   17      0.02      0.00
    2   -6   18      1.60      0.00
    3   -6   18      0.82      0.00
    5   -5   18      2.06      0.00
    6   -4   18      2.90      0.00
    8    1   18      0.69      0.00
    8    2   18     -0.53      0.00
    8    3   18      1.74      0.00
    7    7   18     -1.42      0.00
   -2    9   18     -0.21      0.00
    6    9   18      0.10      0.00
   -1   10   18     -0.54      0.00
    5   10   18      0.59      0.00
   -2   -1   19     -0.11      0.00
    7    0   19     -1.34      0.00
    7    5   19      2.40      0.00
   -2    7   19      0.93      0.00
    1   10   19     -0.19      0.00
    3   10   19      1.74      0.00
   -1    0   20      1.62      0.00
    6    1   20     -1.82      0.00
    6    5   20      0.37      0.00
   -1    6   20      0.35      0.00
    5    7   20      1.14      0.00
    4    8   20      0.63      0.00
    2    0   21      1.96      0.00
    3    0   21      0.67      0.00
    1    1   21     -1.82      0.00
    4    1   21     -0.37      0.00
    1    5   21     -0.27      0.00
    4    5   21      0.18      0.00
    2    6   21      1.16      0.00
    3    6   21      1.89      0.00
    0    0    0      0.00      0.00
# SQUEEZE RESULTS (Version =  30118)
# Note: Data are Listed for all Voids in the P1 Unit Cell
# i.e. Centre of Gravity, Solvent Accessible Volume,
# Recovered number of Electrons in the Void and
# Details about the Squeezed Material
loop_
  _platon_squeeze_void_nr
  _platon_squeeze_void_average_x
  _platon_squeeze_void_average_y
  _platon_squeeze_void_average_z
  _platon_squeeze_void_volume
  _platon_squeeze_void_count_electrons
  _platon_squeeze_void_content
   1  0.000  0.000  0.000       101        33 ' '
   2  0.000  0.500  0.500        86        41 ' '
   3  0.021  0.517  0.036         7         4 ' '
   4  0.181  0.364  0.001         8         6 ' '
   5  0.500  0.000  0.500       103        29 ' '
   6  0.819  0.635 -0.001         8         6 ' '
   7  0.975  0.480  0.957         6         1 ' '
# Missing Reflections Below sin(th)/lambda = 0.25
loop_
  _platon_missing_refln_index_h
  _platon_missing_refln_index_k
  _platon_missing_refln_index_l
  _platon_missing_refln_theta
    1    0    0     2.319
   -1    1    0     2.751
    0    1    0     1.586
    1    1    0     2.867
    0    2    0     3.172
    1    2    0     4.013
    0    3    0     4.762
    1    3    0     5.390
   -1   -3    1     5.854
    0   -3    1     5.154
    0   -2    1     3.627
    0   -1    1     2.195
    0    0    1     1.234
    1    0    1     2.363
    0    1    1     1.805
    1    1    1     2.764
    0    2    1     3.166
    1    2    1     3.839
    1    3    1     5.187
   -1   -3    2     6.524
    0   -2    2     4.394
    0   -1    2     3.190
    1   -1    2     3.549
    0    0    2     2.469
    1    0    2     2.973
    0    1    2     2.655
    1    1    2     3.181
    2    1    2     4.896
    0    2    2     3.611
    1    2    2     4.054
    2    2    2     5.535
    1    3    2     5.274
    1    4    2     6.655
   -1   -3    3     7.345
    0   -2    3     5.341
    0   -1    3     4.313
    1    1    3     3.956
    1    2    3     4.603
    1    3    3     5.639
    1    4    3     6.892
    1    5    3     8.267
    1    3    4     6.233
    2    4    4     8.129
    1    5    4     8.594
    1    6    4     9.957
    2    5    5     9.687
    2    5    6    10.211
_platon_squeeze_void_probe_radius                  1.20
_platon_squeeze_details
)
TITL MKE15-24  P -1         R = 0.12
CELL    9.0259   13.1063   17.2862     78.76     76.93     89.89
SPGR P-1
# Solvent Accessible Volume =       319
# Electrons Found in S.A.V. =       120
# Note: Atoms in Void are Labelled as Cxxx and Qxxx for all Others
Q101 1.000 0.500 0.000 !       6.21 eA-3
Q102 0.855 0.628 0.017 !       5.84 eA-3
C103 0.062 0.789 0.031 !       4.92 eA-3
C104 0.236 0.394 0.438 !       4.83 eA-3
Q105 1.007 0.539 0.438 !       4.05 eA-3
C106 0.233 0.471 0.452 !       3.89 eA-3
C107 0.097 0.491 0.470 !       3.62 eA-3
C108 0.047 0.990 0.048 !       2.79 eA-3
C109 0.622 0.933 0.455 !       2.41 eA-3
C110 0.478 0.034 0.486 !       2.23 eA-3
C111 0.571 0.907 0.455 !       2.12 eA-3
C112 0.558 0.034 0.469 !       2.08 eA-3
C113 0.476 0.941 0.490 !       1.75 eA-3
Q114 0.724 0.943 0.490 !       1.42 eA-3
Q115 0.907 0.412 0.107 !       1.35 eA-3
C116 0.661 0.027 0.419 !       1.27 eA-3
C117 1.000 1.000 0.000 !       1.20 eA-3
Q118 0.859 0.313 0.081 !       1.16 eA-3
C119 0.484 0.099 0.437 !       1.13 eA-3
Q120 0.629 0.704 0.297 !       1.11 eA-3
Q121 0.156 0.184 0.448 !       1.09 eA-3
Q122 0.841 0.583 0.266 !       1.06 eA-3
Q123 0.725 0.684 0.030 !       1.04 eA-3
Q124 0.436 0.218 0.426 !       1.03 eA-3
Q125 0.994 0.233 0.042 !       0.99 eA-3
Q126 0.268 0.996 0.481 !       0.98 eA-3
Q127 0.567 0.075 0.372 !       0.98 eA-3
Q128 0.024 0.598 0.375 !       0.98 eA-3
Q129 0.848 0.824 0.050 !       0.97 eA-3
Q130 0.201 0.767 0.359 !       0.97 eA-3
C131 0.367 0.939 0.457 !       0.96 eA-3
Q132 0.498 0.806 0.114 !       0.96 eA-3
Q133 0.898 0.892 0.313 !       0.95 eA-3
Q134 1.005 0.950 0.173 !       0.95 eA-3
Q135 0.287 0.079 0.442 !       0.94 eA-3
Q136 0.457 0.530 0.205 !       0.94 eA-3
Q137 0.031 0.233 0.107 !       0.94 eA-3
Q138 0.074 0.428 0.394 !       0.94 eA-3
Q139 0.177 0.293 0.440 !       0.94 eA-3
Q140 0.461 0.894 0.272 !       0.94 eA-3
Q141 0.314 0.555 0.230 !       0.91 eA-3
Q142 0.488 0.561 0.299 !       0.91 eA-3
Q143 0.949 0.138 0.049 !       0.90 eA-3
Q144 0.815 0.888 0.485 !       0.90 eA-3
Q145 0.650 0.096 0.454 !       0.90 eA-3
Q146 0.838 0.965 0.455 !       0.90 eA-3
Q147 0.906 0.455 0.264 !       0.89 eA-3
Q148 0.883 0.215 0.036 !       0.89 eA-3
Q149 0.834 0.161 0.029 !       0.89 eA-3
Q150 0.617 0.988 0.124 !       0.89 eA-3
Q151 0.206 0.094 0.059 !       0.88 eA-3
Q152 0.405 0.625 0.332 !       0.87 eA-3
Q153 0.259 0.109 0.452 !       0.87 eA-3
Q154 0.521 0.922 0.203 !       0.87 eA-3
Q155 0.184 0.464 0.153 !       0.87 eA-3
Q156 0.866 0.154 0.206 !       0.87 eA-3
Q157 0.596 0.282 0.218 !       0.84 eA-3
Q158 0.376 0.141 0.425 !       0.84 eA-3
Q159 0.055 0.260 0.001 !       0.84 eA-3
Q160 0.624 0.142 0.483 !       0.84 eA-3
Q161 0.449 0.110 0.378 !       0.84 eA-3
Q162 0.433 0.218 0.187 !       0.84 eA-3
Q163 0.324 0.048 0.062 !       0.83 eA-3
Q164 0.655 0.465 0.093 !       0.83 eA-3
Q165 0.119 0.891 0.260 !       0.82 eA-3
Q166 0.606 0.779 0.267 !       0.81 eA-3
Q167 0.754 0.763 0.478 !       0.81 eA-3
Q168 0.991 0.223 0.440 !       0.81 eA-3
Q169 0.057 0.500 0.380 !       0.81 eA-3
Q170 0.401 0.061 0.016 !       0.81 eA-3
Q171 0.754 0.916 0.442 !       0.81 eA-3
Q172 0.700 0.448 0.174 !       0.81 eA-3
Q173 0.346 0.638 0.113 !       0.80 eA-3
Q174 0.618 0.345 0.013 !       0.80 eA-3
Q175 0.167 0.831 0.344 !       0.80 eA-3
Q176 0.918 0.389 0.041 !       0.80 eA-3
Q177 0.652 0.206 0.032 !       0.80 eA-3
Q178 0.187 0.999 0.080 !       0.80 eA-3
Q179 0.522 0.826 0.315 !       0.80 eA-3
Q180 0.566 0.231 0.371 !       0.79 eA-3
C181 0.139 0.379 0.424 !       0.79 eA-3
Q182 0.770 0.105 0.016 !       0.79 eA-3
Q183 0.345 0.653 0.300 !       0.79 eA-3
Q184 0.771 0.372 0.234 !       0.79 eA-3
Q185 0.983 0.452 0.363 !       0.79 eA-3
Q186 0.528 0.658 0.407 !       0.79 eA-3
Q187 0.862 0.657 0.233 !       0.79 eA-3
Q188 0.487 0.657 0.484 !       0.78 eA-3
Q189 0.933 0.248 0.391 !       0.78 eA-3
Q190 0.072 0.077 0.486 !       0.78 eA-3
Q191 0.856 0.109 0.152 !       0.78 eA-3
Q192 0.249 0.765 0.276 !       0.78 eA-3
Q193 0.627 0.843 0.422 !       0.77 eA-3
Q194 0.482 0.812 0.281 !       0.77 eA-3
Q195 0.128 0.119 0.032 !       0.77 eA-3
Q196 0.184 0.823 0.250 !       0.77 eA-3
Q197 0.847 0.404 0.485 !       0.77 eA-3
Q198 0.775 0.963 0.358 !       0.77 eA-3
Q199 0.883 0.092 0.262 !       0.76 eA-3
)
;
_shelx_fab_checksum              75818
loop_
_space_group_symop_operation_xyz
'x, y, z'
'-x, -y, -z'
loop_
_atom_site_label
_atom_site_type_symbol
_atom_site_fract_x
_atom_site_fract_y
_atom_site_fract_z
_atom_site_U_iso_or_equiv
_atom_site_adp_type
_atom_site_occupancy
_atom_site_site_symmetry_order
_atom_site_calc_flag
_atom_site_refinement_flags_posn
_atom_site_refinement_flags_adp
Ru1 Ru 0.57581(5) 0.25483(5) 0.76926(3) 0.02952(16) Uani 1 1 d . .
N1 N 0.5168(5) 0.2224(4) 0.8888(3) 0.0306(12) Uani 1 1 d . .
N2 N 0.6579(4) 0.3876(4) 0.7968(2) 0.0273(12) Uani 1 1 d . .
N3 N 0.4679(4) 0.1095(4) 0.7910(3) 0.0296(12) Uani 1 1 d . .
N4 N 0.6193(5) 0.2830(4) 0.6495(2) 0.0295(12) Uani 1 1 d . .
N5 N 0.3788(4) 0.3236(4) 0.7483(2) 0.0279(12) Uani 1 1 d . .
N6 N 0.7966(4) 0.2043(4) 0.7411(3) 0.0310(12) Uani 1 1 d . .
O1 O 0.1751(6) 0.1610(5) 1.4435(3) 0.110(2) Uani 1 1 d . .
O2 O 0.0472(6) 0.0307(4) 1.4264(3) 0.099(2) Uani 1 1 d . .
O3 O 0.6963(5) 0.4321(5) 0.0977(3) 0.0766(17) Uani 1 1 d . .
O4 O 0.8803(6) 0.3208(5) 0.0965(3) 0.110(2) Uani 1 1 d . .
C1 C 0.1407(8) 0.1069(6) 1.4013(4) 0.0510(19) Uani 1 1 d . .
C2 C 0.2081(6) 0.1315(5) 1.3115(3) 0.0385(16) Uani 1 1 d . .
C3 C 0.3330(6) 0.1963(5) 1.2788(3) 0.0396(17) Uani 1 1 d . .
H3A H 0.377692 0.227443 1.312380 0.048 Uiso 1 1 calc R U
C4 C 0.3951(6) 0.2166(5) 1.1960(3) 0.0398(17) Uani 1 1 d . .
H4A H 0.479998 0.261987 1.174885 0.048 Uiso 1 1 calc R U
C5 C 0.3336(6) 0.1708(5) 1.1441(3) 0.0334(15) Uani 1 1 d . .
C6 C 0.2012(7) 0.1076(5) 1.1773(3) 0.055(2) Uani 1 1 d . .
H6A H 0.153269 0.078976 1.143688 0.066 Uiso 1 1 calc R U
C7 C 0.1409(7) 0.0873(5) 1.2604(4) 0.056(2) Uani 1 1 d . .
H7A H 0.054371 0.043608 1.282155 0.067 Uiso 1 1 calc R U
C8 C 0.4020(6) 0.1886(5) 1.0550(3) 0.0294(15) Uani 1 1 d . .
C9 C 0.4927(5) 0.2776(5) 1.0144(3) 0.0314(15) Uani 1 1 d . .
H9A H 0.516152 0.326197 1.042960 0.038 Uiso 1 1 calc R U
C10 C 0.5476(5) 0.2930(4) 0.9308(3) 0.0263(14) Uani 1 1 d . .
C11 C 0.4317(6) 0.1349(5) 0.9273(3) 0.0289(14) Uani 1 1 d . .
C12 C 0.3729(6) 0.1173(5) 1.0096(3) 0.0372(16) Uani 1 1 d . .
H12A H 0.313130 0.057213 1.035223 0.045 Uiso 1 1 calc R U
C13 C 0.6349(6) 0.3869(5) 0.8775(3) 0.0312(15) Uani 1 1 d . .
C14 C 0.6937(6) 0.4668(5) 0.9046(4) 0.0431(17) Uani 1 1 d . .
H14A H 0.679707 0.464283 0.959888 0.052 Uiso 1 1 calc R U
C15 C 0.7724(6) 0.5495(5) 0.8503(3) 0.0424(17) Uani 1 1 d . .
H15A H 0.812991 0.603399 0.868143 0.051 Uiso 1 1 calc R U
C16 C 0.7908(6) 0.5517(5) 0.7681(4) 0.0427(17) Uani 1 1 d . .
H16A H 0.841851 0.608017 0.730008 0.051 Uiso 1 1 calc R U
C17 C 0.7328(6) 0.4700(5) 0.7438(3) 0.0361(16) Uani 1 1 d . .
H17A H 0.745806 0.471636 0.688681 0.043 Uiso 1 1 calc R U
C18 C 0.4049(6) 0.0704(5) 0.8710(3) 0.0342(15) Uani 1 1 d . .
C19 C 0.3192(6) -0.0209(5) 0.8935(4) 0.0406(16) Uani 1 1 d . .
H19A H 0.277630 -0.046890 0.948239 0.049 Uiso 1 1 calc R U
C20 C 0.2930(6) -0.0753(5) 0.8369(4) 0.0475(18) Uani 1 1 d . .
H20A H 0.232680 -0.136558 0.852443 0.057 Uiso 1 1 calc R U
C21 C 0.3593(7) -0.0360(5) 0.7560(4) 0.0460(18) Uani 1 1 d . .
H21A H 0.345012 -0.070735 0.716070 0.055 Uiso 1 1 calc R U
C22 C 0.4458(6) 0.0543(5) 0.7361(4) 0.0410(17) Uani 1 1 d . .
H22A H 0.491933 0.079217 0.681798 0.049 Uiso 1 1 calc R U
C23 C 0.7523(5) 0.2533(5) 0.6081(3) 0.0329(15) Uani 1 1 d . .
C24 C 0.7770(6) 0.2654(5) 0.5242(3) 0.0352(16) Uani 1 1 d . .
H24A H 0.869979 0.247299 0.495480 0.042 Uiso 1 1 calc R U
C25 C 0.6676(6) 0.3037(5) 0.4816(3) 0.0332(15) Uani 1 1 d . .
C26 C 0.5320(6) 0.3331(5) 0.5290(3) 0.0362(16) Uani 1 1 d . .
H26A H 0.455714 0.360292 0.503804 0.043 Uiso 1 1 calc R U
C27 C 0.5099(5) 0.3225(4) 0.6115(3) 0.0296(14) Uani 1 1 d . .
C28 C 0.3734(6) 0.3478(5) 0.6679(3) 0.0297(15) Uani 1 1 d . .
C29 C 0.2498(5) 0.3949(5) 0.6438(3) 0.0378(16) Uani 1 1 d . .
H29A H 0.247697 0.410722 0.589237 0.045 Uiso 1 1 calc R U
C30 C 0.1302(6) 0.4179(5) 0.7015(4) 0.0443(18) Uani 1 1 d . .
H30A H 0.046494 0.450149 0.686198 0.053 Uiso 1 1 calc R U
C31 C 0.1342(6) 0.3933(5) 0.7822(4) 0.0456(19) Uani 1 1 d . .
H31A H 0.053160 0.407844 0.821892 0.055 Uiso 1 1 calc R U
C32 C 0.2605(5) 0.3469(5) 0.8030(3) 0.0367(16) Uani 1 1 d . .
H32A H 0.263420 0.330988 0.857464 0.044 Uiso 1 1 calc R U
C33 C 0.8546(5) 0.2119(4) 0.6591(3) 0.0287(14) Uani 1 1 d . .
C34 C 1.0022(5) 0.1853(5) 0.6296(3) 0.0360(16) Uani 1 1 d . .
H34A H 1.040563 0.191386 0.574144 0.043 Uiso 1 1 calc R U
C35 C 1.0919(6) 0.1497(5) 0.6834(4) 0.0450(17) Uani 1 1 d . .
H35A H 1.190843 0.130620 0.664647 0.054 Uiso 1 1 calc R U
C36 C 1.0326(6) 0.1425(5) 0.7663(4) 0.0439(17) Uani 1 1 d . .
H36A H 1.091133 0.118971 0.803546 0.053 Uiso 1 1 calc R U
C37 C 0.8858(6) 0.1710(5) 0.7915(3) 0.0357(16) Uani 1 1 d . .
H37A H 0.846737 0.166717 0.846656 0.043 Uiso 1 1 calc R U
C38 C 0.6933(6) 0.3166(5) 0.3936(3) 0.0326(15) Uani 1 1 d . .
C39 C 0.8164(6) 0.2747(6) 0.3482(3) 0.054(2) Uani 1 1 d . .
H39A H 0.883496 0.235486 0.374165 0.064 Uiso 1 1 calc R U
C40 C 0.8407(7) 0.2906(6) 0.2645(4) 0.054(2) Uani 1 1 d . .
H40A H 0.923161 0.260642 0.235531 0.065 Uiso 1 1 calc R U
C41 C 0.7457(6) 0.3497(5) 0.2231(3) 0.0395(16) Uani 1 1 d . .
C42 C 0.6210(6) 0.3888(5) 0.2681(3) 0.0398(17) Uani 1 1 d . .
H42A H 0.553260 0.426771 0.241706 0.048 Uiso 1 1 calc R U
C43 C 0.5941(6) 0.3731(5) 0.3515(3) 0.0425(17) Uani 1 1 d . .
H43A H 0.508649 0.400445 0.380179 0.051 Uiso 1 1 calc R U
C44 C 0.7754(9) 0.3718(7) 0.1325(4) 0.061(2) Uani 1 1 d . .
loop_
_atom_site_aniso_label
_atom_site_aniso_U_11
_atom_site_aniso_U_22
_atom_site_aniso_U_33
_atom_site_aniso_U_23
_atom_site_aniso_U_13
_atom_site_aniso_U_12
Ru1 0.0312(2) 0.0402(3) 0.0158(2) -0.0055(2) -0.00269(19) 0.0040(2)
N1 0.034(3) 0.040(4) 0.017(3) -0.005(3) -0.005(2) 0.003(2)
N2 0.026(2) 0.039(3) 0.014(2) 0.000(2) -0.003(2) 0.001(2)
N3 0.035(3) 0.036(3) 0.021(3) -0.007(3) -0.010(2) 0.004(2)
N4 0.029(2) 0.042(4) 0.018(3) -0.010(3) -0.003(2) 0.006(2)
N5 0.029(2) 0.039(3) 0.015(2) -0.007(2) -0.002(2) 0.004(2)
N6 0.036(3) 0.037(3) 0.023(3) -0.010(3) -0.010(2) 0.004(2)
O1 0.158(5) 0.134(6) 0.023(3) -0.021(3) 0.017(3) -0.075(4)
O2 0.147(5) 0.099(5) 0.029(3) -0.004(3) 0.017(3) -0.065(4)
O3 0.086(3) 0.116(5) 0.022(3) 0.005(3) -0.016(3) -0.007(3)
O4 0.118(4) 0.166(6) 0.030(3) -0.011(4) 0.005(3) 0.018(4)
C1 0.068(5) 0.055(6) 0.023(4) -0.011(4) 0.008(3) -0.011(4)
C2 0.053(4) 0.037(4) 0.020(3) -0.008(3) 0.003(3) -0.004(3)
C3 0.047(4) 0.049(5) 0.019(3) -0.009(3) 0.002(3) -0.009(3)
C4 0.042(3) 0.050(5) 0.024(3) -0.008(3) -0.001(3) -0.011(3)
C5 0.045(3) 0.035(4) 0.019(3) -0.001(3) -0.008(3) 0.001(3)
C6 0.072(4) 0.073(6) 0.021(4) -0.016(4) -0.005(3) -0.022(4)
C7 0.076(4) 0.055(5) 0.026(4) -0.009(4) 0.010(3) -0.026(4)
C8 0.036(3) 0.042(4) 0.011(3) -0.005(3) -0.006(3) 0.005(3)
C9 0.042(3) 0.032(4) 0.015(3) 0.001(3) -0.001(3) -0.008(3)
C10 0.032(3) 0.027(4) 0.017(3) 0.001(3) -0.004(2) -0.003(3)
C11 0.035(3) 0.029(4) 0.022(3) -0.006(3) -0.004(3) 0.003(3)
C12 0.044(3) 0.043(4) 0.018(3) 0.002(3) -0.001(3) 0.003(3)
C13 0.034(3) 0.039(4) 0.019(3) -0.004(3) -0.004(3) 0.004(3)
C14 0.058(4) 0.044(5) 0.025(3) -0.006(4) -0.006(3) 0.001(3)
C15 0.052(4) 0.045(5) 0.028(4) -0.009(4) -0.004(3) -0.009(3)
C16 0.044(4) 0.040(5) 0.040(4) -0.005(4) -0.004(3) 0.008(3)
C17 0.036(3) 0.048(5) 0.018(3) 0.003(3) -0.001(3) 0.008(3)
C18 0.036(3) 0.033(4) 0.030(4) -0.003(3) -0.005(3) -0.002(3)
C19 0.054(4) 0.038(5) 0.026(3) -0.003(3) -0.005(3) -0.005(3)
C20 0.060(4) 0.040(5) 0.043(4) -0.010(4) -0.012(4) -0.010(3)
C21 0.062(4) 0.040(5) 0.045(4) -0.021(4) -0.019(4) -0.001(4)
C22 0.048(4) 0.049(5) 0.027(4) -0.008(4) -0.010(3) 0.009(4)
C23 0.028(3) 0.054(5) 0.017(3) -0.007(3) -0.004(3) 0.003(3)
C24 0.031(3) 0.058(5) 0.016(3) -0.006(3) -0.005(3) 0.007(3)
C25 0.036(3) 0.047(4) 0.015(3) -0.002(3) -0.007(3) 0.000(3)
C26 0.037(3) 0.051(5) 0.022(3) -0.008(3) -0.009(3) 0.007(3)
C27 0.027(3) 0.036(4) 0.024(3) -0.003(3) -0.007(3) 0.008(3)
C28 0.030(3) 0.038(4) 0.020(3) -0.008(3) -0.002(3) 0.003(3)
C29 0.033(3) 0.056(5) 0.026(3) -0.004(3) -0.014(3) 0.010(3)
C30 0.028(3) 0.070(5) 0.037(4) -0.017(4) -0.007(3) 0.015(3)
C31 0.028(3) 0.061(5) 0.047(4) -0.022(4) 0.001(3) 0.014(3)
C32 0.031(3) 0.055(5) 0.021(3) -0.009(3) 0.000(3) 0.006(3)
C33 0.028(3) 0.040(4) 0.022(3) -0.007(3) -0.012(3) 0.003(3)
C34 0.034(3) 0.049(5) 0.023(3) -0.004(3) -0.007(3) 0.005(3)
C35 0.034(3) 0.060(5) 0.042(4) -0.013(4) -0.008(3) 0.009(3)
C36 0.045(4) 0.049(5) 0.042(4) -0.006(4) -0.021(3) 0.014(3)
C37 0.036(3) 0.049(5) 0.021(3) -0.002(3) -0.010(3) 0.009(3)
C38 0.034(3) 0.050(5) 0.013(3) 0.000(3) -0.008(3) 0.002(3)
C39 0.054(4) 0.095(6) 0.016(3) -0.017(4) -0.011(3) 0.026(4)
C40 0.055(4) 0.081(6) 0.025(4) -0.013(4) -0.001(3) 0.005(4)
C41 0.043(3) 0.050(5) 0.022(3) -0.003(3) -0.006(3) -0.014(3)
C42 0.041(3) 0.057(5) 0.021(3) -0.003(3) -0.011(3) 0.001(3)
C43 0.046(3) 0.061(5) 0.018(3) -0.009(3) 0.000(3) 0.003(3)
C44 0.066(5) 0.096(7) 0.015(4) -0.012(4) 0.007(4) -0.013(5)
loop_
_atom_type_symbol
_atom_type_description
_atom_type_scat_dispersion_real
_atom_type_scat_dispersion_imag
_atom_type_scat_source
C C 0.0033 0.0016 'International Tables Vol C Tables 4.2.6.8 and 6.1.1.4'
H H 0.0000 0.0000 'International Tables Vol C Tables 4.2.6.8 and 6.1.1.4'
N N 0.0061 0.0033 'International Tables Vol C Tables 4.2.6.8 and 6.1.1.4'
O O 0.0106 0.0060 'International Tables Vol C Tables 4.2.6.8 and 6.1.1.4'
Ru Ru -1.2594 0.8363 'International Tables Vol C Tables 4.2.6.8 and 6.1.1.4'
loop_
_geom_angle_atom_site_label_1
_geom_angle_atom_site_label_2
_geom_angle_atom_site_label_3
_geom_angle
N1 Ru1 N4 175.6(2)
N1 Ru1 N5 98.15(16)
N4 Ru1 N5 78.79(17)
N1 Ru1 N3 78.6(2)
N4 Ru1 N3 98.17(18)
N5 Ru1 N3 89.84(17)
N1 Ru1 N2 78.8(2)
N4 Ru1 N2 104.44(18)
N5 Ru1 N2 92.91(16)
N3 Ru1 N2 157.32(16)
N1 Ru1 N6 104.45(17)
N4 Ru1 N6 78.74(17)
N5 Ru1 N6 157.35(16)
N3 Ru1 N6 96.12(17)
N2 Ru1 N6 89.94(16)
C10 N1 C11 120.4(5)
C10 N1 Ru1 119.6(4)
C11 N1 Ru1 119.7(4)
C17 N2 C13 118.7(5)
C17 N2 Ru1 126.6(4)
C13 N2 Ru1 114.7(4)
C22 N3 C18 118.1(5)
C22 N3 Ru1 127.8(4)
C18 N3 Ru1 114.0(4)
C23 N4 C27 121.5(4)
C23 N4 Ru1 118.9(4)
C27 N4 Ru1 119.4(3)
C32 N5 C28 118.1(4)
C32 N5 Ru1 127.6(3)
C28 N5 Ru1 114.3(3)
C37 N6 C33 118.5(4)
C37 N6 Ru1 127.9(3)
C33 N6 Ru1 113.5(3)
O1 C1 O2 124.3(6)
O1 C1 C2 119.7(7)
O2 C1 C2 116.0(7)
C3 C2 C7 118.9(5)
C3 C2 C1 121.7(6)
C7 C2 C1 119.4(6)
C2 C3 C4 120.9(6)
C2 C3 H3A 119.6
C4 C3 H3A 119.6
C5 C4 C3 121.4(5)
C5 C4 H4A 119.3
C3 C4 H4A 119.3
C4 C5 C6 117.6(5)
C4 C5 C8 122.3(5)
C6 C5 C8 120.0(5)
C7 C6 C5 120.2(6)
C7 C6 H6A 119.9
C5 C6 H6A 119.9
C2 C7 C6 120.9(6)
C2 C7 H7A 119.6
C6 C7 H7A 119.6
C12 C8 C9 118.0(5)
C12 C8 C5 120.4(5)
C9 C8 C5 121.6(5)
C10 C9 C8 119.4(5)
C10 C9 H9A 120.3
C8 C9 H9A 120.3
N1 C10 C9 121.0(5)
N1 C10 C13 112.5(5)
C9 C10 C13 126.4(5)
N1 C11 C12 120.6(5)
N1 C11 C18 112.3(5)
C12 C11 C18 127.0(6)
C11 C12 C8 120.6(5)
C11 C12 H12A 119.7
C8 C12 H12A 119.7
N2 C13 C14 120.8(5)
N2 C13 C10 114.3(5)
C14 C13 C10 124.9(5)
C15 C14 C13 120.1(6)
C15 C14 H14A 119.9
C13 C14 H14A 119.9
C14 C15 C16 118.8(6)
C14 C15 H15A 120.6
C16 C15 H15A 120.6
C17 C16 C15 119.1(6)
C17 C16 H16A 120.4
C15 C16 H16A 120.4
N2 C17 C16 122.3(6)
N2 C17 H17A 118.8
C16 C17 H17A 118.8
N3 C18 C19 120.3(6)
N3 C18 C11 115.3(5)
C19 C18 C11 124.4(5)
C18 C19 C20 121.3(6)
C18 C19 H19A 119.3
C20 C19 H19A 119.3
C19 C20 C21 118.0(6)
C19 C20 H20A 121.0
C21 C20 H20A 121.0
C22 C21 C20 118.9(6)
C22 C21 H21A 120.5
C20 C21 H21A 120.5
N3 C22 C21 123.3(6)
N3 C22 H22A 118.3
C21 C22 H22A 118.3
N4 C23 C24 118.6(5)
N4 C23 C33 113.7(4)
C24 C23 C33 127.7(5)
C23 C24 C25 122.7(5)
C23 C24 H24A 118.7
C25 C24 H24A 118.7
C24 C25 C26 115.3(5)
C24 C25 C38 122.7(5)
C26 C25 C38 121.9(5)
C27 C26 C25 121.6(5)
C27 C26 H26A 119.2
C25 C26 H26A 119.2
N4 C27 C26 120.3(5)
N4 C27 C28 112.6(5)
C26 C27 C28 127.0(5)
N5 C28 C29 121.4(4)
N5 C28 C27 114.7(5)
C29 C28 C27 123.9(5)
C30 C29 C28 119.0(5)
C30 C29 H29A 120.5
C28 C29 H29A 120.5
C29 C30 C31 119.9(5)
C29 C30 H30A 120.0
C31 C30 H30A 120.0
C32 C31 C30 118.7(5)
C32 C31 H31A 120.6
C30 C31 H31A 120.6
N5 C32 C31 122.8(5)
N5 C32 H32A 118.6
C31 C32 H32A 118.6
N6 C33 C34 121.1(5)
N6 C33 C23 114.9(4)
C34 C33 C23 123.9(5)
C35 C34 C33 119.3(5)
C35 C34 H34A 120.4
C33 C34 H34A 120.4
C34 C35 C36 119.4(5)
C34 C35 H35A 120.3
C36 C35 H35A 120.3
C37 C36 C35 118.4(6)
C37 C36 H36A 120.8
C35 C36 H36A 120.8
N6 C37 C36 123.4(5)
N6 C37 H37A 118.3
C36 C37 H37A 118.3
C39 C38 C43 117.1(5)
C39 C38 C25 122.0(5)
C43 C38 C25 120.9(5)
C40 C39 C38 120.9(6)
C40 C39 H39A 119.6
C38 C39 H39A 119.6
C41 C40 C39 121.7(6)
C41 C40 H40A 119.2
C39 C40 H40A 119.2
C42 C41 C40 117.6(5)
C42 C41 C44 120.3(6)
C40 C41 C44 122.1(6)
C41 C42 C43 121.5(6)
C41 C42 H42A 119.3
C43 C42 H42A 119.3
C42 C43 C38 121.2(5)
C42 C43 H43A 119.4
C38 C43 H43A 119.4
O3 C44 O4 124.0(6)
O3 C44 C41 120.1(7)
O4 C44 C41 115.8(7)
loop_
_geom_bond_atom_site_label_1
_geom_bond_atom_site_label_2
_geom_bond_distance
Ru1 N1 1.973(4)
Ru1 N4 1.977(4)
Ru1 N5 2.065(4)
Ru1 N3 2.069(5)
Ru1 N2 2.072(5)
Ru1 N6 2.080(4)
N1 C10 1.349(6)
N1 C11 1.349(6)
N2 C17 1.341(7)
N2 C13 1.361(6)
N3 C22 1.349(7)
N3 C18 1.366(6)
N4 C23 1.350(5)
N4 C27 1.355(6)
N5 C32 1.334(5)
N5 C28 1.376(6)
N6 C37 1.329(6)
N6 C33 1.379(6)
O1 C1 1.200(7)
O2 C1 1.252(7)
O3 C44 1.225(8)
O4 C44 1.274(8)
C1 C2 1.503(8)
C2 C3 1.356(7)
C2 C7 1.388(8)
C3 C4 1.388(7)
C3 H3A 0.9300
C4 C5 1.381(7)
C4 H4A 0.9300
C5 C6 1.398(7)
C5 C8 1.496(7)
C6 C7 1.389(7)
C6 H6A 0.9300
C7 H7A 0.9300
C8 C12 1.392(7)
C8 C9 1.395(7)
C9 C10 1.391(6)
C9 H9A 0.9300
C10 C13 1.490(7)
C11 C12 1.376(7)
C11 C18 1.465(7)
C12 H12A 0.9300
C13 C14 1.379(7)
C14 C15 1.366(7)
C14 H14A 0.9300
C15 C16 1.387(7)
C15 H15A 0.9300
C16 C17 1.369(8)
C16 H16A 0.9300
C17 H17A 0.9300
C18 C19 1.367(7)
C19 C20 1.379(7)
C19 H19A 0.9300
C20 C21 1.385(8)
C20 H20A 0.9300
C21 C22 1.360(8)
C21 H21A 0.9300
C22 H22A 0.9300
C23 C24 1.394(7)
C23 C33 1.450(7)
C24 C25 1.398(7)
C24 H24A 0.9300
C25 C26 1.408(6)
C25 C38 1.461(7)
C26 C27 1.374(7)
C26 H26A 0.9300
C27 C28 1.470(6)
C28 C29 1.380(7)
C29 C30 1.372(6)
C29 H29A 0.9300
C30 C31 1.378(7)
C30 H30A 0.9300
C31 C32 1.377(7)
C31 H31A 0.9300
C32 H32A 0.9300
C33 C34 1.384(6)
C34 C35 1.382(7)
C34 H34A 0.9300
C35 C36 1.395(7)
C35 H35A 0.9300
C36 C37 1.373(6)
C36 H36A 0.9300
C37 H37A 0.9300
C38 C39 1.387(7)
C38 C43 1.401(7)
C39 C40 1.387(7)
C39 H39A 0.9300
C40 C41 1.382(8)
C40 H40A 0.9300
C41 C42 1.375(7)
C41 C44 1.497(8)
C42 C43 1.381(7)
C42 H42A 0.9300
C43 H43A 0.9300
