#------------------------------------------------------------------------------
#$Date: 2019-11-03 11:42:27 +0200 (Sun, 03 Nov 2019) $
#$Revision: 221304 $
#$URL: file:///home/coder/svn-repositories/cod/cif/4/12/81/4128166.cif $
#------------------------------------------------------------------------------
#
# This file is available in the Crystallography Open Database (COD),
# http://www.crystallography.net/
#
# All data on this site have been placed in the public domain by the
# contributors.
#
data_4128166
loop_
_publ_author_name
'Cao, Chen-Chen'
'Chen, Cheng-Xia'
'Wei, Zhang-Wen'
'Qiu, Qian-Feng'
'Zhu, Neng-Xiu'
'Xiong, Yang-Yang'
'Jiang, Ji-Jun'
'Wang, Dawei'
'Su, Cheng-Yong'
_publ_section_title
;
 Catalysis through Dynamic Spacer Installation of Multivariate
 Functionalities in Metal-Organic Frameworks.
;
_journal_issue                   6
_journal_name_full               'Journal of the American Chemical Society'
_journal_page_first              2589
_journal_page_last               2593
_journal_paper_doi               10.1021/jacs.8b12372
_journal_volume                  141
_journal_year                    2019
_chemical_formula_moiety         'C78 H33 Cu F24 I N3 O32 Zr6'
_chemical_formula_sum            'C78 H33 Cu F24 I N3 O32 Zr6'
_chemical_formula_weight         2717.83
_chemical_name_common            LIFM-28-BPYDC-Cu
_space_group_crystal_system      tetragonal
_space_group_IT_number           131
_space_group_name_Hall           '-P 4c 2'
_space_group_name_H-M_alt        'P 42/m m c'
_symmetry_space_group_name_Hall  '-P 4c 2'
_symmetry_space_group_name_H-M   'P 42/m m c'
_atom_sites_solution_hydrogens   mixed
_audit_creation_method           SHELXL-2014/7
_cell_angle_alpha                90
_cell_angle_beta                 90
_cell_angle_gamma                90
_cell_formula_units_Z            2
_cell_length_a                   22.9570(16)
_cell_length_b                   22.9570(16)
_cell_length_c                   18.806(2)
_cell_measurement_reflns_used    2799
_cell_measurement_temperature    173(2)
_cell_measurement_theta_max      65.5250
_cell_measurement_theta_min      4.2860
_cell_volume                     9911.2(14)
_computing_structure_refinement  'SHELXL-2014/7 (Sheldrick, 2014)'
_diffrn_ambient_temperature      173(2)
_diffrn_detector                 'CCD plate'
_diffrn_detector_area_resol_mean 10.6525
_diffrn_detector_type            Atlas
_diffrn_measured_fraction_theta_full 0.963
_diffrn_measured_fraction_theta_max 0.963
_diffrn_measurement_device       'four-circle diffractometer'
_diffrn_measurement_device_type  'SuperNova, Dual, Cu at home/near, Atlas'
_diffrn_measurement_method       '\w scans'
_diffrn_radiation_monochromator  mirror
_diffrn_radiation_type           CuK\a
_diffrn_radiation_wavelength     1.54184
_diffrn_reflns_av_R_equivalents  0.0863
_diffrn_reflns_av_unetI/netI     0.0756
_diffrn_reflns_Laue_measured_fraction_full 0.963
_diffrn_reflns_Laue_measured_fraction_max 0.963
_diffrn_reflns_limit_h_max       19
_diffrn_reflns_limit_h_min       -26
_diffrn_reflns_limit_k_max       24
_diffrn_reflns_limit_k_min       -23
_diffrn_reflns_limit_l_max       5
_diffrn_reflns_limit_l_min       -21
_diffrn_reflns_number            14346
_diffrn_reflns_point_group_measured_fraction_full 0.963
_diffrn_reflns_point_group_measured_fraction_max 0.963
_diffrn_reflns_theta_full        66.457
_diffrn_reflns_theta_max         66.457
_diffrn_reflns_theta_min         3.851
_diffrn_source                   'micro-focus sealed X-ray tube'
_diffrn_source_type              'SuperNova (Cu) X-ray Source'
_exptl_absorpt_coefficient_mu    4.383
_exptl_absorpt_correction_T_max  1.00000
_exptl_absorpt_correction_T_min  0.21068
_exptl_absorpt_correction_type   multi-scan
_exptl_absorpt_process_details
;
CrysAlisPro 1.171.39.44a (Rigaku Oxford Diffraction, 2018)
Empirical absorption correction using spherical harmonics,
 implemented in SCALE3 ABSPACK scaling algorithm.
;
_exptl_crystal_colour            Brown
_exptl_crystal_density_diffrn    0.911
_exptl_crystal_description       Block
_exptl_crystal_F_000             2632
_exptl_crystal_size_max          0.1
_exptl_crystal_size_mid          0.1
_exptl_crystal_size_min          0.1
_refine_diff_density_max         2.075
_refine_diff_density_min         -2.161
_refine_diff_density_rms         0.172
_refine_ls_extinction_method     none
_refine_ls_goodness_of_fit_ref   0.943
_refine_ls_hydrogen_treatment    constr
_refine_ls_matrix_type           full
_refine_ls_number_parameters     247
_refine_ls_number_reflns         4589
_refine_ls_number_restraints     345
_refine_ls_restrained_S_all      0.967
_refine_ls_R_factor_all          0.1693
_refine_ls_R_factor_gt           0.1438
_refine_ls_shift/su_max          0.001
_refine_ls_shift/su_mean         0.000
_refine_ls_structure_factor_coef Fsqd
_refine_ls_weighting_details
'w=1/[\s^2^(Fo^2^)+(0.0633P)^2^+400.0000P] where P=(Fo^2^+2Fc^2^)/3'
_refine_ls_weighting_scheme      calc
_refine_ls_wR_factor_gt          0.3202
_refine_ls_wR_factor_ref         0.3361
_reflns_Friedel_coverage         0.000
_reflns_number_gt                3480
_reflns_number_total             4589
_reflns_threshold_expression     'I > 2\s(I)'
_cod_data_source_file            LIFM-28-BPYDC-Cu.cif
_cod_data_source_block           LIFM-28-BPYDC-Cu
_cod_original_cell_volume        9911.3(18)
_cod_database_code               4128166
_shelx_shelxl_version_number     2014/7
_shelx_space_group_comment
;
The symmetry employed for this shelxl refinement is uniquely defined
by the following loop, which should always be used as a source of
symmetry information in preference to the above space-group names.
They are only intended as comments.
;
_shelx_res_file
;

    D:\xray\ccc\20180425\struct\tmp\exp_2731_a_sq.res created by SHELXL-2014/7

TITL exp_2731_a.res in P4(2)/mmc
CELL 1.54184 22.9570 22.9570 18.8062 90.000 90.000 90.000
ZERR 2.0000 0.0016 0.0016 0.0022 0.000 0.000 0.000
LATT 1
SYMM -Y, X, 0.5+Z
SYMM -X, -Y, Z
SYMM Y, -X, 0.5+Z
SYMM X, -Y, -Z
SYMM -X, Y, -Z
SYMM Y, X, 0.5-Z
SYMM -Y, -X, 0.5-Z
SFAC C H N O I F ZR CU
UNIT 156 66 6 64 2 48 12 2
MERG 2
FMAP 2
GRID
PLAN 5
TEMP -100
BOND $H
EQIV $10 X, 2-Y, 1-Z
EQIV $11 1-X, 2-Y, Z
EQIV $12 1-X, Y, 1-Z
FLAT 0.01 C1 C2 C3 C4 C5 C6 C7 C8 C8A
DFIX 1.39 0.01 C1 C2 C2 C3 C3 C4 C4 C5 C5 C6 C6 C1
DFIX 2.40 0.01 C1 C3 C2 C4 C3 C5 C4 C6 C5 C1 C6 C2
DFIX 2.80 0.01 C1 C4 C2 C5 C3 C6
DFIX 1.50 0.01 C2 C8 C6 C8A
DFIX 1.33 0.01 C8 F1 C8 F2 C8 F3
DFIX 1.33 0.01 C8A F1A C8A F2A C8A F3A
DFIX 2.35 0.01 C2 F1 C2 F2 C2 F3
DFIX 2.35 0.01 C6 F1A C6 F2A C6 F3A
SADI F1 F2 F2 F3 F3 F1 F1A F2A F2A F3A F3A F1A
SADI C1 C8 C3 C8 C1 C8A C5 C8A
DFIX 1.50 0.01 C9 C10 C12 C12_$10
DFIX 1.39 0.01 C10 C11 C11 N1 N1 C12 C12 C13 C13 C11_$11
DFIX 2.40 0.01 C10 N1 C11 C12 N1 C13 C13 C10
DFIX 2.80 0.01 C10 C12 C11 C13 N1 C11_$11
DFIX 1.953 0.01 CU1 N2
DFIX 1.132 0.01 N2 C14
DFIX 1.484 0.01 C14 C15
DFIX 2.616 0.01 N2 C15
DFIX 3.131 0.01 N2 N2_$12
DFIX 6.825 0.01 C15 C15_$12
DELU 0.01 C1 > C8 C8A F1 > F3 F1A > F3A
SIMU 0.01 C1 > C8 C8A F1 > F3 F1A > F3A
DELU 0.005 C7 O1 O2
SIMU 0.005 C7 O1 O2
DELU 0.01 C9 > C15 CU1 N1 N2 I1
SIMU 0.01 C9 > C15 CU1 N1 N2 I1
DELU 0.02 C9 O3
SIMU 0.02 C9 O3
ISOR 0.01 F1A I1 O1 O3 C9 C10
DFIX 1.32 0.01 O3 C9
DELU 0.001 ZR1 O3 O4 O2 O6
SIMU 0.001 ZR1 O3 O4 O2 O6
ABIN
L.S. 20
ACTA
WGHT    0.063300  400.000000
FVAR       0.28674   0.76172
PART 1
I1    5    0.401048    0.842096    0.500000    10.12500    0.39624    0.38525 =
         0.46539    0.00000    0.00000   -0.10808
PART 0
ZR1   7    0.500000    0.924332    0.906683    10.50000    0.04462    0.05002 =
         0.04601   -0.02574    0.00000    0.00000
ZR2   7    0.392171    1.000000    1.000000    10.25000    0.02178    0.04135 =
         0.02313    0.00000    0.00000    0.00000
PART 1
CU1   8    0.500000    0.897021    0.500000    10.12500    0.31082    0.28945 =
         0.21707    0.00000    0.00000    0.00000
F1    6    0.141987    0.786882    0.886614    21.00000    0.16573    0.24281 =
         0.24563   -0.04999    0.02580   -0.08669
F2    6    0.115279    0.847323    0.807811    21.00000    0.12719    0.29142 =
         0.22895   -0.08678   -0.03884   -0.04363
F3    6    0.146574    0.878049    0.907599    21.00000    0.12910    0.26522 =
         0.21292   -0.10543    0.01050   -0.07284
PART 2
F1A   6    0.360254    0.796265    0.655890   -21.00000    0.16231    0.19596 =
         0.17501   -0.05161   -0.00374   -0.02817
F2A   6    0.316765    0.720995    0.694647   -21.00000    0.14992    0.18199 =
         0.18695   -0.09435   -0.02251   -0.05119
F3A   6    0.272081    0.781100    0.627288   -21.00000    0.18614    0.20265 =
         0.15669   -0.09351   -0.03487   -0.05111
PART 0
O1    4    0.341324    0.942376    0.927344    11.00000    0.06817    0.08233 =
         0.06665   -0.04017   -0.02090   -0.03110
O2    4    0.412426    0.895560    0.867057    11.00000    0.07044    0.10503 =
         0.08166   -0.04442   -0.02398   -0.02019
O3    4    0.500000    0.943619    0.789807    10.50000    0.10937    0.15192 =
         0.04627   -0.01746    0.00000    0.00000
O4    4    0.446293    1.000000    0.906044    10.50000    0.03372    0.05724 =
         0.10641    0.00000    0.02159    0.00000
O5    4    0.445910    1.077869    1.000000    10.50000    0.03861    0.13340 =
         0.06102    0.00000    0.00000   -0.01778
O6    4    0.500000    0.829457    0.911717    10.50000    0.11242    0.04960 =
         0.18172   -0.01698    0.00000    0.00000
PART 1
N1    3    0.500000    0.947613    0.577395    10.25000    0.30261    0.28660 =
         0.21365   -0.00049    0.00000    0.00000
PART 2
N2    3    0.568166    0.845853    0.500000    10.12500    0.31719    0.29541 =
         0.23945    0.00000    0.00000    0.00838
PART 0
C1    1    0.232720    0.808471    0.769324    11.00000    0.12410    0.18237 =
         0.15686   -0.08242   -0.03148   -0.06541
C2    1    0.216427    0.839324    0.829634    11.00000    0.11153    0.18419 =
         0.15935   -0.07998   -0.02607   -0.06814
PART 2
AFIX  43
H2    2    0.177258    0.837956    0.845847   -21.00000   -1.20000
PART 0
AFIX   0
C3    1    0.257719    0.872421    0.866506    11.00000    0.09761    0.15770 =
         0.13800   -0.06908   -0.02737   -0.05548
AFIX  43
H3    2    0.246661    0.893570    0.907775    11.00000   -1.20000
AFIX   0
C4    1    0.314874    0.874271    0.842626    11.00000    0.09379    0.13871 =
         0.11834   -0.06387   -0.02681   -0.04198
C5    1    0.331163    0.843476    0.782285    11.00000    0.11584    0.16730 =
         0.13846   -0.08369   -0.02490   -0.05004
AFIX  43
H5    2    0.370337    0.844884    0.766094    11.00000   -1.20000
AFIX   0
C6    1    0.290067    0.810479    0.745426    11.00000    0.13150    0.18073 =
         0.15226   -0.09023   -0.02786   -0.05938
PART 1
AFIX  43
H6    2    0.301182    0.789423    0.704109    21.00000   -1.20000
PART 0
AFIX   0
C7    1    0.358375    0.908993    0.881393    11.00000    0.07363    0.09914 =
         0.07814   -0.04341   -0.01914   -0.02341
PART 1
C8    1    0.155292    0.838224    0.857127    21.00000    0.11637    0.21822 =
         0.18946   -0.08037   -0.01628   -0.07688
PART 0
C9    1    0.500000    1.000000    0.768575    10.25000    0.21495    0.21231 =
         0.20354    0.00000    0.00000    0.00000
C10   1    0.500000    1.000000    0.688275    10.25000    0.24076    0.23912 =
         0.21454    0.00000    0.00000    0.00000
C11   1    0.500000    0.946860    0.651327    10.50000    0.27309    0.26276 =
         0.21276   -0.00723    0.00000    0.00000
AFIX   3
H11   2    0.500000    0.911150    0.676867    10.50000   -1.20000
AFIX   0
C12   1    0.500000    1.000000    0.540002    10.25000    0.30840    0.29042 =
         0.21248    0.00000    0.00000    0.00000
PART 2
C13   1    0.500000    1.052373    0.577415    10.25000    0.31097    0.29146 =
         0.21179    0.00122    0.00000    0.00000
AFIX  43
H13   2    0.500000    1.088140    0.552008    10.25000   -1.20000
AFIX   0
C14   1    0.598772    0.806876    0.500000    10.12500    0.32303    0.29678 =
         0.24804    0.00000    0.00000    0.01166
C15   1    0.648658    0.765418    0.500000    10.12500    0.32479    0.29635 =
         0.24827    0.00000    0.00000    0.01232
AFIX  33
H15A  2    0.633877    0.725370    0.500000    10.12500   -1.50000
H15B  2    0.672464    0.771799    0.457452    10.12500   -1.50000
H15C  2    0.672464    0.771800    0.542548    10.12500   -1.50000
AFIX   0
C8A   1    0.309202    0.777537    0.680726   -21.00000    0.14911    0.18446 =
         0.16008   -0.09254   -0.02521   -0.05333
HKLF 4

REM  exp_2731_a.res in P4(2)/mmc
REM R1 =  0.1438 for    3480 Fo > 4sig(Fo)  and  0.1693 for all    4589 data
REM    247 parameters refined using    345 restraints

END

WGHT      0.1039    269.3395

REM Highest difference peak  2.075,  deepest hole -2.161,  1-sigma level  0.172
Q1    1   0.3618  1.0000  1.0000  10.25000  0.05    2.07
Q2    1   0.3813  1.0597  1.0000  10.50000  0.05    1.40
Q3    1   0.3601  0.9690  0.9414  11.00000  0.05    1.31
Q4    1   0.4005  1.1070  1.0000  10.50000  0.05    1.25
Q5    1   0.3310  0.9613  1.0000  10.50000  0.05    1.23
;
_shelx_res_checksum              26845
_shelx_hkl_file
;
   0   0  -9   20.79   22.20
   0   0 -11  340.22   55.46
   0   0 -12 4094.00   93.19
   0   0 -13  705.70   54.67
   0   0 -14  773.20   52.06
   0   0 -15   12.04   27.04
   0   0 -16   15.14   25.60
   0   0 -17   30.26   24.53
   0   0 -18   78.69   24.77
   0   0 -19  216.95   31.68
   0   0 -20  595.09   38.70
   1   0  -2  566.84   17.72
   0   1  -6   -1.11    8.53
   1   0  -6    1.63   10.25
   0   1  -7  189.04   15.50
   1   0  -7  195.46   19.18
   1   0  -8   -4.07   10.96
   0   1  -8    0.66    8.79
   1   0  -9 7089.64  111.27
   0  -1 -10   19.18   24.47
   1   0 -11 4053.69   90.19
   0   1 -11 4008.82   86.84
  -1   0 -11 4007.75   88.25
   0  -1 -11 4010.69   91.76
   0  -1 -12  736.48   58.98
   0   1 -12  739.18   53.28
   1   0 -12  842.90   56.36
   0  -1 -13 1807.07   68.97
   1   0 -13 1616.46   66.13
  -1   0 -13 1693.18   65.09
   0   1 -13 1682.07   66.04
   1   0 -14  175.06   37.54
  -1   0 -14  226.30   36.26
   0   1 -14  200.35   36.94
   0  -1 -14  235.37   39.50
   0  -1 -15   77.10   32.66
   0   1 -15   41.41   27.86
   1   0 -15    2.44   25.88
  -1   0 -15   17.16   26.61
   0  -1 -16   32.87   28.98
   0   1 -16   29.38   24.94
  -1   0 -16   38.52   26.97
   1   0 -16   36.86   26.98
  -1   0 -17   17.26   23.44
   0  -1 -17   46.59   27.16
   1   0 -17   13.93   22.13
   0   1 -17   64.43   26.92
  -1   0 -18   17.36   22.45
   0   1 -18   29.85   22.65
   0  -1 -18   17.89   22.23
   1   0 -18   -1.57   21.38
   1   0 -19  327.32   31.18
  -1   0 -19  342.04   32.71
   0   1 -19  279.71   31.23
   0  -1 -19  291.78   30.99
  -1   0 -20  503.83   39.31
   0  -1 -20  514.96   35.92
  -1  -1 -20  469.69   35.14
   1   1 -19  165.93   29.69
  -1  -1 -19  118.46   29.00
  -1  -1 -18   44.44   24.23
   1   1 -18   43.36   23.03
   1   1 -17    6.19   23.25
  -1  -1 -17   23.93   25.65
   1   1 -16  101.61   29.04
  -1  -1 -16   69.38   29.69
  -1  -1 -15    8.06   27.58
   1   1 -15    9.10   24.75
  -1  -1 -14  387.94   40.74
   1   1 -14  408.57   40.11
   1   1 -13  219.36   40.90
  -1  -1 -13  402.53   41.91
   1   1 -12 2490.19   72.57
  -1  -1 -12 2477.11   74.55
   1   1 -11  188.11   45.02
  -1  -1 -11  240.48   49.08
   1   1  -9   11.11   13.15
   1   1  -8 1069.17   36.68
   1   1  -7   -3.35    9.24
   1   1  -6 1356.81   37.35
   1   1  -5    0.70    8.45
   1   1  -4  539.02   20.17
   1   1  -3   -6.34    6.66
   1   1  -2 7596.21   55.26
  -1   1  -8  962.92   31.28
   1  -1  -9   33.22   20.13
   1  -1 -10 3865.37   94.70
   1  -1 -11  239.04   53.13
  -1   1 -11  364.40   43.87
  -1   1 -12 2300.14   70.95
   1  -1 -12 2530.55   76.17
   1  -1 -13  511.45   45.13
  -1   1 -13  165.62   41.92
   1  -1 -14  356.36   41.34
  -1   1 -14  404.25   37.90
  -1   1 -15   27.71   26.17
   1  -1 -15   18.49   28.63
  -1   1 -16   57.23   26.69
   1  -1 -16   44.40   27.60
   1  -1 -17   -8.25   23.99
  -1   1 -17   22.55   24.72
   1  -1 -18   19.07   22.72
  -1   1 -18   48.52   22.75
   1  -1 -19  120.28   28.49
  -1   1 -19  188.99   30.23
   1  -1 -20  449.43   34.68
   2   0   0 5107.66   52.57
   2   0   1 1147.88   23.36
   2   0  -1 1188.62   26.50
   2   0  -2 7923.17   76.54
   2   0  -3  364.01   19.05
   0   2  -4  413.92   10.99
   2   0  -4  403.41   22.20
   0   2  -5  740.37   16.60
   2   0  -5  781.59   31.79
   2   0  -6  878.72   35.43
   0   2  -6  731.94   19.06
   2   0  -7  334.51   24.21
   0   2  -7  269.51   12.99
   2   0  -8   51.71   14.95
   2   0  -9   96.70   19.47
   0   2 -11   73.55   29.21
   0  -2 -11   75.67   38.93
  -2   0 -11  300.00   43.34
   2   0 -11  358.11   47.95
  -2   0 -12 1653.52   60.55
   0  -2 -12 1711.65   65.78
   2   0 -12 1756.95   64.00
   0   2 -12 1737.31   59.70
   2   0 -13  288.25   37.43
   0  -2 -13  501.71   45.51
   0   2 -13  420.61   38.67
  -2   0 -13  263.09   36.10
   2   0 -14  260.29   36.11
   0   2 -14  218.96   31.99
  -2   0 -14  208.47   34.05
   0  -2 -14  191.75   39.56
  -2   0 -15  227.66   34.27
   0   2 -15  213.98   30.97
   0  -2 -15  280.20   38.63
   2   0 -15  158.32   33.52
   0   2 -16  110.78   30.97
  -2   0 -16  128.50   30.94
   0  -2 -16  177.35   39.39
   2   0 -17  164.95   30.37
   0  -2 -17  190.23   33.35
  -2   0 -17  204.03   31.51
   0   2 -17  162.95   29.06
   0  -2 -18   17.86   25.97
   2   0 -18   16.25   23.74
   0   2 -18   86.96   25.14
  -2   0 -18   53.34   23.82
   2   0 -19  147.63   28.14
   0  -2 -19   74.80   26.66
  -2   0 -19  120.62   26.89
  -2   0 -20  531.32   36.17
   0  -2 -20  329.76   29.60
  -1  -2 -21  223.08   24.72
  -1  -2 -20  220.78   27.83
  -2  -1 -20  386.84   33.12
  -2  -1 -19  149.95   25.98
  -1  -2 -19  136.42   26.12
   2   1 -19  183.26   27.64
   1   2 -18   81.30   24.70
  -1  -2 -18   45.63   23.74
  -2  -1 -18   51.16   23.71
   2   1 -18   38.74   22.28
  -2  -1 -17   61.67   28.36
   1   2 -17  135.66   29.09
  -1  -2 -17  103.45   32.63
   2   1 -17   75.86   26.19
   1   2 -16  128.14   30.17
   2   1 -16  143.98   31.54
  -2  -1 -16  172.37   34.44
  -1  -2 -16  145.46   33.42
   2   1 -15   79.06   29.77
   1   2 -15   79.46   28.81
  -2  -1 -15   79.88   31.15
  -1  -2 -15  100.44   33.59
  -2  -1 -14  130.48   32.53
   1   2 -14  191.97   32.05
  -1  -2 -14  188.50   35.89
   2   1 -14  187.42   31.99
   1   2 -13  305.45   32.86
   2   1 -13  288.10   34.68
  -1  -2 -13  305.92   38.26
  -2  -1 -13  289.13   36.04
  -1  -2 -12  308.44   42.10
   1   2 -12  229.16   34.29
   2   1 -12  274.92   38.52
  -2  -1 -12  223.23   39.43
  -1  -2 -11 2437.76   74.76
  -2  -1 -11 2438.09   71.76
   2   1 -11 2517.81   69.33
   1   2 -11 2432.80   66.93
   2   1  -9 2930.74   66.82
   1   2  -8   28.64    7.79
   2   1  -8   32.52   11.66
   2   1  -7  199.37   17.78
   1   2  -7  195.20   13.70
   2   1  -6  111.31   14.15
   1   2  -6  101.74   10.29
   2   1  -5  838.69   29.70
   1   2  -5  811.13   22.45
   2   1  -4   11.59    8.73
   1   2  -4    8.69    6.69
   2   1  -3   49.05    8.56
   1   2  -3   59.94    7.15
   2  -1   2  498.87   14.42
   2   1  -2  530.97   20.52
   1   2  -2  510.44   15.23
   2   1  -1 7213.40   67.13
   2  -1   1 7287.90   57.15
   2   1   0  244.06   12.07
   2  -1   0  247.63   12.26
   2  -1  -1 6662.76   69.64
   2  -1  -2  500.12   23.60
   2  -1  -6   97.08   16.29
  -1   2  -6   64.82    5.39
   2  -1  -7  187.46   21.69
  -1   2  -7  103.08    6.95
   2  -1  -8   39.70   14.71
   2  -1  -9 3089.68   83.40
   1  -2 -10   24.93   18.82
   2  -1 -10   30.59   17.52
  -2   1 -11 2399.78   67.86
   2  -1 -11 2536.91   75.49
  -1   2 -11 2508.92   66.79
   1  -2 -11 2507.57   76.47
   2  -1 -12  258.59   43.88
  -1   2 -12  138.38   32.64
   1  -2 -12  359.14   42.68
  -2   1 -12   73.12   36.19
   1  -2 -13  264.38   38.68
  -1   2 -13  273.58   32.21
   2  -1 -13  358.97   37.85
  -2   1 -13  352.85   35.19
  -2   1 -14  137.34   30.14
  -1   2 -14  120.12   28.98
   2  -1 -14  147.93   33.05
   1  -2 -14  211.28   38.04
   1  -2 -15  129.40   35.14
  -2   1 -15  103.65   30.02
   2  -1 -15   42.06   31.33
  -1   2 -15  121.62   29.29
  -2   1 -16  188.18   32.04
   1  -2 -16  132.12   33.13
  -1   2 -16  163.66   29.41
  -1   2 -17  151.64   29.84
   1  -2 -17  133.55   32.97
  -2   1 -17  146.00   29.60
   2  -1 -17   66.95   27.39
   1  -2 -18   64.70   24.64
  -2   1 -18   64.11   23.52
   2  -1 -18   47.75   23.49
  -1   2 -18   66.14   23.79
  -2   1 -19  121.45   25.42
   2  -1 -19  170.52   26.98
   1  -2 -19  141.22   26.58
   2  -1 -20  333.23   30.91
   1  -2 -20  302.05   28.63
  -2  -2 -20  183.50   25.66
  -2  -2 -19   35.34   22.70
   2   2 -18   18.01   22.18
  -2  -2 -18   40.43   25.33
  -2  -2 -17   43.76   27.92
   2   2 -17  -11.62   22.08
  -2  -2 -16  222.19   36.61
   2   2 -16  157.77   31.31
   2   2 -15    1.19   24.39
  -2  -2 -15   30.94   30.39
  -2  -2 -14   31.22   30.26
   2   2 -14   28.81   25.10
  -2  -2 -13   13.23   29.13
   2   2 -13   34.93   23.43
  -2  -2 -12  644.28   45.21
   2   2 -12  615.85   38.55
  -2  -2 -11   35.19   31.65
   2   2 -11   62.67   26.45
   2   2  -8  335.66   21.04
   2   2  -7   -3.09    8.00
   2   2  -6  890.76   28.95
   2   2  -5    1.29    8.17
   2   2  -4   89.22   11.87
   2   2  -3    0.56    6.94
   2   2  -2  101.41    9.71
   2  -2   2   89.67    7.56
   2  -2   1   20.83    9.96
   2   2  -1    9.82    7.68
   2  -2  -8  338.65   30.21
   2  -2  -9   -2.25   15.91
   2  -2 -10 1155.31   57.99
  -2   2 -11   42.60   26.74
   2  -2 -11   -8.24   18.24
  -2   2 -12  651.62   38.40
   2  -2 -12  683.60   46.83
   2  -2 -13   61.02   30.16
  -2   2 -13   59.78   25.91
   2  -2 -14   38.91   29.53
  -2   2 -14   29.86   23.99
  -2   2 -15   64.79   26.68
   2  -2 -15  766.16   54.04
   2  -2 -16  239.78   37.31
  -2   2 -16  274.86   34.00
   2  -2 -17   38.43   28.02
  -2   2 -17   99.58   27.03
  -2   2 -18   22.05   21.74
   2  -2 -18   22.82   23.28
   2  -2 -19   65.03   24.22
   2  -2 -20  147.82   24.73
   3   0   0 7563.28   80.25
   3   0   1  421.31   20.55
   3   0  -1  413.40   21.60
   3   0  -2  280.38   17.81
   3   0   2  266.60   14.77
   3   0  -3 1369.03   38.59
   3   0  -4 4770.58   76.77
   3   0  -5 1976.62   52.89
   3   0  -6 1008.49   40.41
   3   0  -7  503.71   30.60
   3   0  -8  193.56   21.98
   3   0  -9 1353.56   53.63
   3   0 -10   36.64   15.91
   0  -3 -10   35.16   30.24
   0  -3 -11 1445.06   62.71
   3   0 -11 1589.59   58.21
   0   3 -11 1491.42   51.56
  -3   0 -11 1559.76   54.77
   0  -3 -12   97.09   35.57
   3   0 -12  134.57   32.82
  -3   0 -12   41.27   30.32
   0   3 -12   52.17   23.07
   3   0 -13  115.38   30.71
  -3   0 -13   62.72   30.28
   0  -3 -13   83.08   33.74
   0   3 -13   44.02   23.61
   0  -3 -14  475.75   46.30
   3   0 -14  424.35   42.15
   0   3 -14  554.57   38.78
  -3   0 -14  494.31   40.00
   0  -3 -15  338.19   43.87
  -3   0 -15  349.67   40.90
  -3   0 -16  744.11   48.17
   0   3 -16  674.75   43.95
   0  -3 -16  679.07   49.27
   3   0 -16  732.74   48.84
   3   0 -17  295.05   40.91
   0   3 -17  223.75   31.69
  -3   0 -18  252.94   31.72
   3   0 -18  308.10   32.61
   0  -3 -18  238.13   31.98
  -3   0 -19  108.60   24.78
   3   0 -19  112.33   24.48
   0  -3 -19   83.95   24.57
   0  -3 -20   43.20   22.18
   0  -3 -21  128.70   21.09
  -1  -3 -21   38.15   18.34
  -3  -1 -20  109.97   22.33
  -1  -3 -20   93.29   21.66
  -3  -1 -19   62.75   22.43
  -1  -3 -19   48.24   23.39
   3   1 -18  157.97   28.79
  -3  -1 -18  157.51   27.65
   3   1 -17  493.02   39.90
  -1  -3 -17  368.72   38.28
  -3  -1 -17  400.99   38.87
   1   3 -17  392.74   37.79
   1   3 -16  204.97   32.93
  -3  -1 -16  405.36   41.55
   3   1 -16  336.82   40.85
  -1  -3 -16  273.89   40.61
  -1  -3 -15  464.06   43.27
  -3  -1 -15  516.90   44.58
   1   3 -15  436.42   38.26
  -1  -3 -14   51.26   32.86
   3   1 -14  133.31   32.14
   1   3 -14   43.14   25.24
  -3  -1 -14   44.61   32.14
  -1  -3 -13  248.23   37.72
   3   1 -13  222.77   31.71
  -3  -1 -13  233.68   34.75
   1   3 -13  239.37   30.84
   3   1 -12  584.14   38.95
   1   3 -12  574.67   36.97
  -1  -3 -12  557.96   44.89
  -3  -1 -12  559.96   40.83
  -3  -1 -11  115.40   41.52
   3   1 -11  135.22   31.18
   1   3 -11   33.86   20.06
  -1  -3 -11   17.43   31.30
  -1  -3 -10 1485.60   61.17
   1   3 -10 1610.97   50.09
   3   1  -9   47.39   14.98
   3   1  -8    6.16   10.40
   1   3  -7  408.70   16.44
   3   1  -7  525.07   28.59
   1   3  -6  397.22   15.66
   3   1  -6  434.55   25.09
   3   1  -5 1286.18   39.44
   1   3  -5 1214.70   25.55
   3   1  -4  509.58   25.18
   1   3  -4  502.11   16.73
   3   1  -3 1250.43   35.89
   3   1  -2   31.63    8.85
   3  -1   2   35.42    7.47
   3  -1   1  123.68   13.66
   3   1  -1  124.16   14.12
   3  -1   0 4724.56   62.32
   3   1   0 4582.40   64.12
   3   1   1  106.77   12.25
   3  -1  -1  120.50   14.54
   3  -1  -2   40.08   10.21
   3  -1  -3 1232.06   39.56
   3  -1  -4  481.97   28.92
   3  -1  -5 1215.55   44.72
   3  -1  -6  436.64   29.36
   3  -1  -7  533.08   33.22
   3  -1  -8    5.51   12.99
   3  -1  -9   53.56   18.11
   3  -1 -10 1430.41   62.38
   3  -1 -11  138.97   34.66
  -3   1 -11  110.20   31.01
   1  -3 -11    6.40   29.95
  -1   3 -11    0.01   18.26
   1  -3 -11   -0.25   16.57
  -3   1 -12  513.46   36.43
  -1   3 -12  496.12   34.08
   1  -3 -12  521.59   43.91
   3  -1 -12  574.87   42.20
   1  -3 -13  213.95   37.79
  -3   1 -13  216.83   30.84
   3  -1 -13  227.43   34.14
  -1   3 -13  226.24   29.52
  -1   3 -14   30.85   23.73
  -3   1 -14   39.73   31.23
   3  -1 -14   82.56   34.17
   1  -3 -14   50.11   34.99
  -3   1 -15  536.24   42.22
  -1   3 -15  452.88   36.84
   3  -1 -16  328.85   42.03
   1  -3 -16  274.12   41.76
  -1   3 -16  293.33   34.39
  -3   1 -16  420.46   40.74
  -3   1 -17  526.04   40.55
   3  -1 -17  394.17   40.41
   1  -3 -17  398.37   40.62
  -1   3 -17  426.75   37.12
  -3   1 -18  170.51   28.59
   3  -1 -18  168.61   29.28
   1  -3 -19   72.66   24.05
   3  -1 -19  102.26   24.09
  -3   1 -19   85.64   23.93
   1  -3 -20  112.57   22.79
   1  -3 -21   97.87   20.47
  -2  -3 -21    7.02   16.35
  -2  -3 -20   27.12   20.51
  -3  -2 -20   20.41   19.83
  -2  -3 -19   11.87   21.31
  -3  -2 -19   23.74   21.38
  -3  -2 -18   70.34   25.66
  -2  -3 -18   91.86   26.67
   3   2 -17  245.44   33.13
  -2  -3 -17  123.80   32.48
  -3  -2 -17  208.13   33.22
   2   3 -17  116.06   27.36
  -3  -2 -16  230.58   37.31
   3   2 -16  155.97   31.39
  -2  -3 -16  181.52   35.06
   2   3 -16  139.97   29.70
   2   3 -15  194.30   31.74
  -2  -3 -15  258.91   38.73
   2   3 -14   74.25   25.75
  -2  -3 -14  120.57   34.83
  -3  -2 -14   98.70   32.83
   3   2 -14  103.37   27.43
  -2  -3 -13    8.35   30.42
  -3  -2 -13   13.22   30.06
   3   2 -13   58.23   26.12
   2   3 -13    8.82   21.69
   3   2 -12   53.89   25.01
   2   3 -12   11.69   20.15
  -3  -2 -12   56.97   32.64
  -2  -3 -12   46.89   32.31
  -2  -3 -11  113.88   32.29
   3   2 -11  141.76   24.55
   2   3 -11  123.70   21.97
   2   3 -10   55.63   18.88
   3   2 -10   74.26   21.98
  -2  -3 -10   15.75   29.67
   3   2  -9  283.99   23.02
   2   3  -8  144.54   13.39
   3   2  -8  175.57   18.68
   3   2  -7   95.40   14.14
   2   3  -7   85.59   11.68
   2   3  -6  200.17   14.80
   3   2  -6  201.65   17.32
   2   3  -5  158.53   14.02
   3   2  -5  144.60   15.44
   2   3  -4  129.78   13.13
   3   2  -4  139.82   16.22
   3   2  -3  283.59   20.03
   2  -3   3  296.23    9.80
   2   3  -3  303.11   16.01
   3  -2   3  280.93   13.49
   3  -2   2  324.92   15.93
   3   2  -2  306.82   18.69
   2  -3   2  280.97   13.14
   2   3  -2  294.40   15.73
   3   2  -1  612.79   24.96
   3  -2   1  570.92   21.99
   3  -2   0 1718.66   41.50
   3   2   0 1685.92   40.23
   3  -2  -1  604.34   27.78
   3  -2  -2  295.67   21.21
   3  -2  -3  288.68   22.64
   3  -2  -4  133.54   19.51
   3  -2  -5  135.62   19.61
   3  -2  -6  204.36   23.06
   3  -2  -7  115.18   20.54
   3  -2  -8  182.79   25.00
   3  -2  -9  324.53   32.34
   2  -3 -10   36.34   19.88
   3  -2 -10   42.33   18.31
   2  -3 -10   44.82   30.26
   2  -3 -11  147.96   32.94
   3  -2 -11   87.83   20.33
  -3   2 -11  145.13   23.79
   2  -3 -11  104.52   24.97
   3  -2 -11  150.43   30.97
   2  -3 -12   71.17   32.55
  -3   2 -12   15.57   23.33
   3  -2 -12   77.04   33.37
  -2   3 -12   23.47   21.28
   2  -3 -13    8.34   30.52
  -2   3 -13    5.95   21.14
   3  -2 -13   31.14   29.92
  -3   2 -13   29.28   24.58
  -3   2 -14  116.24   26.95
   2  -3 -14   82.70   34.24
  -2   3 -14  101.96   26.20
   3  -2 -14  116.76   33.80
   3  -2 -15  306.32   41.18
  -2   3 -15  271.92   33.07
  -3   2 -15  361.80   36.42
  -3   2 -16  220.91   32.47
   2  -3 -16  183.78   36.96
  -2   3 -16  197.44   30.79
   3  -2 -16  175.03   36.72
   3  -2 -17  117.11   33.55
  -2   3 -17  124.87   26.95
   2  -3 -17  149.64   33.60
   2  -3 -18   70.42   24.63
  -3   2 -18  100.59   25.65
   3  -2 -18   70.53   24.14
   3  -2 -19   67.76   22.35
   2  -3 -19   35.36   22.34
   3  -2 -20   56.04   20.42
   2  -3 -20   31.22   19.43
   2  -3 -21   24.11   17.33
  -3  -3 -21   -6.11   17.33
  -3  -3 -20   -4.51   18.66
  -3  -3 -19   28.46   22.15
  -3  -3 -18   50.38   26.06
  -3  -3 -17   12.90   26.47
  -3  -3 -16  248.02   38.03
   3   3 -16  196.74   33.33
  -3  -3 -15   50.22   31.29
   3   3 -15   -4.37   22.94
   3   3 -14   96.79   31.07
  -3  -3 -14  221.10   37.09
  -3  -3 -13   36.00   34.01
   3   3 -13   25.38   23.06
   3   3 -12  329.14   53.63
  -3  -3 -12  148.66   34.89
   3   3 -11    9.72   18.03
  -3  -3 -11   40.54   31.15
  -3  -3 -10   64.26   31.36
   3   3 -10   76.68   19.98
   3   3  -8  137.49   16.02
   3   3  -7   -2.60    9.04
   3   3  -6   81.04   12.52
   3   3  -5   -0.05    9.30
   3   3  -4  168.53   16.54
   3   3  -3    2.94    9.73
   3  -3   3    3.02    7.68
   3   3  -2  401.68   21.17
   3  -3   2  353.48   17.40
   3   3  -1    1.27    7.95
   3  -3   1   -2.41    9.22
   3  -3   0 3469.22   63.93
   3  -3  -8  132.79   24.92
   3  -3  -9  -11.41   18.99
   3  -3 -10   40.74   28.32
   3  -3 -10   49.53   19.40
   3  -3 -11    2.77   29.59
  -3   3 -11   -0.57   18.44
   3  -3 -11  -15.03   21.27
   3  -3 -12  174.22   34.85
  -3   3 -12  161.03   25.16
   3  -3 -13  -18.52   30.18
  -3   3 -13  -24.20   21.64
   3  -3 -14  195.10   38.19
  -3   3 -14  247.85   29.97
   3  -3 -15   49.20   33.51
  -3   3 -15   55.91   25.21
   3  -3 -16  256.98   37.39
  -3   3 -16  263.12   31.95
  -3   3 -17   71.27   25.56
   3  -3 -17   50.58   26.88
   3  -3 -18   15.61   22.71
   3  -3 -19   18.30   20.79
   3  -3 -20   -1.13   17.95
   4   0   0   97.70   13.84
   4   0   1   14.57    9.38
   4   0  -1   17.56    9.54
   4   0  -2    4.16    9.54
   4   0   2    7.51    8.44
   4   0  -3 9351.78  108.64
   4   0  -4 1445.06   45.96
   4   0  -5 3486.03   73.94
   4   0  -6  892.27   39.85
   4   0  -7 1333.08   50.55
   4   0  -8   72.85   16.32
   4   0  -9   93.15   18.61
   0   4 -10  450.90   28.60
   4   0 -10  412.52   34.09
   0  -4 -10  416.44   41.82
   4   0 -11   12.96   24.67
  -4   0 -11    0.77   22.94
   0  -4 -11   18.37   31.41
   0   4 -11   14.71   18.07
   4   0 -12  231.84   32.24
   0   4 -12  249.16   27.54
   0  -4 -12  208.98   38.32
  -4   0 -12  226.64   30.68
  -4   0 -13  239.79   33.18
   4   0 -13  239.14   32.68
   0   4 -13  231.96   28.66
   0  -4 -13  214.85   39.21
   0   4 -14   40.12   24.22
  -4   0 -14   86.30   35.95
   0  -4 -14   36.53   31.73
   0   4 -15 1168.29   54.55
   0  -4 -15 1140.05   60.57
  -4   0 -15 1183.61   57.73
   4   0 -16 1016.89   54.90
  -4   0 -16  843.24   50.95
   0  -4 -17  939.40   53.06
  -4   0 -17  973.56   52.72
   4   0 -17 1097.34   55.38
   4   0 -18  407.13   36.49
  -4   0 -18  327.86   34.40
   0  -4 -19  121.73   25.79
  -4   0 -19  130.73   25.14
   4   0 -19  137.71   25.67
   0  -4 -20   35.02   19.53
   0  -4 -21   31.99   18.56
  -1  -4 -21    3.34   16.16
  -4  -1 -20    2.29   18.63
  -1  -4 -20    5.81   18.78
  -4  -1 -19   89.39   24.12
  -1  -4 -19    3.74   20.75
  -4  -1 -18  320.02   34.57
   4   1 -18  379.83   36.07
  -1  -4 -18  308.41   34.50
  -4  -1 -17  684.92   46.00
   4   1 -17  709.27   47.94
   4   1 -16 1088.11   54.65
  -1  -4 -16  910.75   54.18
  -4  -1 -16  924.82   54.02
   1   4 -16  961.11   51.89
   1   4 -15  171.88   30.12
  -1  -4 -15  189.30   39.10
  -4  -1 -15  547.37   46.74
   4   1 -15  539.43   47.70
   1   4 -14  480.98   37.04
  -4  -1 -14  478.34   41.36
  -1  -4 -14  404.30   43.96
   4   1 -14  494.81   39.62
   4   1 -13   29.33   27.10
   1   4 -13    2.07   20.43
  -4  -1 -13   30.90   30.76
  -1  -4 -13   17.24   32.66
   4   1 -12   20.32   25.41
  -1  -4 -12   21.24   32.84
   1   4 -12   26.75   20.21
  -4  -1 -12   -1.24   26.27
   4   1 -11  195.18   27.33
   1   4 -11  197.00   24.11
  -4  -1 -11  202.01   30.33
  -1  -4 -11  191.43   37.24
   1   4 -10   41.41   18.68
  -1  -4 -10   26.26   31.55
   4   1 -10   17.96   20.06
   4   1  -9   86.11   16.99
   4   1  -8  341.65   26.82
   4   1  -7  504.74   30.58
   4   1  -6 2233.82   59.01
   4   1  -5   18.67   11.58
   4   1  -4 2316.45   54.87
   4  -1   3  441.57   22.05
   4   1  -3  506.92   26.60
   4  -1   2  459.37   23.46
   4   1  -2  446.67   25.95
   4   1  -1   14.94    9.57
   4  -1   1   17.37    9.06
   4  -1   0  262.98   18.22
   4   1   0  260.40   19.30
   4  -1  -1   18.35    9.57
   4   1   1   17.91    9.18
   4  -1  -2  470.97   25.71
   4  -1  -3  464.55   28.67
   4  -1  -4 2161.41   59.97
   4  -1  -5   11.80   13.45
   4  -1  -6 2223.60   65.76
   4  -1  -7  517.98   34.83
   4  -1  -8  329.10   30.16
   4  -1  -9   81.37   20.02
  -1   4 -10   22.56   16.90
   1  -4 -10    6.51   31.33
   4  -1 -10   17.83   15.25
  -4   1 -11  189.69   25.86
   4  -1 -11  198.81   30.22
  -1   4 -11  193.67   24.17
   1  -4 -11  163.37   35.81
   1  -4 -12   -3.13   31.65
   4  -1 -12   10.65   26.02
  -1   4 -12   -5.47   18.61
  -4   1 -12    2.34   24.17
   1  -4 -13   -8.94   31.53
  -1   4 -13  -10.34   20.59
  -4   1 -13   27.06   26.86
   4  -1 -13   47.91   32.10
  -4   1 -14  460.00   37.68
   4  -1 -14  468.05   43.60
  -1   4 -14  477.93   35.53
   4  -1 -15  715.91   51.26
   1  -4 -15  139.27   40.08
  -4   1 -15  546.52   47.09
  -4   1 -16 1013.80   52.72
  -1   4 -16  965.28   49.90
   1  -4 -16  883.10   54.93
   4  -1 -16 1003.79   55.66
  -4   1 -17  590.68   45.12
   4  -1 -17  800.31   48.21
   1  -4 -18  378.28   38.12
   4  -1 -18  369.93   34.93
  -4   1 -18  345.35   33.94
   4  -1 -19   99.79   22.97
  -4   1 -19  124.55   25.35
   1  -4 -20   -6.55   18.11
   1  -4 -21   19.67   17.00
  -2  -4 -21   18.72   17.51
  -2  -4 -20   -0.22   18.67
  -4  -2 -20  -22.97   20.06
  -2  -4 -19   78.41   27.35
  -4  -2 -19   51.54   22.36
  -2  -4 -18    2.20   24.03
  -4  -2 -18  173.22   29.67
   4   2 -17  385.88   36.42
  -2  -4 -17  367.76   38.35
   4   2 -16  570.70   43.14
  -2  -4 -16  181.75   35.81
  -4  -2 -16  526.35   43.23
  -2  -4 -15  436.71   43.87
   4   2 -15  364.58   38.64
  -4  -2 -15  457.94   43.57
   2   4 -14   91.97   25.90
   4   2 -14  212.16   32.63
  -4  -2 -14  169.28   36.40
  -2  -4 -14  169.15   38.10
   4   2 -13  156.57   31.56
   2   4 -13  209.39   29.25
  -2  -4 -13  154.88   38.29
  -4  -2 -13  232.97   38.51
   2   4 -12   20.16   19.06
   4   2 -12   63.63   22.87
  -4  -2 -12   22.85   28.21
  -2  -4 -12   58.21   34.49
  -2  -4 -11   46.59   32.45
   2   4 -11   40.60   17.97
   4   2 -11   63.90   21.64
  -4  -2 -11   54.57   29.56
  -4  -2 -10  -23.41   27.93
   4   2 -10    0.72   17.76
   2   4 -10    0.27   16.39
   4   2  -9    4.02   12.64
   4   2  -8  144.82   19.16
   4   2  -7  944.16   40.16
   4   2  -6   49.88   12.60
   4   2  -5 1515.59   47.68
   4   2  -4 1919.89   52.19
   2  -4   3  116.54   10.21
   4  -2   3  128.32   14.46
   4   2  -3  135.02   17.97
   4   2  -2  517.60   27.18
   4  -2   2  579.87   25.77
   4   2  -1  166.89   17.38
   4  -2   1  173.27   15.86
   4   2   0  227.81   18.85
   4  -2   0  223.36   19.13
   4   2   1  158.43   16.66
   4  -2  -1  159.76   18.62
   4  -2  -2  525.38   29.68
   4  -2  -3  123.04   19.70
   4  -2  -4 1843.00   58.40
   4  -2  -5 1443.99   54.58
   4  -2  -6   48.81   16.06
   4  -2  -7  943.94   48.46
   4  -2  -8  143.90   23.78
   4  -2  -9    8.98   15.89
   2  -4 -10   -4.06   18.85
   2  -4 -10   24.43   31.17
  -2   4 -10   23.47   16.76
   4  -2 -10   17.50   17.62
   4  -2 -11   73.95   22.02
   2  -4 -11   73.29   33.01
  -4   2 -11   54.89   22.01
   2  -4 -11   45.35   21.50
   4  -2 -11   76.43   30.38
  -2   4 -11   61.03   19.74
   2  -4 -12   42.63   33.15
   4  -2 -12   18.85   26.54
  -4   2 -12   52.72   22.85
  -2   4 -12   38.08   20.15
  -4   2 -13  196.98   28.05
   4  -2 -13  250.53   38.87
  -2   4 -13  174.77   26.18
   2  -4 -13  233.88   38.69
  -4   2 -14  207.69   30.89
   2  -4 -14  106.67   35.98
   4  -2 -14  265.87   38.53
  -2   4 -14  153.05   26.23
  -2   4 -15  389.48   34.98
  -4   2 -15  468.08   38.10
   4  -2 -15  445.13   45.83
  -2   4 -16  215.84   30.86
  -4   2 -16  475.24   41.82
   2  -4 -16  189.95   37.12
   4  -2 -16  528.59   44.50
   4  -2 -17  415.22   38.58
  -4   2 -17  406.89   36.52
   2  -4 -17  376.28   39.29
  -4   2 -18  187.95   28.96
   4  -2 -18  212.70   29.58
   4  -2 -19   21.58   19.81
   2  -4 -19   78.89   24.18
   2  -4 -20  -23.90   19.58
   4  -2 -20   13.44   18.35
   2  -4 -21    1.60   16.13
  -4  -3 -21   57.69   18.59
  -3  -4 -21   83.17   20.28
  -4  -3 -20   11.88   21.41
  -3  -4 -20  -13.57   19.33
  -3  -4 -19   29.91   22.51
  -4  -3 -19   16.68   21.17
  -3  -4 -18   27.30   24.56
  -4  -3 -18   44.46   25.77
  -3  -4 -17   82.42   30.76
  -4  -3 -17  210.59   34.53
  -3  -4 -16   93.09   32.65
  -4  -3 -16  123.22   33.01
   4   3 -16  110.59   28.37
   3   4 -15  139.54   29.99
   4   3 -15  196.51   33.02
  -3  -4 -15  167.74   37.81
   3   4 -14   -8.17   22.30
   4   3 -14   45.40   24.12
  -3  -4 -14   87.89   35.26
  -4  -3 -14   35.81   32.52
  -4  -3 -13  420.62   44.53
  -3  -4 -13  441.41   46.74
   4   3 -13  447.73   36.39
   3   4 -13  473.02   35.85
   4   3 -12   16.20   22.49
  -4  -3 -12   15.25   33.83
   3   4 -12    0.44   19.38
  -3  -4 -12    6.17   34.07
   3   4 -11  478.60   32.90
  -3  -4 -11  520.45   46.56
   4   3 -11  427.78   33.30
  -4  -3 -11  483.26   43.78
   3   4 -10  109.42   19.93
   4   3 -10  124.07   20.89
  -4  -3 -10  115.28   32.72
   4   3  -8  243.24   22.12
   4   3  -7   73.66   14.41
   3   4  -7   68.66   12.33
   4   3  -6   69.70   13.27
   3   4  -6   62.06   11.53
   3   4  -5  231.68   18.33
   4   3  -5  231.87   20.57
   3   4  -4  335.13   21.89
   4   3  -4  350.47   24.91
   3   4  -3 3053.90   60.00
   4   3  -3 3153.87   65.59
   3  -4   3 3001.97   46.06
   4  -3   3 3147.52   56.66
   3  -4   2  554.06   24.55
   4  -3   2  588.48   25.72
   4   3  -2  580.72   29.15
   3  -4   1 1130.46   37.86
   4   3  -1 1195.66   40.33
   4  -3   1 1213.82   37.99
   4  -3   0  577.95   30.37
   4  -3  -1 1225.09   43.90
   4  -3  -2  546.71   33.19
   4  -3  -3 2950.57   74.95
   4  -3  -4  345.24   30.00
   4  -3  -5  250.59   27.58
   4  -3  -6   67.83   18.45
   4  -3  -7   80.20   20.45
   4  -3  -8  223.35   29.29
   3  -4  -9   68.03   22.59
   4  -3  -9   57.32   20.49
  -4   3 -10  103.19   19.60
   4  -3 -10  136.44   27.06
  -3   4 -10  119.81   19.96
   3  -4 -10  109.75   25.17
   4  -3 -10  125.40   29.52
   3  -4 -10  137.51   34.52
  -3   4 -11  490.43   31.88
  -4   3 -11  487.39   31.67
   4  -3 -11  419.65   41.98
   3  -4 -11  494.85   45.37
   3  -4 -11  432.12   44.10
   4  -3 -11  486.84   42.96
   3  -4 -12   -8.60   20.95
  -4   3 -12   28.08   20.73
   4  -3 -12   15.82   31.91
   3  -4 -12  -13.96   31.24
  -3   4 -12  -14.94   19.75
  -3   4 -13  446.96   33.09
   3  -4 -13  436.32   44.80
   4  -3 -13  476.43   44.84
  -4   3 -13  432.84   32.94
  -3   4 -14   37.76   22.49
  -4   3 -14   53.34   23.54
   4  -3 -14   68.11   33.33
   3  -4 -14   29.20   32.44
   3  -4 -15  173.18   37.68
  -4   3 -15  251.54   31.47
  -3   4 -15  196.18   29.18
   4  -3 -16   99.54   30.76
   3  -4 -16   91.97   31.36
  -3   4 -16   45.46   23.77
  -4   3 -16  108.20   26.52
  -4   3 -17  143.77   27.78
   4  -3 -17  167.67   30.20
   3  -4 -18   46.10   23.79
   4  -3 -18   47.41   24.64
   4  -3 -19    1.95   18.91
   3  -4 -19   21.17   20.90
   4  -3 -20   20.34   21.21
   3  -4 -20    3.75   18.48
   3  -4 -21   86.48   20.33
  -4  -4 -21   12.99   19.10
  -4  -4 -20  183.43   26.15
  -4  -4 -19  -20.46   21.85
  -4  -4 -18   47.32   26.33
  -4  -4 -17   18.70   27.27
  -4  -4 -16   80.32   31.78
  -4  -4 -15    6.88   30.65
   4   4 -15   49.02   25.67
  -4  -4 -14  398.01   44.90
   4   4 -14  345.47   37.45
  -4  -4 -13  136.67   42.01
   4   4 -13   -7.88   21.60
  -4  -4 -12 1646.45   70.24
   4   4 -12 1427.08   58.83
   4   4 -11   -9.78   18.73
  -4  -4 -11  -24.47   34.57
   4   4 -10 1204.20   44.95
   4   4  -8  389.86   25.82
   4   4  -7    2.30    9.57
   4   4  -6  397.33   25.55
   4   4  -5    0.38    9.98
   4   4  -4  289.37   22.94
   4  -4   4  272.36   16.20
   4  -4   3    0.51    9.63
   4   4  -3    3.24   11.51
   4   4  -2 2859.59   64.75
   4  -4   2 2685.71   55.68
   4  -4   1    6.40   13.66
   4  -4   0  923.97   40.42
   4  -4  -1    9.36   15.89
   4  -4  -2 2820.22   73.81
   4  -4  -6  376.18   34.39
   4  -4  -7   -7.00   17.81
   4  -4  -8  427.67   41.38
   4  -4  -9   -7.39   18.13
   4  -4 -10 1171.58   59.14
  -4   4 -10 1076.20   40.11
   4  -4 -10 1076.46   64.96
   4  -4 -11  -12.04   30.30
   4  -4 -11  -13.48   23.27
   4  -4 -12 1489.80   81.61
  -4   4 -12 1652.65   54.17
   4  -4 -12 1686.84   71.52
  -4   4 -13   -8.93   19.22
   4  -4 -13  -16.03   31.03
  -4   4 -14  388.66   33.64
   4  -4 -14  406.00   43.03
   4  -4 -15   26.47   30.15
  -4   4 -15   16.54   21.81
   4  -4 -16   41.65   28.22
  -4   4 -16   44.01   23.17
   4  -4 -17    4.90   25.16
   4  -4 -18   78.73   25.21
   4  -4 -19   14.18   20.16
   4  -4 -20  212.15   26.33
   5   0   0 3715.87   72.53
   5   0   1  167.42   18.65
   5   0  -1  156.36   18.76
   5   0  -2   69.36   15.60
   5   0   2   64.79   14.91
   5   0  -3  452.75   28.12
   5   0  -4 8617.36  119.15
   5   0  -5   34.97   13.59
   5   0  -6 4567.98   93.06
   5   0  -7 1229.16   50.83
   5   0  -8 1408.91   57.87
   5   0  -9   22.71   15.32
   5   0 -10  129.27   23.24
   0   5 -10  157.18   21.86
   5   0 -10  143.80   23.34
  -5   0 -11  120.68   26.98
   0   5 -11  105.55   21.08
   5   0 -11  121.65   26.72
   0  -5 -11   71.80   33.92
   0  -5 -12  -30.12   35.15
   5   0 -12   18.93   23.46
   0   5 -12   29.09   19.95
  -5   0 -12   63.38   28.33
   0   5 -13   20.42   20.67
   5   0 -13   73.69   30.51
  -5   0 -13   32.54   28.90
   0  -5 -14  365.22   42.83
   0   5 -14  428.27   35.35
  -5   0 -14  420.42   37.80
   5   0 -14  416.80   37.64
   5   0 -15  851.41   53.90
  -5   0 -15  675.24   50.86
   5   0 -16 1340.89   61.80
   0  -5 -16 1196.66   62.45
  -5   0 -16 1240.20   58.55
   5   0 -17  966.33   54.12
  -5   0 -17  966.26   52.23
   0  -5 -18  429.83   38.74
  -5   0 -18  467.51   37.26
   5   0 -18  511.85   39.95
  -5   0 -19  121.85   24.69
   0  -5 -19   10.27   22.69
   0  -5 -20   10.36   18.24
   0  -5 -21   50.99   18.95
  -1  -5 -21    9.88   17.15
  -1  -5 -20    1.97   18.52
  -5  -1 -20   -5.25   18.75
  -5  -1 -19   96.24   24.04
  -1  -5 -19   90.53   25.31
  -1  -5 -18  -34.10   26.56
  -5  -1 -18  315.79   33.43
  -1  -5 -17  915.09   53.13
   5   1 -17  879.94   51.28
  -5  -1 -17  864.17   51.84
   5   1 -16  896.12   53.29
  -5  -1 -16  775.48   50.51
  -5  -1 -15  983.51   55.82
   5   1 -15  958.37   52.83
  -1  -5 -15  975.17   58.37
  -5  -1 -14  159.83   35.14
  -1  -5 -14   10.68   32.76
   5   1 -14  125.79   31.26
   1   5 -14   46.86   24.23
   1   5 -13  223.55   28.70
  -5  -1 -13  243.93   35.66
  -1  -5 -13  173.56   39.63
   5   1 -13  232.09   30.77
  -1  -5 -12   -1.70   34.21
   5   1 -12    2.55   21.14
  -5  -1 -12   33.41   28.06
   1   5 -12   19.11   18.71
  -1  -5 -11   99.87   37.43
  -5  -1 -11   90.99   28.23
   1   5 -11  101.40   21.04
   5   1 -11   91.51   24.25
  -5  -1 -10   22.17   23.73
   5   1 -10   35.31   21.12
   5   1 -10   24.93   15.74
   1   5 -10   35.02   17.96
   5   1  -9   29.97   15.51
   5   1  -8  644.29   38.24
   5   1  -7 2555.29   70.43
   5   1  -6  638.27   34.86
   5   1  -5 5329.06   93.78
   5   1  -4  131.85   18.35
   5   1  -3 2996.28   68.79
   5  -1   3 2998.11   63.68
   5  -1   2  412.50   26.58
   5   1  -2  417.91   27.61
   5  -1   1  564.72   30.18
   5   1  -1  578.61   30.86
   5   1   0  359.29   24.71
   5  -1   0  368.66   24.16
   5   1   1  558.27   29.17
   5  -1  -1  544.45   29.15
   5   1   2  415.99   26.28
   5  -1  -2  396.03   26.75
   5  -1  -3 3003.89   71.07
   5  -1  -4  135.29   19.86
   5  -1  -5 5159.27  100.49
   5  -1  -6  625.42   38.13
   5  -1  -7 2587.09   76.73
   5  -1  -8  655.72   42.52
   5  -1  -9   25.80   16.76
  -1   5 -10   37.18   17.86
   5  -1 -10   24.32   17.12
   5  -1 -10   17.49   22.52
  -5   1 -11   99.34   24.88
   1  -5 -11   68.26   33.86
   5  -1 -11  107.69   27.84
   5  -1 -11   71.11   20.60
  -1   5 -11   88.30   19.98
   1  -5 -12  -24.05   24.74
   1  -5 -12   -7.66   35.50
   5  -1 -12   34.89   26.26
  -1   5 -12   11.05   18.50
  -5   1 -13  194.47   29.64
   1  -5 -13  209.05   40.28
   5  -1 -13  199.15   33.04
  -1   5 -13  210.47   28.09
  -1   5 -14   40.51   22.25
  -5   1 -14  151.83   31.96
   1  -5 -14   -6.07   32.93
   5  -1 -14  166.18   35.24
   5  -1 -15  987.37   55.70
  -5   1 -15  998.94   50.83
  -1   5 -15 1124.44   50.93
   5  -1 -16 1126.48   55.83
  -5   1 -16  719.53   49.68
   1  -5 -17  887.08   53.54
   5  -1 -17  882.66   53.05
  -5   1 -17  901.40   49.93
  -5   1 -18  364.74   35.15
   5  -1 -18  476.41   36.32
   1  -5 -19   92.69   25.01
   5  -1 -19  107.89   24.24
   1  -5 -20    6.61   18.67
   1  -5 -21    1.93   16.17
  -2  -5 -21   46.99   18.85
  -2  -5 -20   -1.48   19.08
  -5  -2 -20   22.99   21.87
  -2  -5 -19   54.85   25.12
  -5  -2 -19   46.34   22.31
  -5  -2 -18  188.89   29.64
  -2  -5 -18  156.14   29.38
  -2  -5 -17   28.63   28.67
  -5  -2 -17  340.04   39.80
  -2  -5 -16  638.39   49.76
   5   2 -16  580.47   43.49
  -5  -2 -16  640.41   47.19
  -5  -2 -15  413.13   42.08
   5   2 -15  330.37   38.79
   5   2 -14  232.61   31.43
   2   5 -14  223.25   30.69
  -5  -2 -14  248.63   38.05
  -2  -5 -14  243.05   42.45
  -2  -5 -13  102.55   38.98
   2   5 -13   68.11   24.21
  -5  -2 -13  118.33   34.60
   5   2 -13  112.85   27.29
   5   2 -12   94.74   25.27
   2   5 -12   18.11   19.08
  -2  -5 -12   63.84   37.14
  -5  -2 -12   98.77   34.39
   2   5 -11   90.06   20.22
  -2  -5 -11   93.86   36.45
   5   2 -11  121.42   23.07
  -5  -2 -11  114.59   31.75
   2   5 -10  200.92   23.16
  -5  -2 -10  201.94   32.74
   5   2 -10  217.14   25.44
   5   2  -9  109.52   19.06
   5   2  -8  354.45   29.57
   5   2  -7  308.91   26.99
   5   2  -6 2093.46   62.81
   5   2  -5  354.49   27.46
   5   2  -4 1201.52   46.55
   5  -2   3  303.71   22.94
   5   2  -3  289.10   25.18
   5   2  -2  411.59   28.36
   5  -2   2  409.38   26.65
   5  -2   1  492.17   28.50
   5   2  -1  569.33   31.48
   5   2   0  918.03   38.36
   5  -2   0  924.46   37.57
   5  -2  -1  523.09   30.84
   5   2   1  542.03   31.06
   5  -2  -2  385.50   29.32
   5  -2  -3  297.42   28.44
   5  -2  -4 1100.30   48.65
   5  -2  -5  357.47   30.22
   5  -2  -6 2105.93   70.73
   5  -2  -7  299.44   30.31
   5  -2  -8  365.46   34.80
   5  -2  -9  108.52   22.69
  -2   5 -10  224.43   23.14
   2  -5 -10  220.61   40.02
   5  -2 -10  226.19   31.13
   5  -2 -10  203.79   29.79
   5  -2 -11  130.26   31.24
  -2   5 -11  117.66   21.22
  -5   2 -11  126.90   23.45
   2  -5 -11  112.76   37.87
   2  -5 -11   79.35   24.66
   5  -2 -11   98.65   23.16
  -2   5 -12   65.04   20.55
   2  -5 -12   32.12   33.79
  -5   2 -12  102.70   28.82
   2  -5 -12   43.79   26.14
   5  -2 -12   86.56   33.99
  -5   2 -13  131.01   26.03
   2  -5 -13  107.52   38.59
   5  -2 -13  110.07   32.14
  -2   5 -13   90.90   22.90
  -2   5 -14  176.18   26.86
  -5   2 -14  221.59   29.05
   5  -2 -14  219.15   36.66
   5  -2 -15  462.59   42.85
   2  -5 -15   27.44   33.60
  -5   2 -15  385.01   37.31
   5  -2 -16  658.12   46.65
   2  -5 -16  542.35   47.99
  -5   2 -16  611.93   42.12
   5  -2 -17  622.39   41.93
  -5   2 -17  417.61   38.84
   2  -5 -18  217.61   34.33
  -5   2 -18  201.07   28.97
   5  -2 -18  220.38   29.97
   2  -5 -19   16.20   21.89
   5  -2 -19   71.57   22.62
   2  -5 -20  -13.78   18.22
   2  -5 -21   38.88   17.92
  -3  -5 -21   20.60   17.85
  -5  -3 -20  155.01   24.28
  -3  -5 -20  152.40   24.85
  -3  -5 -19   24.40   22.26
  -5  -3 -19   21.65   23.05
  -3  -5 -18   13.58   24.67
  -5  -3 -18   40.04   25.70
  -3  -5 -17  202.03   35.10
  -5  -3 -17  191.67   32.94
  -3  -5 -16   65.14   34.80
  -5  -3 -16  225.97   35.20
  -3  -5 -15  139.56   37.49
   5   3 -15  131.94   28.37
  -5  -3 -15  167.32   35.69
   5   3 -14  223.47   31.34
  -3  -5 -14  237.54   41.32
  -5  -3 -14  225.39   38.18
   3   5 -13   39.65   23.11
  -5  -3 -13   59.98   34.43
   5   3 -13   64.21   24.13
  -3  -5 -13   29.65   35.42
  -5  -3 -12  998.01   56.53
   5   3 -12 1021.47   46.61
  -3  -5 -12  975.32   60.60
   3   5 -12  917.11   47.46
   5   3 -11  123.52   23.09
  -3  -5 -11   77.79   36.98
   3   5 -11   83.65   20.12
  -5  -3 -11  111.12   34.88
  -5  -3 -10 1083.45   54.55
   3   5 -10 1182.41   44.60
   5   3 -10 1112.94   42.79
   5   3  -9   47.45   13.84
   5   3  -8  402.36   30.03
   5   3  -7  658.51   36.42
   5   3  -6  130.62   18.97
   5   3  -5  202.67   21.01
   5  -3   4 1223.91   38.17
   5   3  -4 1271.99   47.89
   5   3  -3   35.80   14.57
   3  -5   3   32.56   10.97
   5  -3   3   36.74   13.60
   5  -3   2  195.50   20.58
   3  -5   2  178.37   19.48
   5   3  -2  160.64   20.75
   5  -3   1  525.96   30.11
   5   3  -1  556.86   31.81
   5   3   0  532.68   31.17
   5  -3   0  544.62   31.78
   5  -3  -1  552.51   33.94
   5  -3  -2  178.56   24.58
   5  -3  -3   38.36   17.71
   5  -3  -4 1274.83   54.16
   5  -3  -5  224.46   26.99
   5  -3  -6  126.31   22.51
   5  -3  -7  639.40   43.70
   5  -3  -8  365.25   36.06
   5  -3  -9   57.63   20.65
   5  -3 -10 1118.91   65.05
   5  -3 -10 1058.98   52.37
  -5   3 -10  990.09   38.74
  -3   5 -10 1129.21   41.26
   3  -5 -10 1100.80   60.97
   3  -5 -10 1087.25   68.49
  -5   3 -11  163.41   23.34
   5  -3 -11  126.63   33.34
   3  -5 -11  100.21   34.98
   3  -5 -11  118.04   28.28
   5  -3 -11   96.52   25.07
  -3   5 -11  115.79   21.11
  -3   5 -12  959.59   43.19
   3  -5 -12  952.76   59.34
   5  -3 -12 1034.63   55.61
   3  -5 -12  846.83   64.25
  -5   3 -12 1021.09   43.80
  -5   3 -13   39.94   22.14
  -3   5 -13   30.73   20.32
   3  -5 -13   42.30   34.82
   5  -3 -13   71.09   32.75
  -5   3 -14  235.89   29.34
   5  -3 -14  242.21   37.11
   3  -5 -14  147.27   38.17
  -3   5 -14  191.68   27.56
   3  -5 -15  107.14   35.31
  -5   3 -15  144.10   26.69
   5  -3 -15  166.97   34.16
  -3   5 -15  131.17   27.10
  -5   3 -16  150.08   28.31
   5  -3 -16  255.66   35.07
  -5   3 -17  189.33   29.02
   5  -3 -17  185.73   30.17
   3  -5 -17  142.69   32.33
   5  -3 -18  116.05   25.45
   3  -5 -18   36.35   24.79
   5  -3 -19   56.08   22.90
   3  -5 -19   21.42   21.42
   3  -5 -20  143.55   24.24
   5  -3 -20  171.27   24.81
   3  -5 -21    6.54   17.04
  -5  -4 -21  298.92   26.39
  -4  -5 -21  290.94   27.17
  -4  -5 -20    1.29   19.96
  -5  -4 -20   11.83   22.40
  -4  -5 -19  127.39   26.96
  -5  -4 -19  109.32   26.19
  -4  -5 -18  -14.95   26.06
  -5  -4 -18   16.39   24.83
  -5  -4 -17   42.35   28.36
  -4  -5 -17   31.53   29.25
  -5  -4 -16   32.26   29.80
  -4  -5 -16   31.26   29.98
  -4  -5 -15   18.96   32.42
  -5  -4 -15   30.87   32.36
  -5  -4 -14  -15.79   33.96
  -4  -5 -14   32.54   36.82
   5   4 -14  -21.56   24.06
   5   4 -13  544.28   39.61
  -4  -5 -13  596.13   53.33
  -5  -4 -13  602.17   51.23
   4   5 -12  -24.62   22.19
  -5  -4 -12  -26.30   34.68
   5   4 -12  -14.66   20.05
  -4  -5 -12  -47.56   40.02
   4   5 -11 1880.70   61.65
  -5  -4 -11 1980.13   76.30
   5   4 -11 2060.69   60.94
  -5  -4 -10   20.71   33.80
   4   5 -10   19.51   17.29
   5   4 -10   44.61   17.31
   5   4  -8    1.83   11.16
   5   4  -7   39.58   14.50
   4   5  -6   17.70   10.81
   5   4  -6   18.31   11.45
   5   4  -5  286.67   24.98
   5   4  -4   37.63   13.79
   4  -5   4   36.32    9.74
   5  -4   4   37.96   10.70
   4  -5   3  573.08   26.57
   5  -4   3  606.33   31.01
   5   4  -3  616.91   34.40
   4  -5   2  811.74   35.60
   5   4  -2  776.15   39.32
   5  -4   2  864.82   36.39
   5  -4   1 3586.55   74.50
   4  -5   1 3459.11   75.81
   5   4  -1 3572.00   79.99
   5  -4   0  230.78   25.53
   4  -5   0  200.80   24.67
   5  -4  -1 3507.31   82.68
   5  -4  -2  799.08   44.43
   5  -4  -3  592.96   40.38
   5  -4  -4   34.73   17.38
   5  -4  -5  295.04   32.04
   5  -4  -6   11.32   16.82
   5  -4  -7   33.37   18.20
   4  -5  -8   -5.76   19.98
   5  -4  -8   -1.58   17.73
   5  -4  -9  683.52   51.64
   4  -5  -9  729.26   55.52
   4  -5 -10   49.35   23.21
  -4   5 -10   41.80   16.43
   5  -4 -10   23.19   20.81
  -5   4 -10   24.41   15.80
   5  -4 -10   19.13   27.99
   4  -5 -10   18.06   34.51
   5  -4 -11 1908.05   90.92
  -4   5 -11 2063.05   58.29
  -5   4 -11 2061.50   55.94
   4  -5 -11 1885.82   92.63
   5  -4 -11 2113.45   75.47
   4  -5 -11 2002.06   77.92
  -4   5 -12  -10.52   18.81
  -5   4 -12   -3.24   19.50
   4  -5 -12  -43.24   34.48
   5  -4 -12  -20.27   31.18
   4  -5 -12  -10.19   26.08
   5  -4 -12  -11.35   25.29
   5  -4 -13  582.19   47.79
  -4   5 -13  573.18   36.47
  -5   4 -13  556.69   35.09
   4  -5 -13  558.43   49.18
   5  -4 -14    8.25   28.59
   4  -5 -14  -29.74   31.80
  -5   4 -14   -2.79   19.91
  -4   5 -14    0.11   20.22
   5  -4 -15   62.87   30.02
  -5   4 -15   51.55   22.68
   4  -5 -15   31.88   30.29
   4  -5 -16   56.09   30.25
   5  -4 -16   25.85   26.98
   4  -5 -17   20.24   25.39
   5  -4 -17   33.98   25.46
   4  -5 -18    5.70   22.36
   5  -4 -18   23.34   22.90
   4  -5 -19  123.92   26.24
   5  -4 -19  140.24   24.88
   5  -4 -20   24.42   22.27
   4  -5 -20   18.95   19.21
  -5  -5 -21  -41.95   16.82
  -5  -5 -20  373.82   32.11
  -5  -5 -19   15.45   22.82
  -5  -5 -18   79.27   27.07
  -5  -5 -17  -13.44   26.92
  -5  -5 -16   58.42   31.38
  -5  -5 -15    5.62   32.61
  -5  -5 -14  250.03   43.93
  -5  -5 -13  -25.21   37.53
  -5  -5 -12 2551.27   91.35
  -5  -5 -11  -52.30   41.80
   5   5  -8   72.43   14.66
   5   5  -7   -1.08   11.74
   5   5  -6   27.68   12.91
   5   5  -5   -3.00   11.73
   5  -5   4  690.92   31.36
   5   5  -4  684.87   37.79
   5  -5   3   -7.60   11.97
   5  -5   2 4995.26   88.15
   5  -5   1   -5.05   15.42
   5  -5   0 4879.81   99.86
   5  -5  -1   -0.10   16.36
   5  -5  -2 4937.99  109.97
   5  -5  -3  -12.30   18.78
   5  -5  -4  651.71   45.82
   5  -5  -5   -4.49   18.38
   5  -5  -6   28.86   20.03
   5  -5  -7   12.01   19.58
   5  -5  -8   99.93   26.75
   5  -5  -9   -8.65   20.01
   5  -5 -10 2825.51  112.15
   5  -5 -10 2668.89   86.76
  -5   5 -10 2555.83   60.86
   5  -5 -11   -3.75   32.30
   5  -5 -11  -23.08   28.00
  -5   5 -11  -33.33   19.00
   5  -5 -12 2609.37   87.01
  -5   5 -12 2663.23   67.13
   5  -5 -12 2400.12  110.43
  -5   5 -13    5.23   20.01
   5  -5 -13   -0.31   31.73
   5  -5 -14  270.36   39.18
  -5   5 -14  253.64   28.99
   5  -5 -15   14.14   28.06
   5  -5 -16   51.58   27.71
   5  -5 -17    9.30   24.20
   5  -5 -18   84.32   25.10
   5  -5 -19  -32.26   20.00
   5  -5 -20  357.56   30.93
   6   0   0 3863.30   82.53
   6   0  -1 2859.06   72.50
   6   0   1 3026.97   72.53
   6   0  -2  393.35   29.56
   6   0   2  404.47   29.12
   6   0   3  111.47   18.58
   6   0  -3  113.85   18.49
   6   0  -4  305.95   26.65
   6   0  -5 9999.00  142.40
   6   0  -6  550.07   36.26
   6   0  -7 5488.82  113.73
   6   0  -8  445.36   36.07
   6   0  -9   18.41   14.71
   0   6 -10   68.69   18.93
   6   0 -10   53.70   18.38
  -6   0 -10   77.43   24.96
   6   0 -10   91.71   27.93
  -6   0 -11  320.86   31.61
   6   0 -11  350.69   32.00
   0   6 -11  365.89   29.62
   0  -6 -12   66.74   38.32
   0   6 -12   80.66   24.51
   6   0 -12  111.75   30.06
   0   6 -12   90.97   22.45
  -6   0 -12  108.94   30.81
   6   0 -13  104.51   26.31
  -6   0 -13  123.66   29.09
   0  -6 -13   71.63   38.77
   6   0 -14   74.23   28.20
  -6   0 -14   77.71   29.61
   0  -6 -14   11.90   34.32
   0  -6 -15  753.02   55.34
  -6   0 -15  907.67   50.69
   6   0 -15  915.35   51.22
   6   0 -16  761.12   52.79
  -6   0 -16  516.65   49.72
   6   0 -17  969.01   51.99
   0  -6 -17  903.53   54.70
  -6   0 -17 1017.60   52.36
  -6   0 -18  310.90   32.64
   0  -6 -18   -8.31   24.77
   0  -6 -19   56.02   24.28
  -6   0 -19   53.85   21.50
   0  -6 -20    4.43   18.91
   0  -6 -21    1.27   16.15
  -1  -6 -21   -2.10   15.95
  -1  -6 -20   -8.90   19.12
  -1  -6 -19    1.88   22.01
  -6  -1 -19   28.58   20.94
  -6  -1 -18  306.62   32.63
  -1  -6 -18  246.91   33.74
  -6  -1 -17  699.16   47.38
   6   1 -17  761.95   48.85
   6   1 -16  879.20   50.93
  -6  -1 -16  935.00   53.30
  -1  -6 -16  958.36   57.12
   6   1 -15  555.42   44.62
  -6  -1 -15  409.50   42.92
  -6  -1 -14  210.57   32.94
   6   1 -14  192.61   28.93
  -1  -6 -14  223.06   41.50
   6   1 -13   33.91   23.58
  -1  -6 -13   31.65   38.06
  -6  -1 -13   39.09   28.46
  -1  -6 -12  155.10   41.50
   6   1 -12  194.58   28.30
   1   6 -12  224.52   27.92
  -6  -1 -12  218.56   33.57
   1   6 -11    9.07   18.29
   6   1 -11   82.35   26.38
   1   6 -11   23.10   18.29
  -6  -1 -11   42.53   28.71
   6   1 -10  410.41   37.05
   6   1 -10  378.83   29.73
   1   6 -10  434.60   30.39
  -6  -1 -10  394.34   33.62
   6   1  -9    8.53   15.31
   6   1  -8 1182.48   55.23
   6   1  -7  970.08   47.82
   6   1  -6 4093.33   92.55
   6   1  -5  239.18   25.51
   6   1  -4 5190.27  101.98
   6   1  -3   81.94   18.59
   6  -1   3   86.57   16.96
   6   1  -2   48.82   17.70
   6  -1   2   36.76   15.99
   6  -1   1  308.81   27.60
   6   1  -1  325.92   27.66
   6   1   0 8741.81  125.02
   6  -1   0 8524.12  122.46
   6  -1  -1  303.68   26.72
   6   1   1  330.69   26.98
   6   1   2   45.52   16.15
   6  -1  -2   37.79   15.93
   6  -1  -3   86.29   18.86
   6  -1  -4 5137.37  101.87
   6  -1  -5  257.43   26.80
   6  -1  -6 4138.63   97.57
   6  -1  -7  980.70   50.28
   6  -1  -8 1224.37   58.42
   6  -1  -9   22.20   16.82
  -1   6 -10  499.40   31.67
  -6   1 -10  378.15   28.44
   6  -1 -10  417.21   32.81
   6  -1 -10  443.39   39.96
   6  -1 -11   12.21   17.27
   6  -1 -11   52.06   30.35
  -1   6 -11   31.51   18.75
   1  -6 -11   25.97   37.04
  -6   1 -11   49.17   23.87
  -1   6 -12  221.67   27.69
   1  -6 -12  164.80   41.07
  -6   1 -12  226.07   30.01
   6  -1 -12  212.03   32.29
  -6   1 -13    4.68   24.14
   6  -1 -13   12.06   25.60
   1  -6 -13   -0.43   35.18
   6  -1 -14  183.10   30.50
  -6   1 -14  208.35   29.57
   6  -1 -15  549.81   44.84
  -6   1 -15  406.98   40.33
  -6   1 -16  885.13   49.07
   6  -1 -16  894.01   52.47
   6  -1 -17  913.62   49.06
  -6   1 -17  737.13   46.24
   6  -1 -18  279.40   31.29
   1  -6 -18  237.67   33.60
  -6   1 -18  263.39   31.30
   1  -6 -19   34.12   22.92
   1  -6 -20   19.65   19.18
   1  -6 -21    3.42   16.04
  -2  -6 -21   28.31   17.92
  -2  -6 -20   36.84   20.22
  -6  -2 -20   69.48   22.67
  -6  -2 -19   15.52   21.34
  -2  -6 -19   15.19   22.99
  -6  -2 -18   79.29   27.48
  -2  -6 -18    2.23   25.09
  -2  -6 -17  416.90   42.04
  -6  -2 -17  479.29   39.74
   6   2 -16  344.77   38.82
  -6  -2 -16  265.69   40.50
   6   2 -15  373.35   37.02
  -6  -2 -15  392.75   40.89
  -2  -6 -15  379.39   45.11
  -2  -6 -14   53.60   37.17
   6   2 -14   85.21   26.45
  -6  -2 -14   68.87   30.67
  -6  -2 -13   50.10   31.84
   6   2 -13   48.99   23.14
  -2  -6 -13   50.49   39.09
   6   2 -12  149.00   26.53
  -2  -6 -12  116.26   41.01
  -6  -2 -12  159.23   34.73
  -6  -2 -11  308.96   38.72
   6   2 -11  290.94   28.92
  -6  -2 -10  185.14   31.73
   2   6 -10  189.45   23.80
   6   2 -10  216.52   24.36
   6   2  -9   93.32   20.16
   6   2  -8  431.93   34.56
   6   2  -7 1651.73   62.33
   6   2  -6  240.94   25.68
   6   2  -5 1143.94   50.02
   6  -2   4  262.58   23.47
   6   2  -4  267.93   26.46
   6   2  -3  791.91   40.86
   6  -2   3  760.19   37.82
   6   2  -2  174.30   22.52
   6  -2   2  174.17   21.81
   6   2  -1  284.89   26.03
   6  -2   1  284.15   26.11
   6  -2   0 1385.43   49.48
   6   2   0 1492.71   53.61
   6  -2  -1  278.60   26.21
   6   2   1  286.24   27.02
   6  -2  -2  159.44   21.95
   6  -2  -3  731.77   40.77
   6  -2  -4  270.27   28.32
   6  -2  -5 1086.54   51.91
   6  -2  -6  237.26   28.10
   6  -2  -7 1642.80   67.78
   6  -2  -8  440.14   37.94
   6  -2  -9  102.51   23.44
  -6   2 -10  188.56   23.54
   6  -2 -10  213.01   31.12
   6  -2 -10  188.98   29.30
  -2   6 -10  205.02   22.69
   6  -2 -11  323.91   37.54
  -6   2 -11  302.69   28.04
   6  -2 -11  274.16   36.31
   2  -6 -11  308.38   45.16
  -2   6 -11  301.07   28.53
  -6   2 -12  146.18   26.50
   2  -6 -12   81.62   26.87
  -2   6 -12  103.31   22.55
   2  -6 -12   97.22   38.83
   2  -6 -13    6.77   34.97
   6  -2 -13    1.06   25.75
  -6   2 -13   50.19   23.10
   2  -6 -14    3.00   33.48
  -6   2 -14   63.61   24.01
   6  -2 -14   86.90   29.31
  -6   2 -15  348.09   32.98
   6  -2 -15  339.86   36.93
   6  -2 -16  498.39   42.23
  -6   2 -16  355.95   37.89
   6  -2 -17  453.30   38.48
   2  -6 -17  419.78   42.57
  -6   2 -17  468.10   36.76
   6  -2 -18  196.10   27.13
   2  -6 -18   19.19   27.19
   2  -6 -19   20.47   22.01
   6  -2 -19   37.10   22.17
   2  -6 -20   53.88   20.85
   2  -6 -21   26.42   17.68
  -3  -6 -21  156.31   22.72
  -6  -3 -20   90.59   25.62
  -3  -6 -20   31.23   20.83
  -6  -3 -19   62.20   22.73
  -3  -6 -19   74.96   25.64
  -6  -3 -18   93.11   29.50
  -3  -6 -18   38.30   26.07
  -3  -6 -17   25.79   28.15
  -6  -3 -17   54.03   28.30
  -6  -3 -16  257.81   37.46
  -3  -6 -16  239.53   39.18
  -3  -6 -15   -3.15   33.76
  -6  -3 -15  129.97   33.31
  -6  -3 -14   63.60   32.59
   6   3 -14   26.00   23.07
  -3  -6 -14   20.68   36.03
  -6  -3 -13  162.44   36.46
  -3  -6 -13  132.72   41.85
   6   3 -13  164.31   26.06
  -6  -3 -12  145.39   39.95
  -3  -6 -12  132.94   43.46
   6   3 -12  135.66   25.94
  -6  -3 -11  886.97   53.23
   6   3 -11  922.19   41.12
   6   3 -10  399.68   28.30
  -6  -3 -10  367.34   40.68
   6   3  -9  746.37   43.16
   6   3  -8   41.87   16.36
   6   3  -7   59.70   16.97
   6   3  -6  401.90   31.56
   6   3  -5   63.06   16.72
   3  -6   4   15.32    7.80
   6   3  -4   22.69   13.35
   6  -3   4   29.04   12.09
   3  -6   3  533.24   27.99
   6   3  -3  594.44   36.02
   6  -3   3  631.13   34.48
   6  -3   2   24.14   14.20
   6   3  -2   31.56   14.84
   6  -3   1 1140.07   44.79
   6   3  -1 1187.74   49.08
   6  -3   0 1414.28   51.58
   6   3   0 1398.26   54.09
   6  -3  -1 1095.79   48.57
   6  -3  -2   40.75   18.15
   6  -3  -3  577.79   38.57
   6  -3  -4   25.38   15.82
   6  -3  -5   72.03   20.35
   6  -3  -6  381.26   35.28
   6  -3  -7   65.81   21.77
   6  -3  -8   33.50   17.81
   6  -3  -9  820.10   55.51
   6  -3 -10  434.88   43.26
   3  -6 -10  449.39   49.01
   6  -3 -10  388.91   35.57
  -3   6 -10  437.50   28.95
  -6   3 -10  388.31   26.50
   3  -6 -11  850.43   58.65
   3  -6 -11  834.62   66.74
  -3   6 -11  920.70   40.85
   6  -3 -11  858.98   60.82
  -6   3 -11  855.76   38.38
   6  -3 -11  879.07   49.58
  -3   6 -12  127.05   23.50
  -6   3 -12  165.46   25.39
   3  -6 -12   82.89   29.21
   3  -6 -12   99.12   38.38
   6  -3 -12   90.71   24.76
   6  -3 -13  143.30   31.48
  -6   3 -13  173.87   25.88
   3  -6 -13  129.73   38.32
   3  -6 -14    5.07   33.87
   6  -3 -14   67.50   29.68
  -6   3 -14   25.00   20.98
  -6   3 -15   93.78   24.45
   6  -3 -15  108.65   29.64
   6  -3 -16  251.45   33.52
  -6   3 -16  234.09   29.04
   3  -6 -16  206.76   37.86
   6  -3 -17  196.67   28.82
   3  -6 -17   12.96   27.25
   6  -3 -18   47.37   22.92
   3  -6 -18   38.82   25.47
   6  -3 -19   78.04   22.03
   3  -6 -19   59.41   23.22
   3  -6 -20   25.27   19.94
   3  -6 -21  135.88   21.99
  -4  -6 -21   20.38   17.33
  -6  -4 -20  279.13   28.84
  -4  -6 -20  272.69   29.21
  -4  -6 -19   -1.28   22.48
  -6  -4 -19    3.47   21.60
  -4  -6 -18   35.05   26.08
  -6  -4 -18   74.25   28.70
  -6  -4 -17   28.94   26.51
  -4  -6 -17   24.92   28.56
  -6  -4 -16  110.02   33.54
  -4  -6 -16   85.00   34.11
  -6  -4 -15  -33.55   31.30
  -4  -6 -15    1.07   33.73
  -6  -4 -14  121.06   37.52
  -4  -6 -14  143.45   41.51
  -6  -4 -13  -15.31   34.48
  -4  -6 -13    6.85   39.54
  -6  -4 -12 1572.24   71.20
   6   4 -12 1630.58   57.36
  -4  -6 -12 1513.42   76.39
   6   4 -11  151.13   23.39
  -6  -4 -11  168.99   42.95
  -6  -4 -10 2138.10   77.73
   6   4 -10 2280.24   61.06
   6   4  -8  110.73   18.84
   6   4  -7   30.13   13.84
   6   4  -6   44.39   14.81
   6   4  -5   19.37   12.33
   6  -4   4  398.91   27.08
   4  -6   4  345.52   19.79
   6   4  -4  384.68   29.93
   6  -4   3    8.07   12.26
   6   4  -3   -0.55   12.64
   4  -6   3    8.85   11.50
   6  -4   2 1464.22   50.44
   4  -6   2 1365.75   49.07
   6   4  -2 1495.56   56.52
   6   4  -1   62.32   17.09
   4  -6   1   57.86   16.87
   6  -4   1   69.45   17.28
   6  -4   0 3450.29   83.16
   6  -4  -1   71.19   19.50
   6  -4  -2 1471.29   59.99
   6  -4  -3    9.69   16.84
   6  -4  -4  386.12   34.75
   6  -4  -5   21.56   17.77
   6  -4  -6   41.95   18.86
   6  -4  -7   23.63   20.17
   6  -4  -8   92.17   25.09
   4  -6  -9  229.53   36.87
   6  -4  -9  208.03   32.65
  -6   4 -10 1923.81   52.79
   6  -4 -10 2065.63   70.39
   4  -6 -10 2368.82  106.50
  -4   6 -10 2313.10   59.76
   4  -6 -10 2143.69   83.90
   6  -4 -10 2318.94   99.89
   4  -6 -11  142.32   33.66
   6  -4 -11  196.30   35.94
  -4   6 -11  171.21   22.21
   6  -4 -11  172.14   31.94
   4  -6 -11  126.02   37.30
  -6   4 -11  194.03   23.73
   4  -6 -12 1372.62   86.63
   4  -6 -12 1482.31   73.12
  -6   4 -12 1566.91   52.06
   6  -4 -12 1395.89   82.41
   6  -4 -12 1590.53   66.83
   6  -4 -13   11.43   29.56
  -6   4 -13   27.51   20.52
   4  -6 -13  -13.29   34.65
   6  -4 -14  111.44   32.47
  -6   4 -14  105.07   23.17
   4  -6 -14  140.19   37.53
   6  -4 -15    7.62   26.44
   4  -6 -15   31.82   32.63
  -6   4 -15   13.66   20.65
   6  -4 -16   88.58   27.57
  -4   6 -16   57.88   26.01
   4  -6 -16  101.46   32.51
   4  -6 -17   37.78   27.90
   6  -4 -17   17.53   22.38
   4  -6 -18   51.27   25.70
   6  -4 -18   43.28   22.89
   6  -4 -19   23.47   20.92
   4  -6 -19   24.13   21.68
   4  -6 -20  265.93   28.36
   4  -6 -21   34.72   17.56
  -5  -6 -21  282.90   25.65
  -6  -5 -21  251.33   24.23
  -5  -6 -20    4.99   19.34
  -6  -5 -20  -11.87   19.52
  -5  -6 -19  135.16   28.08
  -6  -5 -19  122.21   25.65
  -6  -5 -18   -2.23   24.59
  -5  -6 -18   11.63   26.39
  -6  -5 -17   24.33   28.37
  -5  -6 -17   49.04   30.48
  -6  -5 -16    9.17   29.50
  -5  -6 -16  -38.83   32.81
  -5  -6 -15   59.09   37.28
  -6  -5 -15  104.61   39.42
  -6  -5 -14   20.92   35.93
  -5  -6 -14   28.34   39.35
  -5  -6 -13  530.60   55.67
  -6  -5 -13  496.79   51.75
  -5  -6 -12  -45.66   44.92
  -6  -5 -12   -1.69   42.26
  -6  -5 -11 2943.66   98.14
   6   5  -8    7.52   11.80
   6   5  -7  618.99   37.94
   6   5  -6  109.07   19.35
   6   5  -5  115.11   19.24
   6  -5   5   89.11   12.09
   6  -5   4   13.02   12.12
   5  -6   4   -0.18   11.39
   6   5  -4   11.88   13.28
   6   5  -3  426.15   32.84
   6  -5   3  440.00   30.54
   5  -6   3  413.60   27.09
   5  -6   2  114.36   18.42
   6  -5   2  116.56   18.46
   5  -6   1 2504.29   72.81
   6  -5   1 2609.82   72.44
   5  -6   0   15.43   16.61
   6  -5   0   13.69   16.30
   5  -6  -1 2489.98   80.28
   6  -5  -1 2586.40   80.28
   5  -6  -2  116.43   24.00
   6  -5  -2  120.85   22.86
   6  -5  -3  423.88   37.57
   6  -5  -4    1.51   17.30
   5  -6  -5  114.97   25.64
   6  -5  -5  105.02   24.76
   5  -6  -6  110.94   26.75
   6  -5  -6  101.31   25.17
   5  -6  -7  657.09   53.26
   6  -5  -7  639.05   50.78
   5  -6  -8   12.95   20.48
   6  -5  -8   14.30   20.43
   5  -6  -9 1059.66   71.93
   6  -5  -9 1062.29   68.43
  -6   5 -10   18.28   15.96
   5  -6 -10    9.22   36.54
   5  -6 -10   44.19   25.03
   6  -5 -10  -15.37   32.96
   6  -5 -10   56.23   23.37
   5  -6 -11 2864.68   94.83
  -6   5 -11 2784.48   66.27
   6  -5 -11 2815.75  119.36
   5  -6 -11 2873.74  122.90
   6  -5 -11 2967.95   89.39
   5  -6 -12   13.09   25.25
  -6   5 -12  -10.68   19.24
   5  -6 -12  -27.56   37.90
   6  -5 -12   42.17   35.74
   6  -5 -12  -11.76   29.01
   6  -5 -13  491.90   45.91
  -6   5 -13  484.79   34.54
   5  -6 -13  455.98   48.95
   6  -5 -14    5.69   28.94
   5  -6 -14   24.48   31.80
   6  -5 -15   84.73   30.61
   5  -6 -15   82.28   32.39
   6  -5 -16    2.41   25.25
   5  -6 -16   -6.98   27.16
   5  -6 -17   13.41   25.28
   6  -5 -17   -8.60   22.21
  -5   6 -17    1.97   20.87
   6  -5 -18   -2.83   21.06
   5  -6 -18  -19.21   23.30
   6  -5 -19  105.98   23.14
   5  -6 -19   99.92   23.92
   6  -5 -20   24.51   19.94
   5  -6 -20   31.97   20.06
  -6  -6 -20  234.97   27.44
  -6  -6 -19  -21.96   22.75
  -6  -6 -18   -7.36   25.46
  -6  -6 -17   -4.23   28.25
  -6  -6 -16   67.56   32.48
  -6  -6 -15   -6.25   33.84
  -6  -6 -14   42.04   40.41
  -6  -6 -13  -15.78   41.44
  -6  -6 -12 1684.04   83.75
   6  -6   4  118.50   18.54
   6  -6   3   -6.56   13.12
   6  -6   2 2613.77   72.97
   6  -6   1   -9.87   16.79
   6  -6   0 7171.60  135.25
   6  -6  -1   -1.17   17.67
   6  -6  -2 2536.35   87.84
   6  -6  -3   -2.85   18.83
   6  -6  -4  136.43   27.67
   6  -6  -5    3.61   18.88
   6  -6  -6 2221.31   94.35
   6  -6  -7   -2.00   20.76
   6  -6  -8   46.95   24.65
   6  -6  -9   -2.81   21.94
   6  -6  -9  -51.25   36.09
   6  -6 -10 2519.58   86.01
   6  -6 -10 2877.24  121.77
   6  -6 -11  -17.30   28.25
   6  -6 -11  -94.62   38.99
   6  -6 -12 1550.38   96.13
   6  -6 -12 1712.68   75.73
   6  -6 -13   -8.67   31.88
   6  -6 -14   36.53   31.50
   6  -6 -15    2.70   28.23
   6  -6 -16   83.08   29.49
   6  -6 -17   -7.06   24.11
  -6   6 -17   14.89   21.11
   6  -6 -18   10.47   22.36
   6  -6 -19   -4.40   19.86
   6  -6 -20  245.07   27.27
   7   0   0 2172.50   68.24
   7   0  -1   64.99   18.27
   7   0   1   67.73   18.06
   7   0  -2  560.66   37.17
   7   0   2  577.46   36.86
   7   0  -3    5.70   14.00
   7   0   3    7.09   13.77
   7   0  -4 1393.84   56.35
   7   0  -5  503.21   36.34
   7   0  -6 5092.74  110.49
   7   0  -7   53.66   17.94
   7   0  -8  736.35   46.73
   7   0  -9   76.81   20.39
   7   0 -10  856.84   39.67
  -7   0 -10  883.90   40.23
  -7   0 -11  242.51   34.64
   7   0 -11  289.46   37.03
   0  -7 -12  223.95   48.26
  -7   0 -12  257.72   31.23
   0   7 -12  199.32   32.10
   7   0 -12  240.94   28.52
   0   7 -13   89.21   27.10
  -7   0 -13   99.59   28.28
   7   0 -13   89.32   25.08
   0  -7 -13   51.90   40.45
   7   0 -14  160.53   27.68
  -7   0 -14  193.34   30.20
   0  -7 -14   98.17   41.05
   7   0 -15  420.48   38.07
  -7   0 -15  260.47   37.38
  -7   0 -16  872.93   48.86
   0  -7 -16  768.19   54.13
   7   0 -16  861.01   48.46
   7   0 -17  640.65   43.64
  -7   0 -17  460.99   39.65
  -7   0 -18  216.08   29.19
   0  -7 -18  140.38   30.25
   0  -7 -19   24.91   24.48
   0  -7 -20   16.42   19.57
   0  -7 -21   30.26   18.65
  -1  -7 -21   33.85   17.45
  -1  -7 -20   -2.94   19.16
  -1  -7 -19    2.68   22.42
  -7  -1 -19   14.18   20.64
  -1  -7 -18   33.02   26.88
  -7  -1 -18  107.96   27.08
  -7  -1 -17  524.00   39.27
  -1  -7 -17  426.41   42.69
  -7  -1 -16  459.50   44.53
   7   1 -16  477.53   45.48
  -1  -7 -15  528.44   52.37
   7   1 -15  437.76   37.27
  -7  -1 -15  469.77   40.45
   7   1 -14   90.75   25.52
  -1  -7 -14   28.69   37.66
  -7  -1 -14   70.22   29.50
  -7  -1 -13   49.80   28.92
   7   1 -13   77.71   23.95
  -1  -7 -13   18.98   40.26
  -1  -7 -12   56.49   42.62
   7   1 -12   90.10   25.84
   1   7 -12    6.17   20.81
  -7  -1 -12   45.99   29.88
  -7  -1 -11  637.07   41.19
   7   1 -11  601.28   36.13
   1   7 -11  625.04   44.12
  -7  -1 -10   90.47   29.24
   1   7 -10   40.42   21.27
   7   1 -10   63.64   21.04
   7   1  -9  114.37   23.48
   7   1  -8    9.63   15.55
   7   1  -7 3720.49  100.24
   7   1  -6  145.05   22.89
   7   1  -5 2221.39   73.71
   7   1  -4  341.32   30.97
   7   1  -3  306.50   29.13
   7  -1   3  321.17   28.98
   7   1  -2   33.22   17.45
   7  -1   2   32.63   16.93
   7   1  -1 1262.61   53.26
   7  -1   1 1280.17   52.33
   7  -1   0   74.07   18.80
   7   1   0   87.37   20.19
   7   1   1 1227.10   52.07
   7  -1  -1 1177.83   51.07
   7  -1  -2   33.54   15.75
   7   1   2   36.34   17.06
   7  -1  -3  308.80   28.80
   7  -1  -4  346.70   31.20
   7  -1  -5 2118.90   72.35
   7  -1  -6  148.51   24.71
   7  -1  -7 3805.03  103.06
   7  -1  -8   10.22   15.56
   7  -1  -9  133.56   24.39
  -7   1 -10  120.68   26.70
   7  -1 -10   66.20   22.10
   7  -1 -10  106.72   32.86
   7  -1 -11  600.36   39.61
   7  -1 -11  585.76   49.58
  -7   1 -11  624.08   36.59
   1  -7 -12   -0.09   38.96
  -7   1 -12   60.26   26.46
   7  -1 -12   35.22   28.97
  -1   7 -13   19.91   22.35
   7  -1 -13   32.16   24.14
   1  -7 -13   33.50   39.96
  -7   1 -13   43.73   24.76
   7  -1 -14   99.53   25.25
  -7   1 -14   53.99   25.01
   1  -7 -15  415.16   46.56
   7  -1 -15  445.00   38.15
  -7   1 -15  376.79   36.19
  -7   1 -16  577.82   44.06
   7  -1 -16  712.48   44.89
  -7   1 -17  521.52   37.87
   7  -1 -17  480.90   38.79
   1  -7 -17  465.47   44.62
  -7   1 -18  182.56   27.95
   1  -7 -18   37.28   26.86
   1  -7 -19   -8.38   22.33
   1  -7 -20    5.17   18.79
   1  -7 -21   36.92   17.90
  -2  -7 -21   15.30   17.80
  -2  -7 -20   69.91   23.11
  -7  -2 -19    7.52   20.71
  -2  -7 -19   13.94   23.18
  -7  -2 -18   63.57   25.48
  -2  -7 -18   60.28   29.29
  -2  -7 -17   21.29   29.44
  -7  -2 -17  145.26   33.60
  -2  -7 -16  453.25   47.01
  -7  -2 -16  500.48   43.62
   7   2 -15  214.84   31.43
  -7  -2 -15  167.42   34.50
  -2  -7 -14   36.91   38.77
  -7  -2 -14   50.40   29.70
   7   2 -14   23.25   21.90
  -2  -7 -13   32.04   40.74
  -7  -2 -13    9.32   29.78
   7   2 -13   33.24   21.37
   7   2 -12  270.78   29.08
  -7  -2 -12  301.82   39.01
   7   2 -11  145.27   25.29
  -7  -2 -11   82.24   32.61
   2   7 -10  622.23   47.37
  -7  -2 -10  643.99   42.25
   7   2 -10  594.50   33.78
   7   2  -9    7.45   15.12
   7   2  -8   16.45   14.51
   7   2  -7  192.97   27.23
   7   2  -6  991.66   50.88
   7   2  -5   29.64   15.64
   7  -2   4 1550.30   58.31
   7   2  -4 1645.27   62.41
   7  -2   3   44.41   15.59
   7   2  -3   45.44   16.16
   7   2  -2  179.92   24.18
   7  -2   2  157.51   22.84
   7  -2   1  171.22   24.29
   7   2  -1  177.85   23.58
   7   2   0 8309.43  132.76
   7  -2   0 8075.42  127.79
   7   2   1  199.79   25.30
   7  -2  -1  177.05   23.43
   7  -2  -2  152.75   24.40
   7   2   2  161.23   24.00
   7  -2  -3   46.28   17.74
   7  -2  -4 1490.76   61.68
   7  -2  -5   36.29   17.49
   7  -2  -6  940.59   52.04
   7  -2  -7  208.61   29.79
   7  -2  -8   40.79   18.89
   7  -2  -9    2.97   16.65
   7  -2 -10  678.27   39.79
   7  -2 -10  742.62   54.65
   7  -2 -11   66.27   32.14
  -7   2 -11   54.65   23.48
   7  -2 -11   36.46   19.88
  -7   2 -12  276.61   28.33
   2  -7 -12  256.12   47.42
   2  -7 -12  179.03   39.80
   7  -2 -12  271.05   34.12
   2  -7 -13    9.93   38.24
   7  -2 -13  -20.83   23.24
  -7   2 -13  -29.95   22.03
   2  -7 -14   27.37   37.24
   7  -2 -14   12.15   23.24
  -2   7 -14   25.29   22.73
  -7   2 -14   48.97   21.96
   2  -7 -15   37.74   33.54
  -2   7 -15   57.06   25.44
  -7   2 -16  466.85   36.69
   2  -7 -16  437.80   45.30
   7  -2 -16  460.40   39.64
   7  -2 -17  352.50   33.65
  -7   2 -17  311.50   32.42
   2  -7 -18   36.98   26.75
   7  -2 -18   92.59   24.11
   2  -7 -19  -18.75   22.85
   2  -7 -20   68.41   21.39
   2  -7 -21   -3.82   17.12
  -3  -7 -21   93.66   20.13
  -7  -3 -20  113.56   24.42
  -3  -7 -20   77.87   22.84
  -7  -3 -19   43.37   22.02
  -3  -7 -19  186.07   30.58
  -7  -3 -18   27.88   22.99
  -3  -7 -18  -21.82   26.86
  -7  -3 -17   71.85   28.07
  -3  -7 -17   78.02   31.95
  -7  -3 -16  195.75   36.84
  -3  -7 -16  171.59   36.32
  -7  -3 -15   16.41   29.38
  -3  -7 -15   31.49   34.94
  -7  -3 -14   32.32   32.63
  -3  -7 -14   -5.15   38.42
   7   3 -13   32.82   22.25
  -7  -3 -13   47.39   33.20
  -3  -7 -13   81.75   43.03
   7   3 -12  223.31   28.32
  -7  -3 -12  283.45   41.68
  -3  -7 -12  190.98   49.11
   7   3 -11  381.77   31.79
  -7  -3 -11  411.88   42.94
  -7  -3 -10  894.10   54.87
   7   3 -10  738.86   36.47
   7   3  -9  691.83   44.85
   7   3  -8   97.55   20.52
   7   3  -7   80.34   19.31
   7   3  -6   33.48   16.59
   7   3  -5  525.10   37.00
   7  -3   4  168.26   21.75
   7   3  -4  173.11   23.96
   3  -7   4  140.18   14.81
   7  -3   3   86.69   18.97
   7   3  -3  110.21   20.94
   3  -7   3   78.82   16.84
   7  -3   2   22.39   15.69
   7   3  -2   18.17   14.39
   7  -3   1  781.56   42.03
   7   3  -1  771.42   44.06
   7   3   0  431.74   34.98
   7  -3   0  423.27   32.87
   7   3   1  772.01   45.32
   7  -3  -1  790.04   43.94
   7  -3  -2   12.67   14.92
   7  -3  -3   82.93   20.37
   7  -3  -4  168.48   25.92
   7  -3  -5  497.96   39.48
   7  -3  -6   33.32   19.34
   7  -3  -7   88.36   23.23
   7  -3  -8   95.69   23.26
   7  -3  -9  735.46   53.77
   7  -3 -10  689.99   41.49
   7  -3 -10  774.70   56.46
   7  -3 -11  423.39   39.47
   3  -7 -11  331.25   48.66
   3  -7 -11  372.23   51.85
   7  -3 -11  363.25   42.37
  -7   3 -11  416.96   29.34
   7  -3 -12  252.87   35.65
  -7   3 -12  216.03   26.07
   7  -3 -12  173.24   32.92
   3  -7 -12  182.85   44.34
   3  -7 -12  203.93   43.21
   7  -3 -13   30.78   25.68
   3  -7 -13   35.21   38.04
  -7   3 -13   49.26   21.65
   7  -3 -14    7.24   24.46
  -7   3 -14   23.60   20.94
   3  -7 -14   25.22   35.84
  -7   3 -15   20.96   20.61
  -3   7 -15   39.38   25.95
   3  -7 -15    9.81   31.87
   7  -3 -15   32.53   25.69
   3  -7 -16  125.22   35.51
  -7   3 -16  264.59   30.54
   7  -3 -16  288.43   33.32
  -3   7 -16  132.22   29.52
   7  -3 -17   95.68   26.70
   3  -7 -17   75.67   30.73
   7  -3 -18   21.51   21.52
   3  -7 -18   -8.94   24.57
   3  -7 -19   67.23   24.30
   3  -7 -20   64.66   20.93
   3  -7 -21  101.75   20.95
  -4  -7 -21  155.82   21.19
  -7  -4 -20  124.59   24.06
  -4  -7 -20   94.62   23.00
  -7  -4 -19   57.75   23.85
  -4  -7 -19   43.95   25.02
  -4  -7 -18   42.41   27.92
  -7  -4 -18    3.86   23.41
  -7  -4 -17   46.96   27.38
  -4  -7 -17   15.22   29.21
  -4  -7 -16  -15.79   32.72
  -7  -4 -16    4.55   27.66
  -4  -7 -15  148.70   41.07
  -7  -4 -15  124.31   35.50
  -7  -4 -14   73.56   34.67
  -4  -7 -14   60.83   40.53
  -7  -4 -13  125.48   37.47
  -4  -7 -13   91.40   45.04
  -7  -4 -12  224.36   43.06
  -4  -7 -12  230.81   50.73
  -7  -4 -11 1477.20   69.78
  -7  -4 -10  464.13   51.61
   7   4  -9  776.95   45.22
   7   4  -8  181.28   24.74
   7   4  -7  609.40   40.48
   7   4  -6   77.79   18.60
   7  -4   5   53.80   14.12
   7   4  -5   78.53   18.23
   7   4  -4  442.50   34.15
   4  -7   4  355.62   22.30
   7  -4   4  446.62   32.17
   4  -7   3   72.26   15.43
   7  -4   3   76.54   17.13
   7   4  -3   79.76   19.04
   7   4  -2  161.45   24.03
   4  -7   2  167.23   22.95
   7  -4   2  161.47   22.10
   7  -4   1  973.08   46.10
   7   4  -1  982.34   50.23
   7  -4   0 1292.14   54.47
   7  -4  -1  971.20   50.67
   7  -4  -2  167.07   25.41
   7  -4  -3   86.85   22.66
   7  -4  -4  441.94   38.10
   7  -4  -5   65.42   20.89
   7  -4  -6   69.36   23.27
   7  -4  -7  620.79   49.11
   7  -4  -8  181.92   31.85
   7  -4  -9  874.32   60.74
   4  -7  -9  883.11   68.33
   4  -7 -10  483.67   54.43
   7  -4 -10  374.29   35.05
   7  -4 -10  468.17   47.19
   7  -4 -11 1291.36   78.66
   7  -4 -11 1264.96   57.72
  -7   4 -11 1173.02   43.76
   4  -7 -11 1259.26   72.45
   4  -7 -11 1323.72   88.26
   4  -7 -12  171.98   40.22
  -7   4 -12  241.83   26.43
   7  -4 -12  251.26   36.88
   7  -4 -12  172.27   34.89
   4  -7 -12  208.98   44.65
  -7   4 -13  132.12   24.68
   4  -7 -13   99.72   40.23
   4  -7 -13   61.91   25.78
   7  -4 -13   92.91   30.20
  -7   4 -14   55.52   22.19
   4  -7 -14   85.04   36.58
   7  -4 -14   60.96   27.83
   7  -4 -15  112.39   27.92
   4  -7 -15  104.16   35.41
  -4   7 -16   32.52   24.19
   7  -4 -16   27.95   25.43
   4  -7 -16    6.14   28.55
   7  -4 -17   43.55   23.24
   4  -7 -17   42.14   28.57
   4  -7 -18   32.05   25.24
   7  -4 -18   28.58   22.32
   4  -7 -19   36.40   22.59
   7  -4 -19   83.90   22.45
   4  -7 -20  105.56   22.59
   4  -7 -21  118.85   21.14
  -7  -5 -20  169.31   24.37
  -5  -7 -20  203.30   26.86
  -5  -7 -19   95.82   26.54
  -7  -5 -19   76.26   24.53
  -5  -7 -18   15.24   27.55
  -7  -5 -18   -2.12   24.72
  -5  -7 -17   27.56   29.53
  -7  -5 -17   41.29   29.93
  -5  -7 -16  166.80   37.71
  -7  -5 -16  110.66   33.37
  -7  -5 -15   43.77   33.84
  -5  -7 -15   48.88   37.28
  -7  -5 -14    2.31   35.02
  -5  -7 -14   23.54   41.24
  -7  -5 -13  108.56   40.78
  -5  -7 -13  127.05   46.71
  -5  -7 -12  903.77   69.65
  -7  -5 -12 1013.31   65.31
  -7  -5 -11  246.24   48.06
   7   5  -8  130.77   22.08
   7   5  -7  126.33   21.62
   7   5  -6 1802.27   67.76
   7   5  -5  372.74   32.65
   7  -5   5  297.38   23.62
   7  -5   4  473.05   33.15
   7   5  -4  427.07   35.49
   5  -7   4  430.86   26.08
   7   5  -3  168.90   24.86
   5  -7   3  166.09   20.77
   7  -5   3  170.41   23.90
   7   5  -2 2029.44   74.24
   7  -5   2 1984.96   64.95
   5  -7   2 1862.46   64.50
   5  -7   1  765.66   45.83
   7  -5   1  810.63   43.91
   5  -7   0 4973.66  115.00
   7  -5   0 4979.75  112.01
   5  -7  -1  773.48   49.60
   7  -5  -1  848.28   48.84
   7  -5  -2 1921.01   75.99
   7  -5  -3  162.95   27.54
   7  -5  -4  418.37   39.50
   7  -5  -5  363.36   37.88
   7  -5  -6 1806.87   81.44
   5  -7  -7  111.06   29.98
   7  -5  -7  120.67   26.85
   5  -7  -8  133.56   32.46
   7  -5  -8  119.62   28.67
   5  -7  -9  394.33   49.37
   7  -5  -9  381.21   44.96
   7  -5 -10 2235.63  105.53
   7  -5 -10 1900.44   68.89
   5  -7 -10 2057.13   84.98
   5  -7 -10 2369.55  114.43
   7  -5 -11  215.95   34.83
   5  -7 -11  246.87   44.65
  -7   5 -11  195.94   23.01
   5  -7 -11  311.37   53.28
   7  -5 -11  211.83   37.57
   5  -7 -12  863.17   61.74
   7  -5 -12  847.39   70.25
   7  -5 -12  938.30   54.85
   5  -7 -12  863.45   76.42
   5  -7 -13   68.58   29.64
   7  -5 -13   81.15   30.94
   5  -7 -13  131.02   40.18
   7  -5 -14   18.72   26.58
   5  -7 -14   35.65   33.53
   7  -5 -15   18.37   26.38
   5  -7 -15   16.06   29.87
  -5   7 -16   68.09   25.98
   7  -5 -16   74.40   25.96
   5  -7 -17   23.35   26.40
   7  -5 -17   28.47   22.58
  -5   7 -17   26.26   21.56
   7  -5 -18   25.71   21.92
   5  -7 -18   17.61   22.57
   7  -5 -19   72.88   21.50
   5  -7 -19   83.46   23.54
   5  -7 -20  206.32   26.62
  -7  -6 -20   14.44   19.32
  -6  -7 -20    3.59   18.52
  -7  -6 -19   56.30   23.82
  -6  -7 -19   28.66   23.46
  -7  -6 -18   32.71   25.91
  -6  -7 -18   44.19   27.95
  -6  -7 -17  159.06   36.49
  -7  -6 -17  178.96   36.21
  -7  -6 -16   50.59   33.22
  -6  -7 -16    6.70   32.23
  -6  -7 -15   66.86   38.60
  -7  -6 -15   86.26   36.70
  -6  -7 -14   11.75   40.83
  -7  -6 -14   44.12   39.93
  -6  -7 -13   26.71   45.75
  -7  -6 -13   46.40   42.25
  -6  -7 -12   -0.55   49.11
  -7  -6 -12  -11.57   44.29
  -7  -6 -11 1883.69   89.63
   6  -7   4   27.10   14.04
   7  -6   4   28.92   15.17
   7  -6   3   24.94   14.69
   6  -7   3   25.20   15.16
   6  -7   2   88.90   20.65
   7  -6   2   96.26   20.30
   7  -6   1 3684.98   97.81
   6  -7   1 3765.77   98.92
   6  -7   0  474.46   40.24
   7  -6   0  510.34   38.97
   7  -6  -1 3675.17  106.35
   6  -7  -1 3617.50  107.25
   6  -7  -2   88.31   24.96
   7  -6  -2   88.43   23.94
   6  -7  -3   26.78   20.35
   7  -6  -3   24.26   19.86
   7  -6  -4   24.34   20.56
   6  -7  -4   18.16   20.40
   6  -7  -5 4905.48  141.20
   7  -6  -5 4819.95  133.33
   6  -7  -6  162.78   33.28
   7  -6  -6  151.25   30.18
   7  -6  -7  926.24   65.11
   6  -7  -7  987.73   69.59
   7  -6  -8   91.11   29.31
   6  -7  -8  109.27   33.04
   7  -6  -9  423.17   41.40
   6  -7  -9  601.61   59.34
  -7   6  -9  504.16   24.41
   7  -6  -9  608.34   57.56
  -6   7  -9  523.10   24.14
   6  -7 -10   36.40   38.41
   7  -6 -10    4.93   32.73
  -7   6 -10   59.65   12.19
   6  -7 -10   78.25   28.91
   7  -6 -10   73.93   27.96
   6  -7 -11 1839.54  106.45
   6  -7 -11 1844.84   81.55
   7  -6 -11 1816.02   73.51
   7  -6 -11 1822.72  102.74
   7  -6 -12   15.08   31.46
   6  -7 -12   16.22   28.84
   6  -7 -12    4.12   35.40
   7  -6 -12    8.35   25.84
   6  -7 -13   -2.34   26.68
   6  -7 -13   37.61   37.31
   7  -6 -13   -8.09   29.43
   7  -6 -14   25.38   27.74
   6  -7 -14   11.53   30.70
   7  -6 -15   68.38   28.09
   6  -7 -15   92.32   32.45
   6  -7 -16   21.53   27.05
   7  -6 -16   24.23   26.29
   6  -7 -17  158.52   31.57
  -6   7 -17  188.70   31.87
   7  -6 -17  143.41   28.95
  -7   6 -18   32.10   22.25
   6  -7 -18   51.15   24.17
   7  -6 -18   24.51   22.22
   6  -7 -19   36.00   20.34
   7  -6 -19   35.79   20.85
   6  -7 -20   10.61   17.95
  -7  -7 -20   66.70   19.93
  -7  -7 -19  -11.66   23.06
  -7  -7 -18   82.28   28.20
  -7  -7 -17   27.73   32.98
  -7  -7 -16  550.97   50.14
  -7  -7 -15  -14.56   36.42
  -7  -7 -14   75.64   44.78
  -7  -7 -13    9.11   45.55
  -7  -7 -12  331.23   59.58
   7  -7   4 2866.81   80.53
   7  -7   3    0.14   14.76
   7  -7   2 1147.31   55.37
   7  -7   1  -13.69   19.55
   7  -7   0 5079.55  125.41
   7  -7  -1   -6.88   20.82
   7  -7  -2 1092.20   63.96
   7  -7  -3  -14.50   22.06
   7  -7  -4 3008.38  110.32
   7  -7  -5  -10.94   25.29
   7  -7  -6 3840.91  131.77
   7  -7  -7    9.04   24.44
  -7   7  -8  219.60   17.20
   7  -7  -8  202.84   37.32
   7  -7  -9  -22.27   34.34
   7  -7  -9    8.83   23.80
  -7   7  -9   16.28   11.60
   7  -7 -10 1299.75   90.51
   7  -7 -10 1073.23   63.33
  -7   7 -10 1197.83   36.93
   7  -7 -11  -66.28   37.99
   7  -7 -11  -11.13   28.90
   7  -7 -12  230.79   45.14
   7  -7 -12  258.05   41.94
   7  -7 -13   -8.52   25.60
   7  -7 -13    5.98   31.13
   7  -7 -14   37.46   29.94
   7  -7 -15  -25.82   28.52
   7  -7 -16  518.61   44.26
  -7   7 -17   -8.71   20.70
   7  -7 -17   20.11   24.67
  -7   7 -18   70.21   21.58
   7  -7 -18   71.24   23.85
   7  -7 -19   18.14   19.44
   8   0   0 3217.99   88.94
   8   0   1 1884.03   69.32
   8   0  -1 1834.22   69.22
   8   0  -2  403.54   35.17
   8   0   2  412.38   34.41
   8   0   3  450.35   37.03
   8   0  -3  420.74   35.60
   8   0  -4    1.93   15.20
   8   0  -5 1912.87   72.61
   8   0  -6  163.47   26.01
   8   0  -7 2815.59   93.80
   8   0  -8  567.20   45.06
   0   8  -9  587.89   40.67
   8   0  -9  537.65   45.50
   0   8 -10  798.55   47.79
   8   0 -10  692.86   54.91
   8   0 -10  813.39   44.30
   8   0 -11  672.77   36.86
  -8   0 -11  689.23   38.94
   8   0 -11  678.48   56.13
   0   8 -11  675.68   52.41
   8   0 -12  167.08   30.41
  -8   0 -12  210.00   32.75
   0   8 -12  128.08   30.87
   0  -8 -13   12.00   41.54
   8   0 -13   82.73   24.40
   0   8 -13    5.27   23.94
  -8   0 -13   29.13   26.02
   0  -8 -14  111.82   43.12
   0   8 -14  166.82   34.83
  -8   0 -14  151.43   29.63
   8   0 -14  135.46   26.40
   0  -8 -15  315.36   46.06
  -8   0 -15  369.61   34.10
   8   0 -15  364.45   34.68
  -8   0 -16  429.90   39.44
   8   0 -16  565.83   41.08
   0  -8 -17  308.60   41.54
  -8   0 -17  381.10   34.29
   0  -8 -18   59.45   28.60
  -8   0 -18  126.28   26.42
   0  -8 -19   32.32   24.73
   0  -8 -20   63.22   22.92
   0  -8 -21   49.19   18.93
  -1  -8 -21   25.80   17.96
  -1  -8 -20  103.73   24.02
  -1  -8 -19   36.83   24.59
  -1  -8 -18   31.38   27.35
  -8  -1 -18   85.02   25.57
  -8  -1 -17  246.01   31.91
  -1  -8 -17   58.34   31.87
  -1  -8 -16  432.71   47.23
  -8  -1 -16  474.98   38.00
  -8  -1 -15  113.49   32.10
   8   1 -15  213.89   32.08
  -1  -8 -15  120.83   41.01
   8   1 -14  121.80   25.72
  -1  -8 -14  102.78   43.02
  -8  -1 -14   76.51   29.95
  -8  -1 -13  109.30   30.01
  -1  -8 -13  151.51   47.15
   1   8 -13   89.96   31.72
   8   1 -13   99.22   24.25
  -8  -1 -12  245.68   33.66
   8   1 -12  233.69   27.84
   1   8 -12  266.04   37.80
   1   8 -11   89.81   28.37
  -8  -1 -11  183.17   34.53
   8   1 -10 1246.72   69.70
   1   8 -10 1377.57   63.61
   1   8  -9  574.96   41.68
   8   1  -9  577.23   47.67
   8   1  -8   65.08   20.84
   8   1  -7  479.11   40.51
   8   1  -6 2758.68   90.28
   8   1  -5   53.93   19.38
   8   1  -4  790.96   47.62
   8  -1   4  832.48   48.92
   8   1  -3    9.24   15.00
   8  -1   3   20.98   16.33
   8   1  -2  216.90   26.80
   8  -1   2  235.27   27.41
   8   1  -1  439.70   36.01
   8  -1   1  452.00   35.37
   8   1   0 6456.90  126.24
   8  -1   0 6450.50  125.90
   8   1   1  446.17   35.25
   8  -1  -1  432.35   35.02
   8   1   2  213.81   27.65
   8  -1  -2  200.42   25.85
   8  -1  -3   11.20   15.82
   8  -1  -4  798.10   46.57
   8  -1  -5   55.93   19.29
   8  -1  -6 2708.64   88.18
   8  -1  -7  442.68   39.39
   8  -1  -8   78.41   21.71
   8  -1  -9  551.49   46.25
   8  -1 -10  984.12   43.51
   8  -1 -10 1258.66   70.41
   8  -1 -11  104.13   26.82
  -1   8 -11   62.48   26.77
  -8   1 -12  265.10   29.94
   1  -8 -12  279.06   54.03
   8  -1 -12  216.32   29.24
  -1   8 -12  228.81   34.80
   1  -8 -13   42.97   43.22
   8  -1 -13  104.13   25.33
   1  -8 -13   55.37   29.77
  -8   1 -13  106.05   25.45
  -1   8 -13  113.61   31.34
  -8   1 -14   88.12   26.07
  -1   8 -14   20.79   24.94
   1  -8 -14   44.10   40.77
   8  -1 -14   94.85   25.97
  -1   8 -15   62.28   27.87
   1  -8 -15   21.63   35.01
  -8   1 -15  238.05   31.64
   8  -1 -15  312.31   32.72
   8  -1 -16  500.92   38.67
  -8   1 -16  499.77   37.60
   1  -8 -16  384.27   46.92
  -8   1 -17  301.07   32.40
   8  -1 -17  333.70   33.55
   1  -8 -18   56.50   28.18
   1  -8 -19   21.22   23.64
   1  -8 -20  110.94   25.01
   1  -8 -21   30.93   18.43
  -2  -8 -21  135.64   22.08
  -2  -8 -20    8.19   21.24
  -2  -8 -19   96.60   27.68
  -8  -2 -19   80.56   22.36
  -8  -2 -18   74.92   26.67
  -2  -8 -18   36.29   27.54
  -2  -8 -17   98.10   34.25
  -8  -2 -17  101.38   27.83
  -2  -8 -16  107.86   35.09
  -8  -2 -16  165.07   32.86
  -2  -8 -15  138.89   41.26
  -8  -2 -15  132.56   32.56
  -8  -2 -14   84.11   32.05
  -2  -8 -14  101.64   43.90
   8   2 -13   32.20   21.97
  -2  -8 -13   21.14   44.70
  -8  -2 -13   17.17   28.48
  -8  -2 -12   54.87   32.05
   8   2 -12   69.85   23.36
   2   8 -12    4.28   23.92
   8   2 -11  549.60   34.44
   2   8 -11  643.08   51.78
  -8  -2 -11  626.68   43.76
   2   8 -10    1.59   21.08
   8   2 -10    6.31   16.49
   2   8  -9  546.31   47.97
   8   2  -9  714.98   50.49
   8   2  -8  126.28   24.35
   8   2  -7   71.77   20.98
   8   2  -6  295.11   32.99
   8   2  -5  605.70   42.28
   8   2  -4  684.89   44.53
   8  -2   4  706.50   44.09
   8  -2   3   89.96   20.16
   8   2  -3   96.27   20.95
   8  -2   2    6.57   15.23
   8   2  -2   17.73   15.66
   8   2  -1 1046.38   52.04
   8  -2   1 1147.61   54.59
   8   2   0  114.81   20.65
   8  -2   0  123.62   22.38
   8   2   1 1079.46   55.30
   8  -2  -1 1137.55   53.39
   8   2   2    9.95   15.20
   8  -2  -2   12.23   14.91
   8  -2  -3   81.11   19.93
   8  -2  -4  622.43   43.60
   8  -2  -5  582.07   42.63
   8  -2  -6  268.85   33.21
   8  -2  -7   56.20   20.70
   8  -2  -8  113.50   25.51
   8  -2  -9  735.26   53.67
   8  -2 -10  117.39   30.05
   8  -2 -10   -5.90   19.64
   8  -2 -11  541.14   37.67
   8  -2 -11  623.78   54.11
   8  -2 -12   45.68   28.09
   2  -8 -12   22.25   30.23
   2  -8 -12  -16.12   44.30
  -8   2 -12   39.77   22.19
   8  -2 -13   30.05   24.42
   2  -8 -13  -19.94   31.00
   2  -8 -13   -7.45   40.61
  -2   8 -13   10.07   23.51
  -8   2 -13   42.92   22.45
  -8   2 -14   94.18   23.73
   8  -2 -14   78.00   25.09
   2  -8 -14   21.58   39.64
  -2   8 -14   68.46   28.04
   8  -2 -15  190.29   30.51
   2  -8 -15   87.06   38.61
  -2   8 -15   95.01   29.17
  -8   2 -15  179.78   27.20
   8  -2 -16  358.55   33.97
  -8   2 -16  346.24   33.20
   8  -2 -17  142.31   27.57
   2  -8 -17   79.57   32.15
   2  -8 -18   68.83   29.20
   2  -8 -19   83.93   26.34
   2  -8 -20   -0.73   19.62
   2  -8 -21  119.24   21.42
  -3  -8 -21   -0.76   16.90
  -3  -8 -20  183.94   26.99
  -3  -8 -19  -17.81   24.58
  -8  -3 -19   14.09   24.34
  -8  -3 -18   94.02   26.76
  -3  -8 -18   45.79   30.33
  -3  -8 -17   -2.28   30.43
  -8  -3 -17   61.82   27.32
  -3  -8 -16   63.97   35.05
  -8  -3 -16   62.05   29.06
  -8  -3 -15  184.70   33.56
  -3  -8 -15  189.17   44.54
  -8  -3 -14   54.94   31.66
  -3  -8 -14   32.05   40.65
  -3  -8 -13    8.56   43.96
  -8  -3 -13   13.30   31.49
  -8  -3 -12  280.74   40.14
   3   8 -11   87.59   30.23
  -8  -3 -11  133.71   36.16
  -8  -3 -10  595.04   44.93
   3   8 -10  632.01   54.64
   3   8  -9  115.54   30.58
   8   3  -9  213.76   28.77
   8   3  -8  525.54   41.73
   8   3  -7   34.26   17.76
   8   3  -6  476.33   38.95
   8   3  -5  545.68   40.85
   8  -3   4   38.23   15.18
   8   3  -4   53.99   17.46
   3  -8   4   44.75   12.99
   8  -3   3  256.31   29.31
   8   3  -3  271.01   29.56
   8   3  -2   65.12   19.40
   8  -3   2   55.78   18.33
   8   3  -1  615.14   41.92
   8  -3   1  541.34   39.39
   8   3   0 1164.19   57.44
   8  -3   0 1187.76   54.54
   8  -3  -1  544.73   39.18
   8   3   1  581.46   42.80
   8  -3  -2   54.50   18.89
   8  -3  -3  231.77   28.99
   8  -3  -4   51.65   18.42
   8  -3  -5  504.11   41.53
   8  -3  -6  453.13   40.48
   8  -3  -7   33.60   18.53
   8  -3  -8  527.14   46.52
   8  -3  -9  188.93   31.05
   8  -3 -10  558.80   36.12
   8  -3 -10  693.20   56.70
   3  -8 -11   61.98   33.16
   8  -3 -11   90.74   29.60
   8  -3 -11   91.41   26.31
   8  -3 -12  254.05   32.47
   8  -3 -12  212.31   37.16
   3  -8 -12  233.61   46.73
   3  -8 -12  240.69   48.97
   8  -3 -13   37.10   26.79
   3  -8 -13    3.86   27.42
  -8   3 -13   -2.05   19.54
   3  -8 -13   38.09   41.80
  -3   8 -14   10.08   22.77
  -8   3 -14   39.30   20.90
   8  -3 -14   32.19   24.40
   3  -8 -14   40.44   37.82
  -8   3 -15  177.73   26.64
   3  -8 -15  143.52   38.10
   8  -3 -15  214.16   35.06
  -3   8 -15  144.51   32.07
   8  -3 -16   91.08   26.96
   3  -8 -16   41.41   31.21
  -3   8 -16   51.71   23.24
   8  -3 -17   65.47   24.85
   3  -8 -17   67.35   32.27
   3  -8 -18   69.40   28.31
   8  -3 -18   58.74   22.47
   3  -8 -19  -32.63   24.66
   3  -8 -20  185.60   25.61
   3  -8 -21   -6.14   17.38
  -8  -4 -20   49.72   18.79
  -4  -8 -20   49.45   21.91
  -4  -8 -19  247.10   33.21
  -8  -4 -19  267.33   29.76
  -4  -8 -18  -23.40   29.03
  -8  -4 -18    4.89   23.52
  -8  -4 -17   99.01   29.56
  -4  -8 -17  132.04   35.67
  -4  -8 -16  128.75   38.17
  -8  -4 -16  136.46   32.69
  -8  -4 -15    5.12   30.37
  -4  -8 -15  100.28   44.47
  -4  -8 -14   54.72   43.64
  -8  -4 -14   86.25   34.92
  -8  -4 -13  174.30   40.85
  -4  -8 -13  248.39   54.49
  -8  -4 -12  263.62   43.74
  -8  -4 -11  547.83   51.08
  -8  -4 -10  925.10   58.12
   4   8 -10  860.13   64.52
   8   4  -9  955.34   54.69
   4   8  -9 1070.64   65.68
   8   4  -8   46.68   17.07
   8   4  -7  394.35   35.40
   8   4  -6 1397.19   63.85
   8   4  -5  976.72   52.94
   8  -4   5  923.56   45.09
   8   4  -4  518.50   39.94
   8  -4   4  507.63   37.36
   4  -8   3  395.60   30.92
   8   4  -3  406.02   35.48
   8  -4   3  421.83   35.33
   4  -8   2  165.30   24.56
   8   4  -2  177.39   25.75
   8  -4   2  199.03   26.51
   8   4  -1  771.36   47.89
   8  -4   1  738.53   44.91
   8  -4   0 3518.68   95.31
   8   4   0 3570.99  101.68
   8  -4  -1  712.18   45.41
   8  -4  -2  178.12   26.55
   8  -4  -3  412.60   37.86
   8  -4  -4  486.39   41.29
   8  -4  -5  899.90   55.32
   8  -4  -6 1419.66   71.05
   8  -4  -7  395.27   41.18
   8  -4  -8   59.37   21.60
   8  -4  -9 1015.77   67.21
  -8   4  -9  929.69   30.50
   4  -8 -10  995.78   79.18
   8  -4 -10  931.86   66.13
   4  -8 -11  485.55   60.22
   8  -4 -11  474.26   38.68
   8  -4 -11  519.93   52.39
   4  -8 -11  463.70   58.63
   4  -8 -12  164.14   40.66
   8  -4 -12  168.03   30.32
   8  -4 -12  184.60   35.38
   4  -8 -12  218.14   49.30
   8  -4 -13  202.43   33.26
   4  -8 -13  130.10   38.65
   4  -8 -13  224.11   46.41
   8  -4 -14   76.55   28.17
   4  -8 -14   89.28   39.29
  -4   8 -15   58.20   29.32
   4  -8 -15   16.05   32.46
   8  -4 -16   94.43   26.10
   4  -8 -16   98.02   33.83
  -4   8 -16  142.51   30.41
   4  -8 -17   91.18   31.86
  -4   8 -17   83.08   26.01
   8  -4 -17   98.32   25.69
   8  -4 -18   35.93   22.07
   4  -8 -18   12.07   25.10
   4  -8 -19  268.31   32.18
   4  -8 -20   64.06   21.78
  -8  -5 -20   68.29   18.25
  -5  -8 -20   81.89   21.77
  -5  -8 -19   -9.52   24.81
  -8  -5 -19   32.02   21.84
  -8  -5 -18  187.10   30.99
  -5  -8 -18  217.27   35.85
  -8  -5 -17  107.37   31.37
  -5  -8 -17  104.94   34.99
  -8  -5 -16  103.33   32.70
  -5  -8 -16  133.84   38.86
  -8  -5 -15  112.65   35.93
  -5  -8 -15   93.09   41.02
  -8  -5 -14  161.83   39.64
  -5  -8 -14  106.25   46.27
  -8  -5 -13   41.44   38.05
  -5  -8 -13   48.01   48.62
  -8  -5 -12  207.35   46.51
  -8  -5 -11 1144.67   68.87
  -8  -5 -10  355.31   50.85
   8   5  -8  498.06   41.09
   8   5  -7  613.38   43.99
   8   5  -6  321.93   33.53
   8  -5   5 3107.70   80.35
   8   5  -5 3371.45   98.81
   8  -5   4 1048.72   52.27
   8   5  -4 1037.81   56.09
   8  -5   3   76.17   19.61
   8   5  -3   85.23   21.11
   5  -8   3   87.11   19.34
   5  -8   2  488.90   38.81
   8   5  -2  485.22   41.26
   8  -5   2  504.12   38.20
   8  -5   1 2116.93   74.23
   5  -8   1 1994.47   76.05
   8  -5   0  998.06   53.57
   5  -8   0  986.98   57.12
   8  -5  -1 2026.97   78.38
   8  -5  -2  509.95   42.64
   8  -5  -3   78.84   23.73
   8  -5  -4 1069.05   61.65
   8  -5  -5 3313.11  109.62
   8  -5  -6  338.71   40.45
   8  -5  -7  657.44   54.15
  -8   5  -8  497.23   23.61
   5  -8  -8  558.40   57.39
   8  -5  -8  565.97   52.19
  -5   8  -9  559.48   24.73
  -8   5  -9  530.41   25.80
   8  -5  -9  608.72   55.95
   5  -8  -9  632.90   64.14
  -8   5 -10  358.33   21.47
   8  -5 -10  373.84   46.27
   8  -5 -10  241.23   30.42
   5  -8 -10  388.97   53.63
   5  -8 -11  905.27   77.75
   8  -5 -11  802.90   47.70
   5  -8 -11  894.35   67.70
   8  -5 -11  895.35   70.49
   8  -5 -12  172.55   38.33
   8  -5 -12  187.98   33.64
   5  -8 -12  182.61   46.55
   5  -8 -12  157.61   41.03
   5  -8 -13   30.62   31.02
   5  -8 -13  -35.26   39.07
   8  -5 -13   38.78   27.53
   8  -5 -14   93.54   29.46
   5  -8 -14   99.68   38.19
   5  -8 -15   83.86   34.97
   8  -5 -15   88.92   28.25
  -5   8 -16  118.36   32.06
   5  -8 -16  128.88   34.47
   8  -5 -16  129.23   29.62
   5  -8 -17   97.11   30.80
  -5   8 -17  123.53   29.55
   8  -5 -17  118.88   27.33
   5  -8 -18  180.34   31.21
   8  -5 -18  161.41   26.98
   5  -8 -19   14.16   21.55
   5  -8 -20  110.73   22.40
  -8  -6 -20   37.77   16.89
  -6  -8 -20   80.74   21.19
  -6  -8 -19   82.94   25.92
  -8  -6 -19   82.76   23.06
  -6  -8 -18   56.68   28.80
  -8  -6 -18   75.17   26.86
  -6  -8 -17  173.07   36.99
  -8  -6 -17  184.34   35.63
  -8  -6 -16  388.23   44.27
  -6  -8 -16  393.29   48.75
  -6  -8 -15  327.63   49.72
  -8  -6 -15  353.97   46.68
  -6  -8 -14   93.77   48.77
  -8  -6 -14   -1.45   37.42
  -8  -6 -13   85.35   43.35
  -6  -8 -13   59.23   49.57
  -8  -6 -12  161.79   49.16
  -8  -6 -11  166.41   57.07
   8   6  -6 2563.45   89.61
   8   6  -5  518.62   42.72
   8  -6   4 3563.25   94.95
   6  -8   3  544.49   37.54
   8  -6   3  535.83   40.72
   6  -8   2  710.30   45.96
   8  -6   2  711.81   45.33
   6  -8   1  931.45   54.93
   8  -6   1  983.57   54.30
   8  -6   0 3538.85  104.41
   6  -8   0 3495.46  108.19
   6  -8  -1  969.12   61.07
   8  -6  -1  982.02   57.64
   8  -6  -2  649.48   51.00
   6  -8  -2  700.78   54.79
   8  -6  -3  554.66   47.86
   6  -8  -3  526.79   49.53
   8  -6  -4 3434.34  115.58
   6  -8  -4 3617.13  124.11
   6  -8  -5  510.83   53.88
   8  -6  -5  475.92   47.40
   6  -8  -6 2814.15  118.54
   8  -6  -6 2739.65  108.70
   8  -6  -7  339.35   43.53
   6  -8  -7  349.49   49.09
  -8   6  -8   54.51   12.37
   6  -8  -8   40.95   27.52
   8  -6  -8   56.38   27.28
  -6   8  -8   55.04   11.85
  -8   6  -9  270.06   20.03
  -6   8  -9  261.46   19.58
   6  -8  -9  286.33   48.87
   8  -6  -9  281.12   42.76
   6  -8 -10 1118.56   72.94
  -6   8 -10 1144.95   36.39
  -8   6 -10 1128.06   36.05
   8  -6 -10 1143.39   80.66
   6  -8 -10 1194.34   89.23
   8  -6 -11   87.72   31.96
   8  -6 -11   39.99   27.43
   6  -8 -11   97.57   37.84
   6  -8 -11   68.44   41.30
   8  -6 -12   92.60   33.03
   6  -8 -12  108.57   39.84
   6  -8 -12   98.35   41.55
   8  -6 -12  133.45   33.32
   8  -6 -13   41.95   27.31
   8  -6 -13   41.23   27.67
   6  -8 -13   62.13   36.33
   6  -8 -13   79.40   38.50
   8  -6 -14   54.75   28.01
   6  -8 -14   37.47   34.77
   8  -6 -15  199.61   32.67
   6  -8 -15  212.74   38.56
  -6   8 -16  431.70   44.27
   8  -6 -16  349.66   36.64
   6  -8 -16  357.62   41.64
   8  -6 -17  164.88   28.73
   6  -8 -17  149.92   32.33
  -6   8 -17  118.30   28.91
   6  -8 -18   46.30   24.73
   8  -6 -18   57.49   21.94
  -8   6 -18   64.90   23.77
  -6   8 -18   30.86   19.23
   8  -6 -19   62.04   20.57
   6  -8 -19   77.08   23.40
   6  -8 -20   52.36   19.08
  -7  -8 -20    1.18   16.52
  -7  -8 -19   12.23   22.02
  -8  -7 -19   22.55   20.53
  -7  -8 -18   23.32   26.51
  -8  -7 -18   -0.23   25.16
  -8  -7 -17  363.51   41.28
  -7  -8 -17  357.24   43.09
  -7  -8 -16   45.64   35.78
  -8  -7 -16   32.61   32.00
  -7  -8 -15  512.26   55.23
  -8  -7 -15  543.16   52.25
  -8  -7 -14   65.45   40.60
  -7  -8 -14  110.90   47.01
  -8  -7 -13   37.97   45.53
  -7  -8 -13   57.60   50.55
  -8  -7 -12   -6.84   49.37
  -7  -8 -12  -18.47   53.82
   8  -7   4   22.78   16.65
   7  -8   3 1467.90   62.84
   8  -7   3 1352.08   63.04
   7  -8   2  282.23   33.61
   8  -7   2  281.27   33.39
   7  -8   1 3245.56  102.02
   8  -7   1 3257.79  100.27
   7  -8   0  674.30   50.97
   8  -7   0  685.64   49.59
   7  -8  -1 3148.85  107.90
   8  -7  -1 3105.81  107.29
   7  -8  -2  248.76   37.81
   8  -7  -2  270.39   38.34
   8  -7  -3 1379.03   76.24
   7  -8  -3 1398.57   80.81
   7  -8  -4    8.14   24.03
   8  -7  -4   14.30   22.47
   8  -7  -5 4137.53  136.03
   7  -8  -5 4265.58  143.69
   8  -7  -6   41.35   25.45
   7  -8  -6   14.57   25.90
   8  -7  -7 1985.55  102.62
  -7   8  -7 1855.20   43.36
  -8   7  -7 1856.65   44.28
   7  -8  -7 1896.80  102.16
  -7   8  -8   44.06   13.26
   8  -7  -8   56.06   28.63
  -8   7  -8   46.38   13.89
   7  -8  -8   68.57   32.26
  -8   7  -9  229.68   19.28
   8  -7  -9  200.84   39.40
  -7   8  -9  226.10   19.24
   7  -8  -9  223.55   44.30
   7  -8 -10  -11.57   29.75
  -7   8 -10   14.45   12.30
   7  -8 -10  -29.74   41.58
   8  -7 -10   17.20   26.09
  -8   7 -10    8.43   11.72
   7  -8 -11  437.96   62.83
  -8   7 -11  376.76   23.15
   8  -7 -11  449.52   60.77
   8  -7 -11  333.59   41.38
   7  -8 -11  370.43   49.76
   8  -7 -12   72.85   33.04
   8  -7 -12   27.01   29.29
   7  -8 -12   -0.31   27.25
   7  -8 -12    3.99   35.47
   7  -8 -13   43.42   34.64
   8  -7 -13   17.89   26.10
   8  -7 -13   19.84   30.13
   7  -8 -13   39.48   30.74
   8  -7 -14   68.94   29.59
   7  -8 -14  108.16   35.11
   8  -7 -15  511.83   42.72
   7  -8 -15  496.34   46.87
   7  -8 -16   60.50   27.71
   8  -7 -16   52.69   26.84
  -7   8 -17  472.89   42.12
   7  -8 -17  383.18   38.41
   8  -7 -17  363.53   35.17
  -7   8 -18    8.11   18.31
   7  -8 -18   22.29   21.74
  -8   7 -18   15.01   17.50
   8  -7 -18   23.27   20.50
   8  -7 -19    7.99   16.82
   7  -8 -19    1.00   18.66
  -8  -8 -19   -6.57   20.29
  -8  -8 -18  121.89   29.44
  -8  -8 -17   -8.31   30.04
  -8  -8 -16  978.91   63.85
  -8  -8 -15  -62.11   39.15
  -8  -8 -14  475.19   56.80
  -8  -8 -13   -7.24   48.58
  -8  -8 -12   44.58   54.87
   8  -8   3   -3.55   18.28
   8  -8   2  195.58   30.19
   8  -8   1    0.23   20.07
   8  -8   0 2242.74   92.15
   8  -8  -1    5.45   22.18
   8  -8  -2  185.90   34.74
   8  -8  -3    3.38   23.92
   8  -8  -4 4333.30  143.97
   8  -8  -5   -6.19   27.08
  -8   8  -5  -17.07   12.31
  -8   8  -6 2490.64   50.50
   8  -8  -6 2514.09  116.64
  -8   8  -7   -7.56   12.11
   8  -8  -7   -3.79   25.75
  -8   8  -8  272.65   20.33
   8  -8  -8  246.33   45.26
  -8   8  -9   11.78   12.81
   8  -8  -9    2.68   26.72
  -8   8 -10  197.74   19.25
   8  -8 -10  166.23   43.90
   8  -8 -11  -33.68   35.30
  -8   8 -11   -5.41   12.21
   8  -8 -11   -3.27   28.05
   8  -8 -12   -0.15   29.33
   8  -8 -12   24.60   32.96
   8  -8 -13  -13.73   29.94
   8  -8 -13  -26.47   31.95
   8  -8 -14  408.43   43.09
   8  -8 -15    2.31   26.61
   8  -8 -16  915.19   52.52
   8  -8 -17    6.44   21.97
  -8   8 -17  -32.20   23.84
  -8   8 -18  126.35   25.97
   8  -8 -18  107.53   22.83
   9   0   0  614.40   43.45
   9   0  -1  959.68   54.06
   9   0   1  985.36   54.29
   9   0   2  349.86   35.85
   9   0  -2  339.47   34.93
   9   0  -3  458.07   40.25
   9   0   3  503.28   42.56
   9   0  -4  180.72   28.36
   9   0  -5  163.60   28.24
   9   0  -6 2024.37   83.69
   9   0  -7  969.79   60.82
   0   9  -8    1.64   20.35
   9   0  -8   17.89   17.77
   9   0  -9 1648.61   84.14
   0   9  -9 1867.09   72.79
   9   0 -10  421.13   46.00
   0   9 -10  515.70   43.49
   9   0 -11  396.53   47.36
   0   9 -11  512.41   48.61
   0   9 -12   92.46   30.30
   9   0 -12  346.55   31.23
   0  -9 -13  166.67   52.73
   0   9 -13  234.25   41.14
   9   0 -13  221.57   28.12
   0  -9 -14   11.36   41.39
   0   9 -14   38.73   30.22
   0  -9 -15   65.23   38.40
  -9   0 -15  156.30   29.97
   0  -9 -16  302.68   44.88
  -9   0 -16  389.41   34.34
   0  -9 -17   34.86   33.18
  -9   0 -17  110.09   26.23
   0  -9 -18   28.97   27.98
   0  -9 -19   73.26   27.39
   0  -9 -20   94.15   24.15
   0  -9 -21  162.24   22.88
  -1  -9 -21   97.80   21.23
  -1  -9 -20  173.93   27.87
  -1  -9 -19   67.72   27.01
  -1  -9 -18   88.11   32.34
  -1  -9 -17  103.38   35.54
  -9  -1 -17  146.14   26.86
  -9  -1 -16  210.06   32.85
  -1  -9 -16   95.04   37.61
  -1  -9 -15  210.42   44.88
  -9  -1 -15  224.86   31.93
  -9  -1 -14  170.45   30.98
  -1  -9 -14  186.55   48.45
  -9  -1 -13   33.45   28.58
   1   9 -13    6.04   27.12
  -1  -9 -13   -1.25   47.43
   9   1 -12  357.66   31.08
   1   9 -12  379.92   45.02
   9   1 -11  526.57   35.03
   1   9 -11  559.03   52.57
   9   1 -10  532.20   50.26
   1   9 -10  543.02   47.55
   9   1 -10  597.32   33.27
   9   1  -9  660.32   53.54
   1   9  -9  783.89   50.45
   1   9  -8 1030.09   52.55
   9   1  -8 1034.73   63.33
   9   1  -7  327.97   37.04
   9   1  -6  739.81   51.59
   9   1  -5  937.76   57.27
   9   1  -4   92.95   22.43
   9  -1   4   96.49   23.69
   9  -1   3   35.23   17.44
   9   1  -3   37.83   19.39
   9   1  -2  543.97   41.88
   9  -1   2  545.18   41.89
   9  -1   1  288.47   31.63
   9   1  -1  288.23   31.96
   9   1   0 1939.69   75.37
   9  -1   0 1921.82   74.73
   9   1   1  284.08   32.31
   9  -1  -1  279.19   31.80
   9  -1  -2  521.24   41.39
   9   1   2  524.93   42.96
   9  -1  -3   19.63   15.77
   9   1   3   32.42   20.83
   9  -1  -4   95.87   23.36
   9  -1  -5  932.21   55.58
   9  -1  -6  686.33   49.28
   9  -1  -7  314.14   36.50
  -1   9  -8 1074.04   53.46
   9  -1  -8  976.77   61.82
  -9   1  -9  548.14   26.16
   9  -1  -9  632.72   53.11
  -1   9 -10  424.38   45.54
   9  -1 -10  528.32   51.34
   9  -1 -11  536.21   34.45
  -1   9 -11  554.80   51.70
   9  -1 -11  532.19   54.37
  -1   9 -12  316.54   43.07
   9  -1 -12  354.81   31.53
   1  -9 -13   14.73   31.22
  -1   9 -13  -13.94   24.02
   1  -9 -13    2.77   44.47
  -1   9 -14  199.63   36.42
   9  -1 -14  157.04   26.19
   1  -9 -14  129.91   46.56
   9  -1 -15  193.79   28.12
   1  -9 -15  180.08   43.73
  -1   9 -15  199.82   39.41
   1  -9 -16   52.70   35.60
   1  -9 -17  119.58   37.23
   1  -9 -18   40.07   29.28
   1  -9 -19   71.74   26.95
   1  -9 -20   91.28   23.73
  -2  -9 -20  152.93   26.20
  -2  -9 -19   27.64   25.56
  -2  -9 -18   22.20   28.77
  -9  -2 -18   18.06   20.00
  -9  -2 -17   72.67   27.01
  -2  -9 -17   26.06   32.21
  -9  -2 -16  139.68   29.54
  -2  -9 -16  120.87   38.43
  -9  -2 -15   81.47   29.31
  -2  -9 -15   65.95   40.31
  -2  -9 -14   -1.79   42.30
  -9  -2 -14   33.24   30.13
   2   9 -13  156.45   36.89
  -2  -9 -13  155.97   53.42
  -9  -2 -13  189.87   34.35
  -9  -2 -12  108.61   31.52
   2   9 -12   97.06   32.79
   2   9 -11   86.44   33.43
   9   2 -10  698.18   54.52
   2   9 -10  860.75   59.22
   9   2  -9  157.34   28.79
   2   9  -9  100.13   32.15
   2   9  -8  267.66   35.95
   9   2  -8  239.61   33.30
   9   2  -7  259.40   33.13
   9   2  -6   11.34   16.54
   9   2  -5  866.85   53.37
   9  -2   4  123.67   24.68
   9   2  -4   94.33   23.07
   9   2  -3   26.53   16.56
   9  -2   3   45.82   19.30
   9   2  -2   96.80   23.71
   9  -2   2   93.59   23.21
   9   2  -1  140.15   24.26
   9  -2   1  124.99   24.14
   9  -2   0 1029.13   56.76
   9   2   0 1004.92   55.31
   9   2   1  131.47   25.05
   9  -2  -1  115.27   23.22
   9   2   2   91.35   23.14
   9  -2  -2   94.96   23.03
   9  -2  -3   27.58   18.21
   9  -2  -4  104.72   23.85
   9  -2  -5  724.28   50.02
   9  -2  -6    3.37   17.24
   9  -2  -7  233.42   32.82
   9  -2  -8  242.23   34.07
   9  -2  -9  124.98   28.60
  -9   2  -9  199.20   19.99
   9  -2 -10  734.26   59.10
   9  -2 -11   87.19   27.80
  -2   9 -11   72.07   29.29
   2  -9 -12   78.59   35.20
   9  -2 -12  150.26   26.51
   2  -9 -12   44.85   48.41
  -2   9 -12   98.67   32.04
   2  -9 -13   72.76   35.76
  -2   9 -13  125.70   32.74
   2  -9 -13  113.69   48.98
   9  -2 -13  144.15   25.96
   2  -9 -14    8.76   40.08
  -2   9 -14   15.77   26.64
   9  -2 -14   58.81   25.60
   2  -9 -15   85.99   39.61
  -2   9 -15   92.53   31.05
   9  -2 -15  134.81   26.23
   2  -9 -16   55.86   34.81
   9  -2 -16  114.48   25.67
  -2   9 -16  164.44   35.83
   2  -9 -17   43.31   31.86
   2  -9 -18   45.17   29.66
   2  -9 -19   -0.07   23.21
   2  -9 -20  165.89   26.15
  -3  -9 -20    7.44   20.34
  -3  -9 -19  307.05   35.27
  -3  -9 -18   -2.85   28.11
  -9  -3 -18   20.02   24.74
  -3  -9 -17   96.52   34.79
  -9  -3 -17  100.74   27.57
  -9  -3 -16   52.12   27.94
  -3  -9 -16  105.30   38.91
  -9  -3 -15   27.30   28.49
  -3  -9 -15    6.01   38.60
  -3  -9 -14  174.29   49.26
  -9  -3 -14  128.79   33.02
  -9  -3 -13   55.21   30.87
  -3  -9 -13   58.76   49.62
   3   9 -12   27.52   28.66
  -9  -3 -12   33.34   31.73
   3   9 -11  438.30   49.92
   3   9 -10   10.17   27.53
   3   9  -9 1419.56   70.91
   9   3  -9 1052.39   62.78
   9   3  -8   39.72   21.74
   3   9  -8    2.72   25.28
   9   3  -7  566.09   45.15
   9   3  -6  337.87   35.93
   9   3  -5 2134.74   82.33
   9  -3   4  984.37   55.09
   9   3  -4  989.62   55.99
   9   3  -3   50.96   19.20
   9  -3   3   41.24   19.44
   9   3  -2   44.40   18.99
   9  -3   2   42.30   17.55
   9  -3   1  675.93   46.34
   9   3  -1  711.92   47.57
   9   3   0    9.67   16.35
   9  -3   0   10.26   16.63
   9  -3  -1  692.61   46.07
   9   3   1  680.58   49.42
   9  -3  -2   49.40   19.25
   9  -3  -3   43.64   21.24
   9  -3  -4  886.47   54.48
   9  -3  -5 2005.93   82.65
   9  -3  -6  331.35   37.41
   9  -3  -7  552.31   48.06
   9  -3  -8    9.84   18.79
  -9   3  -8    5.59   12.52
   9  -3  -9 1126.84   70.92
  -9   3  -9 1023.82   33.28
   9  -3 -10  -26.08   22.50
  -9   3 -10   25.18   13.54
   3  -9 -11  369.08   54.23
   9  -3 -11  411.74   48.82
   3  -9 -12    5.74   47.22
   3  -9 -12   25.45   33.91
   9  -3 -12   24.45   22.76
   9  -3 -12    1.85   23.53
   3  -9 -13   14.48   33.49
   9  -3 -13   72.87   24.82
   3  -9 -13   61.34   46.14
  -3   9 -13   72.04   30.20
   3  -9 -14  166.50   45.72
  -3   9 -14  109.75   33.98
   9  -3 -14  137.56   26.38
  -3   9 -15    3.98   24.05
   9  -3 -15   34.48   23.76
   3  -9 -15   -0.47   36.13
  -3   9 -16   45.90   27.64
   9  -3 -16   56.70   24.24
   3  -9 -16   32.89   34.48
   9  -3 -17  134.02   27.41
   3  -9 -17   98.37   34.24
   3  -9 -18  -19.66   26.82
   3  -9 -19  273.31   33.57
   3  -9 -20   -7.32   20.41
  -4  -9 -20  167.85   26.25
  -4  -9 -19    8.98   24.43
  -9  -4 -18  314.87   32.08
  -4  -9 -18  340.39   40.63
  -9  -4 -17   79.01   28.41
  -4  -9 -17    8.51   32.70
  -9  -4 -16  132.71   31.64
  -4  -9 -16  153.49   40.73
  -9  -4 -15   86.88   32.72
  -4  -9 -15  136.07   44.02
  -4  -9 -14   75.43   46.73
  -9  -4 -14   52.16   32.35
  -4  -9 -13   64.87   51.18
  -9  -4 -13   75.73   35.52
  -9  -4 -12  157.66   39.27
   4   9 -11  133.46   38.36
  -9  -4 -11  156.08   38.44
   4   9 -10  819.83   65.68
   9   4  -9  250.35   32.02
   4   9  -9  252.62   41.41
   9   4  -8 1073.96   60.93
   4   9  -8  744.15   67.45
   9   4  -7   14.30   15.11
   9   4  -6  836.51   53.76
   9   4  -5 1718.97   74.33
   9  -4   5 1767.21   69.43
   9   4  -4  905.57   54.68
   9  -4   4  954.31   54.07
   4  -9   3  150.34   24.95
   9  -4   3  156.72   27.26
   9   4  -3  161.85   26.95
   9  -4   2  117.90   24.87
   9   4  -2  102.72   23.90
   9   4  -1  580.49   45.80
   9  -4   1  563.46   44.30
   9  -4   0 1394.65   64.50
   9   4   0 1334.20   68.09
   9  -4  -1  593.73   44.46
   9  -4  -2   92.56   24.58
   9  -4  -3  144.94   28.28
   9  -4  -4  920.44   58.02
   9  -4  -5 1717.96   79.17
   9  -4  -6  776.06   55.58
   9  -4  -7   14.46   18.71
  -4   9  -8  936.68   30.80
  -9   4  -8 1037.73   33.50
   9  -4  -8 1092.33   69.65
  -9   4  -9  270.23   19.75
  -4   9  -9  225.69   17.57
   9  -4  -9  246.29   35.76
  -9   4 -10  754.62   29.51
   4  -9 -10  787.71   75.11
   9  -4 -10  810.42   64.68
   9  -4 -11  143.98   33.53
   4  -9 -11  168.22   43.51
   4  -9 -12  165.14   44.71
   9  -4 -12  132.58   33.91
   4  -9 -12  184.24   51.63
   9  -4 -12  137.20   26.38
   4  -9 -13   37.01   44.02
   9  -4 -13   40.05   24.24
   4  -9 -13   57.92   35.76
  -4   9 -14   56.47   28.43
   4  -9 -14   70.34   40.75
   9  -4 -14   56.70   24.53
   4  -9 -15   59.40   35.25
  -4   9 -15   78.78   29.51
   9  -4 -15  103.25   26.15
   4  -9 -16  123.24   37.94
  -4   9 -16   76.96   29.20
   9  -4 -16  130.42   28.01
   9  -4 -17   78.10   25.13
   4  -9 -17    8.95   29.74
  -4   9 -17   23.21   23.39
   4  -9 -18  311.50   38.32
   4  -9 -19   -6.38   21.93
   4  -9 -20  201.46   26.98
  -5  -9 -20   39.49   20.74
  -9  -5 -19  186.87   24.00
  -5  -9 -19  285.76   34.33
  -5  -9 -18   -7.61   28.67
  -9  -5 -18    4.25   22.32
  -9  -5 -17  410.83   40.77
  -5  -9 -17  435.16   47.23
  -9  -5 -16  177.61   34.80
  -5  -9 -16  213.73   43.19
  -5  -9 -15  499.42   56.59
  -9  -5 -15  452.24   45.77
  -5  -9 -14   48.44   47.09
  -9  -5 -14   14.21   33.08
  -9  -5 -13  114.76   40.72
  -5  -9 -13  105.04   54.72
  -9  -5 -12   19.90   39.36
  -9  -5 -11  210.14   47.15
  -9  -5 -10  491.53   54.21
   9   5  -8   12.61   14.97
   9   5  -7 1395.29   69.67
   9   5  -6  858.13   55.49
   9   5  -5 1225.03   64.87
   9  -5   5 1161.85   55.20
   9  -5   4 1911.69   76.05
   9   5  -4 1818.29   79.42
   9   5  -3 2025.63   82.83
   5  -9   3 1888.22   69.43
   9  -5   3 1960.64   77.86
   5  -9   2  119.71   26.09
   9   5  -2  108.85   26.03
   9  -5   2  115.47   25.47
   5  -9   1 1410.84   69.09
   9  -5   1 1488.42   68.73
   9  -5   0 1910.10   78.27
   9  -5  -1 1453.85   69.85
   9  -5  -2  115.80   25.71
   9  -5  -3 1996.57   84.17
   9  -5  -4 1860.34   84.39
   9  -5  -5 1177.59   68.63
   9  -5  -6  853.03   61.20
  -9   5  -7 1332.37   37.46
  -5   9  -7 1262.13   35.73
   9  -5  -8   -6.49   23.26
   5  -9  -8   15.86   26.91
  -5   9  -8    6.83   10.62
  -9   5  -8   -5.11   12.45
   9  -5  -9  869.06   66.45
  -5   9  -9  830.18   31.17
  -9   5  -9  861.25   31.75
   5  -9  -9  852.15   77.81
   9  -5 -10  504.11   53.62
  -5   9 -10  509.61   25.80
  -9   5 -10  513.41   26.37
   5  -9 -10  557.97   66.28
   5  -9 -11  245.74   56.24
   5  -9 -11  216.50   47.48
   9  -5 -11  221.77   41.44
   5  -9 -12   18.07   29.60
   5  -9 -12    1.98   44.95
   9  -5 -12   15.87   25.78
   5  -9 -13   59.77   35.33
   9  -5 -13   95.01   26.26
   5  -9 -13  118.72   45.53
   9  -5 -14   31.68   26.47
   5  -9 -14   12.71   36.73
   9  -5 -15  349.99   35.71
  -5   9 -15  474.91   49.13
   5  -9 -15  409.66   48.93
   5  -9 -16  139.66   35.09
   9  -5 -16  185.12   28.86
  -5   9 -16  135.38   32.76
   9  -5 -17  328.09   33.92
  -5   9 -17  373.34   41.57
   5  -9 -17  424.34   43.97
   5  -9 -18  -23.11   26.32
   5  -9 -19  253.64   30.55
   5  -9 -20    8.22   17.83
  -6  -9 -20   38.05   19.55
  -6  -9 -19   16.85   23.77
  -9  -6 -19  -17.25   19.32
  -6  -9 -18  241.97   36.74
  -9  -6 -18  181.60   28.92
  -9  -6 -17  224.28   34.71
  -6  -9 -17  166.71   38.66
  -6  -9 -16  433.95   50.71
  -9  -6 -16  423.38   45.08
  -9  -6 -15  217.88   38.86
  -6  -9 -15  220.36   48.71
  -9  -6 -14  485.36   50.57
  -6  -9 -14  417.31   60.64
  -6  -9 -13   -4.39   52.16
  -9  -6 -13   -7.35   38.84
  -9  -6 -12   60.91   46.10
  -9  -6 -11  186.38   53.85
   9   6  -7  753.39   53.75
   9   6  -6  433.29   41.91
   9   6  -5 1288.59   69.87
   9  -6   4  507.33   42.07
   9  -6   3 1277.45   65.39
   6  -9   3 1305.44   60.30
   6  -9   2 1304.24   64.48
   9  -6   2 1233.35   65.23
   6  -9   1 2218.47   87.77
   9  -6   1 2355.92   86.63
   9  -6   0 1088.41   61.90
   6  -9   0 1042.39   64.27
   9  -6  -1 2223.41   89.62
   6  -9  -1 2231.48   95.99
   9  -6  -2 1338.30   72.36
   6  -9  -2 1323.44   78.11
   9  -6  -3 1292.23   72.17
   6  -9  -3 1335.51   79.75
   9  -6  -4  531.74   49.20
   6  -9  -4  537.63   56.48
   6  -9  -5 1513.08   90.51
   9  -6  -5 1387.58   79.71
   6  -9  -6  422.43   55.52
   9  -6  -6  406.59   45.65
  -9   6  -6  431.20   22.94
  -6   9  -6  368.26   21.44
   9  -6  -7  833.56   70.00
  -6   9  -7  853.45   30.69
   6  -9  -7  933.20   76.09
  -9   6  -7  885.28   31.70
  -6   9  -8  541.29   27.53
   6  -9  -8  638.00   68.87
  -9   6  -8  619.41   27.99
   9  -6  -8  614.64   58.01
   6  -9  -9  226.61   46.86
  -9   6  -9  253.48   20.73
   9  -6  -9  218.26   40.46
  -6   9  -9  244.29   19.66
  -6   9 -10   49.51   13.78
   6  -9 -10   32.98   30.29
   9  -6 -10   43.84   25.91
  -9   6 -10   54.48   13.76
   9  -6 -11  146.32   37.51
  -9   6 -11  158.79   17.20
   6  -9 -11  133.32   49.58
   6  -9 -11  152.67   43.80
   6  -9 -12    7.65   30.45
   6  -9 -12   -4.15   43.00
   9  -6 -12    5.62   25.29
   9  -6 -13  -11.79   25.16
   6  -9 -13   14.12   38.02
   6  -9 -13   14.74   29.45
   9  -6 -14  328.13   36.71
   6  -9 -14  349.42   46.78
   6  -9 -15  190.33   38.26
   9  -6 -15  160.53   29.02
  -6   9 -15  233.72   37.71
   9  -6 -16  317.87   33.75
   6  -9 -16  365.94   44.60
  -6   9 -16  311.09   44.68
  -6   9 -17  148.39   31.05
   9  -6 -17  204.61   28.15
   6  -9 -17  164.79   32.69
  -6   9 -18  157.73   28.17
   6  -9 -18  202.05   31.05
  -9   6 -18  114.28   24.65
   6  -9 -19    0.40   19.89
  -9  -7 -19   26.19   18.37
  -7  -9 -19    8.66   21.85
  -9  -7 -18   83.99   25.76
  -7  -9 -18  107.56   30.42
  -9  -7 -17  167.50   33.46
  -7  -9 -17  170.27   36.76
  -7  -9 -16  685.12   58.40
  -9  -7 -16  649.46   51.75
  -9  -7 -15  248.97   42.48
  -7  -9 -15  227.70   48.27
  -7  -9 -14  274.85   55.63
  -9  -7 -14  225.85   44.99
  -9  -7 -13  138.14   47.85
  -7  -9 -13  143.37   59.83
  -9  -7 -12   -2.33   48.37
  -9  -7 -11  346.35   73.60
   9  -7   4 3308.09  101.37
   9  -7   3  259.47   33.68
   7  -9   3  222.93   31.01
   7  -9   2  272.15   34.31
   9  -7   2  267.33   33.41
   7  -9   1  650.94   52.61
   9  -7   1  710.64   52.20
   7  -9   0 2470.01   98.43
   9  -7   0 2516.83   96.02
   7  -9  -1  695.38   57.51
   9  -7  -1  722.78   55.65
   9  -7  -2  251.50   37.11
   7  -9  -2  248.27   40.67
   7  -9  -3  246.55   42.98
   9  -7  -3  276.10   41.10
   7  -9  -4 3540.59  135.88
   9  -7  -4 3392.51  124.03
  -7   9  -5  204.15   18.19
  -9   7  -5  225.02   18.03
   7  -9  -5  196.07   40.73
   9  -7  -5  243.50   39.57
  -9   7  -6 2106.32   47.59
  -7   9  -6 2127.31   46.73
   9  -7  -6 2063.18  102.77
   7  -9  -6 2233.73  114.58
  -7   9  -7  267.20   20.96
   7  -9  -7  287.58   49.03
  -9   7  -7  301.70   21.44
   9  -7  -7  315.37   45.34
   9  -7  -8  196.45   40.58
  -9   7  -8  223.76   19.43
   7  -9  -8  208.57   44.60
  -7   9  -8  248.11   19.39
  -9   7  -9   83.75   15.78
  -7   9  -9   86.61   16.45
   7  -9  -9   64.77   34.28
   9  -7  -9   86.34   33.03
   7  -9 -10  243.15   52.88
  -7   9 -10  259.22   21.80
   7  -9 -10  217.66   49.02
   9  -7 -10  235.71   45.64
  -9   7 -10  266.48   20.79
   9  -7 -11    8.18   25.91
  -7   9 -11    4.17   11.75
   7  -9 -11   26.38   42.52
  -9   7 -11    3.84   11.79
   7  -9 -11   -7.57   31.24
   9  -7 -12    9.29   27.02
   7  -9 -12   18.52   39.56
   7  -9 -12   -4.43   31.99
   7  -9 -13  141.27   39.68
   9  -7 -13   46.73   26.48
   7  -9 -13   76.34   35.96
   7  -9 -14  210.20   39.93
   9  -7 -15  148.39   29.67
   7  -9 -15  173.43   37.18
   9  -7 -16  582.10   40.32
   7  -9 -16  619.72   48.01
   7  -9 -17  176.82   32.75
  -7   9 -17  122.31   27.63
   7  -9 -18   87.49   24.28
  -9   7 -18  126.80   25.58
  -7   9 -18   69.11   22.23
   7  -9 -19   21.90   18.87
  -8  -9 -19   28.80   20.20
  -9  -8 -19    9.83   17.00
  -9  -8 -18    5.76   22.32
  -8  -9 -18   20.52   25.45
  -8  -9 -17  368.83   42.88
  -9  -8 -17  352.85   39.95
  -9  -8 -16   27.57   32.66
  -8  -9 -16   20.87   34.47
  -8  -9 -15  814.79   65.23
  -9  -8 -15  864.70   62.44
  -9  -8 -14   56.48   42.56
  -8  -9 -14   56.65   47.63
  -8  -9 -13  354.11   64.51
  -9  -8 -13  428.78   59.89
  -9  -8 -12   35.72   53.67
  -8  -9 -12   20.96   59.17
   9  -8   3 1238.87   67.55
   8  -9   3 1295.82   65.57
   8  -9   2   17.62   19.02
   9  -8   2    7.95   18.78
   9  -8   1  -19.43   22.78
   8  -9   1    5.07   21.13
   9  -8   0   56.39   27.12
   8  -9   0   70.45   27.62
   9  -8  -1    5.75   22.09
   8  -9  -1   -2.93   23.45
   9  -8  -2    7.90   24.00
   8  -9  -2   20.12   24.93
   9  -8  -3 1298.93   80.16
   8  -9  -3 1318.06   83.69
   8  -9  -4   30.82   28.00
  -8   9  -4   34.58   11.54
  -9   8  -4   31.81   11.78
   9  -8  -4   47.17   27.44
  -8   9  -5 2132.32   46.92
   8  -9  -5 2281.69  114.40
   9  -8  -5 2219.47  110.46
  -9   8  -5 2084.05   46.84
   8  -9  -6  120.14   35.48
  -8   9  -6  108.53   15.72
  -9   8  -6  131.99   16.32
   9  -8  -6  109.35   34.68
  -9   8  -7 1223.58   38.44
  -8   9  -7 1260.22   38.20
   8  -9  -7 1175.57   88.59
   9  -8  -7 1121.53   85.66
  -9   8  -8   12.39   12.57
   8  -9  -8   25.45   32.22
  -8   9  -8    4.27   11.90
   9  -8  -8   40.84   30.64
  -8   9  -9   -3.87   13.68
   8  -9  -9   21.37   31.01
   9  -8  -9  -18.72   29.93
  -9   8  -9    0.48   14.35
  -8   9 -10   35.78   14.74
  -9   8 -10   17.53   12.59
   9  -8 -10   20.55   29.26
   8  -9 -10   16.75   29.63
   9  -8 -11    8.97   28.03
  -8   9 -11   41.53   14.12
  -9   8 -11   36.70   14.49
   8  -9 -11   34.10   39.05
   8  -9 -11   39.25   30.81
   9  -8 -12   -8.20   31.12
   8  -9 -12  -12.07   34.52
   8  -9 -12    9.29   28.89
   8  -9 -13  321.77   43.43
   8  -9 -14   -3.68   30.30
   8  -9 -15  783.70   52.46
   8  -9 -16   73.56   29.34
  -8   9 -16   20.46   23.60
  -8   9 -17  416.58   42.43
  -9   8 -17  498.24   42.44
  -9   8 -18    3.53   16.90
  -8   9 -18   16.13   23.20
  -9   8 -19   -0.19   14.39
  -9  -9 -18   87.82   25.90
  -9  -9 -17  -16.25   28.15
  -9  -9 -16  717.02   56.21
  -9  -9 -15  -36.35   40.62
  -9  -9 -14  865.05   69.76
  -9  -9 -13   -0.88   49.11
  -9  -9 -12  362.42   69.77
   9  -9   3  146.82   36.60
   9  -9   2  343.15   40.62
   9  -9   1    1.33   20.18
   9  -9   0  494.51   50.65
   9  -9  -1   -1.97   24.40
   9  -9  -2  368.24   47.80
  -9   9  -2  327.21   20.05
  -9   9  -3    2.47   10.79
   9  -9  -3   -8.91   25.10
   9  -9  -4 2327.45  115.66
  -9   9  -4 2142.31   47.50
  -9   9  -5  -20.51   13.45
   9  -9  -5  -13.69   26.27
   9  -9  -6 2242.54  120.42
  -9   9  -6 2266.58   50.92
  -9   9  -7    1.35   12.24
   9  -9  -7  -11.00   27.88
   9  -9  -8  101.66   39.28
  -9   9  -8  115.16   16.77
  -9   9  -9    5.13   12.59
   9  -9  -9   -4.10   29.63
  -9   9 -10   56.12   15.85
   9  -9 -10   43.84   37.00
   9  -9 -11    3.47   30.49
  -9   9 -11   -4.48   12.86
  -9   9 -12  318.72   22.78
   9  -9 -12  256.87   51.45
  -9   9 -16  959.64   60.66
  -9   9 -17  -45.39   24.35
  -9   9 -18  115.50   24.72
  10   0   0 4013.73  113.39
  10   0  -1  122.23   26.36
  10   0   1  110.48   25.00
  10   0   2  303.66   35.17
  10   0  -2  286.47   34.42
  10   0  -3  226.09   31.08
  10   0   3  237.78   33.80
  10   0  -4  192.41   33.41
  10   0  -5   30.89   20.94
  10   0  -6  143.06   28.80
  10   0  -7  230.77   33.87
   0  10  -7  224.37   33.42
  10   0  -8  923.91   64.15
   0  10  -8  827.74   55.45
  10   0  -9   -2.81   19.11
   0  10  -9   -9.27   23.33
 -10   0  -9   60.83   22.93
  10   0 -10 1228.12   79.47
   0  10 -10 1261.89   68.19
   0  10 -11  213.84   38.19
  10   0 -11  216.14   39.52
   0  10 -12  982.95   66.29
   0  10 -13   -1.94   27.18
   0 -10 -13    5.67   51.29
   0 -10 -14  131.11   48.74
   0  10 -14  166.31   38.96
   0 -10 -15  188.25   47.21
   0  10 -15  198.16   40.30
   0 -10 -16   30.32   37.29
   0 -10 -17   81.40   36.46
   0 -10 -18  -10.00   29.50
   0 -10 -19   69.96   27.53
   0 -10 -20  232.04   29.46
  -1 -10 -20   83.24   24.93
  -1 -10 -19   58.50   27.50
  -1 -10 -18   22.13   30.07
  -1 -10 -17   40.81   33.89
  -1 -10 -16  135.04   41.24
  -1 -10 -15   31.87   41.25
  -1 -10 -14   52.78   46.48
   1  10 -14   37.76   30.85
  -1 -10 -13  263.09   60.01
   1  10 -13  324.91   46.14
   1  10 -12   29.15   29.41
   1  10 -11  804.94   61.16
   1  10 -10  131.00   36.35
  10   1 -10  189.89   35.29
  10   1  -9  718.04   57.71
   1  10  -9  752.99   54.07
  10   1  -8   46.58   22.07
   1  10  -8   64.63   26.30
  10   1  -7  331.21   39.91
   1  10  -7  298.33   37.39
  10   1  -6   85.70   25.40
  10   1  -5  111.60   26.21
  10   1  -4   17.97   17.67
  10  -1   4   15.45   19.36
  10  -1   3   93.46   25.73
  10   1  -3  124.37   26.56
  10   1  -2   58.59   21.32
  10  -1   2   67.06   23.34
  10  -1   1 1036.43   59.46
  10   1  -1 1079.80   60.80
  10   1   0  143.54   26.62
  10  -1   0  152.15   27.37
  10   1   1 1044.93   60.00
  10  -1  -1 1031.86   60.20
  10   1   2   65.63   24.08
  10  -1  -2   57.94   21.20
  10   1   3  113.46   27.71
  10  -1  -3   90.48   24.28
  10  -1  -4  135.76   30.27
  10  -1  -5  116.55   27.33
  10  -1  -6   84.29   25.13
  10  -1  -7  284.45   37.86
  -1  10  -7  202.73   36.20
  -1  10  -8   35.81   12.68
 -10   1  -8   46.26   17.60
  -1  10  -8   40.60   24.47
  10  -1  -8   43.31   21.65
  -1  10  -9  579.68   27.61
 -10   1  -9  667.84   30.83
  10  -1  -9  655.18   57.25
  10  -1 -10  204.72   39.28
  -1  10 -10  136.79   33.33
  10  -1 -11  723.77   64.46
  -1  10 -11  809.87   58.31
  -1  10 -12    6.58   24.61
   1 -10 -13  165.78   59.58
  -1  10 -13  239.36   42.76
   1 -10 -13  163.68   48.99
  10  -1 -14  141.84   25.86
   1 -10 -14   57.77   45.75
  -1  10 -14   48.31   29.22
   1 -10 -15   12.77   39.39
  -1  10 -15   -1.19   28.07
   1 -10 -16  182.19   43.61
   1 -10 -17   47.35   34.69
   1 -10 -18  -15.24   29.43
   1 -10 -19   73.73   27.85
   1 -10 -20  105.01   25.74
  -2 -10 -20   40.66   21.45
  -2 -10 -19  146.24   30.39
  -2 -10 -18   48.35   30.68
  -2 -10 -17   41.25   34.79
  -2 -10 -16   54.49   37.85
  -2 -10 -15   64.72   42.99
  -2 -10 -14  197.52   53.09
  -2 -10 -13  -15.04   52.16
   2  10 -13    3.49   30.33
   2  10 -12  301.67   47.87
   2  10 -11  141.69   36.01
  10   2 -10  372.51   44.37
   2  10 -10  361.51   54.01
  10   2  -9  645.92   53.92
   2  10  -9  787.19   59.09
  10   2  -8  145.68   28.39
   2  10  -8  149.97   32.25
   2  10  -7  106.47   31.02
  10   2  -7   78.75   24.31
  10   2  -6  217.12   32.41
  10   2  -5  130.38   27.10
  10   2  -4   38.78   21.75
  10  -2   4   31.59   19.42
  10   2  -3   29.43   19.76
  10  -2   3   -0.60   18.65
  10   2  -2  646.37   48.40
  10  -2   2  631.82   48.12
  10  -2   1   61.07   21.81
  10   2  -1   42.47   20.40
  10  -2   0 1038.98   60.78
  10   2   0 1070.61   61.51
  10   2   1   45.64   21.35
  10  -2  -1   67.19   23.32
  10   2   2  646.86   51.70
  10  -2  -2  615.12   48.11
  10  -2  -3   24.52   20.61
  10  -2  -4   39.30   21.62
  10  -2  -5  140.95   29.24
  10  -2  -6  215.03   32.74
  10  -2  -7   74.63   24.95
  -2  10  -7   56.92   23.30
 -10   2  -8  163.36   19.52
  -2  10  -8  104.61   26.75
  10  -2  -8  114.22   28.79
  -2  10  -8  107.90   14.69
 -10   2  -9  649.48   29.15
  -2  10  -9  578.46   49.89
  10  -2  -9  625.80   55.75
  -2  10  -9  567.83   26.96
  -2  10 -10  331.19   42.77
 -10   2 -10  399.22   24.03
  10  -2 -10  371.20   47.08
  -2  10 -11  121.46   32.79
  10  -2 -11  131.42   34.23
  -2  10 -12  302.36   44.35
   2 -10 -13   21.82   40.03
   2 -10 -13   18.44   49.13
  -2  10 -13   -6.11   26.55
   2 -10 -14  137.88   49.51
  -2  10 -14  179.81   38.30
  10  -2 -15   22.51   20.29
   2 -10 -15   15.45   38.80
  -2  10 -15   32.33   27.00
   2 -10 -16   40.94   36.90
  -2  10 -16   23.49   28.20
   2 -10 -17   10.80   32.28
   2 -10 -18   17.14   30.54
   2 -10 -19  135.57   29.95
   2 -10 -20   48.87   22.65
  -3 -10 -20  142.65   25.80
  -3 -10 -19   -7.04   24.42
  -3 -10 -18  238.39   38.73
  -3 -10 -17   31.60   35.60
  -3 -10 -16   69.36   39.09
  -3 -10 -15   -2.53   42.02
  -3 -10 -14  -16.78   47.73
  -3 -10 -13  125.83   56.98
   3  10 -12   42.89   35.10
   3  10 -11    4.63   29.83
   3  10 -10  362.49   48.90
   3  10  -9   90.10   36.90
  10   3  -9  100.01   25.91
   3  10  -8 1127.17   69.94
  10   3  -8  953.89   63.27
   3  10  -7   61.63   36.14
  10   3  -7  123.47   26.52
  10   3  -6  582.05   48.20
  10   3  -5   58.74   21.86
  10  -3   4  464.86   42.70
  10   3  -4  494.20   43.44
  10   3  -3  235.73   32.55
  10  -3   3  211.67   31.13
  10   3  -2   94.47   25.20
  10  -3   2  100.04   25.51
  10   3  -1  179.36   30.27
  10  -3   1  177.16   28.96
  10  -3   0  196.96   31.21
  10   3   0  182.12   30.63
  10   3   1  171.38   31.10
  10  -3  -1  135.99   27.34
  10  -3  -2  104.06   25.64
  10  -3  -3  209.25   31.21
  10  -3  -4  447.19   42.50
  10  -3  -5   46.90   22.13
  10  -3  -6  564.00   49.79
  -3  10  -7  103.93   13.96
  10  -3  -7  126.60   28.19
  -3  10  -8  824.06   30.29
 -10   3  -8  964.28   33.43
  10  -3  -8  972.16   65.41
  10  -3  -9   99.19   29.87
 -10   3  -9   97.55   17.07
  -3  10  -9   72.48   14.74
  10  -3 -10  340.04   45.66
 -10   3 -10  376.39   22.41
  -3  10 -11   12.75   24.49
  10  -3 -11   -0.18   23.22
  -3  10 -12   17.16   26.53
  10  -3 -12   18.38   23.27
   3 -10 -12   14.34   32.70
   3 -10 -12    1.55   53.80
   3 -10 -13  135.74   53.22
   3 -10 -13   89.83   41.74
  -3  10 -13  109.03   34.28
   3 -10 -14   14.46   42.61
  -3  10 -14   12.38   25.74
  -3  10 -15   22.34   25.97
   3 -10 -15   -2.00   37.48
   3 -10 -16   54.86   36.16
  -3  10 -16   40.45   26.29
   3 -10 -17   -6.17   32.21
  -3  10 -17   17.58   26.10
   3 -10 -18  173.45   34.80
   3 -10 -19   -1.23   23.87
   3 -10 -20  125.71   24.09
  -4 -10 -20   35.41   21.33
  -4 -10 -19  303.51   35.36
  -4 -10 -18   79.68   35.51
  -4 -10 -17  535.81   51.62
  -4 -10 -16   54.67   38.76
  -4 -10 -15  256.53   50.41
  -4 -10 -14   32.40   48.07
  -4 -10 -13   24.95   54.46
   4  10 -10   50.29   34.70
   4  10  -9  890.62   75.70
  10   4  -9  935.13   62.71
  10   4  -8   47.40   20.46
   4  10  -8   14.15   34.82
  10   4  -7 2016.71   87.68
   4  10  -7 2283.24   98.07
  10   4  -6   -3.01   17.71
  10   4  -5 1196.06   66.54
  10  -4   5 1192.94   62.97
  10  -4   4  619.06   47.06
  10   4  -4  597.28   48.59
   4 -10   3  890.14   52.57
  10  -4   3  958.92   59.23
  10   4  -3  957.80   60.30
  10  -4   2   40.39   21.69
  10   4  -2   21.93   24.36
  10  -4   1  605.80   48.56
  10   4  -1  627.77   50.32
  10  -4   0  156.81   29.54
  10   4   0  154.86   31.44
  10  -4  -1  648.71   49.26
  10  -4  -2   28.76   22.23
  10  -4  -3 1023.24   63.21
  10  -4  -4  630.24   51.37
  10  -4  -5 1141.58   68.53
 -10   4  -6   -0.78   13.48
  10  -4  -6   -4.34   20.66
  10  -4  -7 1963.36   92.97
  -4  10  -7 1827.59   42.90
 -10   4  -7 1977.67   45.90
 -10   4  -8   52.36   13.96
  -4  10  -8   39.53   12.31
  10  -4  -8   33.85   22.24
  -4  10  -9  991.86   34.09
 -10   4  -9 1102.12   35.28
  10  -4  -9 1038.23   72.69
  -4  10 -10   66.39   13.77
  10  -4 -10   47.84   26.22
   4 -10 -10   58.56   34.32
 -10   4 -10   68.25   14.83
   4 -10 -11   69.37   40.18
  10  -4 -11   73.34   29.63
 -10   4 -11   83.83   14.28
   4 -10 -12   14.86   34.68
   4 -10 -12    7.85   51.45
  10  -4 -12   11.86   25.81
  -4  10 -12   18.14   26.29
   4 -10 -13  -20.22   32.22
   4 -10 -13  -12.43   46.67
  -4  10 -13   17.42   26.83
   4 -10 -14   41.02   42.62
  -4  10 -14   44.31   28.20
   4 -10 -15  181.44   43.44
  -4  10 -15  250.54   39.24
   4 -10 -16    0.84   34.08
  -4  10 -16  -14.12   27.28
  -4  10 -17  501.24   46.73
   4 -10 -17  435.13   47.77
   4 -10 -18   -6.38   27.82
   4 -10 -19  252.16   32.45
   4 -10 -20   -2.78   19.17
  -5 -10 -20   69.66   20.80
  -5 -10 -19   12.92   24.03
  -5 -10 -18  441.15   44.06
  -5 -10 -17   -0.89   33.09
  -5 -10 -16  554.70   57.71
 -10  -5 -16  402.42   43.08
  -5 -10 -15   -7.63   42.24
 -10  -5 -15   19.44   27.50
  -5 -10 -14  308.53   60.26
 -10  -5 -14  209.98   40.91
 -10  -5 -13  -18.98   34.00
  -5 -10 -13   22.63   55.66
  10   5  -8 1000.19   64.69
  10   5  -7   44.26   20.30
  10   5  -6 1805.77   83.24
  10   5  -5  187.14   31.24
  10  -5   4 1110.29   62.43
  10   5  -4 1072.46   66.09
  10   5  -3  255.59   35.31
   5 -10   3  236.66   30.51
  10  -5   3  236.09   32.29
   5 -10   2  566.47   47.71
  10   5  -2  562.71   51.19
  10  -5   2  599.66   50.34
   5 -10   1  685.38   53.57
  10  -5   1  697.44   52.78
  10  -5   0  312.45   36.76
  10  -5  -1  746.26   55.32
  10  -5  -2  635.94   52.46
  10  -5  -3  274.40   37.90
  10  -5  -4 1089.27   67.87
  10  -5  -5  167.18   31.43
 -10   5  -5  188.58   17.81
  -5  10  -6 1759.35   42.40
 -10   5  -6 1770.91   43.67
  10  -5  -6 1780.72   88.42
  10  -5  -7   42.19   22.88
  -5  10  -7   46.11   12.41
 -10   5  -7   51.93   13.52
  -5  10  -8 1033.79   35.56
   5 -10  -8 1175.10   89.55
 -10   5  -8 1057.31   36.32
  10  -5  -8 1015.90   72.67
   5 -10  -9  202.22   47.23
 -10   5  -9  223.91   19.71
  10  -5  -9  204.69   38.05
  -5  10  -9  221.34   19.10
  -5  10 -10  107.63   16.31
 -10   5 -10  101.51   15.87
  10  -5 -10   81.28   28.93
   5 -10 -10  101.31   39.54
  10  -5 -11   -7.04   25.40
   5 -10 -11    7.05   31.88
 -10   5 -11   14.76   11.48
   5 -10 -12  -24.86   35.72
   5 -10 -12    2.66   48.43
  10  -5 -12   -1.76   24.35
  -5  10 -13   15.98   26.44
   5 -10 -13  -38.97   39.22
   5 -10 -13   18.97   45.10
   5 -10 -14  269.72   49.70
  -5  10 -14  277.70   44.05
   5 -10 -15   -6.07   34.65
  -5  10 -15   33.63   27.49
   5 -10 -16  481.93   50.07
  -5  10 -16  565.66   50.84
   5 -10 -17   -1.71   29.65
  -5  10 -17  -32.75   26.84
   5 -10 -18  385.37   40.18
  -5  10 -18  265.29   34.55
   5 -10 -19   24.01   22.57
  -6 -10 -19  104.06   28.71
  -6 -10 -18    2.63   27.56
  -6 -10 -17  546.46   52.11
 -10  -6 -16  196.20   34.53
  -6 -10 -16  196.47   44.40
  -6 -10 -15  556.85   62.56
 -10  -6 -15  372.96   46.29
 -10  -6 -14    6.93   32.36
  -6 -10 -14   52.35   50.92
  -6 -10 -13  260.26   65.60
 -10  -6 -13  189.84   45.02
 -10  -6 -12  557.93   66.45
  10   6  -7 1096.15   67.81
  10   6  -6  703.38   56.26
  10   6  -5 1603.35   81.52
  10  -6   4  785.24   54.12
  10  -6   3  557.11   48.95
   6 -10   3  456.83   42.54
   6 -10   2    2.42   20.26
  10  -6   2   25.90   19.83
   6 -10   1  394.08   43.27
  10  -6   1  402.61   42.59
   6 -10   0  637.88   56.66
  10  -6   0  746.41   56.14
   6 -10  -1  416.73   50.79
  10  -6  -1  474.64   47.05
  10  -6  -2   34.11   22.57
   6 -10  -2   18.59   25.89
   6 -10  -3  517.47   58.77
  10  -6  -3  567.28   53.16
 -10   6  -4  708.16   27.91
  10  -6  -4  755.52   61.03
   6 -10  -5 1645.11  102.63
  -6  10  -5 1630.01   41.23
  10  -6  -5 1728.83   89.04
 -10   6  -5 1611.98   41.30
  -6  10  -6  810.17   30.55
 -10   6  -6  759.12   30.37
   6 -10  -6  851.47   75.63
  10  -6  -6  749.38   62.89
  -6  10  -7 1117.52   37.77
   6 -10  -7 1130.45   91.67
  10  -6  -7 1159.21   77.50
 -10   6  -7 1217.00   37.88
  10  -6  -8   11.49   23.45
  -6  10  -8   14.33   11.94
 -10   6  -8    6.01   12.19
   6 -10  -8   34.35   34.60
  -6  10  -9  158.16   18.22
  10  -6  -9  140.29   37.01
 -10   6  -9  185.34   20.75
   6 -10  -9  128.22   39.73
  10  -6 -10   68.44   31.42
  -6  10 -10   69.17   15.12
   6 -10 -10   67.34   38.96
 -10   6 -10   78.19   15.44
  -6  10 -11   24.66   13.06
   6 -10 -11  -10.87   33.22
 -10   6 -11   22.95   12.88
   6 -10 -11   11.48   50.35
  10  -6 -11   37.51   29.67
  10  -6 -12   -0.94   25.78
   6 -10 -12    5.28   30.97
   6 -10 -12   26.84   46.06
   6 -10 -13  206.18   49.08
  -6  10 -14   24.35   26.67
   6 -10 -14   13.57   35.83
   6 -10 -15  442.66   49.14
  -6  10 -15  516.03   50.34
  -6  10 -16  173.50   35.32
   6 -10 -16  158.12   37.37
   6 -10 -17  445.78   42.97
  -6  10 -17  447.35   44.54
  -6  10 -18  -28.53   22.95
 -10   6 -18   31.25   22.87
   6 -10 -18    6.67   23.63
   6 -10 -19  102.82   23.24
 -10   6 -19   59.12   17.07
  -7 -10 -19   -2.68   21.00
  -7 -10 -18  182.63   34.07
 -10  -7 -17  186.00   30.57
  -7 -10 -17  177.82   38.81
  -7 -10 -16  331.24   49.12
 -10  -7 -16  363.47   41.00
 -10  -7 -15  294.96   44.87
  -7 -10 -15  400.70   56.37
  -7 -10 -14  120.96   51.50
 -10  -7 -14  110.99   41.16
  -7 -10 -13   70.20   58.73
 -10  -7 -13   20.15   40.32
 -10  -7 -12  -34.72   45.95
 -10  -7 -11   12.39   50.08
  10  -7   3  512.51   47.61
   7 -10   3  442.28   41.69
  10  -7   2   29.52   20.71
   7 -10   2   20.29   21.77
  10  -7   1  110.04   28.10
   7 -10   1   86.47   27.29
  10  -7   0   52.18   25.78
   7 -10   0   48.87   26.66
  10  -7  -1  132.08   30.75
   7 -10  -1   95.00   32.44
   7 -10  -2   25.08   28.40
  10  -7  -2   27.59   25.58
  -7  10  -3  463.55   22.72
   7 -10  -3  491.67   56.19
  10  -7  -3  470.16   49.67
 -10   7  -3  456.69   23.39
  -7  10  -4  513.86   25.50
   7 -10  -4  561.46   66.32
 -10   7  -4  595.38   26.37
  10  -7  -4  591.11   57.51
 -10   7  -5 1255.49   37.67
  10  -7  -5 1240.20   81.92
  -7  10  -5 1300.68   37.21
   7 -10  -5 1351.35   93.50
 -10   7  -6  918.47   34.05
   7 -10  -6 1013.44   86.13
  -7  10  -6  893.38   34.52
  10  -7  -6  980.71   73.00
  -7  10  -7  544.36   26.77
 -10   7  -7  493.44   26.65
   7 -10  -7  514.26   63.54
  10  -7  -7  437.51   54.08
  10  -7  -8  145.47   37.56
  -7  10  -8  140.72   19.16
 -10   7  -8  163.54   18.68
   7 -10  -8  142.05   45.73
  10  -7  -9    8.84   25.13
   7 -10  -9   20.07   31.81
  -7  10  -9    7.16   12.77
 -10   7  -9    2.89   12.79
  10  -7 -10   21.75   25.60
  -7  10 -10   60.82   15.25
 -10   7 -10   59.43   15.14
   7 -10 -10   80.66   40.89
   7 -10 -10   48.93   52.79
   7 -10 -11   59.45   46.67
 -10   7 -11   32.04   13.13
   7 -10 -11   41.17   36.81
  10  -7 -11   40.06   30.26
  -7  10 -11   61.01   15.39
  10  -7 -12   -3.88   26.25
   7 -10 -12  -11.22   42.37
   7 -10 -12    2.23   32.44
   7 -10 -13   39.43   38.20
   7 -10 -14   87.15   37.14
  -7  10 -15  215.05   42.93
   7 -10 -15  281.36   42.13
   7 -10 -16  312.61   41.57
  -7  10 -16  294.59   40.08
   7 -10 -17  150.67   30.19
  -7  10 -17  186.65   31.40
   7 -10 -18  101.31   24.24
  -7  10 -18  127.69   29.24
 -10   7 -18   86.83   22.31
 -10   7 -19  -15.18   15.22
  -8 -10 -19    2.44   17.53
  -8 -10 -18   47.33   27.15
  -8 -10 -17   68.17   33.16
 -10  -8 -17   67.40   25.58
 -10  -8 -16  401.20   43.07
  -8 -10 -16  433.08   50.61
 -10  -8 -15   87.96   35.92
  -8 -10 -15  124.17   46.60
 -10  -8 -14  345.82   50.37
  -8 -10 -14  466.98   62.82
 -10  -8 -13   13.23   42.18
  -8 -10 -13   31.13   55.60
 -10  -8 -12  200.41   57.35
 -10  -8 -11   78.93   60.25
  10  -8   3   74.15   27.03
   8 -10   2  241.16   35.51
  10  -8   2  295.30   39.82
  10  -8   1  135.71   29.66
   8 -10   1  119.21   31.27
   8 -10   0   73.78   27.49
  10  -8   0   44.99   24.98
  10  -8  -1  145.96   32.74
  -8  10  -1  104.53   14.22
   8 -10  -1  128.50   34.15
 -10   8  -2  258.39   19.62
  -8  10  -2  271.25   18.86
  10  -8  -2  295.83   42.97
   8 -10  -2  270.39   44.75
  10  -8  -3  103.65   30.48
  -8  10  -3   94.85   14.77
 -10   8  -3   99.82   14.93
   8 -10  -3   84.92   33.28
  10  -8  -4 1433.95   89.67
  -8  10  -4 1409.93   38.92
   8 -10  -4 1543.96   97.53
 -10   8  -4 1387.54   39.24
 -10   8  -5  599.39   27.60
  -8  10  -5  513.49   27.98
   8 -10  -5  586.39   68.58
  10  -8  -5  650.74   64.02
  -8  10  -6 1436.79   40.93
   8 -10  -6 1423.71   98.85
  10  -8  -6 1327.38   92.27
 -10   8  -6 1356.80   41.06
 -10   8  -7  228.22   20.13
  -8  10  -7  191.34   20.31
  10  -8  -7  234.05   45.51
   8 -10  -7  214.01   46.41
  10  -8  -8  125.95   37.59
  -8  10  -8  168.13   19.23
 -10   8  -8  163.13   18.67
   8 -10  -8  140.63   43.19
  10  -8  -9   22.08   29.40
 -10   8  -9   29.09   14.03
   8 -10  -9   27.79   31.11
  -8  10  -9   36.24   14.52
  10  -8 -10   -4.81   30.85
  -8  10 -10   20.70   13.60
 -10   8 -10    7.52   13.05
   8 -10 -10   29.44   32.57
  -8  10 -11   71.90   15.64
  10  -8 -11   75.36   34.36
   8 -10 -11   33.13   39.69
 -10   8 -11   65.63   15.04
   8 -10 -11   68.89   40.25
 -10   8 -12  153.54   18.33
  10  -8 -12  101.81   39.57
   8 -10 -12  125.57   44.62
   8 -10 -12  100.99   44.37
   8 -10 -13    9.45   32.51
   8 -10 -14  344.45   43.60
   8 -10 -15   87.79   30.61
  -8  10 -15   61.26   27.81
   8 -10 -16  394.68   39.07
  -8  10 -16  587.11   49.67
  -8  10 -17   39.29   23.78
 -10   8 -17    9.44   19.97
   8 -10 -17   62.28   22.04
 -10   8 -18   87.19   22.15
  -8  10 -18   59.57   21.36
 -10   8 -19  -19.23   15.17
  -9 -10 -18    8.47   21.68
 -10  -9 -17  136.55   29.59
  -9 -10 -17  172.86   33.96
 -10  -9 -16   17.26   30.55
  -9 -10 -16  -19.54   33.50
 -10  -9 -15  453.23   49.26
  -9 -10 -15  477.76   55.69
  -9 -10 -14  -67.66   47.09
 -10  -9 -14  -73.28   42.93
  -9 -10 -13  680.94   76.22
 -10  -9 -13  527.11   68.22
 -10  -9 -12    7.31   54.11
  -9 -10 -12   36.87   61.67
   9 -10   2    7.81   21.30
  10  -9   2    2.74   20.92
 -10   9   1  230.90   18.67
  -9  10   1  290.33   18.95
   9 -10   1  290.40   39.45
  10  -9   1  259.44   40.47
 -10   9   0  393.34   21.82
  -9  10   0  370.64   21.87
   9 -10   0  427.46   49.63
  10  -9   0  470.64   49.55
  -9  10  -1  328.97   21.06
   9 -10  -1  282.58   45.69
 -10   9  -1  285.53   21.16
  10  -9  -1  281.95   45.06
  10  -9  -2  -11.13   26.53
 -10   9  -2    0.66   11.21
  -9  10  -2   -7.25   11.54
   9 -10  -2  -33.18   29.36
 -10   9  -3 1170.70   36.38
  -9  10  -3 1172.18   36.40
   9 -10  -3 1273.56   88.72
  10  -9  -3 1186.69   83.36
  10  -9  -4   82.19   32.60
  -9  10  -4   67.36   14.73
 -10   9  -4   90.85   15.14
   9 -10  -4  102.66   35.76
  -9  10  -5 1679.91   44.20
   9 -10  -5 1749.62  111.42
 -10   9  -5 1658.60   44.13
  10  -9  -5 1611.59  104.19
 -10   9  -6   79.89   15.54
  -9  10  -6   57.71   14.28
   9 -10  -6   84.72   37.94
  10  -9  -6   81.36   35.05
 -10   9  -7  398.69   24.45
  -9  10  -7  395.29   24.47
   9 -10  -7  336.86   58.58
  10  -9  -7  285.27   53.11
  -9  10  -8    9.50   12.94
 -10   9  -8   12.74   13.15
   9 -10  -8    5.85   31.82
  10  -9  -8   -5.23   30.14
  10  -9  -9    9.25   30.06
 -10   9  -9   28.21   14.15
  -9  10  -9   16.84   14.25
   9 -10  -9   25.44   34.67
 -10   9 -10   71.58   16.03
  -9  10 -10   68.33   16.01
  10  -9 -10   95.68   40.51
   9 -10 -10   72.79   42.79
   9 -10 -11  106.94   45.50
  -9  10 -11   96.43   17.42
 -10   9 -11   99.69   17.27
  10  -9 -11  124.13   44.38
  -9  10 -12   37.81   13.54
 -10   9 -12   43.72   13.79
  -9  10 -15  517.21   53.07
  -9  10 -16  -17.55   25.46
  -9  10 -17  161.65   29.89
 -10   9 -17  219.24   31.41
 -10   9 -18   -6.42   17.22
  -9  10 -18    2.26   17.31
 -10 -10 -17    3.51   22.88
 -10 -10 -16  231.13   38.07
 -10 -10 -15  -46.76   37.57
 -10 -10 -14  543.22   58.96
 -10 -10 -13   -6.56   46.64
 -10 -10 -12  795.58   79.41
 -10  10   2  687.45   28.68
  10 -10   2  780.84   61.43
 -10  10   1   -6.34   11.37
  10 -10   1   -0.29   22.67
 -10  10   0  754.02   29.99
  10 -10   0  489.44   58.44
  10 -10  -1  -12.16   26.67
 -10  10  -1   -0.17   11.73
  10 -10  -2  734.39   70.19
 -10  10  -2  780.77   30.96
 -10  10  -3  -10.40   12.35
  10 -10  -3  -15.51   29.25
 -10  10  -4  691.94   30.08
  10 -10  -4  732.89   73.13
 -10  10  -5    0.68   12.23
  10 -10  -5   -5.65   31.02
  10 -10  -6  240.13   52.11
 -10  10  -6  295.33   21.88
 -10  10  -7   -2.91   13.02
  10 -10  -7  -13.02   30.57
 -10  10  -8  155.54   19.98
  10 -10  -8  124.13   44.18
 -10  10  -9   14.40   14.13
  10 -10  -9   23.88   34.16
  10 -10 -10   80.54   41.76
 -10  10 -10  110.15   18.80
 -10  10 -11   -1.60   13.23
 -10  10 -12  583.55   30.51
 -10  10 -16  242.49   36.95
 -10  10 -17   -7.12   20.48
 -10  10 -18   14.57   17.97
  11   0   0  639.19   51.11
  11   0  -1 4288.86  125.94
  11   0   1 4282.53  125.59
  11   0   2  429.22   44.64
  11   0  -2  419.58   43.72
  11   0  -3   66.70   24.50
  11   0   3   89.99   28.25
  11   0  -4  550.88   49.73
  11   0  -5  316.65   39.04
  11   0  -6  196.08   33.83
   0  11  -6  173.33   32.53
   0  11  -7    4.86   23.06
   0  11  -7  -13.01   13.54
  11   0  -7   -2.82   20.40
  11   0  -8  217.52   36.19
   0  11  -8  208.22   35.66
   0  11  -8  223.09   21.93
   0  11  -9  928.65   37.65
  11   0  -9  997.84   72.38
 -11   0  -9  889.07   37.43
  11   0 -10   13.46   23.41
   0  11 -10   -3.77   25.76
   0  11 -11 1569.03   78.90
  11   0 -11 1081.35   80.11
   0  11 -12   41.84   31.67
   0 -11 -13  249.40   66.62
   0  11 -13  352.33   47.90
   0 -11 -14   36.51   49.17
   0  11 -14  151.02   39.89
   0 -11 -15    6.65   42.91
   0  11 -15   16.91   32.05
   0 -11 -16  156.96   43.94
   0 -11 -17   30.03   35.63
   0 -11 -18   29.36   31.98
   0 -11 -19   66.86   28.27
   0 -11 -20   -2.75   21.42
  -1 -11 -20  153.09   26.77
  -1 -11 -19   10.86   25.95
  -1 -11 -18   12.06   29.91
  -1 -11 -17   27.14   35.85
  -1 -11 -16   88.93   44.76
  -1 -11 -15  112.31   48.11
  -1 -11 -14   -1.61   49.13
   1  11 -14   90.75   34.86
   1  11 -13    2.37   30.38
   1  11 -12  832.59   67.89
   1  11 -11   22.60   29.50
  11   1 -10 1076.02   75.68
   1  11 -10  989.05   74.15
 -11  -1 -10  909.36   37.50
  11   1  -9   37.50   22.47
   1  11  -9   12.05   28.36
  11   1  -8  140.62   31.60
   1  11  -8   89.74   35.55
   1  11  -8  156.05   21.87
  11   1  -7   77.21   24.93
   1  11  -7   36.62   30.03
   1  11  -7   67.98   17.85
   1  11  -6  329.52   39.77
  11   1  -6  233.19   34.92
  11   1  -5   55.40   22.57
  11  -1   4  434.56   46.78
  11   1  -4  383.94   42.76
  11  -1   3  532.26   50.18
  11   1  -3  488.48   46.70
  11  -1   2  740.91   54.54
  11   1  -2  740.55   54.64
  11  -1   1  126.71   29.47
  11   1  -1  153.27   30.43
  11  -1   0 7324.39  164.19
  11   1   0 7298.31  163.69
  11  -1  -1  137.35   29.38
  11   1   1  138.25   29.66
  11  -1  -2  752.16   56.02
  11   1   2  805.97   59.00
  11  -1  -3  515.00   47.75
  11  -1  -4  392.45   42.12
  -1  11  -5   20.34   26.01
  11  -1  -5   66.64   24.97
  11  -1  -6  240.71   36.79
  -1  11  -6  196.40   17.45
  -1  11  -7   54.86   14.01
  -1  11  -7   12.97   23.12
  11  -1  -7   67.49   24.73
  -1  11  -8  142.84   18.38
 -11   1  -8  151.82   22.87
  11  -1  -8  113.57   29.64
  11  -1  -9   26.93   25.05
  -1  11  -9   38.10   26.75
 -11   1  -9   62.03   19.17
  -1  11  -9   39.17   16.34
  11  -1 -10 1097.81   79.79
  -1  11 -10 1223.25   69.47
 -11   1 -10 1045.35   36.77
  11  -1 -11   70.70   31.43
  -1  11 -11   11.61   26.47
  -1  11 -12 1027.93   67.58
   1 -11 -13   55.52   57.15
  -1  11 -13   34.64   30.09
   1 -11 -13  -28.66   39.76
  -1  11 -14  106.85   42.85
   1 -11 -14   83.70   51.96
   1 -11 -15  155.59   48.58
  -1  11 -15  101.72   34.63
   1 -11 -16   77.22   40.91
  -1  11 -16   53.26   31.51
   1 -11 -17    3.26   34.50
   1 -11 -18   33.00   31.04
   1 -11 -19   31.64   26.79
   1 -11 -20  143.25   27.10
  -2 -11 -20   31.23   20.96
  -2 -11 -19   20.73   26.07
  -2 -11 -18   36.67   32.07
  -2 -11 -17   74.51   38.51
  -2 -11 -16  -18.77   38.63
  -2 -11 -15   51.01   45.43
  -2 -11 -14   41.10   51.25
   2  11 -13  204.82   43.19
   2  11 -12   64.12   34.59
   2  11 -11  456.12   53.40
  11   2 -10   90.40   29.16
   2  11 -10   71.72   34.02
  11   2  -9  238.77   37.98
   2  11  -9  149.61   42.90
  11   2  -8   70.02   25.06
   2  11  -8   78.04   22.57
   2  11  -8   53.40   32.89
  11   2  -7  171.83   32.29
   2  11  -7  161.28   23.47
  11   2  -6   95.07   26.46
   2  11  -6  205.19   37.55
   2  11  -5  327.07   44.38
  11   2  -5  352.82   41.32
  11  -2   4  108.64   26.10
  11   2  -4  112.28   26.47
  11  -2   3  236.77   35.55
  11   2  -3  249.95   35.93
  11   2  -2  131.30   28.64
  11  -2   2  135.56   28.32
  11   2  -1 1363.61   72.74
  11  -2   1 1413.35   74.08
  11  -2   0  866.60   60.90
  11   2   0  977.43   63.49
  11  -2  -1 1419.54   75.47
  11   2   1 1457.67   77.81
  11  -2  -2  154.41   31.62
  11   2   2  161.17   34.08
  11  -2  -3  251.02   37.92
  11  -2  -4   90.29   25.82
  -2  11  -5  255.43   34.02
  11  -2  -5  330.05   41.20
 -11   2  -6   80.08   18.30
  -2  11  -6   89.53   26.88
  11  -2  -6   79.05   25.64
  -2  11  -6   67.44   13.63
  -2  11  -7  202.55   18.32
  -2  11  -7  193.26   29.59
  11  -2  -7  173.88   33.78
 -11   2  -8   65.24   17.39
  -2  11  -8   65.57   15.00
  -2  11  -8   19.65   25.36
  11  -2  -8   59.58   25.27
  -2  11  -9  204.32   34.87
  11  -2  -9  180.30   36.08
 -11   2  -9  236.56   22.36
  -2  11  -9  202.04   20.02
  -2  11 -10   48.57   30.53
  11  -2 -10   77.84   30.55
  11  -2 -11  384.86   51.95
  -2  11 -11  458.90   48.90
 -11   2 -11  385.89   23.08
  -2  11 -12   47.98   31.25
   2 -11 -13   90.21   59.35
   2 -11 -13   88.41   35.61
  -2  11 -13  170.36   40.44
   2 -11 -14   78.04   50.82
  -2  11 -14   54.59   31.22
   2 -11 -15   23.97   41.56
  -2  11 -15   35.13   31.16
  -2  11 -16   -4.31   28.06
   2 -11 -16    2.35   39.15
   2 -11 -17   72.36   35.18
   2 -11 -18   12.31   30.22
   2 -11 -19   26.39   26.76
   2 -11 -20   38.84   22.45
  -3 -11 -20    1.20   19.60
  -3 -11 -19  148.85   30.28
  -3 -11 -18   47.74   31.73
  -3 -11 -17  304.11   49.33
  -3 -11 -16   45.36   39.94
  -3 -11 -15   59.28   45.72
  -3 -11 -14    2.54   50.94
   3  11 -12  156.29   42.46
   3  11 -11   65.81   35.39
   3  11 -10   28.58   33.14
   3  11  -9  153.69   41.67
  11   3  -9  163.82   31.57
  11   3  -8   85.77   26.04
   3  11  -8   42.68   34.05
   3  11  -8   76.71   25.55
  11   3  -7  682.60   56.64
   3  11  -7  619.03   37.58
   3  11  -6  301.17   29.83
  11   3  -6  359.48   42.12
   3  11  -5  403.83   59.95
  11   3  -5  636.58   52.89
  11   3  -4   95.75   26.14
  11  -3   4   90.31   23.61
  11  -3   3  645.83   52.74
  11   3  -3  678.66   53.59
  11   3  -2  212.02   33.45
  11  -3   2  197.45   33.34
  11   3  -1  526.06   48.97
  11  -3   1  482.03   47.02
  11  -3   0   21.65   21.86
  11   3   0   13.12   20.46
  11  -3  -1  462.72   47.31
  11   3   1  537.61   52.40
  11  -3  -2  199.94   35.67
  11  -3  -3  606.69   53.29
  11  -3  -4  110.32   28.35
  -3  11  -5  565.08   25.13
  11  -3  -5  623.52   53.82
 -11   3  -5  584.12   29.61
  -3  11  -6  357.25   22.07
  -3  11  -6  240.81   37.61
  11  -3  -6  558.72   54.05
 -11   3  -6  428.99   26.79
  -3  11  -7  761.79   50.07
  11  -3  -7  708.74   57.99
  -3  11  -7  663.74   28.01
  -3  11  -8   82.58   14.76
  11  -3  -8   86.17   28.69
  -3  11  -8   53.60   24.25
 -11   3  -8  101.76   18.32
 -11   3  -9  212.09   20.71
  11  -3  -9  151.10   34.21
  -3  11  -9  174.72   18.76
  -3  11  -9  202.17   35.09
  11  -3 -10   25.67   25.12
  -3  11 -10   24.00   26.18
 -11   3 -10   38.35   15.01
  -3  11 -10   16.06   13.39
  -3  11 -11   43.49   30.83
  11  -3 -11   31.65   26.34
 -11   3 -11   90.93   15.30
  -3  11 -12  162.64   40.02
   3 -11 -12  132.24   48.98
  11  -3 -12  120.80   35.89
   3 -11 -13   80.49   56.81
  -3  11 -13   27.56   29.02
  -3  11 -14   -0.95   27.02
   3 -11 -14   58.33   48.85
  -3  11 -15   71.10   32.75
   3 -11 -15   66.22   43.01
  -3  11 -16   69.29   30.43
   3 -11 -16   83.21   39.82
   3 -11 -17  129.69   38.86
  -3  11 -17  147.99   36.22
   3 -11 -18   69.16   31.24
   3 -11 -19  135.76   30.26
   3 -11 -20   -1.43   19.41
  -4 -11 -20  103.53   22.89
  -4 -11 -19    0.82   24.05
  -4 -11 -18  255.95   38.77
  -4 -11 -17   19.91   36.53
  -4 -11 -16  447.17   56.55
  -4 -11 -15   60.28   45.97
  -4 -11 -14   59.36   51.63
  11   4  -9   75.03   25.20
  11   4  -8  721.10   58.14
  11   4  -7  245.21   36.44
  11   4  -6 2047.40   92.77
   4  11  -6 1862.83   60.84
  11   4  -5   81.67   23.99
  11  -4   5  175.37   35.49
  11  -4   4 1004.62   63.50
  11   4  -4  979.92   65.10
  11  -4   3  194.54   31.29
   4 -11   3  169.37   29.35
  11   4  -3  184.19   32.58
  11   4  -2   72.16   24.27
  11  -4   2   80.71   25.76
  11   4  -1  211.47   35.70
  11  -4   1  218.54   35.39
  11  -4   0  519.22   49.45
  11   4   0  566.20   51.79
  11  -4  -1  229.92   35.82
  11  -4  -2   90.60   27.04
  11  -4  -3  183.11   33.18
  11  -4  -4 1009.56   67.28
 -11   4  -4  791.85   31.87
  -4  11  -5   97.11   14.18
  -4  11  -5   59.13   23.95
  11  -4  -5  101.61   27.61
  -4  11  -6 1963.39   45.29
  11  -4  -6 2069.41   96.10
 -11   4  -6 2011.99   47.14
  -4  11  -7  264.87   19.89
  11  -4  -7  294.67   40.99
 -11   4  -7  297.90   22.23
  -4  11  -8  727.23   31.42
  11  -4  -8  784.57   63.81
 -11   4  -8  845.78   32.86
  11  -4  -9   80.05   29.76
  -4  11  -9   78.23   14.99
 -11   4  -9  125.05   19.56
  -4  11 -10   27.28   13.74
  11  -4 -10   30.04   28.65
   4 -11 -10   32.57   32.78
  -4  11 -10   68.81   29.94
 -11   4 -10   41.13   14.81
   4 -11 -11    7.25   34.44
  -4  11 -11   11.49   25.45
 -11   4 -11   25.03   13.16
  11  -4 -11    0.37   23.15
   4 -11 -12  103.10   42.70
   4 -11 -12  132.68   61.37
  -4  11 -12  112.97   36.78
  11  -4 -12   90.49   29.75
   4 -11 -13   38.49   50.99
  -4  11 -13   19.81   28.93
   4 -11 -14   65.56   47.11
  -4  11 -14   83.61   32.71
   4 -11 -15   16.87   40.05
  -4  11 -15   29.70   27.15
  -4  11 -16  375.11   45.12
   4 -11 -16  385.98   50.61
  -4  11 -17   34.02   26.65
   4 -11 -17   24.11   32.49
   4 -11 -18  296.36   39.75
   4 -11 -19   11.54   23.06
 -11   4 -19   -9.66   14.77
  -5 -11 -19   80.35   28.30
  -5 -11 -18    0.80   28.92
  -5 -11 -17  618.72   53.81
  -5 -11 -16  -12.68   39.42
  -5 -11 -15  377.16   58.43
  -5 -11 -14   73.53   53.71
  11   5  -8  153.11   31.84
  11   5  -7 1343.60   78.17
  11   5  -6   27.89   18.19
  11   5  -5 2957.32  113.08
  11   5  -4   33.88   21.17
  11  -5   4   13.24   19.89
  11   5  -3  302.68   40.07
  11  -5   3  283.50   38.06
  11   5  -2   13.64   20.95
  11  -5   2   28.20   22.39
   5 -11   2    9.47   21.07
  11  -5   1    4.06   20.76
   5 -11   1   13.48   23.41
  11  -5   0  710.62   58.98
  11  -5  -1    2.82   20.65
  11  -5  -2    2.92   20.27
  -5  11  -3  295.90   19.29
  11  -5  -3  297.86   40.32
 -11   5  -3  288.53   20.35
  -5  11  -4   19.47   11.10
 -11   5  -4   21.00   12.64
  11  -5  -4   27.94   23.55
  -5  11  -5 2961.28   55.02
 -11   5  -5 2830.60   55.93
 -11   5  -6   30.34   13.63
  11  -5  -6   21.88   21.84
  -5  11  -6   21.15   11.59
  -5  11  -7 1392.04   41.09
 -11   5  -7 1245.21   40.62
  11  -5  -7 1429.69   85.70
  -5  11  -8  167.33   17.95
  11  -5  -8  140.39   33.88
   5 -11  -8  145.14   41.83
 -11   5  -8  182.30   19.12
   5 -11  -9  149.25   44.37
 -11   5  -9  156.33   18.65
  -5  11  -9  143.93   17.70
  11  -5  -9  117.48   32.22
  -5  11 -10   12.77   13.33
 -11   5 -10   28.72   14.21
  11  -5 -10   18.38   25.45
   5 -11 -10   -1.27   32.77
 -11   5 -11  108.92   16.72
   5 -11 -11  103.95   44.06
  -5  11 -11  108.70   35.40
  11  -5 -11  114.78   34.26
  -5  11 -11  138.26   18.00
  11  -5 -12   12.87   24.23
   5 -11 -12   11.45   55.19
   5 -11 -12   -5.91   33.73
  -5  11 -12    5.30   26.94
   5 -11 -13   60.31   48.55
  -5  11 -13   17.76   28.19
   5 -11 -14   82.36   44.75
  -5  11 -14   96.84   31.58
   5 -11 -15  315.45   51.53
  -5  11 -15  364.85   45.66
  -5  11 -16  -22.37   27.19
   5 -11 -16  -12.48   35.59
  -5  11 -17  507.29   48.31
   5 -11 -17  526.96   48.95
   5 -11 -18  -10.68   25.71
  -5  11 -18  -34.86   21.83
   5 -11 -19  120.63   26.02
 -11   5 -19   75.95   18.06
  -6 -11 -19   16.52   23.18
  -6 -11 -18  258.16   36.33
  -6 -11 -17  -10.74   33.74
  -6 -11 -16  535.15   58.72
  -6 -11 -15    2.44   44.87
  -6 -11 -14  246.37   61.32
  -6 -11 -13   17.65   59.74
  11   6  -7   -5.52   19.14
  11   6  -6 1650.46   88.06
  11   6  -5   59.30   23.65
  11  -6   4 1714.73   86.59
  11  -6   3   29.77   21.34
  11  -6   2   13.32   20.29
   6 -11   2    1.88   21.39
   6 -11   1  222.03   37.19
  11  -6   1  287.62   40.35
   6 -11   0  145.90   35.29
  11  -6   0  171.09   33.24
   6 -11  -1  254.10   45.18
  11  -6  -1  265.03   38.85
 -11   6  -2   -0.26   12.65
   6 -11  -2    9.89   27.07
  11  -6  -2   11.08   21.60
  -6  11  -2    1.10   11.10
  -6  11  -3   46.13   12.72
   6 -11  -3   29.10   29.22
 -11   6  -3   30.17   12.53
  11  -6  -3   27.65   23.38
  -6  11  -4 1675.82   42.09
  11  -6  -4 1729.34   92.63
 -11   6  -4 1583.29   42.00
  -6  11  -5   98.04   15.08
  11  -6  -5   96.22   30.60
   6 -11  -5  100.51   38.03
 -11   6  -5   93.92   14.87
  -6  11  -6 1750.82   45.74
   6 -11  -6 1671.86  113.85
  11  -6  -6 1750.33   95.42
 -11   6  -6 1723.29   44.87
  11  -6  -7  -14.13   25.86
   6 -11  -7  -13.18   33.19
 -11   6  -7   -9.23   13.75
  -6  11  -7  -16.37   12.64
  -6  11  -8  274.65   22.62
   6 -11  -8  246.87   54.16
  11  -6  -8  242.13   44.95
 -11   6  -8  269.17   22.00
  -6  11  -9    0.81   12.65
  11  -6  -9  -14.11   25.25
   6 -11  -9  -12.60   36.48
 -11   6  -9    7.78   12.94
  -6  11 -10  196.93   19.83
  11  -6 -10  153.71   37.35
 -11   6 -10  186.69   19.27
   6 -11 -10  137.46   46.22
  11  -6 -11    5.09   27.06
  -6  11 -11   45.74   14.65
 -11   6 -11   39.26   13.17
   6 -11 -11   58.80   39.47
   6 -11 -11   38.08   57.54
   6 -11 -12    3.38   50.05
  11  -6 -12   31.40   26.23
 -11   6 -12   28.03   12.40
  -6  11 -12   21.26   27.17
   6 -11 -12   13.30   32.12
  -6  11 -13   12.15   26.97
   6 -11 -13   58.47   52.21
   6 -11 -14  131.28   44.48
  -6  11 -14   79.08   33.74
   6 -11 -15  -10.26   35.01
  -6  11 -15   13.38   26.14
   6 -11 -16  428.64   47.58
  -6  11 -16  378.30   49.62
   6 -11 -17   -3.26   27.92
  -6  11 -17  -26.20   26.31
  -6  11 -18  167.42   28.95
   6 -11 -18  188.25   30.53
   6 -11 -19    4.82   18.27
 -11   6 -19   -9.82   13.92
  -7 -11 -19   34.43   21.82
  -7 -11 -18   -4.32   25.27
  -7 -11 -17  248.16   40.84
  -7 -11 -16   82.09   39.50
  -7 -11 -15  272.22   55.61
  -7 -11 -14   31.99   50.32
  -7 -11 -13   63.34   60.78
  11  -7   3  245.68   38.30
   7 -11   2   -7.60   24.15
  11  -7   2   27.24   23.57
   7 -11   1  556.14   55.33
  11  -7   1  588.57   54.38
  -7  11   0   -2.88   11.40
  11  -7   0    7.98   21.39
   7 -11   0   22.94   23.88
  -7  11  -1  521.18   25.88
   7 -11  -1  618.34   61.87
 -11   7  -1  561.07   25.26
  11  -7  -1  616.69   56.09
  11  -7  -2   14.44   24.04
  -7  11  -2   41.63   13.07
   7 -11  -2   37.62   30.15
 -11   7  -2   27.77   12.69
  -7  11  -3  225.38   19.36
  11  -7  -3  231.42   40.29
 -11   7  -3  225.87   19.45
   7 -11  -3  228.69   47.82
  -7  11  -4  262.74   19.01
   7 -11  -4  296.93   52.28
 -11   7  -4  260.93   20.34
  11  -7  -4  239.91   41.30
   7 -11  -5 1382.89  104.42
  -7  11  -5 1355.33   41.86
  11  -7  -5 1485.69   89.47
 -11   7  -5 1493.11   41.06
  -7  11  -6  238.09   20.30
   7 -11  -6  278.84   51.75
 -11   7  -6  227.76   20.02
  11  -7  -6  208.89   40.25
  -7  11  -7  635.70   33.07
  11  -7  -7  698.55   66.97
   7 -11  -7  667.29   82.93
 -11   7  -7  749.34   31.78
  11  -7  -8   34.05   28.63
  -7  11  -8   30.94   14.60
 -11   7  -8   39.63   15.25
   7 -11  -8   24.72   35.10
  11  -7  -9   30.84   28.02
  -7  11  -9   72.94   16.14
   7 -11  -9   50.29   39.80
 -11   7  -9   72.47   16.01
  -7  11 -10   14.87   13.67
  11  -7 -10   -6.27   29.12
 -11   7 -10   38.54   14.68
   7 -11 -10   32.35   35.15
  -7  11 -11  258.59   21.89
  11  -7 -11  175.50   42.56
   7 -11 -11  247.83   59.27
   7 -11 -11  218.17   52.66
 -11   7 -11  234.22   20.07
 -11   7 -12    7.25   11.59
   7 -11 -12   53.23   47.52
  -7  11 -13    7.88   26.03
   7 -11 -13   45.19   42.81
   7 -11 -14   55.95   36.90
  -7  11 -14   37.00   28.85
   7 -11 -15  225.98   40.96
  -7  11 -15  203.90   38.46
   7 -11 -16   68.06   31.15
  -7  11 -16   96.36   29.30
  -7  11 -17  205.05   33.18
   7 -11 -17  179.30   31.48
   7 -11 -18    8.67   19.62
  -7  11 -18   -4.57   18.88
 -11   7 -18   17.35   19.73
  -8 -11 -18   33.05   25.02
  -8 -11 -17   72.49   32.79
  -8 -11 -16  140.60   41.50
  -8 -11 -15  108.34   45.63
  -8 -11 -14   20.78   49.02
  -8 -11 -13  243.04   66.23
  11  -8   3  276.35   42.13
  -8  11   2   58.86   13.29
   8 -11   2  158.44   35.50
  11  -8   2  166.92   33.87
  -8  11   1  169.58   16.32
  11  -8   1  123.52   31.94
 -11   8   1  117.35   15.45
   8 -11   1  145.31   32.04
  -8  11   0 1287.14   38.39
   8 -11   0 1266.08   84.53
 -11   8   0 1249.54   37.25
  -8  11  -1  177.24   17.56
  11  -8  -1  156.48   35.77
 -11   8  -1  112.84   16.91
   8 -11  -1  150.74   38.01
  -8  11  -2  130.52   15.99
  11  -8  -2  143.65   35.48
 -11   8  -2  149.82   16.47
   8 -11  -2  146.33   38.54
  -8  11  -3  274.09   20.30
   8 -11  -3  275.29   49.31
  11  -8  -3  258.93   42.93
 -11   8  -3  254.64   19.83
  -8  11  -4  336.90   24.99
 -11   8  -4  464.18   24.93
  11  -8  -4  437.80   53.52
   8 -11  -4  350.66   59.32
  -8  11  -5  443.13   24.50
   8 -11  -5  502.04   65.47
  11  -8  -5  366.44   53.55
 -11   8  -5  396.92   24.28
  -8  11  -6  536.90   31.32
   8 -11  -6  600.25   75.53
  11  -8  -6  650.36   67.01
 -11   8  -6  637.96   30.22
  -8  11  -7  289.64   22.59
   8 -11  -7  271.67   54.82
 -11   8  -7  284.53   22.08
  11  -8  -7  231.93   46.44
  11  -8  -8   -5.38   27.41
 -11   8  -8    4.97   13.09
  -8  11  -8  -12.89   14.03
   8 -11  -8  -25.85   37.30
  11  -8  -9    1.04   28.67
   8 -11  -9    5.09   34.36
 -11   8  -9    0.37   13.02
  -8  11  -9   12.57   14.00
   8 -11 -10  353.94   63.93
  -8  11 -10  386.61   25.84
 -11   8 -10  353.22   24.16
  11  -8 -10  298.54   54.29
  -8  11 -11   29.88   14.49
  11  -8 -11  -10.08   28.44
 -11   8 -11   12.79   12.95
   8 -11 -11   23.63   36.87
 -11   8 -12  267.61   21.09
   8 -11 -12  215.76   45.90
  -8  11 -12  250.85   21.39
   8 -11 -13  132.64   38.36
   8 -11 -14    8.62   31.79
  -8  11 -14   15.83   26.53
   8 -11 -15  102.08   32.12
  -8  11 -15  126.46   36.09
  -8  11 -16  112.81   28.92
 -11   8 -17   71.88   23.45
  -8  11 -17   30.37   23.92
  -8  11 -18    6.15   17.93
 -11   8 -18   -1.36   16.33
  -9 -11 -18    1.25   19.59
  -9 -11 -17   -2.96   26.81
  -9 -11 -16   78.44   34.46
  -9 -11 -15    2.29   38.77
  -9 -11 -14  261.55   55.98
 -11  -9 -13 1519.57   91.03
  -9 -11 -13  100.24   54.77
 -11  -9 -12  301.47   60.83
  -9  11   2  345.05   22.82
  11  -9   2  289.44   44.98
 -11   9   2  279.79   20.16
   9 -11   2  320.17   44.46
  -9  11   1  432.94   24.74
  11  -9   1  576.17   55.22
 -11   9   1  465.28   23.67
   9 -11   1  554.06   56.81
   9 -11   0  285.40   43.05
  11  -9   0  271.05   44.98
 -11   9   0  311.79   22.40
  -9  11  -1  431.11   25.62
   9 -11  -1  489.71   59.18
 -11   9  -1  527.29   25.80
  11  -9  -1  535.66   56.74
   9 -11  -2  316.79   50.65
  -9  11  -2  374.83   22.89
  11  -9  -2  342.68   51.17
 -11   9  -2  340.17   22.89
  -9  11  -3   21.39   12.05
  11  -9  -3   14.69   27.09
 -11   9  -3   18.93   11.59
   9 -11  -3   34.22   32.66
  11  -9  -4  233.39   47.20
  -9  11  -4  266.85   21.15
   9 -11  -4  285.76   52.48
 -11   9  -4  260.94   21.10
  11  -9  -5  127.55   37.90
  -9  11  -5   98.38   16.67
 -11   9  -5   96.54   15.81
   9 -11  -5  122.88   43.88
  -9  11  -6  285.07   22.07
   9 -11  -6  273.17   52.80
 -11   9  -6  269.78   21.64
  11  -9  -6  220.60   49.47
  11  -9  -7  123.23   40.44
  -9  11  -7  153.79   19.89
 -11   9  -7  151.71   18.93
   9 -11  -7  143.84   48.45
  11  -9  -8  107.81   41.97
  -9  11  -8  139.97   20.48
   9 -11  -8  106.81   42.89
 -11   9  -8  145.08   19.29
  -9  11  -9  104.19   18.00
  11  -9  -9   60.81   36.44
 -11   9  -9   81.14   16.77
   9 -11  -9   82.91   41.15
 -11   9 -10   74.95   17.09
  -9  11 -10   62.96   16.85
  11  -9 -10   55.84   35.97
   9 -11 -10   61.65   40.42
  -9  11 -11  339.62   24.70
 -11   9 -11  344.12   24.53
 -11   9 -12  346.49   25.05
  -9  11 -12  426.73   26.58
  -9  11 -14  214.12   39.31
  -9  11 -15    1.79   24.41
  -9  11 -16  147.73   29.91
 -11   9 -17  -10.67   19.84
  -9  11 -17   26.46   21.20
  -9  11 -18   -5.17   17.12
 -11   9 -18    6.74   16.53
 -10 -11 -17   -5.07   21.33
 -10 -11 -16   20.38   29.41
 -10 -11 -15  111.73   38.35
 -10 -11 -14  -56.72   43.95
 -11 -10 -14  -15.20   35.13
 -11 -10 -13  214.72   53.50
 -10 -11 -13  352.93   62.00
 -11 -10 -12   67.85   54.82
 -10 -11 -12  115.30   60.92
 -10  11   2   99.51   15.29
 -11  10   2  105.12   14.77
  11 -10   2  116.23   33.55
 -11  10   1  669.35   29.86
  10 -11   1  515.32   56.46
  11 -10   1  495.12   57.88
 -10  11   1  767.90   30.65
 -10  11   0  277.81   21.25
 -11  10   0  311.91   21.35
  11 -10   0  330.41   46.55
  10 -11   0  306.02   47.94
 -11  10  -1  630.26   30.60
  10 -11  -1  511.50   61.40
  11 -10  -1  475.22   61.84
  11 -10  -2  120.78   37.55
 -11  10  -2  114.50   16.38
  10 -11  -2  122.86   37.74
 -10  11  -2  119.90   16.61
  11 -10  -3  171.32   42.64
 -10  11  -3  207.93   19.64
 -11  10  -3  188.01   19.27
  10 -11  -3  163.68   43.96
  11 -10  -4    5.92   28.62
 -11  10  -4    4.07   12.36
 -10  11  -4   11.83   13.41
  10 -11  -4   -8.45   32.90
  11 -10  -5   34.48   33.29
 -10  11  -5   49.15   15.50
  10 -11  -5   37.78   36.34
 -11  10  -5   37.66   14.32
  11 -10  -6   49.80   37.55
 -11  10  -6   68.05   16.21
  10 -11  -6   48.36   40.39
 -10  11  -6   65.66   16.23
  11 -10  -7  115.47   44.66
 -10  11  -7  160.56   19.30
 -11  10  -7  157.47   19.19
  10 -11  -7  148.53   48.10
  11 -10  -8  -36.07   34.23
 -11  10  -8   17.62   14.93
 -10  11  -8    7.36   14.42
  10 -11  -8  -38.00   35.46
 -11  10  -9   32.82   15.53
  11 -10  -9   -3.53   31.40
 -10  11  -9   39.54   16.22
  10 -11  -9   27.49   36.89
  10 -11 -10   32.96   38.81
  11 -10 -10   62.06   36.04
 -11  10 -10   88.29   17.74
 -10  11 -10   71.41   16.46
 -10  11 -11  276.09   23.96
 -11  10 -11  259.66   23.99
 -10  11 -12   43.99   13.94
 -11  10 -12   45.85   14.28
 -10  11 -14   10.97   27.89
 -10  11 -15   84.33   29.15
 -10  11 -16   -9.37   22.40
 -11  10 -16    5.62   20.59
 -11  10 -17   -1.69   17.81
 -10  11 -17   -6.00   19.56
 -10  11 -18    2.43   16.62
 -11  10 -18    1.03   15.71
 -11 -11 -14   59.21   37.77
 -11 -11 -13  -27.25   44.74
 -11 -11 -12  360.22   66.89
 -11  11   2  220.61   20.69
  11 -11   1  -17.38   29.02
 -11  11   1   -7.44   13.15
 -11  11   0  680.79   30.92
  11 -11   0  359.52   57.56
 -11  11  -1   -8.02   13.39
  11 -11  -1    6.10   27.62
  11 -11  -2  111.58   42.69
 -11  11  -2  216.29   21.31
  11 -11  -3    2.11   30.27
 -11  11  -3    5.36   13.07
  11 -11  -4  -15.92   31.57
 -11  11  -4    9.25   13.48
  11 -11  -5   16.71   33.35
 -11  11  -5    9.62   13.51
  11 -11  -6   18.87   34.87
 -11  11  -6   27.54   15.36
  11 -11  -7  -23.70   40.08
 -11  11  -7   11.00   14.38
  11 -11  -8  -19.85   33.15
 -11  11  -8    8.19   14.07
  11 -11  -9   12.14   35.30
 -11  11  -9    0.37   14.51
 -11  11 -10  132.50   20.28
 -11  11 -11  -10.35   12.90
 -11  11 -12  240.06   21.58
 -11  11 -14   34.44   26.04
 -11  11 -15   15.19   22.62
 -11  11 -16   -2.66   19.99
 -11  11 -17    6.33   18.57
 -11  11 -18   33.40   17.75
  12   0   0 6933.69  169.42
  12   0  -1   79.13   27.85
  12   0   1   80.30   26.99
  12   0  -2 1316.40   76.00
  12   0   2 1329.11   77.92
  12   0   3  816.09   64.90
  12   0  -3  720.35   58.41
   0  12  -4  589.47   58.00
  12   0  -4  702.50   57.61
   0  12  -4  675.39   31.09
  12   0  -5  722.58   59.65
   0  12  -5  747.62   60.79
   0  12  -5  684.00   32.11
  12   0  -6  871.01   65.43
   0  12  -6  948.38   63.16
   0  12  -6  831.02   34.87
  12   0  -7  359.57   46.31
   0  12  -7  403.28   45.69
   0  12  -7  371.78   26.90
  12   0  -8  -30.98   24.77
   0  12  -8    2.44   27.14
   0  12  -8    8.41   15.99
  12   0  -9   82.35   31.26
   0  12  -9   70.62   34.15
   0  12  -9  110.70   22.29
  12   0 -10 1089.69   81.84
 -12   0 -10  983.86   39.11
   0  12 -11  355.59   50.74
  12   0 -11  327.87   49.44
   0  12 -12  709.20   65.30
   0  12 -13   95.25   37.06
   0  12 -14   13.26   30.49
   0 -12 -14   25.22   55.07
   0 -12 -15  133.07   54.28
   0  12 -15  131.26   38.32
   0 -12 -16  163.99   49.55
   0 -12 -17   82.38   40.11
   0 -12 -18   10.68   32.08
   0 -12 -19   31.09   27.55
  -1 -12 -19   45.04   28.48
  -1 -12 -18   11.70   31.61
  -1 -12 -17  188.15   43.59
  -1 -12 -16   45.49   44.88
  -1 -12 -15   62.06   49.60
   1  12 -14   63.21   33.52
  -1 -12 -14  102.69   56.78
   1  12 -13  193.67   42.77
   1  12 -12  200.20   44.61
   1  12 -11  922.01   72.69
   1  12 -10  280.86   46.43
  12   1 -10  289.43   46.27
   1  12  -9  470.25   53.68
   1  12  -9  508.33   34.64
  12   1  -9  449.43   52.85
   1  12  -8  174.26   40.53
  12   1  -8  185.73   37.20
   1  12  -8  182.83   24.73
  12   1  -7  606.24   56.36
   1  12  -7  574.73   33.11
  12   1  -6  163.88   33.82
   1  12  -6  106.10   37.62
   1  12  -6  150.90   23.17
   1  12  -5 1659.08   49.87
  12   1  -5 1792.68   90.51
   1  12  -4  564.16   51.22
  12   1  -4  489.91   49.71
   1  12  -4  449.76   28.75
  12   1  -3   50.28   25.43
  12  -1   3   73.80   24.85
  12  -1   2  513.70   50.93
  12   1  -2  519.82   50.32
  12   1  -1 2770.24  108.53
  12  -1   1 2744.11  107.85
  12   1   0  109.56   29.35
  12  -1   0  110.01   29.36
  12  -1  -1 2780.39  109.11
  12   1   1 2776.82  110.55
  12   1   2  516.93   52.76
  12  -1  -2  490.22   49.86
  12  -1  -3   63.16   26.00
  12  -1  -4  464.73   48.78
  -1  12  -4  467.11   25.65
  -1  12  -5 1860.45   82.71
  12  -1  -5 1984.78   99.49
  -1  12  -5 1755.80   45.24
  12  -1  -6  178.92   36.81
  -1  12  -6  147.62   18.83
  -1  12  -7  622.27   52.17
  12  -1  -7  595.84   57.28
 -12   1  -7  552.90   32.32
  -1  12  -7  607.20   30.24
  12  -1  -8  164.57   35.89
  -1  12  -8  137.57   35.53
  -1  12  -8  175.18   21.61
  12  -1  -9  466.08   54.50
  -1  12  -9  507.48   51.22
  -1  12  -9  532.03   30.01
 -12   1  -9  468.69   28.90
  12  -1 -10  298.58   49.76
  -1  12 -10  258.53   43.40
  -1  12 -10  356.51   29.10
 -12   1 -10  415.33   28.74
  -1  12 -11  894.41   67.38
 -12   1 -11  809.01   33.62
  -1  12 -12  215.05   43.29
  -1  12 -13  169.60   42.25
   1 -12 -13   89.38   65.85
   1 -12 -14   69.15   55.22
  -1  12 -14   63.13   34.44
  -1  12 -15  122.40   38.23
   1 -12 -15  103.47   51.64
   1 -12 -16   69.32   45.01
  -1  12 -16   33.39   28.58
   1 -12 -17  229.37   47.07
   1 -12 -18   27.39   32.78
   1 -12 -19    8.22   26.00
  -2 -12 -19   34.28   27.57
  -2 -12 -18   87.56   34.16
  -2 -12 -17    7.20   37.82
  -2 -12 -16  272.13   53.64
  -2 -12 -15  -64.56   51.01
  -2 -12 -14   50.28   55.57
   2  12 -12  354.94   51.49
   2  12 -11  133.02   42.28
   2  12 -10  223.53   50.05
  12   2 -10  298.54   45.21
 -12  -2 -10  359.51   29.27
   2  12  -9  175.50   42.94
   2  12  -9  217.28   29.05
  12   2  -9  158.91   35.52
  12   2  -8   28.48   23.30
   2  12  -8   16.23   30.96
   2  12  -8   31.29   22.22
   2  12  -7   22.39   31.52
  12   2  -7    4.29   20.73
   2  12  -7   14.44   20.54
   2  12  -6 1067.98   76.20
  12   2  -6 1079.00   71.60
   2  12  -6  998.59   44.37
   2  12  -5  138.78   24.31
  12   2  -5  120.61   29.17
   2  12  -5   57.10   37.36
  12  -2   4 1212.69   77.33
   2  12  -4 1219.35   79.19
  12   2  -4 1048.05   69.10
  12  -2   3   46.70   24.39
  12   2  -3   20.59   21.19
   2  12  -3    7.14   18.99
  12  -2   2  199.74   34.81
  12   2  -2  195.14   34.65
  12   2  -1  671.31   56.76
  12  -2   1  635.57   56.39
  12  -2   0 3031.88  114.36
  12   2   0 3147.59  117.35
  12   2   1  723.81   59.48
  12  -2  -1  631.16   55.93
  12   2   2  217.11   36.93
  12  -2  -2  194.99   35.16
  12  -2  -3   34.29   22.93
  -2  12  -3    8.46   11.81
  12  -2  -4 1049.48   71.21
  -2  12  -4  946.70   54.51
  -2  12  -4  989.39   34.04
  -2  12  -5   86.07   29.33
  -2  12  -5  134.93   17.16
  12  -2  -5   94.20   30.53
  12  -2  -6 1108.40   75.13
  -2  12  -6  972.87   62.97
  -2  12  -6 1066.12   35.95
 -12   2  -6  949.86   39.12
  -2  12  -7   31.13   14.89
  -2  12  -7    0.17   23.36
  12  -2  -7   24.71   24.65
 -12   2  -8   39.87   16.97
  -2  12  -8   48.23   16.58
  -2  12  -8   34.97   27.80
  12  -2  -8   33.88   26.24
  12  -2  -9  169.52   38.55
  -2  12  -9  197.46   22.48
 -12   2  -9  208.50   22.91
  -2  12  -9  201.71   39.02
  12  -2 -10  322.23   47.87
  -2  12 -10  362.65   46.11
 -12   2 -10  365.39   25.27
  -2  12 -10  378.13   27.49
  12  -2 -11  134.75   38.62
  -2  12 -11  113.15   37.50
  -2  12 -12  480.45   53.65
   2 -12 -13  101.06   64.83
  -2  12 -13  109.91   37.17
   2 -12 -14  -11.90   52.94
  -2  12 -14   19.46   29.53
   2 -12 -15    2.35   47.72
  -2  12 -15  -10.94   28.27
  -2  12 -16  186.39   42.16
   2 -12 -16  235.67   50.60
   2 -12 -17  -21.58   36.12
   2 -12 -18  115.26   35.74
   2 -12 -19   -1.00   25.38
  -3 -12 -19   31.26   25.91
  -3 -12 -18   37.14   32.23
  -3 -12 -17  193.05   43.50
  -3 -12 -16   97.34   45.54
  -3 -12 -15  196.67   56.90
  -3 -12 -14  -98.63   61.12
   3  12 -10   78.91   39.89
   3  12  -9   10.36   35.43
  12   3  -9   48.28   24.39
   3  12  -8    6.54   32.77
   3  12  -8   10.91   23.66
  12   3  -8   27.16   21.74
  12   3  -7  459.63   49.59
   3  12  -7  531.40   58.82
   3  12  -7  463.77   36.86
  12   3  -6  347.22   44.11
   3  12  -6  350.85   32.19
  12   3  -5  937.81   66.19
   3  12  -5  738.72   43.09
  12  -3   4  410.69   45.89
  12   3  -4  394.38   45.99
   3  12  -4  428.16   34.71
  12  -3   3  185.87   34.02
  12   3  -3  175.89   33.85
   3  12  -3  112.07   26.92
  12   3  -2  220.91   35.46
   3  12  -2  209.54   28.62
  12  -3   2  195.50   35.00
  12  -3   1  184.47   35.05
  12   3  -1  185.28   35.04
  12   3   0 1426.57   83.12
  12  -3   0 1259.35   76.48
  12   3   1  185.66   36.04
  12  -3  -1  201.25   36.19
  12  -3  -2  225.16   38.02
  12  -3  -3  194.77   35.94
 -12   3  -3  158.01   20.15
  -3  12  -3  147.93   16.83
  -3  12  -4  360.60   42.25
  12  -3  -4  386.04   47.21
  -3  12  -4  380.75   22.32
 -12   3  -4  380.24   25.29
  -3  12  -5 1031.35   58.94
  12  -3  -5  997.76   71.28
  -3  12  -5  889.48   33.22
  -3  12  -6  374.47   41.23
  12  -3  -6  333.77   44.54
 -12   3  -6  350.99   25.08
  -3  12  -6  351.33   22.49
  12  -3  -7  501.50   53.42
  -3  12  -7  545.70   27.22
 -12   3  -8   47.98   17.21
  -3  12  -8   34.87   14.69
  -3  12  -8    8.96   25.09
  12  -3  -8   11.96   22.49
 -12   3  -9   72.38   17.03
  -3  12  -9   69.81   16.03
  -3  12  -9   18.24   28.79
  12  -3  -9   44.39   26.85
 -12   3 -10   94.89   17.84
  -3  12 -10   53.02   33.80
  -3  12 -10   75.56   18.05
  12  -3 -10   83.02   32.57
 -12   3 -11  178.54   18.94
  -3  12 -11  115.19   38.27
  12  -3 -11  134.20   37.16
  12  -3 -12  131.50   31.41
  -3  12 -12  167.09   44.74
   3 -12 -12  138.94   45.34
   3 -12 -13   21.63   59.52
  -3  12 -13   24.82   30.08
   3 -12 -14   14.64   50.80
  -3  12 -14   41.51   28.75
   3 -12 -15  230.44   55.58
  -3  12 -15  269.42   45.09
   3 -12 -16   85.79   44.63
  -3  12 -16   64.84   30.77
   3 -12 -17  208.26   43.17
  -3  12 -17  162.36   35.54
   3 -12 -18   58.37   32.91
   3 -12 -19   38.18   26.19
  -4 -12 -19   47.50   27.21
  -4 -12 -18   99.86   33.61
  -4 -12 -17  364.47   51.96
  -4 -12 -16  172.83   49.48
  -4 -12 -15  236.50   58.95
  -4 -12 -14  167.48   60.41
  12   4  -9    2.40   19.12
  12   4  -8  374.45   47.04
  12   4  -7  533.88   53.40
  12   4  -6  824.78   64.36
  12   4  -5 1951.32   95.87
   4  12  -5 1838.98   63.90
  12  -4   4  279.21   38.48
  12   4  -4  239.75   37.29
   4  12  -4  209.46   30.06
  12   4  -3  168.56   34.28
   4  12  -3  189.48   31.17
  12  -4   3  176.99   34.95
  12  -4   2   57.65   24.72
  12   4  -2   35.64   22.73
  12   4  -1  763.43   61.94
  12  -4   1  719.07   59.83
  12  -4   0   91.87   27.90
  12  -4  -1  694.82   61.51
 -12   4  -2   47.42   16.74
  -4  12  -2   42.19   12.98
  12  -4  -2   36.07   24.64
  -4  12  -3  169.07   16.80
 -12   4  -3  184.13   20.25
  12  -4  -3  137.60   32.77
  -4  12  -4  242.87   19.53
  -4  12  -4  182.89   33.64
  12  -4  -4  252.73   39.49
 -12   4  -4  209.57   20.43
  -4  12  -5 1857.75   45.52
  -4  12  -5 1819.82   77.37
  12  -4  -5 1869.30   98.25
  -4  12  -6  837.03   32.94
  12  -4  -6  909.16   68.30
 -12   4  -6  920.29   34.16
  -4  12  -7  635.04   50.14
  12  -4  -7  518.16   55.16
 -12   4  -7  586.52   28.84
  -4  12  -7  528.89   27.52
 -12   4  -8  495.25   27.60
  12  -4  -8  448.26   52.96
  -4  12  -8  548.92   28.70
  -4  12  -9   15.55   13.91
  -4  12  -9    4.61   25.04
  12  -4  -9  -15.42   27.38
 -12   4  -9    1.01   13.48
  -4  12 -10  -13.20   28.07
  -4  12 -10  -13.70   13.59
   4 -12 -10   23.86   37.62
  12  -4 -10  -13.50   27.59
 -12   4 -10   19.40   14.06
 -12   4 -11  239.74   21.30
   4 -12 -11  233.35   54.64
  -4  12 -11  269.11   23.14
  -4  12 -11  235.04   44.88
  12  -4 -11  200.10   43.33
   4 -12 -12  -40.59   40.85
 -12   4 -12   53.75   13.33
  -4  12 -12   15.58   28.57
  12  -4 -12  -11.93   29.32
   4 -12 -13   34.08   55.97
  -4  12 -13    9.47   28.15
   4 -12 -14  208.08   56.73
  -4  12 -14  272.24   44.50
   4 -12 -15  159.37   50.36
  -4  12 -15  111.79   37.06
   4 -12 -16  215.47   47.13
  -4  12 -16  192.58   39.44
  -4  12 -17  209.20   36.39
   4 -12 -17  250.33   43.27
   4 -12 -18   74.04   30.41
   4 -12 -19   25.24   23.67
 -12   4 -19   16.61   14.67
  -5 -12 -19   33.07   24.54
  -5 -12 -18  168.27   34.96
  -5 -12 -17   27.58   35.41
  -5 -12 -16  436.58   56.24
  -5 -12 -15   97.84   50.57
  -5 -12 -14   47.22   56.41
  12   5  -8  137.40   32.29
  12   5  -7  413.70   48.53
  12   5  -6 1546.59   88.56
  12   5  -5  197.18   35.39
  12   5  -4 1421.58   85.97
  12  -5   4 1507.45   82.92
  12   5  -3    3.96   21.63
  12  -5   3   24.22   22.66
  12   5  -2   47.59   25.41
   5 -12   2   21.44   23.52
  12  -5   2   36.68   24.66
   5 -12   1  376.42   47.76
  12  -5   1  408.20   48.09
  -5  12   0  918.71   32.39
  12  -5   0 1034.24   72.70
 -12   5  -1  371.97   23.21
  -5  12  -1  368.29   22.49
  12  -5  -1  390.03   47.58
 -12   5  -2   45.93   14.61
  -5  12  -2   48.10   12.73
  12  -5  -2   23.31   23.91
 -12   5  -3    5.95   13.41
  -5  12  -3   26.94   12.43
  12  -5  -3   25.57   22.09
  -5  12  -3   -2.99   22.47
  -5  12  -4 1377.33   39.84
  -5  12  -4 1330.10   69.87
  12  -5  -4 1476.91   87.23
 -12   5  -4 1467.14   40.87
  -5  12  -5  209.91   18.85
  -5  12  -5  133.43   28.74
 -12   5  -5  211.82   19.75
  12  -5  -5  213.80   37.48
  -5  12  -6 1438.33   72.20
  -5  12  -6 1624.24   43.86
 -12   5  -6 1655.17   44.58
  12  -5  -6 1575.55   92.10
  -5  12  -7  443.28   26.23
  -5  12  -7  540.59   47.12
 -12   5  -7  479.46   26.66
  12  -5  -7  476.05   53.61
  -5  12  -8  163.58   19.09
  12  -5  -8  108.83   34.54
   5 -12  -8  129.64   45.35
  -5  12  -8  128.78   32.52
 -12   5  -8  111.67   18.58
  -5  12  -9   38.57   14.59
 -12   5  -9   50.46   15.50
   5 -12  -9   33.05   33.22
  12  -5  -9   15.68   24.80
  -5  12  -9   10.73   26.22
   5 -12 -10  220.66   52.48
 -12   5 -10  296.87   23.09
  -5  12 -10  231.97   44.33
  12  -5 -10  254.35   45.70
  -5  12 -10  330.94   24.23
  -5  12 -11   28.52   14.64
   5 -12 -11   37.75   35.80
  12  -5 -11   10.39   26.41
 -12   5 -11   39.17   13.62
 -12   5 -12  101.30   15.68
   5 -12 -12  123.61   65.13
  -5  12 -12   90.51   36.14
   5 -12 -13  171.80   57.18
  -5  12 -13  178.07   41.50
  -5  12 -14   52.82   30.32
   5 -12 -14   66.49   48.44
  -5  12 -15   96.92   33.60
   5 -12 -15   99.23   43.65
   5 -12 -16  362.26   49.33
  -5  12 -16  351.81   45.96
   5 -12 -17   47.16   32.96
  -5  12 -17   23.73   25.52
   5 -12 -18  186.86   33.98
  -5  12 -18   95.52   23.69
   5 -12 -19   25.50   20.40
  -6 -12 -19   14.41   21.21
  -6 -12 -18   17.34   26.58
  -6 -12 -17  272.87   42.99
  -6 -12 -16   17.54   40.31
  -6 -12 -15  247.61   56.07
  -6 -12 -14   36.18   55.35
  12  -6   3  305.49   42.16
  12  -6   2   93.07   29.71
  -6  12   2   50.87   13.00
   6 -12   2   71.44   29.78
  -6  12   1 1171.61   36.14
  12  -6   1 1435.75   85.42
   6 -12   1 1411.73   85.92
 -12   6   1 1108.49   34.44
   6 -12   0  354.46   49.21
  -6  12   0  293.10   20.18
 -12   6   0  328.94   20.86
  12  -6   0  352.66   46.95
  -6  12  -1 1300.15   38.03
   6 -12  -1 1419.02   93.93
 -12   6  -1 1381.15   38.86
  12  -6  -1 1252.22   82.02
  -6  12  -2   75.95   14.63
  12  -6  -2   85.58   30.16
   6 -12  -2   86.00   36.32
  -6  12  -2   42.72   21.87
 -12   6  -2   89.33   16.05
  -6  12  -3  283.59   20.36
   6 -12  -3  278.45   50.51
  -6  12  -3  264.86   33.05
  12  -6  -3  297.93   44.50
 -12   6  -3  297.83   20.92
 -12   6  -4   54.98   14.12
  12  -6  -4   47.62   26.70
   6 -12  -4   23.08   30.24
  -6  12  -4   10.85   23.49
  -6  12  -4   28.87   11.92
  -6  12  -5 1712.98   45.46
   6 -12  -5 1756.50  118.23
  12  -6  -5 1776.91   98.77
 -12   6  -5 1643.90   44.76
  -6  12  -5 1475.80   71.27
  -6  12  -6   80.08   15.58
   6 -12  -6   59.36   36.27
  12  -6  -6   49.42   26.10
 -12   6  -6   79.20   15.56
  -6  12  -7  804.71   34.70
  12  -6  -7  766.20   71.81
   6 -12  -7  780.25   87.12
 -12   6  -7  816.68   34.34
  -6  12  -8    6.82   13.21
  12  -6  -8    5.29   25.82
   6 -12  -8    3.51   33.63
 -12   6  -8   12.16   13.44
  -6  12  -9  143.74   19.36
   6 -12  -9  132.94   44.35
  12  -6  -9   98.71   33.77
 -12   6  -9  138.44   18.14
 -12   6 -10   45.30   14.98
  -6  12 -10   46.30   15.76
   6 -12 -10   58.46   39.42
  -6  12 -10    8.33   25.99
  12  -6 -10   27.11   26.18
 -12   6 -11  319.48   22.60
  -6  12 -11  238.27   45.85
   6 -12 -11  256.17   55.28
  12  -6 -11  225.82   46.82
  -6  12 -11  334.66   24.28
 -12   6 -12  151.75   17.20
   6 -12 -12   90.57   57.89
  -6  12 -12  141.37   38.53
   6 -12 -13   16.04   47.16
  -6  12 -13    3.03   27.70
   6 -12 -14   28.99   41.25
  -6  12 -14   18.03   28.42
  -6  12 -15  173.18   39.80
   6 -12 -15  149.72   43.42
  -6  12 -16  -10.44   26.65
   6 -12 -16    8.63   33.94
  -6  12 -17  262.28   36.88
   6 -12 -17  260.69   37.94
   6 -12 -18    2.01   21.74
  -6  12 -18   10.97   19.14
  -7 -12 -18   27.62   26.29
  -7 -12 -17    9.44   30.81
  -7 -12 -16  234.48   46.42
  -7 -12 -15  -24.32   47.85
  -7 -12 -14   74.73   56.22
  -7 -12 -13  -62.95   65.35
  -7  12   3   63.81   14.28
  12  -7   3   62.16   27.79
  -7  12   2  182.43   17.77
 -12   7   2  190.26   16.67
  -7  12   1   28.59   12.08
   7 -12   1   21.30   25.29
 -12   7   1   34.20   12.63
  12  -7   1   41.16   25.81
  -7  12   0 2656.60   53.99
 -12   7   0 2671.61   52.50
   7 -12   0 2882.49  127.22
  12  -7   0 2711.92  118.30
 -12   7  -1   33.83   16.29
   7 -12  -1   30.86   29.52
  12  -7  -1   33.49   25.17
  -7  12  -2  243.70   19.38
   7 -12  -2  269.36   49.61
  12  -7  -2  243.24   42.55
  -7  12  -2  146.39   29.73
 -12   7  -2  252.17   19.27
  -7  12  -3   45.11   13.50
  12  -7  -3   38.79   27.95
   7 -12  -3   64.34   34.51
  -7  12  -3   30.65   23.56
 -12   7  -3   50.87   14.40
  -7  12  -4  784.45   32.75
  12  -7  -4  874.36   73.20
   7 -12  -4  777.30   82.64
 -12   7  -4  840.31   32.34
  12  -7  -5    0.62   26.73
  -7  12  -5   -1.21   12.67
 -12   7  -5   24.33   12.94
   7 -12  -5  -13.22   36.65
  -7  12  -6 1150.44   41.85
   7 -12  -6 1211.18  106.20
  12  -7  -6 1237.58   89.29
 -12   7  -6 1276.92   40.42
  12  -7  -7   16.91   27.24
 -12   7  -7   16.55   13.96
  -7  12  -7   10.25   13.33
   7 -12  -7   23.56   35.67
 -12   7  -8   33.29   14.66
  -7  12  -8   26.57   14.38
  12  -7  -8   32.35   29.73
   7 -12  -8    2.60   36.26
  -7  12  -9    4.65   13.95
 -12   7  -9   -4.30   13.23
  12  -7  -9  -21.45   28.71
   7 -12  -9  -31.44   39.48
  -7  12 -10  695.78   33.40
   7 -12 -10  571.72   78.32
 -12   7 -10  665.51   31.16
  12  -7 -10  556.63   67.22
  -7  12 -11   60.50   15.66
  12  -7 -11   12.55   29.96
   7 -12 -11   38.70   55.96
  -7  12 -11   21.64   28.89
 -12   7 -11   69.54   15.25
   7 -12 -11   18.75   37.22
   7 -12 -12  540.78   66.42
 -12   7 -12  537.36   26.72
  -7  12 -12  583.92   58.74
  -7  12 -12  510.86   28.56
   7 -12 -13  -32.90   42.59
  -7  12 -13   -9.59   27.68
   7 -12 -14    2.50   36.18
  -7  12 -14   33.26   28.24
   7 -12 -15  -23.37   33.29
  -7  12 -15  -17.61   26.89
   7 -12 -16  184.07   36.06
  -7  12 -16  216.50   36.14
  -7  12 -17    5.61   21.96
   7 -12 -17    1.52   23.37
  -7  12 -18    9.60   18.19
 -12   7 -18   18.49   17.79
  -8 -12 -18   -5.10   22.28
  -8 -12 -17   21.60   28.58
  -8 -12 -16   15.93   36.29
  -8 -12 -15   13.60   41.78
  -8 -12 -14   -9.07   51.18
  -8 -12 -13  111.21   62.77
  -8  12   3   26.54   11.82
  -8  12   2   51.41   16.71
  12  -8   2   -0.41   23.90
 -12   8   2    5.65   11.27
  -8  12   1 1524.91   43.44
   8 -12   1 1685.39   97.59
 -12   8   1 1467.18   40.33
  12  -8   1 1685.83   96.21
  -8  12   0   38.23   12.38
  12  -8   0    3.27   24.69
   8 -12   0   25.65   27.68
 -12   8   0   30.16   12.96
  -8  12  -1 1602.24   43.70
   8 -12  -1 1460.55  103.14
  12  -8  -1 1670.38   96.10
 -12   8  -1 1572.26   42.48
  -8  12  -2   -4.73   21.52
  -8  12  -2   -5.07   12.42
  12  -8  -2   15.37   24.52
 -12   8  -2   11.13   12.35
   8 -12  -2    9.13   28.81
  -8  12  -3   38.43   13.33
   8 -12  -3   30.41   32.15
 -12   8  -3   33.91   12.83
  12  -8  -3   44.47   29.53
  -8  12  -3   20.69   20.93
  -8  12  -4   82.37   15.74
  12  -8  -4   47.81   28.45
   8 -12  -4   52.34   37.10
 -12   8  -4   67.57   15.25
  -8  12  -5  462.94   28.38
   8 -12  -5  498.67   70.21
  12  -8  -5  473.22   60.41
 -12   8  -5  510.22   27.14
   8 -12  -6   98.63   47.15
  12  -8  -6   84.62   34.71
  -8  12  -6   96.32   16.92
 -12   8  -6   74.25   15.84
  -8  12  -7  254.06   24.96
  12  -8  -7  249.68   47.72
 -12   8  -7  318.00   23.85
   8 -12  -7  277.41   59.39
  -8  12  -8  109.32   18.49
  12  -8  -8   91.97   38.23
 -12   8  -8  100.66   17.18
   8 -12  -8   66.46   38.06
 -12   8  -9  217.65   21.37
  -8  12  -9  223.39   22.09
  12  -8  -9  184.58   44.46
   8 -12  -9  165.75   51.30
  -8  12 -10   10.11   13.72
 -12   8 -10   10.02   13.43
   8 -12 -10  -23.30   36.76
  12  -8 -10    3.25   29.13
 -12   8 -11 1077.55   37.82
  -8  12 -11 1175.26   41.82
  -8  12 -12   61.44   14.99
 -12   8 -12   64.23   14.78
  -8  12 -12   67.19   42.90
  -8  12 -13  143.83   40.04
  -8  12 -14    1.12   25.19
  -8  12 -15   42.82   27.37
  -8  12 -16   18.79   23.89
  -8  12 -17   34.96   21.85
 -12   8 -17    9.69   19.05
 -12   8 -18    1.76   15.38
  -8  12 -18   -6.40   17.13
  -9 -12 -17   20.95   25.93
  -9 -12 -16   23.76   31.89
  -9 -12 -15   -8.35   38.25
  -9 -12 -14   -9.97   47.50
  -9 -12 -13   35.71   55.12
  -9  12   3   36.84   12.64
  -9  12   2  699.75   31.98
 -12   9   2  753.97   30.08
   9 -12   1   38.90   26.19
  -9  12   1  136.97   16.75
 -12   9   1   93.13   16.29
  12  -9   1   79.25   33.15
  -9  12   0 1740.08   47.52
   9 -12   0 1905.04  109.49
 -12   9   0 1867.60   46.42
  12  -9   0 2011.63  106.75
  -9  12  -1  125.66   16.36
 -12   9  -1   86.28   16.53
  12  -9  -1   80.09   32.89
   9 -12  -1   98.42   35.85
  -9  12  -2  846.38   34.76
   9 -12  -2  882.67   81.43
 -12   9  -2  864.59   33.45
  12  -9  -2  924.42   77.32
  -9  12  -2  756.40   48.11
  12  -9  -3   30.98   29.56
  -9  12  -3   55.12   15.33
 -12   9  -3   47.93   14.43
   9 -12  -3   30.75   33.35
  12  -9  -4    3.93   30.48
  -9  12  -4   33.36   15.14
 -12   9  -4   28.29   14.09
   9 -12  -4   37.60   34.80
  12  -9  -5   25.69   29.77
  -9  12  -5   14.21   13.83
 -12   9  -5    9.45   12.88
   9 -12  -5   -5.28   34.57
  -9  12  -6  355.55   26.64
   9 -12  -6  320.37   61.50
 -12   9  -6  334.04   24.71
  12  -9  -6  304.22   53.61
  -9  12  -7  111.63   18.21
  12  -9  -7  104.11   39.25
 -12   9  -7  141.39   18.92
   9 -12  -7   99.99   42.72
  12  -9  -8   11.68   30.79
  -9  12  -8   -0.84   14.49
 -12   9  -8    3.29   13.72
   9 -12  -8    5.87   35.33
  -9  12  -9   15.00   15.26
 -12   9  -9   10.39   14.04
  12  -9  -9   12.31   29.99
   9 -12  -9    9.81   36.86
  -9  12 -10  831.20   37.02
 -12   9 -10  826.41   34.87
   9 -12 -10  649.44   85.13
  12  -9 -10  621.61   77.43
  -9  12 -11   97.50   17.35
 -12   9 -11  102.82   18.06
 -12   9 -12  502.73   27.16
  -9  12 -12  462.92   27.67
  -9  12 -13   64.47   31.05
  -9  12 -14  119.34   32.07
  -9  12 -15   19.61   25.71
  -9  12 -16   42.04   26.03
  -9  12 -17    2.46   19.71
 -12   9 -17   -5.40   18.00
  -9  12 -18   -2.07   16.70
 -12   9 -18    4.18   15.22
 -10 -12 -17   -1.60   19.98
 -10 -12 -16   24.44   28.15
 -10 -12 -15  -31.74   34.99
 -10 -12 -14   20.30   40.93
 -10 -12 -13   64.59   51.18
 -10  12   2  150.31   17.63
 -12  10   2  122.39   17.68
 -10  12   1  913.66   35.20
 -12  10   1  909.97   33.67
  10 -12   1  858.24   76.28
  12 -10   1  896.94   76.43
  10 -12   0  139.51   36.11
 -10  12   0  309.12   23.80
 -12  10   0  265.76   23.44
  12 -10   0  166.18   45.21
 -12  10  -1  915.80   34.75
 -10  12  -1  896.47   35.84
  10 -12  -1  886.18   79.76
  12 -10  -1  977.66   79.69
 -10  12  -2  150.13   18.66
 -12  10  -2  104.91   18.50
  12 -10  -2   95.83   38.27
  10 -12  -2   49.92   35.33
 -12  10  -3   81.52   15.66
  12 -10  -3   90.36   36.29
 -10  12  -3   81.80   16.50
  10 -12  -3   77.95   39.00
 -12  10  -4   16.06   13.26
  12 -10  -4    2.90   30.94
 -10  12  -4   30.76   14.39
  10 -12  -4   23.21   36.94
  12 -10  -5   46.57   32.13
 -12  10  -5   90.12   17.00
  10 -12  -5   94.38   39.79
 -10  12  -5   85.71   17.32
  12 -10  -6   15.57   32.18
 -10  12  -6   26.00   15.40
 -12  10  -6   41.53   15.25
  10 -12  -6   30.49   39.05
 -12  10  -7   46.19   16.07
  12 -10  -7   57.31   36.57
  10 -12  -7   57.10   40.39
 -10  12  -7   61.22   17.04
 -12  10  -8   -0.69   13.90
  12 -10  -8  -36.68   35.02
 -10  12  -8    3.46   14.49
  10 -12  -8   20.57   39.71
 -10  12  -9  283.64   24.52
 -12  10  -9  272.83   23.51
  12 -10  -9  216.47   52.54
  10 -12  -9  202.78   55.05
 -10  12 -10  123.43   19.92
 -12  10 -10  108.37   19.20
 -10  12 -11  419.32   27.59
 -12  10 -11  420.00   26.94
 -12  10 -12  182.03   20.58
 -10  12 -12  219.97   20.28
 -12  10 -13  129.31   16.32
 -10  12 -13  134.16   36.97
 -10  12 -14   16.82   25.28
 -10  12 -15   28.01   25.22
 -10  12 -16   -4.00   21.88
 -12  10 -16  -12.50   20.94
 -12  10 -17   18.85   18.24
 -10  12 -17   14.80   20.91
 -12  10 -18   34.09   17.52
 -11 -12 -15   34.65   29.76
 -11 -12 -14  -23.07   35.58
 -11 -12 -13   74.01   44.67
 -11 -12 -12   54.57   54.75
 -12  11   2   64.57   14.98
 -11  12   2   60.06   15.38
 -11  12   1  198.23   19.93
 -12  11   1  174.87   20.72
 -11  12   0  171.36   19.85
 -12  11   0  177.47   19.44
  11 -12   0  160.55   43.28
  12 -11   0  162.90   39.99
  11 -12  -1   53.87   35.13
 -11  12  -1  162.00   19.69
 -12  11  -1  128.22   19.99
  12 -11  -1   61.46   37.71
 -11  12  -2   71.59   16.68
  11 -12  -2   65.99   36.07
  12 -11  -2   64.34   34.86
 -12  11  -2   68.76   16.26
  11 -12  -3   38.61   32.90
  12 -11  -3   18.28   31.78
 -11  12  -3   36.57   15.13
 -12  11  -3   63.66   16.27
  11 -12  -4   25.14   34.36
 -12  11  -4   10.38   14.13
  12 -11  -4  -11.96   34.64
 -11  12  -4    0.77   13.76
  11 -12  -5  125.49   47.11
  12 -11  -5  159.64   45.56
 -11  12  -5  182.52   20.55
 -12  11  -5  193.92   20.85
  11 -12  -6   10.08   36.80
  12 -11  -6    6.42   34.99
 -11  12  -6    5.88   14.91
 -12  11  -6   23.39   14.78
  11 -12  -7  122.78   48.94
 -11  12  -7  118.08   19.68
  12 -11  -7   89.06   41.55
 -12  11  -7  111.81   19.13
  11 -12  -8   38.19   40.20
  12 -11  -8   46.27   37.85
 -11  12  -8   19.39   15.22
 -12  11  -8   21.00   14.85
 -11  12  -9   32.70   15.12
 -12  11  -9   45.79   16.17
 -11  12 -10   66.01   16.45
 -12  11 -10   72.07   16.92
 -11  12 -11  183.13   20.42
 -12  11 -11  161.29   20.20
 -12  11 -12   40.13   14.70
 -11  12 -12   58.68   15.27
 -11  12 -13   26.95   11.76
 -12  11 -13   60.72   13.40
 -11  12 -13   21.01   24.99
 -11  12 -14    5.98   23.97
 -12  11 -15   18.92   22.15
 -11  12 -15   20.08   22.67
 -12  11 -16   -4.62   19.25
 -11  12 -16   -1.08   20.32
 -11  12 -17   81.48   22.92
 -12  11 -17   64.68   23.36
 -12  12   2   72.52   16.48
 -12  12   1   13.02   16.00
 -12  12   0  169.26   21.12
  12 -12   0   78.91   35.18
  12 -12  -1  -32.19   35.50
 -12  12  -1    2.83   13.98
  12 -12  -2   23.85   39.40
 -12  12  -2   59.50   16.60
  12 -12  -3  -28.57   37.25
 -12  12  -3    6.70   14.79
 -12  12  -4  508.59   28.97
  12 -12  -4  391.33   63.46
  12 -12  -5   14.60   36.05
 -12  12  -5    3.24   14.22
 -12  12  -6  788.08   35.74
  12 -12  -6  643.09   84.38
  12 -12  -7   15.79   38.79
 -12  12  -7   -9.93   14.97
 -12  12  -8  119.80   19.18
 -12  12  -9   11.82   15.13
 -12  12 -10   60.31   15.86
 -12  12 -11  -21.37   13.98
 -12  12 -12   53.64   14.55
 -12  12 -13    6.97   11.08
 -12  12 -13   -3.68   22.47
 -12  12 -14   79.75   27.07
 -12  12 -15   12.35   21.21
 -12  12 -16  249.55   31.93
 -12  12 -17  -16.92   18.90
  13   0   0  223.45   40.46
   0  13   0  235.97   26.49
   0  13  -1 2124.28   57.06
   0  13   1 2135.36   61.22
  13   0   1 2118.50  101.13
  13   0  -1 2155.86  101.08
  13   0  -2  653.72   59.38
   0  13  -2  662.74   33.80
   0  13   2  707.96   40.67
  13   0   2  658.05   60.67
  13   0  -3  118.45   31.45
  13   0   3  154.46   36.08
   0  13   3  180.99   30.68
   0  13  -3  126.66   19.82
   0  13  -4  727.05   69.39
  13   0  -4  888.58   69.04
   0  13  -4  838.02   37.16
  13   0  -5 1588.16   91.48
   0  13  -5 1395.74   85.31
   0  13  -5 1614.31   48.70
   0  13  -6  659.00   35.02
  13   0  -6  624.96   62.14
   0  13  -6  532.95   58.81
  13   0  -7  717.16   65.46
   0  13  -7  808.20   37.55
 -13   0  -8  359.10   29.82
  13   0  -8  375.14   50.50
   0  13  -8  423.17   30.33
   0  13  -8  388.23   50.96
  13   0  -9  373.97   52.34
   0  13  -9  322.80   50.81
   0  13  -9  436.62   32.15
 -13   0  -9  437.11   31.64
   0  13 -10  404.73   52.37
  13   0 -10  352.43   53.04
   0  13 -10  520.86   36.91
   0  13 -11 1043.42   75.14
 -13   0 -11  926.62   37.39
   0  13 -12  358.38   53.21
   0  13 -13   28.75   33.26
   0 -13 -14  205.31   69.56
   0  13 -14  157.39   40.41
   0 -13 -15  204.66   62.84
   0 -13 -16  139.97   53.14
   0 -13 -17  186.14   46.56
   0 -13 -18  151.46   38.26
   0 -13 -19   18.30   27.20
  -1 -13 -19  109.20   30.38
  -1 -13 -18   85.18   34.48
  -1 -13 -17  127.98   44.82
  -1 -13 -16  408.62   61.98
  -1 -13 -15   68.97   56.94
  -1 -13 -14  -11.52   60.74
   1  13 -13  232.40   47.18
   1  13 -12  328.12   50.09
   1  13 -11  349.04   54.01
 -13  -1 -11  665.89   33.87
   1  13 -10  910.41   69.25
 -13  -1 -10  890.22   39.76
   1  13  -9  287.32   50.99
  13   1  -9  308.19   47.82
   1  13  -9  400.14   33.64
 -13  -1  -9  378.26   32.01
  13   1  -8   -2.90   23.57
   1  13  -8    6.21   31.15
   1  13  -8    1.84   20.48
  13   1  -7  342.77   47.79
   1  13  -7  347.84   31.21
   1  13  -7  272.80   48.89
  13   1  -6 1726.76   95.70
   1  13  -6 1751.70   54.69
  13   1  -5  315.92   44.65
   1  13  -5  333.97   30.02
   1  13  -4  957.99   41.66
  -1  13   4 1099.66   50.46
  13   1  -4 1024.54   72.49
   1  13  -4 1009.56   75.14
  -1  13   3  701.04   39.36
   1  13  -3  690.69   35.96
  13   1  -3  687.94   60.20
  13  -1   3  786.38   65.79
  13   1  -2  386.82   47.17
  13  -1   2  390.19   47.40
  -1  13   2  386.14   29.51
   1  13  -2  386.24   29.68
  13  -1   1  400.12   48.02
  13   1  -1  429.35   49.52
   1  13  -1  444.37   33.03
  -1  13   1  439.11   29.31
  13   1   0 3881.98  136.26
   1  13   0 3732.86   80.90
  -1  13   0 3919.17   73.17
  13  -1   0 3847.34  134.26
  13  -1  -1  411.24   49.02
   1  13   1  441.89   37.49
  -1  13  -1  424.49   27.91
  13   1   1  451.64   51.35
  13   1   2  422.08   50.45
  -1  13  -2  306.87   46.87
  13  -1  -2  417.97   48.52
   1  13   2  398.23   35.19
  -1  13  -2  379.09   26.24
  13  -1  -3  745.32   62.94
  -1  13  -3  646.91   62.17
  -1  13  -3  674.76   31.49
  13  -1  -4 1010.24   73.30
  -1  13  -4  847.58   70.68
  -1  13  -4  985.83   37.04
  13  -1  -5  315.66   45.81
  -1  13  -5  259.23   45.76
  -1  13  -5  306.15   25.38
  13  -1  -6 1740.33   97.36
  -1  13  -6 1738.07   90.90
  -1  13  -6 1800.03   49.34
  13  -1  -7  369.45   50.13
  -1  13  -7  291.79   45.13
  -1  13  -7  366.48   27.99
 -13   1  -7  423.73   32.94
  -1  13  -8   15.38   16.80
  13  -1  -8   18.73   24.34
  -1  13  -8    2.63   28.24
  13  -1  -9  398.31   54.67
  -1  13  -9  392.93   50.21
  -1  13  -9  398.31   29.50
 -13   1  -9  306.58   27.64
  -1  13 -10  664.82   66.88
  13  -1 -10  719.19   71.26
  -1  13 -10  959.83   43.05
 -13   1 -10  864.82   36.81
  -1  13 -11  400.25   52.92
 -13   1 -11  489.66   29.84
  -1  13 -12  252.46   51.87
  -1  13 -13  330.20   49.83
   1 -13 -14   57.58   62.03
  -1  13 -14   22.14   31.53
   1 -13 -15   85.75   55.44
  -1  13 -15   74.21   34.59
   1 -13 -16  432.81   60.96
   1 -13 -17  117.66   45.36
   1 -13 -18   77.27   35.92
   1 -13 -19   84.24   29.70
  -2 -13 -19   42.54   27.26
  -2 -13 -18   37.58   32.35
  -2 -13 -17  303.75   49.57
  -2 -13 -16  -57.34   48.07
  -2 -13 -15  267.34   64.20
  -2 -13 -14   49.69   63.71
   2  13 -11  278.33   48.34
 -13  -2 -11  344.22   27.55
  13   2 -10  302.36   47.14
   2  13 -10  331.70   55.47
  13   2  -9  113.84   33.61
   2  13  -9  112.30   28.35
   2  13  -9   71.10   38.36
   2  13  -8  176.95   47.34
   2  13  -8  248.72   32.43
  13   2  -8  187.90   40.12
   2  13  -7  733.67   43.03
  13   2  -7  751.30   65.73
  13   2  -6  102.05   31.21
   2  13  -6  132.28   29.77
   2  13  -5 1825.01   59.59
  13   2  -5 1892.70   98.07
  13  -2   4   86.65   32.57
   2  13  -4   80.46   27.49
  13   2  -4   70.13   25.91
  13   2  -3  319.87   43.87
  13  -2   3  346.92   47.88
   2  13  -3  243.01   29.13
  -2  13   3  300.00   28.01
  13  -2   2  515.41   53.35
  13   2  -2  504.70   52.15
   2  13  -2  480.76   35.14
  -2  13   2  505.33   30.08
  13   2  -1  858.55   67.55
   2  13  -1  745.26   41.41
  -2  13   1  874.45   36.64
  13  -2   1  869.22   66.71
  13   2   0  546.97   55.61
  13  -2   0  458.97   51.82
   2  13   0  590.95   40.82
  -2  13   0  514.15   29.52
  13   2   1  896.83   70.36
  13  -2  -1  902.20   68.92
   2  13   1  747.10   44.66
  -2  13  -1  850.50   34.21
  13  -2  -2  471.69   51.96
  -2  13  -2  407.35   50.64
  -2  13  -2  469.61   26.59
  13  -2  -3  344.19   46.31
  -2  13  -3  247.43   47.22
  -2  13  -3  317.44   22.55
  -2  13  -4   58.17   15.49
  13  -2  -4   68.63   30.58
  -2  13  -4   51.15   31.21
  13  -2  -5 1996.04  103.38
 -13   2  -5 1810.71   51.36
  -2  13  -5 1824.85   85.38
  -2  13  -5 1977.64   48.94
  13  -2  -6  126.38   37.06
  -2  13  -6   89.06   34.81
  -2  13  -6  103.43   19.03
 -13   2  -6  158.38   24.09
  13  -2  -7  781.82   68.67
  -2  13  -7  953.39   59.68
  -2  13  -7  826.13   35.24
 -13   2  -7  870.56   37.73
  13  -2  -8  192.04   39.95
  -2  13  -8  187.45   41.47
  -2  13  -8  221.64   22.87
 -13   2  -8  145.81   23.37
  13  -2  -9   90.63   33.24
  -2  13  -9  139.13   21.52
 -13   2  -9  133.02   20.84
 -13   2 -10  384.47   28.10
  13  -2 -10  306.39   51.57
  -2  13 -10  346.00   51.33
  -2  13 -10  462.75   31.41
 -13   2 -11  389.80   26.25
  13  -2 -11  229.40   46.80
  -2  13 -11  251.35   48.61
  -2  13 -12  354.19   54.63
 -13   2 -12  355.59   23.18
   2 -13 -13   63.13   70.45
  -2  13 -13   19.77   31.57
   2 -13 -14   30.61   59.34
  -2  13 -14   23.44   32.67
   2 -13 -15  416.22   68.71
  -2  13 -15  369.07   50.43
   2 -13 -16   14.42   45.32
  -2  13 -16  -11.08   27.87
   2 -13 -17  331.48   50.81
   2 -13 -18   10.00   31.98
   2 -13 -19   37.69   25.44
  -3 -13 -19   19.84   24.89
  -3 -13 -18  117.19   35.07
  -3 -13 -17   29.90   38.14
  -3 -13 -16  459.41   61.99
  -3 -13 -15 -112.74   57.87
  -3 -13 -14  428.74   78.15
 -13  -3 -11  322.73   28.68
  13   3  -9  129.86   34.47
  13   3  -8  200.20   38.87
  13   3  -7   -3.04   20.14
   3  13  -7   28.74   27.85
  13   3  -6 1143.39   78.05
   3  13  -6 1051.30   51.10
  13   3  -5  140.70   32.47
   3  13  -5  186.18   32.21
  13   3  -4 1465.74   86.39
  13  -3   4 1663.74   93.82
  13  -3   3   -9.91   22.08
  13   3  -3   -1.73   22.11
   3  13  -3   -5.05   24.11
  -3  13   3  -18.79   17.84
  -3  13   2    8.77   15.47
  13   3  -2   11.74   19.96
  13  -3   2    5.83   20.99
   3  13  -2  -34.35   26.88
  13  -3   1  741.37   63.81
   3  13  -1  890.11   46.94
  -3  13   1  803.40   33.63
  13   3  -1  881.05   68.51
 -13   3   0  404.19   27.56
  13   3   0  423.28   51.64
  13  -3   0  465.35   52.22
  -3  13   0  414.72   25.47
 -13   3  -1  759.74   33.96
  13  -3  -1  743.67   64.16
  -3  13  -1  800.05   31.87
  -3  13  -2  -16.62   13.56
 -13   3  -2    3.42   16.91
  13  -3  -2   16.23   23.39
  -3  13  -2   -8.31   29.30
  -3  13  -3   -0.07   12.28
 -13   3  -3    5.91   16.57
  13  -3  -3   -7.63   23.47
  -3  13  -3  -21.27   31.75
  -3  13  -4 1258.93   70.46
  -3  13  -4 1319.92   40.62
 -13   3  -4 1279.64   43.80
  13  -3  -5  142.75   36.97
  -3  13  -5   66.48   29.91
  -3  13  -5  144.78   18.82
  13  -3  -6 1279.57   85.79
  -3  13  -6 1100.55   69.26
 -13   3  -6 1277.45   42.30
  -3  13  -6 1233.42   40.34
  -3  13  -7   14.43   15.21
  -3  13  -7   18.57   28.06
  13  -3  -7    8.22   24.87
  13  -3  -8  229.26   43.59
  -3  13  -8  251.15   41.63
 -13   3  -8  286.36   23.72
  -3  13  -8  277.92   24.03
  13  -3  -9   93.87   31.99
 -13   3  -9  135.11   20.18
  -3  13  -9  163.16   21.20
  -3  13  -9  197.98   38.45
  13  -3 -10   40.41   32.38
  -3  13 -10   -1.48   28.69
 -13   3 -10  103.23   18.41
  -3  13 -10   56.51   20.17
  13  -3 -11  294.40   51.36
   3 -13 -11  309.85   58.99
 -13   3 -11  415.35   26.30
  -3  13 -11  427.47   29.89
  -3  13 -11  280.33   54.03
 -13   3 -12  103.08   15.50
  -3  13 -12   28.33   32.47
  -3  13 -13   35.67   31.20
   3 -13 -13   49.81   66.35
   3 -13 -14  345.75   71.22
  -3  13 -14  360.90   50.40
   3 -13 -15  -29.96   50.98
  -3  13 -15   20.78   29.52
   3 -13 -16  509.50   61.67
  -3  13 -16  376.02   50.46
   3 -13 -17   37.05   37.29
   3 -13 -18  141.65   35.02
   3 -13 -19   26.66   24.62
  -4 -13 -19   30.37   24.08
  -4 -13 -18   54.42   30.60
  -4 -13 -17  238.27   45.44
  -4 -13 -16  148.18   50.16
  -4 -13 -15  365.34   65.81
  -4 -13 -14  -22.44   60.37
  13   4  -9   71.64   27.95
  13   4  -8   17.11   23.76
  13   4  -7  628.87   60.58
  13   4  -6  545.61   56.69
  13   4  -5 1168.11   80.22
  13  -4   4  624.95   58.86
  13   4  -4  549.24   58.32
  13  -4   3  330.81   44.75
  -4  13   3  283.31   23.14
  13   4  -3  274.04   42.24
  13   4  -2  197.00   38.27
  13  -4   2  182.74   36.67
  -4  13   2  157.93   18.99
 -13   4   2  137.30   17.24
 -13   4   1   63.72   16.19
  -4  13   1   57.90   15.62
  13   4  -1  115.88   31.14
  13  -4   1   72.63   27.05
  13  -4   0 1230.57   81.89
  -4  13   0 1259.48   40.05
 -13   4   0 1254.36   40.36
  13  -4  -1   81.46   29.44
 -13   4  -1  118.97   21.66
  -4  13  -1   85.60   15.73
  13  -4  -2  185.71   39.29
  -4  13  -2  138.46   31.93
 -13   4  -2  187.68   20.70
  -4  13  -2  193.85   18.23
  13  -4  -3  322.95   47.31
  -4  13  -3  257.33   39.27
 -13   4  -3  326.50   24.93
  -4  13  -3  292.55   21.66
  -4  13  -4  584.04   51.71
 -13   4  -4  549.28   28.62
  -4  13  -4  562.35   27.21
  13  -4  -4  561.82   60.83
  -4  13  -5 1260.01   64.48
  13  -4  -5 1190.24   82.71
  -4  13  -5 1174.37   39.64
  -4  13  -6  522.66   49.82
 -13   4  -6  612.56   30.68
  13  -4  -6  500.82   57.16
  -4  13  -6  570.02   28.97
  -4  13  -7  677.74   59.70
 -13   4  -7  782.60   33.65
  13  -4  -7  705.93   67.12
  -4  13  -7  776.51   33.06
 -13   4  -8   -1.49   14.61
  -4  13  -8   -4.36   13.60
  -4  13  -8   -4.46   26.08
  13  -4  -8    0.90   23.72
  -4  13  -9   48.22   31.11
 -13   4  -9  112.20   18.64
  13  -4  -9   69.65   31.97
  -4  13  -9   92.32   18.64
  13  -4 -10  443.74   60.24
   4 -13 -10  406.21   65.24
 -13   4 -10  489.65   28.13
  -4  13 -10  599.26   31.63
  -4  13 -11   23.62   17.55
  13  -4 -11  -22.00   28.47
   4 -13 -11  -10.53   34.74
 -13   4 -11   82.33   16.23
  -4  13 -11    1.50   30.06
 -13   4 -12  150.83   17.91
  -4  13 -12  201.10   42.69
   4 -13 -13  227.63   70.01
  -4  13 -13  212.10   44.15
   4 -13 -14   23.85   54.90
  -4  13 -14    4.56   29.63
   4 -13 -15  468.31   63.10
  -4  13 -15  354.98   51.72
   4 -13 -16  135.03   46.20
  -4  13 -16   90.17   30.76
   4 -13 -17  241.54   45.06
  -4  13 -17  175.13   34.55
   4 -13 -18   48.10   28.60
  -5 -13 -19   25.02   22.27
  -5 -13 -18   36.60   29.15
  -5 -13 -17  235.28   55.67
  -5 -13 -16  193.14   50.10
  -5 -13 -15  206.23   58.66
  -5 -13 -14  270.81   68.82
  13   5  -8  151.53   36.15
  13   5  -7  397.21   51.30
  13   5  -6  532.66   57.50
  13   5  -5 1269.06   87.96
  13   5  -4  482.57   54.91
  13  -5   4  543.26   55.01
  -5  13   3   53.97   15.79
  13  -5   3   66.59   25.31
  13   5  -3   76.83   29.29
  13  -5   2  371.70   49.36
 -13   5   2  293.46   21.22
  -5  13   2  331.77   23.38
   5 -13   1 1139.62   83.03
  13  -5   1 1311.12   85.04
 -13   5   1 1124.72   36.38
  -5  13   1 1180.11   38.47
 -13   5   0  570.25   28.06
  -5  13   0  526.36   27.61
  13  -5  -1 1306.15   86.41
 -13   5  -1 1220.38   40.63
  -5  13  -1 1234.55   39.92
  -5  13  -2  359.10   23.15
  13  -5  -2  379.60   49.81
  -5  13  -2  324.37   40.65
 -13   5  -2  377.04   24.52
 -13   5  -3   63.44   15.51
  -5  13  -3   69.80   14.92
  -5  13  -3   63.27   26.77
  13  -5  -3   52.61   27.37
  -5  13  -4  463.70   26.59
  -5  13  -4  510.31   48.66
 -13   5  -4  565.51   28.81
  13  -5  -4  503.03   56.57
  -5  13  -5 1434.77   42.90
  -5  13  -5 1350.53   70.76
 -13   5  -5 1390.29   42.56
  13  -5  -5 1290.60   90.23
  -5  13  -6  609.52   30.55
  -5  13  -6  664.55   50.59
 -13   5  -6  700.80   31.31
  13  -5  -6  620.82   62.67
  -5  13  -7  308.08   47.96
 -13   5  -7  393.05   27.81
  13  -5  -7  379.49   54.24
  -5  13  -7  469.82   27.43
   5 -13  -8  178.34   48.47
  -5  13  -8  180.11   38.45
 -13   5  -8  205.43   21.12
  13  -5  -8  183.41   41.61
  -5  13  -8  203.98   20.96
 -13   5  -9  329.58   24.14
   5 -13  -9  245.20   53.85
  13  -5  -9  242.00   45.57
  -5  13  -9  332.53   25.12
  -5  13 -10   84.67   18.14
 -13   5 -10  104.80   17.45
   5 -13 -10   44.95   39.05
  -5  13 -10   56.06   34.59
  13  -5 -10   55.21   28.92
   5 -13 -11  228.29   55.78
 -13   5 -11  305.52   22.85
  -5  13 -11  251.40   46.92
  -5  13 -11  331.59   25.92
  13  -5 -11  166.18   40.71
  -5  13 -12  275.43   46.00
 -13   5 -12  269.09   21.34
   5 -13 -12  265.88   77.53
   5 -13 -13   -9.19   57.04
  -5  13 -13   -0.34   28.85
   5 -13 -14  276.90   59.70
  -5  13 -14  282.61   46.15
   5 -13 -15  137.56   48.12
  -5  13 -15  149.67   37.39
  -5  13 -16  198.67   37.51
   5 -13 -16  205.83   44.07
   5 -13 -17  157.22   36.68
  -5  13 -17   95.51   28.76
   5 -13 -18  106.51   28.95
  -6 -13 -18    2.49   25.29
  -6 -13 -17   72.62   35.70
  -6 -13 -16  249.50   49.48
  -6 -13 -15  154.35   55.46
  -6 -13 -14   67.78   59.79
  13  -6   3  347.70   47.88
  -6  13   3  302.79   22.89
  13  -6   2  253.77   43.14
 -13   6   2  221.60   18.84
  -6  13   2  265.32   22.91
   6 -13   1  224.28   44.49
  13  -6   1  254.85   43.12
 -13   6   1  233.97   19.91
  -6  13   1  240.96   20.50
  -6  13   0 2805.35   57.25
  13  -6   0 2778.59  128.46
   6 -13   0 2962.24  135.57
 -13   6   0 2853.25   57.09
  13  -6  -1  277.53   44.44
  -6  13  -1  232.21   20.58
   6 -13  -1  246.81   49.00
 -13   6  -1  305.88   22.50
  -6  13  -2  235.31   19.69
   6 -13  -2  245.70   51.36
  -6  13  -2  319.97   39.87
 -13   6  -2  295.79   21.85
  13  -6  -2  233.99   42.93
  -6  13  -3  340.81   23.18
   6 -13  -3  334.25   58.83
 -13   6  -3  343.51   23.64
  13  -6  -3  308.27   49.06
  -6  13  -4  832.22   33.87
   6 -13  -4  789.82   85.39
  -6  13  -4  847.01   58.18
 -13   6  -4  820.66   33.63
  13  -6  -4  869.95   74.56
  -6  13  -5  181.00   19.38
   6 -13  -5  219.47   52.94
  13  -6  -5  186.08   40.24
  -6  13  -5  147.61   32.42
 -13   6  -5  190.48   19.40
  -6  13  -6 1456.39   44.46
 -13   6  -6 1331.24   43.15
  13  -6  -6 1308.93   91.62
   6 -13  -7   63.46   41.61
  -6  13  -7   74.97   16.53
  13  -6  -7   76.65   31.77
  -6  13  -7   61.14   30.17
 -13   6  -7   73.45   16.87
   6 -13  -8   45.33   36.71
  -6  13  -8   59.59   16.31
  13  -6  -8   42.44   27.16
  -6  13  -8   49.64   28.57
 -13   6  -8   66.62   15.70
  -6  13  -9   81.12   17.76
   6 -13  -9   62.56   42.65
  -6  13  -9   33.08   30.16
  13  -6  -9   48.04   29.63
 -13   6  -9   57.09   16.11
   6 -13 -10  483.58   72.03
 -13   6 -10  557.96   29.17
  -6  13 -10  643.53   59.42
  13  -6 -10  405.40   58.73
  -6  13 -10  608.58   32.16
  -6  13 -11  286.21   45.86
 -13   6 -11  286.06   22.90
  -6  13 -11  263.24   24.19
 -13   6 -12  324.13   22.43
   6 -13 -12  390.95   77.74
  -6  13 -12  346.93   59.28
   6 -13 -13  115.25   54.04
  -6  13 -13   71.97   34.94
   6 -13 -14  -32.30   45.04
  -6  13 -14    4.89   28.21
   6 -13 -15  123.33   40.93
  -6  13 -15   96.47   35.75
   6 -13 -16  203.87   40.59
  -6  13 -16  133.91   37.10
   6 -13 -17   39.70   29.41
  -6  13 -17   38.91   24.80
  -6  13 -18    8.28   17.96
   6 -13 -18  -10.51   20.21
  -7 -13 -18    3.01   22.13
  -7 -13 -17   57.30   32.29
  -7 -13 -16    8.66   37.30
  -7 -13 -15   78.84   48.83
  -7 -13 -14  103.21   59.50
  -7  13   3   -8.98   13.87
  13  -7   3   -6.09   27.16
  13  -7   2  258.59   45.97
 -13   7   2  242.75   19.77
  -7  13   2  280.69   22.14
  -7  13   1 2665.52   57.12
  13  -7   1 2554.73  123.09
   7 -13   1 2542.81  121.84
 -13   7   1 2407.49   51.74
  -7  13   0   85.05   14.31
 -13   7   0  151.01   22.42
   7 -13   0  108.70   35.78
  13  -7   0  120.62   32.82
  -7  13  -1 2464.72   54.36
   7 -13  -1 2505.66  134.60
 -13   7  -1 2468.44   53.21
  13  -7  -1 2398.72  120.83
  -7  13  -2  249.94   21.56
  -7  13  -2  142.32   33.62
   7 -13  -2  218.73   49.62
 -13   7  -2  285.39   22.14
  13  -7  -2  259.65   46.13
  -7  13  -3    3.32   13.01
   7 -13  -3   17.82   37.21
  13  -7  -3   -7.18   29.02
  -7  13  -3   -3.19   24.29
 -13   7  -3    5.53   13.22
  -7  13  -4   65.36   15.72
   7 -13  -4   34.36   35.05
  13  -7  -4   52.82   30.69
 -13   7  -4   55.88   14.93
  -7  13  -4   38.45   29.01
  -7  13  -5  974.10   38.20
   7 -13  -5  824.43   92.64
  -7  13  -5  932.85   62.13
 -13   7  -5  979.05   35.99
  13  -7  -5  892.41   78.41
  -7  13  -6   15.71   14.71
  13  -7  -6   12.01   28.44
   7 -13  -6  -29.00   40.36
  -7  13  -6    0.95   26.39
 -13   7  -6   23.93   14.86
  -7  13  -7  183.49   21.24
  13  -7  -7  172.38   43.09
 -13   7  -7  190.61   20.84
  -7  13  -7  135.70   35.51
   7 -13  -7  195.10   54.79
  13  -7  -8   18.95   30.72
   7 -13  -8   34.36   36.37
  -7  13  -8    4.82   25.41
 -13   7  -8   16.58   14.29
  -7  13  -8    3.98   14.76
  -7  13  -9  427.15   28.07
   7 -13  -9  332.24   65.01
 -13   7  -9  364.93   25.23
  -7  13  -9  443.09   47.83
  13  -7  -9  284.63   51.26
  -7  13 -10   74.76   17.47
  13  -7 -10   26.11   29.93
 -13   7 -10   77.50   16.70
   7 -13 -10   42.34   37.56
  -7  13 -10   78.52   33.88
   7 -13 -11 1021.62   91.48
 -13   7 -11 1062.69   38.69
  -7  13 -11 1171.58   80.74
  -7  13 -11 1166.33   42.46
  -7  13 -12    1.73   13.81
   7 -13 -12   14.04   49.47
 -13   7 -12   20.17   11.80
  -7  13 -12   69.10   51.29
   7 -13 -13  158.61   48.79
  -7  13 -13  152.63   39.37
   7 -13 -14  111.58   43.05
  -7  13 -14   87.56   33.70
   7 -13 -15   68.02   35.67
  -7  13 -15   46.08   29.40
   7 -13 -16  -17.21   27.23
  -7  13 -16    1.78   24.06
  -7  13 -17   48.81   24.79
 -13   7 -18   20.57   16.66
  -7  13 -18    0.99   17.37
  -8 -13 -17   17.99   27.24
  -8 -13 -16   11.60   34.88
  -8 -13 -15   -9.29   43.55
  -8 -13 -14   91.53   57.57
  -8 -13 -13   -2.37   59.88
  -8  13   3   14.41   13.36
  -8  13   2 1019.20   36.77
 -13   8   2  965.92   34.16
 -13   8   1   61.51   14.05
  13  -8   1   54.86   27.03
  -8  13   1   81.28   15.57
   8 -13   1  107.53   36.05
  -8  13   0 2878.47   59.06
   8 -13   0 3067.64  141.38
 -13   8   0 2843.19   57.67
  13  -8   0 2943.52  136.16
  -8  13  -1   38.07   13.16
  13  -8  -1   53.12   28.18
   8 -13  -1   42.10   30.85
 -13   8  -1   69.01   14.97
  -8  13  -2 1052.49   37.78
   8 -13  -2 1053.85   91.12
 -13   8  -2 1040.93   37.02
  13  -8  -2 1021.27   82.06
  -8  13  -3   22.85   14.28
   8 -13  -3   19.69   34.53
  13  -8  -3   26.55   30.56
  -8  13  -3   11.71   25.98
 -13   8  -3   32.71   14.63
  -8  13  -4  157.52   19.74
 -13   8  -4  144.97   18.93
   8 -13  -4  119.31   47.31
  -8  13  -4   88.50   31.76
  13  -8  -4  143.79   40.00
  -8  13  -5    6.28   14.02
  13  -8  -5  -17.15   32.49
   8 -13  -5  -23.17   41.14
  -8  13  -5   11.04   23.96
 -13   8  -5   19.68   14.80
  -8  13  -6  331.70   25.67
 -13   8  -6  293.20   24.02
  -8  13  -6  290.35   40.36
   8 -13  -6  250.66   58.06
  13  -8  -6  275.91   53.48
  13  -8  -7   15.71   28.64
  -8  13  -7    5.43   14.87
   8 -13  -7   13.36   38.17
  -8  13  -7   -1.58   26.11
 -13   8  -7   26.27   14.99
  -8  13  -8   47.74   16.37
  13  -8  -8   63.52   35.86
 -13   8  -8   52.49   15.71
   8 -13  -8   43.46   38.25
  -8  13  -8   24.82   28.87
  -8  13  -9  -10.14   14.83
 -13   8  -9    1.22   13.64
  -8  13  -9   -6.12   28.48
   8 -13  -9   -4.88   36.41
  13  -8  -9    1.76   29.16
 -13   8 -10 1312.21   42.94
  -8  13 -10 1386.43   80.37
  -8  13 -10 1352.87   46.66
  -8  13 -11   42.38   15.10
 -13   8 -11  -11.83   12.36
  -8  13 -11   -6.79   27.43
 -13   8 -12  747.46   31.46
  -8  13 -12  813.46   35.42
  -8  13 -13  -13.29   27.59
 -13   8 -13   -7.33   11.09
  -8  13 -14   70.03   32.64
  -8  13 -15   10.10   25.82
  -8  13 -16   34.86   25.08
  -8  13 -17   -0.15   20.80
 -13   8 -17    6.79   18.69
 -13   8 -18   17.83   16.01
  -9 -13 -17   14.17   22.96
  -9 -13 -16    3.43   29.79
  -9 -13 -15   27.05   38.51
  -9 -13 -14   -7.15   46.03
  -9 -13 -13  199.59   64.13
  -9  13   3   99.14   16.32
  -9  13   2   12.33   13.37
 -13   9   2   25.04   13.29
  13  -9   1 2130.81  118.07
  -9  13   1 2023.78   51.19
 -13   9   1 1988.41   48.96
  -9  13   0  -22.27   15.89
 -13   9   0    3.45   13.36
  13  -9   0   21.82   26.69
   9 -13   0    2.42   32.55
  -9  13  -1 1990.56   51.45
   9 -13  -1 2089.69  123.11
 -13   9  -1 1970.71   50.24
  13  -9  -1 1971.29  113.09
  -9  13  -2   13.08   13.83
  13  -9  -2   23.84   30.55
   9 -13  -2   13.60   35.46
  -9  13  -2   -5.24   23.54
 -13   9  -2   14.82   14.31
 -13   9  -3  121.65   18.26
  -9  13  -3  126.54   18.62
  13  -9  -3  119.28   38.56
  -9  13  -3   77.07   29.68
   9 -13  -3  144.87   48.02
  -9  13  -4   39.28   15.66
  13  -9  -4    2.92   30.46
  -9  13  -4    7.58   24.94
 -13   9  -4   46.88   15.69
   9 -13  -4   21.82   39.15
  -9  13  -5  125.26   31.67
  -9  13  -5  150.99   19.27
  13  -9  -5  104.69   40.31
 -13   9  -5  124.62   18.43
   9 -13  -5  107.43   48.00
  -9  13  -6    0.23   14.23
  13  -9  -6   24.56   32.81
 -13   9  -6    6.15   14.27
  -9  13  -6   -0.86   24.96
   9 -13  -6  -10.50   39.43
 -13   9  -7   10.69   14.40
  -9  13  -7   21.28   15.21
  13  -9  -7   28.09   35.48
   9 -13  -7   -3.16   41.63
  -9  13  -8   14.54   14.83
  13  -9  -8   -5.53   31.92
 -13   9  -8   17.97   14.26
   9 -13  -8   17.41   37.83
  -9  13  -9  723.12   35.19
 -13   9  -9  670.54   32.74
   9 -13  -9  487.79   77.07
  -9  13  -9  643.58   59.24
  13  -9  -9  537.48   71.88
  -9  13 -10   -0.93   14.48
 -13   9 -10   11.48   13.60
  -9  13 -10  -12.01   28.84
 -13   9 -11 1129.42   39.69
  -9  13 -11 1039.88   42.59
  -9  13 -12    3.11   12.81
 -13   9 -12   16.62   13.05
  -9  13 -12    2.64   26.42
 -13   9 -13  278.07   19.84
  -9  13 -13  406.61   49.10
  -9  13 -14   -5.04   24.35
  -9  13 -15    2.86   24.38
  -9  13 -16    2.28   22.21
  -9  13 -17  -16.17   21.02
 -13   9 -17   -4.39   17.76
 -10 -13 -16   -2.05   24.30
 -10 -13 -15   36.40   33.48
 -10 -13 -14  -22.73   40.26
 -10 -13 -13   30.10   50.44
 -10  13   3    4.46   13.17
 -10  13   2  365.63   25.21
 -13  10   2  383.00   24.18
 -10  13   1   98.77   17.17
 -13  10   1   58.24   16.79
  13 -10   1   27.70   30.05
 -10  13   0 1222.75   42.64
 -13  10   0 1303.59   41.20
  10 -13   0 1256.67   97.33
  13 -10   0 1217.81   93.27
  10 -13  -1    6.13   33.49
 -13  10  -1   56.48   16.54
 -10  13  -1   89.89   16.92
  13 -10  -1   28.06   31.69
 -10  13  -2  398.69   26.96
 -13  10  -2  413.68   26.47
  10 -13  -2  396.67   65.19
  13 -10  -2  404.62   58.22
 -10  13  -3    1.67   14.43
  13 -10  -3    7.24   30.82
 -13  10  -3   24.10   14.56
 -10  13  -3   15.79   24.85
  10 -13  -3   49.91   40.22
  13 -10  -4   43.31   37.21
 -10  13  -4   48.30   16.73
 -13  10  -4   47.50   15.62
 -10  13  -4   28.93   28.54
  10 -13  -4   -2.48   36.96
 -10  13  -5  142.40   20.51
  13 -10  -5  163.12   46.64
 -13  10  -5  160.05   19.86
 -10  13  -5   66.13   30.85
  10 -13  -5  114.99   47.52
  13 -10  -6   39.30   36.12
 -10  13  -6   26.93   15.58
 -13  10  -6   25.67   14.61
  10 -13  -6   22.12   42.02
  13 -10  -7    4.64   33.48
 -10  13  -7   41.83   17.13
  10 -13  -7   27.70   39.81
 -10  13  -8   81.49   18.64
 -13  10  -8   86.18   17.47
  13 -10  -8   54.95   37.20
  10 -13  -8   41.79   42.91
 -10  13  -9   26.09   15.98
 -13  10  -9   28.14   14.68
 -10  13 -10  715.89   34.79
 -13  10 -10  696.93   33.37
 -10  13 -10  602.29   58.83
 -13  10 -11  135.21   19.34
 -10  13 -11   99.35   17.45
 -13  10 -12  456.92   26.29
 -10  13 -12  499.79   51.96
 -10  13 -12  471.09   27.34
 -13  10 -13   15.07   11.52
 -10  13 -13    5.65   23.98
 -10  13 -14   26.96   26.65
 -10  13 -15   31.89   24.36
 -10  13 -16   -9.16   21.33
 -13  10 -16   24.65   21.30
 -10  13 -17   43.08   22.60
 -13  10 -17   29.77   20.04
 -11 -13 -15  -21.54   27.40
 -11 -13 -14   39.05   35.54
 -11 -13 -13   16.59   40.76
 -11 -13 -12  138.44   56.66
 -11  13   2   28.84   15.31
 -13  11   2   25.66   15.42
 -11  13   1  178.53   21.27
 -13  11   1  219.11   21.81
 -11  13   0  151.87   20.25
 -13  11   0  111.38   19.63
  11 -13   0   14.07   32.01
  13 -11   0   25.20   32.94
  13 -11  -1  176.78   44.63
 -11  13  -1  190.86   21.40
  11 -13  -1  170.70   46.01
 -13  11  -1  195.18   20.40
  11 -13  -2   21.43   35.05
 -11  13  -2   31.92   15.87
  13 -11  -2   -2.61   30.31
 -13  11  -2   30.39   15.11
  11 -13  -3   87.08   43.72
 -11  13  -3  131.05   19.55
  13 -11  -3  125.62   42.92
 -13  11  -3  111.31   17.71
 -11  13  -3   60.71   26.35
 -11  13  -4  414.85   27.24
  11 -13  -4  312.15   62.80
 -13  11  -4  387.81   26.29
 -11  13  -4  289.96   42.84
  13 -11  -4  361.07   63.86
  11 -13  -5   19.85   38.47
  13 -11  -5   23.29   36.11
 -11  13  -5   34.32   15.65
 -13  11  -5   53.45   16.46
 -11  13  -6  491.63   30.08
 -13  11  -6  399.56   28.65
  11 -13  -6  385.72   72.42
  13 -11  -6  348.83   63.67
  11 -13  -7   30.88   41.93
  13 -11  -7    3.38   36.82
 -11  13  -7   61.59   17.45
 -13  11  -7   36.87   16.34
 -11  13  -8   61.46   16.40
 -13  11  -8   59.53   16.90
 -11  13  -9  175.95   22.13
 -13  11  -9  158.12   20.63
 -11  13 -10   52.34   15.67
 -13  11 -10   56.37   16.37
 -11  13 -10   25.44   26.67
 -11  13 -11  194.62   20.71
 -13  11 -11  188.26   20.37
 -11  13 -11  236.64   37.37
 -11  13 -12   59.18   14.33
 -13  11 -12   42.38   13.94
 -11  13 -12   10.12   25.61
 -11  13 -13   44.41   12.83
 -13  11 -13   44.87   12.71
 -11  13 -13   38.53   26.90
 -11  13 -14   39.52   26.33
 -13  11 -14   43.42   24.46
 -11  13 -15   -2.71   22.17
 -13  11 -15    0.41   19.74
 -13  11 -16  155.08   27.73
 -11  13 -16  109.45   26.90
 -11  13 -17  -11.70   18.92
 -13  11 -17  -17.49   19.32
 -12  13   2   23.85   14.96
 -13  12   2   40.41   15.61
 -12  13   1   82.25   17.66
 -13  12   1   68.71   17.33
 -13  12   0    0.25   13.99
  13 -12   0    5.64   31.35
 -12  13   0   -0.29   14.76
  12 -13  -1   25.53   35.47
  13 -12  -1   43.47   34.56
 -12  13  -1   71.56   17.39
 -13  12  -1   61.13   17.04
  12 -13  -2   22.39   34.70
 -12  13  -2   34.18   16.59
  13 -12  -2   41.78   35.43
 -13  12  -2   40.07   16.26
 -12  13  -3  312.37   25.18
  13 -12  -3  272.56   56.23
 -13  12  -3  316.99   24.35
  12 -13  -3  258.58   57.54
  12 -13  -4    1.66   36.49
  13 -12  -4    3.92   34.03
 -12  13  -4   -9.43   16.26
 -13  12  -4    5.00   14.19
 -12  13  -4    1.25   26.12
 -12  13  -5 1461.20   48.19
 -13  12  -5 1468.58   47.31
  13 -12  -5 1109.16  106.74
  12 -13  -5 1106.77  108.06
  12 -13  -6   33.36   37.46
  13 -12  -6    1.02   38.70
 -12  13  -6  -19.56   17.25
 -13  12  -6  -22.56   16.78
 -12  13  -7  730.42   35.89
 -13  12  -7  660.74   34.53
 -12  13  -8   11.88   14.64
 -13  12  -8   15.15   14.78
 -12  13  -9  -13.09   14.93
 -13  12  -9    3.44   13.51
 -12  13 -10   13.90   13.57
 -13  12 -10   38.54   15.25
 -12  13 -10   45.74   25.76
 -12  13 -11   49.13   14.54
 -13  12 -11   34.46   13.97
 -12  13 -11   10.44   25.36
 -12  13 -12   -1.80   11.64
 -13  12 -12    8.29   11.45
 -12  13 -12    8.91   23.67
 -12  13 -13   25.61   12.33
 -13  12 -13   15.37   11.10
 -12  13 -13   17.34   24.15
 -13  12 -13   31.29   24.18
 -12  13 -14  -10.98   22.61
 -13  12 -14    8.47   21.60
 -13  12 -15  297.75   34.53
 -12  13 -15  239.36   34.28
 -12  13 -16  -22.85   21.91
 -13  12 -16  -27.37   21.73
 -13  13   2   50.82   15.42
 -13  13   1   -6.85   14.50
 -13  13   0  260.13   23.73
 -13  13  -1   10.38   14.98
  13 -13  -1   24.31   33.19
  13 -13  -2   32.12   33.75
 -13  13  -2   71.04   17.50
  13 -13  -3   10.91   37.92
 -13  13  -3    3.53   14.94
 -13  13  -4 1331.72   45.90
 -13  13  -4 1317.75   66.39
  13 -13  -5  -47.44   44.74
 -13  13  -5  -46.65   18.75
 -13  13  -5  -34.48   29.97
 -13  13  -6 1521.33   50.19
 -13  13  -7  -41.55   17.62
 -13  13  -8  225.14   22.50
 -13  13  -9   16.89   14.79
 -13  13 -10    3.58   12.87
 -13  13 -10  -10.28   24.75
 -13  13 -11   -6.28   12.84
 -13  13 -11    9.43   24.36
 -13  13 -12   12.27   11.92
 -13  13 -12    9.84   22.43
 -13  13 -13  -13.71   10.15
 -13  13 -13   13.27   22.41
 -13  13 -14  212.28   33.00
 -13  13 -15   -8.34   20.93
 -13  13 -16  511.70   39.05
  14   0   0 3154.94  128.97
   0  14   0 3313.27   76.41
  14   0  -1  294.34   45.18
  14   0   1  307.77   49.14
   0  14   1  382.88   37.68
   0  14  -1  283.75   29.40
   0  14   2  291.19   34.27
   0  14  -2  249.27   26.56
  14   0  -2  231.11   40.42
  14   0   2  253.17   43.32
   0  14   3 1073.46   53.14
  14   0  -3 1072.27   78.43
   0  14  -3  997.43   41.48
  14   0  -4  899.10   73.75
   0  14  -4  859.77   40.02
   0  14  -5 1165.01   80.13
  14   0  -5 1145.27   84.71
   0  14  -5 1191.52   47.50
   0  14  -6 1856.86   98.75
  14   0  -6 1689.39  101.53
   0  14  -6 1877.53   56.68
  14   0  -7  594.59   64.23
   0  14  -7  665.33   38.17
   0  14  -7  738.28   64.29
  14   0  -8   37.84   30.29
 -14   0  -8   29.12   23.44
   0  14  -8   -6.79   33.00
   0  14  -8    8.40   20.56
  14   0  -9  279.20   49.51
   0  14  -9  332.09   33.52
 -14   0  -9  351.82   30.83
   0  14 -10  918.88   77.13
   0  14 -10 1047.25   49.06
   0  14 -11  249.69   48.24
 -14   0 -11  445.92   29.80
   0  14 -12  180.99   48.73
 -14   0 -12  368.95   24.82
   0  14 -13  334.71   53.97
   0 -14 -14  169.16   79.04
   0 -14 -15  270.20   69.51
   0 -14 -16  441.45   66.75
   0 -14 -17  240.48   49.99
   0 -14 -18    0.24   32.28
   0 -14 -19  115.66   29.32
  -1 -14 -19  -24.07   25.54
  -1 -14 -18  163.57   37.78
  -1 -14 -17  199.37   48.14
  -1 -14 -16   95.23   52.38
  -1 -14 -15  454.88   77.45
  -1 -14 -14  181.52   76.33
   1  14 -12  266.54   52.20
   1  14 -11  589.24   63.09
 -14  -1 -11  577.87   32.47
   1  14 -10  216.14   47.04
  14   1 -10  192.02   42.50
   1  14  -9  292.78   52.50
   1  14  -9  399.50   35.88
  14   1  -9  305.23   48.92
 -14  -1  -9  360.10   32.85
   1  14  -8  236.38   49.96
   1  14  -8  318.08   32.54
  14   1  -8  322.47   50.24
   1  14  -7  628.38   61.18
   1  14  -7  485.94   35.96
  14   1  -7  484.85   56.43
   1  14  -6  471.31   63.05
   1  14  -6  550.33   39.74
  14   1  -6  531.03   60.54
   1  14  -5 1887.15  101.79
   1  14  -5 1669.42   57.46
  14   1  -5 1711.59   99.47
   1  14  -4  650.53   38.81
  14   1  -4  646.71   62.97
  14   1  -3   52.58   26.02
  14  -1   3   77.03   34.06
   1  14  -3   50.72   22.05
  14   1  -2  471.18   53.23
  14  -1   2  454.70   54.12
  -1  14   2  515.24   36.89
   1  14  -2  463.66   34.37
  14  -1   1 1179.43   81.29
  14   1  -1 1145.73   79.76
   1  14  -1 1131.55   49.33
  -1  14   1 1290.57   49.26
  14  -1   0  199.89   39.81
  14   1   0  269.19   46.02
   1  14   0  284.04   35.32
  -1  14   0  271.60   31.26
   1  14   1 1166.96   53.04
  -1  14  -1 1028.69   43.01
  14  -1  -1 1218.30   82.56
  14   1   1 1208.55   84.33
  14   1   2  487.09   57.27
  14  -1  -2  436.20   53.64
   1  14   2  537.02   41.52
  -1  14  -2  464.33   29.18
  -1  14  -3   58.24   17.90
  14  -1  -3   62.91   29.27
  -1  14  -3   22.86   36.92
  14  -1  -4  669.56   66.27
  -1  14  -4  706.93   35.39
  -1  14  -5 1613.38   89.50
  14  -1  -5 1746.74  102.18
  -1  14  -5 1904.06   52.93
 -14   1  -6  651.63   40.04
  14  -1  -6  555.65   63.29
  -1  14  -6  656.02   62.05
  -1  14  -6  613.00   35.99
  14  -1  -7  507.06   60.78
  -1  14  -7  561.30   33.43
 -14   1  -7  550.71   34.84
  14  -1  -8  237.53   45.46
  -1  14  -8  372.56   51.71
  -1  14  -8  289.75   27.20
 -14   1  -8  317.00   28.45
  14  -1  -9  349.40   53.16
  -1  14  -9  344.97   52.22
  -1  14  -9  422.53   31.95
  -1  14 -10  132.63   47.08
  14  -1 -10  192.66   45.50
  -1  14 -10  366.17   34.27
 -14   1 -10  392.37   30.56
  -1  14 -11  533.15   64.45
 -14   1 -11  594.64   31.28
  -1  14 -12  366.37   53.93
 -14   1 -12  370.04   24.30
  -1  14 -13    1.95   32.20
   1 -14 -14   68.37   73.30
  -1  14 -14  114.72   37.91
   1 -14 -15  403.90   73.77
   1 -14 -16   82.18   53.29
   1 -14 -17  258.08   50.53
   1 -14 -18  134.60   37.30
  -2 -14 -19   52.29   26.59
  -2 -14 -18  148.76   38.35
  -2 -14 -17   34.84   41.12
  -2 -14 -16  480.60   64.76
  -2 -14 -15   24.95   60.18
  -2 -14 -14  316.29   82.61
 -14  -2 -11  350.97   29.06
  14   2 -10  126.95   36.03
  14   2  -9  230.41   44.13
   2  14  -9  300.74   33.67
   2  14  -8   41.29   25.92
  14   2  -8   33.09   24.06
   2  14  -7  191.56   32.05
  14   2  -7  148.91   37.53
  14   2  -6 1164.52   82.40
   2  14  -6 1065.65   51.64
   2  14  -5  177.96   34.00
  14   2  -5  119.76   32.55
  14   2  -4  988.49   74.64
   2  14  -4  759.49   45.48
  14   2  -3  335.33   47.17
   2  14  -3  363.51   36.41
  -2  14   3  366.92   36.51
  14  -2   3  359.98   50.40
  14  -2   2    7.36   23.67
  14   2  -2    1.30   21.14
  -2  14   2   20.42   26.25
   2  14  -2  -36.15   25.55
  14  -2   1  580.36   59.92
  14   2  -1  650.38   63.35
   2  14  -1  704.01   44.46
  -2  14   1  779.38   38.19
   2  14   0  511.01   40.78
  -2  14   0  679.28   36.85
  14  -2   0  674.78   63.78
  14   2   0  673.95   64.62
  14   2   1  660.81   65.96
  14  -2  -1  578.90   59.91
   2  14   1  723.08   46.09
  -2  14  -1  636.84   33.68
  -2  14  -2  -10.42   14.65
  -2  14  -2    0.45   31.96
  14  -2  -2   17.70   24.39
  -2  14  -3  287.34   47.55
  14  -2  -3  346.17   50.10
  -2  14  -3  319.46   25.44
  -2  14  -4 1025.77   67.66
  14  -2  -4 1051.01   78.91
  -2  14  -4 1044.79   39.50
  14  -2  -5  129.16   37.33
  -2  14  -5   78.20   36.92
  -2  14  -5  176.72   22.73
 -14   2  -5  182.41   26.02
  14  -2  -6 1306.48   90.34
  -2  14  -6 1378.34   45.29
 -14   2  -6 1331.46   47.72
  14  -2  -7  164.08   38.83
  -2  14  -7  179.52   40.68
  -2  14  -7  209.13   24.23
 -14   2  -7  224.70   26.01
  -2  14  -8   65.57   18.47
  -2  14  -8    7.52   32.25
  14  -2  -8   67.88   31.49
  -2  14  -9  335.63   28.59
 -14   2  -9  301.76   26.82
  -2  14 -10  262.84   28.37
 -14   2 -10  276.33   24.95
  -2  14 -11  434.83   56.95
 -14   2 -11  457.43   27.98
  -2  14 -11  450.04   34.63
 -14   2 -12  159.78   18.82
  -2  14 -12   60.75   38.30
   2 -14 -13   79.90   80.84
  -2  14 -13  135.61   41.56
   2 -14 -14  363.11   81.72
  -2  14 -14  249.79   50.09
   2 -14 -15   -6.07   57.41
  -2  14 -15    5.77   30.40
   2 -14 -16  541.80   66.65
   2 -14 -17   30.65   39.71
   2 -14 -18   44.64   31.63
  -3 -14 -18   24.81   29.99
  -3 -14 -17  307.16   49.64
  -3 -14 -16  -34.10   49.56
  -3 -14 -15  511.38   77.00
  -3 -14 -14   11.75   68.59
 -14  -3 -11  113.04   23.29
 -14  -3 -10  397.15   34.45
  14   3  -9   -7.54   22.44
  14   3  -8   91.25   31.74
  14   3  -7  365.19   50.58
   3  14  -7  360.90   36.46
  14   3  -6   30.87   25.44
   3  14  -6   99.38   31.01
  14   3  -5 1010.50   76.17
   3  14  -5  770.16   47.96
  14   3  -4   15.18   21.76
  14  -3   4   34.05   27.35
   3  14  -4   52.25   30.95
  -3  14   4   -6.99   22.23
  14  -3   3  651.22   63.61
  14   3  -3  557.59   59.29
  -3  14   3  637.77   37.36
  14  -3   2  256.24   41.53
   3  14  -2  282.49   35.15
  14   3  -2  264.20   43.85
  -3  14   1   30.07   19.57
 -14   3   1   40.18   19.09
  14  -3   1   43.23   28.66
  14   3  -1   55.75   27.02
   3  14  -1    8.71   27.20
  14  -3   0  611.01   62.65
  14   3   0  704.06   67.80
  -3  14   0  689.40   33.28
 -14   3   0  642.08   33.65
  -3  14  -1   13.30   15.44
 -14   3  -1   26.85   19.19
  -3  14  -1  -23.63   35.79
  14  -3  -1    4.33   24.38
  14  -3  -2  256.93   44.68
  -3  14  -2  267.00   22.81
 -14   3  -2  270.13   25.76
  14  -3  -3  626.24   63.78
  -3  14  -3  519.95   58.58
  -3  14  -3  603.67   30.68
 -14   3  -3  598.58   33.51
  -3  14  -4   11.22   15.10
  14  -3  -4   11.27   25.93
  -3  14  -4  -27.47   31.26
  14  -3  -5 1136.57   85.07
  -3  14  -5 1056.89   69.30
  -3  14  -5 1081.33   39.66
 -14   3  -5 1228.90   43.34
  14  -3  -6   49.27   29.98
  -3  14  -6   33.23   34.62
  -3  14  -6   74.46   19.40
 -14   3  -6   68.73   20.69
  14  -3  -7  436.00   56.52
  -3  14  -7  491.90   29.74
 -14   3  -7  470.47   29.44
 -14   3  -8   55.67   18.49
  -3  14  -8   59.12   17.88
  14  -3  -8   49.38   31.25
  -3  14  -8   71.94   35.10
 -14   3  -9   41.65   18.36
  -3  14  -9   19.59   18.82
  14  -3  -9   13.95   26.96
  -3  14  -9   -5.74   31.39
  14  -3 -10  332.32   54.86
  -3  14 -10  397.16   57.17
 -14   3 -10  376.81   28.22
  -3  14 -10  493.83   32.03
 -14   3 -11  110.70   17.25
  -3  14 -11   12.05   32.75
  -3  14 -11   50.03   21.81
 -14   3 -12  230.07   21.58
  -3  14 -12  296.92   47.90
   3 -14 -13  283.34   85.46
  -3  14 -13  179.80   45.00
   3 -14 -14  -43.56   66.16
  -3  14 -14   -3.09   31.54
   3 -14 -15  597.91   75.49
  -3  14 -15  427.74   54.04
   3 -14 -16    0.16   44.72
  -3  14 -16  -43.43   31.26
   3 -14 -17  301.20   47.84
   3 -14 -18   13.14   29.92
  -4 -14 -18   65.17   32.51
  -4 -14 -17   35.16   37.14
  -4 -14 -16  371.02   58.38
  -4 -14 -15   30.88   55.88
  -4 -14 -14  411.84   80.07
  14   4  -9  202.20   42.42
  14   4  -8  146.51   37.95
  14   4  -7   65.32   31.76
  14   4  -6  520.38   58.20
  14   4  -5  521.07   60.20
  14  -4   4 1273.65   88.23
  14   4  -4 1106.74   82.53
  14  -4   3  -15.37   26.56
  14   4  -3   -0.49   22.19
  -4  14   3  -35.47   18.93
  14   4  -2  541.09   60.92
  -4  14   2  616.74   33.37
  14  -4   2  599.51   62.58
  14   4  -1  766.91   70.80
  14  -4   1  745.78   69.13
  -4  14   1  758.81   36.32
 -14   4   1  662.12   31.42
  14  -4   0  282.77   46.64
  -4  14   0  284.73   24.95
 -14   4   0  250.35   24.16
  14  -4  -1  705.53   67.58
  -4  14  -1  718.91   32.63
 -14   4  -1  627.81   32.65
  14  -4  -2  599.86   64.45
  -4  14  -2  442.30   66.60
  -4  14  -2  550.88   29.49
 -14   4  -2  494.04   30.18
 -14   4  -3  -12.14   16.17
  -4  14  -3  -21.78   13.77
  14  -4  -3  -30.73   29.07
  -4  14  -3  -50.93   32.88
  14  -4  -4 1185.05   87.40
  -4  14  -4 1086.84   39.22
  14  -4  -5  602.41   66.38
  -4  14  -5  567.15   56.20
 -14   4  -5  666.53   32.50
  -4  14  -5  646.48   31.03
  14  -4  -6  628.29   66.63
  -4  14  -6  771.37   60.04
 -14   4  -6  715.78   32.84
  -4  14  -6  655.31   32.89
  14  -4  -7   48.36   29.67
 -14   4  -7   62.36   18.82
  -4  14  -7   69.51   17.69
  -4  14  -7   11.42   31.86
  14  -4  -8  168.37   41.06
  -4  14  -8  198.42   42.49
 -14   4  -8  200.05   21.92
  -4  14  -8  187.77   21.61
  14  -4  -9  268.50   50.64
  -4  14  -9  316.87   49.59
 -14   4  -9  297.03   24.72
  -4  14  -9  319.60   26.21
  14  -4 -10   37.56   33.54
 -14   4 -10  114.67   18.90
  -4  14 -10    6.20   31.56
  -4  14 -10   77.42   21.06
   4 -14 -10   16.45   37.65
 -14   4 -11  302.92   24.61
  -4  14 -11  286.21   52.32
  -4  14 -11  365.99   28.76
 -14   4 -12  322.44   22.80
  -4  14 -12  274.02   49.25
   4 -14 -13   -0.70   70.78
  -4  14 -13    0.12   31.18
   4 -14 -14  429.33   75.22
  -4  14 -14  412.65   56.82
   4 -14 -15   71.85   50.73
  -4  14 -15   39.97   30.98
   4 -14 -16  414.43   54.52
  -4  14 -16  292.15   44.23
   4 -14 -17   42.57   34.30
   4 -14 -18   95.38   29.31
  -5 -14 -18   18.39   27.26
  -5 -14 -17  102.17   37.57
  -5 -14 -16  194.73   50.31
  -5 -14 -15  266.47   62.42
  -5 -14 -14   23.09   64.28
 -14  -5 -11  303.84   31.95
  14   5  -8   18.34   22.87
  14   5  -7  173.19   39.96
  14   5  -6  552.14   62.49
  14   5  -5  393.82   53.42
  14   5  -4  517.64   63.02
  14  -5   3  695.54   66.53
  -5  14   3  668.58   33.78
  14  -5   2  159.42   36.96
 -14   5   2  150.68   18.83
  -5  14   2  162.56   20.98
  14  -5   1  399.68   52.68
 -14   5   1  405.67   25.79
  -5  14   1  409.23   27.83
  14  -5   0 1311.45   93.10
 -14   5   0 1403.37   42.87
  -5  14   0 1369.90   43.81
  14  -5  -1  426.25   55.86
 -14   5  -1  434.85   26.84
  -5  14  -1  386.32   26.40
  14  -5  -2  172.36   40.97
  -5  14  -2  114.43   37.71
 -14   5  -2  174.40   20.72
  -5  14  -2  147.26   18.59
  14  -5  -3  708.49   70.56
 -14   5  -3  713.62   32.58
  -5  14  -3  646.51   31.04
  14  -5  -4  587.18   67.60
  -5  14  -4  503.47   55.40
 -14   5  -4  636.45   31.36
  -5  14  -4  646.11   30.48
  14  -5  -5  508.29   61.97
 -14   5  -5  560.20   29.18
  -5  14  -5  501.03   28.95
  -5  14  -6  681.62   61.24
 -14   5  -6  643.83   33.17
  -5  14  -6  723.44   33.34
  14  -5  -6  570.21   66.02
 -14   5  -7  217.92   22.30
  14  -5  -7  175.62   42.09
  -5  14  -7  202.52   21.84
  -5  14  -8   29.92   15.50
  -5  14  -8    1.58   30.07
   5 -14  -8   21.66   37.04
  14  -5  -8   16.25   27.99
 -14   5  -8   16.05   15.00
   5 -14  -9   75.22   44.24
 -14   5  -9  145.56   19.42
  -5  14  -9   73.39   38.13
  -5  14  -9  136.53   21.42
  14  -5  -9   80.33   34.26
  14  -5 -10  369.32   58.79
   5 -14 -10  336.63   63.45
 -14   5 -10  496.34   28.84
  -5  14 -10  502.37   57.83
  -5  14 -10  524.51   31.88
 -14   5 -11  472.14   27.52
  -5  14 -11  479.52   56.50
  -5  14 -11  385.94   29.73
 -14   5 -12  162.25   17.91
   5 -14 -12  155.93   77.20
  -5  14 -12   82.36   38.76
   5 -14 -13  246.43   72.70
  -5  14 -13  232.10   46.03
   5 -14 -14    4.45   51.34
  -5  14 -14    2.54   29.89
   5 -14 -15  277.88   53.41
  -5  14 -15  334.67   46.89
   5 -14 -16  110.15   41.03
  -5  14 -16   60.16   29.03
   5 -14 -17  156.29   36.13
  -5  14 -17   80.38   28.25
   5 -14 -18   32.80   23.48
  -6 -14 -18   26.07   24.81
  -6 -14 -17   76.32   33.04
  -6 -14 -16   72.28   41.61
  -6 -14 -15  109.87   53.10
  -6 -14 -14  231.59   69.48
  -6  14   3   16.59   15.42
  14  -6   3   48.87   35.11
 -14   6   2  501.62   26.47
  14  -6   2  533.52   61.99
  -6  14   2  569.47   30.77
   6 -14   1 1462.57   99.74
  14  -6   1 1549.33  100.43
 -14   6   1 1541.69   43.80
  -6  14   1 1619.80   47.18
  14  -6   0  442.94   56.24
 -14   6   0  417.31   25.78
  -6  14   0  363.87   26.44
  14  -6  -1 1599.78  103.43
   6 -14  -1 1492.50  110.07
 -14   6  -1 1649.14   45.62
  -6  14  -1 1557.09   45.95
  14  -6  -2  558.26   64.39
   6 -14  -2  513.15   71.73
  -6  14  -2  392.86   51.13
 -14   6  -2  594.28   29.65
  -6  14  -2  548.44   29.73
 -14   6  -3   37.10   15.46
   6 -14  -3   19.70   38.58
  -6  14  -3   32.72   15.04
  -6  14  -3    6.20   27.60
  14  -6  -3   27.59   28.78
  -6  14  -4  215.44   21.25
   6 -14  -4  215.51   56.29
  -6  14  -4  155.86   38.54
 -14   6  -4  237.57   22.27
  14  -6  -4  194.44   43.06
  -6  14  -5  930.41   37.18
   6 -14  -5  731.14   89.67
  -6  14  -5  722.27   59.87
 -14   6  -5  790.53   35.14
  14  -6  -5  728.13   75.29
   6 -14  -6  134.83   48.56
 -14   6  -6  152.50   20.29
  -6  14  -6   80.91   34.89
  14  -6  -6  132.99   37.16
  -6  14  -6  163.85   21.46
   6 -14  -7  105.67   46.66
  -6  14  -7  110.94   34.58
  14  -6  -7   56.65   31.86
 -14   6  -7  102.56   17.73
  -6  14  -7  104.52   18.50
   6 -14  -8   80.76   45.80
 -14   6  -8  105.54   18.32
  -6  14  -8   97.88   37.20
  14  -6  -8   61.47   34.47
  -6  14  -8  119.70   19.45
   6 -14  -9  295.97   62.28
 -14   6  -9  367.24   25.74
  -6  14  -9  384.44   27.42
  14  -6  -9  282.73   54.82
 -14   6 -10  433.17   27.65
  -6  14 -10  351.98   49.78
  -6  14 -10  357.07   28.48
 -14   6 -11  568.73   29.63
  -6  14 -11  505.73   59.07
  -6  14 -11  570.92   32.70
 -14   6 -12  183.30   18.63
   6 -14 -12  133.05   66.31
  -6  14 -12  203.04   42.69
  -6  14 -12  151.23   20.75
   6 -14 -13   18.35   52.10
  -6  14 -13   47.78   33.51
   6 -14 -14  169.93   50.49
  -6  14 -14  154.08   39.97
   6 -14 -15   78.98   41.24
  -6  14 -15   28.23   32.01
   6 -14 -16   67.49   33.34
  -6  14 -16   79.88   30.61
   6 -14 -17   38.73   25.14
  -6  14 -17   27.71   22.24
 -14   6 -18   17.29   17.27
  -7 -14 -17   -3.65   27.71
  -7 -14 -16   52.83   37.24
  -7 -14 -15   54.68   46.71
  -7 -14 -14  -21.51   54.90
  -7  14   3   47.91   16.67
 -14   7   2  452.08   25.94
  14  -7   2  476.73   59.21
  -7  14   2  493.56   28.45
  14  -7   1  218.29   44.87
 -14   7   1  268.75   21.84
  -7  14   1  217.63   21.98
  14  -7   0 2485.44  127.81
   7 -14   0 2430.47  131.43
 -14   7   0 2569.37   55.56
  -7  14   0 2485.67   57.04
  -7  14  -1  215.39   22.00
  14  -7  -1  236.83   45.11
   7 -14  -1  251.47   55.75
 -14   7  -1  246.88   21.55
  14  -7  -2  438.03   59.88
  -7  14  -2  485.99   27.93
   7 -14  -2  502.19   72.29
  -7  14  -2  382.69   48.91
 -14   7  -2  509.28   27.96
  -7  14  -3   57.24   16.55
   7 -14  -3   -9.07   38.95
  -7  14  -3   35.89   31.20
  14  -7  -3   41.52   32.70
 -14   7  -3   40.19   15.65
  -7  14  -4  251.84   22.60
   7 -14  -4  226.10   58.51
  -7  14  -4  133.82   39.04
 -14   7  -4  233.79   21.93
  14  -7  -4  202.47   44.06
  -7  14  -5   45.14   16.51
   7 -14  -5  -20.38   40.07
  -7  14  -5   35.13   29.73
  14  -7  -5   23.38   27.45
 -14   7  -5   50.86   16.31
  -7  14  -6  289.00   24.43
  -7  14  -6  243.33   43.36
   7 -14  -6  205.56   58.22
 -14   7  -6  288.23   23.43
  14  -7  -6  227.29   48.83
  -7  14  -7   11.01   14.69
   7 -14  -7  -17.89   39.86
  14  -7  -7   -6.88   27.25
  -7  14  -7    0.96   26.49
 -14   7  -7   26.77   15.05
 -14   7  -8  100.09   17.94
   7 -14  -8  104.79   48.63
  -7  14  -8   57.79   35.15
  14  -7  -8   87.67   35.95
  -7  14  -8  101.12   19.29
  -7  14  -9  107.69   19.10
 -14   7  -9  132.55   19.16
   7 -14  -9   57.94   44.38
  -7  14  -9   55.56   31.47
  14  -7  -9   84.75   36.98
 -14   7 -10 1086.76   39.90
  -7  14 -10 1084.73   77.44
  -7  14 -10 1157.66   44.41
  -7  14 -11   66.43   17.44
 -14   7 -11  115.90   17.14
   7 -14 -11   41.94   59.99
  -7  14 -11   25.75   32.14
 -14   7 -12  448.70   25.16
   7 -14 -12  388.54   68.83
  -7  14 -12  392.06   56.62
  -7  14 -12  485.28   29.77
   7 -14 -13   87.61   46.86
 -14   7 -13   63.79   12.73
  -7  14 -13   32.85   33.56
   7 -14 -14  -27.11   36.94
  -7  14 -14   -8.84   28.04
   7 -14 -15    4.19   30.58
  -7  14 -15   16.11   28.57
  -7  14 -16   23.48   25.54
  -7  14 -17   -1.61   20.63
 -14   7 -18    0.40   14.96
  -8 -14 -17    7.16   24.20
  -8 -14 -16  -12.20   33.86
  -8 -14 -15   -7.02   41.01
  -8 -14 -14    0.69   51.56
  -8 -14 -13  118.61   65.93
  -8  14   3   15.47   14.59
  -8  14   2   34.67   16.08
 -14   8   2   28.10   13.49
  14  -8   2   27.56   30.40
 -14   8   1 1821.84   47.92
  14  -8   1 1871.81  113.76
  -8  14   1 1848.70   50.11
  14  -8   0  131.77   37.16
  -8  14   0  114.45   17.35
 -14   8   0  180.62   19.34
   8 -14   0  174.96   44.49
  14  -8  -1 1701.96  112.08
  -8  14  -1 1816.38   50.19
   8 -14  -1 1891.55  122.41
 -14   8  -1 1779.92   48.76
  -8  14  -2    3.11   27.24
  -8  14  -2   20.04   14.79
  14  -8  -2   17.61   28.91
 -14   8  -2   16.76   14.44
   8 -14  -2    7.54   35.74
  -8  14  -3   27.64   14.72
   8 -14  -3   -0.34   37.74
  -8  14  -3    6.20   27.41
  14  -8  -3   16.44   28.47
 -14   8  -3   39.97   15.82
  -8  14  -4   31.90   15.89
  -8  14  -4    7.68   26.63
   8 -14  -4   16.96   40.49
  14  -8  -4  -10.25   30.67
 -14   8  -4   15.92   14.61
  -8  14  -5   78.65   17.69
  14  -8  -5   85.93   37.23
   8 -14  -5   93.41   44.72
  -8  14  -5   76.68   32.17
 -14   8  -5   86.54   17.55
  -8  14  -6   23.63   15.82
  14  -8  -6   24.78   32.96
   8 -14  -6   -7.38   38.84
  -8  14  -6   17.76   26.34
 -14   8  -6   10.26   14.24
  -8  14  -7   -5.73   14.88
  14  -8  -7    2.86   28.23
   8 -14  -7   -2.18   37.22
  -8  14  -7    4.41   27.89
 -14   8  -7   18.72   15.02
  -8  14  -8   24.36   16.45
  14  -8  -8  -15.58   33.75
 -14   8  -8   15.34   13.97
  -8  14  -8    2.44   27.37
   8 -14  -8   16.88   36.79
 -14   8  -9  945.28   37.37
  -8  14  -9 1015.95   69.95
  -8  14  -9  991.77   40.84
  -8  14 -10  -43.49   17.37
 -14   8 -10   12.70   13.52
  -8  14 -10    3.12   27.62
 -14   8 -11 1019.14   37.15
  -8  14 -11 1092.23   77.45
  -8  14 -11 1064.61   41.51
  -8  14 -12    3.61   13.18
 -14   8 -12   17.95   12.49
  -8  14 -12   -4.67   26.65
 -14   8 -13  158.29   16.54
  -8  14 -13  159.64   39.01
  -8  14 -14   16.12   27.40
  -8  14 -15   -0.89   26.20
  -8  14 -16   -3.24   23.41
  -8  14 -17   11.74   21.01
 -14   8 -17   -6.44   17.05
  -9 -14 -16    4.81   26.66
  -9 -14 -15  -46.88   37.55
  -9 -14 -14    8.09   44.26
  -9 -14 -13  -16.83   53.66
  -9  14   3    4.19   14.21
 -14   9   2  477.31   26.54
  -9  14   2  496.32   30.16
  -9  14   1   -3.53   15.21
  14  -9   1    0.43   31.89
 -14   9   1   28.82   15.02
  -9  14   0 1693.88   49.37
  14  -9   0 1706.88  113.04
   9 -14   0 1667.88  114.49
 -14   9   0 1752.37   48.19
  -9  14  -1  -22.17   16.21
 -14   9  -1    0.17   14.41
   9 -14  -1    7.23   36.16
  14  -9  -1    3.84   29.15
  -9  14  -2  512.94   29.73
   9 -14  -2  498.28   74.41
 -14   9  -2  518.13   29.25
  14  -9  -2  447.25   62.04
  -9  14  -3    4.53   14.53
  14  -9  -3    3.47   28.43
  -9  14  -3   -0.26   26.54
 -14   9  -3   12.30   14.78
   9 -14  -3   47.72   44.59
  -9  14  -4   24.99   16.26
  -9  14  -4    3.31   26.13
 -14   9  -4   41.36   16.06
   9 -14  -4   -0.29   39.01
  14  -9  -4    3.15   30.25
  -9  14  -5   19.84   15.57
  14  -9  -5   18.15   33.90
  -9  14  -5   21.23   27.33
 -14   9  -5   43.41   16.23
   9 -14  -5  -11.94   38.91
  -9  14  -6   47.16   17.23
  14  -9  -6   18.04   30.55
 -14   9  -6   36.92   15.35
  -9  14  -6   24.52   28.06
   9 -14  -6   -9.92   41.53
  -9  14  -7    4.09   14.97
  14  -9  -7  -33.17   34.20
  -9  14  -7   -6.40   27.73
   9 -14  -7  -16.32   41.86
  -9  14  -8  346.14   26.88
 -14   9  -8  300.21   24.49
  -9  14  -8  293.94   42.70
  14  -9  -8  208.07   51.29
   9 -14  -8  237.35   61.94
  -9  14  -9   -0.28   14.61
 -14   9  -9   14.22   13.85
  -9  14  -9  -14.81   27.99
 -14   9 -10  999.03   38.19
  -9  14 -10  969.92   71.11
  -9  14 -10  965.60   41.39
  -9  14 -11  -18.98   14.57
 -14   9 -11   15.43   13.27
  -9  14 -11   -5.31   27.32
 -14   9 -12  525.68   27.89
  -9  14 -12  574.30   30.48
 -14   9 -13   -7.11   10.28
  -9  14 -13   -0.98   25.85
  -9  14 -14    7.50   25.83
  -9  14 -15   37.12   27.57
  -9  14 -16    1.43   22.28
 -14   9 -16   17.36   19.77
  -9  14 -17   16.14   20.22
 -14   9 -17   -1.43   16.96
 -10 -14 -16   42.74   23.79
 -10 -14 -15   15.12   30.64
 -10 -14 -14   33.92   38.53
 -10 -14 -13   50.48   48.32
 -10  14   3  161.95   20.34
 -10  14   2   -5.27   14.13
 -14  10   2    2.56   13.55
 -10  14   1  590.27   31.23
 -14  10   1  615.52   30.69
 -14  10   0   45.80   16.32
 -10  14   0   57.71   16.66
 -10  14  -1  621.85   32.69
 -14  10  -1  641.95   31.54
  10 -14  -1  574.55   74.42
  14 -10  -1  558.78   70.65
 -10  14  -2   -3.43   14.99
 -14  10  -2   18.80   14.73
  14 -10  -2   14.14   33.57
  10 -14  -2    4.18   36.15
 -10  14  -3  124.07   20.23
 -14  10  -3  137.93   19.87
  14 -10  -3  126.75   45.12
 -10  14  -3   69.31   31.47
  10 -14  -3  110.85   48.93
 -10  14  -4   57.85   17.26
  14 -10  -4   42.50   35.26
 -14  10  -4   71.18   17.27
 -10  14  -4   28.11   28.11
  10 -14  -4   41.30   45.63
 -10  14  -5  101.11   19.13
 -14  10  -5  109.65   19.33
  14 -10  -5   54.78   38.72
 -10  14  -5   27.78   27.25
  10 -14  -5   29.42   43.54
 -10  14  -6  158.79   20.81
 -14  10  -6  154.58   21.05
  14 -10  -6   99.72   41.31
 -10  14  -6  106.84   34.07
  10 -14  -6  138.74   49.88
 -10  14  -7  110.12   19.99
 -14  10  -7   96.90   18.71
  14 -10  -7    5.72   33.37
 -10  14  -7   79.49   32.34
  10 -14  -7   59.29   44.91
 -10  14  -8   11.88   14.99
 -14  10  -8   19.89   14.72
 -10  14  -8   27.43   27.99
 -10  14  -9  472.24   29.89
 -14  10  -9  471.33   28.76
 -10  14  -9  398.05   51.59
 -14  10 -10  104.22   18.08
 -10  14 -10   68.63   16.74
 -10  14 -10   48.99   29.64
 -14  10 -11  665.94   31.97
 -10  14 -11  650.95   32.67
 -10  14 -12   -3.44   12.69
 -14  10 -12   12.34   12.39
 -14  10 -13   80.61   13.72
 -10  14 -13   95.71   31.72
 -10  14 -14   12.95   24.08
 -10  14 -15   16.45   24.32
 -14  10 -15    3.34   20.77
 -10  14 -16   58.69   25.44
 -14  10 -16   38.26   20.83
 -10  14 -17    2.25   17.88
 -14  10 -17    2.73   16.34
 -11 -14 -14   35.11   32.43
 -11 -14 -13   27.77   40.00
 -11 -14 -12   13.35   47.47
 -11  14   2  142.74   19.60
 -14  11   2  146.88   19.14
 -11  14   1   52.98   16.26
 -14  11   1   43.19   15.49
 -14  11   0  111.85   17.72
 -11  14   0  104.67   18.45
  14 -11   0  108.55   39.93
  11 -14  -1   -0.50   33.23
 -11  14  -1   60.62   17.63
 -14  11  -1   40.38   16.25
  14 -11  -1   12.14   30.83
 -11  14  -2  138.64   20.25
  11 -14  -2   77.83   44.28
 -14  11  -2  155.04   20.50
  14 -11  -2  120.98   44.64
  11 -14  -3   70.75   42.65
 -11  14  -3   81.25   17.42
 -14  11  -3   96.95   18.23
 -11  14  -3   72.24   29.70
  14 -11  -4   24.62   35.63
 -11  14  -4   48.89   16.67
 -14  11  -4   75.91   16.77
 -11  14  -4   10.75   25.93
 -11  14  -5  660.48   34.02
 -14  11  -5  628.04   32.59
  11 -14  -5  518.17   82.69
 -11  14  -5  485.02   51.24
  14 -11  -5  499.59   72.19
  11 -14  -6   28.96   39.53
  14 -11  -6   25.79   33.76
 -14  11  -6   39.78   15.32
 -11  14  -6   17.46   27.42
 -11  14  -6   37.21   15.48
 -11  14  -7  286.54   24.99
 -14  11  -7  264.23   23.83
 -11  14  -7  248.01   41.87
 -11  14  -8   75.31   18.07
 -14  11  -8   78.21   17.30
 -11  14  -8   50.58   29.13
 -11  14  -9   -1.88   14.61
 -14  11  -9    7.55   13.53
 -11  14  -9  -13.43   27.09
 -11  14 -10  239.89   22.64
 -14  11 -10  219.70   21.72
 -11  14 -11   34.29   13.94
 -14  11 -11   40.01   14.25
 -11  14 -11   14.60   25.45
 -14  11 -12   81.40   14.44
 -11  14 -12   60.52   28.79
 -11  14 -12   89.79   15.62
 -11  14 -13    3.43   11.93
 -14  11 -13    5.95   10.06
 -11  14 -13  -25.50   24.98
 -11  14 -14   -1.81   23.06
 -14  11 -14   -7.51   20.86
 -11  14 -15  114.00   29.29
 -14  11 -15  113.94   25.79
 -11  14 -16   19.16   21.00
 -14  11 -16    0.99   17.60
 -12  14   2   16.97   14.25
 -14  12   2   29.68   14.77
 -12  14   1   -3.57   14.64
 -14  12   1   -0.97   14.03
 -12  14   0  183.47   21.66
 -14  12   0  185.29   21.51
 -12  14  -1   -2.25   15.02
 -14  12  -1   16.37   14.92
  14 -12  -1    2.98   31.86
  12 -14  -2   -2.32   35.90
 -12  14  -2    8.98   14.95
 -14  12  -2   19.95   14.88
  14 -12  -2   35.36   30.75
  12 -14  -3   65.89   53.86
 -12  14  -3   26.34   16.00
 -14  12  -3   35.63   15.92
  14 -12  -3    6.37   36.31
 -12  14  -4  890.77   38.72
 -14  12  -4  839.23   36.67
  12 -14  -4  635.57   87.52
 -12  14  -4  752.27   54.66
  14 -12  -4  595.05   78.97
  12 -14  -5  -53.99   45.24
 -12  14  -5  -23.58   17.72
  14 -12  -5  -45.70   42.66
 -14  12  -5    4.36   14.98
 -12  14  -5  -16.34   30.02
 -14  12  -6 1098.76   44.77
 -12  14  -6 1225.41   70.77
 -12  14  -7    4.18   15.41
 -14  12  -7   17.64   14.30
 -12  14  -7  -27.41   29.22
 -14  12  -8   87.97   17.92
 -12  14  -8   70.85   16.84
 -12  14  -8   71.03   31.31
 -12  14  -9   21.70   14.70
 -14  12  -9   31.39   14.99
 -12  14  -9   34.45   27.92
 -12  14 -10   11.46   13.82
 -14  12 -10   -0.79   12.81
 -12  14 -10    1.67   24.46
 -12  14 -11   18.00   12.83
 -14  12 -11   43.37   13.99
 -12  14 -11   21.61   25.19
 -12  14 -12   -0.62   11.36
 -14  12 -12    6.24   11.48
 -12  14 -12   22.73   25.18
 -12  14 -13    1.42   10.11
 -14  12 -13    2.92    9.82
 -12  14 -13    6.78   22.46
 -14  12 -13   14.42   22.19
 -12  14 -14  163.44   31.05
 -14  12 -14  131.52   29.13
 -12  14 -15    4.40   20.47
 -14  12 -15   -1.43   19.50
 -12  14 -16  285.43   33.03
 -14  12 -16  339.55   33.09
 -13  14   2   29.11   15.74
 -14  13   2   12.96   14.72
 -13  14   1  111.48   18.79
 -14  13   1  117.74   18.48
 -13  14   0   14.27   15.08
 -14  13   0   30.34   15.30
 -13  14  -1  116.23   19.52
 -14  13  -1  133.60   19.89
 -13  14  -2   19.83   16.23
  13 -14  -2   13.98   38.03
 -14  13  -2    6.95   14.77
  14 -13  -2   17.72   37.11
 -13  14  -3  488.38   29.84
 -14  13  -3  492.04   30.36
  13 -14  -3  334.78   62.89
  14 -13  -3  303.28   57.92
 -13  14  -4  -39.84   18.22
 -14  13  -4  -20.63   16.83
 -13  14  -5 1830.09   54.01
 -14  13  -5 1802.66   53.37
 -13  14  -5 1791.67   80.66
 -14  13  -5 1775.32   78.49
 -13  14  -6  -34.60   29.13
 -13  14  -7  549.70   31.60
 -14  13  -7  599.89   32.74
 -13  14  -7  595.39   51.54
 -13  14  -8  -14.66   15.61
 -14  13  -8  -12.74   14.79
 -13  14  -8   -7.37   25.40
 -13  14  -9    1.70   13.69
 -14  13  -9   21.53   14.06
 -13  14  -9   11.64   24.34
 -13  14 -10   -5.57   13.30
 -14  13 -10    6.15   12.56
 -13  14 -10   21.55   24.42
 -14  13 -10    1.95   22.39
 -13  14 -11   42.45   13.92
 -14  13 -11   36.90   13.74
 -13  14 -11   46.40   25.11
 -14  13 -11   20.08   23.71
 -13  14 -12   -1.83   11.02
 -14  13 -12    6.86   10.70
 -13  14 -12    8.61   22.02
 -14  13 -12    8.08   22.18
 -13  14 -13   49.88   12.14
 -14  13 -13   31.52   11.06
 -13  14 -13   28.75   23.20
 -14  13 -13   58.54   24.28
 -13  14 -14    7.47   20.47
 -14  13 -14    7.59   19.46
 -13  14 -15  348.18   36.62
 -14  13 -15  370.81   36.65
 -14  14   2   13.93   14.67
 -14  14   1  -10.22   14.84
 -14  14   0  152.23   20.12
 -14  14  -1   -3.16   15.99
 -14  14  -2   15.33   15.91
 -14  14  -3    2.60   15.40
 -14  14  -4 1694.31   52.12
 -14  14  -5  -20.94   29.07
 -14  14  -6 1072.28   42.35
 -14  14  -6  921.42   63.97
 -14  14  -7  -39.14   16.59
 -14  14  -7   -8.90   23.68
 -14  14  -8  195.73   21.41
 -14  14  -8  115.80   31.27
 -14  14  -9   13.70   13.88
 -14  14  -9    4.02   23.69
 -14  14 -10   46.92   14.69
 -14  14 -10   26.71   25.19
 -14  14 -11    0.92   11.17
 -14  14 -11    8.49   23.07
 -14  14 -12   -9.34   11.32
 -14  14 -12   -1.12   21.02
 -14  14 -13    4.27    9.58
 -14  14 -13   -6.35   21.16
 -14  14 -14  221.79   31.57
 -14  14 -15  -19.57   21.32
  15   0   0   97.55   35.27
   0  15   0  113.10   30.75
  15   0  -1  788.35   70.26
   0  15   1  842.69   48.62
   0  15  -1  804.94   44.93
  15   0   1  803.11   71.99
  15   0  -2  421.78   54.40
  15   0   2  406.30   55.64
   0  15   2  479.80   40.60
   0  15  -2  434.26   33.93
  15   0  -3    4.36   23.12
   0  15  -3  -12.62   19.75
   0  15  -4  510.08   35.85
  15   0  -4  493.53   59.38
   0  15  -5  460.52   61.97
   0  15  -5  512.83   35.78
  15   0  -5  449.47   58.68
   0  15  -6  454.04   62.23
  15   0  -6  408.00   56.95
   0  15  -6  491.48   35.73
 -15   0  -7  260.24   31.85
   0  15  -7  255.29   48.59
  15   0  -7  206.64   43.17
   0  15  -7  282.14   31.07
 -15   0  -8  163.72   27.74
  15   0  -8  113.87   35.78
   0  15  -8  108.56   44.65
   0  15  -8  151.26   26.53
   0  15  -9  448.76   36.57
  15   0  -9  368.54   54.65
 -15   0  -9  469.47   32.22
  15   0 -10   23.44   28.30
   0  15 -10   23.54   36.74
   0  15 -11  560.06   62.84
 -15   0 -11  472.55   30.40
   0  15 -12  125.52   45.16
 -15   0 -12  215.16   20.74
   0 -15 -14  427.95   97.91
   0 -15 -15  373.45   79.63
   0 -15 -16  272.50   63.52
   0 -15 -17   45.31   40.37
   0 -15 -18  187.56   37.67
  -1 -15 -18  -20.04   30.13
  -1 -15 -17  191.97   47.83
  -1 -15 -16  304.44   63.52
  -1 -15 -15  165.41   71.61
  -1 -15 -14  220.29   89.07
 -15  -1 -12  160.02   20.28
 -15  -1 -11  259.00   26.01
  15   1 -10  304.87   51.30
 -15  -1 -10  304.79   31.23
   1  15  -9   34.73   41.12
   1  15  -9  120.97   28.72
  15   1  -9   81.27   35.24
   1  15  -8    4.19   36.99
 -15  -1  -8   24.73   25.35
  15   1  -8    8.83   25.95
   1  15  -8    9.74   22.49
   1  15  -7  354.06   34.41
  15   1  -7  280.66   48.94
   1  15  -6  518.87   38.08
  15   1  -6  502.11   60.26
  15   1  -5  439.08   58.28
   1  15  -5  488.82   40.38
  15   1  -4  351.81   50.37
   1  15  -4  280.55   32.54
  15   1  -3  528.24   59.34
  15  -1   3  584.69   66.65
  -1  15   3  539.16   43.87
   1  15  -3  593.27   40.85
  15  -1   2   41.74   30.12
  15   1  -2   18.78   25.18
  -1  15   2  103.14   30.95
   1  15  -2   48.07   25.07
  15  -1   1  341.47   50.56
  15   1  -1  376.12   52.47
   1  15  -1  387.16   37.23
  -1  15   1  414.52   37.17
  15  -1   0  828.31   72.51
   1  15   0  820.40   48.47
  -1  15   0  855.40   44.71
  15   1   0  832.27   74.54
  15  -1  -1  300.57   49.01
  15   1   1  356.29   53.92
   1  15   1  444.73   40.67
  -1  15  -1  363.63   32.53
  15  -1  -2   11.60   23.84
  -1  15  -2   21.70   19.71
  15  -1  -3  533.75   61.90
  -1  15  -3  526.63   33.44
  -1  15  -4  330.50   54.50
  15  -1  -4  359.38   52.53
  -1  15  -4  435.08   31.65
  15  -1  -5  443.29   58.67
  -1  15  -5  445.62   32.89
  15  -1  -6  527.57   61.65
  -1  15  -6  597.04   36.34
 -15   1  -6  604.43   38.37
  15  -1  -7  308.62   50.44
  -1  15  -7  357.32   31.11
  15  -1  -8    4.75   24.67
 -15   1  -8   11.04   19.60
  -1  15  -8  -23.31   35.77
  -1  15  -8   11.50   19.79
  15  -1  -9   84.53   34.71
  -1  15  -9  223.37   70.28
  -1  15  -9  143.69   27.39
 -15   1  -9  173.49   25.00
  -1  15 -10  407.51   64.45
  15  -1 -10  339.32   55.00
 -15   1 -10  487.36   31.94
 -15   1 -11  281.71   27.38
  -1  15 -11  231.20   31.37
  -1  15 -12   79.83   38.59
 -15   1 -12  187.11   19.73
  -1  15 -13   99.84   42.38
   1 -15 -14  310.99   91.97
   1 -15 -15  170.37   70.26
   1 -15 -16  262.69   60.82
   1 -15 -17  240.85   49.81
   1 -15 -18   22.80   30.96
  -2 -15 -18   51.54   31.21
  -2 -15 -17  116.85   43.17
  -2 -15 -16   63.29   52.83
  -2 -15 -15  463.30   79.67
  -2 -15 -14  -13.29   76.88
 -15  -2 -10  201.02   28.52
  15   2  -9   69.31   31.19
 -15  -2  -9  157.65   29.19
  15   2  -8   91.71   34.91
   2  15  -8   83.87   28.19
  15   2  -7  132.30   36.04
   2  15  -7  133.44   28.43
  15   2  -6   72.34   33.46
   2  15  -6  143.40   31.59
  15   2  -5  632.84   65.51
   2  15  -5  521.75   40.79
  15   2  -4   95.55   32.44
  -2  15   4  175.18   34.51
   2  15  -4  192.38   34.43
  15  -2   3  159.40   43.83
  15   2  -3  125.27   34.14
  -2  15   3  221.25   33.63
   2  15  -3   91.88   29.34
 -15   2   3  115.36   22.09
  15  -2   2  206.21   41.04
  15   2  -2  225.90   42.87
   2  15  -2  201.49   32.67
  -2  15   2  319.17   35.00
  15  -2   1   60.79   30.82
  15   2  -1   55.68   30.34
   2  15  -1   67.86   29.62
  -2  15   1   52.85   24.05
  15  -2   0  234.74   45.52
  15   2   0  262.00   47.71
   2  15   0  292.10   37.82
  -2  15   0  291.91   28.62
  -2  15  -1   71.35   21.38
  15  -2  -1   60.31   29.74
  15   2   1   54.24   30.95
  15  -2  -2  186.48   41.95
  -2  15  -2  206.56   24.08
  15  -2  -3  146.56   40.54
 -15   2  -3  160.52   25.94
  -2  15  -3   81.23   42.39
  -2  15  -3  187.94   23.78
  -2  15  -4   64.71   41.61
  -2  15  -4  108.83   21.82
  15  -2  -4  106.39   37.64
 -15   2  -4  146.35   27.43
  15  -2  -5  694.94   70.77
  -2  15  -5  765.12   67.93
  -2  15  -5  811.19   37.94
 -15   2  -5  747.46   38.33
  -2  15  -6   58.89   39.68
  15  -2  -6   96.61   37.80
  -2  15  -6  107.09   22.24
 -15   2  -6  169.18   26.81
  -2  15  -7  193.48   45.61
  15  -2  -7  149.19   38.72
  -2  15  -7  207.39   24.70
 -15   2  -7  166.14   23.80
 -15   2  -8   95.11   21.58
  -2  15  -8   87.01   41.91
  15  -2  -8   78.41   33.65
  -2  15  -8  107.52   21.76
  -2  15  -9  111.38   45.60
  -2  15  -9  148.64   24.78
  15  -2  -9  129.52   39.19
 -15   2  -9  174.85   23.01
  -2  15 -10   83.76   42.10
 -15   2 -10  202.18   24.00
  -2  15 -10  183.71   28.04
  15  -2 -10   54.53   30.28
  -2  15 -11  173.75   47.22
 -15   2 -11  277.91   24.22
  -2  15 -11  191.26   27.22
  -2  15 -12  176.50   45.62
 -15   2 -12  204.19   20.94
   2 -15 -13   86.29   93.67
  -2  15 -13   81.21   38.86
   2 -15 -14  -19.72   75.58
  -2  15 -14    9.65   31.75
   2 -15 -15  503.85   78.98
   2 -15 -16   54.24   51.45
   2 -15 -17  176.70   43.81
   2 -15 -18   42.47   30.39
  -3 -15 -18    6.17   27.77
  -3 -15 -17  -34.57   37.73
  -3 -15 -16  346.15   60.90
  -3 -15 -15  -12.07   59.46
  -3 -15 -14  361.52   86.35
 -15  -3 -11  305.96   29.38
 -15  -3 -10   81.64   25.81
  15   3  -9   90.39   35.53
  15   3  -8   -1.41   24.47
  15   3  -7  -25.37   28.32
  15   3  -6  449.62   58.11
  15   3  -5    6.26   24.19
   3  15  -5   59.18   30.49
  15  -3   4  749.47   73.58
  15   3  -4  598.48   64.68
  -3  15   4  811.39   45.82
 -15   3   3   45.98   15.88
  15   3  -3   60.89   27.61
   3  15  -3  135.70   33.83
  -3  15   3   64.38   25.86
  15  -3   3   50.65   30.31
  15   3  -2  180.36   41.15
  15  -3   2  199.33   41.01
  -3  15   2  271.64   29.87
 -15   3   2  223.26   24.43
  15   3  -1  182.34   41.41
  -3  15   1  236.28   25.94
  15  -3   1  152.92   37.48
 -15   3   0   98.32   23.57
  15  -3   0  102.25   33.39
  -3  15   0  119.76   22.92
  15  -3  -1  143.03   37.52
  -3  15  -1  182.76   23.11
 -15   3  -1  186.56   25.26
  -3  15  -2  147.00   50.57
  15  -3  -2  208.45   43.14
  -3  15  -2  215.18   23.67
 -15   3  -2  193.10   26.23
  -3  15  -3   80.34   19.30
  -3  15  -3   21.98   34.38
  15  -3  -3   87.99   36.32
  15  -3  -4  698.01   70.26
  -3  15  -4  747.57   61.14
  -3  15  -4  750.52   35.64
 -15   3  -4  770.47   38.55
  -3  15  -5   23.86   17.54
 -15   3  -5    3.54   18.47
  15  -3  -5   16.52   28.12
  -3  15  -5   -0.23   33.94
  15  -3  -6  527.09   63.04
  -3  15  -6  490.56   61.09
  -3  15  -6  569.73   33.11
  -3  15  -7   10.39   17.02
 -15   3  -7   -0.50   17.18
  15  -3  -7   20.49   26.06
  -3  15  -7    5.53   33.24
  -3  15  -8   29.77   18.35
 -15   3  -8   49.80   18.61
  -3  15  -8   18.75   35.55
  15  -3  -8   50.44   30.93
  15  -3  -9   81.60   33.90
  -3  15  -9   83.46   39.86
 -15   3  -9  118.72   20.12
  -3  15  -9  122.42   22.42
  -3  15 -10   81.44   40.47
 -15   3 -10  103.99   18.87
  -3  15 -10   66.71   20.90
  -3  15 -11  269.69   49.94
 -15   3 -11  368.93   25.64
  -3  15 -11  248.52   27.83
 -15   3 -12  162.93   18.86
  -3  15 -12  123.46   46.16
   3 -15 -13  -25.48   84.96
  -3  15 -13   -4.35   32.09
   3 -15 -14  414.70   88.26
  -3  15 -14  272.10   51.99
   3 -15 -15  -47.21   56.92
  -3  15 -15  -42.01   33.00
   3 -15 -16  394.56   58.46
   3 -15 -17   30.65   36.77
   3 -15 -18   13.19   25.27
  -4 -15 -18   -8.72   26.10
  -4 -15 -17   75.08   36.96
  -4 -15 -16   32.26   44.92
  -4 -15 -15  336.78   69.32
  -4 -15 -14   51.19   72.21
 -15  -4 -11  282.93   30.12
  15   4  -9   22.62   27.21
  15   4  -8   13.50   24.11
  15   4  -7  128.22   38.44
  15   4  -6  108.71   35.67
  15   4  -5  435.90   57.41
  15  -4   4  155.88   37.58
  15   4  -4  155.49   38.06
  -4  15   4  158.68   28.25
  15   4  -3  629.36   67.39
  15  -4   3  751.87   71.77
  -4  15   3  792.05   40.99
  -4  15   2   51.99   20.36
 -15   4   2   46.17   17.10
  15   4  -2    9.05   24.85
  15  -4   2   25.93   25.86
  -4  15   1  249.63   25.89
  15  -4   1  207.52   42.47
  15  -4   0  174.88   41.70
  -4  15   0  203.59   23.86
 -15   4   0  198.27   22.49
  15  -4  -1  226.32   46.46
  -4  15  -1  238.24   24.37
 -15   4  -1  242.16   24.35
 -15   4  -2   48.40   18.69
  -4  15  -2   25.36   15.94
  -4  15  -2   16.54   35.58
  15  -4  -2   45.38   32.01
  15  -4  -3  745.69   73.44
  -4  15  -3  607.41   64.34
  -4  15  -3  734.23   35.02
  15  -4  -4  200.52   45.09
 -15   4  -4  206.59   22.87
  -4  15  -4  170.10   21.19
  15  -4  -5  560.93   66.61
 -15   4  -5  618.04   32.48
  -4  15  -5  579.34   32.74
  15  -4  -6  102.72   35.92
  -4  15  -6   84.06   37.69
 -15   4  -6  124.76   21.47
  -4  15  -6  155.13   21.61
  15  -4  -7  103.55   37.47
  -4  15  -7  152.88   41.04
 -15   4  -7  138.47   20.86
  -4  15  -7  165.03   21.60
 -15   4  -8   25.89   16.35
  -4  15  -8   29.64   17.91
  15  -4  -8   36.67   31.95
  -4  15  -8   36.45   34.51
  -4  15  -9    0.11   17.12
  15  -4  -9   -4.01   27.75
   4 -15  -9  -20.94   35.28
  -4  15  -9    3.59   32.52
 -15   4  -9    8.76   14.90
  -4  15 -10  259.57   52.17
 -15   4 -10  251.58   24.69
  -4  15 -10  276.09   27.52
 -15   4 -11  316.70   23.93
  -4  15 -11  280.61   28.64
  -4  15 -12   33.80   36.30
 -15   4 -12   59.48   14.28
   4 -15 -13  353.71   89.33
  -4  15 -13  307.98   51.11
   4 -15 -14   15.30   61.54
  -4  15 -14   10.54   31.03
   4 -15 -15  325.64   61.52
  -4  15 -15  264.83   45.57
   4 -15 -16   61.53   43.74
   4 -15 -17  131.00   35.48
  -5 -15 -18   47.18   25.87
  -5 -15 -17   41.89   33.00
  -5 -15 -16  100.80   47.69
  -5 -15 -15   76.27   57.65
  -5 -15 -14  284.67   74.59
 -15  -5 -11  108.66   25.02
  15   5  -7   22.22   25.39
  15   5  -6  138.91   38.52
  15   5  -5  369.86   56.53
  15  -5   3   82.84   33.10
  -5  15   3   76.41   21.75
  15  -5   2  584.85   67.13
 -15   5   2  658.31   29.97
  -5  15   2  693.35   36.56
  15  -5   1  368.03   53.61
 -15   5   1  399.24   27.14
  -5  15   1  416.50   30.12
  15  -5   0  215.36   44.28
 -15   5   0  239.28   23.23
  -5  15   0  221.75   24.08
  15  -5  -1  404.40   58.74
 -15   5  -1  422.19   27.79
  -5  15  -1  390.04   28.04
  15  -5  -2  572.50   65.23
 -15   5  -2  694.29   33.61
  -5  15  -2  645.24   33.24
 -15   5  -3   83.71   18.53
  -5  15  -3   63.36   17.64
  15  -5  -3   95.02   37.08
  -5  15  -3   50.86   37.62
  15  -5  -4  398.82   59.76
  -5  15  -4  358.10   51.33
 -15   5  -4  473.18   28.77
  -5  15  -4  433.09   28.55
  15  -5  -5  388.49   60.58
  -5  15  -5  503.86   55.78
 -15   5  -5  479.60   29.43
  -5  15  -5  486.05   29.69
  15  -5  -6  171.90   41.94
  -5  15  -6  212.16   43.80
 -15   5  -6  202.61   21.89
  -5  15  -6  188.76   22.35
  15  -5  -7   24.68   30.28
  -5  15  -7   33.90   16.60
   5 -15  -7   -2.22   34.44
  -5  15  -7   10.27   32.60
 -15   5  -7   26.05   17.09
  -5  15  -8   83.00   18.91
  15  -5  -8   80.20   35.00
   5 -15  -8   49.19   39.34
  -5  15  -8   94.45   37.77
 -15   5  -8   64.06   17.05
  15  -5  -9   59.71   33.35
   5 -15  -9   68.95   45.90
  -5  15  -9  152.44   44.35
 -15   5  -9  151.07   20.35
  -5  15  -9  153.30   23.23
 -15   5 -10  467.56   28.65
  -5  15 -10  361.12   54.84
  -5  15 -10  439.87   32.31
 -15   5 -11  161.76   18.80
  -5  15 -11  158.14   23.62
 -15   5 -12  267.10   22.15
  -5  15 -12  181.66   50.60
  -5  15 -12  234.36   25.90
   5 -15 -13  -24.36   64.91
 -15   5 -13   37.06   12.13
  -5  15 -13   -5.79   31.60
   5 -15 -14  199.91   59.08
  -5  15 -14  190.89   43.44
   5 -15 -15  112.32   47.13
  -5  15 -15   35.78   30.08
   5 -15 -16  100.30   36.72
  -5  15 -16   67.60   31.18
   5 -15 -17   45.26   27.19
  -6 -15 -17   19.79   29.37
  -6 -15 -16   86.97   39.98
  -6 -15 -15   10.48   47.54
  -6 -15 -14   44.43   61.82
 -15  -6 -11  293.25   32.68
  -6  15   3  211.85   24.96
  15  -6   2  161.96   39.48
 -15   6   2  163.35   19.29
  -6  15   2  177.64   23.71
  15  -6   1  270.55   49.03
 -15   6   1  338.37   23.93
  -6  15   1  293.82   26.96
  15  -6   0  789.05   77.96
 -15   6   0  851.27   35.33
  -6  15   0  835.52   37.83
  15  -6  -1  301.26   52.55
   6 -15  -1  140.95   51.63
  -6  15  -1  162.41   42.69
 -15   6  -1  296.03   24.94
  -6  15  -1  273.32   25.34
  15  -6  -2  161.11   44.62
   6 -15  -2  164.60   52.08
  -6  15  -2  130.73   39.63
 -15   6  -2  187.94   21.58
  -6  15  -2  153.42   21.03
  15  -6  -3  154.03   42.97
   6 -15  -3  100.71   52.00
  -6  15  -3  110.02   40.64
 -15   6  -3  179.02   21.78
  -6  15  -3  191.86   21.70
  15  -6  -4  269.87   53.24
   6 -15  -4  225.94   60.57
  -6  15  -4  229.29   45.90
 -15   6  -4  242.05   24.10
  -6  15  -4  310.68   25.24
  15  -6  -5   57.55   35.38
   6 -15  -5   56.87   45.46
  -6  15  -5   26.92   33.38
  -6  15  -5  102.89   18.89
 -15   6  -5   87.74   17.98
   6 -15  -6  166.50   55.31
  -6  15  -6   77.70   41.58
 -15   6  -6  198.64   21.85
  -6  15  -6  227.69   23.48
  15  -6  -6  144.57   40.76
  -6  15  -7   38.70   17.35
   6 -15  -7   11.84   37.90
  -6  15  -7   26.30   31.20
 -15   6  -7   21.11   15.54
  15  -6  -7    5.56   28.12
  -6  15  -8    0.74   15.62
   6 -15  -8   19.19   36.31
  -6  15  -8    1.13   30.04
 -15   6  -8   10.70   14.52
  15  -6  -8  -10.87   28.35
 -15   6  -9  378.51   26.72
  -6  15  -9  317.60   50.24
  -6  15  -9  317.83   28.68
 -15   6 -10  414.34   26.67
  -6  15 -10  379.94   55.64
  -6  15 -10  421.60   31.09
 -15   6 -11  240.64   22.61
  -6  15 -11  271.35   47.26
  -6  15 -11  214.96   24.54
 -15   6 -12  218.87   19.40
   6 -15 -12  182.36   71.86
  -6  15 -12  126.50   43.14
  -6  15 -12  198.87   24.03
 -15   6 -13   95.26   14.10
   6 -15 -13   95.31   54.74
  -6  15 -13  152.58   42.82
   6 -15 -14   65.48   44.97
  -6  15 -14   16.45   29.96
   6 -15 -15   50.06   36.99
  -6  15 -15   34.48   28.89
   6 -15 -16   95.33   31.04
  -6  15 -16   81.24   28.38
  -7 -15 -17   -0.77   24.07
  -7 -15 -16   13.68   33.24
  -7 -15 -15   25.31   43.08
  -7 -15 -14   65.79   56.01
  -7  15   3   -2.25   17.61
  15  -7   2   38.91   30.28
 -15   7   2   62.68   15.33
  -7  15   2   92.49   20.83
 -15   7   1  804.77   33.48
  15  -7   1  680.43   71.86
  -7  15   1  758.87   36.06
  15  -7   0  262.27   47.63
 -15   7   0  330.07   23.86
  -7  15   0  258.78   25.70
  15  -7  -1  620.33   72.54
   7 -15  -1  687.70   83.54
 -15   7  -1  770.04   34.11
  -7  15  -1  769.22   35.61
  15  -7  -2   62.74   31.97
  -7  15  -2   46.12   16.75
   7 -15  -2  117.29   51.32
  -7  15  -2   71.29   34.75
 -15   7  -2   71.96   17.43
  15  -7  -3   -7.02   31.36
  -7  15  -3   15.04   15.32
   7 -15  -3   29.08   42.36
 -15   7  -3    4.49   14.65
  -7  15  -4   53.48   17.33
   7 -15  -4   29.39   42.25
  -7  15  -4    7.98   29.87
 -15   7  -4   31.74   15.76
  15  -7  -4   -6.48   32.46
   7 -15  -5   94.44   49.83
 -15   7  -5  156.32   20.07
  -7  15  -5  106.96   37.41
  15  -7  -5  113.09   38.66
  -7  15  -5  142.27   20.60
  -7  15  -6    4.64   15.25
   7 -15  -6   11.46   41.18
  -7  15  -6   -5.08   29.67
 -15   7  -6    6.53   14.54
  15  -7  -6   -9.90   28.70
  -7  15  -7   18.40   16.87
   7 -15  -7   -0.26   38.38
  -7  15  -7   -1.22   30.49
  15  -7  -7   -5.97   36.16
  -7  15  -8   91.90   19.35
 -15   7  -8   81.60   18.08
   7 -15  -8   22.48   39.35
  -7  15  -8   42.73   35.77
  15  -7  -8   17.26   31.31
 -15   7  -9  545.65   30.53
  -7  15  -9  557.51   33.78
  -7  15 -10   96.50   19.40
 -15   7 -10  126.88   18.50
  -7  15 -10   95.43   36.71
 -15   7 -11  509.80   28.48
  -7  15 -11  518.45   32.26
  -7  15 -12   82.23   17.87
 -15   7 -12   96.82   15.29
   7 -15 -12   82.68   52.37
  -7  15 -12   65.88   36.05
   7 -15 -13  -13.14   41.44
 -15   7 -13   32.60   11.67
  -7  15 -13   12.76   28.83
   7 -15 -14   -4.14   34.20
  -7  15 -14   43.58   31.06
  -7  15 -15   24.12   28.11
  -7  15 -16  -10.68   25.04
  -8 -15 -16   22.83   30.39
  -8 -15 -15   34.10   39.67
  -8 -15 -14   -8.81   47.38
  -8 -15 -13   11.92   58.87
  -8  15   3    1.34   16.20
 -15   8   2  245.85   21.35
  -8  15   2  263.04   24.50
  -8  15   1   33.81   16.18
  15  -8   1   15.62   30.47
 -15   8   1   70.95   16.77
  15  -8   0 1186.56   95.53
 -15   8   0 1279.33   42.59
  -8  15   0 1302.71   44.81
  15  -8  -1   34.70   31.78
  -8  15  -1   17.49   15.59
   8 -15  -1   60.81   45.21
 -15   8  -1   44.03   15.95
  -8  15  -2  267.28   24.45
  15  -8  -2  199.85   48.97
  -8  15  -2  235.02   43.14
 -15   8  -2  265.71   23.12
   8 -15  -2  245.45   60.37
  -8  15  -3   12.97   15.40
  -8  15  -3   15.42   30.20
   8 -15  -3   -5.73   41.37
 -15   8  -3   -2.04   14.46
  15  -8  -3   -2.43   32.74
  -8  15  -4   -8.51   15.39
  -8  15  -4   -0.92   28.98
   8 -15  -4   62.12   47.49
 -15   8  -4   -0.30   14.62
  15  -8  -4    5.39   30.25
  -8  15  -5   34.06   16.50
   8 -15  -5   45.33   45.44
  -8  15  -5   39.53   31.14
 -15   8  -5   59.23   16.88
  15  -8  -5   33.73   33.09
  -8  15  -6   34.43   31.13
 -15   8  -6   24.14   14.99
  15  -8  -6   46.05   34.32
  -8  15  -7   64.39   18.43
  -8  15  -7   15.00   30.67
   8 -15  -7   86.53   50.41
 -15   8  -7   56.68   16.56
  15  -8  -7   49.09   37.94
 -15   8  -8  286.91   24.47
  -8  15  -8  299.52   47.39
  -8  15  -8  334.45   27.47
  -8  15  -9   -1.37   15.32
 -15   8  -9    8.00   13.91
  -8  15  -9   -1.70   30.08
 -15   8 -10  854.16   35.25
  -8  15 -10  885.36   40.10
  -8  15 -11   -9.01   14.92
 -15   8 -11   17.54   13.00
  -8  15 -11  -22.26   31.11
 -15   8 -12  267.16   20.77
  -8  15 -12  303.00   47.37
  -8  15 -12  300.86   24.60
 -15   8 -13   12.49   11.16
  -8  15 -13   20.29   28.35
  -8  15 -14   15.68   27.76
  -8  15 -15    6.37   24.64
  -8  15 -16   52.41   26.66
  -8  15 -17    3.17   19.11
 -15   8 -17   13.16   17.56
  -9 -15 -16   -3.51   23.35
  -9 -15 -15    4.37   33.58
  -9 -15 -14   11.28   41.69
  -9 -15 -13   34.60   52.32
  -9  15   3   90.56   19.78
  -9  15   2   -6.88   15.90
 -15   9   2   -2.22   12.87
 -15   9   1  674.60   31.65
  -9  15   1  673.41   33.15
  -9  15   0  -11.56   15.65
  15  -9   0  -24.59   37.14
 -15   9   0    8.31   14.06
  -9  15  -1  693.18   34.50
  15  -9  -1  535.54   71.12
   9 -15  -1  577.43   77.74
 -15   9  -1  688.87   32.93
  -9  15  -2   -0.32   15.36
 -15   9  -2    1.71   14.77
   9 -15  -2    6.00   39.03
  15  -9  -2   56.78   38.83
  -9  15  -3   72.76   18.56
  -9  15  -3   42.96   33.07
 -15   9  -3   91.39   18.01
   9 -15  -3   58.66   47.18
  15  -9  -3   64.61   40.06
  -9  15  -4   28.36   16.68
  -9  15  -4   -1.82   28.80
 -15   9  -4   25.89   15.57
  15  -9  -4   10.56   30.95
  -9  15  -5   29.75   16.54
  -9  15  -5   23.17   31.21
 -15   9  -5   49.46   16.43
  15  -9  -5   27.73   30.77
   9 -15  -5   20.15   45.39
  -9  15  -6   31.13   16.21
  -9  15  -6   39.51   32.34
 -15   9  -6   26.09   15.19
  15  -9  -6   12.21   31.65
   9 -15  -6   34.26   47.35
  -9  15  -7  156.42   21.87
 -15   9  -7  113.90   20.08
  -9  15  -7  109.96   36.25
  -9  15  -8   -8.74   16.10
 -15   9  -8   22.01   14.40
  -9  15  -8   -2.71   27.14
 -15   9  -9  729.33   33.48
  -9  15  -9  634.99   61.92
  -9  15  -9  732.86   36.30
  -9  15 -10    1.10   14.41
 -15   9 -10   17.25   13.48
  -9  15 -10   13.42   27.14
 -15   9 -11  649.13   30.81
  -9  15 -11  640.46   62.96
  -9  15 -11  676.09   33.87
  -9  15 -12   -3.27   13.58
 -15   9 -12    8.96   11.87
  -9  15 -12   -4.07   27.20
 -15   9 -13   39.97   12.11
  -9  15 -13   34.06   29.11
  -9  15 -14   10.82   25.23
  -9  15 -15   26.62   25.93
  -9  15 -16  -15.37   21.88
 -15   9 -16   -4.88   17.94
 -15   9 -17   -2.48   15.76
 -10 -15 -15   23.25   26.38
 -10 -15 -14   47.51   36.39
 -10 -15 -13   54.37   44.60
 -10  15   3   -6.90   15.84
 -15  10   2  138.95   18.91
 -10  15   2  163.42   21.54
 -10  15   1   11.73   15.25
 -15  10   1   11.33   14.43
 -10  15   0  293.64   25.17
  15 -10   0  231.16   53.20
 -15  10   0  282.33   23.26
  10 -15  -1   -7.87   39.40
  15 -10  -1    3.24   30.52
 -10  15  -1   29.66   16.15
 -15  10  -1   14.01   15.12
 -10  15  -2  128.47   20.71
 -15  10  -2  161.78   20.38
  15 -10  -2  102.76   42.71
  10 -15  -2  128.89   51.17
 -10  15  -3   -6.88   15.07
 -10  15  -3  -13.00   29.89
 -15  10  -3   10.62   14.84
  15 -10  -3   -4.71   34.50
  10 -15  -3  -31.30   42.93
 -10  15  -4   58.79   18.15
 -15  10  -4   51.27   16.64
 -10  15  -4   26.17   29.95
  15 -10  -4   19.95   35.85
  10 -15  -4   62.24   46.31
 -10  15  -5   44.62   16.94
 -15  10  -5   14.62   15.62
 -10  15  -5   -0.99   29.33
  15 -10  -5    8.59   31.91
  10 -15  -5   19.70   43.10
 -10  15  -6  150.38   22.17
 -15  10  -6  124.20   20.36
 -10  15  -6   78.61   36.29
 -10  15  -7   -8.78   15.92
 -15  10  -7    2.90   14.01
 -10  15  -8  283.42   25.65
 -15  10  -8  278.31   23.98
 -10  15  -8  286.49   42.95
 -10  15  -9   28.32   15.66
 -15  10  -9   28.68   14.60
 -10  15  -9    7.89   26.77
 -15  10 -10  570.87   30.03
 -10  15 -10  578.26   56.51
 -10  15 -10  579.28   31.96
 -10  15 -11  -12.68   14.36
 -15  10 -11   21.88   13.08
 -10  15 -11  -26.43   30.87
 -10  15 -12   74.86   15.58
 -15  10 -12   70.05   13.54
 -10  15 -12  102.18   31.60
 -10  15 -13   -8.09   11.99
 -15  10 -13    2.79    9.96
 -10  15 -13  -19.33   26.87
 -10  15 -14    3.05   23.89
 -10  15 -15   15.80   24.00
 -15  10 -15   11.01   19.88
 -15  10 -16   36.13   18.93
 -10  15 -16   26.59   22.49
 -11 -15 -14   25.88   28.00
 -11 -15 -13   -7.34   35.93
 -11 -15 -12   37.16   48.13
 -11  15   2   -7.94   15.26
 -15  11   2   10.34   14.37
 -11  15   1   31.80   15.93
 -15  11   1   35.38   14.13
 -11  15   0  143.41   21.32
 -15  11   0  159.62   21.23
  15 -11  -1   29.98   31.85
 -11  15  -1   29.14   16.07
 -15  11  -1   36.56   15.68
  11 -15  -2  -10.90   37.36
 -11  15  -2   -3.16   15.49
 -15  11  -2   -0.07   14.16
 -11  15  -3   25.78   16.08
 -15  11  -3   39.54   16.48
  11 -15  -4   71.35   45.00
 -15  11  -4  132.11   19.44
 -11  15  -4  101.16   19.27
 -11  15  -4   86.83   33.84
  15 -11  -4   93.51   43.04
 -11  15  -5  120.41   21.29
 -15  11  -5  150.45   20.69
 -11  15  -6  346.19   27.02
 -15  11  -6  317.07   25.32
 -11  15  -7   63.80   17.36
 -11  15  -7    8.65   27.64
 -11  15  -8   23.29   15.03
 -15  11  -8   37.82   15.04
 -11  15  -8   24.00   27.40
 -15  11  -9  150.65   19.22
 -11  15  -9  105.99   32.77
 -11  15  -9  117.99   19.03
 -11  15 -10    4.64   13.97
 -15  11 -10   14.14   13.11
 -11  15 -10    1.09   25.02
 -11  15 -11   36.90   14.16
 -15  11 -11   64.45   14.88
 -11  15 -11   32.09   27.42
 -11  15 -12   27.55   12.97
 -15  11 -12   31.81   12.26
 -11  15 -13   -8.85   11.40
 -15  11 -13    5.00    9.70
 -11  15 -13   -3.74   23.27
 -11  15 -14   19.97   23.81
 -15  11 -14   30.62   21.59
 -11  15 -15   30.51   24.07
 -15  11 -15   41.90   21.84
 -11  15 -16   73.16   23.85
 -15  11 -16   57.64   21.66
 -12  15   2   49.35   16.53
 -15  12   2   24.40   15.34
 -15  12   1  122.67   18.69
 -12  15   1   95.12   18.46
 -12  15   0   30.07   15.57
 -15  12   0   34.13   15.32
 -12  15  -1  123.42   20.16
 -15  12  -1  130.62   19.94
  12 -15  -2   21.04   42.86
 -12  15  -2   40.38   16.96
 -15  12  -2   39.95   16.14
  15 -12  -2    3.61   34.28
  12 -15  -3   51.39   40.24
 -15  12  -3  111.94   19.54
 -12  15  -3   84.63   18.70
  15 -12  -3   14.18   33.83
 -12  15  -4   12.89   15.65
 -15  12  -4   41.89   16.53
 -12  15  -5  920.70   39.81
 -15  12  -5  996.80   40.06
 -12  15  -5  898.49   62.03
 -12  15  -6  -32.78   17.58
 -15  12  -6   11.51   14.19
 -12  15  -6   -7.53   26.83
 -12  15  -7  398.79   28.00
 -15  12  -7  365.08   27.30
 -12  15  -7  413.75   43.96
 -12  15  -8    2.93   14.52
 -15  12  -8   15.75   14.55
 -12  15  -8  -13.23   25.62
 -12  15  -9  -14.70   15.18
 -15  12  -9    4.21   12.80
 -12  15  -9   -9.75   25.41
 -12  15 -10  -10.75   13.90
 -15  12 -10   -4.33   12.30
 -12  15 -10  -26.25   26.71
 -12  15 -11   75.75   15.70
 -15  12 -11   51.78   13.79
 -12  15 -11   43.15   26.63
 -12  15 -12   21.68   12.70
 -15  12 -12   14.59   10.78
 -12  15 -12   20.06   24.13
 -15  12 -12   21.14   22.98
 -12  15 -13    2.99   10.60
 -15  12 -13   21.18   10.19
 -12  15 -13    5.23   22.79
 -15  12 -13    6.01   20.02
 -12  15 -14   27.44   23.61
 -15  12 -14   38.45   21.71
 -12  15 -15  187.78   31.55
 -15  12 -15  127.93   27.44
 -13  15   2    2.68   14.73
 -15  13   2   17.27   14.57
 -13  15   1   64.12   17.03
 -15  13   1   84.58   17.44
 -15  13   0  103.03   19.19
 -13  15   0   88.27   18.06
 -15  13  -1   74.51   18.98
 -13  15  -1   66.56   18.20
 -13  15  -2  -13.97   16.10
 -15  13  -2   -4.79   15.20
 -13  15  -3   42.12   16.81
 -15  13  -3   47.33   16.80
 -13  15  -4  926.05   40.29
 -15  13  -4  998.38   40.96
 -13  15  -5  -38.67   17.54
 -15  13  -5   -8.59   15.23
 -15  13  -5  -21.93   26.67
 -13  15  -6 1070.67   42.30
 -15  13  -6 1087.93   41.76
 -13  15  -6  967.41   63.68
 -15  13  -6 1016.09   60.84
 -13  15  -7  -11.15   15.21
 -15  13  -7  -12.55   14.49
 -13  15  -7   -6.15   25.29
 -15  13  -7  -19.35   22.57
 -13  15  -8  123.99   18.84
 -15  13  -8  131.96   19.12
 -13  15  -8  133.43   33.36
 -15  13  -8  130.62   30.25
 -13  15  -9   35.29   15.30
 -15  13  -9   37.23   14.61
 -13  15  -9   20.07   24.19
 -15  13  -9    8.39   22.62
 -13  15 -10   85.62   16.21
 -15  13 -10   68.82   15.00
 -15  13 -10   61.96   27.59
 -13  15 -11   17.19   12.27
 -15  13 -11   34.50   12.55
 -13  15 -11   47.06   25.26
 -15  13 -11   17.17   23.25
 -13  15 -12   -5.70   11.76
 -15  13 -12   12.05   11.09
 -13  15 -12    5.14   22.17
 -15  13 -12    0.46   20.03
 -13  15 -13   19.26   10.44
 -15  13 -13   43.73   11.24
 -13  15 -13   30.13   23.72
 -15  13 -13   30.02   21.34
 -15  13 -14  165.94   29.01
 -13  15 -14  133.49   27.89
 -13  15 -15   -9.85   19.89
 -15  13 -15    8.88   18.46
 -14  15   2   22.75   15.47
 -15  14   2   45.93   16.10
 -14  15   1   60.15   16.57
 -15  14   1   57.65   16.20
 -14  15   0   47.20   17.07
 -15  14   0   63.72   16.75
 -14  15  -1   65.22   17.65
 -15  14  -1   71.65   17.32
 -14  15  -2   48.53   17.48
 -15  14  -2   40.48   17.08
 -14  15  -3  209.08   22.65
 -15  14  -3  252.82   24.27
 -14  15  -4  -16.10   16.48
 -15  14  -4   -8.24   15.77
 -14  15  -5 1007.54   40.64
 -15  14  -5  960.50   40.01
 -14  15  -6  -27.48   15.81
 -15  14  -6  -31.54   15.97
 -14  15  -6  -33.63   29.33
 -15  14  -6  -30.55   26.03
 -14  15  -7  473.74   29.66
 -15  14  -7  475.94   29.07
 -14  15  -7  438.17   45.68
 -15  14  -7  386.29   43.53
 -14  15  -8   37.60   14.87
 -15  14  -8   35.74   15.37
 -14  15  -8    3.39   24.04
 -15  14  -8    2.56   22.48
 -14  15  -9   19.35   13.37
 -15  14  -9   32.33   14.06
 -14  15  -9   68.07   28.24
 -15  14  -9   30.37   25.18
 -14  15 -10   25.89   13.20
 -15  14 -10   21.50   13.24
 -14  15 -10   28.08   24.30
 -15  14 -10   21.12   23.04
 -14  15 -11   66.13   14.05
 -15  14 -11   65.12   13.46
 -14  15 -11   56.13   25.97
 -15  14 -11   39.96   25.50
 -14  15 -12   20.75   11.50
 -15  14 -12   29.21   11.98
 -14  15 -12   26.02   22.59
 -15  14 -12   16.91   20.89
 -14  15 -13   21.39   10.20
 -15  14 -13   19.52    9.78
 -14  15 -13   14.74   20.49
 -15  14 -13   25.16   20.51
 -14  15 -14    6.87   19.02
 -15  14 -14    6.77   18.39
 -15  15   2  350.44   28.63
 -15  15   1  -24.29   14.64
 -15  15   0  104.82   17.72
 -15  15  -1   -9.07   14.70
 -15  15  -2   21.07   14.69
 -15  15  -3  -19.38   15.63
 -15  15  -4  477.70   29.73
 -15  15  -5  -19.70   15.08
 -15  15  -6  512.46   30.09
 -15  15  -6  488.24   47.10
 -15  15  -7  -12.35   13.85
 -15  15  -7  -28.08   27.15
 -15  15  -8   -1.78   12.76
 -15  15  -8   -4.42   23.93
 -15  15  -9    4.41   12.15
 -15  15  -9   -3.54   22.40
 -15  15 -10  114.85   29.61
 -15  15 -10  140.91   17.21
 -15  15 -11    9.39   11.06
 -15  15 -11   -7.78   21.63
 -15  15 -12   -9.44   10.41
 -15  15 -12   18.10   20.79
 -15  15 -13   10.56   19.35
  16   0   0 1032.20   85.51
   0  16   0 1151.33   57.22
  16   0  -1   47.86   31.54
  16   0   1   69.34   34.22
   0  16   1  121.90   33.46
   0  16  -1   87.64   28.86
  16   0  -2  109.08   35.12
  16   0   2   91.93   33.39
   0  16   2  145.46   34.03
   0  16  -2  114.45   27.81
  16   0  -3  233.02   45.28
   0  16  -3  218.50   31.39
  16   0  -4   10.23   23.52
   0  16  -4   62.94   25.53
  16   0  -5  335.22   52.72
   0  16  -5  322.97   33.60
  16   0  -6   92.01   34.25
   0  16  -6  133.41   27.57
   0  16  -7  209.17   30.14
  16   0  -7  170.93   42.89
 -16   0  -7  191.18   29.49
 -16   0  -8  143.98   26.69
  16   0  -8  119.19   36.16
   0  16  -8  144.88   28.06
  16   0  -9    4.35   25.36
   0  16  -9   72.08   27.60
   0  16 -10  503.85   39.31
 -16   0 -10  529.11   33.73
 -16   0 -11  131.38   21.48
 -16   0 -12  177.65   20.18
   0 -16 -14   43.24   88.07
   0 -16 -15  259.94   76.12
   0 -16 -16   16.39   50.63
   0 -16 -17  211.12   45.67
  -1 -16 -17  -42.09   38.82
  -1 -16 -16  228.52   58.77
  -1 -16 -15  206.46   75.82
  -1 -16 -14   84.13   87.61
 -16  -1 -12   94.69   18.06
 -16  -1 -11  300.19   26.24
  16   1  -9  221.73   45.70
   1  16  -9  327.89   35.23
 -16  -1  -9  326.29   32.31
  16   1  -8   39.58   27.28
 -16  -1  -8   68.85   27.06
   1  16  -8   59.54   26.60
   1  16  -7   29.67   25.17
  16   1  -7    1.30   23.07
  16   1  -6  188.07   42.44
   1  16  -6  227.62   32.17
  16   1  -5   89.94   33.20
   1  16  -5   72.85   27.48
  16   1  -4  140.63   38.96
   1  16  -4  264.86   35.38
  16   1  -3   -2.45   24.70
  -1  16   3   51.89   32.90
   1  16  -3   -5.39   24.88
  16   1  -2   69.79   30.97
  -1  16   2  113.09   33.00
   1  16  -2   93.24   29.98
  16  -1   2   80.09   34.31
  16  -1   1  446.65   60.82
   1  16  -1  565.29   43.92
  16   1  -1  504.36   64.25
  -1  16   1  502.86   40.84
  16  -1   0  115.81   38.62
  16   1   0  112.67   38.36
  -1  16   0  218.07   38.12
   1  16   0  160.11   34.57
  16  -1  -1  454.47   58.92
  16   1   1  504.92   64.30
   1  16   1  584.58   46.34
  -1  16  -1  485.10   37.75
  16  -1  -2   53.92   30.19
  -1  16  -2   86.99   24.53
  16  -1  -3   -1.64   24.77
  -1  16  -3   50.66   24.75
  16  -1  -4  142.23   39.56
  -1  16  -4  215.09   27.65
 -16   1  -5  132.27   27.31
  16  -1  -5   74.01   32.96
  -1  16  -5  134.00   25.54
  16  -1  -6  173.22   43.40
  -1  16  -6  222.29   28.25
 -16   1  -6  259.69   31.33
 -16   1  -7   18.41   22.59
  16  -1  -7   33.56   31.94
  -1  16  -7   13.45   37.50
  -1  16  -7   22.64   20.77
 -16   1  -8   29.70   18.48
  16  -1  -8   24.60   28.30
  -1  16  -8   32.54   37.85
  -1  16  -8   83.22   25.04
  -1  16  -9  292.46   59.36
  -1  16  -9  355.50   33.71
  16  -1  -9  228.68   45.13
 -16   1  -9  330.70   29.15
  -1  16 -10   97.22   30.40
 -16   1 -10  176.05   25.00
 -16   1 -11  316.27   24.94
  -1  16 -11  276.16   32.59
 -16   1 -12   89.40   16.84
   1 -16 -14   28.85   88.01
   1 -16 -15   95.77   69.35
   1 -16 -16  172.19   57.20
   1 -16 -17    1.35   36.30
  -2 -16 -17   35.67   37.36
  -2 -16 -16  136.47   52.52
  -2 -16 -15   17.65   64.23
  -2 -16 -14  176.33   89.91
 -16  -2 -12   25.70   16.50
 -16  -2 -11  160.97   23.10
 -16  -2 -10  297.72   30.81
 -16  -2  -9   77.34   27.37
  16   2  -9  -27.57   30.62
  16   2  -8   24.91   23.55
  16   2  -7   24.87   24.65
   2  16  -7   61.76   27.16
  16   2  -6  108.37   35.77
   2  16  -6   65.36   27.86
  16   2  -5   70.25   31.49
   2  16  -5   83.61   30.58
  16   2  -4  124.23   35.31
  -2  16   4  219.52   36.47
   2  16  -4  150.90   31.66
  16  -2   3   90.01   43.38
   2  16  -3  118.58   32.41
  16   2  -3   80.24   34.37
  -2  16   3   85.43   31.78
 -16   2   2    9.97   19.35
  16  -2   2   42.81   32.06
  16   2  -2    6.33   26.16
   2  16  -2   44.40   29.93
  -2  16   2  -11.39   25.53
  16  -2   1  168.12   41.51
  -2  16   1  186.82   32.94
   2  16  -1  160.25   34.68
  16   2  -1  138.80   40.82
 -16   2   1  159.16   26.23
  16  -2   0   92.22   34.02
 -16   2   0  107.35   24.96
  -2  16   0  121.74   26.29
  16   2   0  109.43   36.25
 -16   2  -1  162.24   28.27
  16  -2  -1  172.95   43.87
  -2  16  -1  186.87   27.93
 -16   2  -2   19.91   22.55
  16  -2  -2  -11.71   26.37
  -2  16  -2    4.47   19.22
 -16   2  -3  102.76   24.63
  16  -2  -3   88.14   36.26
  -2  16  -3  100.90   23.31
  16  -2  -4  169.05   43.04
  -2  16  -4  143.54   47.02
  -2  16  -4  191.59   25.66
 -16   2  -4  180.37   27.96
  16  -2  -5   43.92   29.04
  -2  16  -5   20.00   40.65
  -2  16  -5   62.69   20.87
  16  -2  -6  134.69   38.97
  -2  16  -6  131.89   46.57
  -2  16  -6  134.13   24.73
 -16   2  -6  157.06   25.74
  16  -2  -7   38.09   26.75
  -2  16  -7   20.34   40.23
  -2  16  -7   57.35   20.88
 -16   2  -8   17.84   18.13
  16  -2  -8   -4.13   25.16
  -2  16  -8   40.54   38.72
  -2  16  -8   37.55   20.78
 -16   2  -9   46.89   19.30
  -2  16  -9  -13.15   35.75
  -2  16  -9   42.59   23.32
 -16   2 -10  348.32   26.98
  -2  16 -10  460.93   36.69
 -16   2 -11  174.48   21.91
  -2  16 -11  197.77   29.49
  -2  16 -12  -12.17   33.96
 -16   2 -12   51.69   14.83
   2 -16 -13   66.16  106.04
  -2  16 -13   29.65   34.40
   2 -16 -14  224.87   89.02
   2 -16 -15  -26.24   61.30
   2 -16 -16  156.30   51.43
   2 -16 -17   43.80   36.65
  -3 -16 -17   -8.08   33.52
  -3 -16 -16    4.71   45.88
  -3 -16 -15  174.40   66.66
  -3 -16 -14   62.96   77.25
 -16  -3 -12  101.19   19.57
 -16  -3 -11    0.00   17.85
 -16  -3  -9   57.59   27.46
  16   3  -8   -9.51   23.52
  16   3  -7   50.86   29.84
  16   3  -6   -4.17   25.13
  16   3  -5  151.83   39.40
  16   3  -4   12.24   27.02
  -3  16   4   62.26   30.12
  16  -3   3  221.81   47.09
  16   3  -3  138.59   38.11
  -3  16   3  250.77   35.68
 -16   3   2   77.26   19.91
  16   3  -2   56.06   31.52
  16  -3   2   85.59   37.59
  -3  16   2  107.16   27.45
 -16   3   1   52.04   21.17
  16  -3   1   25.46   26.20
  16   3  -1   21.88   26.70
  -3  16   1   34.42   22.33
  -3  16   0  145.77   25.60
  16  -3   0  141.74   39.26
 -16   3   0  151.12   24.88
  -3  16  -1   41.83   20.10
 -16   3  -1   52.21   22.35
  16  -3  -1   40.19   32.08
  -3  16  -2   96.85   21.59
  16  -3  -2   70.81   31.00
 -16   3  -2  115.15   25.09
  16  -3  -3  190.09   43.20
  -3  16  -3  154.63   48.28
  -3  16  -3  234.43   26.22
 -16   3  -3  278.48   28.51
  -3  16  -4   12.47   18.13
 -16   3  -4   42.15   21.58
  -3  16  -4   13.68   37.36
  16  -3  -4   38.57   29.74
  -3  16  -5  118.97   48.01
  -3  16  -5  210.02   25.58
  16  -3  -5  163.18   41.85
  -3  16  -6    9.73   18.36
 -16   3  -6    4.59   17.88
  -3  16  -6    9.92   36.08
  16  -3  -6    1.75   25.60
  -3  16  -7   65.18   20.75
 -16   3  -7   69.95   20.84
  -3  16  -7   19.39   38.64
  16  -3  -7   18.13   28.88
 -16   3  -8    0.45   16.28
  -3  16  -8   17.80   35.95
  16  -3  -8   -3.58   25.71
  -3  16  -8   15.77   18.68
  -3  16  -9  155.12   43.63
 -16   3  -9  111.06   20.10
  -3  16  -9  107.24   22.90
  -3  16 -10   77.23   44.91
 -16   3 -10  171.08   21.52
  -3  16 -11   17.98   37.29
 -16   3 -11   40.05   15.11
  -3  16 -11   55.24   22.70
 -16   3 -12   92.19   16.51
  -3  16 -12   49.84   39.08
   3 -16 -13  265.66  102.47
  -3  16 -13  105.79   40.41
   3 -16 -14  -45.02   72.75
  -3  16 -14   -8.16   33.02
   3 -16 -15  213.39   63.00
   3 -16 -16   -7.01   41.10
   3 -16 -17   71.48   32.92
  -4 -16 -17   -0.88   30.72
  -4 -16 -16   65.16   45.44
  -4 -16 -15  138.50   60.38
  -4 -16 -14  241.28   79.61
 -16  -4 -11   70.41   22.79
 -16  -4 -10  117.02   27.66
  16   4  -8    2.32   25.07
  16   4  -7   14.15   26.91
  16   4  -6   55.45   28.71
  16   4  -5  142.51   39.93
  16   4  -4  139.25   38.64
  -4  16   4  181.26   31.88
  16  -4   3  133.79   36.67
  16   4  -3   99.92   33.93
  -4  16   3  224.59   31.96
  16  -4   2  306.87   55.16
  -4  16   2  352.90   32.37
 -16   4   2  324.41   25.24
 -16   4   1   17.91   17.85
  16  -4   1   40.15   29.90
  -4  16   1    9.21   19.43
  -4  16   0  244.85   26.93
  16  -4   0  209.49   46.03
  -4  16  -1   38.44   19.54
  16  -4  -1   17.86   28.05
  16  -4  -2  270.39   49.92
  -4  16  -2  351.29   28.78
  -4  16  -3   68.86   41.99
  16  -4  -3  120.36   37.63
  -4  16  -3  142.42   22.26
 -16   4  -3  159.32   23.03
  -4  16  -4  165.67   45.14
  16  -4  -4  182.48   44.00
  -4  16  -4  187.36   23.61
 -16   4  -4  232.85   25.29
  -4  16  -5   69.51   44.38
  16  -4  -5  159.65   43.61
 -16   4  -5  178.11   23.45
  -4  16  -5  172.86   23.93
 -16   4  -6   98.96   19.92
  16  -4  -6   71.53   33.74
  -4  16  -6   48.18   39.14
  -4  16  -6  105.11   21.05
  -4  16  -7   24.82   18.00
  16  -4  -7   20.08   26.83
  -4  16  -7    3.29   35.08
 -16   4  -7   62.66   22.09
  -4  16  -8   21.07   18.29
  16  -4  -8    5.04   28.04
  -4  16  -8    4.40   35.53
 -16   4  -8    9.23   16.05
  -4  16  -9   85.86   43.83
 -16   4  -9  115.96   19.98
  -4  16  -9  125.53   22.90
 -16   4 -10  131.89   19.41
  -4  16 -10   83.58   40.49
  -4  16 -10   92.09   22.82
  -4  16 -11   20.06   36.70
 -16   4 -11   40.98   14.84
  -4  16 -11   40.95   19.33
 -16   4 -12  199.28   20.71
  -4  16 -12  227.94   48.96
   4 -16 -13   41.31   74.72
 -16   4 -13   63.33   13.12
  -4  16 -13   17.09   32.17
   4 -16 -14  222.02   70.64
  -4  16 -14   73.37   39.85
   4 -16 -15   88.02   49.02
   4 -16 -16   41.06   36.56
   4 -16 -17   21.99   26.08
  -5 -16 -17   -4.74   27.39
  -5 -16 -16   96.58   41.04
  -5 -16 -15    3.20   49.73
  -5 -16 -14   99.38   68.50
 -16  -5 -11  298.72   31.94
  16  -5   3  117.05   37.80
  -5  16   3  181.84   28.08
 -16   5   2   12.20   14.79
  16  -5   2    4.88   27.14
  -5  16   2   14.99   22.51
 -16   5   1  334.78   26.15
  -5  16   1  271.49   27.96
  16  -5   1  250.89   49.01
  16  -5   0   95.33   38.19
 -16   5   0  149.78   21.73
  -5  16   0  126.21   23.49
  16  -5  -1  222.51   47.80
 -16   5  -1  309.04   25.88
  -5  16  -1  259.08   27.16
 -16   5  -2   15.35   17.45
  -5  16  -2    5.86   17.08
  -5  16  -2   56.20   42.08
  16  -5  -2   22.62   29.28
  -5  16  -3  106.16   40.55
  16  -5  -3  139.81   40.56
 -16   5  -3  179.13   22.64
  -5  16  -3  182.29   22.65
  16  -5  -4  212.88   48.29
 -16   5  -4  292.67   25.82
  -5  16  -4  284.26   26.23
 -16   5  -5   53.71   17.66
  -5  16  -5   22.64   18.08
  16  -5  -5   35.02   32.05
  -5  16  -5   25.90   38.17
  16  -5  -6   82.53   37.75
  -5  16  -6  111.26   39.99
 -16   5  -6  144.50   21.33
  -5  16  -6  164.46   22.78
  -5  16  -7   18.05   17.27
  16  -5  -7    8.80   27.06
   5 -16  -7   11.26   37.30
  -5  16  -7   43.77   36.02
 -16   5  -7    2.53   15.40
  -5  16  -8   59.76   19.87
  -5  16  -8   52.07   38.77
 -16   5  -8   38.97   15.87
 -16   5  -9  155.72   20.62
  -5  16  -9  106.24   40.52
  -5  16  -9  128.51   23.45
  -5  16 -10   17.71   18.11
  -5  16 -10   60.01   39.36
 -16   5 -10   38.24   15.40
 -16   5 -11  279.41   23.70
  -5  16 -11  291.49   52.00
  -5  16 -11  199.71   26.18
  -5  16 -12   32.29   37.11
 -16   5 -12   61.29   14.64
  -5  16 -12   35.11   20.55
 -16   5 -13  139.96   16.13
   5 -16 -13  165.80   68.98
  -5  16 -13  130.07   42.00
   5 -16 -14   73.89   52.22
  -5  16 -14   53.13   35.39
   5 -16 -15   32.65   40.01
  -5  16 -15   22.19   30.48
   5 -16 -16   80.79   31.36
  -6 -16 -17   12.94   24.04
  -6 -16 -16  -25.34   35.13
  -6 -16 -15  143.29   49.44
  -6 -16 -14   47.55   56.60
 -16  -6 -11   84.47   25.28
  -6  16   3   80.17   23.49
 -16   6   2  140.09   18.51
  -6  16   2  149.70   25.09
  16  -6   2   92.10   40.35
  -6  16   1  105.34   21.95
  16  -6   1   96.34   36.35
 -16   6   1  118.87   19.14
  16  -6   0  320.79   55.88
 -16   6   0  372.67   26.23
  -6  16   0  305.94   28.51
   6 -16  -1   70.61   46.72
 -16   6  -1  127.96   19.99
  16  -6  -1   74.68   36.77
  -6  16  -1  118.31   21.49
   6 -16  -2   75.52   55.02
  -6  16  -2  123.48   42.41
  16  -6  -2   90.09   39.38
 -16   6  -2  127.74   20.65
  -6  16  -2  112.46   20.89
  -6  16  -3   53.70   18.93
  16  -6  -3   45.00   34.60
   6 -16  -3   36.22   48.03
  -6  16  -3   18.93   34.36
 -16   6  -3   63.78   17.90
  -6  16  -4   26.40   17.65
  16  -6  -4  -14.88   33.61
   6 -16  -4   21.36   45.56
  -6  16  -4   -1.12   34.91
 -16   6  -4   32.59   17.10
  16  -6  -5  123.48   40.39
   6 -16  -5   92.32   52.67
  -6  16  -5   97.67   42.25
 -16   6  -5  189.38   21.79
  -6  16  -5  180.54   22.87
  16  -6  -6   21.98   31.15
  -6  16  -6    1.90   33.30
 -16   6  -6   13.92   15.75
  16  -6  -7   74.70   38.11
   6 -16  -7   30.16   40.30
 -16   6  -7  104.22   19.01
  -6  16  -7   57.15   39.73
  -6  16  -7   99.78   20.53
  -6  16  -8   61.66   19.91
  -6  16  -8   69.01   39.80
 -16   6  -8   78.51   17.63
  -6  16  -9   20.34   17.90
  -6  16  -9   50.51   38.03
 -16   6  -9   21.64   15.23
 -16   6 -10  187.06   22.92
  -6  16 -10  145.64   45.13
  -6  16 -10  202.30   25.61
 -16   6 -11  220.84   20.77
  -6  16 -11  128.09   42.74
  -6  16 -11  154.05   24.09
 -16   6 -12  161.18   18.24
   6 -16 -12  166.25   69.29
  -6  16 -12  170.90   44.93
  -6  16 -12  115.34   21.11
   6 -16 -13  -22.38   48.93
 -16   6 -13   48.86   12.59
  -6  16 -13    0.21   29.77
   6 -16 -14   61.54   41.51
  -6  16 -14   19.57   29.90
   6 -16 -15   35.49   29.56
  -6  16 -15   77.15   32.80
  -7 -16 -16   30.13   31.05
  -7 -16 -15   67.80   41.18
  -7 -16 -14   17.74   51.53
 -16  -7 -11  196.33   29.62
  -7  16   3   56.10   21.30
  -7  16   2   46.38   20.17
 -16   7   2   54.99   15.43
  -7  16   1   80.26   20.07
 -16   7   1  113.11   17.99
 -16   7   0  352.62   25.83
  -7  16   0  363.05   27.94
  -7  16  -1   75.40   19.58
  16  -7  -1  114.69   41.48
 -16   7  -1  103.91   17.78
  -7  16  -2   51.80   18.43
  16  -7  -2   67.58   36.29
  -7  16  -2   58.65   37.56
   7 -16  -2   18.65   43.82
 -16   7  -2   50.37   16.65
  -7  16  -3   50.14   18.11
  16  -7  -3   18.26   32.17
   7 -16  -3   34.32   46.64
  -7  16  -3    5.52   32.78
 -16   7  -3   35.87   16.30
  -7  16  -4   36.68   17.57
  16  -7  -4   -6.78   30.45
  -7  16  -4  -11.22   33.96
 -16   7  -4   51.81   17.41
  16  -7  -5   84.44   40.32
  -7  16  -5   80.41   18.94
   7 -16  -5   82.30   50.25
 -16   7  -5  100.54   18.96
  -7  16  -5   78.56   37.22
  16  -7  -6   85.44   39.32
  -7  16  -6   65.15   18.24
   7 -16  -6   82.78   49.28
  -7  16  -6   81.57   37.32
 -16   7  -6   83.85   17.47
  -7  16  -7   40.17   17.51
  -7  16  -7   44.10   37.63
 -16   7  -7   37.09   15.89
  -7  16  -8   15.27   16.94
  -7  16  -8   38.37   35.45
 -16   7  -8   29.81   15.33
  -7  16  -9   69.69   19.09
 -16   7  -9   98.90   17.96
  -7  16  -9   57.16   36.92
 -16   7 -10  298.90   23.63
  -7  16 -10  327.10   28.68
 -16   7 -11  157.88   19.27
   7 -16 -11   24.11   57.40
  -7  16 -11   60.57   37.97
  -7  16 -11  103.58   20.11
   7 -16 -12   72.83   48.83
 -16   7 -12   85.63   14.67
  -7  16 -12   52.86   35.02
  -7  16 -12   93.22   19.57
 -16   7 -13    7.01   11.58
  -7  16 -13  -10.95   31.15
  -7  16 -14   20.88   30.55
  -7  16 -15    8.88   25.62
 -16   7 -17   30.04   18.44
  -8 -16 -16    4.99   24.91
  -8 -16 -15   32.12   34.02
  -8 -16 -14  -15.80   43.01
  -8 -16 -13  -64.01   57.66
  -8  16   3   42.41   19.34
  -8  16   2   15.26   17.93
 -16   8   2    3.13   13.20
  16  -8   1  203.32   48.77
 -16   8   1  274.67   22.83
  -8  16   1  279.93   26.16
  -8  16   0    3.52   15.91
 -16   8   0    1.63   14.61
  16  -8   0  -21.33   32.69
  16  -8  -1  245.62   53.05
 -16   8  -1  272.59   23.85
  -8  16  -1  286.49   25.50
  -8  16  -2    1.46   15.69
  16  -8  -2   59.34   46.35
  -8  16  -2   -5.10   32.76
   8 -16  -2  -12.89   40.85
 -16   8  -2   -0.06   14.64
  -8  16  -3   30.98   16.82
  16  -8  -3   38.60   33.48
  -8  16  -3    1.78   32.79
   8 -16  -3   51.65   48.52
 -16   8  -3   21.02   15.44
  16  -8  -4  244.48   61.65
 -16   8  -4  136.73   19.77
  -8  16  -4  135.30   40.37
   8 -16  -4  141.51   61.31
  -8  16  -4  134.66   21.39
  16  -8  -5  -17.85   31.79
  -8  16  -5   11.41   15.94
  -8  16  -5  -27.06   34.39
   8 -16  -5   38.93   46.20
 -16   8  -5    6.63   14.67
  16  -8  -6  136.56   41.45
 -16   8  -6  173.68   20.56
  -8  16  -6  212.33   44.25
   8 -16  -6  157.53   56.17
  -8  16  -6  207.45   23.44
  -8  16  -7   16.97   16.71
  -8  16  -7   10.24   31.08
 -16   8  -7   15.41   14.90
  -8  16  -8   99.82   19.51
  -8  16  -8  115.21   37.75
 -16   8  -8   82.96   16.75
 -16   8  -9  402.68   26.52
  -8  16  -9  385.93   54.35
  -8  16  -9  397.11   29.85
  -8  16 -10   -1.43   15.26
 -16   8 -10   32.14   15.05
  -8  16 -10    9.21   29.54
 -16   8 -11  360.09   24.00
  -8  16 -11  366.18   27.67
  -8  16 -12   -1.87   15.00
 -16   8 -12   -5.59   11.28
  -8  16 -12   24.42   30.02
 -16   8 -13    3.29   10.01
  -8  16 -13  -18.60   29.67
  -8  16 -14   17.51   28.33
  -8  16 -15   44.26   27.68
  -8  16 -16   56.24   26.63
  -9 -16 -15   15.94   29.31
  -9 -16 -14  -23.37   36.92
  -9 -16 -13   41.05   47.43
  -9  16   3  221.58   29.63
 -16   9   2   92.64   16.25
  -9  16   2  107.91   20.86
  -9  16   1   19.72   16.75
 -16   9   1   15.88   13.72
  -9  16   0  104.61   20.04
 -16   9   0  110.82   18.10
  16  -9   0   88.08   39.54
  -9  16  -1   29.02   16.82
  16  -9  -1   27.42   30.67
 -16   9  -1   38.60   15.56
  -9  16  -2  101.50   19.97
  16  -9  -2   57.39   36.60
 -16   9  -2  121.25   19.23
   9 -16  -2   83.18   49.17
  16  -9  -3   28.45   33.56
  -9  16  -3   30.44   16.29
  -9  16  -3   56.03   35.38
 -16   9  -3   38.47   15.66
   9 -16  -3   30.59   53.50
  16  -9  -4  -11.07   33.85
  -9  16  -4   36.88   17.50
  -9  16  -4   19.63   32.45
 -16   9  -4   33.62   16.11
   9 -16  -4   -3.81   41.67
 -16   9  -5  187.02   20.84
  -9  16  -5  138.74   40.06
   9 -16  -5  113.94   50.12
  -9  16  -5  194.46   23.16
  16  -9  -5  145.89   46.33
  -9  16  -6   66.92   19.28
  -9  16  -6   15.28   33.22
 -16   9  -6   24.41   16.20
 -16   9  -7  144.15   19.47
  -9  16  -7   95.82   37.56
  -9  16  -7  162.93   21.90
 -16   9  -8  234.71   22.72
  -9  16  -8  217.03   23.89
  -9  16  -9    9.93   15.01
 -16   9  -9   35.20   14.45
  -9  16  -9   -2.90   29.18
 -16   9 -10  533.38   28.72
  -9  16 -10  623.48   57.71
  -9  16 -10  533.36   32.26
  -9  16 -11   -6.09   14.74
 -16   9 -11   -1.27   11.78
  -9  16 -11    9.60   27.89
  -9  16 -12   43.35   14.96
 -16   9 -12   21.43   11.76
  -9  16 -12   28.51   28.33
 -16   9 -13   23.04   10.60
  -9  16 -13   12.65   27.14
  -9  16 -14    9.81   26.80
  -9  16 -15   20.09   24.70
  -9  16 -16   15.05   21.48
 -16   9 -16   23.77   19.11
 -10 -16 -15   10.50   22.16
 -10 -16 -14   -3.09   30.65
 -10 -16 -13   29.34   42.21
 -10  16   3   13.96   17.58
 -10  16   2   30.59   17.78
 -16  10   2   32.66   14.50
 -10  16   1   50.87   17.87
 -16  10   1   51.90   15.28
 -10  16   0   84.19   19.79
 -16  10   0   78.48   17.35
 -10  16  -1   44.12   16.81
  16 -10  -1   60.21   38.96
 -16  10  -1   58.60   16.78
  16 -10  -2   16.80   32.75
 -10  16  -2   17.46   16.70
 -16  10  -2   26.48   15.37
  10 -16  -2   36.06   46.46
  16 -10  -3   -4.03   32.71
 -10  16  -3    7.83   15.32
 -10  16  -3    3.45   29.82
 -16  10  -3   12.49   14.50
  10 -16  -3    2.27   38.82
 -10  16  -4   27.57   16.67
 -10  16  -4   -5.74   31.69
 -16  10  -4   34.17   16.20
  10 -16  -4  -13.53   42.01
 -16  10  -5  129.78   20.74
 -10  16  -5  139.43   22.03
 -10  16  -6    7.52   15.33
 -16  10  -6   10.84   14.59
 -10  16  -6   23.52   29.54
 -10  16  -7   47.37   34.91
 -10  16  -7  144.58   22.47
 -10  16  -8   19.89   14.98
 -16  10  -8   23.06   14.49
 -10  16  -8  -17.10   30.50
 -16  10  -9  329.70   24.25
 -10  16  -9  285.58   44.70
 -10  16  -9  334.36   26.77
 -10  16 -10   -4.45   15.04
 -16  10 -10   38.27   14.34
 -10  16 -10    9.76   27.10
 -10  16 -11   47.81   15.33
 -16  10 -11   40.76   13.72
 -10  16 -11   30.93   29.27
 -10  16 -12   33.64   14.50
 -16  10 -12   33.79   12.10
 -10  16 -12   66.66   33.74
 -16  10 -13   27.13   10.91
 -10  16 -13   21.14   26.25
 -10  16 -14    6.48   23.54
 -10  16 -15   15.27   22.60
 -16  10 -15   16.66   20.76
 -10  16 -16  -18.47   19.24
 -16  10 -16    8.09   17.13
 -11 -16 -14   -2.12   23.07
 -11 -16 -13    7.67   31.83
 -11 -16 -12   37.62   42.06
 -11  16   2   23.48   16.49
 -16  11   2   21.10   14.57
 -11  16   1   82.04   19.46
 -16  11   1   99.89   17.76
 -11  16   0   -9.44   16.71
 -16  11   0    8.44   14.05
 -11  16  -1   90.98   19.55
 -16  11  -1  113.02   18.83
  16 -11  -1   71.11   39.92
  16 -11  -2   21.41   34.90
 -11  16  -2   23.69   15.98
 -16  11  -2   26.82   15.68
 -11  16  -3    8.96   15.33
 -16  11  -3   15.99   15.90
 -11  16  -4   76.83   19.14
 -16  11  -4   92.11   18.29
 -11  16  -5   24.18   15.74
 -16  11  -5   76.27   17.66
 -11  16  -5   19.55   30.33
 -11  16  -6   83.63   19.15
 -11  16  -6   38.48   31.58
 -11  16  -7   -2.15   15.34
 -16  11  -7   26.53   14.65
 -11  16  -7  -16.79   30.76
 -11  16  -8   41.04   15.90
 -16  11  -8   78.46   17.10
 -11  16  -8   45.92   31.53
 -11  16  -9    7.72   14.37
 -16  11  -9    9.54   13.44
 -11  16  -9  -24.10   28.39
 -11  16 -10   -8.35   14.10
 -16  11 -10   -4.07   12.43
 -11  16 -10    2.64   25.61
 -16  11 -11   87.06   14.92
 -11  16 -11   54.71   31.96
 -11  16 -11   87.72   16.94
 -11  16 -12   18.86   12.72
 -16  11 -12   37.32   12.06
 -11  16 -12   44.77   28.27
 -16  11 -13   16.54   10.92
 -11  16 -13    2.21   23.46
 -11  16 -13  -13.73   11.31
 -11  16 -14   45.24   26.06
 -16  11 -14   53.03   22.83
 -11  16 -15   21.30   21.65
 -16  11 -15   30.83   20.22
 -12  16   2   34.92   17.04
 -16  12   2   38.76   15.47
 -12  16   1   42.04   16.64
 -16  12   1   31.94   16.00
 -12  16   0   38.35   16.63
 -16  12   0   34.44   15.68
 -12  16  -1   76.01   18.47
 -16  12  -1   55.75   16.87
 -12  16  -2   22.52   16.17
 -16  12  -2   31.81   15.77
 -12  16  -3  165.50   21.83
 -16  12  -3  148.01   19.89
 -12  16  -4  155.78   21.58
 -16  12  -4  177.79   21.79
 -12  16  -5   65.80   18.01
 -16  12  -5   75.91   17.32
 -12  16  -5   23.01   28.91
 -12  16  -6  284.41   25.21
 -16  12  -6  340.06   25.85
 -12  16  -6  256.10   39.08
 -12  16  -7   -4.52   14.61
 -16  12  -7   23.31   14.62
 -12  16  -7  -11.90   27.74
 -12  16  -8   28.67   14.98
 -16  12  -8   44.61   15.34
 -12  16  -8   38.97   26.50
 -12  16  -9   31.56   14.87
 -16  12  -9   33.05   14.19
 -12  16  -9    8.28   26.09
 -16  12 -10  104.73   16.56
 -12  16 -10   81.09   16.19
 -12  16 -10   68.85   30.28
 -16  12 -11   84.48   14.93
 -12  16 -11   57.00   14.24
 -12  16 -11   96.29   30.35
 -12  16 -12   -1.96   11.43
 -16  12 -12   27.52   11.44
 -12  16 -12   19.88   24.88
 -16  12 -12    6.42   20.07
 -12  16 -13   80.71   27.78
 -16  12 -13   62.72   24.98
 -16  12 -13   74.03   12.05
 -12  16 -13   62.66   12.96
 -12  16 -14   32.46   23.06
 -16  12 -14   61.43   22.10
 -12  16 -15   30.03   21.56
 -16  12 -15   40.42   19.97
 -16  13   2  164.29   19.90
 -13  16   2  140.99   20.73
 -13  16   1   33.79   16.00
 -16  13   1   30.18   15.00
 -16  13   0  219.77   21.76
 -13  16   0  216.42   23.12
 -13  16  -1   31.65   15.95
 -16  13  -1   47.74   16.22
 -13  16  -2  188.53   22.46
 -16  13  -2  191.35   21.95
 -13  16  -3   31.80   17.11
 -16  13  -3   37.09   16.54
 -13  16  -4   20.29   15.10
 -16  13  -4   30.19   15.04
 -13  16  -5  531.05   31.62
 -16  13  -5  563.76   32.68
 -13  16  -5  470.36   48.96
 -13  16  -6  -23.32   16.15
 -16  13  -6  -14.61   14.39
 -13  16  -6  -37.65   29.35
 -16  13  -6  -37.19   26.64
 -13  16  -7  328.53   25.67
 -16  13  -7  355.63   26.31
 -13  16  -7  256.53   41.87
 -16  13  -7  256.11   38.72
 -16  13  -8   67.30   16.12
 -13  16  -8   17.58   25.56
 -16  13  -8   34.55   23.66
 -13  16  -8   96.07   17.72
 -13  16  -9   22.27   13.74
 -16  13  -9   43.21   14.25
 -13  16  -9   20.44   25.69
 -16  13  -9   24.69   22.62
 -16  13 -10  133.65   17.12
 -13  16 -10  118.53   30.55
 -16  13 -10   73.37   27.02
 -13  16 -10  109.84   16.85
 -13  16 -11   40.92   13.26
 -16  13 -11   44.06   12.24
 -13  16 -11   46.83   25.62
 -16  13 -11   49.08   23.57
 -16  13 -12  111.26   26.46
 -13  16 -12  125.69   15.93
 -16  13 -12  147.46   15.86
 -16  13 -13   12.12    9.14
 -13  16 -13    2.18   22.23
 -16  13 -13    7.73   18.44
 -13  16 -13   -7.39   10.29
 -13  16 -14   65.08   24.07
 -16  13 -14   54.44   21.54
 -16  14   2  341.27   27.57
 -14  16   2  101.52   25.10
 -16  14   1  259.00   23.15
 -14  16   1  238.20   22.40
 -14  16   0   77.66   16.77
 -16  14   0   92.22   17.18
 -14  16  -1  261.10   24.08
 -16  14  -1  270.59   24.36
 -14  16  -2    1.68   14.69
 -16  14  -2   -7.78   15.25
 -14  16  -3   31.82   15.58
 -16  14  -3   37.68   15.21
 -14  16  -4  220.18   23.04
 -16  14  -4  226.60   22.58
 -14  16  -5  -22.31   15.89
 -16  14  -5  -18.43   14.85
 -14  16  -6  499.70   29.81
 -16  14  -6  511.99   29.38
 -14  16  -6  443.11   49.10
 -14  16  -7   14.13   13.69
 -16  14  -7   18.64   14.05
 -14  16  -7   21.28   25.49
 -16  14  -7   10.99   22.48
 -14  16  -8   -4.23   13.16
 -16  14  -8   10.48   12.79
 -14  16  -8  -21.73   26.22
 -16  14  -8  -12.45   23.59
 -16  14  -9  116.28   16.99
 -14  16  -9   82.55   16.04
 -14  16  -9   92.79   28.72
 -16  14  -9   84.78   26.60
 -16  14 -10  112.81   16.24
 -14  16 -10  130.76   31.08
 -16  14 -10  123.88   27.70
 -14  16 -10  108.70   16.11
 -14  16 -11  101.21   27.71
 -16  14 -11   66.49   24.10
 -14  16 -11   95.30   15.04
 -16  14 -11  103.14   15.32
 -14  16 -12  -22.43   11.61
 -16  14 -12   -3.71    9.54
 -14  16 -12    0.93   21.39
 -16  14 -12   -9.85   20.26
 -14  16 -13   61.13   23.89
 -16  14 -13   60.31   24.37
 -16  15   1  147.62   18.98
 -15  16   1  117.46   17.45
 -16  15   0  105.65   19.07
 -15  16   0   92.75   18.18
 -16  15  -1  136.15   18.89
 -15  16  -1  112.38   18.04
 -15  16  -2   41.41   16.58
 -16  15  -2   35.40   15.93
 -15  16  -3  132.36   19.76
 -16  15  -3  133.67   19.91
 -15  16  -4  -12.09   15.23
 -16  15  -4  -17.82   15.49
 -15  16  -5  303.55   24.66
 -16  15  -5  303.91   24.61
 -15  16  -6  -12.34   14.11
 -16  15  -6    4.46   12.93
 -15  16  -7   13.19   13.41
 -16  15  -7    1.31   12.57
 -15  16  -7    8.39   24.67
 -16  15  -7   -8.40   22.55
 -15  16  -8   22.65   13.60
 -16  15  -8   16.43   13.11
 -15  16  -8   -4.81   23.23
 -16  15  -8   15.58   23.22
 -16  15  -9  154.84   17.39
 -15  16  -9   95.06   32.41
 -16  15  -9  121.41   30.83
 -15  16  -9  145.92   17.56
 -15  16 -10   32.44   12.80
 -16  15 -10   55.29   13.60
 -15  16 -10   27.59   23.30
 -16  15 -10   45.35   24.67
 -15  16 -11   57.71   12.71
 -16  15 -11   60.74   12.56
 -15  16 -11   62.79   24.74
 -16  15 -11   68.30   23.84
 -15  16 -12   24.36   11.14
 -15  16 -12   36.16   22.83
 -16  15 -12   47.58   22.46
 -16  15 -12   49.35   11.73
 -15  16 -13  -11.86   21.26
 -16  15 -13    3.13   18.27
 -16  16   1    7.77   15.07
 -16  16   0  370.89   26.02
 -16  16  -1   13.96   15.48
 -16  16  -2   36.32   15.13
 -16  16  -3    6.39   14.14
 -16  16  -4  161.23   19.79
 -16  16  -5    9.33   13.27
 -16  16  -6    6.68   12.61
 -16  16  -7  -10.83   12.49
 -16  16  -8  138.73   30.72
 -16  16  -8  122.24   16.48
 -16  16  -9   14.76   11.85
 -16  16  -9   14.44   22.60
 -16  16 -10  115.11   29.71
 -16  16 -10  106.55   15.01
 -16  16 -11    3.76   11.04
 -16  16 -11   15.24   22.04
 -16  16 -12  464.00   36.97
   0  17   0  394.65   45.02
  17   0   0  248.30   54.72
  17   0   1 1089.45   94.98
  17   0  -1  976.81   88.30
   0  17   1 1119.06   59.23
   0  17  -1 1182.38   59.91
  17   0  -2   17.37   29.71
   0  17  -2   50.75   29.71
  17   0  -3   92.31   34.28
   0  17  -3  123.00   29.77
  17   0  -4  143.96   38.53
   0  17  -4  207.82   31.39
  17   0  -5   -7.35   26.36
   0  17  -5   45.91   27.44
  17   0  -6  182.61   44.94
   0  17  -6  202.64   31.41
   0  17  -7   68.59   26.57
  17   0  -7   16.06   26.83
 -17   0  -8   37.48   23.21
   0  17  -8   51.39   25.93
   0  17  -9  353.32   35.40
 -17   0  -9  336.72   30.88
 -17   0 -10  313.03   30.14
 -17   0 -11  550.47   33.12
 -17   0 -12  142.41   19.94
   0 -17 -14   16.15   85.03
   0 -17 -15   48.39   66.36
   0 -17 -16  208.79   54.11
   0 -17 -17   38.80   33.49
  -1 -17 -17  139.06   37.89
  -1 -17 -16   -0.57   45.63
  -1 -17 -15   72.30   67.55
  -1 -17 -14   42.08   86.57
 -17  -1 -12  254.34   23.96
 -17  -1 -11  267.93   25.54
 -17  -1 -10  489.62   33.46
 -17  -1  -9  208.10   28.43
   1  17  -8  140.73   29.45
 -17  -1  -7  153.19   30.11
  17   1  -7   89.75   35.40
   1  17  -7  116.57   28.54
  17   1  -6   44.47   31.82
   1  17  -6    9.14   26.19
  17   1  -5  141.15   39.88
   1  17  -5  152.29   31.90
  17   1  -4   47.80   29.24
   1  17  -4   40.10   27.24
 -17   1   3   20.79   19.09
  17   1  -3   22.44   30.47
   1  17  -3   20.33   26.73
 -17   1   2  248.07   28.32
   1  17  -2  280.15   37.84
  17   1  -2  214.76   48.24
  -1  17   2  217.08   36.43
  17  -1   2  216.47   51.72
  17   1  -1  188.54   48.14
   1  17  -1  177.60   37.96
  17  -1   1  232.67   52.06
  17   1   0  809.41   83.90
  17  -1   0  826.35   82.88
   1  17   0 1039.60   59.36
  -1  17   0  928.47   53.71
  17  -1  -1  199.05   48.56
  -1  17  -1  453.67   43.72
  17  -1  -2  194.48   46.21
  -1  17  -2  217.95   31.57
 -17   1  -3   50.27   25.66
  -1  17  -3   77.47   27.63
  17  -1  -3   29.30   30.20
 -17   1  -4   56.27   26.69
  17  -1  -4   29.15   31.38
  -1  17  -4   31.55   24.22
  17  -1  -5  162.58   41.96
  -1  17  -5  151.10   29.64
 -17   1  -5  177.72   28.46
  17  -1  -6   18.55   30.91
  -1  17  -6   39.05   24.18
 -17   1  -7  113.90   24.40
  17  -1  -7   89.17   33.39
  -1  17  -7  129.85   27.42
  -1  17  -8  174.62   29.01
 -17   1  -8  176.58   25.73
  -1  17  -9  105.04   28.80
 -17   1  -9  176.07   24.85
  -1  17 -10  462.85   38.39
 -17   1 -10  568.11   33.38
 -17   1 -11  307.46   26.71
 -17   1 -12  238.05   22.83
   1 -17 -13  135.48  118.67
   1 -17 -14   -5.51   82.40
   1 -17 -15  152.09   68.72
   1 -17 -16   65.84   46.23
   1 -17 -17  120.57   34.98
  -2 -17 -17   71.01   33.83
  -2 -17 -16   17.40   44.10
  -2 -17 -15   38.32   59.73
  -2 -17 -14   36.47   83.46
 -17  -2 -12  259.30   23.88
 -17  -2 -11  139.56   23.41
 -17  -2 -10  240.66   26.75
 -17  -2  -8   63.22   28.11
  17   2  -7   18.34   26.65
  17   2  -6   50.51   33.31
   2  17  -5  100.75   31.02
  17   2  -5   79.43   34.02
  17   2  -4   -0.50   26.61
   2  17  -4   -9.32   27.57
 -17   2   3   19.37   18.33
  17   2  -3    3.80   26.55
   2  17  -3   38.56   30.80
  -2  17   3   32.91   31.05
  -2  17   2  193.33   35.93
  17  -2   2  138.52   43.44
  17   2  -2  111.91   39.75
 -17   2   2  168.75   24.79
  17   2  -1  124.89   40.99
  -2  17   1  201.95   33.52
  17  -2   1  172.47   44.29
 -17   2   1  140.93   27.25
  17  -2   0  595.88   70.92
  -2  17   0  732.83   48.76
 -17   2   0  671.41   40.10
  17  -2  -1  122.19   40.21
 -17   2  -1  159.31   27.37
  -2  17  -1  149.92   28.92
  -2  17  -2  194.33   29.16
  17  -2  -2  143.16   40.41
 -17   2  -2  180.83   29.06
 -17   2  -3   36.78   25.93
  17  -2  -3   20.27   29.76
  -2  17  -3   35.33   21.92
  17  -2  -4    6.36   26.39
  -2  17  -4   -3.03   20.63
 -17   2  -5  114.81   25.08
  17  -2  -5   69.87   33.00
  -2  17  -5   71.61   24.54
  17  -2  -6   59.33   35.39
  -2  17  -6    5.10   38.37
  -2  17  -6   58.15   23.23
 -17   2  -7   77.81   22.22
  17  -2  -7   29.47   30.75
  -2  17  -7   41.04   40.44
  -2  17  -7   70.36   23.87
 -17   2  -8   33.97   19.53
  -2  17  -8   -2.05   37.50
  -2  17  -8   38.48   23.40
  -2  17  -9  309.44   56.82
  -2  17  -9  320.74   33.38
 -17   2  -9  358.71   28.51
 -17   2 -10  280.43   25.87
  -2  17 -10  296.29   33.66
  -2  17 -11   40.63   43.25
  -2  17 -11  112.36   26.43
 -17   2 -12  294.64   23.41
   2 -17 -13   39.52  102.96
   2 -17 -14   70.41   79.53
   2 -17 -15   45.50   57.65
   2 -17 -16   49.07   40.37
  -3 -17 -17   -1.84   28.46
  -3 -17 -16  101.44   46.47
  -3 -17 -15   29.74   56.47
  -3 -17 -14   99.84   76.89
 -17  -3 -12  125.95   19.97
 -17  -3 -11  196.49   23.88
 -17  -3 -10   62.70   24.11
 -17  -3  -9  121.28   27.34
  17   3  -7   -2.26   24.09
  17   3  -6   56.64   30.37
  17   3  -5   28.23   31.00
  -3  17   4   81.58   32.56
  17   3  -4   32.19   29.94
 -17   3   3   72.82   16.98
  17   3  -3   52.27   29.10
  17  -3   3  100.54   40.54
  -3  17   3  136.02   32.59
  17  -3   2   42.54   32.70
  17   3  -2   15.12   28.45
  -3  17   2   14.76   26.37
  17  -3   1  251.35   49.90
  -3  17   1  305.90   34.31
 -17   3   1  261.00   25.25
 -17   3   0   69.16   21.78
  17  -3   0   53.79   33.59
  -3  17   0   84.91   26.97
  17  -3  -1  253.93   49.37
  -3  17  -1  305.36   32.15
 -17   3  -1  275.44   28.42
 -17   3  -2   38.88   22.21
  17  -3  -2    3.59   27.68
  -3  17  -2   36.03   21.85
 -17   3  -3  113.02   23.55
  17  -3  -3   91.12   37.74
  -3  17  -3  112.64   23.81
  -3  17  -4   28.18   20.50
  17  -3  -4   15.20   28.04
 -17   3  -5   38.94   20.81
  17  -3  -5   27.87   29.05
  -3  17  -5   38.69   40.11
  -3  17  -5   14.97   19.43
 -17   3  -6   98.10   21.76
  17  -3  -6   58.99   35.81
  -3  17  -6   20.93   43.34
  -3  17  -6   75.08   22.69
 -17   3  -7   23.29   18.90
  17  -3  -7    0.82   26.47
  -3  17  -7   19.33   37.71
  -3  17  -7   23.34   20.99
  -3  17  -8   76.09   45.39
 -17   3  -8  154.20   22.27
  -3  17  -8  116.73   24.99
  -3  17  -9   87.75   46.55
 -17   3  -9  157.76   21.76
  -3  17  -9  116.57   25.25
  -3  17 -10    0.74   33.50
 -17   3 -10   46.92   16.24
  -3  17 -10   34.93   22.34
  -3  17 -11  215.22   52.33
 -17   3 -11  278.23   23.51
  -3  17 -11  266.01   30.33
 -17   3 -12  139.96   18.41
  -3  17 -12  122.92   43.80
 -17   3 -13  132.33   17.21
   3 -17 -13  171.72   96.37
   3 -17 -14   58.32   66.35
   3 -17 -15   52.59   50.14
   3 -17 -16   60.85   37.76
  -4 -17 -17   42.52   27.73
  -4 -17 -16   51.30   39.26
  -4 -17 -15   51.89   52.84
  -4 -17 -14  131.67   70.47
 -17  -4 -12  139.35   20.57
 -17  -4 -11   53.95   21.21
  17   4  -7   44.96   31.53
  17   4  -6   55.33   35.74
  17   4  -5   13.74   25.73
  -4  17   4  250.47   36.53
  17  -4   3   33.80   28.25
  -4  17   3    9.04   26.43
  17  -4   2  225.73   50.29
  -4  17   2  233.43   31.56
 -17   4   2  210.06   21.89
  17  -4   1  154.02   43.99
 -17   4   1  133.84   21.59
  -4  17   1  142.85   27.26
  17  -4   0  228.58   49.41
  -4  17   0  161.37   26.89
 -17   4   0  169.48   22.77
 -17   4  -1  130.78   22.68
  17  -4  -1  144.07   43.78
  -4  17  -1  155.44   26.46
  17  -4  -2  200.84   48.54
  -4  17  -2  213.63   26.63
 -17   4  -2  247.42   26.02
  -4  17  -3   66.98   21.82
 -17   4  -3   36.97   19.33
  17  -4  -3   63.41   32.90
  17  -4  -4  190.68   47.84
  -4  17  -4  164.46   50.15
  -4  17  -4  204.16   26.42
 -17   4  -4  268.70   26.90
  -4  17  -5   33.33   19.57
 -17   4  -5   55.34   19.61
  -4  17  -5   27.65   39.67
  17  -4  -5   -4.64   29.75
  -4  17  -6   47.33   21.35
 -17   4  -6   91.40   20.53
  -4  17  -6   74.76   41.58
  17  -4  -6   34.07   32.36
 -17   4  -7  101.67   20.04
  -4  17  -7   77.03   21.65
  -4  17  -7   83.23   42.85
 -17   4  -8  118.38   20.23
  -4  17  -8  152.11   25.28
  -4  17  -9   -2.58   34.42
 -17   4  -9   10.78   15.00
  -4  17  -9    4.72   18.97
 -17   4 -10  172.78   20.60
  -4  17 -10  196.12   46.73
  -4  17 -10  196.83   26.09
 -17   4 -11  164.33   20.74
  -4  17 -11  129.27   43.08
  -4  17 -11  125.19   26.38
 -17   4 -12  136.68   17.72
  -4  17 -12  120.32   43.44
  -4  17 -12   90.53   21.90
 -17   4 -13  148.24   16.64
   4 -17 -13  156.56   78.79
  -4  17 -13   75.06   37.32
   4 -17 -14  113.48   59.25
   4 -17 -15    8.65   40.00
   4 -17 -16   71.96   31.92
  -5 -17 -16    5.43   34.05
  -5 -17 -15  137.81   50.64
  -5 -17 -14   14.56   59.40
 -17  -5 -11   16.25   19.76
 -17  -5 -10  212.30   32.22
  -5  17   4   33.77   31.01
  -5  17   3  186.63   30.78
  17  -5   2   43.84   33.12
  -5  17   2   57.30   24.93
 -17   5   2   80.34   17.32
 -17   5   1   48.51   17.50
  17  -5   1   62.16   34.47
  -5  17   1   66.59   23.00
 -17   5   0  299.66   25.88
  -5  17   0  312.01   30.88
  17  -5   0  286.32   58.08
 -17   5  -1   63.04   18.96
  -5  17  -1   27.65   20.06
  17  -5  -1   39.88   34.17
 -17   5  -2   82.55   20.24
  -5  17  -2   88.34   21.76
  17  -5  -2   52.41   34.16
   5 -17  -2   31.14   46.83
   5 -17  -3  128.29   58.53
  -5  17  -3  129.63   46.04
 -17   5  -3  216.98   24.32
  -5  17  -3  244.35   27.26
  17  -5  -3  160.59   46.02
 -17   5  -4   -2.56   16.84
  -5  17  -4  -18.01   17.78
  -5  17  -4   30.16   38.26
  17  -5  -4   10.22   29.18
   5 -17  -5   90.15   51.91
  -5  17  -5   59.18   44.27
  17  -5  -5  101.83   41.39
 -17   5  -5  189.91   23.38
  -5  17  -5  146.85   23.75
  -5  17  -6   51.51   21.40
   5 -17  -6   28.02   41.36
  -5  17  -6   83.66   42.78
  17  -5  -6   40.09   33.77
 -17   5  -6   77.11   19.40
 -17   5  -7  220.83   23.07
  -5  17  -7  170.20   25.51
  -5  17  -8    8.62   17.39
  -5  17  -8    9.32   35.49
 -17   5  -8   -0.43   14.71
  -5  17  -9  191.85   48.34
 -17   5  -9  145.40   19.76
  -5  17  -9  153.64   24.21
 -17   5 -10  155.19   21.55
  -5  17 -10  119.72   45.27
  -5  17 -10  109.81   23.65
  -5  17 -11   14.94   38.32
 -17   5 -11   63.79   15.71
  -5  17 -11    6.30   19.40
 -17   5 -12  184.49   19.53
   5 -17 -12  213.12   83.06
  -5  17 -12  181.19   46.72
  -5  17 -12  124.77   22.86
 -17   5 -13   91.68   14.16
   5 -17 -13   62.71   59.37
  -5  17 -13   99.27   37.40
   5 -17 -14   65.75   46.10
  -5  17 -14    1.75   28.68
   5 -17 -15   81.59   34.69
   5 -17 -16    0.43   22.47
  -6 -17 -16   58.40   31.58
  -6 -17 -15   19.10   38.84
  -6 -17 -14  117.53   58.25
 -17  -6 -11  195.13   29.32
  -6  17   3    4.38   22.68
  17  -6   2   14.01   26.94
 -17   6   2   33.79   14.93
  -6  17   2    3.88   20.63
  -6  17   1  104.26   24.12
 -17   6   1  123.18   18.86
  17  -6   1  102.82   40.56
  -6  17   0   -6.50   19.28
  17  -6   0    1.17   30.08
 -17   6   0   11.94   16.51
  -6  17  -1   76.24   21.76
 -17   6  -1  105.63   20.13
  -6  17  -2    4.05   17.80
   6 -17  -2   56.88   50.21
 -17   6  -2   29.15   17.51
  17  -6  -2   28.78   34.17
  -6  17  -3   34.19   19.02
   6 -17  -3   18.49   46.06
  -6  17  -3   10.07   35.51
 -17   6  -3   41.59   17.58
  -6  17  -4   79.83   20.20
   6 -17  -4   70.66   52.57
  -6  17  -4   51.50   40.06
  17  -6  -4   68.93   35.16
 -17   6  -4   82.91   18.97
   6 -17  -5  110.41   55.34
  17  -6  -5   87.18   37.98
  -6  17  -5  110.07   43.32
 -17   6  -5  153.99   21.28
  -6  17  -5  152.10   23.61
  -6  17  -6  217.86   48.75
 -17   6  -6  221.00   23.06
  -6  17  -6  145.22   26.03
  -6  17  -7   77.28   21.01
  -6  17  -7   81.46   41.42
 -17   6  -7   76.46   17.76
  -6  17  -8  110.35   21.74
 -17   6  -8  121.62   19.49
  -6  17  -9   69.04   21.46
  -6  17  -9   40.05   36.39
 -17   6  -9   75.25   17.09
  -6  17 -10   30.59   35.30
 -17   6 -10   75.30   16.46
  -6  17 -10   20.34   19.37
 -17   6 -11  146.02   19.06
  -6  17 -11  148.23   44.81
  -6  17 -11  101.57   21.89
   6 -17 -12   58.02   55.14
 -17   6 -12   40.83   12.61
  -6  17 -12  -10.94   30.96
  -6  17 -12   39.13   19.84
   6 -17 -13   69.71   47.33
 -17   6 -13   39.86   12.03
  -6  17 -13   36.70   33.58
   6 -17 -14   39.48   34.42
  -6  17 -14   56.08   33.57
  -7 -17 -16   34.38   26.22
  -7 -17 -15   25.07   35.40
  -7 -17 -14  -30.87   45.72
  -7 -17 -13   98.66   59.74
  -7  17   3   37.02   22.37
  -7  17   2   21.97   20.05
 -17   7   2   32.61   14.42
  -7  17   1    8.20   18.47
  17  -7   1   37.05   32.24
 -17   7   1   14.53   14.05
  -7  17   0   38.46   19.81
  17  -7   0   12.25   29.95
 -17   7   0   35.57   16.09
  17  -7  -1   -1.28   31.09
  -7  17  -1   34.51   19.30
 -17   7  -1   33.19   17.14
  -7  17  -2   24.82   17.73
   7 -17  -2   32.04   47.03
  17  -7  -2   21.27   31.75
 -17   7  -2   31.03   16.93
  -7  17  -3   30.53   17.79
  -7  17  -3  -28.27   38.32
  17  -7  -3    3.25   30.28
   7 -17  -3    1.79   45.23
 -17   7  -3    5.83   15.38
  -7  17  -4  191.41   48.69
  17  -7  -4  130.19   44.36
 -17   7  -4  224.18   22.93
   7 -17  -4  169.60   67.58
  -7  17  -4  208.96   24.67
  -7  17  -5   44.57   18.17
  17  -7  -5   32.42   33.88
  -7  17  -5   58.41   37.94
   7 -17  -5   36.99   41.77
 -17   7  -5   77.58   17.54
  -7  17  -6  395.93   57.58
 -17   7  -6  275.09   25.20
  -7  17  -6  367.29   29.65
  -7  17  -7   64.89   19.75
  -7  17  -7   44.27   38.04
 -17   7  -7   60.37   17.00
 -17   7  -8  132.61   18.90
  -7  17  -8  142.24   42.62
  -7  17  -8  137.10   22.44
  -7  17  -9   44.00   19.32
  -7  17  -9   24.74   32.21
 -17   7  -9   43.64   15.32
  -7  17 -10   55.75   19.74
 -17   7 -10   88.32   17.24
  -7  17 -10   67.58   38.99
 -17   7 -11   68.02   14.69
  -7  17 -11   44.10   33.89
  -7  17 -11   52.83   18.55
 -17   7 -12   21.94   12.00
  -7  17 -12    9.18   30.44
  -7  17 -12   38.78   18.19
 -17   7 -13   39.19   11.86
  -7  17 -13   29.41   30.06
  -7  17 -14   13.31   26.94
  -8 -17 -15   55.51   31.36
  -8 -17 -14   33.88   39.70
  -8 -17 -13   37.85   50.07
 -17  -8 -11   46.29   22.81
  -8  17   3  103.76   23.75
  -8  17   2   25.78   19.41
 -17   8   2   30.29   14.35
  -8  17   1  -11.40   18.48
 -17   8   1  -10.00   14.31
  -8  17   0   14.03   18.23
  17  -8   0   32.83   31.51
 -17   8   0   20.11   14.73
  -8  17  -1    6.59   17.24
 -17   8  -1   -3.40   14.98
  -8  17  -2   36.33   17.83
  -8  17  -2   17.05   34.87
  17  -8  -2   39.19   33.46
   8 -17  -2   45.69   44.57
 -17   8  -2   33.76   16.72
  -8  17  -3  112.21   21.27
  17  -8  -3   91.44   39.32
  -8  17  -3   52.31   38.35
   8 -17  -3   33.55   42.92
 -17   8  -3  113.60   19.21
  -8  17  -4   -4.72   16.87
  17  -8  -4  -32.73   37.29
  -8  17  -4  -13.87   35.87
   8 -17  -4  -39.67   49.53
 -17   8  -4    0.07   14.98
 -17   8  -5  612.05   33.01
  -8  17  -5  523.48   60.66
  -8  17  -5  637.56   35.72
  -8  17  -6   -3.83   15.86
  -8  17  -6   36.06   34.86
 -17   8  -6   13.42   14.70
  -8  17  -7  449.15   58.31
  -8  17  -7  495.25   32.65
  -8  17  -8   39.31   17.41
  -8  17  -8   31.08   33.66
 -17   8  -8   25.23   14.89
  -8  17  -9   59.12   18.45
 -17   8  -9   42.02   14.88
  -8  17  -9   60.17   34.72
 -17   8 -10  180.83   19.54
  -8  17 -10  195.26   24.19
  -8  17 -11   -3.46   15.24
 -17   8 -11   21.08   12.68
  -8  17 -11    8.01   31.48
 -17   8 -12   17.79   11.83
  -8  17 -12   30.99   31.56
  -8  17 -12   30.35   16.28
 -17   8 -13   34.22   11.47
  -8  17 -13   17.35   28.79
  -8  17 -14   20.13   26.15
  -8  17 -15   54.51   26.26
 -17   8 -16   19.96   18.39
  -9 -17 -15   -0.69   23.83
  -9 -17 -14   18.71   33.01
  -9 -17 -13   48.16   44.47
 -17  -9 -11   63.38   22.90
  -9  17   3   -8.47   19.37
  -9  17   2    8.64   18.01
 -17   9   2   26.63   13.57
  -9  17   1   54.21   19.08
 -17   9   1   64.02   16.96
  17  -9   0  -25.92   36.18
  -9  17   0   -4.59   16.79
 -17   9   0    4.65   14.00
  -9  17  -1   64.73   19.16
 -17   9  -1   58.44   16.78
  17  -9  -1   10.48   33.53
  -9  17  -2   15.41   17.00
  17  -9  -2    7.01   29.90
 -17   9  -2   25.61   15.57
  -9  17  -3  -17.58   17.08
  -9  17  -3  -12.78   37.41
 -17   9  -3  -15.59   15.88
   9 -17  -3  -47.15   56.07
 -17   9  -4  440.83   28.22
  -9  17  -4  417.22   30.25
  -9  17  -5   41.92   18.15
  -9  17  -5    4.99   32.97
 -17   9  -5   43.53   16.56
 -17   9  -6  478.50   28.86
  -9  17  -6  537.82   36.59
  -9  17  -7   52.30   19.21
  -9  17  -7   34.07   34.30
 -17   9  -7   54.13   17.03
 -17   9  -8  208.39   21.78
  -9  17  -8  146.76   43.44
  -9  17  -8  225.94   24.35
 -17   9  -9  200.22   20.83
  -9  17  -9  190.52   23.22
  -9  17 -10   18.94   15.38
 -17   9 -10   15.91   12.70
  -9  17 -10   28.41   31.32
  -9  17 -11   24.45   14.80
 -17   9 -11   32.92   13.13
  -9  17 -11   31.51   31.27
 -17   9 -12   22.20   12.09
  -9  17 -12    3.63   28.16
  -9  17 -12   12.73   14.85
 -17   9 -13   67.18   12.29
  -9  17 -13   40.86   29.19
  -9  17 -14   11.91   24.55
  -9  17 -15    4.02   22.14
 -10 -17 -14    2.44   26.33
 -10 -17 -13   36.37   36.14
 -10 -17 -12   72.23   46.05
 -10  17   2   -3.17   16.98
 -17  10   2   27.59   14.41
 -10  17   1   -1.54   16.67
 -17  10   1   20.91   13.57
 -10  17   0   42.06   18.41
 -17  10   0   33.64   15.22
 -10  17  -1   11.70   17.73
 -17  10  -1   37.52   15.97
 -10  17  -2   12.54   16.62
 -17  10  -2   17.40   14.94
 -17  10  -3  218.75   22.34
 -10  17  -3  200.31   23.61
 -10  17  -4   78.43   19.81
 -17  10  -4   82.68   17.20
 -17  10  -5  195.43   21.68
 -10  17  -5  146.49   39.55
 -10  17  -5  172.81   22.42
 -10  17  -6   58.61   18.92
 -17  10  -6  108.72   18.96
 -10  17  -6   31.13   34.25
 -17  10  -7  129.87   18.76
 -10  17  -7   88.80   37.55
 -10  17  -7  136.03   20.82
 -10  17  -8   86.34   19.04
 -17  10  -8  104.18   18.41
 -10  17  -8   58.16   33.22
 -10  17  -9   41.73   17.19
 -17  10  -9   60.96   15.26
 -10  17  -9   16.20   29.89
 -10  17 -10    0.08   14.15
 -17  10 -10   27.83   13.41
 -10  17 -10   23.13   29.80
 -10  17 -11   32.03   14.86
 -17  10 -11   55.63   13.93
 -10  17 -11   49.17   31.28
 -17  10 -12   41.68   12.38
 -10  17 -12   51.44   29.04
 -10  17 -12   36.11   14.75
 -17  10 -13   -3.65    9.57
 -10  17 -13   -1.35   24.00
 -10  17 -14   44.50   27.39
 -17  10 -14   56.20   22.92
 -10  17 -15   31.43   22.12
 -17  10 -15    5.45   17.06
 -11 -17 -13   52.24   30.45
 -11 -17 -12   -0.76   35.24
 -11  17   2   22.22   18.45
 -17  11   2   58.36   16.04
 -11  17   1   12.26   17.43
 -17  11   1   12.60   13.70
 -11  17   0  -12.52   16.82
 -17  11   0   11.97   14.15
 -11  17  -1   -8.52   16.20
 -17  11  -1   15.94   15.13
 -11  17  -2   65.98   18.75
 -17  11  -2   80.63   17.66
 -17  11  -3  195.87   21.49
 -11  17  -3  244.28   24.24
 -11  17  -4   23.53   16.38
 -17  11  -4   26.22   16.05
 -11  17  -4   21.74   31.56
 -11  17  -5   98.97   19.36
 -17  11  -5   95.52   18.02
 -11  17  -5   43.69   32.11
 -11  17  -6  -13.29   16.00
 -17  11  -6   10.89   14.46
 -11  17  -6  -31.98   32.80
 -11  17  -7   21.75   17.00
 -17  11  -7   77.87   17.62
 -11  17  -7    9.99   31.54
 -11  17  -8  -22.26   16.02
 -17  11  -8    9.53   13.41
 -11  17  -8  -20.03   29.84
 -11  17  -9  -17.09   15.44
 -17  11  -9   -6.61   12.74
 -11  17  -9   -7.91   28.96
 -11  17 -10   52.44   16.15
 -17  11 -10   84.57   15.58
 -11  17 -10   38.30   29.84
 -11  17 -11   25.85   13.26
 -17  11 -11   75.48   14.52
 -11  17 -11   44.86   29.80
 -11  17 -12    2.35   12.14
 -17  11 -12    9.91   10.81
 -11  17 -12    6.78   24.23
 -17  11 -13   79.29   12.05
 -11  17 -13   87.19   29.33
 -17  11 -13   75.74   24.54
 -11  17 -14    4.91   20.79
 -17  11 -14   20.11   19.46
 -17  11 -15   53.87   20.39
 -17  12   2  179.06   20.50
 -12  17   2  156.71   23.40
 -12  17   1   41.59   17.75
 -17  12   1   45.18   16.15
 -17  12   0  180.68   21.13
 -12  17   0  139.40   21.49
 -12  17  -1   36.27   17.20
 -17  12  -1   70.68   17.38
 -17  12  -2  220.48   22.86
 -12  17  -2  204.36   23.63
 -12  17  -3  -11.58   16.06
 -17  12  -3  -11.60   14.03
 -17  12  -4  125.37   18.58
 -12  17  -4  135.97   20.16
 -12  17  -5   44.94   16.58
 -17  12  -5   61.22   16.83
 -12  17  -5   27.89   29.13
 -12  17  -6   19.72   15.91
 -17  12  -6   45.43   15.76
 -12  17  -6    3.45   28.90
 -12  17  -7    5.03   14.89
 -17  12  -7   41.18   15.76
 -12  17  -7   15.59   27.96
 -12  17  -8   39.93   15.88
 -17  12  -8   27.57   14.06
 -12  17  -8   26.73   31.23
 -12  17  -9   13.09   14.38
 -17  12  -9   13.53   12.60
 -12  17  -9    0.72   26.08
 -17  12 -10  151.53   17.83
 -12  17 -10  154.63   33.89
 -12  17 -10   93.28   17.13
 -12  17 -11    6.11   12.46
 -17  12 -11   28.43   11.76
 -12  17 -11    0.45   24.83
 -17  12 -11   42.00   21.84
 -17  12 -12  236.24   18.10
 -12  17 -12  216.26   35.91
 -17  12 -12  202.19   31.67
 -12  17 -12  195.95   18.14
 -17  12 -13   -1.07    8.17
 -12  17 -13   -2.76   20.93
 -17  12 -13    0.44   18.17
 -12  17 -14   90.92   24.42
 -17  12 -14   54.45   21.22
 -13  17   2   -3.90   15.44
 -17  13   1  528.74   30.06
 -13  17   1  519.70   31.11
 -17  13   0  108.99   17.94
 -13  17   0   77.11   17.64
 -17  13  -1  615.67   32.38
 -13  17  -1  539.48   31.84
 -13  17  -2  -13.63   15.63
 -17  13  -2  -13.92   15.73
 -13  17  -3   96.35   19.25
 -17  13  -3   93.36   18.20
 -13  17  -4   41.28   16.83
 -17  13  -4   75.06   17.30
 -13  17  -5   12.69   14.92
 -17  13  -5   10.34   14.44
 -17  13  -6  173.30   20.20
 -13  17  -6  155.96   36.53
 -13  17  -6  135.50   19.69
 -13  17  -7   69.87   17.05
 -17  13  -7   53.67   15.26
 -13  17  -7   49.38   29.43
 -17  13  -7   61.30   24.85
 -13  17  -8    1.19   13.20
 -17  13  -8   10.39   12.87
 -13  17  -8  -17.87   27.76
 -17  13  -8    2.13   21.88
 -17  13  -9  169.48   18.63
 -13  17  -9  166.10   35.22
 -17  13  -9  142.05   30.24
 -13  17  -9  172.12   19.55
 -13  17 -10   41.30   13.67
 -17  13 -10   61.16   13.85
 -13  17 -10   14.04   24.10
 -17  13 -10   28.69   21.57
 -17  13 -11  274.47   20.12
 -17  13 -11  295.93   33.96
 -13  17 -11  241.39   19.99
 -13  17 -12  -30.52   12.69
 -17  13 -12    5.42    9.50
 -13  17 -12   -0.99   22.14
 -17  13 -12   26.55   20.65
 -13  17 -13  116.78   28.17
 -17  13 -13  179.51   28.68
 -14  17   2  227.97   23.63
 -14  17   1   65.99   16.42
 -17  14   1   67.84   15.93
 -17  14   0  811.53   36.31
 -14  17   0  763.87   36.58
 -14  17  -1   63.16   16.50
 -17  14  -1   74.58   16.21
 -17  14  -2  282.88   24.59
 -14  17  -2  268.75   24.90
 -14  17  -3   40.33   17.15
 -17  14  -3   45.69   16.59
 -14  17  -4  -27.19   15.78
 -17  14  -4   -3.61   14.06
 -17  14  -5  167.48   20.22
 -14  17  -5  156.79   20.51
 -14  17  -6   -0.41   13.56
 -17  14  -6   -6.26   13.16
 -14  17  -6    1.64   26.21
 -14  17  -7   39.21   14.52
 -17  14  -7   15.63   12.56
 -14  17  -7   47.24   28.86
 -17  14  -7   22.29   21.24
 -17  14  -8   85.90   15.91
 -14  17  -8   80.61   16.40
 -14  17  -8   70.23   30.51
 -17  14  -8   55.30   24.43
 -14  17  -9   59.17   14.72
 -17  14  -9   69.65   14.16
 -14  17  -9   39.42   27.01
 -17  14  -9   73.30   24.89
 -17  14 -10  211.66   18.76
 -14  17 -10  173.27   33.98
 -17  14 -10  210.62   32.26
 -14  17 -10  202.12   18.89
 -14  17 -11   27.65   11.65
 -17  14 -11   61.41   12.30
 -14  17 -11   35.40   23.57
 -17  14 -11   38.41   22.56
 -14  17 -12  194.41   33.07
 -17  14 -12  208.38   30.66
 -14  17 -12  196.73   16.94
 -17  14 -12  212.60   16.41
 -15  17   1  270.35   23.97
 -17  15   1  290.45   23.87
 -17  15   0  267.11   22.17
 -15  17   0  250.30   22.45
 -17  15  -1  321.88   26.36
 -15  17  -1  274.54   24.87
 -15  17  -2   -4.64   15.08
 -17  15  -2    2.57   14.06
 -15  17  -3   63.50   16.88
 -17  15  -3   72.22   17.25
 -17  15  -4   92.34   17.75
 -15  17  -4   77.32   17.28
 -15  17  -5    1.58   13.49
 -17  15  -5   -3.09   13.19
 -15  17  -6    1.80   12.96
 -17  15  -6   12.16   13.21
 -15  17  -7   10.51   12.90
 -17  15  -7   -7.88   12.03
 -15  17  -7    1.08   24.00
 -17  15  -8   73.66   14.79
 -15  17  -8   65.04   14.83
 -15  17  -8   74.70   28.31
 -17  15  -8   85.72   27.17
 -15  17  -9  109.50   29.55
 -17  15  -9   92.85   27.10
 -15  17  -9   94.39   15.23
 -17  15  -9  101.98   15.21
 -15  17 -10   58.57   25.38
 -17  15 -10  109.94   25.91
 -15  17 -10   86.16   14.27
 -17  15 -10  106.97   14.68
 -15  17 -11  120.98   29.19
 -17  15 -11  154.74   29.13
 -15  17 -11  146.62   15.92
 -17  15 -11  165.01   15.94
 -15  17 -12  224.12   35.70
 -16  17   1  174.21   19.80
 -17  16   1  191.84   19.48
 -16  17   0   55.71   16.97
 -17  16   0   68.36   17.50
 -16  17  -1  177.57   19.85
 -17  16  -1  196.82   20.59
 -16  17  -2   38.74   15.28
 -17  16  -2   46.76   16.31
 -16  17  -3   -6.61   13.44
 -17  16  -3  -13.15   14.01
 -16  17  -4   16.75   14.21
 -17  16  -4    8.15   13.43
 -16  17  -5    4.23   12.38
 -17  16  -5    3.58   12.67
 -16  17  -6   18.35   13.05
 -17  16  -6   18.61   12.87
 -16  17  -7   68.31   14.69
 -17  16  -7   65.89   14.44
 -16  17  -8   17.90   11.64
 -17  16  -8   12.60   11.18
 -16  17  -9  147.99   29.31
 -17  16  -9  136.60   28.18
 -16  17  -9  147.89   16.47
 -17  16  -9  143.90   15.78
 -16  17 -10   46.13   12.24
 -16  17 -10   23.14   21.76
 -17  16 -10   52.65   22.36
 -17  16 -10   55.66   12.93
 -16  17 -11   77.26   12.37
 -17  16 -11   73.93   11.85
 -17  17   0  223.36   21.29
 -17  17  -1   -7.79   12.94
 -17  17  -2  119.28   17.50
 -17  17  -3   12.72   13.61
 -17  17  -4   16.96   12.75
 -17  17  -5   -5.04   11.97
 -17  17  -6   40.43   13.76
 -17  17  -7    2.10   11.19
 -17  17  -8  166.52   17.09
 -17  17  -9   22.24   10.72
 -17  17 -10  180.06   15.76
  18   0   0 1108.31  103.51
   0  18   0 1245.67   67.48
   0  18  -1  354.70   44.57
  18   0  -1  285.22   56.25
   0  18  -2  375.15   42.07
  18   0  -2  419.35   64.01
 -18   0   3   16.12   20.27
  18   0  -3   14.70   27.85
   0  18  -3   -0.70   27.96
 -18   0  -4  249.29   33.54
  18   0  -4  163.52   44.19
   0  18  -4  218.33   32.48
 -18   0  -5   77.74   27.38
  18   0  -5   64.15   33.46
   0  18  -5  109.99   30.34
   0  18  -6  119.43   29.98
 -18   0  -6  109.89   32.10
   0  18  -7  273.38   34.72
 -18   0  -7  315.26   32.74
   0  18  -8  100.32   28.39
 -18   0  -9  242.71   28.71
 -18   0 -10  765.40   40.45
 -18   0 -11  434.78   30.50
 -18   0 -12  533.48   30.49
   0 -18 -13   -5.87  107.23
   0 -18 -14  135.21   82.84
   0 -18 -15  145.66   60.21
   0 -18 -16   60.98   40.32
  -1 -18 -16   78.63   41.82
  -1 -18 -15  102.90   58.74
  -1 -18 -14  -22.82   75.70
 -18  -1 -12  380.34   26.61
 -18  -1 -11  570.89   34.33
 -18  -1 -10  558.68   35.09
 -18  -1  -8   93.51   26.07
   1  18  -7  113.18   30.16
 -18  -1  -7  109.19   33.47
 -18  -1  -6  224.01   34.39
   1  18  -6  191.25   34.24
  18   1  -5   53.25   31.18
   1  18  -5  133.14   31.33
   1  18  -4   42.09   28.96
  18   1  -4   34.87   32.54
   1  18  -3  216.50   37.36
  18   1  -3  189.68   49.07
 -18   1   3  181.25   24.27
  18   1  -2   95.69   40.97
   1  18  -2  140.44   35.05
 -18   1   2  132.45   26.24
  18   1  -1  490.47   70.46
  -1  18   1  539.88   48.86
 -18   1   1  596.60   39.02
  18  -1   0  680.24   80.48
 -18   1   0  839.41   45.45
  18  -1  -1  490.36   69.97
  -1  18  -1  506.68   47.13
 -18   1  -1  611.56   42.22
  18  -1  -2  115.25   41.34
  -1  18  -2  151.38   33.89
 -18   1  -2  157.26   30.85
  18  -1  -3  136.80   43.14
  -1  18  -3  180.19   32.58
 -18   1  -3  228.81   32.67
 -18   1  -4   47.45   28.81
  18  -1  -4   24.08   30.18
  -1  18  -4   34.77   26.48
  18  -1  -5   76.43   33.13
  -1  18  -5  100.07   27.81
  -1  18  -6  223.68   33.54
 -18   1  -6  265.45   30.03
  -1  18  -7  154.24   31.18
 -18   1  -8   90.07   22.81
  -1  18  -8   55.14   24.61
  -1  18  -9  319.26   35.16
 -18   1  -9  345.51   30.75
 -18   1 -10  525.27   34.40
  -1  18 -10  570.92   42.79
 -18   1 -11  597.60   33.88
 -18   1 -12  415.19   27.34
   1 -18 -13  131.96  107.26
   1 -18 -14   20.56   76.25
   1 -18 -15   61.33   54.22
   1 -18 -16  107.01   39.78
  -2 -18 -16   86.02   38.66
  -2 -18 -15  147.89   58.73
  -2 -18 -14   32.94   75.33
 -18  -2 -12  267.66   24.51
 -18  -2 -11  503.33   33.15
 -18  -2 -10  293.95   29.89
 -18  -2  -9  163.05   27.01
 -18  -2  -8  253.76   33.79
 -18  -2  -7  107.79   30.01
  18   2  -5   31.41   29.99
  18   2  -4   44.70   27.25
  18   2  -3   99.05   40.98
 -18   2   3  185.42   25.87
  18   2  -2  180.37   48.97
  18  -2   2  166.18   50.98
  -2  18   2  158.24   35.33
 -18   2   2  137.16   23.53
  18  -2   1  731.22   95.45
  -2  18   1  900.94   53.06
 -18   2   1  738.71   38.85
  -2  18   0  306.65   40.79
 -18   2   0  287.33   32.08
  -2  18  -1  856.13   50.45
 -18   2  -1  763.71   43.17
  18  -2  -2  145.33   45.15
  -2  18  -2   99.46   28.98
 -18   2  -2  192.89   30.22
  18  -2  -3  142.14   43.99
  -2  18  -3  152.23   30.80
 -18   2  -3  169.14   28.31
 -18   2  -4  139.64   26.18
  18  -2  -4   99.30   40.59
  -2  18  -4   77.02   25.68
  18  -2  -5   56.70   35.90
  -2  18  -5   40.49   24.14
  -2  18  -6  153.62   30.62
 -18   2  -6  148.58   25.53
  -2  18  -7  172.69   29.29
 -18   2  -7  124.63   23.88
  -2  18  -8  214.52   30.57
 -18   2  -8  267.37   27.36
 -18   2  -9  195.06   25.07
  -2  18  -9  232.90   32.33
 -18   2 -10  318.62   27.11
  -2  18 -10  240.77   33.41
 -18   2 -11  637.22   33.54
 -18   2 -12  284.16   23.66
 -18   2 -13  165.82   17.21
   2 -18 -13  255.77  104.01
   2 -18 -14   62.88   65.81
   2 -18 -15   23.67   45.81
   2 -18 -16  101.95   34.71
  -3 -18 -16   14.54   34.26
  -3 -18 -15  121.42   53.72
  -3 -18 -14  138.34   72.43
 -18  -3 -12  337.79   25.42
 -18  -3 -11  217.16   25.98
 -18  -3 -10  216.10   29.42
 -18  -3  -8   73.95   28.07
  18   3  -5   14.31   28.38
  18   3  -4    8.08   26.72
  -3  18   3   -8.04   29.56
  18  -3   2  491.58   72.08
  -3  18   2  634.23   46.59
 -18   3   2  555.58   31.57
  18  -3   1   -0.24   29.32
 -18   3   1   -2.02   18.01
  -3  18   1   55.80   32.16
  18  -3   0 1050.49  101.30
  -3  18   0  972.74   51.41
  18  -3  -1    7.42   32.18
  -3  18  -1   15.59   28.76
  18  -3  -2  706.23   84.24
  -3  18  -2  633.86   42.56
 -18   3  -3   20.19   21.02
  18  -3  -3   16.65   31.01
  -3  18  -3  -12.44   22.59
 -18   3  -4   49.02   21.37
  18  -3  -4   42.95   34.59
  -3  18  -4    7.47   21.53
 -18   3  -5  105.10   22.94
  18  -3  -5   57.95   37.18
  -3  18  -5   59.73   23.61
 -18   3  -6   46.01   20.70
  -3  18  -6   69.41   24.51
  -3  18  -7  277.11   31.66
 -18   3  -7  262.12   26.97
 -18   3  -8  117.81   22.08
  -3  18  -8  117.31   27.69
 -18   3  -9  103.03   19.83
  -3  18  -9   32.05   23.65
 -18   3 -10  421.24   29.35
  -3  18 -10  463.85   36.90
 -18   3 -11  223.15   21.92
  -3  18 -11  213.33   30.97
 -18   3 -12  348.97   24.67
 -18   3 -13   94.03   14.61
   3 -18 -13   -3.49   74.70
   3 -18 -14  116.83   60.39
   3 -18 -15    6.70   39.22
  -4 -18 -16   82.93   34.09
  -4 -18 -15   90.54   46.45
  -4 -18 -14   85.74   61.06
 -18  -4 -12  202.94   22.24
 -18  -4 -11  197.20   24.67
 -18  -4 -10  127.87   26.07
 -18  -4  -9  224.64   32.18
  -4  18   4    2.31   28.59
  -4  18   3  196.76   35.08
 -18   4   2   51.75   17.95
  18  -4   2   30.78   34.35
  -4  18   2   72.19   30.39
  -4  18   1  677.36   44.91
 -18   4   1  636.04   33.43
 -18   4   0   63.94   20.09
  18  -4   0   86.30   37.30
  -4  18   0   64.06   28.81
  18  -4  -1  568.85   73.15
  -4  18  -1  670.65   41.98
 -18   4  -1  697.38   36.82
 -18   4  -2   30.68   20.54
  18  -4  -2   16.11   29.70
  -4  18  -2   -5.13   23.24
  18  -4  -3  222.08   49.95
  -4  18  -3  272.14   29.85
 -18   4  -3  297.84   27.59
 -18   4  -4   -7.31   18.17
  18  -4  -4   -4.06   31.95
  -4  18  -4   43.18   22.16
 -18   4  -5   65.51   20.73
  -4  18  -5   35.23   22.12
  -4  18  -6  166.68   53.06
 -18   4  -6  223.08   25.44
  -4  18  -6  225.54   29.72
  -4  18  -7  100.55   46.88
 -18   4  -7  178.92   23.68
  -4  18  -7  152.48   27.57
  -4  18  -8  118.42   46.91
 -18   4  -8   76.50   19.04
  -4  18  -8   64.87   23.16
  -4  18  -9  286.59   54.81
 -18   4  -9  334.96   26.13
  -4  18  -9  336.51   32.53
 -18   4 -10  125.74   20.80
  -4  18 -10   47.19   39.49
  -4  18 -10   95.19   28.07
 -18   4 -11  262.29   22.78
  -4  18 -11  245.75   29.25
 -18   4 -12  154.97   18.64
  -4  18 -12  230.41   27.75
 -18   4 -13  158.98   16.38
   4 -18 -13  238.33   72.34
   4 -18 -14   37.51   46.30
   4 -18 -15   88.43   35.29
  -5 -18 -16   45.77   28.18
  -5 -18 -15   38.57   39.78
  -5 -18 -14  159.11   58.39
 -18  -5  -9   41.66   27.00
  -5  18   4   58.62   30.12
  -5  18   3   52.21   27.93
  18  -5   2  148.16   44.23
 -18   5   2  224.49   21.52
  -5  18   2  190.10   31.31
  18  -5   1   92.37   40.51
  -5  18   1  147.82   29.56
 -18   5   1   76.93   19.25
 -18   5   0  551.70   32.42
  -5  18   0  599.97   40.26
 -18   5  -1  118.62   22.34
  18  -5  -1  113.16   44.62
  -5  18  -1  110.44   26.90
   5 -18  -2  133.65   65.26
  18  -5  -2  181.11   48.60
 -18   5  -2  242.56   25.57
  -5  18  -2  222.42   28.72
 -18   5  -3   27.00   17.90
  -5  18  -3   38.02   21.75
   5 -18  -3   37.85   50.59
  18  -5  -3   46.98   36.76
 -18   5  -4   61.14   20.10
  -5  18  -4   84.76   23.58
  18  -5  -4   35.79   32.23
   5 -18  -4   13.07   43.12
  -5  18  -5  153.05   49.25
 -18   5  -5  238.50   24.95
  -5  18  -5  222.09   28.23
  -5  18  -6  202.50   49.93
 -18   5  -6  271.20   25.12
  -5  18  -6  195.81   28.69
  -5  18  -7  163.94   48.40
  -5  18  -7  154.90   25.21
 -18   5  -8  323.97   27.09
  -5  18  -8  328.59   32.02
  -5  18  -9   15.37   36.52
 -18   5  -9   59.02   17.26
  -5  18  -9   23.82   21.02
 -18   5 -10  116.77   18.67
  -5  18 -10   94.96   41.12
  -5  18 -10   53.38   21.55
 -18   5 -11  162.85   20.13
  -5  18 -11  188.64   45.52
  -5  18 -11  155.47   25.97
 -18   5 -12  147.22   17.61
   5 -18 -12  155.81   67.77
  -5  18 -12  154.63   42.43
  -5  18 -12  151.71   24.55
   5 -18 -13   61.57   50.79
 -18   5 -13   51.52   12.14
   5 -18 -14   75.46   39.32
   5 -18 -15    7.79   24.37
  -6 -18 -15   42.83   36.40
  -6 -18 -14   52.17   46.86
  -6 -18 -13   65.06   60.52
 -18  -6 -11   29.50   19.74
 -18  -6 -10   67.86   26.06
  -6  18   3   19.49   25.43
 -18   6   2   67.86   16.27
  -6  18   2   86.84   26.02
  18  -6   1   96.91   38.67
 -18   6   1  130.07   19.79
  -6  18   1  121.33   26.32
  18  -6   0  146.69   54.36
 -18   6   0  160.92   21.95
  -6  18   0  144.98   28.93
  -6  18  -1   92.04   24.31
  18  -6  -1   96.94   40.31
 -18   6  -1  131.49   21.56
  -6  18  -2   70.03   22.90
  18  -6  -2   28.41   31.02
 -18   6  -2   72.98   19.75
  -6  18  -3   44.51   20.72
  18  -6  -3    6.13   31.06
   6 -18  -3   -5.41   48.48
 -18   6  -3   48.60   18.69
 -18   6  -4  215.51   23.64
  -6  18  -4  205.92   26.98
  -6  18  -5  129.83   46.29
  -6  18  -5  193.37   28.07
 -18   6  -6  403.72   28.46
  -6  18  -6  343.72   31.73
  -6  18  -7  281.71   54.28
 -18   6  -7  349.05   30.32
  -6  18  -7  270.45   29.56
  -6  18  -8   64.11   21.58
  -6  18  -8   22.58   34.82
 -18   6  -8   89.01   18.60
  -6  18  -9    8.74   33.83
 -18   6  -9   66.70   16.58
  -6  18  -9   52.67   20.19
 -18   6 -10  114.05   18.71
  -6  18 -10   66.06   36.88
  -6  18 -10   68.05   21.23
 -18   6 -11   90.73   16.34
   6 -18 -11   -1.24   55.80
  -6  18 -11   26.07   35.04
  -6  18 -11   20.89   20.25
 -18   6 -12   74.19   15.01
   6 -18 -12   77.06   51.60
  -6  18 -12  114.49   38.38
  -6  18 -12   56.70   19.93
 -18   6 -13   78.56   13.60
   6 -18 -13   60.88   36.36
  -7 -18 -15   56.18   32.01
  -7 -18 -14  103.47   42.33
  -7 -18 -13    3.00   48.67
 -18  -7 -11   66.07   21.78
 -18  -7 -10    4.55   22.61
  -7  18   3   66.07   26.51
 -18   7   2   30.67   14.68
  -7  18   2   11.60   22.10
 -18   7   1   72.16   17.05
  -7  18   1   70.06   23.79
  -7  18   0   33.16   21.60
  18  -7   0   10.89   29.65
 -18   7   0   47.46   17.26
  -7  18  -1   53.20   22.32
 -18   7  -1   86.06   18.58
  -7  18  -2   24.66   20.00
  18  -7  -2   34.41   29.61
 -18   7  -2   53.94   18.29
  -7  18  -3   67.28   21.00
   7 -18  -3   16.75   49.61
 -18   7  -3   82.54   18.91
  -7  18  -4   72.72   22.57
 -18   7  -4   83.40   18.41
  -7  18  -5  785.25   71.44
 -18   7  -5  795.47   38.37
  -7  18  -5  862.37   42.83
  -7  18  -6   46.45   38.89
 -18   7  -6   96.65   18.66
 -18   7  -7  484.22   30.27
  -7  18  -7  517.89   59.84
  -7  18  -7  491.34   35.08
  -7  18  -8   21.09   18.49
  -7  18  -8   16.68   33.49
 -18   7  -8   33.71   15.66
  -7  18  -9    4.20   17.35
  -7  18  -9   10.57   32.70
 -18   7  -9   30.16   14.62
  -7  18 -10   -1.14   32.10
 -18   7 -10   17.83   13.13
  -7  18 -10   18.13   18.64
 -18   7 -11   53.13   14.50
  -7  18 -11   35.23   34.14
  -7  18 -11   26.55   18.33
 -18   7 -12   42.13   12.94
  -7  18 -12   33.85   32.96
  -7  18 -12    5.24   16.93
 -18   7 -13   54.75   13.01
  -7  18 -13   -6.15   28.27
  -8 -18 -14    9.95   32.63
  -8 -18 -13   62.43   44.05
 -18  -8 -11   -4.46   18.88
  -8  18   3    8.57   21.91
 -18   8   2   12.47   13.66
  -8  18   2  -11.53   20.01
  -8  18   1   40.26   21.19
 -18   8   1   44.72   15.95
 -18   8   0  122.69   18.26
  -8  18   0  100.29   24.21
  -8  18  -1   48.78   20.66
 -18   8  -1   59.10   17.84
  -8  18  -2    0.17   18.25
 -18   8  -2   16.95   16.20
  -8  18  -3    0.98   17.54
 -18   8  -3   28.72   15.97
 -18   8  -4  868.67   37.95
  -8  18  -4  850.19   42.17
  -8  18  -5  -20.72   17.42
 -18   8  -5   11.01   15.61
 -18   8  -6  964.41   39.16
  -8  18  -6  913.96   74.85
  -8  18  -6  991.28   44.42
  -8  18  -7  -24.40   18.67
  -8  18  -7  -35.60   38.57
 -18   8  -7   -5.67   13.46
 -18   8  -8  274.53   23.60
  -8  18  -8  303.75   49.41
  -8  18  -8  320.03   28.66
  -8  18  -9   34.11   17.92
 -18   8  -9   31.14   14.50
  -8  18  -9   68.45   36.55
 -18   8 -10   16.24   12.85
  -8  18 -10   -9.67   30.60
  -8  18 -10    3.59   16.09
 -18   8 -11   25.37   12.67
  -8  18 -11   51.25   37.01
  -8  18 -11   20.89   17.08
 -18   8 -12   15.29   11.32
  -8  18 -12    4.25   27.92
  -8  18 -12    7.15   15.61
 -18   8 -13    4.73    9.29
  -8  18 -13   10.11   27.55
  -9 -18 -14   13.82   27.39
  -9 -18 -13   13.62   36.53
 -18  -9 -11  -23.13   19.20
  -9  18   3  261.12   33.53
 -18   9   2   13.73   13.44
  -9  18   2   -6.76   19.01
  -9  18   1   48.74   20.93
 -18   9   1   27.22   14.10
  -9  18   0   95.37   21.52
 -18   9   0   94.59   17.90
  -9  18  -1   56.04   19.72
 -18   9  -1   32.63   15.56
  -9  18  -2   20.10   19.10
 -18   9  -2   28.37   15.87
 -18   9  -3  433.73   28.42
  -9  18  -3  380.64   31.40
  -9  18  -4   14.41   18.78
  -9  18  -4  -11.91   39.72
 -18   9  -4   23.42   15.63
 -18   9  -5  893.23   38.48
  -9  18  -5  903.16   42.26
  -9  18  -6  -35.62   18.11
  -9  18  -6  -40.00   37.83
 -18   9  -6   29.32   15.41
 -18   9  -7  638.66   32.11
  -9  18  -7  666.51   37.10
  -9  18  -8   28.60   17.49
 -18   9  -8   59.19   16.10
  -9  18  -8    2.79   30.81
  -9  18  -9   80.05   19.53
 -18   9  -9  101.03   17.19
  -9  18  -9   57.52   36.53
  -9  18 -10   -3.80   15.23
 -18   9 -10   21.81   12.78
  -9  18 -10   -6.44   29.69
 -18   9 -11   13.22   11.97
  -9  18 -11  -10.75   29.02
  -9  18 -11   11.59   15.85
 -18   9 -12   23.51   11.41
  -9  18 -12   19.00   28.20
  -9  18 -12   -2.12   13.75
 -18   9 -13    6.28    8.97
  -9  18 -13    4.78   24.45
 -18   9 -15   63.58   21.23
 -10 -18 -13   26.73   30.68
 -10 -18 -12   19.49   38.55
 -10  18   2   48.43   21.33
 -18  10   2   70.01   15.60
 -10  18   1   11.57   18.74
 -18  10   1   25.42   13.52
 -10  18   0   89.18   20.38
 -18  10   0   85.22   16.67
 -10  18  -1   17.35   17.71
 -18  10  -1   50.23   16.39
 -10  18  -2   66.60   19.90
 -18  10  -2  103.46   18.59
 -10  18  -3  107.87   21.53
 -18  10  -3  116.65   19.08
 -18  10  -4  406.75   27.61
 -10  18  -4  296.26   49.27
 -10  18  -4  333.16   28.52
 -10  18  -5   54.55   20.09
 -18  10  -5   70.42   16.98
 -18  10  -6  501.21   29.02
 -10  18  -6  426.09   31.56
 -10  18  -7  -12.53   15.78
 -18  10  -7   56.41   16.29
 -10  18  -7  -12.50   30.78
 -18  10  -8  184.64   20.29
 -10  18  -8  140.36   41.97
 -10  18  -8  148.11   22.06
 -10  18  -9  -11.11   16.00
 -18  10  -9   -2.79   12.10
 -10  18  -9   -3.98   28.93
 -10  18 -10   24.30   16.12
 -18  10 -10   39.32   13.69
 -10  18 -10   26.85   30.36
 -18  10 -11   28.79   12.15
 -10  18 -11   16.68   29.10
 -10  18 -11   14.12   14.65
 -18  10 -12   18.55   10.49
 -10  18 -12    0.15   25.20
 -10  18 -12   -5.25   13.04
 -18  10 -13   40.87   10.08
 -10  18 -13   52.56   26.59
 -18  10 -14   29.43   19.42
 -11 -18 -12   48.40   32.83
 -11  18   2   69.52   20.08
 -11  18   1  -16.09   19.61
 -18  11   1   23.46   13.60
 -11  18   0   31.42   17.59
 -18  11   0  108.34   17.94
 -11  18  -1  -33.63   19.12
 -18  11  -1   25.12   14.75
 -11  18  -2   81.83   19.81
 -18  11  -2   98.97   17.77
 -11  18  -3   25.80   16.57
 -18  11  -3   64.35   17.35
 -11  18  -4   92.32   19.93
 -18  11  -4   96.64   17.46
 -11  18  -5   55.12   18.11
 -18  11  -5   81.85   17.53
 -11  18  -5   42.29   32.27
 -11  18  -6   53.08   19.93
 -18  11  -6   63.62   17.06
 -11  18  -7   44.81   17.50
 -18  11  -7   81.03   16.84
 -11  18  -7   30.64   31.23
 -11  18  -8   -0.43   15.43
 -18  11  -8   22.08   13.65
 -11  18  -8   14.22   31.53
 -11  18  -9    8.14   14.78
 -18  11  -9   26.65   13.49
 -11  18  -9   29.23   30.20
 -11  18 -10   15.70   14.24
 -18  11 -10   74.90   14.71
 -11  18 -10   51.16   30.28
 -18  11 -11   28.70   11.95
 -11  18 -11   -3.28   24.92
 -11  18 -11   -0.42   13.24
 -18  11 -12  180.51   16.28
 -11  18 -12  145.58   32.19
 -18  11 -12  137.61   27.76
 -11  18 -12  134.01   17.33
 -18  11 -13  -13.20    8.86
 -11  18 -13   19.37   22.15
 -18  11 -13    6.08   18.41
 -18  11 -14   43.70   21.24
 -12  18   2  -21.69   17.78
 -18  12   1  395.06   26.96
 -12  18   1  330.00   28.17
 -12  18   0   18.09   16.65
 -18  12   0   88.45   16.59
 -18  12  -1  460.76   29.70
 -12  18  -1  397.97   30.33
 -12  18  -2   -6.15   16.31
 -18  12  -2   -1.03   14.26
 -12  18  -3  103.00   19.85
 -18  12  -3  119.58   18.92
 -12  18  -4   -6.25   15.31
 -18  12  -4    3.79   14.24
 -12  18  -5   -8.07   16.32
 -18  12  -5   13.91   13.48
 -12  18  -5  -16.79   30.62
 -12  18  -6  -28.61   17.03
 -18  12  -6   15.40   13.91
 -12  18  -6  -45.59   31.52
 -12  18  -7   42.73   16.30
 -18  12  -7   35.15   14.61
 -12  18  -7   28.07   29.83
 -12  18  -8   -7.60   14.36
 -18  12  -8   12.59   12.64
 -12  18  -8   -1.83   28.64
 -12  18  -9   81.97   17.06
 -18  12  -9  134.60   17.07
 -12  18  -9   70.63   30.65
 -18  12  -9  100.72   26.84
 -12  18 -10  -22.79   14.38
 -18  12 -10   18.23   11.70
 -12  18 -10  -15.80   27.20
 -18  12 -10   -5.12   19.61
 -18  12 -11  314.89   20.71
 -12  18 -11  293.01   38.94
 -18  12 -11  297.92   35.04
 -12  18 -11  246.07   21.25
 -18  12 -12   12.28    9.34
 -12  18 -12   -3.95   22.63
 -18  12 -12   25.01   20.66
 -12  18 -13  114.19   28.25
 -18  12 -13  130.18   26.07
 -13  18   2  212.41   26.15
 -13  18   1  -14.57   18.33
 -18  13   1   23.78   13.32
 -18  13   0  969.73   38.69
 -13  18   0  870.65   39.91
 -13  18  -1    7.01   16.94
 -18  13  -1   29.63   14.46
 -18  13  -2  378.83   27.19
 -13  18  -2  308.85   26.70
 -13  18  -3   12.44   15.84
 -18  13  -3    5.48   14.65
 -13  18  -4    8.27   15.13
 -18  13  -4   12.89   14.77
 -13  18  -5   42.08   16.09
 -18  13  -5   78.29   17.21
 -13  18  -6   12.09   14.31
 -18  13  -6    7.76   13.45
 -13  18  -6    1.21   28.15
 -13  18  -7    2.79   13.57
 -18  13  -7    4.19   12.41
 -13  18  -7   11.36   27.12
 -18  13  -8   87.70   15.49
 -13  18  -8   64.36   16.00
 -13  18  -8   62.58   30.51
 -18  13  -8   85.94   26.48
 -13  18  -9   -8.20   13.31
 -18  13  -9   11.83   11.64
 -13  18  -9   -5.62   25.46
 -18  13  -9    7.38   20.57
 -18  13 -10  346.61   22.04
 -13  18 -10  307.62   40.02
 -18  13 -10  319.12   36.90
 -13  18 -10  290.20   22.01
 -13  18 -11  -24.03   13.26
 -18  13 -11   26.79   10.79
 -13  18 -11   23.24   23.75
 -18  13 -11   33.85   21.33
 -13  18 -12  258.64   35.82
 -18  13 -12  239.01   33.70
 -13  18 -12  265.97   19.14
 -18  13 -12  315.43   18.48
 -18  14   1  690.26   31.62
 -14  18   1  639.18   33.64
 -14  18   0   13.58   15.70
 -18  14   0   38.26   13.94
 -18  14  -1  781.13   35.23
 -14  18  -1  676.45   34.97
 -14  18  -2  -28.98   17.56
 -18  14  -2  -11.04   14.69
 -18  14  -3  111.50   18.33
 -14  18  -3   79.00   18.23
 -14  18  -4   40.94   16.53
 -18  14  -4   46.19   14.95
 -14  18  -5   35.28   16.62
 -18  14  -5    8.78   13.87
 -14  18  -6   11.23   13.88
 -18  14  -6   20.18   13.62
 -14  18  -7   11.18   13.22
 -18  14  -7    0.80   12.04
 -14  18  -7  -13.44   26.04
 -14  18  -8   16.25   13.42
 -18  14  -8   25.35   12.74
 -14  18  -8    4.94   25.04
 -18  14  -9  218.34   18.86
 -14  18  -9  165.36   34.87
 -18  14  -9  195.51   29.40
 -14  18  -9  178.79   18.93
 -14  18 -10   13.20   11.50
 -18  14 -10   51.20   12.09
 -14  18 -10   44.37   24.77
 -18  14 -10   39.90   22.32
 -14  18 -11  283.45   36.29
 -18  14 -11  336.19   36.02
 -14  18 -11  319.13   21.15
 -18  14 -11  379.09   21.03
 -15  18   1   52.07   16.25
 -18  15   1   69.00   14.45
 -18  15   0  581.09   30.26
 -15  18   0  543.24   31.23
 -15  18  -1   47.77   16.09
 -18  15  -1   51.71   14.66
 -18  15  -2  284.64   23.66
 -15  18  -2  239.56   23.35
 -15  18  -3    5.51   14.07
 -18  15  -3    8.66   13.02
 -15  18  -4    4.73   13.80
 -18  15  -4    3.48   12.94
 -15  18  -5    1.61   13.35
 -18  15  -5    8.91   12.55
 -15  18  -6   31.35   13.73
 -18  15  -6   24.18   13.12
 -15  18  -7   17.44   13.12
 -18  15  -7   40.88   13.94
 -15  18  -8   43.84   13.48
 -18  15  -8   45.61   12.74
 -15  18  -8    7.95   23.44
 -15  18  -9   61.95   13.52
 -15  18  -9   67.38   25.71
 -18  15  -9   91.95   13.68
 -15  18 -10  157.60   28.59
 -18  15 -10  172.75   27.79
 -15  18 -10  213.80   18.25
 -18  15 -10  216.90   17.41
 -16  18   1  149.27   20.17
 -16  18   0  131.91   18.69
 -18  16   0  155.69   17.84
 -16  18  -1  161.78   20.36
 -18  16  -1  202.84   21.35
 -16  18  -2   56.45   15.98
 -18  16  -2   56.45   14.67
 -16  18  -3   10.42   13.46
 -18  16  -3   11.22   12.99
 -16  18  -4    7.33   12.79
 -18  16  -4   13.30   13.12
 -16  18  -5   19.31   13.02
 -18  16  -5   18.62   12.88
 -16  18  -6   20.35   12.75
 -18  16  -6   19.98   12.30
 -16  18  -7   -2.97   11.07
 -18  16  -7    5.99   10.91
 -16  18  -8  106.06   15.19
 -18  16  -8  129.98   15.52
 -16  18  -9   52.17   12.44
 -18  16  -9   43.64   11.86
 -16  18 -10   96.26   13.48
 -18  16 -10  106.98   13.26
 -17  18   0   43.40   15.61
 -18  17   0   62.55   15.69
 -17  18  -1  152.42   18.98
 -18  17  -1  189.86   19.15
 -17  18  -2    4.16   13.34
 -18  17  -2   11.35   12.71
 -17  18  -3   62.34   15.35
 -18  17  -3   54.19   14.49
 -17  18  -4    0.85   11.94
 -18  17  -4    9.94   12.07
 -17  18  -5   54.08   14.39
 -18  17  -5   42.10   13.65
 -17  18  -6    7.92   11.32
 -18  17  -6    8.53   11.65
 -17  18  -7  123.84   15.70
 -18  17  -7   99.58   15.29
 -17  18  -8  -13.98   10.43
 -18  17  -8  -10.37   10.41
 -17  18  -9  121.71   14.27
 -18  17  -9  128.19   14.22
 -18  18   0   86.70   14.74
 -18  18  -1   14.23   12.76
 -18  18  -2  100.54   16.11
 -18  18  -3  -25.96   13.32
 -18  18  -4   89.97   15.67
 -18  18  -5   -5.35   10.73
 -18  18  -6  100.87   15.23
 -18  18  -7    5.40    9.90
 -18  18  -8   82.38   12.75
 -19   0   0  717.06   45.58
 -19   0  -1  642.97   46.91
  19   0  -1  539.55   79.19
   0  19  -1  669.74   54.36
 -19   0   1  669.71   42.42
 -19   0  -2  219.25   34.33
  19   0  -2  154.02   49.05
   0  19  -2  206.68   39.26
 -19   0   2  201.89   27.76
   0  19  -3  297.67   39.51
 -19   0  -3  417.79   38.24
 -19   0  -4  105.87   29.56
   0  19  -4   74.20   30.91
   0  19  -5  123.80   31.47
   0  19  -6  622.62   46.20
 -19   0  -6  709.28   49.55
   0  19  -7  110.66   30.12
 -19   0  -8   87.08   23.92
 -19   0  -9  476.95   34.44
 -19   0 -10  424.12   33.38
 -19   0 -11  577.36   35.36
 -19   0 -12  334.62   24.39
   0 -19 -13  120.68   92.70
   0 -19 -14  -39.19   60.19
   0 -19 -15  143.65   48.30
  -1 -19 -15   41.85   45.67
  -1 -19 -14  134.27   67.50
  -1 -19 -13   -6.04   85.73
 -19  -1 -12  363.43   25.72
 -19  -1 -11  586.15   33.08
 -19  -1 -10  566.89   36.15
 -19  -1  -9  316.64   29.93
 -19  -1  -7  259.33   32.44
 -19  -1  -6  547.54   52.00
 -19  -1  -5  322.70   36.63
 -19  -1  -4  241.12   34.21
 -19   1   3   94.87   20.97
  19   1  -2  350.48   64.89
 -19   1   2  336.61   30.68
  19  -1   0  560.03   82.87
  -1  19   0  701.29   55.48
  -1  19  -1  710.52   53.05
 -19   1  -1  763.11   46.07
  19  -1  -1  597.24   81.09
  -1  19  -2  307.54   40.91
  19  -1  -2  329.11   64.74
  -1  19  -3  143.10   33.81
  -1  19  -4  121.65   32.09
 -19   1  -4  290.03   31.32
  -1  19  -5  178.92   34.45
 -19   1  -5  317.19   32.24
  -1  19  -6  346.18   41.30
  -1  19  -7  241.39   33.98
 -19   1  -7  320.89   30.58
 -19   1  -8  123.88   24.02
  -1  19  -8  144.87   29.06
  -1  19  -9  307.48   35.53
 -19   1  -9  325.25   29.02
 -19   1 -10  615.14   35.18
 -19   1 -11  601.28   32.44
 -19   1 -12  424.46   27.03
   1 -19 -13  145.89   86.92
   1 -19 -14   87.84   60.67
   1 -19 -15   32.72   39.88
  -2 -19 -15   78.52   44.32
  -2 -19 -14   58.86   63.70
  -2 -19 -13  108.28   83.97
 -19  -2 -12  317.40   24.02
 -19  -2 -11  335.62   29.65
 -19  -2 -10  581.13   35.53
 -19  -2  -8   42.10   23.53
 -19  -2  -7  248.21   34.09
 -19  -2  -6  613.47   44.31
  19  -2   1  143.41   53.45
  -2  19   1  223.00   43.27
 -19   2   1  221.37   27.73
  19  -2   0  938.81   96.72
 -19   2   0 1093.61   45.83
  -2  19  -1  213.29   39.50
 -19   2  -1  202.81   31.48
  19  -2  -1  143.09   52.57
  -2  19  -2  535.19   45.08
 -19   2  -2  476.91   34.65
 -19   2  -3   34.31   23.18
  -2  19  -3   38.46   27.13
  -2  19  -4   79.40   27.00
  -2  19  -5  150.22   31.61
 -19   2  -5  179.90   27.85
  -2  19  -6  319.73   37.26
 -19   2  -6  348.83   31.53
  -2  19  -7  273.80   34.31
 -19   2  -7  294.94   28.55
 -19   2  -8    5.04   17.61
  -2  19  -8   80.76   26.86
 -19   2  -9  178.16   24.00
  -2  19  -9  102.79   28.24
 -19   2 -10  588.77   34.81
  -2  19 -10  558.71   42.43
 -19   2 -11  379.97   26.92
 -19   2 -12  415.98   25.89
   2 -19 -13   77.42   72.12
   2 -19 -14   20.03   52.41
   2 -19 -15   94.61   39.95
  -3 -19 -15   26.87   39.52
  -3 -19 -14   72.19   54.51
  -3 -19 -13  222.67   81.28
 -19  -3 -12  181.62   21.45
 -19  -3 -11  425.26   30.20
 -19  -3 -10  161.46   25.14
 -19  -3  -9  236.47   29.83
 -19  -3  -8  134.55   29.87
 -19  -3  -7   28.39   27.28
 -19   3   2   25.65   17.62
  -3  19   2  120.19   35.19
  -3  19   1 1078.77   58.08
 -19   3   1 1077.00   41.96
  19  -3   0   54.66   45.75
  -3  19   0  179.86   40.62
 -19   3   0  105.47   25.80
  -3  19  -1 1239.40   57.76
 -19   3  -1 1277.54   47.80
 -19   3  -2   27.44   21.34
  19  -3  -2   50.52   40.98
  -3  19  -2    4.22   29.32
 -19   3  -3  131.94   24.67
  -3  19  -3  125.78   28.72
 -19   3  -4   72.87   21.90
  -3  19  -4   52.49   26.30
 -19   3  -5   67.82   21.81
  -3  19  -5   69.46   27.49
  -3  19  -6  385.47   38.78
 -19   3  -6  452.28   31.85
 -19   3  -7   89.12   21.82
  -3  19  -7   73.92   26.32
  -3  19  -8   93.28   26.64
 -19   3  -8   79.75   20.55
 -19   3  -9  316.77   26.95
  -3  19  -9  352.36   35.47
 -19   3 -10  164.61   21.31
  -3  19 -10  231.95   31.73
 -19   3 -11  494.80   28.81
 -19   3 -12  203.37   20.10
 -19   3 -13  133.98   15.57
   3 -19 -13  239.78   72.36
   3 -19 -14   23.78   43.55
   3 -19 -15    0.73   27.75
  -4 -19 -15   47.74   37.13
  -4 -19 -14   50.49   50.11
  -4 -19 -13   28.18   64.55
 -19  -4 -12  206.92   20.46
 -19  -4 -11  210.81   24.88
 -19  -4  -9   51.11   24.96
 -19  -4  -8  189.97   31.99
  -4  19   3   30.05   29.09
 -19   4   2  356.17   24.93
  -4  19   2  317.74   38.17
 -19   4   1   57.06   19.60
  19  -4   1   70.75   42.86
  -4  19   0 1412.24   60.94
 -19   4   0 1340.21   47.13
  -4  19  -1  143.14   34.72
 -19   4  -1  116.17   23.34
  -4  19  -2  344.51   34.24
 -19   4  -2  372.58   30.60
 -19   4  -3    3.67   18.12
  -4  19  -3   17.78   22.61
 -19   4  -4   40.69   19.73
  -4  19  -4   75.59   25.89
 -19   4  -5  279.17   27.56
  -4  19  -5  282.08   33.33
 -19   4  -6  137.11   23.85
  -4  19  -6  140.24   31.21
 -19   4  -7  215.40   24.49
  -4  19  -7  152.85   29.50
 -19   4  -8  254.77   24.93
  -4  19  -8  197.55   30.94
 -19   4  -9   34.60   16.70
  -4  19  -9   73.08   25.28
 -19   4 -10  284.76   24.36
  -4  19 -10  246.58   30.42
 -19   4 -11  196.22   21.43
  -4  19 -11  222.32   29.76
 -19   4 -12  253.86   20.90
   4 -19 -12  206.54   73.49
   4 -19 -13   91.93   51.66
 -19   4 -13   50.43   11.89
   4 -19 -14   77.94   37.26
  -5 -19 -15   48.29   33.16
  -5 -19 -14  -12.06   41.94
  -5 -19 -13   96.29   58.12
 -19  -5 -12  102.55   17.11
 -19  -5 -11  152.44   22.29
 -19  -5 -10  105.03   24.50
 -19  -5  -9  112.35   28.37
  -5  19   3   67.08   29.53
 -19   5   2   94.16   18.36
  -5  19   2   94.44   29.21
 -19   5   1  384.91   26.37
  -5  19   1  473.39   40.91
 -19   5   0  286.61   27.84
  -5  19   0  478.51   42.10
 -19   5  -1  446.65   31.30
  -5  19  -1  416.80   36.52
 -19   5  -2   94.94   21.94
  -5  19  -2   68.81   25.88
  -5  19  -3   57.50   23.23
 -19   5  -3   84.37   20.90
 -19   5  -4  212.04   25.22
  -5  19  -4  208.70   29.74
 -19   5  -5  206.74   25.41
  -5  19  -5  127.26   28.08
 -19   5  -6  265.66   26.56
  -5  19  -6  251.47   30.38
 -19   5  -7  354.39   27.94
  -5  19  -7  293.48   34.24
 -19   5  -8   46.89   16.71
  -5  19  -8   17.19   22.70
 -19   5  -9  140.96   21.28
  -5  19  -9  126.71   25.97
 -19   5 -10  140.57   19.57
  -5  19 -10  103.16   25.26
 -19   5 -11  198.07   20.22
  -5  19 -11  183.27   26.72
 -19   5 -12  101.21   16.05
   5 -19 -12   60.17   51.61
  -5  19 -12   87.94   20.50
 -19   5 -13   93.05   13.22
   5 -19 -13  119.29   41.63
   5 -19 -14    4.67   25.75
  -6 -19 -14   25.81   37.28
  -6 -19 -13   32.33   49.30
 -19  -6 -11  129.99   22.14
 -19  -6 -10   24.36   21.13
 -19  -6  -9   20.20   24.31
  -6  19   3   41.65   28.20
 -19   6   2   84.05   17.21
  -6  19   2  104.01   29.51
 -19   6   1  259.30   22.87
  -6  19   1  317.22   35.09
 -19   6   0  139.06   21.33
  -6  19   0  117.36   31.22
 -19   6  -1  302.27   27.51
  -6  19  -1  286.46   33.14
 -19   6  -2   98.10   21.14
  -6  19  -2   44.61   23.50
  -6  19  -3   29.82   21.27
 -19   6  -3   76.46   19.69
 -19   6  -4  136.06   22.03
  -6  19  -4  116.08   26.75
 -19   6  -5  581.32   34.15
  -6  19  -5  456.58   35.57
 -19   6  -6  196.46   23.13
  -6  19  -6  119.77   27.20
 -19   6  -7  227.31   24.63
  -6  19  -7  282.98   30.84
 -19   6  -8  116.64   19.39
  -6  19  -8   47.11   42.02
  -6  19  -8   82.68   24.11
  -6  19  -9    8.75   36.02
 -19   6  -9   42.41   15.86
  -6  19  -9    9.29   20.48
 -19   6 -10   81.59   16.92
  -6  19 -10   30.59   21.62
 -19   6 -11  165.48   19.01
   6 -19 -11   91.29   49.50
  -6  19 -11   71.39   22.63
 -19   6 -12   96.06   15.10
  -6  19 -12   29.34   17.55
 -19   6 -13   14.65    9.91
  -7 -19 -14   35.72   33.62
  -7 -19 -13   51.87   43.97
  -7  19   3   63.85   27.73
 -19   7   2   18.50   13.53
  -7  19   2  -10.41   23.41
 -19   7   1   35.70   15.90
  -7  19   1  -10.35   23.31
 -19   7   0  460.45   28.53
  -7  19   0  374.59   35.88
 -19   7  -1   61.01   19.13
  -7  19  -1   -9.86   22.53
  -7  19  -2   -7.11   21.19
 -19   7  -2   10.71   15.82
  -7  19  -3   72.81   23.44
 -19   7  -3   95.37   20.06
 -19   7  -4  703.11   36.32
  -7  19  -4  664.58   40.34
  -7  19  -5  -22.03   19.74
 -19   7  -5   55.63   17.47
 -19   7  -6  746.27   36.43
  -7  19  -6  782.70   43.59
  -7  19  -7   27.37   21.45
  -7  19  -7   20.09   35.48
 -19   7  -7   40.27   16.47
 -19   7  -8  120.57   19.03
  -7  19  -8  107.97   43.28
  -7  19  -8  150.75   25.60
  -7  19  -9   34.20   35.72
 -19   7  -9   47.91   15.60
  -7  19  -9   22.33   19.50
  -7  19 -10    4.29   32.01
 -19   7 -10   56.22   15.03
  -7  19 -10   25.93   19.72
 -19   7 -11   64.43   14.45
  -7  19 -11   -0.48   18.88
 -19   7 -12   30.90   11.95
  -7  19 -12   27.53   18.13
 -19   7 -13   10.78    9.47
  -8 -19 -14   73.68   34.42
  -8 -19 -13   29.51   35.99
 -19  -8 -11  -21.32   15.88
 -19  -8 -10   41.82   22.42
  -8  19   3  302.06   35.46
 -19   8   2   39.70   14.38
  -8  19   2   38.04   23.91
 -19   8   1  124.38   18.15
  -8  19   1  110.43   25.04
 -19   8   0   85.74   18.19
  -8  19   0   44.76   23.36
  -8  19  -1  126.83   24.78
 -19   8  -1  120.62   19.48
  -8  19  -2    2.13   20.01
 -19   8  -2   44.78   17.18
 -19   8  -3  378.12   27.75
  -8  19  -3  337.22   31.30
  -8  19  -4  -55.25   20.76
 -19   8  -4  -13.68   15.50
 -19   8  -5 1018.67   40.44
  -8  19  -5  980.78   45.65
  -8  19  -6  -42.39   19.25
  -8  19  -6  -76.71   42.81
 -19   8  -6    2.95   14.38
 -19   8  -7  689.90   33.43
  -8  19  -7  693.43   39.53
  -8  19  -8    5.36   18.57
  -8  19  -8   22.10   33.03
 -19   8  -8   41.89   15.82
  -8  19  -9    4.81   31.44
 -19   8  -9   27.89   14.06
  -8  19  -9   19.84   19.07
 -19   8 -10   30.98   13.23
  -8  19 -10  -17.83   31.38
  -8  19 -10   26.18   18.51
 -19   8 -11   32.80   12.66
  -8  19 -11   28.41   32.76
  -8  19 -11   33.22   18.17
 -19   8 -12   26.10   11.41
  -8  19 -12   -6.80   14.62
 -19   8 -13   -3.08    8.82
  -9 -19 -13   14.28   28.02
  -9 -19 -12    0.70   36.75
 -19  -9 -11   20.55   15.07
 -19  -9 -10   -5.42   19.50
 -19   9   2  201.26   21.89
  -9  19   2   -3.74   20.11
 -19   9   1   13.49   13.32
  -9  19   1    6.62   19.47
 -19   9   0  134.06   19.34
  -9  19   0  158.51   24.80
  -9  19  -1   15.70   19.31
 -19   9  -1   22.39   14.62
  -9  19  -2  -18.96   18.35
 -19   9  -2   34.71   15.88
  -9  19  -3   -8.86   19.14
 -19   9  -3   28.19   16.50
 -19   9  -4  688.94   34.09
  -9  19  -4  658.21   38.64
  -9  19  -5  -54.25   19.96
 -19   9  -5   -0.58   14.61
 -19   9  -6 1087.97   40.62
  -9  19  -6  969.47   45.07
  -9  19  -7  -33.08   17.77
  -9  19  -7  -30.46   34.60
 -19   9  -7   17.33   14.01
 -19   9  -8  257.65   22.17
  -9  19  -8  216.43   45.70
  -9  19  -8  235.95   26.14
 -19   9  -9    4.68   12.31
  -9  19  -9   15.85   31.22
  -9  19  -9   18.08   16.75
 -19   9 -10   17.65   12.53
  -9  19 -10   -2.23   28.68
  -9  19 -10   -0.67   15.93
 -19   9 -11   33.43   12.20
  -9  19 -11   -6.61   27.46
  -9  19 -11   -9.42   15.09
 -19   9 -12   34.91   11.53
  -9  19 -12   -1.55   13.73
 -19   9 -13    1.66    8.24
 -19   9 -14   20.76   19.65
 -10 -19 -12   36.70   32.36
 -19 -10 -10  155.39   24.05
 -10  19   2   13.60   20.25
 -19  10   1   17.71   13.29
 -10  19   1   -6.44   18.93
 -10  19   0   28.09   20.63
 -19  10   0   92.19   16.92
 -10  19  -1    7.94   18.49
 -19  10  -1   30.83   15.41
 -10  19  -2    8.51   17.41
 -19  10  -2   16.44   14.86
 -10  19  -3   81.18   21.43
 -19  10  -3   77.34   16.97
 -10  19  -4   14.16   19.87
 -19  10  -4    5.72   14.50
 -19  10  -5  546.65   30.61
 -10  19  -5  525.74   34.14
 -10  19  -6  -16.45   16.76
 -19  10  -6   36.30   14.98
 -10  19  -6  -21.72   35.16
 -19  10  -7  339.20   24.48
 -10  19  -7  266.01   46.54
 -10  19  -7  337.93   28.09
 -10  19  -8  -11.88   16.48
 -19  10  -8    4.35   12.78
 -10  19  -8    0.97   29.82
 -10  19  -9   10.51   15.62
 -19  10  -9   10.33   12.49
 -10  19  -9   32.69   31.04
 -19  10 -10   33.17   13.02
 -10  19 -10  -24.70   29.15
 -10  19 -10    3.68   14.63
 -19  10 -11   33.23   11.98
 -10  19 -11    6.03   26.05
 -10  19 -11   -7.42   14.10
 -19  10 -12   54.75   11.99
 -10  19 -12   15.40   13.32
 -19  10 -13   11.88   18.53
 -19 -11 -10   30.51   17.72
 -11  19   2   19.62   19.73
 -19  11   1  142.89   18.90
 -11  19   1  122.71   23.40
 -19  11   0   20.15   14.18
 -11  19  -1  100.80   21.70
 -19  11  -1  181.64   21.05
 -11  19  -2   -6.74   18.05
 -19  11  -2   20.79   15.02
 -11  19  -3   18.84   17.59
 -19  11  -3   34.54   15.35
 -11  19  -4   61.24   19.30
 -19  11  -4  101.65   17.60
 -11  19  -5  -41.73   18.30
 -19  11  -5   35.04   15.72
 -11  19  -6  109.26   20.45
 -19  11  -6  154.57   20.08
 -11  19  -6  117.23   37.11
 -11  19  -7  -31.96   16.57
 -19  11  -7   25.07   14.10
 -11  19  -7    2.48   29.72
 -11  19  -8   31.83   16.75
 -19  11  -8   50.96   14.67
 -11  19  -8   12.40   29.97
 -11  19  -9   17.64   15.10
 -19  11  -9   32.22   13.26
 -11  19  -9   19.52   27.46
 -19  11 -10   19.44   11.64
 -11  19 -10   -8.69   25.75
 -11  19 -10  -20.05   14.50
 -19  11 -11  176.05   17.02
 -19  11 -11  172.34   28.20
 -11  19 -11  108.75   30.11
 -11  19 -11  120.95   18.37
 -19  11 -12    5.67    9.08
 -19  11 -12   18.94   19.13
 -11  19 -12  -20.10   12.67
 -19  11 -13   50.77   20.78
 -19 -12 -10   21.84   14.49
 -12  19   2  149.95   24.92
 -19  12   1   -5.53   13.28
 -19  12   0  521.38   29.93
 -12  19   0  393.60   31.49
 -19  12  -1   12.58   13.87
 -19  12  -2  234.83   22.99
 -12  19  -2  161.30   22.40
 -12  19  -3   -5.01   16.74
 -19  12  -3    9.96   14.39
 -12  19  -4   -6.19   16.61
 -19  12  -4    9.65   14.21
 -12  19  -5  -24.09   16.23
 -19  12  -5   13.46   14.30
 -12  19  -6  -34.81   16.93
 -19  12  -6   -4.97   13.15
 -12  19  -7  -16.09   15.57
 -19  12  -7    3.66   12.68
 -12  19  -7    8.40   28.98
 -12  19  -8    9.74   14.19
 -19  12  -8   42.95   13.85
 -12  19  -8   20.99   27.28
 -19  12  -8   33.48   22.09
 -12  19  -9  -16.46   13.81
 -19  12  -9    1.01   11.12
 -12  19  -9   -8.69   26.63
 -19  12  -9    9.42   19.91
 -19  12 -10  267.95   19.88
 -19  12 -10  255.47   33.02
 -12  19 -10  203.45   20.80
 -19  12 -11    1.02    9.83
 -19  12 -11   20.16   21.09
 -19  12 -12  222.37   29.56
 -19  13   1  577.00   28.58
 -13  19   1  495.65   32.31
 -19  13   0  -16.17   13.64
 -19  13  -1  622.91   31.39
 -13  19  -1  522.50   32.79
 -13  19  -2  -39.35   18.63
 -19  13  -2    6.36   15.16
 -13  19  -3   97.65   19.29
 -19  13  -3  125.23   19.17
 -13  19  -4   -0.53   15.49
 -19  13  -4   10.59   13.73
 -13  19  -5   52.30   17.30
 -19  13  -5    4.14   13.64
 -13  19  -6   -6.13   14.30
 -19  13  -6    5.61   12.84
 -13  19  -7    7.08   13.92
 -19  13  -7    2.67   11.74
 -13  19  -8    7.38   13.57
 -19  13  -8    1.80   11.41
 -13  19  -8   -3.51   26.53
 -19  13  -9  218.13   18.95
 -13  19  -9  172.08   34.38
 -19  13  -9  165.47   25.71
 -13  19  -9  175.00   19.47
 -19  13 -10    8.14   10.29
 -19  13 -10    6.43   19.83
 -19  13 -11  316.25   32.47
 -13  19 -11  314.86   21.12
 -19  13 -11  383.67   20.43
 -14  19   1  -39.40   18.13
 -19  14   1  -21.35   13.08
 -19  14   0  818.24   33.64
 -14  19   0  757.68   36.41
 -14  19  -1  -44.91   18.02
 -19  14  -1  -22.05   14.80
 -19  14  -2  398.69   26.44
 -14  19  -2  345.57   27.35
 -14  19  -3   -0.23   14.73
 -19  14  -3    5.45   13.15
 -14  19  -4   -5.77   14.69
 -19  14  -4  -12.61   13.59
 -14  19  -5   27.45   14.97
 -19  14  -5   37.44   14.44
 -14  19  -6   24.22   14.32
 -19  14  -6   40.02   13.70
 -14  19  -7    4.07   12.71
 -19  14  -7   14.55   12.21
 -14  19  -8   41.74   14.36
 -19  14  -8   50.07   12.86
 -14  19  -9  -22.91   13.03
 -19  14  -9   26.20   11.18
 -14  19 -10  258.26   20.18
 -19  14 -10  296.41   19.13
 -15  19   1  411.16   27.68
 -15  19   0  -15.21   15.50
 -19  15   0  -20.38   13.05
 -19  15  -1  531.72   28.41
 -15  19  -1  453.78   28.78
 -15  19  -2  -18.27   15.05
 -19  15  -2   -0.64   12.55
 -15  19  -3   30.11   15.40
 -19  15  -3   22.42   13.38
 -15  19  -4  -10.59   13.82
 -19  15  -4    4.24   12.23
 -15  19  -5   57.17   14.94
 -19  15  -5   63.81   14.54
 -15  19  -6   -4.38   12.74
 -19  15  -6    8.18   11.69
 -15  19  -7    0.47   11.89
 -19  15  -7   -6.19   11.14
 -15  19  -8   22.22   12.34
 -19  15  -8   30.92   11.69
 -15  19  -9   97.93   14.83
 -19  15  -9   88.88   13.28
 -19  15 -10   29.20    9.67
 -16  19   0  273.16   23.11
 -19  16   0  294.57   21.67
 -16  19  -1   21.47   14.27
 -19  16  -1   43.25   13.13
 -16  19  -2   72.49   16.59
 -19  16  -2   85.83   15.62
 -16  19  -3   16.28   13.62
 -19  16  -3   31.88   13.34
 -16  19  -4   21.37   13.79
 -19  16  -4   35.32   13.57
 -16  19  -5   23.76   13.21
 -19  16  -5   26.54   12.73
 -16  19  -6   41.81   13.00
 -19  16  -6   54.63   13.66
 -19  16  -7   41.85   12.19
 -16  19  -7   63.22   14.13
 -16  19  -8    4.89   10.91
 -19  16  -8    1.40   10.08
 -16  19  -9   45.52   11.86
 -19  16  -9   70.38   12.09
 -17  19   0   45.93   13.59
 -17  19  -1   55.18   15.32
 -19  17  -1   65.15   13.97
 -17  19  -2   34.38   14.34
 -19  17  -2   57.23   14.00
 -17  19  -3  -14.60   13.47
 -19  17  -3  -18.43   12.49
 -17  19  -4   69.40   14.81
 -19  17  -4   84.20   14.67
 -17  19  -5   51.42   13.44
 -19  17  -5   52.89   13.23
 -17  19  -6   73.61   14.09
 -19  17  -6   97.77   14.38
 -17  19  -7   17.07   11.07
 -19  17  -7   16.53   10.32
 -18  19  -1   29.43   12.33
 -19  18  -1   32.82   11.71
 -18  19  -2    7.38   11.89
 -19  18  -2    1.99   10.50
 -18  19  -3   99.22   15.68
 -19  18  -3   99.42   15.10
 -18  19  -4   15.50   11.99
 -19  18  -4    9.33   11.02
 -18  19  -5  124.27   15.91
 -19  18  -5  125.56   15.60
 -18  19  -6   -5.96   10.63
 -19  18  -6   -6.30   10.18
 -20   0   0  832.02   52.70
 -20   0  -1  582.85   43.08
 -20   0   2  280.12   28.76
 -20   0  -2  401.27   41.10
 -20   0   3   -0.93   15.66
 -20   0  -4  134.55   29.35
 -20   0  -5  815.92   44.83
 -20   0  -7  230.40   27.66
 -20   0  -8  132.70   23.65
 -20   0  -9  158.03   22.97
 -20   0 -10  365.00   30.34
 -20   0 -11  263.36   24.70
 -20   0 -12  283.43   23.36
   0 -20 -13   58.71   64.86
   0 -20 -14  110.70   49.99
  -1 -20 -14   71.00   47.55
  -1 -20 -13  111.91   66.47
 -20  -1 -12  218.54   21.32
 -20  -1 -11  356.39   26.91
 -20  -1 -10  296.91   27.32
 -20  -1  -9  215.88   26.92
 -20  -1  -8   67.48   22.31
 -20  -1  -6  405.73   36.61
 -20  -1  -5  269.54   42.78
 -20  -1  -4  310.25   35.71
 -20  -1  -3   74.62   28.81
 -20  -1  -2  190.57   33.36
 -20   1   2  112.34   20.92
 -20  -1  -1  465.67   43.78
 -20   1   1  400.84   33.00
 -20  -1   0  875.43   48.28
 -20   1   0  938.24   46.05
 -20  -1   1  405.49   38.22
  -1  20  -1  360.28   47.37
 -20   1  -1  452.05   38.58
  -1  20  -2  216.30   38.28
 -20   1  -2  266.42   31.94
 -20   1  -3  105.04   25.59
  -1  20  -3   26.58   28.81
  -1  20  -4  207.66   34.58
  -1  20  -5  352.89   40.51
 -20   1  -5  363.31   34.90
  -1  20  -6  335.09   39.42
 -20   1  -6  378.97   35.36
  -1  20  -7  135.58   30.54
 -20   1  -7  111.55   23.70
 -20   1  -8   27.42   18.42
 -20   1  -9  206.43   24.50
 -20   1 -10  381.89   28.81
 -20   1 -11  375.43   26.43
 -20   1 -12  226.99   21.04
   1 -20 -13  158.70   65.92
   1 -20 -14   56.31   43.98
  -2 -20 -14    2.07   43.00
  -2 -20 -13   73.90   62.95
 -20  -2 -12  177.43   21.37
 -20  -2 -11  313.53   25.51
 -20  -2 -10  181.12   24.60
 -20  -2  -9  224.74   26.53
 -20  -2  -7   83.12   25.84
 -20  -2  -6  192.46   34.50
 -20  -2  -5  250.16   34.24
 -20  -2  -4  209.77   34.30
 -20   2   2   39.54   19.33
 -20   2   1  705.77   36.50
  -2  20   0  276.50   46.55
 -20   2   0  324.40   32.03
  -2  20  -1  813.07   53.81
 -20   2  -1  867.82   42.13
 -20   2  -2   66.73   23.86
  -2  20  -2   28.50   29.13
 -20   2  -3   97.90   23.82
  -2  20  -3    4.63   27.58
  -2  20  -4  158.41   34.66
 -20   2  -4  176.79   27.43
  -2  20  -5  348.07   38.53
 -20   2  -5  271.78   31.32
  -2  20  -6  241.41   36.01
 -20   2  -6  271.42   30.12
 -20   2  -7   97.89   21.14
  -2  20  -7   83.34   27.32
  -2  20  -8   29.74   23.91
 -20   2  -8   47.80   18.90
 -20   2  -9  259.35   26.04
 -20   2 -10  194.91   22.75
 -20   2 -11  389.00   26.24
 -20   2 -12  172.50   18.27
   2 -20 -13  125.20   57.85
   2 -20 -14   25.96   37.49
  -3 -20 -14  -10.50   39.91
  -3 -20 -13  -88.19   57.19
 -20  -3 -12  160.82   17.79
 -20  -3 -11  163.61   21.97
 -20  -3 -10  264.00   26.64
 -20  -3  -9   84.25   23.27
 -20  -3  -8   91.56   25.31
 -20  -3  -7  144.89   30.18
 -20  -3  -6  104.37   29.99
 -20   3   2  225.88   22.42
 -20   3   1   81.01   19.92
  -3  20   1  233.78   37.76
  -3  20   0 1061.91   58.69
 -20   3   0 1053.39   43.84
 -20   3  -1   82.68   23.38
  -3  20  -1  125.90   34.71
  -3  20  -2  293.09   34.78
 -20   3  -2  288.95   28.76
 -20   3  -3   63.10   21.44
  -3  20  -3   11.63   25.26
 -20   3  -4   90.15   23.17
  -3  20  -4  117.41   31.00
  -3  20  -5  260.73   36.23
 -20   3  -5  252.85   28.24
 -20   3  -6  151.74   23.63
  -3  20  -6  154.16   31.61
 -20   3  -7  155.93   22.60
  -3  20  -7  106.99   29.31
  -3  20  -8   74.90   26.54
 -20   3  -8  104.36   20.03
  -3  20  -9  108.85   27.85
 -20   3  -9   72.98   18.89
 -20   3 -10  332.39   26.34
 -20   3 -11  174.73   20.24
 -20   3 -12  203.81   19.06
   3 -20 -12  212.53   68.62
   3 -20 -13   59.17   44.92
 -20   3 -13   13.08   10.01
   3 -20 -14   28.28   30.71
  -4 -20 -14   87.91   41.00
  -4 -20 -13  119.87   54.67
 -20  -4 -12   76.88   15.24
 -20  -4 -11  215.78   22.72
 -20  -4 -10  135.00   22.84
 -20  -4  -9  135.33   25.41
 -20  -4  -7   68.49   27.24
 -20   4   2   92.04   17.71
  -4  20   2  140.28   32.65
 -20   4   1  445.36   28.14
  -4  20   1  409.03   43.77
 -20   4   0  293.71   28.29
  -4  20   0  472.43   45.83
 -20   4  -1  480.56   32.46
  -4  20  -1  428.76   40.00
 -20   4  -2   76.88   21.43
  -4  20  -2  108.89   32.98
 -20   4  -3   79.51   21.26
  -4  20  -3   41.06   26.31
 -20   4  -4  153.97   24.03
  -4  20  -4  193.05   32.34
 -20   4  -5  111.97   21.79
  -4  20  -5   79.33   30.45
 -20   4  -6  182.47   24.23
  -4  20  -6  137.62   29.54
 -20   4  -7  107.65   20.24
  -4  20  -7  107.62   28.54
 -20   4  -8   55.88   17.48
  -4  20  -8   46.04   24.74
 -20   4  -9  187.03   23.16
  -4  20  -9  194.82   29.58
 -20   4 -10  161.27   20.34
  -4  20 -10  200.76   28.32
 -20   4 -11  252.80   21.75
 -20   4 -12   98.16   15.02
   4 -20 -12   62.53   50.90
   4 -20 -13   40.20   36.02
 -20   4 -13   43.94   10.92
  -5 -20 -14   18.44   33.19
  -5 -20 -13   42.88   44.34
 -20  -5 -11  179.11   21.64
 -20  -5 -10  106.17   21.74
 -20  -5  -9   70.78   23.63
 -20  -5  -8   95.41   26.75
 -20   5   2  133.84   18.49
  -5  20   2  186.05   34.74
 -20   5   1  367.97   26.68
  -5  20   1  462.62   42.30
 -20   5   0  251.25   24.72
  -5  20   0  244.06   37.23
 -20   5  -1  398.48   30.67
  -5  20  -1  411.78   39.57
 -20   5  -2  172.70   23.53
  -5  20  -2  115.28   29.28
 -20   5  -3   23.99   18.00
  -5  20  -3   13.48   25.10
 -20   5  -4  121.48   21.01
  -5  20  -4   89.33   27.88
 -20   5  -5  250.94   25.43
  -5  20  -5  172.22   29.64
 -20   5  -6  160.65   22.45
  -5  20  -6  115.96   28.82
 -20   5  -7   59.06   18.34
  -5  20  -7   25.11   22.91
 -20   5  -8  140.91   20.92
  -5  20  -8   81.55   26.67
 -20   5  -9  110.80   18.90
  -5  20  -9   97.58   26.55
 -20   5 -10  163.95   19.63
  -5  20 -10  137.27   26.50
 -20   5 -11  226.81   20.84
   5 -20 -11  131.31   51.01
  -5  20 -11  166.34   24.67
 -20   5 -12   97.19   14.48
   5 -20 -12   94.74   39.50
 -20   5 -13   12.84    9.67
  -6 -20 -14   41.70   30.37
  -6 -20 -13  -39.91   39.30
 -20  -6 -11  189.54   20.94
 -20  -6 -10   74.17   21.08
 -20  -6  -8    0.98   23.25
  -6  20   3   85.29   29.36
 -20   6   2   45.06   14.76
  -6  20   2   85.99   29.44
 -20   6   1   69.52   18.17
  -6  20   1  162.69   33.03
 -20   6   0  643.74   32.93
  -6  20   0  649.44   44.75
 -20   6  -1  105.56   20.99
  -6  20  -1   50.58   28.28
 -20   6  -2   33.50   17.41
  -6  20  -2   15.78   23.86
 -20   6  -3   88.34   18.91
  -6  20  -3   76.08   24.97
 -20   6  -4  288.88   25.66
  -6  20  -4  247.34   30.90
 -20   6  -5  117.56   20.52
  -6  20  -5   48.14   24.91
 -20   6  -6  253.61   27.84
  -6  20  -6  280.18   31.36
 -20   6  -7  106.48   19.22
  -6  20  -7   52.70   24.56
 -20   6  -8   27.85   15.43
  -6  20  -8   20.36   22.40
 -20   6  -9   66.38   16.28
  -6  20  -9   61.75   23.99
 -20   6 -10  190.91   19.97
  -6  20 -10   77.49   23.15
 -20   6 -11  117.22   16.35
  -6  20 -11   73.02   22.33
 -20   6 -12   90.07   14.12
 -20   6 -13   20.21    9.70
  -7 -20 -13    5.65   32.13
 -20  -7 -11   61.05   16.02
 -20  -7 -10   18.95   17.97
 -20  -7  -9   44.33   23.16
  -7  20   3   60.13   28.64
 -20   7   2  344.38   26.37
  -7  20   2   18.12   24.89
 -20   7   1  177.18   19.06
  -7  20   1  186.64   31.16
 -20   7   0   64.82   18.24
  -7  20   0   60.94   28.74
 -20   7  -1  191.27   21.79
  -7  20  -1  160.36   28.29
 -20   7  -2   38.29   16.95
  -7  20  -2   -2.10   21.41
 -20   7  -3   88.14   18.90
  -7  20  -3   78.27   23.88
 -20   7  -4   19.90   15.51
  -7  20  -4    6.21   21.30
 -20   7  -5  531.89   33.97
  -7  20  -5  607.69   39.52
 -20   7  -6   57.76   17.05
  -7  20  -6    1.12   22.56
 -20   7  -7  325.12   25.19
  -7  20  -7  313.35   31.82
 -20   7  -8   20.57   13.91
  -7  20  -8    5.67   19.64
 -20   7  -9   53.55   15.14
  -7  20  -9   35.28   21.37
 -20   7 -10   82.47   15.63
  -7  20 -10   27.61   21.10
 -20   7 -11  105.46   15.24
  -7  20 -11   55.34   19.93
 -20   7 -12   37.27   11.79
  -7  20 -12   -3.84   14.38
  -8 -20 -13    4.52   26.33
  -8 -20 -12   30.24   37.49
 -20  -8 -11   23.82   13.25
 -20  -8 -10   -1.85   17.10
 -20  -8  -9   17.06   20.52
  -8  20   3   -0.94   24.16
  -8  20   2    5.05   22.98
 -20   8   1   41.75   14.43
  -8  20   1   14.71   24.19
 -20   8   0  207.27   21.35
  -8  20   0  176.89   28.41
 -20   8  -1   49.89   16.09
  -8  20  -1   15.66   21.70
 -20   8  -2   11.19   15.39
  -8  20  -2  -28.20   21.67
 -20   8  -3   -0.47   15.25
  -8  20  -3    2.84   20.07
 -20   8  -4  547.79   30.91
  -8  20  -4  500.98   35.97
 -20   8  -5   13.49   15.02
  -8  20  -5  -41.87   20.04
 -20   8  -6  874.10   36.63
  -8  20  -6  848.66   43.60
 -20   8  -7   32.18   15.10
  -8  20  -7  -19.06   19.88
 -20   8  -8   97.12   17.02
  -8  20  -8   74.96   21.75
 -20   8  -9   37.29   13.68
  -8  20  -9   34.76   19.14
 -20   8 -10   73.45   14.70
  -8  20 -10   78.47   20.99
 -20   8 -11   33.60   12.18
  -8  20 -11   -8.18   16.05
 -20   8 -12   29.31   11.21
  -8  20 -12   -8.25   13.54
  -9 -20 -12   -7.93   29.67
 -20  -9 -10   25.44   17.18
 -20  -9  -9    8.62   19.83
  -9  20   2   31.96   22.55
 -20   9   1   51.80   14.74
  -9  20   1   62.02   23.26
 -20   9   0   12.40   12.69
  -9  20   0  -22.46   20.99
 -20   9  -1   63.44   15.82
  -9  20  -1   63.23   21.83
 -20   9  -2   11.69   14.61
  -9  20  -2    5.66   18.81
  -9  20  -3   96.89   23.43
 -20   9  -3  104.83   18.63
  -9  20  -4   -7.97   18.32
 -20   9  -4   15.83   14.83
 -20   9  -5  734.70   34.31
  -9  20  -5  694.96   38.92
  -9  20  -6   -7.19   18.84
 -20   9  -6   63.22   16.60
 -20   9  -7  364.25   25.22
  -9  20  -7  325.80   29.61
 -20   9  -8   35.47   13.99
  -9  20  -8   30.46   17.95
 -20   9  -9   16.61   12.25
  -9  20  -9    7.91   16.81
 -20   9 -10   20.29   12.04
  -9  20 -10    9.96   16.67
 -20   9 -11   89.66   14.00
  -9  20 -11   63.19   17.66
 -20   9 -12   -3.11    9.17
  -9  20 -12  -12.62   13.27
 -20   9 -13   -1.46   15.88
 -20 -10 -10    3.62   14.42
 -20 -10  -9   19.03   19.01
 -10  20   2    4.23   20.65
 -20  10   1   17.89   12.78
 -10  20   1  -17.80   20.92
 -20  10   0   59.45   14.51
 -10  20   0   28.07   19.45
 -20  10  -1   21.09   13.76
 -10  20  -1   -6.47   19.27
 -10  20  -2   10.01   19.43
 -20  10  -2   21.81   14.53
 -10  20  -3    4.60   18.84
 -20  10  -3    8.66   14.52
 -20  10  -4  279.09   23.41
 -10  20  -4  227.30   26.06
 -10  20  -5    9.24   18.53
 -20  10  -5   91.19   18.19
 -20  10  -6  343.40   24.68
 -10  20  -6  292.42   27.71
 -10  20  -7   -1.19   16.93
 -20  10  -7   45.11   14.69
 -20  10  -8   52.68   14.50
 -10  20  -8   21.85   16.75
 -20  10  -9   -0.83   11.56
 -10  20  -9    9.38   15.71
 -20  10 -10   45.15   12.78
 -10  20 -10   33.85   16.24
 -20  10 -11   23.60   11.16
 -10  20 -11    0.83   13.84
 -20  10 -12   22.32   19.63
 -20 -11 -10   29.87   13.74
 -20 -11  -9    3.35   16.85
 -11  20   2   25.32   21.97
 -20  11   1   41.35   13.46
 -11  20   1  -26.84   21.22
 -20  11   0  126.61   17.78
 -11  20   0   83.61   21.70
 -11  20  -1    8.75   18.19
 -20  11  -1   33.48   14.19
 -11  20  -2   38.46   19.23
 -20  11  -2   62.12   16.10
 -11  20  -3   17.59   17.91
 -20  11  -3   23.70   14.61
 -11  20  -4  -10.39   17.25
 -20  11  -4   28.70   14.97
 -11  20  -5   34.53   18.26
 -20  11  -5   99.61   18.02
 -11  20  -6   11.56   16.51
 -20  11  -6   66.91   16.03
 -11  20  -7    2.24   15.19
 -20  11  -7   27.49   13.69
 -20  11  -8    1.26   11.45
 -11  20  -8    1.70   14.93
 -20  11  -9   26.19   12.31
 -20  11  -9   12.74   19.18
 -11  20  -9   19.93   15.25
 -20  11 -10   82.21   14.10
 -20  11 -10   50.08   21.81
 -11  20 -10   46.90   15.82
 -20  11 -11   64.37   12.00
 -20  11 -11   55.36   22.22
 -11  20 -11   36.73   14.51
 -20 -12  -9   29.64   15.87
 -20  12   1  261.42   20.83
 -12  20   1  205.54   26.67
 -20  12   0   28.91   12.83
 -12  20   0  -42.70   20.90
 -20  12  -1  313.47   23.87
 -12  20  -1  205.20   25.88
 -12  20  -2  -19.61   18.94
 -20  12  -2    1.18   13.70
 -12  20  -3  -11.72   16.84
 -20  12  -3   23.77   14.59
 -12  20  -4    5.04   15.88
 -20  12  -4   -5.72   13.75
 -12  20  -5    9.79   15.34
 -20  12  -5   54.84   15.11
 -12  20  -6  -31.83   16.77
 -20  12  -6   -2.16   12.45
 -12  20  -7   -1.96   14.43
 -20  12  -7    8.01   11.97
 -20  12  -8   13.45   11.50
 -12  20  -8   15.05   14.12
 -20  12  -9   91.34   14.85
 -12  20  -9   78.99   16.67
 -20  12 -10   31.83   10.93
 -20  12 -10   19.93   19.31
 -12  20 -10   11.65   13.39
 -20  12 -11  189.05   15.07
 -20 -13  -9   14.94   13.66
 -20  13   0  606.37   29.37
 -13  20   0  479.51   32.01
 -20  13  -1  -20.60   14.32
 -20  13  -2  271.67   22.43
 -13  20  -2  219.16   24.40
 -13  20  -3   17.71   15.66
 -20  13  -3   16.16   13.64
 -13  20  -4    9.81   16.86
 -20  13  -4   -0.20   12.81
 -13  20  -5   -0.69   14.59
 -20  13  -5   64.88   15.73
 -13  20  -6   50.34   16.07
 -20  13  -6   72.26   14.92
 -13  20  -7    4.73   13.68
 -20  13  -7   21.23   12.04
 -13  20  -8   -1.67   12.78
 -20  13  -8   22.86   11.60
 -20  13  -9   25.38   11.03
 -13  20  -9   -1.74   12.32
 -20  13 -10  244.00   17.88
 -13  20 -10  193.37   18.64
 -14  20   1  380.43   27.89
 -20  14   0  -24.18   13.33
 -20  14  -1  501.33   26.95
 -14  20  -1  419.38   29.03
 -14  20  -2  -27.39   16.92
 -20  14  -2   10.62   12.83
 -14  20  -3   24.47   15.83
 -20  14  -3   22.00   13.60
 -14  20  -4   22.50   15.46
 -20  14  -4   34.20   13.17
 -20  14  -5   84.81   15.18
 -14  20  -5  108.33   18.00
 -14  20  -6    4.89   13.37
 -20  14  -6   15.63   11.82
 -14  20  -7   -9.70   13.37
 -20  14  -7   16.30   11.07
 -20  14  -8   13.43   10.46
 -14  20  -8   -8.61   12.18
 -14  20  -9  102.46   15.51
 -20  14  -9  123.61   14.25
 -15  20   0  403.74   27.15
 -20  15   0  427.63   23.10
 -20  15  -1    0.39   11.27
 -20  15  -2  105.44   15.79
 -15  20  -2   82.79   17.84
 -15  20  -3   -5.93   14.51
 -20  15  -3    5.22   11.70
 -15  20  -4   69.57   16.26
 -20  15  -4   63.57   14.43
 -15  20  -5    1.26   12.69
 -20  15  -5    5.91   11.27
 -20  15  -6  120.47   15.44
 -15  20  -6   99.03   15.64
 -15  20  -7   13.15   12.10
 -20  15  -7   15.07   10.67
 -20  15  -8   -6.34   10.10
 -15  20  -8    2.94   11.18
 -16  20   0  -23.61   14.02
 -16  20  -1  108.97   17.83
 -20  16  -1  115.37   14.82
 -16  20  -2    1.79   13.59
 -20  16  -2    6.12   11.15
 -16  20  -3   16.88   13.76
 -20  16  -3    6.67   10.92
 -16  20  -4   10.68   12.68
 -20  16  -4   21.75   11.77
 -16  20  -5  130.29   16.05
 -20  16  -5  156.46   16.64
 -16  20  -6   12.17   11.78
 -20  16  -6   13.88   10.72
 -16  20  -7   36.26   11.74
 -20  16  -7   43.82   11.08
 -20  17  -1    4.87    9.38
 -17  20  -1   22.30   13.02
 -20  17  -2    3.97    9.87
 -17  20  -2   -1.13   12.31
 -17  20  -3   34.01   13.70
 -20  17  -3   33.54   12.15
 -17  20  -4   94.60   15.70
 -20  17  -4  103.64   14.55
 -17  20  -5   92.92   14.62
 -20  17  -5   78.09   13.38
 -21   0   0  273.22   29.39
 -21   0   1  181.86   25.01
 -21   0  -1  210.57   29.77
 -21   0   2  -19.40   15.46
 -21   0  -2   37.90   23.12
 -21   0  -3    7.57   20.89
 -21   0  -4  566.27   37.04
 -21   0  -5  144.26   28.06
 -21   0  -6  378.68   33.10
 -21   0  -7   58.01   21.81
 -21   0  -8   25.62   17.57
 -21   0  -9  102.47   20.31
 -21   0 -10   76.80   17.33
 -21   0 -11  141.63   18.83
 -21   0 -12   36.32   12.30
   0 -21 -13   75.77   47.72
  -1 -21 -13   44.73   45.12
 -21  -1 -12   58.46   13.17
 -21  -1 -11   97.57   16.78
 -21  -1 -10  130.76   20.76
 -21  -1  -9   96.07   19.55
 -21  -1  -8   60.36   20.77
 -21  -1  -7  148.05   25.27
 -21  -1  -5  374.50   34.31
 -21  -1  -4  175.85   30.92
 -21   1   2   28.41   15.20
 -21  -1  -2   39.61   26.62
 -21   1   1  192.01   23.02
 -21  -1  -1  179.01   30.72
 -21   1   0  262.74   30.51
 -21  -1   0  234.76   35.80
 -21   1  -2   92.17   23.41
 -21  -1   2    8.76   17.14
 -21   1  -3  157.83   25.79
 -21  -1   3  330.12   32.33
 -21   1  -4  191.61   31.17
 -21   1  -5  457.46   35.26
 -21   1  -6  133.02   25.10
 -21   1  -7  113.70   21.66
 -21   1  -8   36.94   18.39
 -21   1  -9   71.14   18.88
 -21   1 -10  113.67   19.28
 -21   1 -11  109.56   16.61
   1 -21 -12    2.05   54.97
 -21   1 -12   52.50   13.09
   1 -21 -13   34.29   41.88
  -2 -21 -13   26.89   43.78
 -21  -2 -12   49.64   12.68
 -21  -2 -11   77.46   17.60
 -21  -2 -10  171.49   21.31
 -21  -2  -9   93.22   21.57
 -21  -2  -8   45.12   20.03
 -21  -2  -6  235.70   31.04
 -21  -2  -4  156.04   30.58
 -21  -2  -3   99.80   29.29
 -21   2   2   31.13   14.85
 -21  -2  -2   36.02   26.42
 -21   2   1   10.58   16.21
 -21  -2  -1   89.05   30.35
 -21  -2   0  393.59   36.31
 -21   2   0  580.97   33.88
 -21   2  -1   62.26   21.41
 -21  -2   1   43.44   23.06
 -21  -2   2   17.78   18.54
  -2  21  -2   40.99   27.81
 -21   2  -3  110.58   23.42
  -2  21  -3  104.26   30.92
  -2  21  -4  198.29   34.32
 -21   2  -4  209.81   27.24
  -2  21  -5  178.18   34.81
 -21   2  -5  215.29   26.30
 -21   2  -6  235.93   26.89
  -2  21  -6  113.37   29.69
  -2  21  -7   82.73   27.14
 -21   2  -7   75.17   20.10
 -21   2  -8   55.59   18.44
 -21   2  -9   64.62   18.60
 -21   2 -10  216.68   21.74
 -21   2 -11   75.44   15.83
   2 -21 -12   26.56   49.57
 -21   2 -12   60.65   13.06
   2 -21 -13   50.21   37.14
  -3 -21 -13   -4.84   39.77
 -21  -3 -12   31.43   11.48
 -21  -3 -11  160.62   18.81
 -21  -3 -10  107.08   19.75
 -21  -3  -9  186.22   24.01
 -21  -3  -7   48.90   23.41
 -21  -3  -5  134.84   29.27
 -21  -3  -4   66.07   28.04
 -21   3   2   36.21   14.17
 -21   3   1  271.87   23.48
  -3  21   0  155.74   37.43
 -21   3   0  116.89   21.43
  -3  21  -1  250.69   35.41
 -21   3  -1  373.02   29.32
 -21   3  -2   73.35   21.42
  -3  21  -2   39.38   28.34
 -21   3  -3   31.26   19.03
 -21  -3   3    2.53   17.08
  -3  21  -3   -1.54   26.09
 -21   3  -4   74.40   21.26
  -3  21  -4   47.84   28.75
 -21   3  -5  137.91   23.22
  -3  21  -5  100.02   29.42
 -21   3  -6  167.47   24.14
  -3  21  -6  123.50   31.30
  -3  21  -7    5.10   23.79
 -21   3  -7   15.47   16.28
  -3  21  -8   32.65   23.52
 -21   3  -8   50.71   17.45
 -21   3  -9  157.07   22.54
 -21   3 -10  103.03   17.99
 -21   3 -11  165.94   18.26
   3 -21 -12   15.93   40.86
 -21   3 -12   30.67   11.55
   3 -21 -13   37.65   30.68
  -4 -21 -13   77.26   39.80
 -21  -4 -12   46.23   11.59
 -21  -4 -11  118.78   17.47
 -21  -4 -10  152.99   20.83
 -21  -4  -9  122.77   21.98
 -21  -4  -8   40.93   20.56
 -21  -4  -6   23.34   24.22
 -21  -4  -5  116.92   29.91
 -21   4   2   49.99   14.09
 -21   4   1  249.09   22.82
  -4  21   1  304.19   38.93
 -21   4   0  242.48   23.63
  -4  21   0  209.12   36.88
 -21   4  -1  297.90   26.98
  -4  21  -1  276.53   38.99
  -4  21  -2    3.42   25.51
 -21   4  -2   78.18   19.55
  -4  21  -3  -16.86   26.12
 -21   4  -3   -4.65   16.64
  -4  21  -4   44.93   26.22
 -21   4  -4   37.89   18.28
 -21   4  -5   98.75   20.95
  -4  21  -5   77.84   29.25
  -4  21  -6   39.56   25.84
 -21   4  -6   91.93   19.55
 -21   4  -7   56.92   17.57
  -4  21  -7   52.66   25.56
 -21   4  -8   65.03   17.73
  -4  21  -8   41.77   23.43
 -21   4  -9  143.51   20.58
  -4  21  -9  131.05   27.29
 -21   4 -10  154.56   18.78
 -21   4 -11  174.98   18.00
   4 -21 -11  104.88   45.96
   4 -21 -12   44.91   32.92
 -21   4 -12   50.94   12.15
  -5 -21 -13   21.75   34.33
 -21  -5 -11   71.85   15.58
 -21  -5 -10  208.42   22.93
 -21  -5  -8   59.29   23.05
 -21  -5  -7   72.55   25.22
 -21  -5  -6   27.18   26.17
 -21   5   2   69.60   14.18
 -21   5   1   44.50   16.63
  -5  21   1   91.93   30.81
 -21   5   0  647.52   32.20
  -5  21   0  586.36   45.79
 -21   5  -1   72.82   19.40
  -5  21  -1   -0.42   27.42
 -21   5  -2  125.88   20.72
  -5  21  -2   79.11   26.97
 -21   5  -3   43.61   17.43
  -5  21  -3   26.37   24.33
 -21   5  -4   67.10   19.02
  -5  21  -4   25.58   24.42
 -21   5  -5   99.10   19.95
  -5  21  -5  111.87   28.37
 -21   5  -6   56.45   18.27
  -5  21  -6   -3.28   22.68
 -21   5  -7  103.16   18.85
  -5  21  -7   34.74   24.89
 -21   5  -8   87.42   17.39
  -5  21  -8   29.93   23.00
 -21   5  -9   96.98   17.37
  -5  21  -9   87.11   25.30
 -21   5 -10  256.22   21.50
  -5  21 -10  168.43   26.31
 -21   5 -11  108.53   15.58
   5 -21 -11   27.68   32.98
 -21   5 -12  107.48   13.97
  -6 -21 -13   37.22   29.66
 -21  -6 -11  116.21   15.98
 -21  -6 -10   39.85   17.27
 -21  -6  -9   90.94   21.67
 -21  -6  -7   20.63   23.55
  -6  21   2    7.35   25.80
 -21   6   1  241.93   21.48
  -6  21   1  306.38   36.52
 -21   6   0   71.46   17.81
  -6  21   0   53.06   30.74
 -21   6  -1  316.84   24.83
  -6  21  -1  256.24   32.98
 -21   6  -2    9.96   15.46
  -6  21  -2   -4.92   24.01
 -21   6  -3   23.22   16.09
  -6  21  -3   14.13   23.61
 -21   6  -4   35.86   16.64
  -6  21  -4  -10.21   23.24
 -21   6  -5  216.87   23.03
  -6  21  -5  141.68   28.46
 -21   6  -6   84.13   18.79
  -6  21  -6   18.92   23.41
 -21   6  -7   38.55   15.27
  -6  21  -7    7.18   21.99
 -21   6  -8   41.73   15.66
  -6  21  -8   10.76   22.18
 -21   6  -9  203.78   20.15
  -6  21  -9  103.54   25.45
 -21   6 -10   85.71   16.22
  -6  21 -10   60.80   22.37
 -21   6 -11  200.35   17.83
 -21   6 -12   33.74   11.17
  -7 -21 -12   -7.00   31.55
 -21  -7 -11   26.11   11.95
 -21  -7 -10   78.88   17.51
 -21  -7  -9   41.27   19.49
 -21  -7  -8   26.00   21.12
  -7  21   2    9.83   24.33
 -21   7   1   68.56   16.59
  -7  21   1   87.47   29.97
 -21   7   0  255.96   21.77
  -7  21   0  272.00   33.56
 -21   7  -1   73.33   17.45
  -7  21  -1   59.32   27.57
 -21   7  -2   36.13   15.55
  -7  21  -2   15.14   22.56
 -21   7  -3    7.55   14.85
  -7  21  -3  -28.88   21.86
 -21   7  -4  239.27   23.56
  -7  21  -4  174.97   28.49
 -21   7  -5   60.01   16.75
  -7  21  -5   19.64   22.98
 -21   7  -6  273.09   24.46
  -7  21  -6  270.88   31.97
 -21   7  -7   39.24   15.08
  -7  21  -7   21.99   20.79
 -21   7  -8   30.19   14.26
  -7  21  -8   11.18   20.13
 -21   7  -9   95.65   16.57
  -7  21  -9   54.92   23.46
 -21   7 -10  134.02   16.46
  -7  21 -10   69.23   20.30
 -21   7 -11   67.46   13.52
  -7  21 -11  -12.20   15.95
 -21   7 -12   39.61   10.83
  -8 -21 -12   -2.16   26.50
 -21  -8  -9   25.36   18.31
 -21  -8  -8    3.20   19.31
  -8  21   2   26.79   23.92
 -21   8   1  110.07   15.48
  -8  21   1  119.31   28.13
 -21   8   0   54.74   15.30
  -8  21   0   41.65   25.98
 -21   8  -1  113.94   17.89
  -8  21  -1  101.98   25.76
 -21   8  -2   71.75   17.46
  -8  21  -2   74.30   24.64
 -21   8  -3   52.82   16.21
  -8  21  -3   30.24   22.08
 -21   8  -4   64.95   16.95
  -8  21  -4   23.55   20.26
 -21   8  -5  539.70   30.06
  -8  21  -5  502.14   36.55
 -21   8  -6   59.46   15.84
  -8  21  -6   16.48   19.41
 -21   8  -7  138.34   18.02
  -8  21  -7  116.93   23.76
 -21   8  -8   57.52   14.77
  -8  21  -8   54.71   20.90
 -21   8  -9   77.71   14.89
  -8  21  -9   68.75   20.99
 -21   8 -10   67.94   13.78
  -8  21 -10   30.48   19.17
 -21   8 -11   95.25   13.75
  -8  21 -11   45.44   15.96
 -21  -9  -9    6.63   16.71
 -21  -9  -8    0.77   18.80
  -9  21   2    9.99   22.81
 -21   9   1   35.25   12.74
  -9  21   1   26.56   22.90
 -21   9   0  146.97   17.80
  -9  21   0  149.24   27.28
 -21   9  -1   22.01   13.41
  -9  21  -1   42.26   22.80
 -21   9  -2    4.94   13.59
  -9  21  -2   -1.38   19.85
 -21   9  -3   65.95   16.49
  -9  21  -3   39.66   21.93
 -21   9  -4  264.27   22.60
  -9  21  -4  239.61   28.24
 -21   9  -5   99.00   18.99
  -9  21  -5   41.10   20.60
 -21   9  -6  333.91   24.00
  -9  21  -6  282.08   29.03
 -21   9  -7   56.59   14.69
  -9  21  -7   44.54   19.56
 -21   9  -8    1.61   11.63
  -9  21  -8  -13.65   17.38
 -21   9  -9   58.02   13.97
  -9  21  -9    8.83   16.18
 -21   9 -10  116.93   14.81
  -9  21 -10  116.53   20.29
 -21   9 -11   31.92   11.06
  -9  21 -11   -3.97   13.62
 -21 -10  -8  -24.93   18.61
 -10  21   2   16.53   22.02
 -21  10   1   80.77   13.74
 -10  21   1   69.90   23.98
 -21  10   0    9.85   12.03
 -10  21   0  -30.74   21.91
 -21  10  -1   93.07   16.09
 -10  21  -1   91.23   23.51
 -21  10  -2   -4.31   12.95
 -10  21  -2  -21.55   20.09
 -21  10  -3   22.28   13.86
 -10  21  -3   -9.34   19.57
 -21  10  -4  102.51   17.63
 -10  21  -4   90.53   22.72
 -21  10  -5  148.90   18.83
 -10  21  -5  129.83   23.13
 -21  10  -6  123.54   17.83
 -10  21  -6   60.25   20.02
 -21  10  -7   31.56   12.99
 -10  21  -7   29.27   18.12
 -21  10  -8   25.65   12.23
 -10  21  -8   14.06   16.00
 -21  10  -9   75.25   13.94
 -10  21  -9   41.40   17.05
 -21  10 -10    8.83   10.34
 -21  10 -10    1.80   16.45
 -10  21 -10   -4.43   14.65
 -21  10 -11  109.46   13.02
 -21 -11  -9   12.97   14.29
 -11  21   1   53.54   22.88
 -21  11   0   99.96   15.19
 -11  21   0   49.70   20.65
 -21  11  -1   83.75   16.33
 -11  21  -1   39.84   20.36
 -21  11  -2   27.86   13.85
 -11  21  -2   27.58   19.68
 -21  11  -3   19.00   13.77
 -11  21  -3  -19.84   19.24
 -21  11  -4   15.17   14.24
 -11  21  -4  -29.26   18.88
 -21  11  -5  229.00   21.53
 -11  21  -5  105.70   21.22
 -21  11  -6   17.09   13.49
 -11  21  -6  -20.97   16.46
 -21  11  -7   38.31   13.12
 -11  21  -7   28.54   15.92
 -21  11  -8   27.29   12.34
 -11  21  -8   -1.76   15.35
 -21  11  -9    6.80   10.16
 -11  21  -9  -14.09   14.59
 -21  11 -10  121.90   13.96
 -11  21 -10   93.50   17.29
 -12  21   1   18.62   19.52
 -21  12   0  280.56   21.04
 -12  21   0  187.75   26.22
 -21  12  -1   26.88   12.64
 -12  21  -1   13.75   18.01
 -21  12  -2   72.24   15.42
 -12  21  -2   47.45   19.64
 -21  12  -3   29.39   13.50
 -12  21  -3   16.02   17.83
 -21  12  -4   44.38   14.08
 -12  21  -4   20.91   16.32
 -21  12  -5   39.56   14.28
 -12  21  -5  -25.41   17.15
 -21  12  -6  115.83   16.53
 -12  21  -6   81.98   18.45
 -21  12  -7   38.25   12.85
 -12  21  -7   35.98   15.73
 -21  12  -8    5.08   10.23
 -12  21  -8  -11.16   14.18
 -21  12  -9   87.22   13.28
 -12  21  -9   65.75   15.58
 -21  12 -10   91.71   12.66
 -13  21   1  217.96   25.52
 -21  13   0   10.69   10.68
 -13  21   0   -4.99   17.36
 -21  13  -1  285.63   20.92
 -13  21  -1  220.76   25.04
 -21  13  -2   38.29   13.34
 -13  21  -2   29.74   17.22
 -21  13  -3    0.60   11.76
 -13  21  -3    5.25   16.33
 -21  13  -4   60.96   13.73
 -13  21  -4   40.10   16.49
 -21  13  -5  127.09   16.23
 -13  21  -5  117.31   18.90
 -21  13  -6   60.72   13.18
 -13  21  -6   24.28   14.37
 -21  13  -7   47.10   12.50
 -13  21  -7   43.05   15.09
 -21  13  -8   81.87   13.21
 -13  21  -8   47.76   14.50
 -21  13  -9   84.64   12.36
 -13  21  -9   58.23   14.53
 -14  21   0  257.92   24.65
 -21  14   0  270.18   18.50
 -21  14  -1   15.65   10.77
 -14  21  -1  -14.42   17.46
 -21  14  -2   90.13   14.65
 -14  21  -2   74.81   18.46
 -21  14  -3   20.43   11.69
 -14  21  -3   31.38   15.87
 -21  14  -4   63.60   13.63
 -14  21  -4   53.83   16.04
 -21  14  -5   35.14   12.09
 -14  21  -5   27.29   14.68
 -21  14  -6  163.44   16.28
 -14  21  -6  138.15   17.73
 -21  14  -7   67.09   12.38
 -14  21  -7   50.87   13.82
 -21  14  -8   -5.78    9.00
 -14  21  -8   -6.68   11.93
 -15  21   0    3.70   13.92
 -15  21  -1  121.60   18.61
 -21  15  -1  109.99   13.91
 -21  15  -2   11.44   10.79
 -15  21  -2   12.81   14.85
 -21  15  -3   11.78   11.09
 -15  21  -3   16.52   14.43
 -21  15  -4   -2.19   10.37
 -15  21  -4   -0.01   13.40
 -15  21  -5  196.56   19.30
 -21  15  -5  216.56   17.25
 -21  15  -6    5.41    9.51
 -15  21  -6   18.27   12.42
 -21  15  -7   52.02   10.71
 -15  21  -7   54.87   13.08
 -16  21  -1    4.86   12.60
 -21  16  -2    4.38    9.49
 -16  21  -2   -6.72   12.89
 -21  16  -3    8.33   10.01
 -16  21  -3   -7.70   12.87
 -16  21  -4  148.63   17.84
 -21  16  -4  172.15   15.74
 -21  16  -5    2.66    9.81
 -16  21  -5   23.01   12.62
 -22   0   0  197.01   25.03
 -22   0   1   -2.97   15.41
 -22   0   2   12.77   14.22
 -22   0  -2   22.47   20.30
 -22   0  -3  254.02   28.83
 -22   0  -4  185.76   26.90
 -22   0  -5  363.08   34.79
 -22   0  -6  153.50   24.36
 -22   0  -7  162.37   22.76
 -22   0  -8   38.17   17.42
 -22   0  -9    5.30   14.13
 -22   0 -10   45.42   14.71
 -22   0 -11   17.67   12.08
   0 -22 -12   32.01   40.63
  -1 -22 -12   22.63   40.90
 -22  -1 -11   47.19   13.37
 -22  -1 -10   28.64   13.96
 -22  -1  -9   40.03   15.90
 -22  -1  -8   72.72   19.00
 -22  -1  -7   79.87   20.48
 -22  -1  -6  289.77   30.33
 -22  -1  -5  144.52   28.19
 -22  -1  -3   48.73   22.84
 -22   1   2   49.66   15.19
 -22  -1  -2   97.05   24.40
 -22   1   1   32.38   15.36
 -22  -1  -1   83.09   24.42
 -22  -1   0   83.53   22.66
 -22   1   0  134.46   21.78
 -22   1  -1   55.35   20.13
 -22  -1   1   41.34   18.78
 -22   1  -2   59.69   21.56
 -22   1  -3   92.67   22.79
 -22   1  -4  297.27   30.97
 -22   1  -5  162.24   26.07
 -22   1  -6  313.50   28.06
 -22   1  -7   84.40   20.65
 -22   1  -8   35.41   16.35
 -22   1  -9   31.58   15.06
 -22   1 -10   36.12   13.89
 -22   1 -11   25.43   12.75
   1 -22 -12   -7.76   36.20
  -2 -22 -12   16.84   41.29
 -22  -2 -11   77.59   14.56
 -22  -2 -10   49.83   15.20
 -22  -2  -9   95.91   18.61
 -22  -2  -8   55.09   18.69
 -22  -2  -7   77.23   21.18
 -22  -2  -6  169.47   26.60
 -22  -2  -5  196.40   27.45
 -22  -2  -4   78.83   26.12
 -22   2   2   28.22   13.96
 -22   2   1   74.35   17.06
 -22   2   0   23.88   16.45
 -22  -2   1   92.64   22.71
 -22   2  -1  130.35   21.56
 -22   2  -2   31.49   18.40
 -22  -2   2   -6.31   16.53
 -22   2  -3   54.75   21.05
 -22   2  -4  205.99   25.58
 -22   2  -5  201.19   25.87
 -22   2  -6  237.08   25.49
 -22   2  -7   64.65   18.27
 -22   2  -8   63.63   17.03
 -22   2  -9   81.44   17.70
 -22   2 -10   34.21   14.04
 -22   2 -11   67.67   14.01
   2 -22 -12   45.54   32.80
  -3 -22 -12   44.78   39.82
 -22  -3 -11   68.04   13.90
 -22  -3 -10  121.85   18.11
 -22  -3  -9  109.81   19.24
 -22  -3  -8   73.03   19.65
 -22  -3  -7  100.79   21.74
 -22  -3  -6   49.11   21.64
 -22  -3  -5  155.36   27.73
 -22  -3  -4   37.57   25.66
 -22  -3  -3   65.29   26.04
 -22  -3  -2   19.04   24.73
 -22   3   2   32.88   12.98
 -22  -3  -1   70.31   25.68
 -22   3   1   72.54   16.81
 -22  -3   0  115.79   26.78
 -22   3   0  165.63   20.26
 -22  -3   1   58.70   21.67
 -22   3  -1  102.61   20.52
 -22  -3   2   13.71   18.46
 -22   3  -2   20.18   16.96
 -22  -3   3   21.89   16.00
 -22   3  -3   99.47   21.34
  -3  22  -3   56.11   28.15
  -3  22  -4   61.77   28.23
 -22   3  -4  113.68   20.83
 -22   3  -5  223.04   24.78
  -3  22  -5  144.52   32.40
 -22   3  -6   27.94   16.22
 -22   3  -7  129.89   20.16
 -22   3  -8   38.04   15.55
 -22   3  -9  117.56   18.04
 -22   3 -10  106.86   16.29
 -22   3 -11   83.90   13.99
   3 -22 -11   48.51   36.38
  -4 -22 -12   37.65   35.95
 -22  -4 -11   75.90   14.26
 -22  -4 -10  143.41   18.18
 -22  -4  -9  107.24   19.79
 -22  -4  -8  141.84   22.34
 -22  -4  -7    2.92   17.80
 -22  -4  -6   88.35   24.26
 -22  -4  -5   57.34   25.70
 -22  -4  -4   20.38   24.08
 -22  -4  -3  -12.29   24.52
 -22   4   1   49.11   15.13
 -22   4   0  307.47   24.47
  -4  22  -1   15.26   27.54
 -22   4  -1   69.12   18.08
 -22  -4   2   44.14   19.46
  -4  22  -2   77.23   28.97
 -22  -4   3   -8.35   15.48
  -4  22  -3   -5.83   25.01
 -22   4  -3   -4.62   15.83
  -4  22  -4   32.43   26.83
 -22   4  -4   91.94   19.61
  -4  22  -5   26.24   26.49
 -22   4  -5   79.07   18.31
  -4  22  -6   42.03   23.82
 -22   4  -6   38.77   16.97
 -22   4  -7   14.09   14.69
  -4  22  -7   18.99   24.05
 -22   4  -8  149.68   19.32
 -22   4  -9   98.13   16.51
 -22   4 -10  199.41   18.75
 -22   4 -11   86.33   14.00
   4 -22 -11   20.02   27.41
  -5 -22 -12    4.20   31.77
 -22  -5 -11  103.85   13.62
 -22  -5 -10   56.51   15.46
 -22  -5  -9  224.43   22.33
 -22  -5  -7   13.48   19.61
 -22  -5  -6   63.22   25.34
 -22  -5  -5    8.81   22.59
 -22  -5  -4   28.21   25.34
 -22   5   1  325.41   22.78
 -22   5   0   58.82   17.99
  -5  22   0   29.81   31.28
 -22   5  -1  377.03   26.75
  -5  22  -1  285.16   35.73
 -22   5  -2    2.80   14.98
  -5  22  -2  -22.26   25.51
 -22   5  -3   31.49   16.57
  -5  22  -3   26.10   25.22
 -22   5  -4   49.78   17.24
  -5  22  -4   16.15   25.01
 -22   5  -5   20.92   15.64
  -5  22  -5   -1.96   23.24
 -22   5  -6   51.87   17.44
  -5  22  -6   46.96   25.51
 -22   5  -7   67.66   17.02
  -5  22  -7   43.75   23.89
 -22   5  -8   50.60   15.79
  -5  22  -8   29.65   22.95
 -22   5  -9  262.02   21.58
 -22   5 -10   78.36   14.65
 -22   5 -11  184.95   16.65
 -22  -6 -10  170.78   18.36
 -22  -6  -9   39.35   16.05
 -22  -6  -8   79.31   20.14
 -22  -6  -6    7.87   21.03
 -22  -6  -5   77.66   25.80
 -22   6   1  109.65   16.40
 -22   6   0  361.78   24.99
  -6  22   0  307.11   36.92
 -22   6  -1  142.81   20.21
  -6  22  -1   71.19   30.51
 -22   6  -2  117.51   18.64
  -6  22  -2   30.71   24.72
 -22   6  -3   27.01   15.79
  -6  22  -3    5.02   23.75
 -22   6  -4   46.32   16.46
  -6  22  -4   29.51   24.11
 -22   6  -5   92.20   18.86
  -6  22  -5    0.71   22.36
 -22   6  -6   34.23   15.00
  -6  22  -6   48.91   23.99
 -22   6  -7   55.91   15.83
  -6  22  -7   35.05   22.94
 -22   6  -8  123.62   17.00
  -6  22  -8   21.55   21.45
 -22   6  -9  106.69   16.53
  -6  22  -9   45.63   21.73
 -22   6 -10  249.69   19.07
 -22   6 -11   81.06   13.39
 -22  -7 -10   52.22   14.16
 -22  -7  -9  113.24   18.21
 -22  -7  -8    7.54   16.74
 -22  -7  -7   34.65   21.29
 -22  -7  -6   24.00   21.82
 -22   7   1  158.49   16.80
  -7  22   1  148.04   30.08
 -22   7   0  217.91   20.12
  -7  22   0  222.68   34.92
 -22   7  -1  198.29   20.28
  -7  22  -1  132.82   28.76
 -22   7  -2  109.12   18.54
  -7  22  -2   77.79   27.16
 -22   7  -3   14.84   14.44
  -7  22  -3   -4.48   22.54
 -22   7  -4   12.64   14.68
  -7  22  -4   47.70   27.04
 -22   7  -5  130.91   18.72
  -7  22  -5  164.20   27.71
 -22   7  -6   39.85   14.70
  -7  22  -6   20.05   21.27
 -22   7  -7   16.36   13.52
  -7  22  -7    3.87   20.10
 -22   7  -8  100.27   16.22
  -7  22  -8   59.82   22.55
 -22   7  -9  134.55   16.12
  -7  22  -9   43.15   20.07
 -22   7 -10  144.64   16.19
 -22   7 -11  114.80   13.54
 -22  -8 -10   30.66   11.62
 -22  -8  -8   41.15   17.53
 -22  -8  -7   23.41   18.33
 -22   8   1  131.83   15.86
  -8  22   1  115.93   27.47
 -22   8   0  169.03   17.75
  -8  22   0  176.66   29.84
 -22   8  -1  189.37   19.52
  -8  22  -1  138.01   28.40
 -22   8  -2   14.44   13.62
  -8  22  -2  -21.86   23.14
 -22   8  -3   84.66   17.03
  -8  22  -3   54.72   23.86
 -22   8  -4  162.89   19.38
  -8  22  -4  137.23   27.17
 -22   8  -5   58.22   15.43
  -8  22  -5   46.61   22.91
 -22   8  -6  117.07   17.04
  -8  22  -6  101.95   23.02
 -22   8  -7   81.00   15.23
  -8  22  -7   73.62   21.49
 -22   8  -8   24.76   12.22
  -8  22  -8   21.55   19.02
 -22   8  -9  123.20   15.68
  -8  22  -9   67.06   20.85
 -22   8 -10  131.52   15.00
  -8  22 -10  105.49   19.56
 -22  -9  -8    8.38   15.54
 -22  -9  -7   -6.05   17.37
  -9  22   1   78.80   25.01
 -22   9   0   84.80   14.74
  -9  22   0   43.82   22.84
 -22   9  -1   84.81   15.27
  -9  22  -1  102.10   25.72
 -22   9  -2   84.64   15.80
  -9  22  -2   74.06   24.30
 -22   9  -3   12.45   12.92
  -9  22  -3   -4.74   21.04
 -22   9  -4  107.63   16.95
  -9  22  -4   79.57   23.62
 -22   9  -5  160.67   19.35
  -9  22  -5   75.83   21.82
 -22   9  -6  110.12   16.45
  -9  22  -6   59.22   20.75
 -22   9  -7   22.48   12.46
  -9  22  -7    3.94   16.93
 -22   9  -8   84.77   14.61
  -9  22  -8   67.33   20.21
 -22   9  -9  100.28   14.20
  -9  22  -9   84.86   19.67
 -22   9 -10   74.81   12.56
  -9  22 -10   49.42   16.67
 -22 -10  -7   30.83   17.10
 -10  22   1   -1.01   22.16
 -22  10   0  124.56   15.50
 -10  22   0  102.83   24.79
 -22  10  -1    6.38   11.80
 -10  22  -1   -0.59   20.69
 -22  10  -2   26.58   13.17
 -10  22  -2   27.27   21.89
 -22  10  -3  117.33   17.09
 -10  22  -3   53.00   21.62
 -22  10  -4   22.15   13.30
 -10  22  -4  -11.09   19.39
 -22  10  -5  156.74   18.76
 -10  22  -5   96.65   22.32
 -22  10  -6   24.36   12.71
 -10  22  -6   20.11   18.34
 -22  10  -7   74.09   14.28
 -10  22  -7   58.26   19.13
 -22  10  -8   53.88   12.63
 -10  22  -8   32.42   16.43
 -22  10  -9   36.72   11.46
 -10  22  -9   14.49   14.96
 -22  10 -10  111.91   12.89
 -22 -11  -7   15.49   15.37
 -11  22   1   52.71   21.96
 -22  11   0   36.05   11.92
 -11  22   0   39.21   22.03
 -22  11  -1   70.42   13.48
 -11  22  -1   62.79   21.48
 -22  11  -2   13.31   11.82
 -11  22  -2  -12.80   18.92
 -22  11  -3   10.43   12.12
 -11  22  -3    9.35   18.90
 -22  11  -4  114.66   16.73
 -11  22  -4   83.35   20.91
 -22  11  -5   17.15   13.08
 -11  22  -5  -21.76   17.07
 -22  11  -6  123.73   15.99
 -11  22  -6   72.14   18.73
 -22  11  -7   40.53   12.48
 -11  22  -7   17.40   15.91
 -22  11  -8   -1.42   10.05
 -11  22  -8    9.74   14.70
 -22  11  -9  122.58   13.74
 -11  22  -9   80.31   16.03
 -22 -12  -7   27.50   14.85
 -12  22   1   30.20   18.78
 -22  12   0   45.01   11.21
 -12  22   0   34.19   18.75
 -22  12  -1   71.49   13.04
 -12  22  -1   44.29   21.01
 -22  12  -2   61.74   13.34
 -12  22  -2   44.98   19.27
 -22  12  -3    1.76   11.27
 -12  22  -3  -10.88   17.28
 -22  12  -4   61.23   14.38
 -12  22  -4   34.09   18.04
 -22  12  -5  115.81   15.13
 -12  22  -5   97.30   19.48
 -22  12  -6  100.07   14.48
 -12  22  -6   50.15   17.21
 -22  12  -7   34.55   11.39
 -12  22  -7   14.78   14.56
 -22  12  -8   95.21   12.85
 -12  22  -8   75.60   16.33
 -13  22   0  116.01   22.21
 -22  13  -1   38.18   10.89
 -13  22  -1   19.52   17.68
 -22  13  -2   21.04   11.22
 -13  22  -2   16.26   16.48
 -22  13  -3   80.43   13.95
 -13  22  -3   73.98   18.72
 -22  13  -4   61.42   13.07
 -13  22  -4   28.67   16.05
 -22  13  -5  107.74   14.28
 -13  22  -5   73.28   17.15
 -22  13  -6  123.33   14.53
 -13  22  -6   88.73   17.12
 -22  13  -7   96.28   12.72
 -13  22  -7   66.84   15.37
 -14  22   0    4.23   14.63
 -14  22  -1   45.92   17.40
 -22  14  -1   67.95   11.51
 -22  14  -2   44.20   11.34
 -14  22  -2   19.31   15.79
 -22  14  -3    4.93   10.06
 -14  22  -3    0.38   14.54
 -22  14  -4   69.17   12.69
 -14  22  -4   38.96   15.72
 -22  14  -5  164.23   15.08
 -14  22  -5  119.06   18.00
 -22  14  -6   98.00   12.74
 -14  22  -6   74.72   15.30
 -15  22  -2   -0.64   13.25
 -15  22  -3  323.96   25.77
 -15  22  -4   65.68   16.55
 -23   0   0   39.93   17.67
 -23   0   1   46.42   15.81
 -23   0  -1   60.50   19.93
 -23   0  -2  100.69   21.80
 -23   0   2   64.83   15.21
 -23   0  -3  103.11   22.72
 -23   0  -4  324.00   30.07
 -23   0  -5  214.63   26.05
 -23   0  -6  365.50   28.58
 -23   0  -7  118.36   19.69
 -23   0  -8   61.61   16.23
 -23   0  -9   15.73   12.86
 -23   0 -10   -2.42   10.94
 -23  -1 -10   31.25   12.13
 -23  -1  -9   24.75   13.15
 -23  -1  -8   54.12   16.16
 -23  -1  -7  194.84   23.19
 -23  -1  -6  189.09   23.17
 -23  -1  -5  315.69   29.17
 -23  -1  -4  183.74   26.55
 -23  -1  -3  214.44   26.93
 -23  -1  -2   33.58   19.66
 -23   1   2   13.87   13.01
 -23  -1  -1   72.13   20.62
 -23   1   1   53.30   15.75
 -23   1   0   86.81   17.87
 -23  -1   0   75.51   19.72
 -23  -1   1   34.17   16.35
 -23   1  -1   92.08   19.77
 -23   1  -2   51.58   18.82
 -23  -1   2    8.54   14.21
 -23   1  -3  170.71   24.34
 -23   1  -4  124.24   22.71
 -23   1  -5  284.57   27.45
 -23   1  -6  253.58   26.39
 -23   1  -7  169.77   21.97
 -23   1  -8   61.16   15.94
 -23   1  -9   23.27   13.20
 -23   1 -10   23.31   12.00
   1 -23 -11    5.43   31.29
 -23   1 -11   38.60   10.85
 -23  -2 -10   87.98   14.14
 -23  -2  -9   43.07   14.50
 -23  -2  -8  102.08   18.98
 -23  -2  -7  164.22   20.70
 -23  -2  -6  127.78   23.15
 -23  -2  -5  189.63   25.04
 -23  -2  -4  219.52   27.93
 -23  -2  -2   49.16   21.79
 -23  -2  -1   30.23   19.87
 -23   2   1   11.62   13.71
 -23  -2   0   97.03   21.23
 -23   2   0  138.00   19.08
 -23  -2   1    0.00   14.59
 -23   2  -1   55.95   18.06
 -23  -2   2   64.60   16.61
 -23   2  -2   66.31   18.70
 -23   2  -3  129.72   21.37
 -23   2  -4  142.02   21.73
 -23   2  -5  268.55   26.01
 -23   2  -6  137.28   20.75
 -23   2  -7  234.97   23.31
 -23   2  -8   65.76   15.70
 -23   2  -9   28.80   13.09
 -23   2 -10   58.77   13.33
 -23   2 -11   27.33   10.32
 -23  -3 -10   64.63   13.59
 -23  -3  -9  101.65   17.41
 -23  -3  -8  129.37   18.50
 -23  -3  -7   20.29   16.60
 -23  -3  -6  168.97   22.88
 -23  -3  -4  160.38   26.43
 -23  -3  -3   34.15   21.84
 -23  -3  -2   21.54   21.44
 -23  -3  -1   71.27   23.76
 -23   3   1   92.95   15.71
 -23  -3   0   32.35   20.07
 -23   3   0   70.45   16.19
 -23  -3   1   40.47   19.20
 -23   3  -1   94.45   17.96
 -23  -3   2   33.89   16.05
 -23   3  -2   95.77   19.34
 -23   3  -3   42.29   17.06
 -23   3  -4  178.70   22.20
 -23   3  -5   51.05   17.20
 -23   3  -6  230.84   22.97
 -23   3  -7   58.17   16.94
 -23   3  -8  155.46   18.77
 -23   3  -9   62.77   14.39
 -23   3 -10   74.99   13.85
 -23  -4 -10   79.29   14.41
 -23  -4  -9  138.70   17.39
 -23  -4  -8   51.09   16.81
 -23  -4  -7  108.43   19.72
 -23  -4  -5   60.54   21.06
 -23  -4  -4  -11.17   20.54
 -23  -4  -2   51.75   24.69
 -23  -4  -1   83.12   25.82
 -23   4   1  149.29   17.49
 -23  -4   0   44.52   22.73
 -23   4   0   98.16   16.73
 -23   4  -1  168.44   20.46
 -23  -4   2   24.87   17.55
 -23   4  -2   50.98   16.61
 -23   4  -3  117.13   19.76
 -23   4  -4   13.17   14.86
 -23   4  -5  124.75   19.84
 -23   4  -6   83.68   17.52
 -23   4  -7  141.23   18.94
 -23   4  -8   52.18   14.79
 -23   4  -9  173.47   17.54
 -23   4 -10   76.91   13.74
 -23  -5 -10  155.42   15.16
 -23  -5  -9   51.46   14.81
 -23  -5  -8  135.58   18.49
 -23  -5  -7   13.87   16.24
 -23  -5  -6   43.32   18.75
 -23  -5  -5   44.62   21.26
 -23  -5  -4   12.69   22.66
 -23  -5  -3  -11.94   22.09
 -23  -5  -2   67.16   24.64
 -23  -5  -1   70.98   24.56
 -23   5   1   76.69   14.33
 -23  -5   0   93.46   23.76
 -23   5   0  245.80   20.93
 -23  -5   1   31.96   19.98
 -23   5  -1  110.08   17.83
 -23  -5   2   69.70   19.44
 -23   5  -2  167.18   20.58
 -23   5  -3   18.73   14.91
  -5  23  -3  -25.59   24.81
 -23   5  -4   39.83   16.11
  -5  23  -4   39.23   24.39
 -23   5  -5   57.31   16.71
  -5  23  -5   25.53   24.65
 -23   5  -6   71.69   16.23
 -23   5  -7   54.28   15.20
 -23   5  -8  175.09   18.07
 -23   5  -9   54.11   14.22
 -23   5 -10  217.60   17.34
 -23  -6  -9  166.67   17.67
 -23  -6  -8   17.51   13.96
 -23  -6  -7   24.67   16.87
 -23  -6  -6   36.53   19.07
 -23  -6  -5   22.85   21.03
 -23  -6  -4   22.83   21.16
 -23  -6  -3   26.31   22.88
 -23  -6  -2  -11.46   22.34
 -23   6   1  180.71   16.63
 -23   6   0  152.58   17.42
 -23   6  -1  206.56   20.10
 -23  -6   2   17.16   16.52
 -23   6  -2   69.67   15.79
  -6  23  -2   20.24   25.18
 -23  -6   3    8.79   13.74
 -23   6  -3   25.05   14.98
 -23   6  -4   34.29   15.09
  -6  23  -4   26.98   23.58
 -23   6  -5   40.59   15.47
  -6  23  -5   37.75   23.37
 -23   6  -6   35.87   14.42
  -6  23  -6    0.09   20.62
 -23   6  -7   56.12   14.39
  -6  23  -7   16.94   20.29
 -23   6  -8   67.86   14.94
 -23   6  -9  188.76   17.24
 -23   6 -10  137.19   15.11
 -23  -7  -9   44.81   13.02
 -23  -7  -8   68.61   15.66
 -23  -7  -7   17.91   15.39
 -23  -7  -5    8.89   19.13
 -23  -7  -4   37.72   21.40
 -23   7   0  152.55   16.51
 -23   7  -1  194.68   19.27
  -7  23  -1  165.15   30.08
 -23   7  -2   39.44   13.80
  -7  23  -2    0.12   22.84
 -23   7  -3   68.81   15.81
  -7  23  -3  104.71   28.19
 -23   7  -4   41.71   14.52
  -7  23  -4   38.05   23.59
 -23   7  -5   14.29   13.21
  -7  23  -5    7.89   20.46
 -23   7  -6   36.50   14.01
  -7  23  -6    1.88   19.82
 -23   7  -7   46.52   13.51
  -7  23  -7   31.70   20.06
 -23   7  -8   69.09   13.51
  -7  23  -8   15.79   17.45
 -23   7  -9  147.79   16.10
 -23   7 -10  127.95   13.94
 -23  -8  -7   38.85   15.89
 -23  -8  -6    0.65   17.68
 -23  -8  -5   20.03   18.70
 -23   8   0  250.58   18.95
  -8  23   0  194.84   29.74
 -23   8  -1   49.83   13.13
  -8  23  -1   16.34   22.69
 -23   8  -2  171.23   18.20
  -8  23  -2  118.16   27.49
 -23   8  -3   21.35   12.94
  -8  23  -3   -2.30   20.89
 -23   8  -4   54.21   14.47
  -8  23  -4   46.87   22.67
 -23   8  -5   73.17   14.80
  -8  23  -5   57.26   22.32
 -23   8  -6   48.14   13.68
  -8  23  -6   22.05   19.37
 -23   8  -7   14.86   11.77
  -8  23  -7   20.70   18.94
 -23   8  -8   95.11   14.48
  -8  23  -8   64.47   20.09
 -23   8  -9   85.12   13.09
 -23  -9  -7   -1.98   13.78
 -23  -9  -6   31.42   16.83
 -23  -9  -5    6.99   17.74
 -23   9   0   85.38   13.38
  -9  23   0   57.69   22.72
 -23   9  -1  175.14   17.40
  -9  23  -1  109.81   25.16
 -23   9  -2    1.56   11.30
  -9  23  -2  -13.95   20.92
 -23   9  -3  113.32   15.68
  -9  23  -3   53.43   22.33
 -23   9  -4   41.85   13.32
  -9  23  -4   18.02   19.92
 -23   9  -5   60.19   14.48
  -9  23  -5   58.55   21.95
 -23   9  -6   23.01   12.31
  -9  23  -6  -15.31   18.43
 -23   9  -7   56.02   13.46
  -9  23  -7   29.02   18.17
 -23   9  -8   51.11   11.98
  -9  23  -8   37.58   17.21
 -23   9  -9   79.87   12.13
 -23 -10  -7   19.34   13.23
 -23 -10  -6   34.62   16.42
 -23 -10  -5    7.23   16.39
 -23  10   0   68.73   12.13
 -10  23   0   34.29   21.11
 -23  10  -1   84.54   13.52
 -10  23  -1   44.15   21.82
 -23  10  -2   85.45   14.08
 -10  23  -2   24.62   20.67
 -23  10  -3    0.28   11.65
 -10  23  -3  -12.59   19.25
 -23  10  -4  104.86   15.74
 -10  23  -4   31.18   20.05
 -23  10  -5   18.63   11.72
 -10  23  -5  -13.98   17.33
 -23  10  -6   89.54   14.48
 -10  23  -6   67.11   19.63
 -23  10  -7   34.75   11.28
 -10  23  -7    1.90   15.52
 -23  10  -8   38.92   11.11
 -10  23  -8   17.69   15.08
 -23 -11  -6   24.79   14.75
 -11  23   0   89.60   22.00
 -23  11  -1   27.06   10.82
 -11  23  -1   -4.70   18.67
 -23  11  -2   41.80   12.34
 -11  23  -2   12.79   18.83
 -23  11  -3   27.50   11.64
 -11  23  -3    9.29   17.66
 -23  11  -4   30.73   12.18
 -11  23  -4   -4.80   17.08
 -23  11  -5   80.13   14.17
 -11  23  -5   39.97   18.08
 -23  11  -6   49.12   12.27
 -11  23  -6  -12.33   15.21
 -23  11  -7   28.76   10.53
 -11  23  -7   -2.69   14.62
 -12  23   0   13.06   17.61
 -23  12  -1   49.09   10.83
 -12  23  -1   25.94   18.63
 -23  12  -2    5.96    9.84
 -12  23  -2  -23.13   18.07
 -23  12  -3   83.48   13.65
 -12  23  -3   21.93   18.20
 -23  12  -4   49.13   12.40
 -12  23  -4    7.02   15.83
 -23  12  -5  110.45   14.43
 -12  23  -5   45.47   17.61
 -23  12  -6   42.34   10.85
 -12  23  -6    2.24   14.27
 -13  23  -1   47.03   17.72
 -23  13  -2   43.22   10.61
 -13  23  -2   25.96   17.45
 -23  13  -3   -2.48    9.37
 -13  23  -3   -1.34   15.37
 -23  13  -4  107.51   13.24
 -13  23  -4   66.01   17.96
 -13  23  -5   13.54   14.73
 -24   0   0   78.77   17.80
 -24   0  -1   43.67   16.22
 -24   0   1   59.10   14.39
 -24   0  -2   31.47   16.82
 -24   0  -3   98.25   19.41
 -24   0  -4  164.56   21.39
 -24   0  -5  266.39   24.47
 -24   0  -6  164.17   20.40
 -24   0  -7  185.96   20.22
 -24   0  -8   40.24   13.12
 -24   0  -9   17.81   11.45
 -24  -1  -9   18.55   11.15
 -24  -1  -8   74.42   14.78
 -24  -1  -7  128.33   17.75
 -24  -1  -6  231.60   23.45
 -24  -1  -5  149.00   20.76
 -24  -1  -4  172.99   22.25
 -24  -1  -3   27.47   17.03
 -24  -1  -2   55.66   18.67
 -24  -1  -1   45.73   17.09
 -24   1   1   62.42   13.58
 -24  -1   0   50.19   16.97
 -24   1   0   99.65   17.73
 -24  -1   1   52.67   14.91
 -24   1  -1   69.69   16.57
 -24   1  -2   64.08   17.77
 -24   1  -3   56.86   17.12
 -24   1  -4  132.01   20.49
 -24   1  -5  198.44   22.10
 -24   1  -6  193.25   20.69
 -24   1  -7  141.09   18.47
 -24   1  -8   62.50   13.98
 -24   1  -9   41.45   12.21
 -24  -2  -9   60.04   12.59
 -24  -2  -8   46.04   13.43
 -24  -2  -7  116.85   18.60
 -24  -2  -6  221.73   21.86
 -24  -2  -5   95.91   20.91
 -24  -2  -4  113.23   20.15
 -24  -2  -3   63.89   19.19
 -24  -2  -2   16.59   17.10
 -24  -2  -1   68.21   18.66
 -24   2   1   92.73   13.83
 -24  -2   0   36.86   16.62
 -24   2   0   53.60   14.60
 -24  -2   1   44.16   15.00
 -24   2  -1   91.43   16.69
 -24  -2   2    8.83   11.67
 -24   2  -2   10.17   14.38
 -24   2  -3   31.40   16.40
 -24   2  -4  165.00   20.30
 -24   2  -5  103.29   17.85
 -24   2  -6  253.30   23.28
 -24   2  -7   88.42   16.54
 -24   2  -8   70.24   14.34
 -24   2  -9   52.24   12.25
 -24  -3  -9   48.60   12.18
 -24  -3  -8   50.85   13.76
 -24  -3  -7  155.86   18.53
 -24  -3  -6   65.31   18.22
 -24  -3  -5  154.73   21.12
 -24  -3  -4   30.67   17.89
 -24  -3  -3   51.16   18.76
 -24   3   1   46.44   12.55
 -24   3   0  106.56   15.04
 -24  -3   1    8.12   14.83
 -24   3  -1   46.31   14.69
 -24  -3   2   30.18   13.08
 -24   3  -2   24.79   14.12
 -24   3  -3   94.17   17.65
 -24   3  -4   32.62   15.29
 -24   3  -5  238.90   22.09
 -24   3  -6   92.90   16.88
 -24   3  -7  182.60   19.36
 -24   3  -8   32.98   12.57
 -24   3  -9   64.59   12.71
 -24  -4  -9   55.28   12.12
 -24  -4  -8   68.80   13.74
 -24  -4  -7   41.40   14.49
 -24  -4  -6  125.68   19.25
 -24  -4  -5   39.03   17.39
 -24  -4  -3    0.00   16.16
 -24  -4  -2   19.52   18.19
 -24  -4  -1   41.19   18.74
 -24   4   1   50.34   11.90
 -24  -4   0   20.09   16.35
 -24   4   0   92.36   14.61
 -24  -4   1   17.65   16.60
 -24   4  -1   70.83   14.33
 -24   4  -2   89.26   16.58
 -24   4  -3   33.04   14.64
 -24   4  -4  122.92   18.18
 -24   4  -5   58.68   15.59
 -24   4  -6  154.35   18.32
 -24   4  -7   61.76   14.55
 -24   4  -8  127.37   15.58
 -24   4  -9   47.48   11.90
 -24  -5  -8   15.95   12.15
 -24  -5  -7   58.55   14.92
 -24  -5  -6   55.04   16.54
 -24  -5  -4   25.08   17.52
 -24  -5  -3   15.43   17.93
 -24  -5  -2   -7.32   18.20
 -24  -5  -1   60.06   20.26
 -24  -5   0   62.24   18.92
 -24   5   0   80.89   14.01
 -24  -5   1   74.70   17.52
 -24   5  -1  126.91   16.69
 -24  -5   2   -2.62   11.99
 -24   5  -2   24.85   13.06
 -24   5  -3   61.68   15.19
 -24   5  -4   30.55   14.34
 -24   5  -5   65.62   15.33
 -24   5  -6   71.32   15.16
 -24   5  -7  122.44   16.21
 -24   5  -8   44.46   12.21
 -24   5  -9  132.45   14.04
 -24  -6  -8   68.09   13.04
 -24  -6  -7   43.84   14.11
 -24  -6  -6   42.95   15.68
 -24  -6  -5   24.05   16.35
 -24  -6  -4   20.50   17.05
 -24  -6  -3  -10.66   17.85
 -24   6   0  163.84   16.16
 -24  -6   1   34.47   16.68
 -24   6  -1  106.77   15.38
 -24  -6   2   41.28   14.41
 -24   6  -2   68.69   14.58
 -24   6  -3   17.38   12.98
 -24   6  -4   32.05   13.77
 -24   6  -5   50.39   14.44
 -24   6  -6   47.92   13.58
 -24   6  -7   49.29   12.98
 -24   6  -8   80.45   13.09
 -24   6  -9   87.85   12.67
 -24  -7  -7   38.68   13.21
 -24  -7  -5   55.27   17.59
 -24  -7  -3   26.95   19.78
 -24  -7  -2    5.09   18.10
 -24  -7  -1   47.48   20.10
 -24  -7   0   31.71   17.40
 -24   7   0  210.37   16.67
 -24  -7   1   73.70   18.99
 -24   7  -1   75.27   13.71
 -24  -7   2   -4.31   12.97
 -24   7  -2  127.22   15.96
 -24   7  -3    9.29   11.96
 -24   7  -4   26.22   12.68
 -24   7  -5   45.40   13.56
 -24   7  -6   37.22   12.70
 -24   7  -7    3.45   10.00
 -24   7  -8   59.12   12.21
 -24  -8  -7    5.50   10.83
 -24  -8  -6    9.88   12.26
 -24  -8  -5    7.79   14.65
 -24  -8  -3   -5.14   17.20
 -24  -8  -2    3.93   17.22
 -24  -8  -1   32.78   18.02
 -24  -8   0   -1.28   16.61
 -24   8   0   43.06   10.81
 -24  -8   1   41.33   15.72
 -24   8  -1  271.89   18.97
 -24  -8   2  -13.79   12.71
 -24   8  -2    0.30   10.70
 -24   8  -3   67.64   13.74
 -24   8  -4   40.55   12.67
  -8  24  -4   22.18   18.99
 -24   8  -5   11.11   11.21
 -24   8  -6   38.25   11.92
 -24   8  -7   35.73   11.79
 -24   8  -8    6.25    9.31
 -24  -9  -6   12.98   12.42
 -24  -9  -5   68.55   16.81
 -24  -9  -4    8.09   15.40
 -24  -9  -3   -4.82   15.60
 -24  -9  -2   19.62   16.94
 -24  -9  -1  -26.25   17.10
 -24  -9   0   23.66   16.18
 -24  -9   1   -3.36   14.01
 -24   9  -1   21.43   10.47
 -24  -9   2    5.81   11.56
 -24   9  -2  158.32   15.86
 -24   9  -3    4.87   10.53
  -9  24  -3    0.71   18.39
 -24   9  -4   32.22   12.21
  -9  24  -4   20.19   18.88
 -24   9  -5   28.49   11.16
  -9  24  -5   32.32   17.95
 -24   9  -6   20.84   11.17
  -9  24  -6   31.28   17.74
 -24   9  -7   10.86    9.87
 -24 -10  -4   14.28   15.03
 -24 -10  -3   20.72   15.74
 -24 -10  -2  -20.28   16.00
 -24  10  -1  101.52   12.40
 -24 -10   2   -8.55   10.66
 -24  10  -2   13.40   10.10
 -24  10  -3   63.31   12.69
 -10  24  -3   15.59   18.46
 -24  10  -4   27.29   11.46
 -10  24  -4    6.68   16.69
 -24  10  -5   52.07   11.86
 -10  24  -5   28.47   17.37
 -24  10  -6   13.21   10.03
 -10  24  -6   -9.76   15.21
 -24 -11  -4   18.05   13.63
 -24 -11  -3  -29.75   14.71
 -24  11  -2   26.26   10.03
 -24  11  -3   35.54   10.91
 -11  24  -3   15.43   17.50
 -24  11  -4   30.12   10.76
 -11  24  -4    6.66   16.20
 -11  24  -5   14.46   15.22
 -25   0   0   89.05   15.13
 -25   0   1   96.34   13.17
 -25   0  -1  114.15   16.49
 -25   0  -2   34.38   14.27
 -25   0  -3    8.53   13.53
 -25   0  -4  100.94   17.04
 -25   0  -5   94.42   16.31
 -25   0  -6  179.29   18.40
 -25   0  -7   89.61   14.31
 -25   0  -8   35.97   11.32
 -25  -1  -8   20.28   10.34
 -25  -1  -7  115.46   15.14
 -25  -1  -6  111.32   16.23
 -25  -1  -5  161.03   18.92
 -25  -1  -4   39.61   14.32
 -25  -1  -3   48.08   15.38
 -25  -1  -2   43.92   15.10
 -25   1   1   67.81   12.18
 -25  -1  -1   48.95   15.18
 -25   1   0  140.75   15.44
 -25  -1   0  120.85   16.19
 -25   1  -1   95.29   15.84
 -25  -1   1   49.29   12.76
 -25   1  -2   44.31   14.39
 -25   1  -3   32.98   14.34
 -25   1  -4   77.90   15.86
 -25   1  -5  145.09   17.54
 -25   1  -6  153.09   17.77
 -25   1  -7  131.04   16.14
 -25   1  -8   15.76   10.18
 -25  -2  -8   34.74   10.70
 -25  -2  -7   96.12   14.24
 -25  -2  -6   92.21   15.92
 -25  -2  -5  150.40   17.49
 -25  -2  -4   49.60   15.83
 -25  -2  -3   21.94   14.17
 -25  -2  -2   34.03   14.90
 -25  -2  -1   50.73   14.95
 -25  -2   0   54.92   14.31
 -25   2   0  114.68   14.95
 -25   2  -1   75.06   14.45
 -25  -2   1   55.01   12.82
 -25   2  -2   47.03   14.06
 -25   2  -3   30.69   13.90
 -25   2  -4   43.77   14.45
 -25   2  -5  190.78   19.67
 -25   2  -6   97.65   16.24
 -25   2  -7  149.85   16.89
 -25   2  -8   28.05   10.54
 -25  -3  -7   45.14   12.48
 -25  -3  -6  137.20   16.13
 -25  -3  -5   49.15   14.79
 -25  -3  -4   80.99   15.93
 -25  -3  -3   12.70   14.09
 -25  -3  -2   10.38   14.38
 -25  -3  -1   59.43   15.69
 -25  -3   0   19.74   13.38
 -25   3   0   73.79   13.04
 -25  -3   1   48.34   12.20
 -25   3  -1   93.15   14.66
 -25   3  -2   14.08   12.04
 -25   3  -3    7.02   11.87
 -25   3  -4  126.13   16.64
 -25   3  -5   83.33   15.45
 -25   3  -6  169.91   18.08
 -25   3  -7  109.87   14.64
 -25   3  -8   33.10   10.57
 -25  -4  -7   67.98   12.68
 -25  -4  -6   84.38   15.06
 -25  -4  -5   63.66   14.81
 -25  -4  -4   22.42   14.47
 -25  -4  -3    6.04   13.72
 -25  -4  -2   32.26   15.54
 -25  -4  -1   24.59   14.70
 -25  -4   0   66.60   15.50
 -25   4   0   81.48   12.61
 -25  -4   1   -7.03   10.67
 -25   4  -1   69.99   13.16
 -25   4  -2   22.78   11.98
 -25   4  -3   34.15   12.89
 -25   4  -4   65.63   14.27
 -25   4  -5  112.66   15.59
 -25   4  -6  104.51   14.93
 -25   4  -7   94.73   13.76
 -25  -5  -7   42.11   11.17
 -25  -5  -6   32.87   12.37
 -25  -5  -5   57.81   14.98
 -25  -5  -4    2.31   13.15
 -25  -5  -3   14.69   13.88
 -25  -5  -2   45.30   15.81
 -25  -5  -1   34.22   15.06
 -25  -5   0   54.47   14.92
 -25   5   0   92.31   12.20
 -25  -5   1    5.76   11.01
 -25   5  -1   58.58   12.27
 -25   5  -2   61.56   13.44
 -25   5  -3   21.82   12.01
 -25   5  -4   48.64   13.17
 -25   5  -5  102.63   14.99
 -25   5  -6   72.40   13.58
 -25   5  -7   47.93   11.48
 -25  -6  -6   60.06   13.01
 -25  -6  -5   28.85   13.48
 -25  -6  -4   31.44   14.18
 -25  -6  -1   82.87   15.61
 -25   6  -1   87.87   12.93
 -25   6  -2   28.32   11.31
 -25   6  -3   20.28   11.28
 -25   6  -4   45.31   12.33
 -25   6  -5   65.59   13.23
 -25   6  -6   91.99   13.44
 -25   6  -7   26.86   10.45
 -25  -7  -5   19.83   12.35
 -25  -7  -3  -23.65   13.06
 -25  -7  -2    8.55   13.94
 -25  -7  -1    9.01   13.16
 -25  -7   0   45.76   14.86
 -25  -7   1    1.97    9.88
 -25   7  -1  137.91   13.44
 -25   7  -2   21.26   10.25
 -25   7  -3    6.34   10.12
 -25   7  -4   55.59   12.67
 -25   7  -5   51.46   12.00
 -25   7  -6   66.95   12.39
 -25  -8  -5   12.80   11.03
 -25  -8  -3    1.10   12.15
 -25  -8  -2    2.40   13.08
 -25  -8  -1    9.19   13.45
 -25  -8   0   11.18   11.64
 -25  -8   1   20.11   11.25
 -25   8  -1    9.68    8.55
 -25   8  -2   94.86   12.43
 -25   8  -3   24.60   10.43
 -25   8  -4   14.29   10.20
 -25   8  -5   62.08   12.50
 -25  -9  -3  -10.48   12.42
 -25  -9  -2   -9.27   12.50
 -25  -9  -1   14.21   12.02
 -26   0   0  145.07   13.85
 -26   0  -1  106.27   14.40
 -26   0  -2   52.12   12.60
 -26   0  -3   14.74   11.35
 -26   0  -4    0.33   10.53
 -26   0  -5   57.30   12.75
 -26   0  -6   22.84   10.27
 -26  -1  -6   60.46   11.88
 -26  -1  -5   36.61   11.62
 -26  -1  -4   28.87   11.64
 -26  -1  -3   27.61   11.99
 -26  -1  -2   28.92   11.87
 -26  -1  -1  116.02   14.40
 -26   1   0  141.94   13.67
 -26  -1   0   86.00   12.65
 -26   1  -1  124.97   14.24
 -26   1  -2   45.43   11.96
 -26   1  -3   15.99   11.53
 -26   1  -4   21.94   11.35
 -26   1  -5   58.31   12.25
 -26   1  -6   68.91   12.08
 -26  -2  -5   38.48   11.91
 -26  -2  -4   48.77   12.47
 -26  -2  -3   25.80   11.79
 -26  -2  -2   41.84   12.55
 -26  -2  -1   36.36   11.68
 -26   2   0  106.70   11.88
 -26  -2   0   77.98   11.78
 -26   2  -1  103.71   13.00
 -26   2  -2   29.88   11.16
 -26   2  -3    3.99   10.60
 -26   2  -4   39.08   12.06
 -26   2  -5   37.34   11.41
 -26  -3  -5   83.10   13.06
 -26  -3  -4   30.51   11.85
 -26  -3  -3   15.93   11.55
 -26  -3  -2   25.26   11.55
 -26  -3  -1   23.01   10.90
 -26  -3   0   29.90   10.18
 -26   3  -1   37.53   10.27
 -26   3  -2   48.15   11.53
 -26   3  -3   12.53   10.57
 -26   3  -4   35.70   11.30
 -26   3  -5   76.23   12.58
 -26  -4  -4   25.37   11.68
 -26  -4  -3    7.09   10.96
 -26  -4  -2  -10.36   10.62
 -26  -4  -1   29.59   11.20
 -26  -4   0   17.45    9.58
 -26   4  -1   34.18    9.73
 -26   4  -2   18.03    9.43
 -26   4  -3   33.75   10.79
 -26   4  -4   35.51   10.89
 -26   4  -5  118.95   13.69
 -26  -5  -4   36.78   11.07
 -26  -5  -3   14.43   10.90
 -26  -5  -2    9.10   10.50
 -26  -5  -1   15.38    9.89
 -26   5  -2   -2.67    8.39
 -26   5  -3   94.71   12.92
 -26   5  -4   51.77   11.07
   0   0   0    0.00    0.00


TITL exp_2731 in P-42c
REM P-42c (#112 in standard setting)
CELL 1.54184  22.956953  22.956953  18.806163  90.0000  90.0000  90.0000
ZERR   43.00   0.001584   0.001584   0.002169   0.0000   0.0000   0.0000
LATT -1
SYMM -x,-y, z
SYMM  y,-x,-z
SYMM -y, x,-z
SYMM -x, y,-z+1/2
SYMM  x,-y,-z+1/2
SYMM -y,-x, z+1/2
SYMM  y, x, z+1/2
SFAC C H N O
UNIT 473.00 430.00 43.00 43.00
TREF
HKLF 4
END
_computing_structure_solution     'SHELXT 2014/5 (Sheldrick, 2014)'
;
_shelx_hkl_checksum              8289
_shelx_fab_file
;
    0    0   12     -8.60      0.00
    0    0   14     18.25      0.00
    0    0   16      1.61      0.00
    0    0   18      1.87      0.00
    0    0   20     -4.31      0.00
    0    1    2    -15.26      0.00
    0    1    6     -7.13      0.00
    0    1    7    -10.82      0.00
    0    1    8     -0.35      0.00
    0    1    9     18.26      0.00
    0    1   10      5.97      0.00
    0    1   11     -6.58      0.00
    0    1   12     49.60      0.00
    0    1   13      4.04      0.00
    0    1   14     24.73      0.00
    0    1   15     -3.03      0.00
    0    1   16      3.74      0.00
    0    1   17     -7.20      0.00
    0    1   18     16.51      0.00
    0    1   19     -8.08      0.00
    0    1   20     38.40      0.00
    1    1   20     -1.69      0.00
    1    1   18      9.52      0.00
    1    1   16      8.20      0.00
    1    1   14      1.76      0.00
    1    1   12      5.39      0.00
    1    1    8     21.51      0.00
    1    1    6     26.30      0.00
    1    1    4      8.23      0.00
    1    1    2     42.36      0.00
    1    1   10     46.12      0.00
    0    2    0    101.19      0.00
    0    2    1    -57.45      0.00
    0    2    2   -102.06      0.00
    0    2    3      2.41      0.00
    0    2    4    -20.25      0.00
    0    2    5      7.96      0.00
    0    2    6    -10.29      0.00
    0    2    7    -17.11      0.00
    0    2    8      2.54      0.00
    0    2    9     14.32      0.00
    0    2   11     19.79      0.00
    0    2   12      6.58      0.00
    0    2   13      3.35      0.00
    0    2   14      8.70      0.00
    0    2   15      5.23      0.00
    0    2   16     -7.18      0.00
    0    2   17      8.07      0.00
    0    2   18     15.44      0.00
    0    2   19     11.95      0.00
    0    2   20      5.61      0.00
    1    2   21      0.05      0.00
    1    2   20    -23.70      0.00
    1    2   19      3.84      0.00
    1    2   18     -5.44      0.00
    1    2   17     -5.15      0.00
    1    2   16     -8.70      0.00
    1    2   15      3.54      0.00
    1    2   14     -6.82      0.00
    1    2   13      0.31      0.00
    1    2   12    -15.04      0.00
    1    2   11     -2.81      0.00
    1    2    9      3.19      0.00
    1    2    8      5.12      0.00
    1    2    7      2.77      0.00
    1    2    6     -2.17      0.00
    1    2    5    -11.07      0.00
    1    2    4    -21.80      0.00
    1    2    3      6.49      0.00
    1    2    2     35.45      0.00
    1    2    1     17.54      0.00
    1    2    0     48.38      0.00
    1    2   10      7.06      0.00
    2    2   20      5.13      0.00
    2    2   18     17.68      0.00
    2    2   16      5.44      0.00
    2    2   14    -11.48      0.00
    2    2   12      8.52      0.00
    2    2    8    -18.19      0.00
    2    2    6    -21.08      0.00
    2    2    4    -17.63      0.00
    2    2    2     70.14      0.00
    2    2   10     -4.25      0.00
    0    3    0    195.60      0.00
    0    3    1    -80.07      0.00
    0    3    2    -43.97      0.00
    0    3    3    -59.30      0.00
    0    3    4     -7.69      0.00
    0    3    5    -58.08      0.00
    0    3    6     -6.21      0.00
    0    3    7    -14.36      0.00
    0    3    8      1.17      0.00
    0    3    9    -13.91      0.00
    0    3   10     -9.09      0.00
    0    3   11     -3.47      0.00
    0    3   12      8.34      0.00
    0    3   13      3.28      0.00
    0    3   14     -4.01      0.00
    0    3   15      4.78      0.00
    0    3   16      0.56      0.00
    0    3   17      8.03      0.00
    0    3   18     -6.13      0.00
    0    3   19      6.22      0.00
    0    3   20      8.58      0.00
    0    3   21      3.56      0.00
    1    3   21     -8.29      0.00
    1    3   20      6.92      0.00
    1    3   19      4.80      0.00
    1    3   18      5.54      0.00
    1    3   17    -10.14      0.00
    1    3   16     -8.74      0.00
    1    3   15      1.83      0.00
    1    3   14      6.93      0.00
    1    3   13      4.92      0.00
    1    3   12      0.70      0.00
    1    3   11     -3.34      0.00
    1    3   10      5.37      0.00
    1    3    9    -10.06      0.00
    1    3    8     -6.33      0.00
    1    3    7     16.40      0.00
    1    3    6      4.43      0.00
    1    3    5     23.42      0.00
    1    3    4    -12.58      0.00
    1    3    3     -2.98      0.00
    1    3    2    -11.05      0.00
    1    3    1     60.82      0.00
    1    3    0     45.08      0.00
    2    3   21      0.43      0.00
    2    3   20     -2.97      0.00
    2    3   19      0.06      0.00
    2    3   18      2.90      0.00
    2    3   17      9.37      0.00
    2    3   16      4.70      0.00
    2    3   15      7.14      0.00
    2    3   14     -2.85      0.00
    2    3   13     -8.69      0.00
    2    3   12     -3.56      0.00
    2    3   11      8.64      0.00
    2    3   10     -2.08      0.00
    2    3    9     -9.74      0.00
    2    3    8      4.39      0.00
    2    3    7      9.31      0.00
    2    3    6     10.18      0.00
    2    3    5    -13.44      0.00
    2    3    4    -16.48      0.00
    2    3    3     -6.00      0.00
    2    3    2    -14.82      0.00
    2    3    1     25.96      0.00
    2    3    0      5.16      0.00
    3    3   20     -4.77      0.00
    3    3   18     -1.27      0.00
    3    3   16     -9.77      0.00
    3    3   14      4.70      0.00
    3    3   12    -14.42      0.00
    3    3   10     -4.78      0.00
    3    3    8    -16.13      0.00
    3    3    6    -13.46      0.00
    3    3    4      6.05      0.00
    3    3    2    -89.89      0.00
    3    3    0     76.50      0.00
    0    4    0    147.38      0.00
    0    4    1     71.25      0.00
    0    4    2      5.78      0.00
    0    4    3     38.95      0.00
    0    4    4     22.96      0.00
    0    4    5     18.42      0.00
    0    4    6      0.40      0.00
    0    4    7      2.93      0.00
    0    4    8      5.01      0.00
    0    4    9     -0.27      0.00
    0    4   10      9.74      0.00
    0    4   11     -6.37      0.00
    0    4   12     -9.47      0.00
    0    4   13     -8.59      0.00
    0    4   14     15.85      0.00
    0    4   15     -0.81      0.00
    0    4   16     -8.91      0.00
    0    4   17     -7.98      0.00
    0    4   18     -2.24      0.00
    0    4   19    -17.52      0.00
    0    4   20     -0.38      0.00
    0    4   21     -3.49      0.00
    1    4   21      7.71      0.00
    1    4   20     11.88      0.00
    1    4   19     -8.57      0.00
    1    4   18      3.43      0.00
    1    4   17      7.89      0.00
    1    4   16      5.00      0.00
    1    4   15     -2.58      0.00
    1    4   14      4.12      0.00
    1    4   13     -4.52      0.00
    1    4   12      4.74      0.00
    1    4   11      3.49      0.00
    1    4   10      9.87      0.00
    1    4    9     -2.58      0.00
    1    4    8     -5.76      0.00
    1    4    7     -9.70      0.00
    1    4    6     -4.43      0.00
    1    4    5    -21.58      0.00
    1    4    4     -6.17      0.00
    1    4    3     -5.47      0.00
    1    4    2     -4.50      0.00
    1    4    1    -56.55      0.00
    1    4    0    -32.72      0.00
    2    4   21      5.57      0.00
    2    4   20     -4.23      0.00
    2    4   19     -2.41      0.00
    2    4   18     -6.16      0.00
    2    4   17     -1.41      0.00
    2    4   16     14.44      0.00
    2    4   15      0.94      0.00
    2    4   14     -7.00      0.00
    2    4   13      0.47      0.00
    2    4   12     -2.02      0.00
    2    4   11    -10.10      0.00
    2    4   10      0.86      0.00
    2    4    9     -5.77      0.00
    2    4    8      4.85      0.00
    2    4    7    -12.44      0.00
    2    4    6      2.88      0.00
    2    4    5    -12.19      0.00
    2    4    4    -28.91      0.00
    2    4    3    -19.44      0.00
    2    4    2      2.15      0.00
    2    4    1    -48.67      0.00
    2    4    0    -30.32      0.00
    3    4   21     -1.35      0.00
    3    4   20      9.77      0.00
    3    4   19    -10.27      0.00
    3    4   18     -2.85      0.00
    3    4   17      8.49      0.00
    3    4   16      1.23      0.00
    3    4   15    -15.31      0.00
    3    4   14     -3.36      0.00
    3    4   13      2.84      0.00
    3    4   12      5.51      0.00
    3    4   11     -7.08      0.00
    3    4   10     -2.05      0.00
    3    4    8     -3.05      0.00
    3    4    7     -7.66      0.00
    3    4    6      4.15      0.00
    3    4    5     -8.73      0.00
    3    4    4      1.34      0.00
    3    4    3      5.50      0.00
    3    4    2     41.98      0.00
    3    4    1    -17.51      0.00
    3    4    0    -24.29      0.00
    3    4    9      2.30      0.00
    4    4   20      1.73      0.00
    4    4   18      6.91      0.00
    4    4   16     -4.17      0.00
    4    4   14      4.97      0.00
    4    4   12     -1.13      0.00
    4    4   10     -1.66      0.00
    4    4    8      0.67      0.00
    4    4    6     12.11      0.00
    4    4    4      0.19      0.00
    4    4    2      4.36      0.00
    4    4    0     -5.45      0.00
    0    5    0     80.13      0.00
    0    5    1     11.07      0.00
    0    5    2    -44.86      0.00
    0    5    3     13.12      0.00
    0    5    4     27.00      0.00
    0    5    5     10.10      0.00
    0    5    6      4.59      0.00
    0    5    7      2.73      0.00
    0    5    8      2.49      0.00
    0    5    9      5.96      0.00
    0    5   10     11.91      0.00
    0    5   11     -7.07      0.00
    0    5   12     -2.71      0.00
    0    5   13      4.02      0.00
    0    5   14      0.07      0.00
    0    5   15     -6.79      0.00
    0    5   16      0.98      0.00
    0    5   17    -32.98      0.00
    0    5   18     -5.50      0.00
    0    5   19      1.92      0.00
    0    5   20      0.03      0.00
    0    5   21      3.91      0.00
    1    5   21     -0.85      0.00
    1    5   20     -0.40      0.00
    1    5   19      1.17      0.00
    1    5   18     11.17      0.00
    1    5   17      6.13      0.00
    1    5   16     16.17      0.00
    1    5   15     -1.70      0.00
    1    5   14     -4.04      0.00
    1    5   13      0.46      0.00
    1    5   12      9.14      0.00
    1    5   11      2.55      0.00
    1    5   10      0.72      0.00
    1    5    9     -3.76      0.00
    1    5    8     12.86      0.00
    1    5    7      0.52      0.00
    1    5    6     -6.80      0.00
    1    5    5    -12.36      0.00
    1    5    4    -12.72      0.00
    1    5    3     -4.86      0.00
    1    5    2     33.68      0.00
    1    5    1    -25.23      0.00
    1    5    0    -21.61      0.00
    2    5   21     -5.98      0.00
    2    5   20     -2.00      0.00
    2    5   19    -10.59      0.00
    2    5   18      4.59      0.00
    2    5   17    -29.79      0.00
    2    5   16     -7.88      0.00
    2    5   15    -10.14      0.00
    2    5   14     -0.10      0.00
    2    5   13     -3.99      0.00
    2    5   12     -4.56      0.00
    2    5   11     -1.50      0.00
    2    5   10     -0.84      0.00
    2    5    9      0.04      0.00
    2    5    8      0.77      0.00
    2    5    7      3.59      0.00
    2    5    6     -2.10      0.00
    2    5    5      6.22      0.00
    2    5    4     23.13      0.00
    2    5    3      8.29      0.00
    2    5    2     18.95      0.00
    2    5    1    -15.67      0.00
    2    5    0     11.31      0.00
    3    5   21      3.95      0.00
    3    5   20      0.20      0.00
    3    5   19     -3.94      0.00
    3    5   18      1.62      0.00
    3    5   17     -5.27      0.00
    3    5   16     19.27      0.00
    3    5   15      1.41      0.00
    3    5   14      0.00      0.00
    3    5   13     -5.94      0.00
    3    5   12     -0.25      0.00
    3    5   11      2.48      0.00
    3    5   10     -1.47      0.00
    3    5    9     -3.38      0.00
    3    5    8      0.02      0.00
    3    5    7      0.37      0.00
    3    5    6     -0.53      0.00
    3    5    5      5.95      0.00
    3    5    4      7.09      0.00
    3    5    3    -12.76      0.00
    3    5    2    -36.68      0.00
    3    5    1     12.39      0.00
    3    5    0    -16.76      0.00
    4    5   21     -1.14      0.00
    4    5   20     -2.40      0.00
    4    5   19      8.02      0.00
    4    5   18      6.66      0.00
    4    5   17    -13.45      0.00
    4    5   16      8.19      0.00
    4    5   15      0.41      0.00
    4    5   14      3.58      0.00
    4    5   13      8.26      0.00
    4    5   12      1.85      0.00
    4    5   11     -1.38      0.00
    4    5   10      0.93      0.00
    4    5    8      0.65      0.00
    4    5    7     10.64      0.00
    4    5    6     -6.85      0.00
    4    5    5      1.97      0.00
    4    5    4    -18.57      0.00
    4    5    3     11.48      0.00
    4    5    2    -26.29      0.00
    4    5    1      3.84      0.00
    4    5    0    -20.45      0.00
    4    5    9     -4.60      0.00
    5    5   20     -5.29      0.00
    5    5   18    -11.76      0.00
    5    5   16      1.76      0.00
    5    5   14     -2.81      0.00
    5    5   12      0.45      0.00
    5    5    8      6.34      0.00
    5    5    6     14.18      0.00
    5    5    4     13.38      0.00
    5    5    2     63.41      0.00
    5    5    0      5.73      0.00
    5    5   10    -11.36      0.00
    0    6    0     -0.95      0.00
    0    6    1     -3.01      0.00
    0    6    2    -19.63      0.00
    0    6    3     -7.41      0.00
    0    6    4     11.07      0.00
    0    6    5     -1.79      0.00
    0    6    6    -16.44      0.00
    0    6    7      7.23      0.00
    0    6    8     -1.85      0.00
    0    6    9      1.48      0.00
    0    6   10      5.63      0.00
    0    6   11      4.77      0.00
    0    6   12      0.06      0.00
    0    6   13      8.14      0.00
    0    6   14     14.49      0.00
    0    6   15     -8.48      0.00
    0    6   16    -26.26      0.00
    0    6   17      7.13      0.00
    0    6   18     14.30      0.00
    0    6   19      2.94      0.00
    0    6   20      2.60      0.00
    0    6   21      0.55      0.00
    1    6   21     -0.28      0.00
    1    6   20     -4.95      0.00
    1    6   19     -0.71      0.00
    1    6   18     -2.86      0.00
    1    6   17    -53.93      0.00
    1    6   16      3.40      0.00
    1    6   15     27.94      0.00
    1    6   14     -1.25      0.00
    1    6   13     -5.05      0.00
    1    6   12     -2.09      0.00
    1    6   11     -1.83      0.00
    1    6   10     -5.36      0.00
    1    6    9     -7.76      0.00
    1    6    8     -4.24      0.00
    1    6    7      8.66      0.00
    1    6    6      3.26      0.00
    1    6    5      7.25      0.00
    1    6    4    -18.92      0.00
    1    6    3      3.09      0.00
    1    6    2     -6.61      0.00
    1    6    1     33.21      0.00
    1    6    0     18.11      0.00
    2    6   21     -5.70      0.00
    2    6   20     -2.11      0.00
    2    6   19      6.43      0.00
    2    6   18     -3.38      0.00
    2    6   17     -0.63      0.00
    2    6   16     24.72      0.00
    2    6   15     -3.21      0.00
    2    6   14     -5.26      0.00
    2    6   13      1.82      0.00
    2    6   12     -3.38      0.00
    2    6   11     -2.24      0.00
    2    6   10     -7.39      0.00
    2    6    9     -1.68      0.00
    2    6    8     -9.15      0.00
    2    6    7      0.28      0.00
    2    6    6      2.80      0.00
    2    6    5      0.57      0.00
    2    6    4    -19.45      0.00
    2    6    3    -11.57      0.00
    2    6    2     12.68      0.00
    2    6    1     -5.67      0.00
    2    6    0    -21.20      0.00
    3    6   21      1.38      0.00
    3    6   20     -0.28      0.00
    3    6   19      5.19      0.00
    3    6   18      0.68      0.00
    3    6   17    -22.28      0.00
    3    6   16     -6.46      0.00
    3    6   15     -4.59      0.00
    3    6   14     -2.54      0.00
    3    6   13      2.76      0.00
    3    6   12      5.81      0.00
    3    6   11     -0.49      0.00
    3    6   10     -0.49      0.00
    3    6    9      1.86      0.00
    3    6    8      3.62      0.00
    3    6    7      6.73      0.00
    3    6    6     12.11      0.00
    3    6    5      5.29      0.00
    3    6    4      6.35      0.00
    3    6    3      0.38      0.00
    3    6    2      8.40      0.00
    3    6    1     -8.37      0.00
    3    6    0     20.72      0.00
    4    6   21      2.16      0.00
    4    6   20      2.05      0.00
    4    6   19     -2.69      0.00
    4    6   18      1.09      0.00
    4    6   17     -9.93      0.00
    4    6   16      3.54      0.00
    4    6   15      9.88      0.00
    4    6   14      0.95      0.00
    4    6   13     -0.20      0.00
    4    6   12      4.38      0.00
    4    6   11      3.34      0.00
    4    6   10      0.60      0.00
    4    6    8     -2.79      0.00
    4    6    7     -1.47      0.00
    4    6    6      2.72      0.00
    4    6    5     13.62      0.00
    4    6    4     -3.26      0.00
    4    6    3    -10.38      0.00
    4    6    2      6.75      0.00
    4    6    1     17.36      0.00
    4    6    0    -33.25      0.00
    4    6    9     -4.89      0.00
    5    6   21      1.72      0.00
    5    6   20     -0.71      0.00
    5    6   19      0.08      0.00
    5    6   18     -1.00      0.00
    5    6   17     -2.99      0.00
    5    6   16      8.97      0.00
    5    6   15     -2.40      0.00
    5    6   14      0.22      0.00
    5    6   13      0.33      0.00
    5    6   12     -5.70      0.00
    5    6   11      3.19      0.00
    5    6    8    -14.26      0.00
    5    6    7      0.10      0.00
    5    6    6     -1.24      0.00
    5    6    5     12.57      0.00
    5    6    4      7.36      0.00
    5    6    3      6.66      0.00
    5    6    2    -18.37      0.00
    5    6    1     25.46      0.00
    5    6    0    -17.17      0.00
    5    6    9      1.11      0.00
    5    6   10     -4.87      0.00
    6    6   20     -3.57      0.00
    6    6   18     -1.48      0.00
    6    6   16      3.92      0.00
    6    6   14     -5.68      0.00
    6    6   12     -8.21      0.00
    6    6    4     -4.64      0.00
    6    6    2     -3.86      0.00
    6    6    0     16.83      0.00
    6    6    6      4.61      0.00
    6    6    8     -9.56      0.00
    6    6   10      1.66      0.00
    0    7    0      0.54      0.00
    0    7    1      7.71      0.00
    0    7    2    -23.50      0.00
    0    7    3     -0.83      0.00
    0    7    4    -21.42      0.00
    0    7    5      0.03      0.00
    0    7    6    -12.91      0.00
    0    7    7     -0.91      0.00
    0    7    8    -10.70      0.00
    0    7    9     10.61      0.00
    0    7   10     -2.57      0.00
    0    7   11      4.88      0.00
    0    7   12     -0.95      0.00
    0    7   13      5.68      0.00
    0    7   14     -2.67      0.00
    0    7   15     23.99      0.00
    0    7   16      9.99      0.00
    0    7   17      7.79      0.00
    0    7   18     -3.03      0.00
    0    7   19      1.07      0.00
    0    7   20     -3.93      0.00
    0    7   21     10.66      0.00
    1    7   21      0.66      0.00
    1    7   20     -3.25      0.00
    1    7   19     -2.12      0.00
    1    7   18     -1.99      0.00
    1    7   17     -3.34      0.00
    1    7   16    -18.92      0.00
    1    7   15     -2.35      0.00
    1    7   14     -7.69      0.00
    1    7   13     -4.83      0.00
    1    7   12    -10.89      0.00
    1    7   11     -4.65      0.00
    1    7   10     -4.54      0.00
    1    7    9     -0.29      0.00
    1    7    8     -2.41      0.00
    1    7    7      0.34      0.00
    1    7    6    -18.30      0.00
    1    7    5     -1.87      0.00
    1    7    4    -14.32      0.00
    1    7    3      3.09      0.00
    1    7    2      3.77      0.00
    1    7    1     -4.83      0.00
    1    7    0     -4.69      0.00
    2    7   21      4.62      0.00
    2    7   20      3.71      0.00
    2    7   19     -9.20      0.00
    2    7   18      6.38      0.00
    2    7   17     -0.70      0.00
    2    7   16      1.21      0.00
    2    7   15      6.97      0.00
    2    7   14      2.11      0.00
    2    7   13    -10.45      0.00
    2    7   12      5.30      0.00
    2    7   11     -6.83      0.00
    2    7   10      2.23      0.00
    2    7    9      2.15      0.00
    2    7    8      6.96      0.00
    2    7    7    -15.64      0.00
    2    7    6     -7.40      0.00
    2    7    5     -1.16      0.00
    2    7    4      9.67      0.00
    2    7    3     -0.85      0.00
    2    7    2     -4.05      0.00
    2    7    1     -4.07      0.00
    2    7    0    -27.46      0.00
    3    7   21     -1.84      0.00
    3    7   20      2.72      0.00
    3    7   19     -0.39      0.00
    3    7   18     -0.37      0.00
    3    7   17     -1.96      0.00
    3    7   16      2.59      0.00
    3    7   15      4.28      0.00
    3    7   14      0.65      0.00
    3    7   13      0.51      0.00
    3    7   12      1.76      0.00
    3    7   11      0.62      0.00
    3    7   10      6.47      0.00
    3    7    9      2.65      0.00
    3    7    8     -0.58      0.00
    3    7    7     -1.10      0.00
    3    7    6      1.30      0.00
    3    7    5      6.74      0.00
    3    7    4     14.12      0.00
    3    7    3     -9.27      0.00
    3    7    2     -4.64      0.00
    3    7    1      7.13      0.00
    3    7    0     18.24      0.00
    4    7   21      1.08      0.00
    4    7   20     -0.28      0.00
    4    7   19     -1.05      0.00
    4    7   18     -2.73      0.00
    4    7   17     -0.94      0.00
    4    7   16     -2.23      0.00
    4    7   15     -3.79      0.00
    4    7   14     -3.88      0.00
    4    7   13     -4.03      0.00
    4    7   12     -0.88      0.00
    4    7   11      1.45      0.00
    4    7   10     -1.16      0.00
    4    7    9     -2.45      0.00
    4    7    8      5.66      0.00
    4    7    7      0.51      0.00
    4    7    6     -1.20      0.00
    4    7    5      1.17      0.00
    4    7    4    -12.51      0.00
    4    7    3     -3.71      0.00
    4    7    2      7.40      0.00
    4    7    1     -2.25      0.00
    4    7    0      5.32      0.00
    5    7   20     -0.23      0.00
    5    7   19      4.24      0.00
    5    7   18      2.27      0.00
    5    7   17      5.01      0.00
    5    7   16     -0.56      0.00
    5    7   15      1.66      0.00
    5    7   14      2.00      0.00
    5    7   13     -1.65      0.00
    5    7   12      0.84      0.00
    5    7   11     -3.34      0.00
    5    7    8      5.76      0.00
    5    7    7     -7.12      0.00
    5    7    6     -3.79      0.00
    5    7    5      3.13      0.00
    5    7    4     -9.66      0.00
    5    7    3     -4.01      0.00
    5    7    2     -8.14      0.00
    5    7    1     -0.31      0.00
    5    7    0    -13.53      0.00
    5    7    9      2.66      0.00
    5    7   10     -0.71      0.00
    6    7   20      5.94      0.00
    6    7   19     -6.86      0.00
    6    7   18     -7.42      0.00
    6    7   17      3.09      0.00
    6    7   16      2.04      0.00
    6    7   15     -1.11      0.00
    6    7   14      2.99      0.00
    6    7   13     -0.82      0.00
    6    7   12      6.76      0.00
    6    7   11     -2.96      0.00
    6    7    4     -1.57      0.00
    6    7    3      2.28      0.00
    6    7    2      8.58      0.00
    6    7    1      6.42      0.00
    6    7    0    -12.69      0.00
    6    7    5      8.68      0.00
    6    7    6      0.16      0.00
    6    7    7     -5.13      0.00
    6    7    8     -4.09      0.00
    6    7    9      3.61      0.00
    6    7   10      2.17      0.00
    7    7   20      6.57      0.00
    7    7   18     -3.18      0.00
    7    7   16     -0.55      0.00
    7    7   14     -0.16      0.00
    7    7   12     -2.39      0.00
    7    7    4     19.03      0.00
    7    7    2      5.95      0.00
    7    7    0     -0.03      0.00
    7    7    6      7.07      0.00
    7    7    8     -6.09      0.00
    7    7   10     -1.09      0.00
    0    8    0     22.31      0.00
    0    8    1      8.61      0.00
    0    8    2    -27.28      0.00
    0    8    3     13.09      0.00
    0    8    4     32.20      0.00
    0    8    5    -12.31      0.00
    0    8    6    -23.11      0.00
    0    8    7      7.62      0.00
    0    8    8     -8.71      0.00
    0    8    9     -1.37      0.00
    0    8   10     -1.27      0.00
    0    8   11      1.84      0.00
    0    8   12      1.52      0.00
    0    8   13     -1.36      0.00
    0    8   14      8.92      0.00
    0    8   15      4.22      0.00
    0    8   16    -15.14      0.00
    0    8   17      0.83      0.00
    0    8   18      5.61      0.00
    0    8   19     -9.76      0.00
    0    8   20     -1.34      0.00
    0    8   21      7.09      0.00
    1    8   21     -1.09      0.00
    1    8   20      0.43      0.00
    1    8   19      3.01      0.00
    1    8   18      4.41      0.00
    1    8   17      5.42      0.00
    1    8   16     -2.55      0.00
    1    8   15      3.65      0.00
    1    8   14     -4.33      0.00
    1    8   13     -3.66      0.00
    1    8   12     -1.42      0.00
    1    8   11      2.31      0.00
    1    8   10      7.37      0.00
    1    8    9     -4.59      0.00
    1    8    8     -1.37      0.00
    1    8    7      0.25      0.00
    1    8    6     -1.24      0.00
    1    8    5      0.73      0.00
    1    8    4     15.38      0.00
    1    8    3      5.96      0.00
    1    8    2    -11.82      0.00
    1    8    1     -6.38      0.00
    1    8    0      8.53      0.00
    2    8   21      0.73      0.00
    2    8   20      0.87      0.00
    2    8   19      4.06      0.00
    2    8   18     -4.29      0.00
    2    8   17      1.74      0.00
    2    8   16      2.62      0.00
    2    8   15      2.18      0.00
    2    8   14    -11.85      0.00
    2    8   13     -2.25      0.00
    2    8   12      0.67      0.00
    2    8   11      4.41      0.00
    2    8   10      3.74      0.00
    2    8    9     -5.00      0.00
    2    8    8      4.06      0.00
    2    8    7      2.74      0.00
    2    8    6      1.85      0.00
    2    8    5      1.59      0.00
    2    8    4    -13.11      0.00
    2    8    3      9.14      0.00
    2    8    2      6.09      0.00
    2    8    1    -14.80      0.00
    2    8    0      7.95      0.00
    3    8   21     -7.03      0.00
    3    8   20     -0.57      0.00
    3    8   19     -2.43      0.00
    3    8   18      2.70      0.00
    3    8   17     11.94      0.00
    3    8   16     -0.70      0.00
    3    8   15      1.28      0.00
    3    8   14      6.46      0.00
    3    8   13      0.41      0.00
    3    8   12      2.47      0.00
    3    8   11     -0.47      0.00
    3    8   10     -0.98      0.00
    3    8    9      0.07      0.00
    3    8    8      2.72      0.00
    3    8    7     -0.54      0.00
    3    8    6      0.99      0.00
    3    8    5     -3.28      0.00
    3    8    4     12.78      0.00
    3    8    3      1.64      0.00
    3    8    2    -27.55      0.00
    3    8    1     -3.08      0.00
    3    8    0     25.61      0.00
    4    8   20      1.63      0.00
    4    8   19     -1.58      0.00
    4    8   18      4.16      0.00
    4    8   17     -6.50      0.00
    4    8   16     -7.36      0.00
    4    8   15     -2.15      0.00
    4    8   14     -2.07      0.00
    4    8   13      4.09      0.00
    4    8   12      5.02      0.00
    4    8   11      2.68      0.00
    4    8   10     -1.37      0.00
    4    8    9      0.04      0.00
    4    8    8      5.04      0.00
    4    8    7      7.47      0.00
    4    8    6     -1.12      0.00
    4    8    5      5.89      0.00
    4    8    4     18.76      0.00
    4    8    3     16.23      0.00
    4    8    2      7.98      0.00
    4    8    1     14.83      0.00
    4    8    0     11.53      0.00
    5    8   20     -5.58      0.00
    5    8   19     -0.96      0.00
    5    8   18     -4.23      0.00
    5    8   17      5.18      0.00
    5    8   16     -2.31      0.00
    5    8   15      0.57      0.00
    5    8   14      2.85      0.00
    5    8   13     -0.77      0.00
    5    8   12      0.12      0.00
    5    8   11     -3.54      0.00
    5    8   10      3.62      0.00
    5    8    8     -5.09      0.00
    5    8    7     -4.06      0.00
    5    8    6     -6.78      0.00
    5    8    5     -3.25      0.00
    5    8    4     13.24      0.00
    5    8    3     -9.82      0.00
    5    8    2     -5.87      0.00
    5    8    1    -17.47      0.00
    5    8    0    -11.83      0.00
    5    8    9     -1.80      0.00
    6    8   20     -5.52      0.00
    6    8   19      1.89      0.00
    6    8   18      2.66      0.00
    6    8   17     -1.49      0.00
    6    8   16      0.24      0.00
    6    8   15      1.39      0.00
    6    8   14      5.33      0.00
    6    8   13     -1.56      0.00
    6    8   12     -2.57      0.00
    6    8   11      6.81      0.00
    6    8    6      4.73      0.00
    6    8    5     -5.76      0.00
    6    8    4      1.59      0.00
    6    8    3      4.79      0.00
    6    8    2    -12.55      0.00
    6    8    1      0.96      0.00
    6    8    0     16.51      0.00
    6    8    7      2.77      0.00
    6    8    8      5.10      0.00
    6    8    9     -3.21      0.00
    6    8   10      4.28      0.00
    7    8   20     -1.47      0.00
    7    8   19      0.00      0.00
    7    8   18     -0.17      0.00
    7    8   17     -1.90      0.00
    7    8   16     -1.52      0.00
    7    8   15      0.31      0.00
    7    8   14      1.40      0.00
    7    8   13     -5.27      0.00
    7    8   12     -0.42      0.00
    7    8    4     -6.52      0.00
    7    8    3      8.33      0.00
    7    8    2     -0.99      0.00
    7    8    1     -3.94      0.00
    7    8    0     17.40      0.00
    7    8    5     -5.62      0.00
    7    8    6     -5.05      0.00
    7    8    7     -0.63      0.00
    7    8    8      8.13      0.00
    7    8    9     -0.82      0.00
    7    8   10      1.20      0.00
    7    8   11     -3.09      0.00
    8    8   18     -0.70      0.00
    8    8   16     -6.96      0.00
    8    8   14     -8.74      0.00
    8    8   12      3.81      0.00
    8    8    2     -2.00      0.00
    8    8    0    -12.46      0.00
    8    8    4     12.18      0.00
    8    8    6    -16.35      0.00
    8    8    8      3.68      0.00
    8    8   10     -6.25      0.00
    0    9    0     25.78      0.00
    0    9    1     -8.03      0.00
    0    9    2     13.55      0.00
    0    9    3    -15.15      0.00
    0    9    4    -15.20      0.00
    0    9    5     -8.75      0.00
    0    9    6     20.59      0.00
    0    9    7     -5.42      0.00
    0    9    8      5.90      0.00
    0    9    9     -4.09      0.00
    0    9   10     -6.48      0.00
    0    9   11     -1.60      0.00
    0    9   12    -11.83      0.00
    0    9   13      3.44      0.00
    0    9   14     -5.99      0.00
    0    9   15     -0.01      0.00
    0    9   16     -8.94      0.00
    0    9   17     -8.86      0.00
    0    9   18     -0.31      0.00
    0    9   19     -3.21      0.00
    0    9   20      2.60      0.00
    0    9   21     -1.28      0.00
    1    9   21     -0.34      0.00
    1    9   20     -0.89      0.00
    1    9   19     -3.74      0.00
    1    9   18      4.36      0.00
    1    9   17     -1.05      0.00
    1    9   16     12.59      0.00
    1    9   15      3.60      0.00
    1    9   14      5.61      0.00
    1    9   13      8.75      0.00
    1    9   12      5.04      0.00
    1    9   11     -2.03      0.00
    1    9   10      2.96      0.00
    1    9    9      4.39      0.00
    1    9    8     -2.89      0.00
    1    9    7     -0.77      0.00
    1    9    6      1.20      0.00
    1    9    5      1.35      0.00
    1    9    4     -4.53      0.00
    1    9    3     10.90      0.00
    1    9    2      8.26      0.00
    1    9    1     -1.03      0.00
    1    9    0    -25.88      0.00
    2    9   20     -0.55      0.00
    2    9   19     -2.47      0.00
    2    9   18     -5.62      0.00
    2    9   17     -9.70      0.00
    2    9   16      1.32      0.00
    2    9   15      0.49      0.00
    2    9   14      4.00      0.00
    2    9   13     -0.82      0.00
    2    9   12     -0.18      0.00
    2    9   11     -8.83      0.00
    2    9   10      5.52      0.00
    2    9    9      7.46      0.00
    2    9    8     -3.36      0.00
    2    9    7      2.47      0.00
    2    9    6      5.80      0.00
    2    9    5     13.90      0.00
    2    9    4     13.10      0.00
    2    9    3     -3.82      0.00
    2    9    2      2.54      0.00
    2    9    1      9.35      0.00
    2    9    0      3.73      0.00
    3    9   20      0.93      0.00
    3    9   19      1.43      0.00
    3    9   18      3.74      0.00
    3    9   17      4.21      0.00
    3    9   16      4.13      0.00
    3    9   15     -9.33      0.00
    3    9   14     -2.32      0.00
    3    9   13      2.86      0.00
    3    9   12     -0.70      0.00
    3    9   11      1.82      0.00
    3    9   10     -0.71      0.00
    3    9    9      4.33      0.00
    3    9    8     -4.95      0.00
    3    9    7     -1.10      0.00
    3    9    6      4.18      0.00
    3    9    5      2.81      0.00
    3    9    4    -10.97      0.00
    3    9    3     15.00      0.00
    3    9    2     -5.91      0.00
    3    9    1     -5.56      0.00
    3    9    0     -3.16      0.00
    4    9   20      0.65      0.00
    4    9   19      5.18      0.00
    4    9   18     -0.85      0.00
    4    9   17     -0.84      0.00
    4    9   16      5.62      0.00
    4    9   15      5.78      0.00
    4    9   14     -4.91      0.00
    4    9   13      0.74      0.00
    4    9   12     -0.82      0.00
    4    9   11      5.10      0.00
    4    9   10     -4.56      0.00
    4    9    9     -4.70      0.00
    4    9    8      4.63      0.00
    4    9    7      1.70      0.00
    4    9    6      6.46      0.00
    4    9    5     -7.77      0.00
    4    9    4     -7.25      0.00
    4    9    3      2.18      0.00
    4    9    2      7.54      0.00
    4    9    1      2.50      0.00
    4    9    0     -1.49      0.00
    5    9   20     -4.26      0.00
    5    9   19     -4.05      0.00
    5    9   18      3.97      0.00
    5    9   17      3.54      0.00
    5    9   16      0.02      0.00
    5    9   15     -3.47      0.00
    5    9   14     -0.59      0.00
    5    9   13      4.89      0.00
    5    9   12     -6.50      0.00
    5    9   11      4.35      0.00
    5    9   10     -2.43      0.00
    5    9    8     -5.34      0.00
    5    9    7     -2.99      0.00
    5    9    6      3.98      0.00
    5    9    5     12.24      0.00
    5    9    4     -9.91      0.00
    5    9    3     -0.66      0.00
    5    9    2      3.61      0.00
    5    9    1     14.87      0.00
    5    9    0     -0.71      0.00
    5    9    9      7.92      0.00
    6    9   20      1.34      0.00
    6    9   19      2.62      0.00
    6    9   18      1.99      0.00
    6    9   17      2.83      0.00
    6    9   16      0.28      0.00
    6    9   15     -1.88      0.00
    6    9   14     -3.16      0.00
    6    9   13     -1.85      0.00
    6    9   12      2.09      0.00
    6    9   11     -3.97      0.00
    6    9    7      0.95      0.00
    6    9    6      4.85      0.00
    6    9    5     -3.48      0.00
    6    9    4      9.03      0.00
    6    9    3      4.75      0.00
    6    9    2      5.29      0.00
    6    9    1    -12.10      0.00
    6    9    0    -15.57      0.00
    6    9    8     -6.36      0.00
    6    9    9      0.49      0.00
    6    9   10     -5.48      0.00
    7    9   19     -1.03      0.00
    7    9   18     -2.18      0.00
    7    9   17     -2.37      0.00
    7    9   16      0.76      0.00
    7    9   15     -5.90      0.00
    7    9   14      0.71      0.00
    7    9   13      3.40      0.00
    7    9   12     -2.18      0.00
    7    9   11     -0.09      0.00
    7    9    4     -8.33      0.00
    7    9    3     -0.31      0.00
    7    9    2      4.22      0.00
    7    9    1      2.24      0.00
    7    9    0     -9.30      0.00
    7    9    5     -4.52      0.00
    7    9    6      3.12      0.00
    7    9    7     -0.41      0.00
    7    9    8     -2.26      0.00
    7    9    9      2.45      0.00
    7    9   10      3.42      0.00
    8    9   19     -2.20      0.00
    8    9   18      5.48      0.00
    8    9   17      4.32      0.00
    8    9   16      3.17      0.00
    8    9   15     -1.55      0.00
    8    9   14      1.31      0.00
    8    9   13      4.75      0.00
    8    9   12      0.14      0.00
    8    9    3      1.79      0.00
    8    9    2     -3.32      0.00
    8    9    1      1.62      0.00
    8    9    0     -5.65      0.00
    8    9    4      3.42      0.00
    8    9    5     -2.89      0.00
    8    9    6      0.55      0.00
    8    9    7     -4.88      0.00
    8    9    8      1.21      0.00
    8    9    9     -3.98      0.00
    8    9   10     -0.06      0.00
    8    9   11     -1.61      0.00
    9    9   18      1.86      0.00
    9    9   16     -0.37      0.00
    9    9   14     -0.78      0.00
    9    9   12     -3.52      0.00
    9    9    2      2.67      0.00
    9    9    0     -4.95      0.00
    9    9    4     -4.92      0.00
    9    9    6     -5.48      0.00
    9    9    8      4.46      0.00
    9    9   10    -10.74      0.00
    0   10    0      3.92      0.00
    0   10    1     -7.30      0.00
    0   10    2    -12.86      0.00
    0   10    3     -2.33      0.00
    0   10    4     18.85      0.00
    0   10    5      9.26      0.00
    0   10    6    -10.54      0.00
    0   10    7      5.74      0.00
    0   10    8     -5.39      0.00
    0   10    9      1.88      0.00
    0   10   10      1.60      0.00
    0   10   11     -3.23      0.00
    0   10   12      0.30      0.00
    0   10   13      3.96      0.00
    0   10   14      1.86      0.00
    0   10   15     -7.14      0.00
    0   10   16     -0.04      0.00
    0   10   17     -2.41      0.00
    0   10   18     -0.09      0.00
    0   10   19     -4.24      0.00
    0   10   20     -5.05      0.00
    1   10   20      0.82      0.00
    1   10   19      0.44      0.00
    1   10   18      5.30      0.00
    1   10   17     -9.85      0.00
    1   10   16      3.28      0.00
    1   10   15      5.89      0.00
    1   10   14      4.45      0.00
    1   10   13     -1.77      0.00
    1   10   12     -2.22      0.00
    1   10   11      3.12      0.00
    1   10   10      3.38      0.00
    1   10    9     -0.95      0.00
    1   10    8     12.12      0.00
    1   10    7      0.11      0.00
    1   10    6     -4.53      0.00
    1   10    5      0.11      0.00
    1   10    4     -6.67      0.00
    1   10    3     -2.01      0.00
    1   10    2     14.98      0.00
    1   10    1      1.89      0.00
    1   10    0      7.00      0.00
    2   10   20      1.55      0.00
    2   10   19      1.35      0.00
    2   10   18      8.86      0.00
    2   10   17     -0.21      0.00
    2   10   16     12.71      0.00
    2   10   15      0.41      0.00
    2   10   14      1.83      0.00
    2   10   13      0.27      0.00
    2   10   12     -0.45      0.00
    2   10   11      2.44      0.00
    2   10   10     -1.85      0.00
    2   10    9      4.36      0.00
    2   10    8      7.74      0.00
    2   10    7     -6.33      0.00
    2   10    6     17.76      0.00
    2   10    5      0.26      0.00
    2   10    4    -12.14      0.00
    2   10    3      1.05      0.00
    2   10    2      4.17      0.00
    2   10    1      3.19      0.00
    2   10    0    -13.48      0.00
    3   10   20      1.76      0.00
    3   10   19     -1.70      0.00
    3   10   18     -3.32      0.00
    3   10   17     -6.25      0.00
    3   10   16      0.25      0.00
    3   10   15     -4.05      0.00
    3   10   14     -0.36      0.00
    3   10   13     -2.95      0.00
    3   10   12      1.34      0.00
    3   10   11      0.75      0.00
    3   10   10      1.34      0.00
    3   10    9      3.46      0.00
    3   10    8      5.26      0.00
    3   10    7     -0.34      0.00
    3   10    6     -1.39      0.00
    3   10    5     11.30      0.00
    3   10    4      3.88      0.00
    3   10    3     -0.86      0.00
    3   10    2      8.86      0.00
    3   10    1      2.00      0.00
    3   10    0     23.07      0.00
    4   10   20      1.31      0.00
    4   10   19      5.27      0.00
    4   10   18     -2.46      0.00
    4   10   17     -3.10      0.00
    4   10   16      2.99      0.00
    4   10   15     -1.31      0.00
    4   10   14      7.05      0.00
    4   10   13     -0.17      0.00
    4   10   10     -2.77      0.00
    4   10    9      0.25      0.00
    4   10    8      1.38      0.00
    4   10    7     -0.77      0.00
    4   10    6     -5.37      0.00
    4   10    5     -3.97      0.00
    4   10    4     -0.24      0.00
    4   10    3     -0.39      0.00
    4   10    2     -8.83      0.00
    4   10    1     -6.57      0.00
    4   10    0     -4.80      0.00
    4   10   11      0.90      0.00
    4   10   12     -2.47      0.00
    5   10   20     -2.53      0.00
    5   10   19      1.19      0.00
    5   10   18      2.11      0.00
    5   10   17      2.59      0.00
    5   10   16     -0.40      0.00
    5   10   15      1.63      0.00
    5   10   14     -2.65      0.00
    5   10   13      0.20      0.00
    5   10    8      2.38      0.00
    5   10    7     -2.64      0.00
    5   10    6      3.26      0.00
    5   10    5      5.02      0.00
    5   10    4      3.18      0.00
    5   10    3      8.18      0.00
    5   10    2      0.28      0.00
    5   10    1      6.38      0.00
    5   10    0     -9.09      0.00
    5   10    9      0.84      0.00
    5   10   10     -0.30      0.00
    5   10   11     -3.93      0.00
    5   10   12     -0.85      0.00
    6   10   19      1.81      0.00
    6   10   18      1.98      0.00
    6   10   17     -3.49      0.00
    6   10   16     -0.91      0.00
    6   10   15      3.33      0.00
    6   10   14      5.38      0.00
    6   10   13     -7.73      0.00
    6   10   12    -14.76      0.00
    6   10    7      1.83      0.00
    6   10    6      2.90      0.00
    6   10    5      6.22      0.00
    6   10    4     -5.44      0.00
    6   10    3     -0.77      0.00
    6   10    2     -0.40      0.00
    6   10    1      6.14      0.00
    6   10    0      5.42      0.00
    6   10    8    -10.79      0.00
    6   10    9     -2.77      0.00
    6   10   10     -2.39      0.00
    6   10   11      9.05      0.00
    7   10   19      3.56      0.00
    7   10   18     -0.98      0.00
    7   10   17      2.09      0.00
    7   10   16     -3.10      0.00
    7   10   15     -1.86      0.00
    7   10   14      3.74      0.00
    7   10   13      2.45      0.00
    7   10   12      2.03      0.00
    7   10   11      6.26      0.00
    7   10    3     -0.79      0.00
    7   10    2      2.45      0.00
    7   10    1      1.70      0.00
    7   10    0     -2.51      0.00
    7   10    4     -3.69      0.00
    7   10    5     -0.33      0.00
    7   10    6      1.72      0.00
    7   10    7      3.16      0.00
    7   10    8     -1.11      0.00
    7   10    9      3.26      0.00
    7   10   10     -5.75      0.00
    8   10   19      3.17      0.00
    8   10   18      3.77      0.00
    8   10   17      2.53      0.00
    8   10   16     -0.03      0.00
    8   10   15      1.21      0.00
    8   10   14     -1.98      0.00
    8   10   13    -14.29      0.00
    8   10   12     -1.11      0.00
    8   10   11      1.48      0.00
    8   10    3      2.58      0.00
    8   10    2     -7.91      0.00
    8   10    1     -3.70      0.00
    8   10    0     -0.86      0.00
    8   10    4     -1.20      0.00
    8   10    5      1.40      0.00
    8   10    6     -1.23      0.00
    8   10    7      0.30      0.00
    8   10    8      2.67      0.00
    8   10    9      0.22      0.00
    8   10   10     -3.74      0.00
    9   10   18      0.43      0.00
    9   10   17     -2.47      0.00
    9   10   16     -5.04      0.00
    9   10   15     -1.07      0.00
    9   10   14     -3.33      0.00
    9   10   13      5.21      0.00
    9   10   12      0.36      0.00
    9   10    2     10.54      0.00
    9   10    1      0.10      0.00
    9   10    0    -13.73      0.00
    9   10    3     -6.81      0.00
    9   10    4      3.45      0.00
    9   10    5     -7.11      0.00
    9   10    6      1.86      0.00
    9   10    7     -4.53      0.00
    9   10    8      2.68      0.00
    9   10    9     -6.69      0.00
    9   10   10      0.76      0.00
    9   10   11     -3.98      0.00
   10   10   16     -0.38      0.00
   10   10   14      2.99      0.00
   10   10   12     -1.41      0.00
   10   10    2      1.75      0.00
   10   10    0      6.78      0.00
   10   10    4      3.08      0.00
   10   10    6      4.61      0.00
   10   10    8     -3.29      0.00
   10   10   10      5.17      0.00
   10   10   18     -3.18      0.00
    0   11    0      7.53      0.00
    0   11    1      0.06      0.00
    0   11    2     13.17      0.00
    0   11    3      3.03      0.00
    0   11    4      1.76      0.00
    0   11    5     -6.91      0.00
    0   11    6     -8.04      0.00
    0   11    7     -2.88      0.00
    0   11    8      2.73      0.00
    0   11    9      4.23      0.00
    0   11   10     -5.44      0.00
    0   11   11     13.35      0.00
    0   11   12      5.60      0.00
    0   11   13      5.27      0.00
    0   11   14      2.40      0.00
    0   11   15     -0.06      0.00
    0   11   16      1.29      0.00
    0   11   17      3.99      0.00
    0   11   18     13.85      0.00
    0   11   19      2.24      0.00
    0   11   20     -0.94      0.00
    1   11   20     -2.60      0.00
    1   11   19      5.11      0.00
    1   11   18      2.85      0.00
    1   11   17     -5.30      0.00
    1   11   16      1.05      0.00
    1   11   15      1.17      0.00
    1   11   14     -0.18      0.00
    1   11   13      1.65      0.00
    1   11   12     -2.75      0.00
    1   11   11     -3.36      0.00
    1   11   10      4.53      0.00
    1   11    9    -13.62      0.00
    1   11    8      0.27      0.00
    1   11    7      0.33      0.00
    1   11    6     10.16      0.00
    1   11    5     -1.60      0.00
    1   11    4     11.65      0.00
    1   11    3     -0.04      0.00
    1   11    2      4.72      0.00
    1   11    1    -14.54      0.00
    1   11    0      5.52      0.00
    2   11   20     -1.92      0.00
    2   11   19      4.83      0.00
    2   11   18      1.98      0.00
    2   11   17     -0.71      0.00
    2   11   16      1.00      0.00
    2   11   15     -1.52      0.00
    2   11   14      4.64      0.00
    2   11   13     -1.63      0.00
    2   11   12      8.63      0.00
    2   11   11     -6.97      0.00
    2   11   10     16.22      0.00
    2   11    9     -1.28      0.00
    2   11    8     -2.99      0.00
    2   11    7     -3.95      0.00
    2   11    6     -5.58      0.00
    2   11    5     14.95      0.00
    2   11    4      0.26      0.00
    2   11    3     16.33      0.00
    2   11    2      4.94      0.00
    2   11    1      0.16      0.00
    2   11    0      5.90      0.00
    3   11   20     -1.15      0.00
    3   11   19      0.62      0.00
    3   11   18      1.34      0.00
    3   11   17      0.95      0.00
    3   11   16      0.85      0.00
    3   11   15     -3.06      0.00
    3   11   14      1.92      0.00
    3   11   12      1.49      0.00
    3   11   11     10.08      0.00
    3   11   10     -1.28      0.00
    3   11    9     -1.63      0.00
    3   11    8      8.18      0.00
    3   11    7      7.47      0.00
    3   11    6      2.10      0.00
    3   11    5    -11.33      0.00
    3   11    4     12.47      0.00
    3   11    3      8.25      0.00
    3   11    2    -10.11      0.00
    3   11    1     -4.77      0.00
    3   11    0     24.51      0.00
    3   11   13      1.80      0.00
    4   11   20     -5.70      0.00
    4   11   19      8.67      0.00
    4   11   18      2.63      0.00
    4   11   17     -1.39      0.00
    4   11   16     -1.05      0.00
    4   11   15      0.66      0.00
    4   11   14     -0.24      0.00
    4   11    9     -0.29      0.00
    4   11    8      1.62      0.00
    4   11    7      0.82      0.00
    4   11    6     -2.71      0.00
    4   11    5     -0.72      0.00
    4   11    4     -2.84      0.00
    4   11    3      8.85      0.00
    4   11    2      1.05      0.00
    4   11    1    -12.41      0.00
    4   11    0     -0.50      0.00
    4   11   10     -5.25      0.00
    4   11   11      7.19      0.00
    4   11   12      1.47      0.00
    4   11   13      2.24      0.00
    5   11   19      1.19      0.00
    5   11   18     -3.60      0.00
    5   11   17     -1.59      0.00
    5   11   16     -2.63      0.00
    5   11   15      0.62      0.00
    5   11   14     -0.21      0.00
    5   11    8     -0.94      0.00
    5   11    7     -1.26      0.00
    5   11    6      3.72      0.00
    5   11    5     -1.16      0.00
    5   11    4     11.97      0.00
    5   11    3     -7.70      0.00
    5   11    2      5.56      0.00
    5   11    1      2.65      0.00
    5   11    0     11.25      0.00
    5   11    9     -2.51      0.00
    5   11   10      0.67      0.00
    5   11   11      0.62      0.00
    5   11   12      0.66      0.00
    5   11   13     -8.59      0.00
    6   11   19      4.65      0.00
    6   11   18      2.44      0.00
    6   11   17     -1.54      0.00
    6   11   16     -3.04      0.00
    6   11   15     -2.69      0.00
    6   11   14     -0.64      0.00
    6   11   13     -2.82      0.00
    6   11    7      1.93      0.00
    6   11    6     -1.96      0.00
    6   11    5     -2.40      0.00
    6   11    4     -1.74      0.00
    6   11    3      3.89      0.00
    6   11    2    -10.17      0.00
    6   11    1      0.05      0.00
    6   11    0      8.67      0.00
    6   11    8      1.00      0.00
    6   11    9     -1.60      0.00
    6   11   10      6.75      0.00
    6   11   11      1.87      0.00
    6   11   12      2.28      0.00
    7   11   19      3.21      0.00
    7   11   18      0.55      0.00
    7   11   17      2.29      0.00
    7   11   16     -0.50      0.00
    7   11   15      0.15      0.00
    7   11   14      0.81      0.00
    7   11   13    -12.10      0.00
    7   11    3      3.25      0.00
    7   11    2     -7.51      0.00
    7   11    1     -2.98      0.00
    7   11    0     -1.58      0.00
    7   11    4      4.68      0.00
    7   11    5     -1.88      0.00
    7   11    6      3.02      0.00
    7   11    7      0.04      0.00
    7   11    8      0.32      0.00
    7   11    9     -0.90      0.00
    7   11   10     -0.37      0.00
    7   11   11      2.77      0.00
    7   11   12      2.17      0.00
    8   11   18     -0.08      0.00
    8   11   17     -1.35      0.00
    8   11   16     -0.56      0.00
    8   11   15     -0.09      0.00
    8   11   14     -3.20      0.00
    8   11   13      1.87      0.00
    8   11    3      1.98      0.00
    8   11    2     -0.02      0.00
    8   11    1      5.46      0.00
    8   11    0     10.47      0.00
    8   11    4     -3.07      0.00
    8   11    5     -1.30      0.00
    8   11    6     -5.14      0.00
    8   11    7      0.75      0.00
    8   11    8      4.16      0.00
    8   11    9      1.58      0.00
    8   11   10      4.41      0.00
    8   11   11     -1.05      0.00
    8   11   12     -4.20      0.00
    9   11   18      3.07      0.00
    9   11   17     -2.79      0.00
    9   11   16      1.48      0.00
    9   11   15      0.79      0.00
    9   11   14     -1.29      0.00
    9   11   13    -39.99      0.00
    9   11   12      3.77      0.00
    9   11    2     -4.44      0.00
    9   11    1     -4.64      0.00
    9   11    0      2.05      0.00
    9   11    3     -3.99      0.00
    9   11    4      3.22      0.00
    9   11    5     -0.68      0.00
    9   11    6     -5.90      0.00
    9   11    7     -4.37      0.00
    9   11    8     -0.38      0.00
    9   11    9     -3.40      0.00
    9   11   10     -3.93      0.00
    9   11   11      5.17      0.00
   10   11   17     -2.50      0.00
   10   11   16     -3.61      0.00
   10   11   15      6.29      0.00
   10   11   14     -5.98      0.00
   10   11   13     -0.05      0.00
   10   11   12     -4.82      0.00
   10   11    2     -5.39      0.00
   10   11    1     -5.32      0.00
   10   11    0      0.36      0.00
   10   11    3     -4.71      0.00
   10   11    4     -4.19      0.00
   10   11    5    -11.55      0.00
   10   11    6     -4.07      0.00
   10   11    7      3.59      0.00
   10   11    8      3.72      0.00
   10   11    9     -5.04      0.00
   10   11   10     -1.50      0.00
   10   11   11     -0.50      0.00
   10   11   18      1.29      0.00
   11   11   14     -7.98      0.00
   11   11   12     -0.63      0.00
   11   11    2      7.25      0.00
   11   11    0      3.07      0.00
   11   11    4      2.72      0.00
   11   11    6      0.05      0.00
   11   11    8      3.54      0.00
   11   11   10      1.32      0.00
   11   11   16     -4.03      0.00
   11   11   18     -0.92      0.00
    0   12    0     18.46      0.00
    0   12    1    -10.38      0.00
    0   12    2      2.21      0.00
    0   12    3     -5.04      0.00
    0   12    4      8.20      0.00
    0   12    5      1.29      0.00
    0   12    6     -5.98      0.00
    0   12    7     -5.53      0.00
    0   12    8     -0.93      0.00
    0   12    9     -4.89      0.00
    0   12   10     -2.89      0.00
    0   12   11     -7.09      0.00
    0   12   12     -0.83      0.00
    0   12   13      3.23      0.00
    0   12   14     -2.73      0.00
    0   12   15      3.40      0.00
    0   12   16      6.33      0.00
    0   12   17      2.33      0.00
    0   12   18      2.43      0.00
    0   12   19     -4.01      0.00
    1   12   19     -1.80      0.00
    1   12   18      4.70      0.00
    1   12   17      0.15      0.00
    1   12   16      0.25      0.00
    1   12   15      0.51      0.00
    1   12   14     -1.02      0.00
    1   12   13      3.02      0.00
    1   12   12      0.28      0.00
    1   12   11     -1.15      0.00
    1   12   10     -0.08      0.00
    1   12    9      1.51      0.00
    1   12    8     -1.74      0.00
    1   12    7     -0.73      0.00
    1   12    6      0.19      0.00
    1   12    5      3.26      0.00
    1   12    4     -9.05      0.00
    1   12    3     -0.16      0.00
    1   12    2     -2.54      0.00
    1   12    1      5.36      0.00
    1   12    0      4.75      0.00
    2   12   19      4.97      0.00
    2   12   18     -4.30      0.00
    2   12   17      3.60      0.00
    2   12   16      2.09      0.00
    2   12   15     -2.79      0.00
    2   12   14     -6.05      0.00
    2   12   12      3.68      0.00
    2   12   11     -0.51      0.00
    2   12   10     -1.89      0.00
    2   12    9      5.71      0.00
    2   12    8     -2.95      0.00
    2   12    7     -9.16      0.00
    2   12    6      8.76      0.00
    2   12    5     -4.23      0.00
    2   12    4     -4.10      0.00
    2   12    3     -7.28      0.00
    2   12    2      3.50      0.00
    2   12    1     -2.73      0.00
    2   12    0     -0.61      0.00
    2   12   13      3.52      0.00
    3   12   19      4.06      0.00
    3   12   18     -3.57      0.00
    3   12   17      5.20      0.00
    3   12   16     -0.06      0.00
    3   12   15      0.40      0.00
    3   12   14     -2.38      0.00
    3   12   10     -5.05      0.00
    3   12    9      1.47      0.00
    3   12    8     -0.35      0.00
    3   12    7     -4.40      0.00
    3   12    6      0.40      0.00
    3   12    5     -0.31      0.00
    3   12    4     -5.80      0.00
    3   12    3      7.70      0.00
    3   12    2     -4.19      0.00
    3   12    1      3.83      0.00
    3   12    0     -1.48      0.00
    3   12   11      0.45      0.00
    3   12   12      3.92      0.00
    3   12   13      2.68      0.00
    4   12   19      1.86      0.00
    4   12   18     -3.46      0.00
    4   12   17      2.32      0.00
    4   12   16      2.96      0.00
    4   12   15     -1.66      0.00
    4   12   14     -1.72      0.00
    4   12    9      6.46      0.00
    4   12    8      4.08      0.00
    4   12    7      1.11      0.00
    4   12    6      0.18      0.00
    4   12    5     -3.97      0.00
    4   12    4      2.63      0.00
    4   12    3      4.68      0.00
    4   12    2      2.86      0.00
    4   12    1      4.90      0.00
    4   12    0     11.74      0.00
    4   12   10      4.88      0.00
    4   12   11     -0.90      0.00
    4   12   12      3.34      0.00
    4   12   13      2.81      0.00
    5   12   19     -0.85      0.00
    5   12   18      1.14      0.00
    5   12   17      0.54      0.00
    5   12   16      2.72      0.00
    5   12   15     -1.34      0.00
    5   12   14     -3.07      0.00
    5   12    8      1.57      0.00
    5   12    7     -0.01      0.00
    5   12    6     -3.05      0.00
    5   12    5     -2.21      0.00
    5   12    4      1.38      0.00
    5   12    3      1.99      0.00
    5   12    2     -3.88      0.00
    5   12    1     -7.16      0.00
    5   12    0      6.33      0.00
    5   12    9      3.48      0.00
    5   12   10     -2.85      0.00
    5   12   11      1.77      0.00
    5   12   12      1.42      0.00
    5   12   13      0.88      0.00
    6   12   19      0.12      0.00
    6   12   18      1.96      0.00
    6   12   17      0.64      0.00
    6   12   16      1.29      0.00
    6   12   15     -0.75      0.00
    6   12   14      4.77      0.00
    6   12    3     -3.72      0.00
    6   12    2      4.07      0.00
    6   12    1      3.29      0.00
    6   12    0      0.44      0.00
    6   12    4      4.42      0.00
    6   12    5      3.41      0.00
    6   12    6      6.72      0.00
    6   12    7      0.37      0.00
    6   12    8      0.81      0.00
    6   12    9     -1.07      0.00
    6   12   10      1.76      0.00
    6   12   11      2.73      0.00
    6   12   12      1.52      0.00
    6   12   13     -0.11      0.00
    7   12   18     -1.55      0.00
    7   12   17      0.10      0.00
    7   12   16      5.22      0.00
    7   12   15      0.68      0.00
    7   12   14      3.39      0.00
    7   12   13     -0.82      0.00
    7   12    3      4.48      0.00
    7   12    2      3.75      0.00
    7   12    1      6.21      0.00
    7   12    0     -9.10      0.00
    7   12    4     -3.47      0.00
    7   12    5     -3.39      0.00
    7   12    6      3.02      0.00
    7   12    7     -2.66      0.00
    7   12    8     -0.91      0.00
    7   12    9     -0.20      0.00
    7   12   10     -0.29      0.00
    7   12   11      1.65      0.00
    7   12   12      0.38      0.00
    8   12   18     -1.22      0.00
    8   12   17      1.78      0.00
    8   12   16     -3.92      0.00
    8   12   15     -1.52      0.00
    8   12   14     -2.12      0.00
    8   12   13     -9.53      0.00
    8   12    3      2.74      0.00
    8   12    2     -5.78      0.00
    8   12    1     -0.05      0.00
    8   12    0      2.26      0.00
    8   12    4      6.89      0.00
    8   12    5      0.28      0.00
    8   12    6     -1.81      0.00
    8   12    7     -0.49      0.00
    8   12    8      2.41      0.00
    8   12    9      0.27      0.00
    8   12   10     -4.86      0.00
    8   12   11      0.41      0.00
    8   12   12     11.31      0.00
    9   12   17      0.98      0.00
    9   12   16      6.87      0.00
    9   12   15      3.93      0.00
    9   12   14     -3.17      0.00
    9   12   13      4.10      0.00
    9   12    3      1.96      0.00
    9   12    2      9.15      0.00
    9   12    1     -5.09      0.00
    9   12    0     -4.73      0.00
    9   12    4      4.32      0.00
    9   12    5     -2.92      0.00
    9   12    6      5.12      0.00
    9   12    7     -1.19      0.00
    9   12    8      2.83      0.00
    9   12    9     -0.35      0.00
    9   12   10     -2.05      0.00
    9   12   11     -3.32      0.00
    9   12   12     -0.59      0.00
    9   12   18     -1.01      0.00
   10   12   17      3.33      0.00
   10   12   16      1.68      0.00
   10   12   15      2.18      0.00
   10   12   14      3.12      0.00
   10   12   13     -8.00      0.00
   10   12    2      5.38      0.00
   10   12    1      3.94      0.00
   10   12    0     -2.65      0.00
   10   12    3      0.46      0.00
   10   12    4      0.77      0.00
   10   12    5      5.20      0.00
   10   12    6     -4.80      0.00
   10   12    7     -8.71      0.00
   10   12    8      1.32      0.00
   10   12    9     -2.67      0.00
   10   12   10      2.92      0.00
   10   12   11     -4.13      0.00
   10   12   12      2.91      0.00
   10   12   18     -1.09      0.00
   11   12   15     -6.28      0.00
   11   12   14      1.14      0.00
   11   12   13      3.02      0.00
   11   12   12     -0.90      0.00
   11   12    2      0.64      0.00
   11   12    1     -2.81      0.00
   11   12    0      1.45      0.00
   11   12    3      2.61      0.00
   11   12    4     -2.06      0.00
   11   12    5     -0.49      0.00
   11   12    6      2.20      0.00
   11   12    7     -1.31      0.00
   11   12    8     -0.68      0.00
   11   12    9     -0.34      0.00
   11   12   10      0.62      0.00
   11   12   11     -1.22      0.00
   11   12   16      2.30      0.00
   11   12   17      2.12      0.00
   12   12    2     13.73      0.00
   12   12    0    -10.12      0.00
   12   12    4      0.15      0.00
   12   12    6     -0.22      0.00
   12   12    8     -1.61      0.00
   12   12   10     -5.40      0.00
   12   12   12      1.32      0.00
   12   12   14     -2.83      0.00
   12   12   16     -0.78      0.00
    0   13    0    -13.80      0.00
    0   13    1      5.43      0.00
    0   13    2    -10.34      0.00
    0   13    3     -6.41      0.00
    0   13    4     -3.78      0.00
    0   13    5      8.03      0.00
    0   13    6     -6.17      0.00
    0   13    7     -0.20      0.00
    0   13    8      4.92      0.00
    0   13    9     -5.62      0.00
    0   13   10    -10.91      0.00
    0   13   11      1.12      0.00
    0   13   12      0.94      0.00
    0   13   13     -4.38      0.00
    0   13   14      3.27      0.00
    0   13   15      4.00      0.00
    0   13   16      2.01      0.00
    0   13   17      5.87      0.00
    0   13   18     -1.93      0.00
    0   13   19      0.26      0.00
    1   13   19      1.12      0.00
    1   13   18      2.54      0.00
    1   13   17     -4.04      0.00
    1   13   16     -0.11      0.00
    1   13   15      1.41      0.00
    1   13   14     -2.53      0.00
    1   13   13     -3.27      0.00
    1   13   12      1.93      0.00
    1   13   11      4.36      0.00
    1   13   10      3.73      0.00
    1   13    9      7.00      0.00
    1   13    8     -3.09      0.00
    1   13    7     -3.00      0.00
    1   13    6      1.53      0.00
    1   13    5      4.00      0.00
    1   13    4     -5.71      0.00
    1   13    3      4.38      0.00
    1   13    2     -1.44      0.00
    1   13    1      6.98      0.00
    1   13    0    -10.83      0.00
    2   13   19     -7.29      0.00
    2   13   18      0.90      0.00
    2   13   17     -4.03      0.00
    2   13   16     -0.32      0.00
    2   13   15      5.14      0.00
    2   13   14     -5.65      0.00
    2   13   11      5.03      0.00
    2   13   10      2.11      0.00
    2   13    9      3.31      0.00
    2   13    8      3.10      0.00
    2   13    7      2.43      0.00
    2   13    6      8.72      0.00
    2   13    5      2.11      0.00
    2   13    4     -2.30      0.00
    2   13    3     -0.19      0.00
    2   13    2     -0.14      0.00
    2   13    1     -4.06      0.00
    2   13    0      2.57      0.00
    2   13   12     -5.31      0.00
    2   13   13      0.06      0.00
    3   13   19     -2.52      0.00
    3   13   18     -1.88      0.00
    3   13   17      1.86      0.00
    3   13   16     -1.13      0.00
    3   13   15     -2.07      0.00
    3   13   14      0.86      0.00
    3   13   11      4.88      0.00
    3   13    9      3.53      0.00
    3   13    8      1.35      0.00
    3   13    7      1.64      0.00
    3   13    6     -8.25      0.00
    3   13    5     -3.13      0.00
    3   13    4     -0.64      0.00
    3   13    3     -4.49      0.00
    3   13    2     -7.88      0.00
    3   13    1     -6.07      0.00
    3   13    0     -1.16      0.00
    3   13   10    -12.89      0.00
    3   13   12      2.37      0.00
    3   13   13      0.11      0.00
    4   13   19      3.49      0.00
    4   13   18     -1.67      0.00
    4   13   17     -1.48      0.00
    4   13   16     -2.08      0.00
    4   13   15      0.33      0.00
    4   13   14      3.52      0.00
    4   13    9     -1.55      0.00
    4   13    8      8.46      0.00
    4   13    7     -3.79      0.00
    4   13    6      1.09      0.00
    4   13    5     -5.36      0.00
    4   13    4      3.66      0.00
    4   13    3      7.73      0.00
    4   13    2      0.37      0.00
    4   13    1      6.40      0.00
    4   13    0     -3.54      0.00
    4   13   10     -1.98      0.00
    4   13   11      5.44      0.00
    4   13   12     -2.13      0.00
    4   13   13     -2.99      0.00
    5   13   19      7.93      0.00
    5   13   18      3.04      0.00
    5   13   17      1.74      0.00
    5   13   16      0.96      0.00
    5   13   15      9.15      0.00
    5   13   14      3.70      0.00
    5   13    8     -3.26      0.00
    5   13    7     -2.30      0.00
    5   13    6      1.83      0.00
    5   13    5      2.59      0.00
    5   13    4     -2.67      0.00
    5   13    3      2.01      0.00
    5   13    2     -4.18      0.00
    5   13    1      5.93      0.00
    5   13    0    -14.27      0.00
    5   13    9      4.39      0.00
    5   13   10     -2.36      0.00
    5   13   11      3.57      0.00
    5   13   12     -0.71      0.00
    5   13   13      3.03      0.00
    6   13   18      5.21      0.00
    6   13   17     -0.72      0.00
    6   13   16     -3.09      0.00
    6   13   15     -2.40      0.00
    6   13   14      0.10      0.00
    6   13    3     -4.18      0.00
    6   13    2     -4.42      0.00
    6   13    1      6.01      0.00
    6   13    0      4.81      0.00
    6   13    4      2.36      0.00
    6   13    5      3.05      0.00
    6   13    6     -0.70      0.00
    6   13    7      5.98      0.00
    6   13    8      0.35      0.00
    6   13    9      0.00      0.00
    6   13   10     -1.83      0.00
    6   13   11      1.92      0.00
    6   13   12     -2.73      0.00
    6   13   13      2.97      0.00
    7   13   18      1.21      0.00
    7   13   17     -1.94      0.00
    7   13   16     -0.66      0.00
    7   13   15      0.63      0.00
    7   13   14      3.70      0.00
    7   13    3     -3.58      0.00
    7   13    2     -4.97      0.00
    7   13    1      5.45      0.00
    7   13    0      1.99      0.00
    7   13    4     -3.24      0.00
    7   13    5      2.15      0.00
    7   13    6     -4.32      0.00
    7   13    7      0.41      0.00
    7   13    8      1.60      0.00
    7   13    9      1.51      0.00
    7   13   10      2.85      0.00
    7   13   11     -0.47      0.00
    7   13   12     -1.74      0.00
    7   13   13      0.15      0.00
    8   13   17      2.73      0.00
    8   13   16      1.08      0.00
    8   13   15     -6.29      0.00
    8   13   14     10.36      0.00
    8   13   13     -0.31      0.00
    8   13    3     -5.34      0.00
    8   13    2     -3.80      0.00
    8   13    1     -2.48      0.00
    8   13    0     -2.25      0.00
    8   13    4      1.39      0.00
    8   13    5     -2.59      0.00
    8   13    6     -1.13      0.00
    8   13    7    -18.69      0.00
    8   13    8      6.19      0.00
    8   13    9      2.92      0.00
    8   13   10     -0.13      0.00
    8   13   11     -1.28      0.00
    8   13   12     -1.17      0.00
    8   13   18      7.89      0.00
    9   13   17     -3.86      0.00
    9   13   16     -1.13      0.00
    9   13   15     11.45      0.00
    9   13   14      1.00      0.00
    9   13   13     -3.42      0.00
    9   13    3     -3.56      0.00
    9   13    2      2.46      0.00
    9   13    1     -1.51      0.00
    9   13    0      8.71      0.00
    9   13    4      7.96      0.00
    9   13    5      0.53      0.00
    9   13    6      3.28      0.00
    9   13    7      1.85      0.00
    9   13    8      1.77      0.00
    9   13    9      0.89      0.00
    9   13   10      4.10      0.00
    9   13   11      5.61      0.00
    9   13   12     -1.45      0.00
   10   13   16     -0.03      0.00
   10   13   15     -2.87      0.00
   10   13   14     -6.72      0.00
   10   13   13     -1.37      0.00
   10   13    3      1.51      0.00
   10   13    2     -2.63      0.00
   10   13    1      4.96      0.00
   10   13    0      7.30      0.00
   10   13    4      7.76      0.00
   10   13    5     -1.67      0.00
   10   13    6     -4.57      0.00
   10   13    7      2.41      0.00
   10   13    8     -1.04      0.00
   10   13    9      4.27      0.00
   10   13   10     -1.74      0.00
   10   13   11      0.35      0.00
   10   13   12     -1.52      0.00
   10   13   17      1.33      0.00
   11   13   15      1.66      0.00
   11   13   14      2.73      0.00
   11   13   13      9.75      0.00
   11   13   12     -1.22      0.00
   11   13    2     -5.74      0.00
   11   13    1      3.76      0.00
   11   13    0      1.44      0.00
   11   13    3     -1.33      0.00
   11   13    4     -4.13      0.00
   11   13    5     -5.79      0.00
   11   13    6     -7.39      0.00
   11   13    7     -7.68      0.00
   11   13    8      1.91      0.00
   11   13    9      2.03      0.00
   11   13   10      4.36      0.00
   11   13   11      2.05      0.00
   11   13   16     -2.67      0.00
   11   13   17      7.22      0.00
   12   13    2      4.69      0.00
   12   13    1     -6.62      0.00
   12   13    0     -5.81      0.00
   12   13    3     -4.63      0.00
   12   13    4     -4.18      0.00
   12   13    5      3.15      0.00
   12   13    6      0.20      0.00
   12   13    7     -6.01      0.00
   12   13    8      2.03      0.00
   12   13    9      1.05      0.00
   12   13   10      1.79      0.00
   12   13   11     -2.36      0.00
   12   13   12      0.82      0.00
   12   13   13     -2.99      0.00
   12   13   14      1.51      0.00
   12   13   15     -0.64      0.00
   12   13   16     -2.50      0.00
   13   13    2     -9.05      0.00
   13   13    0      6.47      0.00
   13   13    4      5.08      0.00
   13   13    6     -3.39      0.00
   13   13    8     -4.64      0.00
   13   13   10      2.52      0.00
   13   13   12     -7.64      0.00
   13   13   14      2.75      0.00
   13   13   16      3.43      0.00
    0   14    0     12.92      0.00
    0   14    1      1.24      0.00
    0   14    2     -2.23      0.00
    0   14    3     -3.86      0.00
    0   14    4      6.36      0.00
    0   14    5      0.02      0.00
    0   14    6     -1.40      0.00
    0   14    7      5.07      0.00
    0   14    8      9.85      0.00
    0   14    9      6.17      0.00
    0   14   10     -0.11      0.00
    0   14   11     -7.87      0.00
    0   14   12      4.59      0.00
    0   14   13     -0.44      0.00
    0   14   14     -5.78      0.00
    0   14   15      0.67      0.00
    0   14   16     -3.40      0.00
    0   14   17     -1.70      0.00
    0   14   18     11.55      0.00
    0   14   19    -10.11      0.00
    1   14   19      5.16      0.00
    1   14   18      2.10      0.00
    1   14   17      2.15      0.00
    1   14   16      4.51      0.00
    1   14   15     -4.00      0.00
    1   14   14      3.13      0.00
    1   14   12     -2.16      0.00
    1   14   11     -7.96      0.00
    1   14   10      3.23      0.00
    1   14    9     -1.06      0.00
    1   14    8      1.03      0.00
    1   14    7     -4.25      0.00
    1   14    6      3.52      0.00
    1   14    5      2.19      0.00
    1   14    4      1.66      0.00
    1   14    3     -2.08      0.00
    1   14    2      7.86      0.00
    1   14    1     -1.90      0.00
    1   14    0      1.31      0.00
    1   14   13      2.40      0.00
    2   14   19     -0.32      0.00
    2   14   18     -0.45      0.00
    2   14   17      0.14      0.00
    2   14   16     -0.41      0.00
    2   14   15     -6.67      0.00
    2   14   14      4.06      0.00
    2   14   11     -1.79      0.00
    2   14   10     -2.00      0.00
    2   14    9     -0.87      0.00
    2   14    8     -0.61      0.00
    2   14    7      5.05      0.00
    2   14    6      2.18      0.00
    2   14    5      6.76      0.00
    2   14    4     -3.73      0.00
    2   14    3      5.68      0.00
    2   14    2      0.52      0.00
    2   14    1      4.25      0.00
    2   14    0     -1.48      0.00
    2   14   12      6.41      0.00
    2   14   13      1.19      0.00
    3   14   18     -1.70      0.00
    3   14   17      0.39      0.00
    3   14   16     -4.17      0.00
    3   14   15     -2.73      0.00
    3   14   14     -6.26      0.00
    3   14   11      0.97      0.00
    3   14   10      1.56      0.00
    3   14    9     11.31      0.00
    3   14    8      1.80      0.00
    3   14    7     -3.87      0.00
    3   14    6      5.71      0.00
    3   14    5     -1.67      0.00
    3   14    4      1.06      0.00
    3   14    3      5.58      0.00
    3   14    2     -0.50      0.00
    3   14    1     -0.06      0.00
    3   14    0     -1.74      0.00
    3   14   12     10.68      0.00
    3   14   13      1.10      0.00
    4   14   18      0.51      0.00
    4   14   17     -1.35      0.00
    4   14   16     -2.98      0.00
    4   14   15     -2.45      0.00
    4   14   14     -1.88      0.00
    4   14    9      1.45      0.00
    4   14    8     -4.41      0.00
    4   14    7      4.21      0.00
    4   14    6     -5.77      0.00
    4   14    5     -4.58      0.00
    4   14    4     -3.11      0.00
    4   14    3      2.22      0.00
    4   14    2     -4.72      0.00
    4   14    1      0.41      0.00
    4   14    0     -6.62      0.00
    4   14   10     -6.68      0.00
    4   14   11     -5.28      0.00
    4   14   12     -9.53      0.00
    4   14   13      1.48      0.00
    5   14   18      1.13      0.00
    5   14   17      1.01      0.00
    5   14   16      4.22      0.00
    5   14   15      0.07      0.00
    5   14   14     -0.16      0.00
    5   14   11     -1.00      0.00
    5   14    8      4.77      0.00
    5   14    7     -1.35      0.00
    5   14    6     -2.04      0.00
    5   14    5      6.41      0.00
    5   14    4      1.59      0.00
    5   14    3     -8.55      0.00
    5   14    2      2.22      0.00
    5   14    1      0.62      0.00
    5   14    0      9.12      0.00
    5   14    9     -1.69      0.00
    5   14   10      2.03      0.00
    5   14   12     -1.33      0.00
    5   14   13      0.03      0.00
    6   14   18      4.53      0.00
    6   14   17     -0.38      0.00
    6   14   16     -1.52      0.00
    6   14   15      4.52      0.00
    6   14   14      4.14      0.00
    6   14    3     -0.76      0.00
    6   14    2     -0.03      0.00
    6   14    1     -3.14      0.00
    6   14    0      1.26      0.00
    6   14    4     -0.44      0.00
    6   14    5     -2.85      0.00
    6   14    6      3.66      0.00
    6   14    7     -4.40      0.00
    6   14    8     -1.60      0.00
    6   14    9     -2.11      0.00
    6   14   10      1.93      0.00
    6   14   11      2.68      0.00
    6   14   12     -5.00      0.00
    6   14   13     -4.40      0.00
    7   14   17     -8.37      0.00
    7   14   16     -7.30      0.00
    7   14   15     -2.33      0.00
    7   14   14      1.12      0.00
    7   14    3     -2.27      0.00
    7   14    2      4.38      0.00
    7   14    1     -0.18      0.00
    7   14    0     -9.24      0.00
    7   14    4      0.98      0.00
    7   14    5     -3.00      0.00
    7   14    6      1.64      0.00
    7   14    7     -5.15      0.00
    7   14    8     -1.92      0.00
    7   14    9     -0.37      0.00
    7   14   10      2.87      0.00
    7   14   11     -1.88      0.00
    7   14   12      0.08      0.00
    7   14   13     -1.83      0.00
    7   14   18      5.61      0.00
    8   14   17      1.14      0.00
    8   14   16      3.31      0.00
    8   14   15      3.94      0.00
    8   14   14     -3.08      0.00
    8   14   13     -3.14      0.00
    8   14    3     -0.69      0.00
    8   14    2     -2.59      0.00
    8   14    1     -2.52      0.00
    8   14    0     -2.05      0.00
    8   14    4     -0.14      0.00
    8   14    5      0.81      0.00
    8   14    6      1.43      0.00
    8   14    7      1.58      0.00
    8   14    8      0.25      0.00
    8   14    9     -2.75      0.00
    8   14   10      0.93      0.00
    8   14   11     -0.29      0.00
    8   14   12     -1.91      0.00
    9   14   16      1.18      0.00
    9   14   15      4.23      0.00
    9   14   14      1.33      0.00
    9   14   13     -1.19      0.00
    9   14    3      1.05      0.00
    9   14    2     -0.70      0.00
    9   14    1     -1.86      0.00
    9   14    0      3.92      0.00
    9   14    4     -8.70      0.00
    9   14    5      0.50      0.00
    9   14    6    -11.19      0.00
    9   14    7     -3.48      0.00
    9   14    8      2.24      0.00
    9   14    9      5.07      0.00
    9   14   10      1.75      0.00
    9   14   11      0.42      0.00
    9   14   12      1.59      0.00
    9   14   17     -2.24      0.00
   10   14   16      0.91      0.00
   10   14   15      5.21      0.00
   10   14   14     -1.18      0.00
   10   14   13     -0.53      0.00
   10   14    3      1.31      0.00
   10   14    2      2.98      0.00
   10   14    1     -1.26      0.00
   10   14    0      1.13      0.00
   10   14    4      2.87      0.00
   10   14    5      1.07      0.00
   10   14    6     -0.51      0.00
   10   14    7      0.84      0.00
   10   14    8     -3.41      0.00
   10   14    9      1.49      0.00
   10   14   10     -0.31      0.00
   10   14   11      5.17      0.00
   10   14   12     -5.76      0.00
   10   14   17     -0.36      0.00
   11   14   14     -0.57      0.00
   11   14   13      1.86      0.00
   11   14   12     -4.21      0.00
   11   14    2      5.34      0.00
   11   14    1      2.62      0.00
   11   14    0      1.96      0.00
   11   14    3      4.35      0.00
   11   14    4      1.47      0.00
   11   14    5     -1.57      0.00
   11   14    6      1.08      0.00
   11   14    7     -0.21      0.00
   11   14    8      1.89      0.00
   11   14    9      4.18      0.00
   11   14   10      3.51      0.00
   11   14   11     -3.80      0.00
   11   14   15     -0.95      0.00
   11   14   16     -4.44      0.00
   12   14    2      0.49      0.00
   12   14    1     -5.19      0.00
   12   14    0     -5.32      0.00
   12   14    3     -0.75      0.00
   12   14    4     -2.90      0.00
   12   14    5     -8.19      0.00
   12   14    6      0.99      0.00
   12   14    7      4.62      0.00
   12   14    8      1.91      0.00
   12   14    9     -2.05      0.00
   12   14   10     -0.79      0.00
   12   14   11      2.10      0.00
   12   14   12      0.25      0.00
   12   14   13      0.42      0.00
   12   14   14     -4.40      0.00
   12   14   15      4.90      0.00
   12   14   16     -3.85      0.00
   13   14    2      0.73      0.00
   13   14    1     -1.55      0.00
   13   14    0      5.27      0.00
   13   14    3     -2.75      0.00
   13   14    4      5.16      0.00
   13   14    5      2.75      0.00
   13   14    6     -2.08      0.00
   13   14    7     -1.15      0.00
   13   14    8     -3.03      0.00
   13   14    9      0.16      0.00
   13   14   10     -2.22      0.00
   13   14   11      1.77      0.00
   13   14   12     -3.35      0.00
   13   14   13      3.16      0.00
   13   14   14      0.78      0.00
   13   14   15     -3.92      0.00
   14   14    2      2.67      0.00
   14   14    0      5.44      0.00
   14   14    4     -1.83      0.00
   14   14    6      3.36      0.00
   14   14    8      4.58      0.00
   14   14   10      1.66      0.00
   14   14   12     10.38      0.00
   14   14   14     -0.28      0.00
    0   15    0     -3.77      0.00
    0   15    1      3.64      0.00
    0   15    2     -2.98      0.00
    0   15    3     -0.13      0.00
    0   15    4     -0.14      0.00
    0   15    5      3.25      0.00
    0   15    6     -1.61      0.00
    0   15    7     -5.08      0.00
    0   15    8     -7.65      0.00
    0   15    9      2.96      0.00
    0   15   10     -0.21      0.00
    0   15   11      1.26      0.00
    0   15   12      8.04      0.00
    0   15   14      7.28      0.00
    0   15   15     -1.56      0.00
    0   15   16      1.33      0.00
    0   15   17      2.17      0.00
    0   15   18     -0.70      0.00
    1   15   18      3.14      0.00
    1   15   17     -1.39      0.00
    1   15   16      3.76      0.00
    1   15   15     -1.30      0.00
    1   15   14     -0.22      0.00
    1   15   12      1.45      0.00
    1   15   11    -15.73      0.00
    1   15   10      3.19      0.00
    1   15    9     -1.13      0.00
    1   15    8     -0.54      0.00
    1   15    7      2.83      0.00
    1   15    6     -2.17      0.00
    1   15    5      3.62      0.00
    1   15    4     -3.69      0.00
    1   15    3     -2.16      0.00
    1   15    2      2.00      0.00
    1   15    1     -6.04      0.00
    1   15    0     10.77      0.00
    1   15   13      1.92      0.00
    2   15   18     -1.24      0.00
    2   15   17      1.48      0.00
    2   15   16      1.85      0.00
    2   15   15     -2.70      0.00
    2   15   14     -6.48      0.00
    2   15   10      2.90      0.00
    2   15    9      0.97      0.00
    2   15    8      0.69      0.00
    2   15    7      3.28      0.00
    2   15    6      6.20      0.00
    2   15    5     -3.38      0.00
    2   15    4      4.26      0.00
    2   15    3     -7.18      0.00
    2   15    2      6.31      0.00
    2   15    1      2.08      0.00
    2   15    0     15.12      0.00
    2   15   11     -1.15      0.00
    2   15   12      4.67      0.00
    2   15   13      4.28      0.00
    3   15   18     -3.45      0.00
    3   15   17      5.43      0.00
    3   15   16     -1.67      0.00
    3   15   15     -5.31      0.00
    3   15   14     -1.03      0.00
    3   15   11     -0.35      0.00
    3   15   10     -4.28      0.00
    3   15    9      5.00      0.00
    3   15    8      8.85      0.00
    3   15    7     -0.55      0.00
    3   15    6      4.30      0.00
    3   15    5     -4.22      0.00
    3   15    4      8.36      0.00
    3   15    3     -4.50      0.00
    3   15    2      4.71      0.00
    3   15    1     -9.87      0.00
    3   15    0      7.91      0.00
    3   15   12      7.99      0.00
    3   15   13     -2.94      0.00
    4   15   18     -2.02      0.00
    4   15   17     -1.32      0.00
    4   15   16     -0.57      0.00
    4   15   15      2.04      0.00
    4   15   14      2.96      0.00
    4   15   11     -2.57      0.00
    4   15    9      0.23      0.00
    4   15    8     -3.25      0.00
    4   15    7     -1.79      0.00
    4   15    6      2.29      0.00
    4   15    5     -7.92      0.00
    4   15    4     -0.12      0.00
    4   15    3      0.95      0.00
    4   15    2      3.14      0.00
    4   15    1     -7.02      0.00
    4   15    0     -6.34      0.00
    4   15   10      0.89      0.00
    4   15   12      3.74      0.00
    4   15   13     -0.01      0.00
    5   15   18     -0.20      0.00
    5   15   17     -0.70      0.00
    5   15   16     -0.40      0.00
    5   15   15     -3.05      0.00
    5   15   14     -5.55      0.00
    5   15   11     -4.24      0.00
    5   15    7     -3.12      0.00
    5   15    6     -3.62      0.00
    5   15    5      3.79      0.00
    5   15    3      1.78      0.00
    5   15    2     -0.36      0.00
    5   15    1      3.24      0.00
    5   15    0      8.58      0.00
    5   15    4      1.40      0.00
    5   15    8     -2.45      0.00
    5   15    9     -0.05      0.00
    5   15   10     -2.44      0.00
    5   15   12     -1.88      0.00
    5   15   13    -11.00      0.00
    6   15   17     -3.47      0.00
    6   15   16      1.31      0.00
    6   15   15      0.45      0.00
    6   15   14     -3.55      0.00
    6   15   11     -3.55      0.00
    6   15    3      3.00      0.00
    6   15    2      2.27      0.00
    6   15    1      0.81      0.00
    6   15    0     -5.22      0.00
    6   15    4     -4.98      0.00
    6   15    5      5.54      0.00
    6   15    6     -1.72      0.00
    6   15    7      0.78      0.00
    6   15    8     -0.17      0.00
    6   15    9      0.64      0.00
    6   15   10      0.57      0.00
    6   15   12      0.47      0.00
    6   15   13      2.08      0.00
    7   15   17     -2.54      0.00
    7   15   16      4.28      0.00
    7   15   15     -1.17      0.00
    7   15   14      1.30      0.00
    7   15    3     -6.71      0.00
    7   15    2      3.84      0.00
    7   15    1      0.18      0.00
    7   15    0      0.11      0.00
    7   15    4      4.15      0.00
    7   15    5      3.84      0.00
    7   15    6      5.23      0.00
    7   15    7      0.45      0.00
    7   15    8      2.48      0.00
    7   15    9      4.49      0.00
    7   15   10      1.44      0.00
    7   15   11      0.17      0.00
    7   15   12      2.69      0.00
    7   15   13     -2.29      0.00
    8   15   16     -1.21      0.00
    8   15   15      4.24      0.00
    8   15   14      3.63      0.00
    8   15   13     -2.74      0.00
    8   15    3     -1.05      0.00
    8   15    2      0.44      0.00
    8   15    1     -6.59      0.00
    8   15    0      4.32      0.00
    8   15    4     -1.34      0.00
    8   15    5      8.21      0.00
    8   15    6     -4.21      0.00
    8   15    7    -11.55      0.00
    8   15    8     -0.63      0.00
    8   15    9      6.51      0.00
    8   15   10     -0.78      0.00
    8   15   11     -1.11      0.00
    8   15   12     -0.16      0.00
    8   15   17      4.01      0.00
    9   15   16     -3.05      0.00
    9   15   15      4.57      0.00
    9   15   14      0.79      0.00
    9   15   13     -2.90      0.00
    9   15    3      2.21      0.00
    9   15    2      8.06      0.00
    9   15    1      1.40      0.00
    9   15    0     -1.23      0.00
    9   15    4      3.51      0.00
    9   15    5      1.59      0.00
    9   15    6     11.37      0.00
    9   15    7     -1.22      0.00
    9   15    8     -1.40      0.00
    9   15    9     -0.07      0.00
    9   15   10      1.64      0.00
    9   15   11     -5.01      0.00
    9   15   12     -0.72      0.00
    9   15   17      0.49      0.00
   10   15   15      2.63      0.00
   10   15   14     -6.27      0.00
   10   15   13      1.33      0.00
   10   15    3     -4.19      0.00
   10   15    2     -3.49      0.00
   10   15    1     -5.65      0.00
   10   15    0      4.17      0.00
   10   15    4     -1.80      0.00
   10   15    5     -1.44      0.00
   10   15    6     -4.06      0.00
   10   15    7     -1.69      0.00
   10   15    8      1.93      0.00
   10   15    9      0.67      0.00
   10   15   10      1.90      0.00
   10   15   11      2.65      0.00
   10   15   12      3.63      0.00
   10   15   16     12.50      0.00
   11   15   14      1.16      0.00
   11   15   13      0.01      0.00
   11   15   12     -0.08      0.00
   11   15    2     -0.74      0.00
   11   15    1     -5.53      0.00
   11   15    0     -3.57      0.00
   11   15    3     -3.84      0.00
   11   15    4     -5.29      0.00
   11   15    5      0.33      0.00
   11   15    6     -0.39      0.00
   11   15    7     -3.51      0.00
   11   15    8      0.49      0.00
   11   15    9     -0.17      0.00
   11   15   10     -1.19      0.00
   11   15   11     -1.44      0.00
   11   15   15    -10.91      0.00
   11   15   16     -1.77      0.00
   12   15    2     24.74      0.00
   12   15    1      5.92      0.00
   12   15    0     -1.59      0.00
   12   15    3      0.41      0.00
   12   15    4     -5.88      0.00
   12   15    5      1.68      0.00
   12   15    6      0.00      0.00
   12   15    7     -0.87      0.00
   12   15    8     -0.11      0.00
   12   15    9      6.13      0.00
   12   15   10      1.48      0.00
   12   15   11     -0.38      0.00
   12   15   12      4.59      0.00
   12   15   13      1.06      0.00
   12   15   14     -2.24      0.00
   12   15   15      2.11      0.00
   13   15    2     -8.58      0.00
   13   15    1      6.68      0.00
   13   15    0     -5.94      0.00
   13   15    3      6.95      0.00
   13   15    4     -3.14      0.00
   13   15    5      6.43      0.00
   13   15    6      1.73      0.00
   13   15    7      6.12      0.00
   13   15    8      1.61      0.00
   13   15    9      5.82      0.00
   13   15   10      0.75      0.00
   13   15   11      0.04      0.00
   13   15   12     -3.78      0.00
   13   15   13      5.70      0.00
   13   15   14     -0.12      0.00
   13   15   15     -4.35      0.00
   14   15    2     -2.09      0.00
   14   15    1     -1.13      0.00
   14   15    0     -5.57      0.00
   14   15    3     -0.01      0.00
   14   15    4      3.38      0.00
   14   15    5     -5.29      0.00
   14   15    6      0.69      0.00
   14   15    7     -1.36      0.00
   14   15    8     -2.42      0.00
   14   15    9      2.96      0.00
   14   15   10      0.83      0.00
   14   15   11      1.21      0.00
   14   15   12      2.45      0.00
   14   15   13      4.32      0.00
   14   15   14     -3.35      0.00
   15   15    2     15.42      0.00
   15   15    0      3.73      0.00
   15   15    4      1.78      0.00
   15   15    6     -0.48      0.00
   15   15    8      1.14      0.00
   15   15   10     -7.03      0.00
   15   15   12      1.55      0.00
    0   16    0      7.81      0.00
    0   16    1      2.94      0.00
    0   16    2      0.90      0.00
    0   16    3      4.80      0.00
    0   16    4      1.58      0.00
    0   16    5      2.83      0.00
    0   16    6     -2.15      0.00
    0   16    7     -3.21      0.00
    0   16    8      3.72      0.00
    0   16    9     12.47      0.00
    0   16   10     -1.51      0.00
    0   16   11    -11.70      0.00
    0   16   12      0.45      0.00
    0   16   14     -6.81      0.00
    0   16   15      0.63      0.00
    0   16   16      3.42      0.00
    0   16   17      2.41      0.00
    1   16   17      0.13      0.00
    1   16   16     -1.01      0.00
    1   16   15      3.12      0.00
    1   16   14      2.16      0.00
    1   16   12    -11.41      0.00
    1   16   11      8.51      0.00
    1   16    9      1.07      0.00
    1   16    8      1.00      0.00
    1   16    7      6.44      0.00
    1   16    6     -5.39      0.00
    1   16    5      3.96      0.00
    1   16    4     -2.67      0.00
    1   16    3     -0.45      0.00
    1   16    2     -1.81      0.00
    1   16    1     -2.81      0.00
    1   16    0    -31.75      0.00
    1   16   10      7.70      0.00
    2   16   17     -0.31      0.00
    2   16   16     -8.08      0.00
    2   16   15      1.56      0.00
    2   16   14     -4.93      0.00
    2   16   12      4.08      0.00
    2   16   11     17.51      0.00
    2   16   10      0.04      0.00
    2   16    9     14.93      0.00
    2   16    8     -2.37      0.00
    2   16    7     -1.01      0.00
    2   16    6      7.48      0.00
    2   16    5      0.13      0.00
    2   16    4     -2.31      0.00
    2   16    3     -0.69      0.00
    2   16    2      7.71      0.00
    2   16    1    -19.34      0.00
    2   16    0     -7.30      0.00
    2   16   13     -7.09      0.00
    3   16   17      4.39      0.00
    3   16   16     -3.46      0.00
    3   16   15      0.23      0.00
    3   16   14     -6.76      0.00
    3   16   12      4.05      0.00
    3   16   11      6.04      0.00
    3   16    9     -1.04      0.00
    3   16    8      2.99      0.00
    3   16    7      8.03      0.00
    3   16    6      0.99      0.00
    3   16    5     -1.22      0.00
    3   16    4      2.99      0.00
    3   16    3      8.02      0.00
    3   16    2      6.57      0.00
    3   16    1      4.06      0.00
    3   16    0      0.80      0.00
    3   16   10    -10.62      0.00
    3   16   13     -0.47      0.00
    4   16   17     -0.01      0.00
    4   16   16      1.17      0.00
    4   16   15     -7.21      0.00
    4   16   14      2.70      0.00
    4   16   11     -1.73      0.00
    4   16   10      3.04      0.00
    4   16    8      2.84      0.00
    4   16    7     -4.56      0.00
    4   16    6      2.34      0.00
    4   16    5     -1.45      0.00
    4   16    4     -1.00      0.00
    4   16    3     -4.90      0.00
    4   16    2     -2.11      0.00
    4   16    1      0.90      0.00
    4   16    0    -14.63      0.00
    4   16    9     11.96      0.00
    4   16   12     -0.18      0.00
    4   16   13     -3.68      0.00
    5   16   17     -1.46      0.00
    5   16   16     -2.59      0.00
    5   16   15     -3.36      0.00
    5   16   14     -1.01      0.00
    5   16   11      3.55      0.00
    5   16    3     -2.65      0.00
    5   16    2      1.79      0.00
    5   16    1      0.27      0.00
    5   16    0     -2.88      0.00
    5   16    4     -0.74      0.00
    5   16    5     -3.73      0.00
    5   16    6      0.62      0.00
    5   16    7      6.15      0.00
    5   16    8      6.07      0.00
    5   16    9     -3.35      0.00
    5   16   10     -6.57      0.00
    5   16   12     -5.28      0.00
    5   16   13     -4.88      0.00
    6   16   17      4.73      0.00
    6   16   16     -4.73      0.00
    6   16   15      0.63      0.00
    6   16   14      1.25      0.00
    6   16   11      0.57      0.00
    6   16    3     -0.13      0.00
    6   16    2      1.04      0.00
    6   16    1      2.82      0.00
    6   16    0      0.34      0.00
    6   16    4     -1.47      0.00
    6   16    5     -1.07      0.00
    6   16    6      1.47      0.00
    6   16    7     -0.29      0.00
    6   16    8      1.29      0.00
    6   16    9      0.44      0.00
    6   16   10     -2.12      0.00
    6   16   12      1.79      0.00
    6   16   13     -8.38      0.00
    7   16   16     -2.97      0.00
    7   16   15     -0.48      0.00
    7   16   14      0.78      0.00
    7   16   11      2.51      0.00
    7   16    3      4.85      0.00
    7   16    2      5.22      0.00
    7   16    1      3.88      0.00
    7   16    0      2.14      0.00
    7   16    4      2.02      0.00
    7   16    5      1.78      0.00
    7   16    6     -0.44      0.00
    7   16    7     -3.09      0.00
    7   16    8      1.62      0.00
    7   16    9      5.91      0.00
    7   16   10     -1.06      0.00
    7   16   12     -1.27      0.00
    7   16   13     -5.38      0.00
    7   16   17     -1.32      0.00
    8   16   16      0.97      0.00
    8   16   15     -4.07      0.00
    8   16   14     -1.00      0.00
    8   16   13      0.59      0.00
    8   16    3      0.88      0.00
    8   16    2     -0.26      0.00
    8   16    1      1.16      0.00
    8   16    0      2.58      0.00
    8   16    4      3.98      0.00
    8   16    5     -2.17      0.00
    8   16    6      5.04      0.00
    8   16    7     -0.50      0.00
    8   16    8      9.82      0.00
    8   16    9      0.88      0.00
    8   16   10     -0.58      0.00
    8   16   11     -0.35      0.00
    8   16   12      3.64      0.00
    9   16   15     -1.79      0.00
    9   16   14     -5.48      0.00
    9   16   13     -6.99      0.00
    9   16    3     -5.61      0.00
    9   16    2     -3.54      0.00
    9   16    1     -3.01      0.00
    9   16    0      5.77      0.00
    9   16    4      1.40      0.00
    9   16    5      4.43      0.00
    9   16    6     -3.71      0.00
    9   16    7     -4.64      0.00
    9   16    8     -1.41      0.00
    9   16    9      0.65      0.00
    9   16   10      0.71      0.00
    9   16   11      4.25      0.00
    9   16   12     -1.41      0.00
    9   16   16      6.31      0.00
   10   16   15     -3.84      0.00
   10   16   14      4.22      0.00
   10   16   13     -7.36      0.00
   10   16    3     -1.85      0.00
   10   16    2     -2.81      0.00
   10   16    1      5.10      0.00
   10   16    0      8.06      0.00
   10   16    4     -1.55      0.00
   10   16    5     -0.77      0.00
   10   16    6     -2.08      0.00
   10   16    7     -0.61      0.00
   10   16    8     -2.52      0.00
   10   16    9      4.40      0.00
   10   16   10      1.71      0.00
   10   16   11      1.09      0.00
   10   16   12      1.24      0.00
   10   16   16      1.24      0.00
   11   16   14      0.31      0.00
   11   16   13     -4.24      0.00
   11   16   12     -1.50      0.00
   11   16    2     -4.22      0.00
   11   16    1     -4.57      0.00
   11   16    0     -1.42      0.00
   11   16    3     -0.06      0.00
   11   16    4     -4.75      0.00
   11   16    5     -6.52      0.00
   11   16    6     -0.13      0.00
   11   16    7     -5.30      0.00
   11   16    8     -1.56      0.00
   11   16    9     -3.19      0.00
   11   16   10     -2.04      0.00
   11   16   11      0.59      0.00
   11   16   15      0.49      0.00
   12   16    2     -1.28      0.00
   12   16    1     -2.27      0.00
   12   16    0     -2.31      0.00
   12   16    3     -5.84      0.00
   12   16    4      5.51      0.00
   12   16    5     -0.03      0.00
   12   16    6      2.97      0.00
   12   16    7     -0.92      0.00
   12   16    8      1.25      0.00
   12   16    9     -4.05      0.00
   12   16   10      1.87      0.00
   12   16   11      1.56      0.00
   12   16   12     -6.59      0.00
   12   16   13     -1.79      0.00
   12   16   14     -2.65      0.00
   12   16   15      6.67      0.00
   13   16    2      4.52      0.00
   13   16    1      0.22      0.00
   13   16    0      3.77      0.00
   13   16    3     -5.35      0.00
   13   16    4     -0.05      0.00
   13   16    5     -1.22      0.00
   13   16    6      4.07      0.00
   13   16    7     -1.84      0.00
   13   16    8      4.52      0.00
   13   16    9     -2.03      0.00
   13   16   10      1.39      0.00
   13   16   11      1.66      0.00
   13   16   12      0.19      0.00
   13   16   13     -3.91      0.00
   13   16   14      5.06      0.00
   14   16    2    -11.77      0.00
   14   16    1      0.50      0.00
   14   16    0      0.06      0.00
   14   16    3      2.33      0.00
   14   16    4     -2.61      0.00
   14   16    5      2.79      0.00
   14   16    6     -1.39      0.00
   14   16    7     -0.50      0.00
   14   16    8     -2.74      0.00
   14   16    9     -1.26      0.00
   14   16   10     -1.07      0.00
   14   16   11     -2.67      0.00
   14   16   12     -0.91      0.00
   14   16   13     -2.08      0.00
   15   16    1      0.89      0.00
   15   16    0     -5.80      0.00
   15   16    2      1.50      0.00
   15   16    3     -0.36      0.00
   15   16    4     -1.94      0.00
   15   16    5     -1.81      0.00
   15   16    6      0.57      0.00
   15   16    7      3.50      0.00
   15   16    8     -1.75      0.00
   15   16    9      1.14      0.00
   15   16   10     -0.08      0.00
   15   16   11      2.88      0.00
   15   16   12      1.76      0.00
   15   16   13     -9.15      0.00
   16   16    0      5.56      0.00
   16   16    2    -12.11      0.00
   16   16    4      5.35      0.00
   16   16    6     -0.53      0.00
   16   16    8      2.52      0.00
   16   16   10     -2.96      0.00
   16   16   12    -29.18      0.00
    0   17    0    -14.00      0.00
    0   17    1     -8.67      0.00
    0   17    2     -3.30      0.00
    0   17    3     -5.03      0.00
    0   17    4     -5.41      0.00
    0   17    5     -0.24      0.00
    0   17    6     -2.99      0.00
    0   17    7     -3.07      0.00
    0   17    8      0.12      0.00
    0   17    9      4.22      0.00
    0   17   10     -1.74      0.00
    0   17   11     -4.70      0.00
    0   17   12     -3.64      0.00
    0   17   14     -1.37      0.00
    0   17   15      7.30      0.00
    0   17   16     -1.98      0.00
    0   17   17     -0.21      0.00
    1   17   17     -1.46      0.00
    1   17   16     -6.07      0.00
    1   17   15     -3.31      0.00
    1   17   14     -0.88      0.00
    1   17   12      1.28      0.00
    1   17   11      7.17      0.00
    1   17   10      0.26      0.00
    1   17    9     13.20      0.00
    1   17    8     -4.38      0.00
    1   17    7      4.22      0.00
    1   17    6     16.08      0.00
    1   17    5      0.89      0.00
    1   17    4    -10.37      0.00
    1   17    3     -5.05      0.00
    1   17    2      4.08      0.00
    1   17    1     11.76      0.00
    1   17    0      6.21      0.00
    1   17   13      9.51      0.00
    2   17   17      7.37      0.00
    2   17   16      4.49      0.00
    2   17   15     -9.58      0.00
    2   17   14     -8.15      0.00
    2   17   12     -4.98      0.00
    2   17   11      7.00      0.00
    2   17   10     -9.02      0.00
    2   17    8      8.60      0.00
    2   17    7     10.73      0.00
    2   17    6     -3.40      0.00
    2   17    5     15.86      0.00
    2   17    4     -8.05      0.00
    2   17    3      3.59      0.00
    2   17    2     -8.82      0.00
    2   17    1     10.28      0.00
    2   17    0    -10.93      0.00
    2   17    9      2.18      0.00
    2   17   13     14.61      0.00
    3   17   17      2.39      0.00
    3   17   16    -11.18      0.00
    3   17   15      4.40      0.00
    3   17   14     -2.78      0.00
    3   17   12      8.40      0.00
    3   17   11      4.39      0.00
    3   17   10     -3.52      0.00
    3   17    9     17.94      0.00
    3   17    7      5.98      0.00
    3   17    6      9.54      0.00
    3   17    5     -3.51      0.00
    3   17    4    -11.73      0.00
    3   17    3     -0.59      0.00
    3   17    2     -5.61      0.00
    3   17    1      6.05      0.00
    3   17    0    -14.57      0.00
    3   17    8     -4.59      0.00
    3   17   13      1.98      0.00
    4   17   17      4.80      0.00
    4   17   16     -1.25      0.00
    4   17   15     -7.83      0.00
    4   17   14      2.12      0.00
    4   17   12     -5.75      0.00
    4   17   11      3.73      0.00
    4   17    7      4.92      0.00
    4   17    6      6.22      0.00
    4   17    5     -6.34      0.00
    4   17    4     -0.29      0.00
    4   17    3      2.77      0.00
    4   17    2      6.70      0.00
    4   17    1      4.49      0.00
    4   17    0     -3.70      0.00
    4   17    8     -4.91      0.00
    4   17    9      2.60      0.00
    4   17   10     -1.81      0.00
    4   17   13      4.62      0.00
    5   17   16      5.65      0.00
    5   17   15      1.14      0.00
    5   17   14      0.90      0.00
    5   17   11      3.78      0.00
    5   17   10     -3.68      0.00
    5   17    4     -3.06      0.00
    5   17    3      0.42      0.00
    5   17    2     -2.45      0.00
    5   17    1      0.36      0.00
    5   17    0     -3.95      0.00
    5   17    5      1.68      0.00
    5   17    6      2.60      0.00
    5   17    7     -7.16      0.00
    5   17    8      5.59      0.00
    5   17    9      2.89      0.00
    5   17   12     -0.86      0.00
    5   17   13      1.62      0.00
    6   17   16     -2.52      0.00
    6   17   15     -5.49      0.00
    6   17   14      3.07      0.00
    6   17   11     -2.84      0.00
    6   17    3     -0.12      0.00
    6   17    2      5.83      0.00
    6   17    1      8.01      0.00
    6   17    0     -2.64      0.00
    6   17    4      0.20      0.00
    6   17    5     -5.22      0.00
    6   17    6      6.96      0.00
    6   17    7      1.56      0.00
    6   17    8      4.09      0.00
    6   17    9      2.04      0.00
    6   17   10      7.63      0.00
    6   17   12     -3.49      0.00
    6   17   13      0.67      0.00
    7   17   16      9.10      0.00
    7   17   15     -5.08      0.00
    7   17   14      0.59      0.00
    7   17   13      5.23      0.00
    7   17    3      2.84      0.00
    7   17    2      2.25      0.00
    7   17    1     -6.37      0.00
    7   17    0    -10.30      0.00
    7   17    4     -1.44      0.00
    7   17    5     -7.93      0.00
    7   17    6      1.62      0.00
    7   17    7     -3.07      0.00
    7   17    8     -2.90      0.00
    7   17    9     -1.05      0.00
    7   17   10     -3.27      0.00
    7   17   11     -4.12      0.00
    7   17   12      1.73      0.00
    8   17   15     -1.34      0.00
    8   17   14      3.71      0.00
    8   17   13      0.50      0.00
    8   17   11     -0.50      0.00
    8   17    3      7.14      0.00
    8   17    2      1.77      0.00
    8   17    1      8.08      0.00
    8   17    0      4.36      0.00
    8   17    4      4.40      0.00
    8   17    5      6.31      0.00
    8   17    6      3.03      0.00
    8   17    7      2.03      0.00
    8   17    8     -0.20      0.00
    8   17    9     11.10      0.00
    8   17   10      5.02      0.00
    8   17   12      4.44      0.00
    8   17   16     -1.59      0.00
    9   17   15     -5.86      0.00
    9   17   14      0.58      0.00
    9   17   13      9.27      0.00
    9   17   11     -2.63      0.00
    9   17    3      4.63      0.00
    9   17    2     -1.49      0.00
    9   17    1     -3.38      0.00
    9   17    0      1.72      0.00
    9   17    4     -3.55      0.00
    9   17    5     -2.52      0.00
    9   17    6      1.95      0.00
    9   17    7      1.83      0.00
    9   17    8     -2.43      0.00
    9   17    9     -2.66      0.00
    9   17   10      2.57      0.00
    9   17   12     -6.58      0.00
   10   17   14     -4.10      0.00
   10   17   13     -4.03      0.00
   10   17   12      0.30      0.00
   10   17    2      0.75      0.00
   10   17    1      0.32      0.00
   10   17    0      1.23      0.00
   10   17    3      0.25      0.00
   10   17    4      5.49      0.00
   10   17    5     -4.72      0.00
   10   17    6      1.47      0.00
   10   17    7     -0.62      0.00
   10   17    8     -0.25      0.00
   10   17    9     -1.95      0.00
   10   17   10    -10.17      0.00
   10   17   11      0.13      0.00
   10   17   15     -3.21      0.00
   11   17   13      2.85      0.00
   11   17   12      9.72      0.00
   11   17    2      4.21      0.00
   11   17    1     -0.01      0.00
   11   17    0     -0.61      0.00
   11   17    3      8.09      0.00
   11   17    4      2.53      0.00
   11   17    5     -3.85      0.00
   11   17    6      1.22      0.00
   11   17    7      0.84      0.00
   11   17    8      0.34      0.00
   11   17    9     -5.97      0.00
   11   17   10      5.38      0.00
   11   17   11      0.34      0.00
   11   17   14     -6.59      0.00
   11   17   15    -14.57      0.00
   12   17    2      2.73      0.00
   12   17    1      0.27      0.00
   12   17    0     -4.49      0.00
   12   17    3     -2.48      0.00
   12   17    4    -13.94      0.00
   12   17    5     -1.22      0.00
   12   17    6     -0.98      0.00
   12   17    7     -0.74      0.00
   12   17    8      1.85      0.00
   12   17    9     -2.03      0.00
   12   17   10     -0.20      0.00
   12   17   11     -1.84      0.00
   12   17   12      4.10      0.00
   12   17   13     -0.19      0.00
   12   17   14     -1.19      0.00
   13   17    2      0.51      0.00
   13   17    1      1.34      0.00
   13   17    0      3.47      0.00
   13   17    3     -2.24      0.00
   13   17    4      7.04      0.00
   13   17    5     -5.84      0.00
   13   17    6      0.77      0.00
   13   17    7      4.21      0.00
   13   17    8     -2.94      0.00
   13   17    9      1.98      0.00
   13   17   10     -4.62      0.00
   13   17   11      4.17      0.00
   13   17   12      2.54      0.00
   13   17   13      7.04      0.00
   14   17    2     -0.40      0.00
   14   17    1      2.61      0.00
   14   17    0      6.54      0.00
   14   17    3     -0.17      0.00
   14   17    4     -1.11      0.00
   14   17    5      3.78      0.00
   14   17    6      8.10      0.00
   14   17    7     -3.23      0.00
   14   17    8      1.04      0.00
   14   17    9     -5.44      0.00
   14   17   10     -1.65      0.00
   14   17   11     -0.97      0.00
   14   17   12     -3.98      0.00
   15   17    1     -1.19      0.00
   15   17    0     -6.75      0.00
   15   17    2     -2.71      0.00
   15   17    3     -4.31      0.00
   15   17    4     -3.29      0.00
   15   17    5     -1.70      0.00
   15   17    6     -0.81      0.00
   15   17    7      0.50      0.00
   15   17    8      1.49      0.00
   15   17    9     -0.08      0.00
   15   17   10      0.01      0.00
   15   17   11     -1.91      0.00
   15   17   12     18.83      0.00
   16   17    1      2.76      0.00
   16   17    0      5.49      0.00
   16   17    2     -2.30      0.00
   16   17    3      0.16      0.00
   16   17    4     -5.76      0.00
   16   17    5      7.77      0.00
   16   17    6      5.42      0.00
   16   17    7     -0.14      0.00
   16   17    8     -3.81      0.00
   16   17    9     -3.59      0.00
   16   17   10     -1.62      0.00
   16   17   11     10.20      0.00
   17   17    0      4.86      0.00
   17   17    2     -5.62      0.00
   17   17    4     -4.08      0.00
   17   17    6      3.99      0.00
   17   17    8      0.63      0.00
   17   17   10     -4.50      0.00
    0   18    0     -9.33      0.00
    0   18    1      4.78      0.00
    0   18    2     -6.53      0.00
    0   18    3      0.18      0.00
    0   18    4     -5.73      0.00
    0   18    5     -1.94      0.00
    0   18    6     -1.12      0.00
    0   18    7      4.75      0.00
    0   18    8      1.74      0.00
    0   18    9     -1.21      0.00
    0   18   10    -11.29      0.00
    0   18   11      2.24      0.00
    0   18   12     -3.72      0.00
    0   18   13     21.78      0.00
    0   18   14      2.36      0.00
    0   18   15      8.95      0.00
    0   18   16     -0.55      0.00
    1   18   16      0.34      0.00
    1   18   15     -1.53      0.00
    1   18   14      1.01      0.00
    1   18   12     -1.49      0.00
    1   18   11      1.02      0.00
    1   18   10      6.00      0.00
    1   18    8    -14.26      0.00
    1   18    7      3.22      0.00
    1   18    6      8.13      0.00
    1   18    5      3.88      0.00
    1   18    4     -0.88      0.00
    1   18    3      1.94      0.00
    1   18    2     -5.41      0.00
    1   18    1      3.40      0.00
    1   18    0      1.26      0.00
    1   18    9      3.19      0.00
    1   18   13      3.36      0.00
    2   18   16     -1.18      0.00
    2   18   15     15.17      0.00
    2   18   14      3.70      0.00
    2   18   12     25.05      0.00
    2   18   11      0.52      0.00
    2   18   10      6.52      0.00
    2   18    9     -3.89      0.00
    2   18    8     -0.71      0.00
    2   18    7     10.07      0.00
    2   18    5     -2.94      0.00
    2   18    4     -5.45      0.00
    2   18    3     -2.88      0.00
    2   18    2      5.76      0.00
    2   18    1     -2.51      0.00
    2   18    0      0.72      0.00
    2   18    6      5.62      0.00
    2   18   13     -0.69      0.00
    3   18   16      2.79      0.00
    3   18   15     -9.62      0.00
    3   18   14      1.32      0.00
    3   18   12      6.10      0.00
    3   18   11     19.44      0.00
    3   18   10     -2.72      0.00
    3   18    8      3.31      0.00
    3   18    5      1.79      0.00
    3   18    4      3.78      0.00
    3   18    3     -2.43      0.00
    3   18    2     -0.19      0.00
    3   18    1     -1.61      0.00
    3   18    0      2.98      0.00
    3   18    6     11.59      0.00
    3   18    7     -1.64      0.00
    3   18    9     -0.13      0.00
    3   18   13     10.43      0.00
    4   18   16      0.92      0.00
    4   18   15      0.26      0.00
    4   18   14     -8.47      0.00
    4   18   12     -3.47      0.00
    4   18   11     -3.62      0.00
    4   18   10     -4.18      0.00
    4   18    9      3.28      0.00
    4   18    4      1.69      0.00
    4   18    3     -3.26      0.00
    4   18    2     -2.71      0.00
    4   18    1      7.07      0.00
    4   18    0     -9.27      0.00
    4   18    5     -1.76      0.00
    4   18    6      8.30      0.00
    4   18    7     -0.44      0.00
    4   18    8     -3.09      0.00
    4   18   13      5.57      0.00
    5   18   16      0.54      0.00
    5   18   15      8.29      0.00
    5   18   14     -0.67      0.00
    5   18    9      1.63      0.00
    5   18    4     -4.44      0.00
    5   18    3     -0.15      0.00
    5   18    2     -5.75      0.00
    5   18    1     -1.69      0.00
    5   18    0     -1.42      0.00
    5   18    5     -7.43      0.00
    5   18    6     -2.50      0.00
    5   18    7      2.46      0.00
    5   18    8     -4.98      0.00
    5   18   10      4.71      0.00
    5   18   11     -1.15      0.00
    5   18   12      1.37      0.00
    5   18   13      1.39      0.00
    6   18   15     -1.79      0.00
    6   18   14      3.82      0.00
    6   18   13     -0.53      0.00
    6   18   11      2.90      0.00
    6   18   10      3.78      0.00
    6   18    3      4.84      0.00
    6   18    2      3.49      0.00
    6   18    1      6.53      0.00
    6   18    0     -6.45      0.00
    6   18    4      0.78      0.00
    6   18    5      5.98      0.00
    6   18    6     -1.04      0.00
    6   18    7      1.65      0.00
    6   18    8      0.37      0.00
    6   18    9     -2.64      0.00
    6   18   12      4.41      0.00
    7   18   15      6.40      0.00
    7   18   14      4.49      0.00
    7   18   13     -9.50      0.00
    7   18   11      0.99      0.00
    7   18   10      5.48      0.00
    7   18    3      1.37      0.00
    7   18    2      2.67      0.00
    7   18    1     -5.86      0.00
    7   18    0      0.84      0.00
    7   18    4      1.53      0.00
    7   18    5     -2.42      0.00
    7   18    6      2.19      0.00
    7   18    7     -1.40      0.00
    7   18    8      7.61      0.00
    7   18    9      7.83      0.00
    7   18   12      3.36      0.00
    8   18   14     -1.91      0.00
    8   18   13      6.17      0.00
    8   18   11     -5.02      0.00
    8   18    3      0.69      0.00
    8   18    2     -2.48      0.00
    8   18    1      2.15      0.00
    8   18    0      9.69      0.00
    8   18    4      1.05      0.00
    8   18    5      2.90      0.00
    8   18    6      1.36      0.00
    8   18    7     -5.46      0.00
    8   18    8      2.17      0.00
    8   18    9      2.96      0.00
    8   18   10      1.22      0.00
    8   18   12     -0.48      0.00
    9   18   14     -2.44      0.00
    9   18   13      2.77      0.00
    9   18   11     -3.87      0.00
    9   18    3     -5.83      0.00
    9   18    2      0.95      0.00
    9   18    1      7.31      0.00
    9   18    0     -3.09      0.00
    9   18    4      3.76      0.00
    9   18    5     -4.72      0.00
    9   18    6      0.13      0.00
    9   18    7      2.76      0.00
    9   18    8      0.81      0.00
    9   18    9     -0.24      0.00
    9   18   10      5.10      0.00
    9   18   12      0.53      0.00
    9   18   15     11.22      0.00
   10   18   13      1.76      0.00
   10   18   12     -1.58      0.00
   10   18    2     -0.95      0.00
   10   18    1    -12.93      0.00
   10   18    0     21.93      0.00
   10   18    3     -8.18      0.00
   10   18    4     -4.18      0.00
   10   18    5      1.13      0.00
   10   18    6      1.32      0.00
   10   18    7      0.31      0.00
   10   18    8     -1.90      0.00
   10   18    9      3.05      0.00
   10   18   10      1.76      0.00
   10   18   11      0.30      0.00
   10   18   14     -2.83      0.00
   11   18   12     -2.93      0.00
   11   18    2     -2.37      0.00
   11   18    1     13.19      0.00
   11   18    0      5.20      0.00
   11   18    3      0.46      0.00
   11   18    4    -16.10      0.00
   11   18    5      2.81      0.00
   11   18    6     -5.43      0.00
   11   18    7      3.12      0.00
   11   18    8      1.77      0.00
   11   18    9      8.22      0.00
   11   18   10     -2.05      0.00
   11   18   11     -0.40      0.00
   11   18   13     -0.03      0.00
   11   18   14     -0.54      0.00
   12   18    2     -2.00      0.00
   12   18    1      0.81      0.00
   12   18    0     -9.67      0.00
   12   18    3      1.40      0.00
   12   18    4     -1.06      0.00
   12   18    5     -4.82      0.00
   12   18    6     -1.49      0.00
   12   18    7     13.08      0.00
   12   18    8     -1.81      0.00
   12   18    9     -1.46      0.00
   12   18   10     -3.15      0.00
   12   18   11     -0.43      0.00
   12   18   12      1.46      0.00
   12   18   13     -1.52      0.00
   13   18    2     -0.74      0.00
   13   18    1      0.96      0.00
   13   18    0     -0.89      0.00
   13   18    3    -11.60      0.00
   13   18    4    -10.89      0.00
   13   18    5      8.38      0.00
   13   18    6     -7.33      0.00
   13   18    7     -9.41      0.00
   13   18    8      1.26      0.00
   13   18    9      0.67      0.00
   13   18   10      2.22      0.00
   13   18   11     -2.29      0.00
   13   18   12     -2.79      0.00
   14   18    1     -4.39      0.00
   14   18    0      0.65      0.00
   14   18    2     -0.26      0.00
   14   18    3      2.75      0.00
   14   18    4     -4.21      0.00
   14   18    5    -15.54      0.00
   14   18    6     -1.11      0.00
   14   18    7      1.49      0.00
   14   18    8     -1.26      0.00
   14   18    9     -2.11      0.00
   14   18   10     -0.04      0.00
   14   18   11      2.12      0.00
   15   18    1     -0.18      0.00
   15   18    0     -0.55      0.00
   15   18    2      0.09      0.00
   15   18    3      3.92      0.00
   15   18    4      3.25      0.00
   15   18    5      2.25      0.00
   15   18    6     -2.46      0.00
   15   18    7     -1.80      0.00
   15   18    8     -0.33      0.00
   15   18    9      2.31      0.00
   15   18   10     -0.63      0.00
   16   18    1      4.34      0.00
   16   18    0     -1.22      0.00
   16   18    2      2.70      0.00
   16   18    3      1.04      0.00
   16   18    4     -0.12      0.00
   16   18    5     -1.69      0.00
   16   18    6     -5.86      0.00
   16   18    7     -3.01      0.00
   16   18    8     -0.75      0.00
   16   18    9      2.68      0.00
   16   18   10      4.60      0.00
   17   18    0      0.24      0.00
   17   18    1     -4.46      0.00
   17   18    2     -2.49      0.00
   17   18    3      3.52      0.00
   17   18    4     -1.37      0.00
   17   18    5     -1.10      0.00
   17   18    6      0.57      0.00
   17   18    7      0.19      0.00
   17   18    8     -0.68      0.00
   17   18    9     -3.08      0.00
   18   18    0     -0.62      0.00
   18   18    2      4.16      0.00
   18   18    4     -2.52      0.00
   18   18    6     -4.38      0.00
   18   18    8     -0.55      0.00
    0   19    0      2.86      0.00
    0   19    1     -3.49      0.00
    0   19    2     -2.30      0.00
    0   19    3     -4.28      0.00
    0   19    4      5.50      0.00
    0   19    5    -12.39      0.00
    0   19    6      1.12      0.00
    0   19    7      0.42      0.00
    0   19    8    -26.47      0.00
    0   19    9      0.37      0.00
    0   19   10     17.36      0.00
    0   19   11      0.70      0.00
    0   19   12      5.01      0.00
    0   19   13    -21.33      0.00
    0   19   14     -7.88      0.00
    0   19   15      8.07      0.00
    1   19   15      5.55      0.00
    1   19   14      0.39      0.00
    1   19   13     -6.13      0.00
    1   19   12      0.66      0.00
    1   19   11     -2.15      0.00
    1   19   10      7.30      0.00
    1   19    9      2.61      0.00
    1   19    7     -2.36      0.00
    1   19    6    -16.15      0.00
    1   19    5     -2.35      0.00
    1   19    4      6.62      0.00
    1   19    3      2.32      0.00
    1   19    2      4.79      0.00
    1   19    0      0.33      0.00
    1   19    1     -7.82      0.00
    1   19    8      6.48      0.00
    2   19   15     -1.14      0.00
    2   19   14     -4.72      0.00
    2   19   13      9.29      0.00
    2   19   12      0.44      0.00
    2   19   11     21.51      0.00
    2   19   10     -0.85      0.00
    2   19    8     -4.72      0.00
    2   19    7      3.60      0.00
    2   19    6     12.39      0.00
    2   19    1     -0.68      0.00
    2   19    0     12.47      0.00
    2   19    2      3.61      0.00
    2   19    3      0.21      0.00
    2   19    4      4.88      0.00
    2   19    5     -1.91      0.00
    2   19    9      6.16      0.00
    3   19   15      1.72      0.00
    3   19   14     -2.93      0.00
    3   19   13     -7.39      0.00
    3   19   12     16.94      0.00
    3   19   11     -3.07      0.00
    3   19   10     17.03      0.00
    3   19    9     -3.22      0.00
    3   19    8     -2.78      0.00
    3   19    7      9.61      0.00
    3   19    2     -7.03      0.00
    3   19    1     -0.58      0.00
    3   19    0    -12.16      0.00
    3   19    3      1.36      0.00
    3   19    4      6.70      0.00
    3   19    5     -5.00      0.00
    3   19    6     -2.70      0.00
    4   19   15      0.25      0.00
    4   19   14      4.85      0.00
    4   19   13     -9.66      0.00
    4   19   12      4.72      0.00
    4   19   11     -0.57      0.00
    4   19    9     -0.14      0.00
    4   19    8      0.68      0.00
    4   19    3     -7.79      0.00
    4   19    2      3.11      0.00
    4   19    1     -0.62      0.00
    4   19    0      1.02      0.00
    4   19    4     -4.84      0.00
    4   19    5     -4.11      0.00
    4   19    6     -0.75      0.00
    4   19    7     -4.89      0.00
    4   19   10      2.60      0.00
    5   19   15     -1.47      0.00
    5   19   14     -0.80      0.00
    5   19   13    -10.05      0.00
    5   19   12     -0.57      0.00
    5   19   11      4.36      0.00
    5   19   10     -1.25      0.00
    5   19    9     -7.07      0.00
    5   19    3     -5.59      0.00
    5   19    2      0.16      0.00
    5   19    1     -0.02      0.00
    5   19    0     15.64      0.00
    5   19    4      1.03      0.00
    5   19    5     -5.91      0.00
    5   19    6      2.26      0.00
    5   19    7     -0.59      0.00
    5   19    8     -2.46      0.00
    6   19   14      0.58      0.00
    6   19   13     -4.19      0.00
    6   19   11      5.80      0.00
    6   19   10      0.55      0.00
    6   19    9      0.48      0.00
    6   19    3     -4.52      0.00
    6   19    2      4.19      0.00
    6   19    1     -0.04      0.00
    6   19    0     -5.33      0.00
    6   19    4      3.61      0.00
    6   19    5     -4.19      0.00
    6   19    6     -0.80      0.00
    6   19    7      0.51      0.00
    6   19    8      8.63      0.00
    6   19   12     -3.53      0.00
    7   19   14      3.57      0.00
    7   19   13     -2.78      0.00
    7   19    3      3.52      0.00
    7   19    2      3.80      0.00
    7   19    1      2.77      0.00
    7   19    0      2.74      0.00
    7   19    4      1.12      0.00
    7   19    5     -3.88      0.00
    7   19    6      4.87      0.00
    7   19    7      3.03      0.00
    7   19    8      1.63      0.00
    7   19    9      7.84      0.00
    7   19   10      4.18      0.00
    7   19   11      1.51      0.00
    7   19   12      8.82      0.00
    8   19   14     -7.28      0.00
    8   19   13     -1.94      0.00
    8   19   11     -1.68      0.00
    8   19   10      1.30      0.00
    8   19    3      4.53      0.00
    8   19    2      2.03      0.00
    8   19    1     -2.38      0.00
    8   19    0     10.35      0.00
    8   19    4      3.06      0.00
    8   19    5      0.59      0.00
    8   19    6     -5.09      0.00
    8   19    7      1.31      0.00
    8   19    8      3.13      0.00
    8   19    9     -2.36      0.00
    8   19   12     -1.14      0.00
    9   19   13     -5.36      0.00
    9   19   12     -6.60      0.00
    9   19   11     -0.36      0.00
    9   19   10     -0.65      0.00
    9   19    2     -5.31      0.00
    9   19    1      7.66      0.00
    9   19    0     15.99      0.00
    9   19    3     -0.12      0.00
    9   19    4      0.03      0.00
    9   19    5     12.01      0.00
    9   19    6     -2.19      0.00
    9   19    7      6.47      0.00
    9   19    8      3.02      0.00
    9   19    9      7.07      0.00
    9   19   14     10.45      0.00
   10   19   12      3.95      0.00
   10   19   10     -4.80      0.00
   10   19    2     -0.22      0.00
   10   19    1     -2.68      0.00
   10   19    0     -5.04      0.00
   10   19    3      1.09      0.00
   10   19    4      1.40      0.00
   10   19    5     -1.27      0.00
   10   19    6     -4.89      0.00
   10   19    7      0.11      0.00
   10   19    8      0.57      0.00
   10   19    9     -5.48      0.00
   10   19   11      9.38      0.00
   10   19   13     -3.41      0.00
   11   19   10     -6.88      0.00
   11   19    2     -1.76      0.00
   11   19    1     -2.77      0.00
   11   19    0     10.20      0.00
   11   19    3      3.83      0.00
   11   19    4      2.94      0.00
   11   19    5     -0.20      0.00
   11   19    6     -0.36      0.00
   11   19    7      1.04      0.00
   11   19    8      2.52      0.00
   11   19    9     -2.97      0.00
   11   19   11     -2.54      0.00
   11   19   12     -0.60      0.00
   11   19   13     -5.47      0.00
   12   19   10      1.48      0.00
   12   19    2      1.68      0.00
   12   19    1     -1.11      0.00
   12   19    0      0.75      0.00
   12   19    3     -0.82      0.00
   12   19    4     -3.16      0.00
   12   19    5      0.94      0.00
   12   19    6     -5.63      0.00
   12   19    7     -0.13      0.00
   12   19    8     -1.88      0.00
   12   19    9     -2.76      0.00
   12   19   11      5.89      0.00
   12   19   12      2.52      0.00
   13   19    1      1.38      0.00
   13   19    0     11.07      0.00
   13   19    2     -6.10      0.00
   13   19    3     -5.56      0.00
   13   19    4      0.77      0.00
   13   19    5     -0.31      0.00
   13   19    6     -4.47      0.00
   13   19    7      5.93      0.00
   13   19    8      1.23      0.00
   13   19    9      0.75      0.00
   13   19   10     -6.27      0.00
   13   19   11      0.38      0.00
   14   19    1     -3.14      0.00
   14   19    0     -8.29      0.00
   14   19    2     -4.64      0.00
   14   19    3      1.58      0.00
   14   19    4     -3.81      0.00
   14   19    5     -1.55      0.00
   14   19    6     -6.04      0.00
   14   19    7     -1.93      0.00
   14   19    8     -0.68      0.00
   14   19    9      4.44      0.00
   14   19   10      0.27      0.00
   15   19    1     -2.02      0.00
   15   19    0      2.20      0.00
   15   19    2      1.67      0.00
   15   19    3      4.11      0.00
   15   19    4     -1.99      0.00
   15   19    5      0.06      0.00
   15   19    6     -2.20      0.00
   15   19    7     -0.94      0.00
   15   19    8     -1.61      0.00
   15   19    9     -3.86      0.00
   15   19   10     -4.45      0.00
   16   19    0      2.62      0.00
   16   19    1      3.03      0.00
   16   19    2     -6.20      0.00
   16   19    3      1.80      0.00
   16   19    4      4.18      0.00
   16   19    5     -3.34      0.00
   16   19    6     -1.99      0.00
   16   19    7      3.10      0.00
   16   19    8      2.53      0.00
   16   19    9      5.93      0.00
   17   19    0      1.99      0.00
   17   19    1      2.68      0.00
   17   19    2     -0.24      0.00
   17   19    3      0.38      0.00
   17   19    4     -1.48      0.00
   17   19    5     -4.33      0.00
   17   19    6     -1.42      0.00
   17   19    7     -0.89      0.00
   18   19    1     -2.72      0.00
   18   19    2     -1.29      0.00
   18   19    3     -0.15      0.00
   18   19    4      1.43      0.00
   18   19    5     -7.11      0.00
   18   19    6     -3.45      0.00
    0   20    0     13.53      0.00
    0   20    1      4.88      0.00
    0   20    2     -3.33      0.00
    0   20    3     -5.73      0.00
    0   20    4     -6.10      0.00
    0   20    5      5.61      0.00
    0   20    7     -2.19      0.00
    0   20    8     -4.16      0.00
    0   20    9      1.87      0.00
    0   20   10     -3.85      0.00
    0   20   11      8.53      0.00
    0   20   12     -6.59      0.00
    0   20   13     -9.46      0.00
    0   20   14      3.57      0.00
    1   20   14     -4.44      0.00
    1   20   13      7.25      0.00
    1   20   12      4.11      0.00
    1   20   11     -9.57      0.00
    1   20   10     -2.61      0.00
    1   20    9     -0.33      0.00
    1   20    8    -21.95      0.00
    1   20    6      4.59      0.00
    1   20    5     -8.22      0.00
    1   20    4     -2.49      0.00
    1   20    3     -0.67      0.00
    1   20    2     -1.35      0.00
    1   20    1     -5.32      0.00
    1   20    0      0.78      0.00
    1   20    7      2.57      0.00
    2   20   14     -8.81      0.00
    2   20   13     -7.08      0.00
    2   20   12     19.27      0.00
    2   20   11      2.89      0.00
    2   20   10     19.49      0.00
    2   20    9      2.54      0.00
    2   20    7      2.53      0.00
    2   20    6     -6.79      0.00
    2   20    5      1.06      0.00
    2   20    4     -0.24      0.00
    2   20    2     -1.62      0.00
    2   20    1     -0.71      0.00
    2   20    0     13.24      0.00
    2   20    3    -10.62      0.00
    2   20    8     -0.52      0.00
    3   20   14     -1.00      0.00
    3   20   13      2.79      0.00
    3   20   12     -3.78      0.00
    3   20   11      7.31      0.00
    3   20   10    -10.85      0.00
    3   20    9     -2.62      0.00
    3   20    8      1.80      0.00
    3   20    7     -3.47      0.00
    3   20    6     -2.11      0.00
    3   20    2      3.81      0.00
    3   20    1      2.30      0.00
    3   20    0      5.22      0.00
    3   20    3     -5.48      0.00
    3   20    4     -9.68      0.00
    3   20    5      4.96      0.00
    4   20   14     11.54      0.00
    4   20   13      7.45      0.00
    4   20   12      3.07      0.00
    4   20   11      0.57      0.00
    4   20   10      5.47      0.00
    4   20    9      8.81      0.00
    4   20    7      3.17      0.00
    4   20    2     -3.56      0.00
    4   20    1      2.11      0.00
    4   20    0     -0.71      0.00
    4   20    3      1.45      0.00
    4   20    4     -3.14      0.00
    4   20    5     -7.46      0.00
    4   20    6     -0.80      0.00
    4   20    8    -14.49      0.00
    5   20   14     -2.91      0.00
    5   20   13     -1.02      0.00
    5   20   11     -7.00      0.00
    5   20   10     -0.24      0.00
    5   20    9      4.99      0.00
    5   20    8      0.19      0.00
    5   20    2      0.28      0.00
    5   20    1      3.77      0.00
    5   20    0     -3.99      0.00
    5   20    3     -2.18      0.00
    5   20    4      4.87      0.00
    5   20    5      1.11      0.00
    5   20    6      0.03      0.00
    5   20    7     -1.63      0.00
    5   20   12      4.52      0.00
    6   20   14     12.27      0.00
    6   20   13      0.42      0.00
    6   20   11     -5.54      0.00
    6   20   10      6.06      0.00
    6   20    8      2.45      0.00
    6   20    3     -1.95      0.00
    6   20    2     -5.38      0.00
    6   20    1     -8.38      0.00
    6   20    0     -5.23      0.00
    6   20    4     -5.93      0.00
    6   20    5    -15.82      0.00
    6   20    6     -1.39      0.00
    6   20    7     -5.26      0.00
    6   20    9     -4.57      0.00
    6   20   12     -4.41      0.00
    7   20   13      0.20      0.00
    7   20   11      6.76      0.00
    7   20   10      2.82      0.00
    7   20    9      1.42      0.00
    7   20    3      5.00      0.00
    7   20    2     18.00      0.00
    7   20    1      0.08      0.00
    7   20    0     18.49      0.00
    7   20    4      7.18      0.00
    7   20    5      5.37      0.00
    7   20    6      8.14      0.00
    7   20    7     -1.74      0.00
    7   20    8      5.12      0.00
    7   20   12      6.68      0.00
    8   20   13      0.40      0.00
    8   20   12      2.23      0.00
    8   20   11     -6.49      0.00
    8   20   10     -7.76      0.00
    8   20    9      6.07      0.00
    8   20    3     -0.88      0.00
    8   20    2    -10.31      0.00
    8   20    1     -6.14      0.00
    8   20    0     -4.99      0.00
    8   20    4     -0.42      0.00
    8   20    5     -1.00      0.00
    8   20    6      0.29      0.00
    8   20    7      3.89      0.00
    8   20    8     -3.38      0.00
    9   20   12     -4.78      0.00
    9   20   10      4.46      0.00
    9   20    9     -5.05      0.00
    9   20    2     -2.56      0.00
    9   20    1      6.25      0.00
    9   20    0     -2.87      0.00
    9   20    3      4.76      0.00
    9   20    4      7.90      0.00
    9   20    5      0.41      0.00
    9   20    6      3.68      0.00
    9   20    7      3.50      0.00
    9   20    8     -2.81      0.00
    9   20   11      4.22      0.00
    9   20   13     11.51      0.00
   10   20   10     -4.20      0.00
   10   20    9      4.09      0.00
   10   20    2      1.15      0.00
   10   20    1      3.30      0.00
   10   20    0     19.02      0.00
   10   20    3      4.25      0.00
   10   20    4      0.68      0.00
   10   20    5      3.68      0.00
   10   20    6      5.12      0.00
   10   20    7     -0.86      0.00
   10   20    8      4.27      0.00
   10   20   11      3.18      0.00
   10   20   12      6.72      0.00
   11   20   10     -4.48      0.00
   11   20    9    -10.84      0.00
   11   20    2     -1.07      0.00
   11   20    1    -13.26      0.00
   11   20    0     -4.38      0.00
   11   20    3     -1.36      0.00
   11   20    4      1.37      0.00
   11   20    5     -1.88      0.00
   11   20    6     -0.08      0.00
   11   20    7     -0.97      0.00
   11   20    8     -4.49      0.00
   11   20   11      3.70      0.00
   12   20    9      0.78      0.00
   12   20    1      5.07      0.00
   12   20    0      7.53      0.00
   12   20    2      4.93      0.00
   12   20    3      4.52      0.00
   12   20    4     -1.32      0.00
   12   20    5     -0.83      0.00
   12   20    6     -1.08      0.00
   12   20    7     -0.03      0.00
   12   20    8      6.85      0.00
   12   20   10     -3.67      0.00
   12   20   11      3.46      0.00
   13   20    9      1.01      0.00
   13   20    0     -4.62      0.00
   13   20    1      2.42      0.00
   13   20    2      2.00      0.00
   13   20    3     -0.52      0.00
   13   20    4      4.53      0.00
   13   20    5      4.13      0.00
   13   20    6     -0.66      0.00
   13   20    7      1.15      0.00
   13   20    8     -1.92      0.00
   13   20   10      0.17      0.00
   14   20    1      3.37      0.00
   14   20    0      2.65      0.00
   14   20    2     -1.87      0.00
   14   20    3      3.30      0.00
   14   20    4     -2.92      0.00
   14   20    5     -1.85      0.00
   14   20    6      0.00      0.00
   14   20    7     -1.92      0.00
   14   20    8      1.02      0.00
   14   20    9     -1.57      0.00
   15   20    0      1.64      0.00
   15   20    1     -2.36      0.00
   15   20    2     -3.07      0.00
   15   20    3      3.96      0.00
   15   20    4     -2.79      0.00
   15   20    5     -6.34      0.00
   15   20    6      1.27      0.00
   15   20    7     -6.94      0.00
   15   20    8     -3.22      0.00
   16   20    0      4.59      0.00
   16   20    1      0.60      0.00
   16   20    2      3.10      0.00
   16   20    3     -6.67      0.00
   16   20    4      1.87      0.00
   16   20    5      2.59      0.00
   16   20    6      1.24      0.00
   16   20    7      3.56      0.00
   17   20    1     10.61      0.00
   17   20    2      0.90      0.00
   17   20    3     -0.11      0.00
   17   20    4     -7.23      0.00
   17   20    5      0.49      0.00
    0   21    0      2.26      0.00
    0   21    1     -2.03      0.00
    0   21    2     -0.14      0.00
    0   21    3      7.82      0.00
    0   21    4      4.63      0.00
    0   21    5      8.24      0.00
    0   21    6      2.55      0.00
    0   21    7      2.05      0.00
    0   21    8     -4.83      0.00
    0   21    9     -2.01      0.00
    0   21   10     -3.36      0.00
    0   21   11     -3.00      0.00
    0   21   12    -13.14      0.00
    0   21   13      9.84      0.00
    1   21   13     -6.30      0.00
    1   21   12      4.60      0.00
    1   21   11     -1.35      0.00
    1   21   10     -5.82      0.00
    1   21    9      2.55      0.00
    1   21    8     -8.85      0.00
    1   21    7     -1.16      0.00
    1   21    5      7.21      0.00
    1   21    4    -23.60      0.00
    1   21    2     -2.14      0.00
    1   21    1      0.50      0.00
    1   21    0     -3.85      0.00
    1   21    3    -15.40      0.00
    1   21    6    -18.06      0.00
    2   21   13      4.77      0.00
    2   21   12     -0.03      0.00
    2   21   11    -13.98      0.00
    2   21   10     -3.64      0.00
    2   21    9     -7.58      0.00
    2   21    8    -12.58      0.00
    2   21    6     -3.85      0.00
    2   21    4     -5.47      0.00
    2   21    3     16.57      0.00
    2   21    2     -5.12      0.00
    2   21    1     -9.84      0.00
    2   21    0      1.48      0.00
    2   21    5     15.60      0.00
    2   21    7      9.00      0.00
    3   21   13      3.94      0.00
    3   21   12      6.07      0.00
    3   21   11      0.49      0.00
    3   21   10      0.87      0.00
    3   21    9     -4.93      0.00
    3   21    7     -3.16      0.00
    3   21    5     -0.95      0.00
    3   21    4     -5.25      0.00
    3   21    2      6.29      0.00
    3   21    1      2.14      0.00
    3   21    0     -9.34      0.00
    3   21    3    -10.44      0.00
    3   21    6     -5.76      0.00
    3   21    8      1.99      0.00
    4   21   13     -3.03      0.00
    4   21   12     -1.99      0.00
    4   21   11     -0.50      0.00
    4   21   10      1.20      0.00
    4   21    9      3.22      0.00
    4   21    8      3.44      0.00
    4   21    6      9.86      0.00
    4   21    5      7.27      0.00
    4   21    2      1.72      0.00
    4   21    1     -2.04      0.00
    4   21    0     -2.21      0.00
    4   21    3      1.12      0.00
    4   21    4      7.76      0.00
    4   21    7     -8.36      0.00
    5   21   13      7.86      0.00
    5   21   11     -0.36      0.00
    5   21   10     -0.47      0.00
    5   21    8      1.55      0.00
    5   21    7      6.78      0.00
    5   21    6     -9.75      0.00
    5   21    2      3.82      0.00
    5   21    1      4.77      0.00
    5   21    0      9.58      0.00
    5   21    3      8.09      0.00
    5   21    4     -3.87      0.00
    5   21    5     12.06      0.00
    5   21    9      2.52      0.00
    5   21   12     -5.12      0.00
    6   21   13     -7.32      0.00
    6   21   11      2.83      0.00
    6   21   10     -2.75      0.00
    6   21    9      0.03      0.00
    6   21    7      4.77      0.00
    6   21    2     -3.56      0.00
    6   21    1      6.26      0.00
    6   21    0    -18.88      0.00
    6   21    3     10.55      0.00
    6   21    4     -2.93      0.00
    6   21    5      4.48      0.00
    6   21    6     -6.78      0.00
    6   21    8     -8.23      0.00
    6   21   12      8.13      0.00
    7   21   12     -3.55      0.00
    7   21   11    -12.42      0.00
    7   21   10     -2.26      0.00
    7   21    9     -2.72      0.00
    7   21    8      4.09      0.00
    7   21    2     -2.34      0.00
    7   21    1    -12.81      0.00
    7   21    0     -5.99      0.00
    7   21    3      0.73      0.00
    7   21    4      6.93      0.00
    7   21    5    -14.78      0.00
    7   21    6      0.56      0.00
    7   21    7    -13.66      0.00
    8   21   12     -1.05      0.00
    8   21    9     -1.89      0.00
    8   21    8      5.64      0.00
    8   21    2      6.78      0.00
    8   21    1      1.21      0.00
    8   21    0      3.72      0.00
    8   21    3     -4.78      0.00
    8   21    4      8.41      0.00
    8   21    5     -1.28      0.00
    8   21    6      6.82      0.00
    8   21    7     -4.66      0.00
    8   21   10      8.91      0.00
    8   21   11     -1.24      0.00
    9   21    9     -1.53      0.00
    9   21    8      1.41      0.00
    9   21    2     -7.84      0.00
    9   21    1     -5.31      0.00
    9   21    0      8.08      0.00
    9   21    3     -1.88      0.00
    9   21    4      4.01      0.00
    9   21    5     -2.76      0.00
    9   21    6      1.10      0.00
    9   21    7     -0.21      0.00
    9   21   10     -1.85      0.00
    9   21   11      0.28      0.00
   10   21    8     -2.57      0.00
   10   21    2      0.31      0.00
   10   21    1     -4.51      0.00
   10   21    0      4.24      0.00
   10   21    3     -5.88      0.00
   10   21    4     -1.81      0.00
   10   21    5      0.45      0.00
   10   21    6     -1.07      0.00
   10   21    7      0.84      0.00
   10   21    9     -5.08      0.00
   10   21   10     -4.07      0.00
   10   21   11     -6.20      0.00
   11   21    9     -1.55      0.00
   11   21    1     -0.57      0.00
   11   21    0    -18.07      0.00
   11   21    2    -11.42      0.00
   11   21    3      0.84      0.00
   11   21    4     -5.58      0.00
   11   21    5     -5.72      0.00
   11   21    6      0.38      0.00
   11   21    7     -0.27      0.00
   11   21    8      2.59      0.00
   11   21   10      2.41      0.00
   12   21    1      7.80      0.00
   12   21    0      6.32      0.00
   12   21    2     -5.47      0.00
   12   21    3     -2.23      0.00
   12   21    4     -4.51      0.00
   12   21    5      0.02      0.00
   12   21    6     -0.49      0.00
   12   21    7      1.23      0.00
   12   21    8     -1.63      0.00
   12   21    9     -3.89      0.00
   12   21   10     -1.66      0.00
   13   21    1     -5.53      0.00
   13   21    0      4.25      0.00
   13   21    2      3.90      0.00
   13   21    3    -12.14      0.00
   13   21    4     -1.48      0.00
   13   21    5     -1.34      0.00
   13   21    6     -1.31      0.00
   13   21    7     -4.30      0.00
   13   21    8     -1.03      0.00
   13   21    9      2.83      0.00
   14   21    0      2.74      0.00
   14   21    1      2.15      0.00
   14   21    2     -0.62      0.00
   14   21    3      6.68      0.00
   14   21    4      2.26      0.00
   14   21    5      0.55      0.00
   14   21    6      4.75      0.00
   14   21    7     -1.89      0.00
   14   21    8      5.62      0.00
   15   21    0     -7.95      0.00
   15   21    1      3.06      0.00
   15   21    2     -0.98      0.00
   15   21    3      5.94      0.00
   15   21    4     -5.28      0.00
   15   21    5     -8.81      0.00
   15   21    6      1.56      0.00
   15   21    7     -7.42      0.00
   16   21    1      6.59      0.00
   16   21    2     -2.04      0.00
   16   21    3      0.39      0.00
   16   21    4      6.89      0.00
   16   21    5      9.76      0.00
    0   22    0     -7.93      0.00
    0   22    1     -5.85      0.00
    0   22    2      0.29      0.00
    0   22    3      6.36      0.00
    0   22    4    -16.41      0.00
    0   22    5      6.17      0.00
    0   22    6    -18.75      0.00
    0   22    7      4.11      0.00
    0   22    8     -1.89      0.00
    0   22    9    -10.54      0.00
    0   22   10     -1.46      0.00
    0   22   11     -8.85      0.00
    0   22   12     -9.49      0.00
    1   22   12      1.13      0.00
    1   22   11     -8.94      0.00
    1   22   10      9.05      0.00
    1   22    9      6.45      0.00
    1   22    8     -1.57      0.00
    1   22    7      4.58      0.00
    1   22    6     -2.12      0.00
    1   22    5     13.48      0.00
    1   22    3      8.49      0.00
    1   22    2     -8.02      0.00
    1   22    1     -5.22      0.00
    1   22    0     14.04      0.00
    1   22    4      8.27      0.00
    2   22   12    -13.10      0.00
    2   22   11     -7.94      0.00
    2   22   10     -8.07      0.00
    2   22    9    -10.71      0.00
    2   22    8     -3.61      0.00
    2   22    7     -3.59      0.00
    2   22    6    -17.41      0.00
    2   22    5     -9.78      0.00
    2   22    4    -16.12      0.00
    2   22    2     -5.68      0.00
    2   22    1     -8.44      0.00
    2   22    0     -5.53      0.00
    2   22    3    -14.30      0.00
    3   22   12     -7.67      0.00
    3   22   11     -0.43      0.00
    3   22   10     12.04      0.00
    3   22    9      1.25      0.00
    3   22    8     -0.46      0.00
    3   22    7      6.22      0.00
    3   22    6      1.27      0.00
    3   22    5     20.89      0.00
    3   22    4     -3.02      0.00
    3   22    3      8.86      0.00
    3   22    2     -6.12      0.00
    3   22    1      2.73      0.00
    3   22    0      7.69      0.00
    4   22   12      6.61      0.00
    4   22   11    -15.41      0.00
    4   22   10      2.11      0.00
    4   22    9     -6.24      0.00
    4   22    8      5.00      0.00
    4   22    7      1.73      0.00
    4   22    6     -2.64      0.00
    4   22    5     10.64      0.00
    4   22    4     -5.92      0.00
    4   22    3      4.53      0.00
    4   22    1      8.52      0.00
    4   22    0      4.05      0.00
    4   22    2      7.83      0.00
    5   22   12      0.00      0.00
    5   22   11     -9.79      0.00
    5   22   10     11.70      0.00
    5   22    9     -4.95      0.00
    5   22    7     -0.69      0.00
    5   22    6     -0.23      0.00
    5   22    5     -7.10      0.00
    5   22    4      8.76      0.00
    5   22    1     -4.74      0.00
    5   22    0     -2.55      0.00
    5   22    2      2.99      0.00
    5   22    3     -0.91      0.00
    5   22    8      5.45      0.00
    6   22   10     -0.24      0.00
    6   22    9      5.72      0.00
    6   22    8      3.49      0.00
    6   22    6      7.74      0.00
    6   22    5      0.34      0.00
    6   22    1      5.32      0.00
    6   22    0      7.84      0.00
    6   22    2      2.02      0.00
    6   22    3      3.02      0.00
    6   22    4      5.66      0.00
    6   22    7    -11.22      0.00
    6   22   11      4.25      0.00
    7   22   10     -5.08      0.00
    7   22    9     -2.01      0.00
    7   22    8     -6.31      0.00
    7   22    7      6.64      0.00
    7   22    6    -10.39      0.00
    7   22    1     -5.76      0.00
    7   22    0    -13.55      0.00
    7   22    2     -3.19      0.00
    7   22    3      7.59      0.00
    7   22    4    -10.80      0.00
    7   22    5     -2.23      0.00
    7   22   11     -8.04      0.00
    8   22   10      9.34      0.00
    8   22    8     -1.25      0.00
    8   22    7     -0.41      0.00
    8   22    1      2.63      0.00
    8   22    0      3.52      0.00
    8   22    2      5.44      0.00
    8   22    3      0.91      0.00
    8   22    4      6.19      0.00
    8   22    5     -1.82      0.00
    8   22    6      1.79      0.00
    8   22    9     -0.11      0.00
    9   22    8      3.99      0.00
    9   22    7     -6.15      0.00
    9   22    1      3.38      0.00
    9   22    0     -1.68      0.00
    9   22    2     -4.16      0.00
    9   22    3      0.50      0.00
    9   22    4      3.11      0.00
    9   22    5     -2.56      0.00
    9   22    6     -3.52      0.00
    9   22    9     -0.30      0.00
    9   22   10     -0.18      0.00
   10   22    7     -2.74      0.00
   10   22    1    -12.92      0.00
   10   22    0    -10.53      0.00
   10   22    2     -6.60      0.00
   10   22    3     -0.19      0.00
   10   22    4      1.32      0.00
   10   22    5     -2.73      0.00
   10   22    6      4.06      0.00
   10   22    8     -1.57      0.00
   10   22    9     -2.02      0.00
   10   22   10     -0.15      0.00
   11   22    7     -1.27      0.00
   11   22    1      3.73      0.00
   11   22    0      5.91      0.00
   11   22    2      2.97      0.00
   11   22    3      1.29      0.00
   11   22    4     -1.16      0.00
   11   22    5     -1.48      0.00
   11   22    6     -2.33      0.00
   11   22    8      1.23      0.00
   11   22    9      2.67      0.00
   12   22    7     -3.92      0.00
   12   22    1     -6.84      0.00
   12   22    0     -9.89      0.00
   12   22    2     -6.00      0.00
   12   22    3      1.55      0.00
   12   22    4      1.04      0.00
   12   22    5      1.07      0.00
   12   22    6      0.88      0.00
   12   22    8     -0.38      0.00
   13   22    0      2.87      0.00
   13   22    1      4.05      0.00
   13   22    2     -2.50      0.00
   13   22    3      1.17      0.00
   13   22    4     -2.21      0.00
   13   22    5     -1.94      0.00
   13   22    6     -2.71      0.00
   13   22    7      1.63      0.00
   14   22    0      1.16      0.00
   14   22    1      1.04      0.00
   14   22    2      2.28      0.00
   14   22    3      2.11      0.00
   14   22    4      2.03      0.00
   14   22    5      4.20      0.00
   14   22    6     -0.36      0.00
   15   22    2     -0.29      0.00
   15   22    3     21.95      0.00
   15   22    4      1.95      0.00
    0   23    0      8.15      0.00
    0   23    1      0.56      0.00
    0   23    2     -8.11      0.00
    0   23    3     -4.73      0.00
    0   23    4     -5.51      0.00
    0   23    5      7.68      0.00
    0   23    6     -9.03      0.00
    0   23    7      1.20      0.00
    0   23    8     -7.58      0.00
    0   23    9      3.34      0.00
    0   23   10     -8.53      0.00
    1   23   10      2.97      0.00
    1   23    9     -5.28      0.00
    1   23    8     -6.03      0.00
    1   23    7      4.32      0.00
    1   23    6     -3.35      0.00
    1   23    5     -0.71      0.00
    1   23    4     -0.60      0.00
    1   23    3      2.71      0.00
    1   23    2    -10.01      0.00
    1   23    1     -3.24      0.00
    1   23    0      5.97      0.00
    1   23   11     -8.04      0.00
    2   23   10     17.23      0.00
    2   23    9     -6.11      0.00
    2   23    8      4.95      0.00
    2   23    7     -1.79      0.00
    2   23    6      4.07      0.00
    2   23    5     -2.91      0.00
    2   23    4      2.02      0.00
    2   23    2     -2.16      0.00
    2   23    1     -9.98      0.00
    2   23    0     12.31      0.00
    2   23    3     -6.00      0.00
    2   23   11    -13.28      0.00
    3   23   10     -1.30      0.00
    3   23    9    -13.44      0.00
    3   23    8      3.97      0.00
    3   23    7     -8.51      0.00
    3   23    6     -3.45      0.00
    3   23    4     -1.35      0.00
    3   23    3     -0.64      0.00
    3   23    2      0.32      0.00
    3   23    1     -9.53      0.00
    3   23    0     -4.68      0.00
    3   23    5     -3.77      0.00
    4   23   10     10.10      0.00
    4   23    9     12.77      0.00
    4   23    8     -3.05      0.00
    4   23    7      1.11      0.00
    4   23    5     -0.84      0.00
    4   23    4     -0.97      0.00
    4   23    2      0.67      0.00
    4   23    1      2.33      0.00
    4   23    0      7.71      0.00
    4   23    3     -3.71      0.00
    4   23    6     -0.88      0.00
    5   23   10     -2.52      0.00
    5   23    9     -1.71      0.00
    5   23    8     -5.13      0.00
    5   23    7     -0.88      0.00
    5   23    6     -0.60      0.00
    5   23    5      4.76      0.00
    5   23    4     -8.85      0.00
    5   23    3     -1.38      0.00
    5   23    2     -4.18      0.00
    5   23    1      5.47      0.00
    5   23    0     -2.99      0.00
    6   23    9     -0.96      0.00
    6   23    8      7.91      0.00
    6   23    7      4.91      0.00
    6   23    6     -0.44      0.00
    6   23    5     -9.70      0.00
    6   23    4     -2.92      0.00
    6   23    3      5.07      0.00
    6   23    2     -3.06      0.00
    6   23    1      0.33      0.00
    6   23    0      3.32      0.00
    6   23   10      6.02      0.00
    7   23    9      0.80      0.00
    7   23    8     -1.12      0.00
    7   23    7     -8.43      0.00
    7   23    5     -9.70      0.00
    7   23    4     -4.88      0.00
    7   23    0      0.72      0.00
    7   23    1     -6.93      0.00
    7   23    2      2.66      0.00
    7   23    3     -6.71      0.00
    7   23    6     13.26      0.00
    7   23   10      3.60      0.00
    8   23    7      0.14      0.00
    8   23    6     -1.72      0.00
    8   23    5      1.22      0.00
    8   23    0      5.66      0.00
    8   23    1      4.32      0.00
    8   23    2      5.98      0.00
    8   23    3     -8.27      0.00
    8   23    4      0.41      0.00
    8   23    8     -0.59      0.00
    8   23    9     -0.31      0.00
    9   23    7      5.08      0.00
    9   23    6     12.95      0.00
    9   23    5      4.35      0.00
    9   23    0      3.16      0.00
    9   23    1      2.22      0.00
    9   23    2     -7.46      0.00
    9   23    3      3.73      0.00
    9   23    4     -4.06      0.00
    9   23    8     -0.75      0.00
    9   23    9      3.56      0.00
   10   23    7      1.37      0.00
   10   23    6      0.25      0.00
   10   23    5     -4.00      0.00
   10   23    0      1.19      0.00
   10   23    1     -2.98      0.00
   10   23    2     -4.37      0.00
   10   23    3      3.74      0.00
   10   23    4     -0.49      0.00
   10   23    8     -2.12      0.00
   11   23    6     -2.86      0.00
   11   23    0      4.50      0.00
   11   23    1      0.89      0.00
   11   23    2      5.34      0.00
   11   23    3      3.20      0.00
   11   23    4     -2.37      0.00
   11   23    5      3.81      0.00
   11   23    7      2.73      0.00
   12   23    0     -4.96      0.00
   12   23    1     -7.76      0.00
   12   23    2     -0.61      0.00
   12   23    3      0.02      0.00
   12   23    4     -4.54      0.00
   12   23    5     -0.93      0.00
   12   23    6     -1.00      0.00
   13   23    1      6.32      0.00
   13   23    2     -2.01      0.00
   13   23    3      5.78      0.00
   13   23    4     -0.62      0.00
   13   23    5      8.18      0.00
    0   24    0      2.08      0.00
    0   24    1     -6.40      0.00
    0   24    2      1.34      0.00
    0   24    3     -9.39      0.00
    0   24    4      0.77      0.00
    0   24    5     -0.72      0.00
    0   24    6      8.56      0.00
    0   24    7     -7.76      0.00
    0   24    8     -4.54      0.00
    0   24    9      1.75      0.00
    1   24    9     -6.05      0.00
    1   24    8      0.36      0.00
    1   24    7     -0.64      0.00
    1   24    6      4.15      0.00
    1   24    5     -5.28      0.00
    1   24    4      0.95      0.00
    1   24    3      1.27      0.00
    1   24    2      5.26      0.00
    1   24    1     -1.73      0.00
    1   24    0      1.94      0.00
    2   24    9      3.71      0.00
    2   24    8      3.65      0.00
    2   24    7     11.43      0.00
    2   24    6      0.81      0.00
    2   24    5      7.28      0.00
    2   24    4      2.11      0.00
    2   24    3     -0.97      0.00
    2   24    2     -2.63      0.00
    2   24    1     -0.33      0.00
    2   24    0     -4.01      0.00
    3   24    9     -1.69      0.00
    3   24    8     -1.74      0.00
    3   24    7     -3.87      0.00
    3   24    6     13.69      0.00
    3   24    5     -5.68      0.00
    3   24    4     -3.89      0.00
    3   24    3     -6.98      0.00
    3   24    1      1.35      0.00
    3   24    0      3.05      0.00
    3   24    2      7.04      0.00
    4   24    9      1.49      0.00
    4   24    8      6.52      0.00
    4   24    7     -6.71      0.00
    4   24    6      1.29      0.00
    4   24    5     -0.60      0.00
    4   24    3      0.86      0.00
    4   24    2      2.13      0.00
    4   24    1     -3.66      0.00
    4   24    0     -7.66      0.00
    4   24    4      3.09      0.00
    5   24    8      6.84      0.00
    5   24    7      0.77      0.00
    5   24    6     -0.12      0.00
    5   24    4      0.94      0.00
    5   24    3     -2.58      0.00
    5   24    2      5.53      0.00
    5   24    1     -4.16      0.00
    5   24    0      4.93      0.00
    5   24    5     -2.86      0.00
    5   24    9     -2.55      0.00
    6   24    8     -1.39      0.00
    6   24    7     -1.83      0.00
    6   24    6     -2.68      0.00
    6   24    5     -0.32      0.00
    6   24    4     -2.30      0.00
    6   24    3      5.10      0.00
    6   24    0     -6.08      0.00
    6   24    1     -3.94      0.00
    6   24    2     -2.88      0.00
    6   24    9      5.55      0.00
    7   24    7      2.41      0.00
    7   24    5    -13.10      0.00
    7   24    3      3.08      0.00
    7   24    2      1.36      0.00
    7   24    1      1.70      0.00
    7   24    0      5.58      0.00
    7   24    4      5.39      0.00
    7   24    6      7.97      0.00
    7   24    8     -4.40      0.00
    8   24    7      6.06      0.00
    8   24    6      4.58      0.00
    8   24    5      1.30      0.00
    8   24    3      0.89      0.00
    8   24    2      2.91      0.00
    8   24    1      2.70      0.00
    8   24    0      0.26      0.00
    8   24    4     -1.31      0.00
    8   24    8      7.47      0.00
    9   24    6     -3.57      0.00
    9   24    5     -7.22      0.00
    9   24    4      0.99      0.00
    9   24    3      1.37      0.00
    9   24    2      1.95      0.00
    9   24    1     -2.45      0.00
    9   24    0     12.81      0.00
    9   24    7     -1.04      0.00
   10   24    4     -4.48      0.00
   10   24    3      3.48      0.00
   10   24    2      7.89      0.00
   10   24    1      2.00      0.00
   10   24    5      5.95      0.00
   10   24    6      1.57      0.00
   11   24    4      5.83      0.00
   11   24    3      1.37      0.00
   11   24    2      0.26      0.00
   11   24    5     -4.30      0.00
    0   25    0     -1.93      0.00
    0   25    1      2.16      0.00
    0   25    2     -0.21      0.00
    0   25    3     -3.58      0.00
    0   25    4      1.10      0.00
    0   25    5      5.28      0.00
    0   25    6      6.08      0.00
    0   25    7      2.80      0.00
    0   25    8      1.83      0.00
    1   25    8     -2.29      0.00
    1   25    7     -3.60      0.00
    1   25    6      1.76      0.00
    1   25    5     -6.17      0.00
    1   25    4     -2.91      0.00
    1   25    3     -4.94      0.00
    1   25    2     -3.16      0.00
    1   25    1      0.08      0.00
    1   25    0     -2.48      0.00
    2   25    8      2.69      0.00
    2   25    7     -4.53      0.00
    2   25    6      9.74      0.00
    2   25    5     -0.03      0.00
    2   25    4      6.80      0.00
    2   25    3      2.10      0.00
    2   25    2      6.69      0.00
    2   25    1      0.88      0.00
    2   25    0      3.76      0.00
    3   25    7      8.26      0.00
    3   25    6     -2.06      0.00
    3   25    5      4.96      0.00
    3   25    4     -3.75      0.00
    3   25    3     -0.74      0.00
    3   25    2      1.34      0.00
    3   25    1     -0.69      0.00
    3   25    0     -7.47      0.00
    3   25    8      0.84      0.00
    4   25    7     -1.91      0.00
    4   25    6     -0.11      0.00
    4   25    5      1.36      0.00
    4   25    4     -4.80      0.00
    4   25    3      4.04      0.00
    4   25    2      3.88      0.00
    4   25    1      0.42      0.00
    4   25    0     -4.64      0.00
    5   25    7     -5.33      0.00
    5   25    6      7.83      0.00
    5   25    5     -3.23      0.00
    5   25    4      4.34      0.00
    5   25    3     -0.20      0.00
    5   25    2      4.75      0.00
    5   25    1      2.07      0.00
    5   25    0      1.41      0.00
    6   25    6      8.24      0.00
    6   25    5    -17.45      0.00
    6   25    4      4.29      0.00
    6   25    1     -6.13      0.00
    6   25    2      1.40      0.00
    6   25    3      0.73      0.00
    6   25    7     -7.66      0.00
    7   25    5     -0.55      0.00
    7   25    3      8.15      0.00
    7   25    2      6.97      0.00
    7   25    1      2.48      0.00
    7   25    0      4.36      0.00
    7   25    4    -10.39      0.00
    7   25    6     -8.64      0.00
    8   25    5     -1.67      0.00
    8   25    3      2.50      0.00
    8   25    2      0.89      0.00
    8   25    1     -4.24      0.00
    8   25    0    -13.52      0.00
    8   25    4     -4.86      0.00
    9   25    3      9.70      0.00
    9   25    2      6.80      0.00
    9   25    1     11.58      0.00
    0   26    0      0.71      0.00
    0   26    1     11.97      0.00
    0   26    2      0.22      0.00
    0   26    3      8.94      0.00
    0   26    4     -2.86      0.00
    0   26    5      3.01      0.00
    0   26    6      0.29      0.00
    1   26    6     -6.74      0.00
    1   26    5      2.94      0.00
    1   26    4     -1.89      0.00
    1   26    3     -6.34      0.00
    1   26    2     -9.54      0.00
    1   26    1      1.05      0.00
    1   26    0     -5.98      0.00
    2   26    5    -11.03      0.00
    2   26    4     -3.06      0.00
    2   26    3     -6.72      0.00
    2   26    2     -1.19      0.00
    2   26    1      2.59      0.00
    2   26    0     -1.92      0.00
    3   26    5      1.99      0.00
    3   26    4      1.16      0.00
    3   26    3      1.06      0.00
    3   26    2      9.87      0.00
    3   26    1     -0.02      0.00
    3   26    0     -5.03      0.00
    4   26    4     -2.69      0.00
    4   26    3      0.34      0.00
    4   26    2     -2.02      0.00
    4   26    1      9.48      0.00
    4   26    0      3.77      0.00
    4   26    5      1.84      0.00
    5   26    4     -9.18      0.00
    5   26    3      8.60      0.00
    5   26    2      5.02      0.00
    5   26    1      3.46      0.00
    0    1    0    -66.61      0.00
    1    1    0    216.69      0.00
    2    2    0   -166.72      0.00
   18   19    0      3.89      0.00
   19   19    0      1.35      0.00
   17   20    0      2.39      0.00
   18   20    0     -4.15      0.00
   19   20    0      4.14      0.00
   20   20    0      7.05      0.00
   16   21    0     -0.95      0.00
   17   21    0      8.42      0.00
   18   21    0      3.65      0.00
   19   21    0      1.58      0.00
   20   21    0     -4.78      0.00
   21   21    0     12.86      0.00
   15   22    0      4.37      0.00
   16   22    0      5.24      0.00
   17   22    0     -1.48      0.00
   18   22    0      8.54      0.00
   19   22    0      1.31      0.00
   20   22    0      6.86      0.00
   13   23    0      4.16      0.00
   14   23    0     -1.43      0.00
   15   23    0      4.90      0.00
   16   23    0      1.11      0.00
   17   23    0      1.94      0.00
   18   23    0     -2.73      0.00
   19   23    0      2.15      0.00
   10   24    0     15.11      0.00
   11   24    0    -11.21      0.00
   12   24    0     11.63      0.00
   13   24    0      6.75      0.00
   14   24    0     -3.32      0.00
   15   24    0     -4.71      0.00
   16   24    0      4.45      0.00
   17   24    0     -1.30      0.00
   18   24    0     -7.56      0.00
    6   25    0      1.71      0.00
    9   25    0      7.32      0.00
   10   25    0      5.86      0.00
   11   25    0     -1.91      0.00
   12   25    0      6.08      0.00
   13   25    0     -1.22      0.00
   14   25    0      4.21      0.00
   15   25    0     -2.66      0.00
   16   25    0     -5.74      0.00
    5   26    0     -7.17      0.00
    6   26    0     -4.33      0.00
    7   26    0     -6.96      0.00
    8   26    0     11.36      0.00
    9   26    0     -2.26      0.00
   10   26    0    -10.91      0.00
   11   26    0      0.03      0.00
   12   26    0     -0.50      0.00
   13   26    0      1.89      0.00
   14   26    0      0.69      0.00
    0    1    1     -7.01      0.00
   18   20    1     -4.37      0.00
   19   20    1      0.40      0.00
   17   21    1     -3.31      0.00
   18   21    1      8.83      0.00
   19   21    1      1.67      0.00
   20   21    1     -0.67      0.00
   15   22    1      0.98      0.00
   16   22    1      8.22      0.00
   17   22    1      9.56      0.00
   18   22    1     -0.54      0.00
   19   22    1      0.31      0.00
   20   22    1      3.26      0.00
   14   23    1     -4.05      0.00
   15   23    1     -2.81      0.00
   16   23    1     -0.12      0.00
   17   23    1     -0.35      0.00
   18   23    1      2.87      0.00
   19   23    1     -2.46      0.00
   11   24    1     -4.10      0.00
   12   24    1      5.97      0.00
   13   24    1     -5.19      0.00
   14   24    1     -5.53      0.00
   15   24    1     -2.75      0.00
   16   24    1     -2.84      0.00
   17   24    1     -2.31      0.00
   10   25    1     -6.39      0.00
   11   25    1     -8.54      0.00
   12   25    1      7.00      0.00
   13   25    1      0.09      0.00
   14   25    1     -1.28      0.00
   15   25    1     -0.07      0.00
   16   25    1      3.07      0.00
    6   26    1      3.07      0.00
    7   26    1     -3.61      0.00
    8   26    1      7.62      0.00
    9   26    1     -4.82      0.00
   10   26    1     -1.08      0.00
   11   26    1      3.36      0.00
   12   26    1     -4.79      0.00
   13   26    1      2.16      0.00
   14   26    1      2.51      0.00
    0    0    2     32.73      0.00
   19   19    2      3.71      0.00
   18   20    2     -4.43      0.00
   19   20    2      3.70      0.00
   20   20    2      4.69      0.00
   17   21    2      2.13      0.00
   18   21    2     -2.42      0.00
   19   21    2     -0.42      0.00
   20   21    2     -1.66      0.00
   21   21    2      1.08      0.00
   16   22    2      0.53      0.00
   17   22    2     -0.29      0.00
   18   22    2      4.87      0.00
   19   22    2     -5.51      0.00
   20   22    2      4.50      0.00
   14   23    2     -2.32      0.00
   15   23    2      5.71      0.00
   16   23    2      5.40      0.00
   17   23    2     -2.33      0.00
   18   23    2     -7.30      0.00
   19   23    2      5.51      0.00
   12   24    2     -4.53      0.00
   13   24    2      8.60      0.00
   14   24    2     -3.02      0.00
   15   24    2      0.65      0.00
   16   24    2      4.17      0.00
   17   24    2      2.12      0.00
   10   25    2      3.46      0.00
   11   25    2      6.25      0.00
   12   25    2     14.20      0.00
   13   25    2     -1.20      0.00
   14   25    2      2.79      0.00
   15   25    2      1.44      0.00
   16   25    2      2.76      0.00
    6   26    2     -4.86      0.00
    7   26    2     -1.24      0.00
    8   26    2      8.77      0.00
    9   26    2     -5.17      0.00
   10   26    2      3.46      0.00
   11   26    2      0.84      0.00
   12   26    2      1.22      0.00
   13   26    2      1.47      0.00
   14   26    2      3.16      0.00
    0    1    3     55.68      0.00
   18   20    3     -5.78      0.00
   19   20    3     -4.38      0.00
   17   21    3      2.55      0.00
   18   21    3      3.84      0.00
   19   21    3      2.59      0.00
   20   21    3     -2.27      0.00
   16   22    3      1.19      0.00
   17   22    3      6.73      0.00
   18   22    3      7.98      0.00
   19   22    3      0.71      0.00
   20   22    3      6.81      0.00
   14   23    3     10.85      0.00
   15   23    3      4.73      0.00
   16   23    3      5.67      0.00
   17   23    3      2.58      0.00
   18   23    3      7.04      0.00
   12   24    3      7.55      0.00
   13   24    3     -6.85      0.00
   14   24    3      7.53      0.00
   15   24    3      3.30      0.00
   16   24    3      0.13      0.00
   17   24    3     -0.74      0.00
   10   25    3      8.04      0.00
   11   25    3     -4.86      0.00
   12   25    3      1.80      0.00
   13   25    3      4.28      0.00
   14   25    3     -1.98      0.00
   15   25    3      8.33      0.00
   16   25    3     -4.26      0.00
    6   26    3     -1.95      0.00
    7   26    3      2.73      0.00
    8   26    3     -4.36      0.00
    9   26    3     -0.92      0.00
   10   26    3     -1.01      0.00
   11   26    3      2.05      0.00
   12   26    3     -0.39      0.00
   13   26    3      1.05      0.00
   14   26    3      2.18      0.00
    0    0    4    174.19      0.00
    0    1    4    -16.54      0.00
   19   19    4      4.61      0.00
   18   20    4     -1.77      0.00
   19   20    4     -2.94      0.00
   20   20    4      3.07      0.00
   17   21    4     -1.21      0.00
   18   21    4      0.14      0.00
   19   21    4      2.92      0.00
   20   21    4     -5.01      0.00
   16   22    4      0.56      0.00
   17   22    4      2.28      0.00
   18   22    4     -4.47      0.00
   19   22    4      3.38      0.00
   14   23    4     -5.90      0.00
   15   23    4      4.15      0.00
   16   23    4      1.02      0.00
   17   23    4     -3.08      0.00
   18   23    4     -4.97      0.00
   12   24    4    -10.30      0.00
   13   24    4      0.38      0.00
   14   24    4     -4.39      0.00
   15   24    4     -3.29      0.00
   16   24    4      8.23      0.00
   17   24    4     -5.46      0.00
    9   25    4      2.49      0.00
   10   25    4      2.42      0.00
   11   25    4     -7.48      0.00
   12   25    4      6.35      0.00
   13   25    4     -6.56      0.00
   14   25    4     -0.47      0.00
   15   25    4     -3.33      0.00
    6   26    4     -8.62      0.00
    7   26    4      2.77      0.00
    8   26    4     -7.97      0.00
    9   26    4     -5.18      0.00
   10   26    4     -4.21      0.00
   11   26    4      0.86      0.00
   12   26    4     -0.77      0.00
   13   26    4     -0.93      0.00
   14   26    4      1.82      0.00
    0    1    5      6.27      0.00
   18   20    5     -0.39      0.00
   19   20    5     -2.05      0.00
   17   21    5     -8.04      0.00
   18   21    5      0.09      0.00
   19   21    5      2.38      0.00
   20   21    5     -0.26      0.00
   15   22    5      1.56      0.00
   16   22    5     -5.21      0.00
   17   22    5      5.42      0.00
   18   22    5     -3.55      0.00
   19   22    5     -0.85      0.00
   14   23    5    -10.83      0.00
   15   23    5      2.63      0.00
   16   23    5      3.37      0.00
   17   23    5      0.46      0.00
   18   23    5     -0.37      0.00
   12   24    5     -4.11      0.00
   13   24    5      3.04      0.00
   14   24    5     -3.58      0.00
   15   24    5     -2.33      0.00
   16   24    5     -3.50      0.00
    9   25    5      2.44      0.00
   10   25    5    -15.54      0.00
   11   25    5     -2.47      0.00
   12   25    5      2.99      0.00
   13   25    5     -2.90      0.00
   14   25    5      0.79      0.00
   15   25    5     -3.48      0.00
    5   26    5      1.67      0.00
    6   26    5     -3.93      0.00
    7   26    5     -4.71      0.00
    8   26    5     -4.34      0.00
    9   26    5      0.02      0.00
   10   26    5      2.40      0.00
   11   26    5     -2.01      0.00
   12   26    5      1.42      0.00
   13   26    5     -0.11      0.00
    0    0    6    129.33      0.00
   19   19    6     -5.15      0.00
    0   20    6    -21.58      0.00
   17   20    6      8.71      0.00
   18   20    6      0.51      0.00
   19   20    6      4.58      0.00
   20   20    6      1.92      0.00
   16   21    6     -8.02      0.00
   17   21    6     -2.59      0.00
   18   21    6     -2.13      0.00
   19   21    6     -3.60      0.00
   20   21    6     -0.56      0.00
   15   22    6     -0.63      0.00
   16   22    6     -0.02      0.00
   17   22    6     -0.26      0.00
   18   22    6     -1.64      0.00
   19   22    6     -6.71      0.00
   13   23    6     -1.57      0.00
   14   23    6     -0.98      0.00
   15   23    6      5.01      0.00
   16   23    6      0.12      0.00
   17   23    6      0.10      0.00
   11   24    6      0.12      0.00
   12   24    6     -2.89      0.00
   13   24    6     -2.35      0.00
   14   24    6     -5.21      0.00
   15   24    6     -2.46      0.00
   16   24    6     -1.36      0.00
    8   25    6     -3.19      0.00
    9   25    6      5.02      0.00
   10   25    6     -0.50      0.00
   11   25    6     -2.11      0.00
   12   25    6      0.49      0.00
   13   25    6      2.37      0.00
   14   25    6     -2.24      0.00
    2   26    6     -1.98      0.00
    3   26    6      2.15      0.00
    4   26    6     -1.08      0.00
    5   26    6     -7.18      0.00
    6   26    6     -2.57      0.00
    7   26    6      7.72      0.00
    8   26    6      5.66      0.00
    9   26    6     -0.60      0.00
   10   26    6      2.43      0.00
   11   26    6     -4.53      0.00
   12   26    6      2.04      0.00
   13   26    6      1.88      0.00
   18   19    7      2.07      0.00
   17   20    7     -2.62      0.00
   18   20    7     -2.63      0.00
   19   20    7      0.44      0.00
   16   21    7    -10.34      0.00
   17   21    7     -0.52      0.00
   18   21    7     -7.81      0.00
   19   21    7     -5.49      0.00
   14   22    7     -3.77      0.00
   15   22    7      0.32      0.00
   16   22    7     -4.81      0.00
   17   22    7     -0.90      0.00
   18   22    7     -3.52      0.00
   12   23    7     -4.55      0.00
   13   23    7     -3.35      0.00
   14   23    7      0.54      0.00
   15   23    7     -3.90      0.00
   16   23    7      2.78      0.00
   17   23    7     -1.07      0.00
   10   24    7      5.72      0.00
   11   24    7      3.31      0.00
   12   24    7      3.73      0.00
   13   24    7      1.77      0.00
   14   24    7     -0.43      0.00
   15   24    7     -3.17      0.00
    7   25    7      9.71      0.00
    8   25    7     -1.69      0.00
    9   25    7      4.95      0.00
   10   25    7      3.74      0.00
   11   25    7     -0.31      0.00
   12   25    7      2.89      0.00
   13   25    7      1.48      0.00
   14   25    7      7.21      0.00
    0   26    7     -2.21      0.00
    1   26    7     -1.00      0.00
    2   26    7     -3.98      0.00
    3   26    7     -4.02      0.00
    4   26    7      1.23      0.00
    5   26    7     -4.04      0.00
    6   26    7     -0.75      0.00
    7   26    7     -1.27      0.00
    8   26    7      4.50      0.00
    9   26    7     -3.06      0.00
   10   26    7      0.33      0.00
   11   26    7      3.09      0.00
   12   26    7     -0.78      0.00
    0    0    8    108.29      0.00
   17   19    8      1.33      0.00
   18   19    8      1.77      0.00
   19   19    8     -1.80      0.00
   16   20    8      2.23      0.00
   17   20    8     -2.15      0.00
   18   20    8     -1.47      0.00
   19   20    8      2.52      0.00
   20   20    8     -7.97      0.00
   15   21    8      2.05      0.00
   16   21    8     -8.26      0.00
   17   21    8     -1.19      0.00
   18   21    8      2.56      0.00
   19   21    8     -4.17      0.00
   13   22    8      3.34      0.00
   14   22    8     -5.21      0.00
   15   22    8      4.36      0.00
   16   22    8      1.14      0.00
   17   22    8      1.72      0.00
   11   23    8     -2.90      0.00
   12   23    8      2.74      0.00
   13   23    8     -3.35      0.00
   14   23    8      1.31      0.00
   15   23    8     -0.15      0.00
   16   23    8      1.26      0.00
    9   24    8      1.15      0.00
   10   24    8      1.69      0.00
   11   24    8      1.97      0.00
   12   24    8      0.10      0.00
   13   24    8      2.02      0.00
   14   24    8     -5.69      0.00
   15   24    8      1.47      0.00
    4   25    8     -3.62      0.00
    5   25    8      7.61      0.00
    6   25    8      1.41      0.00
    7   25    8     -0.55      0.00
    8   25    8     -8.51      0.00
    9   25    8      2.29      0.00
   10   25    8     -0.32      0.00
   11   25    8     -0.14      0.00
   12   25    8      8.29      0.00
   13   25    8     -3.75      0.00
    0   26    8     -3.80      0.00
    1   26    8      3.66      0.00
    2   26    8      0.82      0.00
    3   26    8      0.56      0.00
    4   26    8     -0.99      0.00
    5   26    8      4.19      0.00
    6   26    8     -3.17      0.00
    7   26    8     -8.61      0.00
    8   26    8      0.38      0.00
    9   26    8      2.59      0.00
   10   26    8     -4.25      0.00
   11   26    8     -1.76      0.00
   17   19    9      3.83      0.00
   18   19    9      0.40      0.00
   15   20    9      5.27      0.00
   16   20    9      0.70      0.00
   17   20    9      1.06      0.00
   18   20    9      1.11      0.00
   19   20    9      2.41      0.00
   14   21    9      1.65      0.00
   15   21    9     -0.24      0.00
   16   21    9      3.80      0.00
   17   21    9      4.36      0.00
   18   21    9      2.20      0.00
   12   22    9     -9.01      0.00
   13   22    9      1.73      0.00
   14   22    9      6.73      0.00
   15   22    9      2.46      0.00
   16   22    9      3.73      0.00
   17   22    9     -0.64      0.00
   10   23    9      4.70      0.00
   11   23    9     -2.11      0.00
   12   23    9      4.16      0.00
   13   23    9      1.32      0.00
   14   23    9      0.04      0.00
   15   23    9      4.02      0.00
    7   24    9      3.78      0.00
    8   24    9     -2.31      0.00
    9   24    9      1.30      0.00
   10   24    9      4.12      0.00
   11   24    9     -3.59      0.00
   12   24    9     -2.12      0.00
   13   24    9      3.92      0.00
   14   24    9      0.18      0.00
    0   25    9     -1.39      0.00
    1   25    9      4.39      0.00
    2   25    9     -1.96      0.00
    3   25    9     16.54      0.00
    4   25    9     -1.76      0.00
    5   25    9      3.00      0.00
    6   25    9      2.37      0.00
    7   25    9     10.94      0.00
    8   25    9      2.00      0.00
    9   25    9      6.39      0.00
   10   25    9     -2.83      0.00
   11   25    9     -0.14      0.00
   12   25    9     -1.86      0.00
    0   26    9      7.69      0.00
    1   26    9      4.80      0.00
    2   26    9     -4.51      0.00
    3   26    9      4.08      0.00
    4   26    9     11.98      0.00
    5   26    9     -0.07      0.00
    6   26    9      2.56      0.00
    7   26    9      1.56      0.00
    8   26    9      2.39      0.00
    9   26    9     -0.84      0.00
   10   26    9      2.88      0.00
    0    0   10     80.07      0.00
    0    2   10     25.95      0.00
   17   18   10      2.08      0.00
   18   18   10      0.90      0.00
   16   19   10      3.80      0.00
   17   19   10      6.94      0.00
   18   19   10      0.50      0.00
   19   19   10      6.88      0.00
   14   20   10     -4.65      0.00
   15   20   10      1.59      0.00
   16   20   10      1.42      0.00
   17   20   10     -2.26      0.00
   18   20   10      2.00      0.00
   13   21   10     -0.54      0.00
   14   21   10      5.93      0.00
   15   21   10      4.39      0.00
   16   21   10      1.90      0.00
   17   21   10      2.94      0.00
   11   22   10     -4.05      0.00
   12   22   10     -2.68      0.00
   13   22   10      0.89      0.00
   14   22   10     -1.13      0.00
   15   22   10     -0.79      0.00
   16   22   10      5.40      0.00
    8   23   10     -3.50      0.00
    9   23   10      0.56      0.00
   10   23   10     -1.99      0.00
   11   23   10     -4.96      0.00
   12   23   10     -1.18      0.00
   13   23   10     -3.19      0.00
   14   23   10     -3.64      0.00
    0   24   10     -7.13      0.00
    1   24   10     -7.27      0.00
    2   24   10      6.43      0.00
    3   24   10      6.04      0.00
    4   24   10    -10.64      0.00
    5   24   10      9.88      0.00
    6   24   10    -12.18      0.00
    7   24   10      4.07      0.00
    8   24   10     -3.13      0.00
    9   24   10     -5.33      0.00
   10   24   10     -0.56      0.00
   11   24   10     -7.51      0.00
   12   24   10     -1.38      0.00
   13   24   10     -5.04      0.00
    0   25   10      4.99      0.00
    1   25   10     -8.68      0.00
    2   25   10     -3.97      0.00
    3   25   10     -0.59      0.00
    4   25   10      5.67      0.00
    5   25   10      4.30      0.00
    6   25   10     -1.04      0.00
    7   25   10     -4.24      0.00
    8   25   10      2.17      0.00
    9   25   10      1.61      0.00
   10   25   10     -4.40      0.00
   11   25   10      2.94      0.00
    0   26   10     -9.36      0.00
    1   26   10      1.94      0.00
    2   26   10      1.18      0.00
    3   26   10      3.16      0.00
    4   26   10      1.65      0.00
    5   26   10     -4.80      0.00
    6   26   10      4.19      0.00
    7   26   10     -4.26      0.00
    8   26   10      1.14      0.00
   15   18   11      7.15      0.00
   16   18   11     -1.98      0.00
   17   18   11      1.49      0.00
   14   19   11     -1.92      0.00
   15   19   11     -3.93      0.00
   16   19   11      2.22      0.00
   17   19   11      1.50      0.00
   18   19   11     -8.14      0.00
   13   20   11      4.34      0.00
   14   20   11      6.53      0.00
   15   20   11      1.78      0.00
   16   20   11     -0.09      0.00
   17   20   11     -1.52      0.00
   11   21   11      6.76      0.00
   12   21   11      1.30      0.00
   13   21   11      6.31      0.00
   14   21   11      1.90      0.00
   15   21   11      3.18      0.00
   16   21   11      3.27      0.00
    8   22   11     -7.08      0.00
    9   22   11     -9.18      0.00
   10   22   11      1.47      0.00
   11   22   11      0.06      0.00
   12   22   11     -2.39      0.00
   13   22   11     -2.28      0.00
   14   22   11      3.80      0.00
   15   22   11      4.81      0.00
    0   23   11      1.88      0.00
    3   23   11     -5.49      0.00
    4   23   11     -5.98      0.00
    5   23   11     -0.50      0.00
    6   23   11    -12.84      0.00
    7   23   11     -3.07      0.00
    8   23   11     -4.80      0.00
    9   23   11      1.11      0.00
   10   23   11      2.70      0.00
   11   23   11      0.29      0.00
   12   23   11      8.20      0.00
   13   23   11     -0.23      0.00
    0   24   11      4.24      0.00
    1   24   11     -8.59      0.00
    2   24   11     -0.39      0.00
    3   24   11     -0.55      0.00
    4   24   11     -3.12      0.00
    5   24   11      0.57      0.00
    6   24   11      0.75      0.00
    7   24   11      4.65      0.00
    8   24   11      0.73      0.00
    9   24   11      1.90      0.00
   10   24   11      3.05      0.00
   11   24   11      1.79      0.00
   12   24   11      4.78      0.00
    0   25   11     -1.75      0.00
    1   25   11     -6.78      0.00
    2   25   11      4.02      0.00
    3   25   11      2.46      0.00
    4   25   11     -2.82      0.00
    5   25   11     -2.38      0.00
    6   25   11      1.93      0.00
    7   25   11     -0.20      0.00
    8   25   11      4.62      0.00
    9   25   11      0.93      0.00
    0   26   11     -0.29      0.00
    1   26   11      6.14      0.00
    2   26   11     -6.13      0.00
    3   26   11      1.15      0.00
    4   26   11      3.53      0.00
    5   26   11     -1.60      0.00
    6   26   11     -0.65      0.00
   16   17   12      2.00      0.00
   17   17   12     -2.04      0.00
   14   18   12     15.47      0.00
   15   18   12     -4.09      0.00
   16   18   12      5.16      0.00
   17   18   12      6.15      0.00
   18   18   12     12.53      0.00
   13   19   12     -9.99      0.00
   14   19   12     -2.00      0.00
   15   19   12     -0.08      0.00
   16   19   12     -7.61      0.00
   17   19   12     -0.15      0.00
   18   19   12     -5.84      0.00
   11   20   12      1.92      0.00
   12   20   12     -1.24      0.00
   13   20   12     10.97      0.00
   14   20   12     -0.70      0.00
   15   20   12      7.77      0.00
   16   20   12     -1.34      0.00
    9   21   12     -2.90      0.00
   10   21   12    -11.17      0.00
   11   21   12      8.29      0.00
   12   21   12     -7.40      0.00
   13   21   12     -6.47      0.00
   14   21   12      4.91      0.00
   15   21   12      3.98      0.00
    6   22   12    -13.10      0.00
    7   22   12     -3.82      0.00
    8   22   12     -0.04      0.00
    9   22   12     -6.80      0.00
   10   22   12      1.82      0.00
   11   22   12     -6.86      0.00
   12   22   12     -0.42      0.00
   13   22   12      1.51      0.00
   14   22   12     -3.15      0.00
    0   23   12      0.65      0.00
    1   23   12     -6.16      0.00
    2   23   12     10.30      0.00
    3   23   12     -2.81      0.00
    4   23   12     -9.58      0.00
    5   23   12     -3.20      0.00
    6   23   12      4.27      0.00
    7   23   12      6.15      0.00
    8   23   12     -4.66      0.00
    9   23   12     -1.49      0.00
   10   23   12      6.50      0.00
   11   23   12     -0.55      0.00
   12   23   12      2.84      0.00
    0   24   12     -4.55      0.00
    1   24   12      0.20      0.00
    2   24   12      3.43      0.00
    3   24   12     -7.89      0.00
    4   24   12      7.71      0.00
    5   24   12     -2.46      0.00
    6   24   12      1.34      0.00
    7   24   12      4.04      0.00
    8   24   12     -3.45      0.00
    9   24   12      2.44      0.00
   10   24   12     -1.13      0.00
    0   25   12      0.87      0.00
    1   25   12      1.00      0.00
    2   25   12     -5.20      0.00
    3   25   12     -0.79      0.00
    4   25   12     -2.11      0.00
    5   25   12      0.73      0.00
    6   25   12      1.80      0.00
    7   25   12     -1.42      0.00
    0   26   12      0.39      0.00
    1   26   12      6.09      0.00
    2   26   12     -7.66      0.00
    3   26   12      0.57      0.00
    0   15   13     -8.03      0.00
    0   16   13    -11.71      0.00
    1   16   13     -6.00      0.00
    0   17   13     -8.94      0.00
   14   17   13     -5.82      0.00
   15   17   13      3.01      0.00
   16   17   13      1.81      0.00
   13   18   13      5.04      0.00
   14   18   13      2.47      0.00
   15   18   13     -3.13      0.00
   16   18   13      5.90      0.00
   17   18   13      2.03      0.00
   12   19   13      6.15      0.00
   13   19   13     -4.84      0.00
   14   19   13     -1.01      0.00
   15   19   13     -7.12      0.00
   16   19   13      2.48      0.00
   10   20   13     -0.78      0.00
   11   20   13      2.20      0.00
   12   20   13     -3.74      0.00
   13   20   13      3.55      0.00
   14   20   13      5.12      0.00
   15   20   13     -4.43      0.00
    7   21   13     -3.76      0.00
    8   21   13      4.36      0.00
    9   21   13      0.12      0.00
   10   21   13     -8.94      0.00
   11   21   13      2.00      0.00
   12   21   13     -2.68      0.00
   13   21   13      3.58      0.00
   14   21   13     -3.89      0.00
    0   22   13     -7.01      0.00
    1   22   13      5.86      0.00
    2   22   13      0.44      0.00
    3   22   13     -3.38      0.00
    4   22   13     -3.20      0.00
    5   22   13     -1.37      0.00
    6   22   13      5.87      0.00
    7   22   13    -10.29      0.00
    8   22   13      0.84      0.00
    9   22   13     -4.03      0.00
   10   22   13      5.02      0.00
   11   22   13     -0.13      0.00
   12   22   13     -0.18      0.00
    0   23   13     -0.83      0.00
    1   23   13      0.80      0.00
    2   23   13     10.57      0.00
    3   23   13     -0.44      0.00
    4   23   13      0.85      0.00
    5   23   13      5.99      0.00
    6   23   13      1.20      0.00
    7   23   13      0.43      0.00
    8   23   13      0.91      0.00
    9   23   13      6.26      0.00
   10   23   13      1.77      0.00
    0   24   13     -1.89      0.00
    1   24   13     -6.08      0.00
    2   24   13     -4.16      0.00
    3   24   13     -1.39      0.00
    4   24   13     -2.19      0.00
    5   24   13     -2.03      0.00
    6   24   13      0.45      0.00
    7   24   13      0.90      0.00
    8   24   13     -0.90      0.00
    0   25   13    -12.34      0.00
    1   25   13     -4.41      0.00
    2   25   13      5.38      0.00
    3   25   13     -0.92      0.00
    4   25   13     -8.16      0.00
   15   15   14     -6.81      0.00
   14   16   14      3.10      0.00
   15   16   14      2.22      0.00
   16   16   14     -0.83      0.00
   13   17   14     -4.87      0.00
   14   17   14     -3.04      0.00
   15   17   14     -7.13      0.00
   16   17   14      0.38      0.00
   17   17   14     -9.77      0.00
   12   18   14     -3.71      0.00
   13   18   14     -5.95      0.00
   14   18   14     -5.32      0.00
   15   18   14     -1.82      0.00
   16   18   14      0.05      0.00
   10   19   14      2.26      0.00
   11   19   14     -1.13      0.00
   12   19   14     -5.00      0.00
   13   19   14      8.93      0.00
   14   19   14      2.89      0.00
   15   19   14     -1.76      0.00
    7   20   14      7.30      0.00
    8   20   14      4.66      0.00
    9   20   14     -0.21      0.00
   10   20   14      0.46      0.00
   11   20   14      2.68      0.00
   12   20   14     -0.21      0.00
   13   20   14     -3.57      0.00
   14   20   14     -1.19      0.00
    0   21   14     -2.20      0.00
    1   21   14     -4.46      0.00
    2   21   14      2.93      0.00
    3   21   14     -0.84      0.00
    4   21   14     -3.16      0.00
    5   21   14      2.68      0.00
    6   21   14      6.55      0.00
    7   21   14     -1.91      0.00
    8   21   14      3.47      0.00
    9   21   14      3.20      0.00
   10   21   14      6.48      0.00
   11   21   14     -2.45      0.00
   12   21   14     -0.33      0.00
    0   22   14      1.35      0.00
    1   22   14     -2.76      0.00
    2   22   14    -17.02      0.00
    3   22   14      0.07      0.00
    4   22   14      3.08      0.00
    5   22   14      0.47      0.00
    6   22   14     -2.37      0.00
    7   22   14      1.98      0.00
    8   22   14     -1.63      0.00
    9   22   14      6.53      0.00
   10   22   14      0.77      0.00
   11   22   14      0.88      0.00
    0   23   14     -5.18      0.00
    1   23   14     -5.70      0.00
    2   23   14     -3.21      0.00
    3   23   14     -2.63      0.00
    4   23   14      1.41      0.00
    5   23   14      0.70      0.00
    6   23   14      3.54      0.00
    7   23   14      1.62      0.00
    8   23   14     -0.32      0.00
    0   24   14     -2.21      0.00
    1   24   14     -2.98      0.00
    2   24   14     -1.16      0.00
    3   24   14      1.68      0.00
    4   24   14     -0.49      0.00
    5   24   14      0.61      0.00
   14   15   15     -1.39      0.00
   13   16   15     -2.26      0.00
   14   16   15      3.17      0.00
   15   16   15     12.84      0.00
   12   17   15     -5.24      0.00
   13   17   15      0.27      0.00
   14   17   15     -4.65      0.00
   15   17   15      1.52      0.00
   16   17   15     -7.08      0.00
    8   18   15     -9.12      0.00
   10   18   15    -11.56      0.00
   11   18   15     -0.66      0.00
   12   18   15     -1.22      0.00
   13   18   15     -9.20      0.00
   14   18   15     -2.36      0.00
   15   18   15     -3.27      0.00
    6   19   15      7.29      0.00
    7   19   15      0.38      0.00
    8   19   15      9.42      0.00
    9   19   15     -3.24      0.00
   10   19   15      6.62      0.00
   11   19   15     -5.27      0.00
   12   19   15      5.62      0.00
   13   19   15      3.05      0.00
   14   19   15      1.88      0.00
    0   20   15     -7.63      0.00
    1   20   15     -1.54      0.00
    2   20   15      2.80      0.00
    3   20   15      5.03      0.00
    4   20   15     -8.34      0.00
    5   20   15      2.19      0.00
    6   20   15      0.73      0.00
    7   20   15      2.26      0.00
    8   20   15     -1.59      0.00
    9   20   15     -7.13      0.00
   10   20   15      0.14      0.00
   11   20   15     -6.59      0.00
   12   20   15     -4.48      0.00
    0   21   15      7.83      0.00
    1   21   15     11.27      0.00
    2   21   15     -3.73      0.00
    3   21   15     -4.08      0.00
    4   21   15     13.59      0.00
    5   21   15      4.27      0.00
    6   21   15      0.91      0.00
    7   21   15      0.13      0.00
    8   21   15      1.62      0.00
    9   21   15      4.09      0.00
   10   21   15     -5.84      0.00
   11   21   15     -1.45      0.00
    0   22   15      9.36      0.00
    1   22   15     -2.59      0.00
    2   22   15      9.07      0.00
    3   22   15      1.97      0.00
    4   22   15     -3.66      0.00
    5   22   15      4.64      0.00
    6   22   15      3.53      0.00
    7   22   15      5.77      0.00
    8   22   15     -0.42      0.00
    9   22   15      1.72      0.00
    0   23   15     -4.63      0.00
    1   23   15     -0.18      0.00
    2   23   15     -4.59      0.00
    3   23   15     -2.39      0.00
    4   23   15      0.58      0.00
    5   23   15      3.43      0.00
    6   23   15     -0.98      0.00
   13   14   16     -0.75      0.00
   14   14   16      1.97      0.00
   12   15   16     -0.83      0.00
   13   15   16     -0.14      0.00
   14   15   16     -6.10      0.00
   15   15   16      3.11      0.00
   11   16   16      1.40      0.00
   12   16   16     -4.12      0.00
   13   16   16      6.36      0.00
   14   16   16      1.55      0.00
   15   16   16     -2.47      0.00
   16   16   16     -6.25      0.00
    9   17   16     -3.22      0.00
   10   17   16      4.93      0.00
   11   17   16      1.89      0.00
   12   17   16      0.24      0.00
   13   17   16     -1.98      0.00
   14   17   16     -0.06      0.00
   15   17   16     -0.96      0.00
    6   18   16      6.35      0.00
    7   18   16      4.67      0.00
    8   18   16      5.17      0.00
    9   18   16      3.86      0.00
   10   18   16      4.67      0.00
   11   18   16     -2.62      0.00
   12   18   16     -0.77      0.00
   13   18   16      0.07      0.00
    0   19   16     -1.84      0.00
    1   19   16      4.20      0.00
    2   19   16      1.97      0.00
    3   19   16      0.03      0.00
    4   19   16     -4.30      0.00
    5   19   16      4.30      0.00
    6   19   16     -2.70      0.00
    7   19   16      0.62      0.00
    8   19   16      3.70      0.00
    9   19   16     -4.38      0.00
   10   19   16      4.44      0.00
   11   19   16      2.58      0.00
   12   19   16     -2.79      0.00
    0   20   16     -0.38      0.00
    1   20   16     -1.13      0.00
    2   20   16     -6.62      0.00
    3   20   16     -3.15      0.00
    4   20   16      4.14      0.00
    5   20   16     -1.80      0.00
    6   20   16     -1.95      0.00
    7   20   16     -0.27      0.00
    8   20   16      0.69      0.00
    9   20   16     -0.90      0.00
   10   20   16     -1.07      0.00
    0   21   16     -6.75      0.00
    1   21   16     -5.85      0.00
    2   21   16     -1.14      0.00
    3   21   16     -4.20      0.00
    4   21   16     -4.58      0.00
    5   21   16     -1.32      0.00
    6   21   16      3.09      0.00
    7   21   16      2.26      0.00
    8   21   16      1.55      0.00
    0   22   16      0.57      0.00
    1   22   16     -5.13      0.00
    2   22   16     -1.77      0.00
    3   22   16     -2.98      0.00
    4   22   16     -5.30      0.00
    5   22   16      5.01      0.00
   12   13   17     -5.52      0.00
   11   14   17      0.48      0.00
   12   14   17     -7.03      0.00
   13   14   17     -1.23      0.00
   10   15   17     -1.11      0.00
   11   15   17      8.42      0.00
   12   15   17      1.12      0.00
   13   15   17      5.12      0.00
   14   15   17      2.90      0.00
    8   16   17      0.37      0.00
    9   16   17      2.54      0.00
   10   16   17     -0.38      0.00
   11   16   17      5.10      0.00
   12   16   17      0.82      0.00
   13   16   17     -4.04      0.00
   14   16   17      1.55      0.00
    5   17   17      0.81      0.00
    6   17   17     -0.09      0.00
    7   17   17      1.61      0.00
    8   17   17      1.71      0.00
    9   17   17      2.66      0.00
   10   17   17      0.29      0.00
   11   17   17      2.54      0.00
   12   17   17     -0.14      0.00
   13   17   17      0.45      0.00
    0   18   17     -3.93      0.00
    1   18   17      3.88      0.00
    2   18   17     -6.95      0.00
    3   18   17      4.72      0.00
    4   18   17     -4.75      0.00
    5   18   17      4.98      0.00
    6   18   17      0.38      0.00
    7   18   17    -10.39      0.00
    8   18   17      4.01      0.00
    9   18   17     -1.25      0.00
   10   18   17      3.00      0.00
   11   18   17      2.53      0.00
   12   18   17      0.69      0.00
    0   19   17      0.34      0.00
    1   19   17     -3.91      0.00
    2   19   17      5.10      0.00
    3   19   17     -1.40      0.00
    4   19   17     -2.03      0.00
    5   19   17     -7.50      0.00
    6   19   17     -4.28      0.00
    7   19   17     -1.62      0.00
    8   19   17     -8.37      0.00
    9   19   17     -0.74      0.00
   10   19   17     -6.04      0.00
    0   20   17     -7.65      0.00
    1   20   17     -0.83      0.00
    2   20   17     -1.46      0.00
    3   20   17      1.05      0.00
    4   20   17      2.98      0.00
    5   20   17     -6.35      0.00
    6   20   17      4.25      0.00
    7   20   17     -5.49      0.00
    8   20   17     -0.04      0.00
    0   21   17      0.82      0.00
    1   21   17     -4.06      0.00
    2   21   17     -5.32      0.00
    3   21   17      3.61      0.00
    4   21   17      1.14      0.00
    5   21   17      2.33      0.00
   11   12   18      1.85      0.00
   12   12   18     12.54      0.00
    9   13   18      5.72      0.00
   10   13   18     -1.50      0.00
   11   13   18      3.25      0.00
   12   13   18     -1.88      0.00
   13   13   18      3.48      0.00
    8   14   18     -0.54      0.00
    9   14   18      3.47      0.00
   10   14   18     -2.37      0.00
   11   14   18      0.54      0.00
   12   14   18      1.77      0.00
   13   14   18      1.75      0.00
   14   14   18     -2.95      0.00
    6   15   18      2.42      0.00
    7   15   18     -2.33      0.00
    8   15   18      0.02      0.00
    9   15   18      1.70      0.00
   10   15   18      0.13      0.00
   11   15   18      1.09      0.00
   12   15   18      4.18      0.00
   13   15   18     -2.90      0.00
    0   16   18      0.02      0.00
    1   16   18      2.42      0.00
    2   16   18     -6.01      0.00
    3   16   18      1.94      0.00
    4   16   18      3.67      0.00
    5   16   18     -2.61      0.00
    6   16   18      7.51      0.00
    7   16   18      1.60      0.00
    8   16   18      2.26      0.00
    9   16   18      1.78      0.00
   10   16   18     -3.57      0.00
   11   16   18     -0.50      0.00
   12   16   18      1.47      0.00
    0   17   18      3.69      0.00
    1   17   18     -1.89      0.00
    2   17   18     -0.04      0.00
    3   17   18     -1.64      0.00
    4   17   18     -2.60      0.00
    5   17   18      3.71      0.00
    6   17   18      0.17      0.00
    7   17   18      3.58      0.00
    8   17   18     -4.08      0.00
    9   17   18     -2.11      0.00
   10   17   18      0.42      0.00
   11   17   18     -3.68      0.00
    0   18   18     -1.36      0.00
    1   18   18     -2.44      0.00
    2   18   18      4.96      0.00
    3   18   18     -5.52      0.00
    4   18   18     -2.87      0.00
    5   18   18      0.34      0.00
    6   18   18      0.65      0.00
    7   18   18      4.27      0.00
    8   18   18     -1.20      0.00
    9   18   18      1.45      0.00
    0   19   18     -5.58      0.00
    1   19   18      1.86      0.00
    2   19   18     -6.44      0.00
    3   19   18      3.86      0.00
    4   19   18      0.55      0.00
    5   19   18      0.49      0.00
    6   19   18      4.25      0.00
    7   19   18     -0.70      0.00
    0   20   18     -2.07      0.00
    1   20   18     -4.39      0.00
    2   20   18      1.21      0.00
    3   20   18     -6.70      0.00
    4   20   18      0.74      0.00
    9   10   19     -2.91      0.00
    8   11   19     -0.99      0.00
    9   11   19      7.94      0.00
   10   11   19      0.01      0.00
    7   12   19      5.74      0.00
    8   12   19     -2.86      0.00
    9   12   19      0.32      0.00
   10   12   19     -0.10      0.00
   11   12   19     -4.16      0.00
    6   13   19     -4.04      0.00
    7   13   19      1.85      0.00
    8   13   19     -1.50      0.00
    9   13   19      1.43      0.00
   10   13   19      0.78      0.00
   11   13   19      1.32      0.00
   12   13   19     -3.70      0.00
    3   14   19      1.37      0.00
    4   14   19     -0.34      0.00
    5   14   19      0.01      0.00
    6   14   19      1.31      0.00
    7   14   19     -1.13      0.00
    8   14   19      2.91      0.00
    9   14   19      0.50      0.00
   10   14   19      6.22      0.00
   11   14   19     -4.89      0.00
   12   14   19      4.21      0.00
    0   15   19      3.20      0.00
    1   15   19     -2.91      0.00
    2   15   19      0.86      0.00
    3   15   19     -2.82      0.00
    4   15   19      4.93      0.00
    5   15   19     -2.89      0.00
    6   15   19      0.51      0.00
    7   15   19     -0.61      0.00
    8   15   19      3.38      0.00
    9   15   19     -1.03      0.00
   10   15   19      0.72      0.00
   11   15   19     -0.52      0.00
    0   16   19     -4.46      0.00
    1   16   19     -5.97      0.00
    2   16   19      0.36      0.00
    3   16   19     -4.16      0.00
    4   16   19     -0.03      0.00
    5   16   19     -0.52      0.00
    6   16   19     -1.32      0.00
    7   16   19      4.79      0.00
    8   16   19     -4.17      0.00
    9   16   19      4.00      0.00
   10   16   19     -2.35      0.00
    0   17   19     -0.99      0.00
    1   17   19      1.73      0.00
    2   17   19      0.37      0.00
    3   17   19     -1.00      0.00
    4   17   19     -0.17      0.00
    5   17   19     -0.38      0.00
    6   17   19     -3.85      0.00
    7   17   19     -0.54      0.00
    8   17   19      1.83      0.00
    0   18   19      1.92      0.00
    1   18   19      5.70      0.00
    2   18   19      1.80      0.00
    3   18   19      1.38      0.00
    4   18   19      1.78      0.00
    5   18   19      2.74      0.00
    6   18   19     -1.35      0.00
    0   19   19     -2.82      0.00
    1   19   19     -0.01      0.00
    8    8   20      3.57      0.00
    7    9   20      4.81      0.00
    8    9   20     -0.46      0.00
    9    9   20      0.59      0.00
    6   10   20     -1.67      0.00
    7   10   20      0.80      0.00
    8   10   20      1.03      0.00
    9   10   20      3.13      0.00
   10   10   20      6.68      0.00
    5   11   20     -7.86      0.00
    6   11   20    -10.54      0.00
    7   11   20      3.02      0.00
    8   11   20     -0.92      0.00
    9   11   20     -2.02      0.00
   10   11   20     -0.62      0.00
   11   11   20      6.77      0.00
    0   12   20     -1.04      0.00
    1   12   20     -1.58      0.00
    2   12   20     -4.43      0.00
    3   12   20     -3.17      0.00
    4   12   20      1.19      0.00
    5   12   20     -3.68      0.00
    6   12   20     -1.91      0.00
    7   12   20     -1.18      0.00
    8   12   20     -3.02      0.00
    9   12   20     10.35      0.00
   10   12   20      2.61      0.00
   11   12   20      2.75      0.00
   12   12   20      2.15      0.00
    0   13   20     -4.03      0.00
    1   13   20     -3.36      0.00
    2   13   20      0.04      0.00
    3   13   20      2.47      0.00
    4   13   20     -5.86      0.00
    5   13   20     -2.36      0.00
    6   13   20     -5.88      0.00
    7   13   20     -1.12      0.00
    8   13   20      4.25      0.00
    9   13   20     -4.95      0.00
   10   13   20      4.90      0.00
   11   13   20     -2.65      0.00
    0   14   20      2.65      0.00
    1   14   20     -2.80      0.00
    2   14   20      4.24      0.00
    3   14   20     -3.58      0.00
    4   14   20     -2.87      0.00
    5   14   20     -4.35      0.00
    6   14   20     -5.71      0.00
    7   14   20     -3.66      0.00
    8   14   20     -4.91      0.00
    9   14   20      1.65      0.00
   10   14   20      1.77      0.00
    0   15   20      7.10      0.00
    1   15   20      0.18      0.00
    2   15   20     -0.54      0.00
    3   15   20      3.27      0.00
    4   15   20     -0.74      0.00
    5   15   20     -4.07      0.00
    6   15   20      0.70      0.00
    7   15   20     -6.01      0.00
    8   15   20      1.23      0.00
    0   16   20    -12.75      0.00
    1   16   20     -1.11      0.00
    2   16   20     -2.58      0.00
    3   16   20      1.64      0.00
    4   16   20     -6.85      0.00
    5   16   20     -1.61      0.00
    6   16   20     -4.75      0.00
    0   17   20      3.37      0.00
    1   17   20     -4.52      0.00
    2   17   20      0.70      0.00
    3   17   20     -3.89      0.00
    0    1   21      4.09      0.00
    0    2   21    -14.73      0.00
    5    7   21     -4.76      0.00
    6    7   21      0.93      0.00
    4    8   21     -0.27      0.00
    5    8   21      0.45      0.00
    6    8   21     -7.92      0.00
    7    8   21     -6.32      0.00
    2    9   21     -0.25      0.00
    3    9   21      7.60      0.00
    4    9   21     -6.37      0.00
    5    9   21      3.37      0.00
    6    9   21      2.47      0.00
    7    9   21      5.37      0.00
    8    9   21      0.88      0.00
    0   10   21     -3.18      0.00
    1   10   21      5.15      0.00
    2   10   21     -5.36      0.00
    3   10   21      2.20      0.00
    4   10   21      1.22      0.00
    5   10   21      5.24      0.00
    6   10   21     -1.01      0.00
    7   10   21      3.08      0.00
    8   10   21      4.43      0.00
    9   10   21     -1.72      0.00
    0   11   21      1.94      0.00
    1   11   21     -2.79      0.00
    2   11   21      3.19      0.00
    3   11   21     -4.64      0.00
    4   11   21     -3.06      0.00
    5   11   21     -3.25      0.00
    6   11   21      0.71      0.00
    7   11   21     -6.14      0.00
    8   11   21      1.53      0.00
    9   11   21     -4.44      0.00
   10   11   21     -0.37      0.00
    0   12   21      5.39      0.00
    1   12   21      2.09      0.00
    2   12   21      5.35      0.00
    3   12   21      4.39      0.00
    4   12   21      2.93      0.00
    5   12   21      0.80      0.00
    6   12   21      2.57      0.00
    7   12   21      4.83      0.00
    8   12   21      0.83      0.00
    9   12   21      3.60      0.00
    0   13   21      3.99      0.00
    1   13   21      1.94      0.00
    2   13   21      1.49      0.00
    3   13   21     -0.07      0.00
    4   13   21      5.04      0.00
    5   13   21      5.75      0.00
    6   13   21      2.83      0.00
    7   13   21      0.29      0.00
    8   13   21      1.84      0.00
    0   14   21     -3.02      0.00
    1   14   21     -3.17      0.00
    2   14   21     -4.60      0.00
    3   14   21     -2.78      0.00
    4   14   21     -2.61      0.00
    5   14   21     -0.85      0.00
    6   14   21     -3.48      0.00
    0   15   21     -2.01      0.00
    1   15   21     -2.86      0.00
    2   15   21     -3.43      0.00
    3   15   21      3.14      0.00
    4   15   21     -2.04      0.00
    0    0    0      0.00      0.00
# SQUEEZE RESULTS (Version = 150216)
# Note: Data are Listed for all Voids in the P1 Unit Cell
# i.e. Centre of Gravity, Solvent Accessible Volume,
# Recovered number of Electrons in the Void and
# Details about the Squeezed Material
loop_
  _platon_squeeze_void_nr
  _platon_squeeze_void_average_x
  _platon_squeeze_void_average_y
  _platon_squeeze_void_average_z
  _platon_squeeze_void_volume
  _platon_squeeze_void_count_electrons
  _platon_squeeze_void_content
   1  0.000  0.000 -0.017      2397       424 ' '
   2  0.500  0.500 -0.017      3120       524 ' '
# Missing Reflections Below sin(th)/lambda = 0.25
loop_
  _platon_missing_refln_index_h
  _platon_missing_refln_index_k
  _platon_missing_refln_index_l
  _platon_missing_refln_theta
    0    1    0     1.924
    1    1    0     2.722
    2    2    0     5.450
    0    1    1     3.038
    0    0    2     4.703
    0    1    3     7.324
    0    0    4     9.437
    0    1    4     9.635
    0    1    5    11.987
    0    0    6    14.238
    0    0    8    19.144
_platon_squeeze_void_probe_radius                  1.20
_platon_squeeze_details
)
TITL exp_2731_a.res in P4(2)/mmc
CELL   22.9570   22.9570   18.8060     90.00     90.00     90.00
SPGR P42/mmc
# Solvent Accessible Volume =      5498
# Electrons Found in S.A.V. =       943
# Note: Atoms in Void as Cxxx and Qxxx all others
Q101 1.000 0.359 0.501 !       3.82 eA-3
C102 0.373 0.997 0.234 !       2.74 eA-3
Q103 0.399 0.039-0.002 !       2.63 eA-3
Q104 0.500 0.951 0.202 !       2.53 eA-3
Q105 0.656 0.039 0.001 !       2.06 eA-3
Q106 0.608 0.109 0.003 !       2.05 eA-3
Q107 0.912 0.529 0.407 !       1.94 eA-3
C108 0.411 0.203-0.004 !       1.94 eA-3
C109 0.968 0.211 0.497 !       1.91 eA-3
C110 0.316 0.498 0.016 !       1.89 eA-3
Q111 0.971 0.635 0.442 !       1.83 eA-3
C112 0.815 0.359 0.503 !       1.82 eA-3
Q113 0.500 0.148 0.003 !       1.74 eA-3
C114 1.000 0.658 0.157 !       1.70 eA-3
C115 0.069 0.023 0.502 !       1.58 eA-3
Q116 0.554 0.148 0.005 !       1.49 eA-3
C117 0.424 0.758 0.031 !       1.48 eA-3
C118 0.722 0.344 0.494 !       1.48 eA-3
Q119 0.500 0.184 0.220 !       1.46 eA-3
C120 0.772 0.367 0.502 !       1.45 eA-3
Q121 0.931 0.446 0.406 !       1.43 eA-3
C122 0.212 0.498 0.234 !       1.43 eA-3
Q123 0.599 0.996 0.188 !       1.41 eA-3
Q124 0.712 0.306 0.029 !       1.40 eA-3
C125 0.796 0.998 0.062 !       1.36 eA-3
Q126 0.805 0.515 0.470 !       1.36 eA-3
C127 0.742 0.593 0.422 !       1.36 eA-3
Q128 0.438 0.871 0.126 !       1.35 eA-3
C129 0.500 0.278 0.466 !       1.35 eA-3
C130 0.992 0.109 0.005 !       1.34 eA-3
C131 0.500 0.302 0.124 !       1.31 eA-3
C132 0.295 1.001 0.344 !       1.29 eA-3
Q133 0.726 0.998 0.094 !       1.29 eA-3
Q134 0.211 0.600 0.312 !       1.27 eA-3
C135 0.256 1.000 0.000 !       1.26 eA-3
C136 1.000 0.928 0.108 !       1.26 eA-3
Q137 0.545 0.031 0.095 !       1.26 eA-3
Q138 0.920 0.475 0.484 !       1.25 eA-3
Q139 0.759 0.427 0.124 !       1.25 eA-3
Q140 0.422 0.210 0.090 !       1.24 eA-3
Q141 0.508 0.235 0.033 !       1.24 eA-3
Q142 0.117 0.500 0.500 !       1.24 eA-3
Q143 0.775 0.461 0.359 !       1.24 eA-3
C144 0.748 0.998 0.219 !       1.24 eA-3
Q145 0.087 0.195 0.501 !       1.23 eA-3
Q146 0.720 0.953 0.094 !       1.23 eA-3
C147 0.249 0.500 0.281 !       1.23 eA-3
C148 0.626 0.591 0.201 !       1.23 eA-3
C149 0.522 0.437 0.499 !       1.23 eA-3
Q150 0.739 0.031 0.001 !       1.23 eA-3
Q151 0.141 0.227 0.498 !       1.22 eA-3
Q152 0.500 0.878 0.188 !       1.21 eA-3
C153 0.553 0.276 0.123 !       1.21 eA-3
C154 0.233 0.288 0.468 !       1.20 eA-3
C155 0.289 0.233 0.966 !       1.20 eA-3
C156 0.141 0.999 0.281 !       1.20 eA-3
Q157 0.338 0.125 0.000 !       1.19 eA-3
C158 0.689 0.997 0.297 !       1.18 eA-3
C159 1.000 0.630 0.204 !       1.16 eA-3
C160 1.000 0.997 0.391 !       1.16 eA-3
Q161 0.961 0.501 0.406 !       1.16 eA-3
C162 0.738 0.305 0.502 !       1.16 eA-3
C163 0.398 0.500 0.000 !       1.15 eA-3
Q164 1.000 0.651 0.310 !       1.14 eA-3
C165 0.985 1.000 0.328 !       1.13 eA-3
Q166 0.740 0.038 0.204 !       1.12 eA-3
C167 0.248 0.188-0.003 !       1.12 eA-3
Q168 0.493 0.968 0.033 !       1.12 eA-3
C169 1.000 0.225 0.295 !       1.12 eA-3
Q170 0.923 0.078 0.498 !       1.12 eA-3
Q171 0.947 0.674 0.579 !       1.11 eA-3
Q172 0.053 0.326 0.421 !       1.11 eA-3
C173 0.641 0.499 0.031 !       1.11 eA-3
Q174 0.546 0.260 0.143 !       1.10 eA-3
C175 0.258 0.345 0.455 !       1.10 eA-3
C176 0.087 0.997 0.453 !       1.10 eA-3
Q177 0.765 0.234 0.498 !       1.09 eA-3
C178 0.682 0.451 0.371 !       1.08 eA-3
C179 0.061 0.998 0.328 !       1.08 eA-3
C180 0.523 0.788 0.217 !       1.08 eA-3
Q181 0.318 0.291 0.078 !       1.07 eA-3
C182 0.343 0.438-0.001 !       1.07 eA-3
Q183 0.854 0.497 0.438 !       1.07 eA-3
Q184 0.225 0.187 0.502 !       1.06 eA-3
Q185 0.103 0.290 0.406 !       1.06 eA-3
Q186 0.313 1.001 0.094 !       1.05 eA-3
Q187 0.213 0.109 0.500 !       1.05 eA-3
Q188 0.408 0.328 0.298 !       1.04 eA-3
Q189 0.398 0.939 0.061 !       1.04 eA-3
Q190 0.851 0.414 0.376 !       1.04 eA-3
Q191 0.148 0.440 0.329 !       1.04 eA-3
C192 0.725 0.055 0.504 !       1.03 eA-3
C193 0.469 0.258-0.004 !       1.03 eA-3
C194 0.985 0.741 0.243 !       1.03 eA-3
C195 0.976 0.684 0.186 !       1.02 eA-3
C196 0.830 0.023 0.003 !       1.02 eA-3
C197 0.336 0.957 0.361 !       1.01 eA-3
C198 0.426 0.383 0.489 !       1.01 eA-3
Q199 0.735 0.734 0.053 !       0.99 eA-3
)
;
_shelx_fab_checksum              45049
loop_
_space_group_symop_operation_xyz
'x, y, z'
'-y, x, z+1/2'
'-x, -y, z'
'y, -x, z+1/2'
'x, -y, -z'
'-x, y, -z'
'y, x, -z+1/2'
'-y, -x, -z+1/2'
'-x, -y, -z'
'y, -x, -z-1/2'
'x, y, -z'
'-y, x, -z-1/2'
'-x, y, z'
'x, -y, z'
'-y, -x, z-1/2'
'y, x, z-1/2'
loop_
_atom_site_label
_atom_site_type_symbol
_atom_site_fract_x
_atom_site_fract_y
_atom_site_fract_z
_atom_site_U_iso_or_equiv
_atom_site_adp_type
_atom_site_occupancy
_atom_site_site_symmetry_order
_atom_site_calc_flag
_atom_site_refinement_flags_posn
_atom_site_refinement_flags_adp
_atom_site_refinement_flags_occupancy
_atom_site_disorder_assembly
_atom_site_disorder_group
I1 I 0.4010(15) 0.8421(15) 0.5000 0.416(15) Uani 0.25 2 d S TU P A 1
Zr1 Zr 0.5000 0.92433(7) 0.90668(9) 0.0469(5) Uani 1 2 d S TU P . .
Zr2 Zr 0.39217(8) 1.0000 1.0000 0.0288(5) Uani 1 4 d S T P . .
Cu1 Cu 0.5000 0.8970(15) 0.5000 0.272(8) Uani 0.5 4 d DS TU P A 1
F1 F 0.1420(7) 0.7869(8) 0.8866(11) 0.218(8) Uani 0.762(9) 1 d D U P B 1
F2 F 0.1153(6) 0.8473(10) 0.8078(10) 0.216(8) Uani 0.762(9) 1 d D U P B 1
F3 F 0.1466(7) 0.8780(8) 0.9076(10) 0.202(7) Uani 0.762(9) 1 d D U P B 1
F1A F 0.3603(14) 0.7963(18) 0.6559(19) 0.178(10) Uani 0.238(9) 1 d D U P B 2
F2A F 0.3168(19) 0.7210(9) 0.6946(16) 0.173(10) Uani 0.238(9) 1 d D U P B 2
F3A F 0.2721(16) 0.7811(18) 0.6273(12) 0.182(10) Uani 0.238(9) 1 d D U P B 2
O1 O 0.3413(4) 0.9424(5) 0.9273(5) 0.072(2) Uani 1 1 d . U . . .
O2 O 0.4124(5) 0.8956(5) 0.8671(6) 0.086(2) Uani 1 1 d . U . . .
O3 O 0.5000 0.9436(5) 0.7898(8) 0.103(3) Uani 1 2 d DS TU P . .
O4 O 0.4463(5) 1.0000 0.9060(9) 0.066(3) Uani 1 2 d S TU P . .
O5 O 0.4459(6) 1.0779(8) 1.0000 0.078(5) Uani 1 2 d S T P . .
O6 O 0.5000 0.8295(7) 0.9117(13) 0.115(5) Uani 1 2 d S TU P . .
N1 N 0.5000 0.9476(3) 0.5774(6) 0.268(8) Uani 0.5 2 d DS TU P A 1
N2 N 0.5682(2) 0.8459(17) 0.5000 0.284(14) Uani 0.25 2 d DS TU P C 2
C1 C 0.2327(5) 0.8085(5) 0.7693(6) 0.154(5) Uani 1 1 d D U . . .
C2 C 0.2164(4) 0.8393(5) 0.8296(6) 0.152(4) Uani 1 1 d D U . . .
H2 H 0.1773 0.8380 0.8458 0.182 Uiso 0.238(9) 1 calc R U P B 2
C3 C 0.2577(5) 0.8724(4) 0.8665(5) 0.131(4) Uani 1 1 d D U . . .
H3 H 0.2467 0.8936 0.9078 0.157 Uiso 1 1 calc R U . . .
C4 C 0.3149(5) 0.8743(5) 0.8426(6) 0.117(4) Uani 1 1 d D U . . .
C5 C 0.3312(4) 0.8435(6) 0.7823(7) 0.141(4) Uani 1 1 d D U . . .
H5 H 0.3703 0.8449 0.7661 0.169 Uiso 1 1 calc R U . . .
C6 C 0.2901(6) 0.8105(6) 0.7454(6) 0.155(5) Uani 1 1 d D U . . .
H6 H 0.3012 0.7894 0.7041 0.186 Uiso 0.762(9) 1 calc R U P B 1
C7 C 0.3584(8) 0.9090(7) 0.8814(9) 0.084(2) Uani 1 1 d . U . . .
C8 C 0.1553(5) 0.8382(7) 0.8571(8) 0.175(5) Uani 0.762(9) 1 d D U P B 1
C9 C 0.5000 1.0000 0.7686(7) 0.210(8) Uani 1 4 d DS TU P . .
C10 C 0.5000 1.0000 0.6883(5) 0.231(8) Uani 1 4 d DS TU P A .
C11 C 0.5000 0.9469(3) 0.6513(5) 0.250(8) Uani 1 2 d DS TU P . .
H11 H 0.5000 0.9111 0.6769 0.299 Uiso 1 2 d R U P A .
C12 C 0.5000 1.0000 0.5400(3) 0.270(9) Uani 1 4 d DS TU P . .
C13 C 0.5000 1.0524(3) 0.5774(6) 0.271(11) Uani 0.5 2 d DS TU P A 2
H13 H 0.5000 1.0881 0.5520 0.326 Uiso 0.5 2 calc R U P A 2
C14 C 0.599(3) 0.807(3) 0.5000 0.289(17) Uani 0.25 2 d DS TU P C 2
C15 C 0.6487(2) 0.7654(18) 0.5000 0.29(2) Uani 0.25 2 d DS TU P C 2
H15A H 0.6339 0.7254 0.5000 0.435 Uiso 0.25 2 calc R U P C 2
H15B H 0.6725 0.7718 0.4575 0.435 Uiso 0.125 1 calc R U P C 2
H15C H 0.6725 0.7718 0.5425 0.435 Uiso 0.125 1 calc R U P C 2
C8A C 0.3092(9) 0.7775(9) 0.6807(9) 0.165(6) Uani 0.238(9) 1 d D U P B 2
loop_
_atom_site_aniso_label
_atom_site_aniso_U_11
_atom_site_aniso_U_22
_atom_site_aniso_U_33
_atom_site_aniso_U_23
_atom_site_aniso_U_13
_atom_site_aniso_U_12
I1 0.396(18) 0.385(19) 0.47(2) 0.000 0.000 -0.108(16)
Zr1 0.0446(9) 0.0500(10) 0.0460(9) -0.0257(8) 0.000 0.000
Zr2 0.0218(9) 0.0414(11) 0.0231(9) 0.000 0.000 0.000
Cu1 0.311(14) 0.289(15) 0.217(13) 0.000 0.000 0.000
F1 0.166(14) 0.243(14) 0.246(17) -0.050(12) 0.026(13) -0.087(13)
F2 0.127(10) 0.291(18) 0.229(15) -0.087(13) -0.039(11) -0.044(14)
F3 0.129(12) 0.265(15) 0.213(15) -0.105(13) 0.011(11) -0.073(13)
F1A 0.162(13) 0.196(17) 0.175(16) -0.052(14) -0.004(11) -0.028(13)
F2A 0.15(2) 0.182(13) 0.19(2) -0.094(13) -0.023(18) -0.051(15)
F3A 0.186(18) 0.20(2) 0.157(16) -0.094(17) -0.035(15) -0.051(19)
O1 0.068(4) 0.082(5) 0.067(4) -0.040(4) -0.021(4) -0.031(4)
O2 0.070(3) 0.105(4) 0.082(5) -0.044(4) -0.024(3) -0.020(3)
O3 0.109(7) 0.152(8) 0.046(2) -0.017(4) 0.000 0.000
O4 0.034(4) 0.057(2) 0.106(9) 0.000 0.022(7) 0.000
O5 0.039(8) 0.133(15) 0.061(9) 0.000 0.000 -0.018(9)
O6 0.112(9) 0.0496(15) 0.182(15) -0.017(7) 0.000 0.000
N1 0.303(13) 0.287(14) 0.214(12) 0.000(5) 0.000 0.000
N2 0.32(2) 0.30(3) 0.24(2) 0.000 0.000 0.01(2)
C1 0.124(8) 0.182(10) 0.157(9) -0.082(8) -0.031(8) -0.065(8)
C2 0.112(7) 0.184(9) 0.159(9) -0.080(8) -0.026(7) -0.068(7)
C3 0.098(7) 0.158(9) 0.138(9) -0.069(8) -0.027(7) -0.055(7)
C4 0.094(6) 0.139(7) 0.118(7) -0.064(6) -0.027(6) -0.042(6)
C5 0.116(8) 0.167(9) 0.138(9) -0.084(7) -0.025(7) -0.050(8)
C6 0.131(8) 0.181(10) 0.152(9) -0.090(7) -0.028(7) -0.059(8)
C7 0.074(4) 0.099(5) 0.078(5) -0.043(4) -0.019(4) -0.023(4)
C8 0.116(8) 0.218(12) 0.189(11) -0.080(9) -0.016(8) -0.077(9)
C9 0.215(10) 0.212(10) 0.204(10) 0.000 0.000 0.000
C10 0.241(10) 0.239(10) 0.215(10) 0.000 0.000 0.000
C11 0.273(12) 0.263(12) 0.213(12) -0.007(6) 0.000 0.000
C12 0.308(16) 0.290(15) 0.212(15) 0.000 0.000 0.000
C13 0.311(19) 0.291(17) 0.212(18) 0.001(8) 0.000 0.000
C14 0.32(3) 0.30(3) 0.25(3) 0.000 0.000 0.01(2)
C15 0.32(4) 0.30(4) 0.25(4) 0.000 0.000 0.01(3)
C8A 0.149(11) 0.184(12) 0.160(11) -0.093(10) -0.025(9) -0.053(11)
loop_
_atom_type_symbol
_atom_type_description
_atom_type_scat_dispersion_real
_atom_type_scat_dispersion_imag
_atom_type_scat_source
C C 0.0181 0.0091 'International Tables Vol C Tables 4.2.6.8 and 6.1.1.4'
H H 0.0000 0.0000 'International Tables Vol C Tables 4.2.6.8 and 6.1.1.4'
N N 0.0311 0.0180 'International Tables Vol C Tables 4.2.6.8 and 6.1.1.4'
O O 0.0492 0.0322 'International Tables Vol C Tables 4.2.6.8 and 6.1.1.4'
I I -0.3257 6.8362 'International Tables Vol C Tables 4.2.6.8 and 6.1.1.4'
F F 0.0727 0.0534 'International Tables Vol C Tables 4.2.6.8 and 6.1.1.4'
Zr Zr -0.1862 2.2449 'International Tables Vol C Tables 4.2.6.8 and 6.1.1.4'
Cu Cu -1.9646 0.5888 'International Tables Vol C Tables 4.2.6.8 and 6.1.1.4'
loop_
_geom_angle_atom_site_label_1
_geom_angle_atom_site_label_2
_geom_angle_atom_site_label_3
_geom_angle
_geom_angle_site_symmetry_1
_geom_angle_site_symmetry_3
O4 Zr1 O4 70.7(5) 3_675 .
O4 Zr1 O5 71.9(6) 3_675 9_677
O4 Zr1 O5 111.0(6) . 9_677
O4 Zr1 O5 111.0(6) 3_675 5_577
O4 Zr1 O5 71.9(6) . 5_577
O5 Zr1 O5 70.5(6) 9_677 5_577
O4 Zr1 O6 144.6(3) 3_675 .
O4 Zr1 O6 144.6(3) . .
O5 Zr1 O6 86.6(7) 9_677 .
O5 Zr1 O6 86.6(7) 5_577 .
O4 Zr1 O2 139.2(5) 3_675 .
O4 Zr1 O2 73.7(4) . .
O5 Zr1 O2 141.4(5) 9_677 .
O5 Zr1 O2 75.3(4) 5_577 .
O6 Zr1 O2 73.8(4) . .
O4 Zr1 O2 73.7(4) 3_675 13_655
O4 Zr1 O2 139.2(5) . 13_655
O5 Zr1 O2 75.3(4) 9_677 13_655
O5 Zr1 O2 141.4(5) 5_577 13_655
O6 Zr1 O2 73.8(4) . 13_655
O2 Zr1 O2 127.3(6) . 13_655
O4 Zr1 O3 80.4(5) 3_675 .
O4 Zr1 O3 80.4(5) . .
O5 Zr1 O3 143.6(3) 9_677 .
O5 Zr1 O3 143.6(3) 5_577 .
O6 Zr1 O3 103.9(7) . .
O2 Zr1 O3 74.5(3) . .
O2 Zr1 O3 74.5(3) 13_655 .
O4 Zr1 Zr1 35.4(3) 3_675 3_675
O4 Zr1 Zr1 35.4(3) . 3_675
O5 Zr1 Zr1 91.3(5) 9_677 3_675
O5 Zr1 Zr1 91.3(5) 5_577 3_675
O6 Zr1 Zr1 177.5(6) . 3_675
O2 Zr1 Zr1 107.1(3) . 3_675
O2 Zr1 Zr1 107.1(3) 13_655 3_675
O3 Zr1 Zr1 78.6(3) . 3_675
O4 Zr1 Zr2 90.4(3) 3_675 .
O4 Zr1 Zr2 35.7(4) . .
O5 Zr1 Zr2 90.6(4) 9_677 .
O5 Zr1 Zr2 36.2(4) 5_577 .
O6 Zr1 Zr2 118.3(4) . .
O2 Zr1 Zr2 71.3(3) . .
O2 Zr1 Zr2 161.3(3) 13_655 .
O3 Zr1 Zr2 113.2(2) . .
Zr1 Zr1 Zr2 60.21(3) 3_675 .
O4 Zr1 Zr2 35.7(4) 3_675 9_677
O4 Zr1 Zr2 90.4(3) . 9_677
O5 Zr1 Zr2 36.2(4) 9_677 9_677
O5 Zr1 Zr2 90.6(4) 5_577 9_677
O6 Zr1 Zr2 118.3(4) . 9_677
O2 Zr1 Zr2 161.3(3) . 9_677
O2 Zr1 Zr2 71.2(3) 13_655 9_677
O3 Zr1 Zr2 113.2(2) . 9_677
Zr1 Zr1 Zr2 60.21(3) 3_675 9_677
Zr2 Zr1 Zr2 90.14(5) . 9_677
O4 Zr1 Zr1 90.3(4) 3_675 11_557
O4 Zr1 Zr1 90.3(4) . 11_557
O5 Zr1 Zr1 35.3(3) 9_677 11_557
O5 Zr1 Zr1 35.3(3) 5_577 11_557
O6 Zr1 Zr1 87.5(6) . 11_557
O2 Zr1 Zr1 109.4(3) . 11_557
O2 Zr1 Zr1 109.4(3) 13_655 11_557
O3 Zr1 Zr1 168.6(3) . 11_557
Zr1 Zr1 Zr1 90.000(1) 3_675 11_557
Zr2 Zr1 Zr1 59.87(3) . 11_557
Zr2 Zr1 Zr1 59.87(3) 9_677 11_557
O5 Zr2 O5 110.8(8) . 5_577
O5 Zr2 O4 70.9(3) . .
O5 Zr2 O4 70.9(3) 5_577 .
O5 Zr2 O4 70.9(3) . 11_557
O5 Zr2 O4 70.9(3) 5_577 11_557
O4 Zr2 O4 109.8(8) . 11_557
O5 Zr2 O1 79.0(4) . 5_577
O5 Zr2 O1 141.7(3) 5_577 5_577
O4 Zr2 O1 143.3(3) . 5_577
O4 Zr2 O1 78.5(4) 11_557 5_577
O5 Zr2 O1 79.0(4) . 14_575
O5 Zr2 O1 141.7(3) 5_577 14_575
O4 Zr2 O1 78.5(4) . 14_575
O4 Zr2 O1 143.3(3) 11_557 14_575
O1 Zr2 O1 75.5(6) 5_577 14_575
O5 Zr2 O1 141.7(3) . 11_557
O5 Zr2 O1 79.0(4) 5_577 11_557
O4 Zr2 O1 143.3(3) . 11_557
O4 Zr2 O1 78.5(4) 11_557 11_557
O1 Zr2 O1 72.7(6) 5_577 11_557
O1 Zr2 O1 116.9(6) 14_575 11_557
O5 Zr2 O1 141.7(3) . .
O5 Zr2 O1 79.0(4) 5_577 .
O4 Zr2 O1 78.5(4) . .
O4 Zr2 O1 143.3(3) 11_557 .
O1 Zr2 O1 116.9(6) 5_577 .
O1 Zr2 O1 72.7(6) 14_575 .
O1 Zr2 O1 75.5(6) 11_557 .
O5 Zr2 Zr1 90.4(4) . .
O5 Zr2 Zr1 35.8(2) 5_577 .
O4 Zr2 Zr1 35.1(2) . .
O4 Zr2 Zr1 90.2(3) 11_557 .
O1 Zr2 Zr1 166.5(3) 5_577 .
O1 Zr2 Zr1 110.9(3) 14_575 .
O1 Zr2 Zr1 112.5(3) 11_557 .
O1 Zr2 Zr1 76.6(3) . .
O5 Zr2 Zr1 35.8(2) . 9_677
O5 Zr2 Zr1 90.4(4) 5_577 9_677
O4 Zr2 Zr1 90.2(3) . 9_677
O4 Zr2 Zr1 35.1(2) 11_557 9_677
O1 Zr2 Zr1 76.6(3) 5_577 9_677
O1 Zr2 Zr1 112.5(3) 14_575 9_677
O1 Zr2 Zr1 110.9(3) 11_557 9_677
O1 Zr2 Zr1 166.5(3) . 9_677
Zr1 Zr2 Zr1 89.86(5) . 9_677
O5 Zr2 Zr1 90.4(4) . 11_557
O5 Zr2 Zr1 35.8(2) 5_577 11_557
O4 Zr2 Zr1 90.2(3) . 11_557
O4 Zr2 Zr1 35.1(2) 11_557 11_557
O1 Zr2 Zr1 110.9(3) 5_577 11_557
O1 Zr2 Zr1 166.5(3) 14_575 11_557
O1 Zr2 Zr1 76.6(3) 11_557 11_557
O1 Zr2 Zr1 112.5(3) . 11_557
Zr1 Zr2 Zr1 60.25(6) . 11_557
Zr1 Zr2 Zr1 59.58(6) 9_677 11_557
O5 Zr2 Zr1 35.8(2) . 3_675
O5 Zr2 Zr1 90.4(4) 5_577 3_675
O4 Zr2 Zr1 35.1(2) . 3_675
O4 Zr2 Zr1 90.2(3) 11_557 3_675
O1 Zr2 Zr1 112.5(3) 5_577 3_675
O1 Zr2 Zr1 76.6(3) 14_575 3_675
O1 Zr2 Zr1 166.5(3) 11_557 3_675
O1 Zr2 Zr1 110.9(3) . 3_675
Zr1 Zr2 Zr1 59.58(6) . 3_675
Zr1 Zr2 Zr1 60.25(6) 9_677 3_675
Zr1 Zr2 Zr1 89.86(5) 11_557 3_675
N1 Cu1 N1 102.8(18) . 11_556
N1 Cu1 C12 33.8(6) . .
N1 Cu1 C12 69.1(11) 11_556 .
N1 Cu1 C12 69.1(11) . 5_576
N1 Cu1 C12 33.8(6) 11_556 5_576
C12 Cu1 C12 35.3(5) . 5_576
N1 Cu1 I1 107.6(5) . 13_655
N1 Cu1 I1 107.6(5) 11_556 13_655
C12 Cu1 I1 117.5(10) . 13_655
C12 Cu1 I1 117.5(10) 5_576 13_655
N1 Cu1 I1 107.6(5) . .
N1 Cu1 I1 107.6(5) 11_556 .
C12 Cu1 I1 117.5(10) . .
C12 Cu1 I1 117.5(10) 5_576 .
I1 Cu1 I1 122(2) 13_655 .
C7 O1 Zr2 129.7(10) . .
C7 O2 Zr1 135.5(9) . .
C9 O3 Zr1 118.5(11) . .
Zr1 O4 Zr1 109.3(5) 3_675 .
Zr1 O4 Zr2 109.2(5) 3_675 .
Zr1 O4 Zr2 109.2(5) . .
Zr2 O5 Zr1 108.0(6) . 9_677
Zr2 O5 Zr1 108.0(6) . 3_675
Zr1 O5 Zr1 109.4(6) 9_677 3_675
C11 N1 C12 121.0(6) . .
C11 N1 Cu1 140.7(10) . .
C12 N1 Cu1 98.3(10) . .
C2 C1 C6 120.1(5) . .
C2 C1 C1 122.7(10) . 8_666
C6 C1 C1 117.0(9) . 8_666
C1 C2 C3 120.0(5) . .
C1 C2 C8 121.8(7) . .
C3 C2 C8 118.3(7) . .
C1 C2 H2 120.0 . .
C3 C2 H2 120.0 . .
C4 C3 C2 119.8(5) . .
C4 C3 H3 120.1 . .
C2 C3 H3 120.1 . .
C3 C4 C5 120.2(5) . .
C3 C4 C7 119.9(11) . .
C5 C4 C7 119.9(11) . .
C4 C5 C6 120.0(5) . .
C4 C5 H5 120.0 . .
C6 C5 H5 120.0 . .
C1 C6 C5 119.8(5) . .
C1 C6 C8A 121.5(8) . .
C5 C6 C8A 118.7(8) . .
C1 C6 H6 120.1 . .
C5 C6 H6 120.1 . .
O1 C7 O2 126.8(14) . .
O1 C7 C4 118.3(15) . .
O2 C7 C4 114.5(13) . .
F2 C8 F3 106.7(11) . .
F2 C8 F1 105.7(11) . .
F3 C8 F1 106.0(11) . .
F2 C8 C2 114.0(9) . .
F3 C8 C2 112.0(9) . .
F1 C8 C2 111.9(9) . .
O3 C9 O3 145.7(18) 3_675 .
O3 C9 C10 107.1(9) 3_675 .
O3 C9 C10 107.1(9) . .
C11 C10 C11 120.7(6) . 3_675
C11 C10 C9 119.7(3) . .
C11 C10 C9 119.7(3) 3_675 .
C13 C11 C10 118.9(6) 3_675 .
N1 C11 C10 119.0(6) . .
C13 C11 H11 121.1 3_675 .
N1 C11 H11 121.1 . .
C10 C11 H11 120.0 . .
C13 C12 C13 119.3(7) . 3_675
N1 C12 N1 119.4(7) . 3_675
C13 C12 C12 120.3(4) . 5_576
N1 C12 C12 120.3(4) . 5_576
C13 C12 C12 120.3(4) 3_675 5_576
N1 C12 C12 120.3(4) 3_675 5_576
N1 C12 Cu1 48.0(4) . .
N1 C12 Cu1 167.3(4) 3_675 .
C12 C12 Cu1 72.3(3) 5_576 .
N1 C12 Cu1 167.3(4) . 9_676
N1 C12 Cu1 48.0(4) 3_675 9_676
C12 C12 Cu1 72.3(3) 5_576 9_676
Cu1 C12 Cu1 144.7(5) . 9_676
C11 C13 C12 121.1(6) 3_675 .
C11 C13 H13 119.5 3_675 .
C12 C13 H13 119.5 . .
N2 C14 C15 168(7) . .
C14 C15 H15A 109.5 . .
C14 C15 H15B 109.5 . .
H15A C15 H15B 109.5 . .
C14 C15 H15C 109.5 . .
H15A C15 H15C 109.5 . .
H15B C15 H15C 109.5 . .
F3A C8A F1A 106.3(12) . .
F3A C8A F2A 107.1(12) . .
F1A C8A F2A 105.5(12) . .
F3A C8A C6 113.4(10) . .
F1A C8A C6 112.3(10) . .
F2A C8A C6 111.7(10) . .
loop_
_geom_bond_atom_site_label_1
_geom_bond_atom_site_label_2
_geom_bond_distance
_geom_bond_site_symmetry_2
I1 Cu1 2.60(4) .
Zr1 O4 2.130(7) 3_675
Zr1 O4 2.130(7) .
Zr1 O5 2.150(8) 9_677
Zr1 O5 2.150(8) 5_577
Zr1 O6 2.180(16) .
Zr1 O2 2.244(10) .
Zr1 O2 2.244(10) 13_655
Zr1 O3 2.242(14) .
Zr1 Zr1 3.474(3) 3_675
Zr1 Zr2 3.4964(16) .
Zr1 Zr2 3.4965(16) 9_677
Zr1 Zr1 3.510(3) 11_557
Zr2 O5 2.172(16) .
Zr2 O5 2.172(16) 5_577
Zr2 O4 2.160(14) .
Zr2 O4 2.160(14) 11_557
Zr2 O1 2.231(8) 5_577
Zr2 O1 2.231(8) 14_575
Zr2 O1 2.231(8) 11_557
Zr2 O1 2.232(8) .
Zr2 Zr1 3.4964(16) 9_677
Zr2 Zr1 3.4964(16) 11_557
Zr2 Zr1 3.4964(16) 3_675
Cu1 N1 1.86(2) .
Cu1 N1 1.86(2) 11_556
Cu1 C12 2.48(3) .
Cu1 C12 2.48(3) 5_576
Cu1 I1 2.60(4) 13_655
F1 C8 1.338(9) .
F2 C8 1.322(9) .
F3 C8 1.333(9) .
F1A C8A 1.333(10) .
F2A C8A 1.336(10) .
F3A C8A 1.320(9) .
O1 C7 1.220(18) .
O2 C7 1.31(2) .
O3 C9 1.355(9) .
O4 Zr1 2.130(7) 3_675
O5 Zr1 2.150(8) 9_677
O5 Zr1 2.150(8) 3_675
N1 C11 1.390(8) .
N1 C12 1.393(8) .
N2 C14 1.138(10) .
C1 C2 1.389(7) .
C1 C6 1.392(8) .
C1 C1 1.522(17) 8_666
C2 C3 1.399(8) .
C2 C8 1.496(9) .
C2 H2 0.9500 .
C3 C4 1.387(8) .
C3 H3 0.9500 .
C4 C5 1.388(8) .
C4 C7 1.471(16) .
C5 C6 1.394(8) .
C5 H5 0.9500 .
C6 C8A 1.498(9) .
C6 H6 0.9500 .
C9 O3 1.354(9) 3_675
C9 C10 1.510(10) .
C10 C11 1.404(8) .
C10 C11 1.404(8) 3_675
C11 C13 1.390(8) 3_675
C11 H11 0.9501 .
C12 C13 1.393(8) .
C12 C13 1.393(8) 3_675
C12 N1 1.393(8) 3_675
C12 C12 1.505(10) 5_576
C12 Cu1 2.48(3) 9_676
C13 C11 1.390(8) 3_675
C13 H13 0.9500 .
C14 C15 1.489(10) .
C15 H15A 0.9800 .
C15 H15B 0.9800 .
C15 H15C 0.9800 .
