#------------------------------------------------------------------------------
#$Date: 2019-11-03 10:42:11 +0200 (Sun, 03 Nov 2019) $
#$Revision: 221179 $
#$URL: file:///home/coder/svn-repositories/cod/cif/4/12/80/4128046.cif $
#------------------------------------------------------------------------------
#
# This file is available in the Crystallography Open Database (COD),
# http://www.crystallography.net/
#
# All data on this site have been placed in the public domain by the
# contributors.
#
data_4128046
loop_
_publ_author_name
'Vailonis, Kristina M.'
'Gnanasekaran, Karthikeyan'
'Powers, Xian B.'
'Gianneschi, Nathan C.'
'Jenkins, David M.'
_publ_section_title
;
 Elucidating the Growth of Metal-Organic Nanotubes Combining Isoreticular
 Synthesis with Liquid-Cell Transmission Electron Microscopy.
;
_journal_issue                   26
_journal_name_full               'Journal of the American Chemical Society'
_journal_page_first              10177
_journal_page_last               10182
_journal_paper_doi               10.1021/jacs.9b04586
_journal_volume                  141
_journal_year                    2019
_chemical_formula_moiety         'C16 H14 N6'
_chemical_formula_sum            'C16 H14 N6'
_chemical_formula_weight         290.33
_space_group_crystal_system      monoclinic
_space_group_IT_number           14
_space_group_name_Hall           '-P 2ybc'
_space_group_name_H-M_alt        'P 1 21/c 1'
_symmetry_space_group_name_Hall  '-P 2ybc'
_symmetry_space_group_name_H-M   'P 1 21/c 1'
_atom_sites_solution_hydrogens   geom
_atom_sites_solution_primary     intrinsic
_atom_sites_solution_secondary   difmap
_audit_creation_method           SHELXL-2016/6
_cell_angle_alpha                90
_cell_angle_beta                 113.6220(10)
_cell_angle_gamma                90
_cell_formula_units_Z            4
_cell_length_a                   7.8714(10)
_cell_length_b                   19.446(2)
_cell_length_c                   9.6231(12)
_cell_measurement_reflns_used    3495
_cell_measurement_temperature    100(2)
_cell_measurement_theta_max      24.76
_cell_measurement_theta_min      2.54
_cell_volume                     1349.6(3)
_computing_structure_refinement  'SHELXL-2016/6 (Sheldrick, 2016)'
_computing_structure_solution    'SHELXT 2014/4 (Sheldrick, 2014)'
_diffrn_ambient_temperature      100(2)
_diffrn_measured_fraction_theta_full 1.000
_diffrn_measured_fraction_theta_max 1.000
_diffrn_measurement_device_type  'Bruker APEX II Smart CCD'
_diffrn_radiation_type           MoK\a
_diffrn_radiation_wavelength     0.71073
_diffrn_reflns_av_R_equivalents  0.0317
_diffrn_reflns_av_unetI/netI     0.0229
_diffrn_reflns_Laue_measured_fraction_full 1.000
_diffrn_reflns_Laue_measured_fraction_max 1.000
_diffrn_reflns_limit_h_max       9
_diffrn_reflns_limit_h_min       -9
_diffrn_reflns_limit_k_max       23
_diffrn_reflns_limit_k_min       -23
_diffrn_reflns_limit_l_max       11
_diffrn_reflns_limit_l_min       -11
_diffrn_reflns_number            13246
_diffrn_reflns_point_group_measured_fraction_full 1.000
_diffrn_reflns_point_group_measured_fraction_max 1.000
_diffrn_reflns_theta_full        25.026
_diffrn_reflns_theta_max         25.026
_diffrn_reflns_theta_min         2.095
_exptl_absorpt_coefficient_mu    0.092
_exptl_absorpt_correction_T_max  0.7452
_exptl_absorpt_correction_T_min  0.6653
_exptl_absorpt_correction_type   multi-scan
_exptl_absorpt_process_details   'SADABS (Sheldrick)'
_exptl_crystal_colour            colorless
_exptl_crystal_density_diffrn    1.429
_exptl_crystal_description       plate
_exptl_crystal_F_000             608
_exptl_crystal_size_max          0.295
_exptl_crystal_size_mid          0.189
_exptl_crystal_size_min          0.040
_refine_diff_density_max         0.184
_refine_diff_density_min         -0.193
_refine_diff_density_rms         0.042
_refine_ls_extinction_method     none
_refine_ls_goodness_of_fit_ref   1.052
_refine_ls_hydrogen_treatment    constr
_refine_ls_matrix_type           full
_refine_ls_number_parameters     199
_refine_ls_number_reflns         2389
_refine_ls_number_restraints     0
_refine_ls_restrained_S_all      1.052
_refine_ls_R_factor_all          0.0483
_refine_ls_R_factor_gt           0.0379
_refine_ls_shift/su_max          0.000
_refine_ls_shift/su_mean         0.000
_refine_ls_structure_factor_coef Fsqd
_refine_ls_weighting_details
'w=1/[\s^2^(Fo^2^)+(0.0553P)^2^+0.3700P] where P=(Fo^2^+2Fc^2^)/3'
_refine_ls_weighting_scheme      calc
_refine_ls_wR_factor_gt          0.0944
_refine_ls_wR_factor_ref         0.1027
_reflns_Friedel_coverage         0.000
_reflns_number_gt                1966
_reflns_number_total             2389
_reflns_threshold_expression     'I > 2\s(I)'
_cod_data_source_file            ja9b04586_si_003.cif
_cod_data_source_block           14_a
_cod_original_cell_volume        1349.5(3)
_cod_database_code               4128046
_shelx_shelxl_version_number     2016/6
_shelx_space_group_comment
;
The symmetry employed for this shelxl refinement is uniquely defined
by the following loop, which should always be used as a source of
symmetry information in preference to the above space-group names.
They are only intended as comments.
;
_shelx_estimated_absorpt_t_min   0.973
_shelx_estimated_absorpt_t_max   0.996
_shelx_res_file
;

TITL 14_a.res in P2(1)/c
    14_a.res
    created by SHELXL-2016/6 at 17:00:39 on 31-May-2019
CELL  0.71073   7.8714  19.4457   9.6231   90.000  113.622   90.000
ZERR    4.000   0.0010   0.0024   0.0012    0.000    0.001    0.000
LATT  1
SYMM -X, 1/2+Y, 1/2-Z
SFAC C H N
UNIT 64 56 24
TEMP -173.15
SIZE 0.04 0.189 0.295
L.S. 10
BOND $H
CONF
ACTA
FMAP 2
PLAN 20
WGHT    0.055300    0.370000
FVAR       0.69815
N1    3    0.569196    0.298642    0.117722    11.00000    0.01960    0.02239 =
         0.02108   -0.00235    0.00984   -0.00111
C1    1    0.578236    0.340466    0.008787    11.00000    0.03225    0.03057 =
         0.02525    0.00179    0.01505    0.00097
AFIX  43
H1    2    0.495125    0.377344   -0.036142    11.00000   -1.20000
AFIX   0
C2    1    0.713905    0.254651    0.149492    11.00000    0.02259    0.02423 =
         0.02684   -0.00523    0.00969   -0.00056
AFIX  43
H2    2    0.744467    0.219097    0.223223    11.00000   -1.20000
AFIX   0
N2    3    0.716968    0.323369   -0.026621    11.00000    0.03601    0.03589 =
         0.03277   -0.00340    0.02108   -0.00446
N3    3    0.805541    0.267579    0.065527    11.00000    0.02634    0.03309 =
         0.03485   -0.01019    0.01595   -0.00357
C3    1    0.436951    0.301964    0.188993    11.00000    0.01995    0.02481 =
         0.02358   -0.00105    0.01141   -0.00120
AFIX  23
H3A   2    0.417597    0.255032    0.219791    11.00000   -1.20000
H3B   2    0.316458    0.318661    0.113570    11.00000   -1.20000
AFIX   0
N4    3    0.900905    0.471028    0.809393    11.00000    0.01919    0.02304 =
         0.02166   -0.00250    0.00879   -0.00059
C4    1    0.499034    0.348412    0.326237    11.00000    0.01902    0.01815 =
         0.01955    0.00274    0.00768    0.00315
C5    1    0.656788    0.387261    0.368931    11.00000    0.01921    0.02149 =
         0.02400    0.00098    0.01214    0.00207
AFIX  43
H5    2    0.725791    0.387387    0.307455    11.00000   -1.20000
AFIX   0
N5    3    1.188880    0.435616    0.930194    11.00000    0.02373    0.03504 =
         0.02806   -0.00551    0.00964    0.00127
N6    3    1.191993    0.499699    0.865305    11.00000    0.02551    0.03529 =
         0.03298   -0.00748    0.01462   -0.00467
C6    1    0.718737    0.427077    0.502403    11.00000    0.01824    0.01912 =
         0.02472    0.00052    0.00927   -0.00110
AFIX  43
H6    2    0.830230    0.452711    0.529948    11.00000   -1.20000
AFIX   0
C7    1    0.622760    0.429836    0.593409    11.00000    0.01852    0.01894 =
         0.02102    0.00233    0.00734    0.00339
C8    1    0.450178    0.393915    0.547454    11.00000    0.01859    0.01879 =
         0.02064    0.00351    0.00788    0.00487
C9    1    0.335355    0.398289    0.629688    11.00000    0.02094    0.02472 =
         0.02052    0.00189    0.00912    0.00334
AFIX  43
H9    2    0.370650    0.427592    0.715687    11.00000   -1.20000
AFIX   0
C10   1    0.174567    0.360937    0.586983    11.00000    0.02128    0.02969 =
         0.02411    0.00470    0.01318    0.00463
AFIX  43
H10   2    0.100858    0.364060    0.644400    11.00000   -1.20000
AFIX   0
C11   1    0.118209    0.318049    0.458708    11.00000    0.01853    0.02570 =
         0.02799    0.00420    0.00907   -0.00035
AFIX  43
H11   2    0.007735    0.291772    0.430953    11.00000   -1.20000
AFIX   0
C12   1    0.221582    0.313942    0.373603    11.00000    0.01894    0.02338 =
         0.02238    0.00143    0.00782    0.00130
AFIX  43
H12   2    0.180593    0.285461    0.286074    11.00000   -1.20000
AFIX   0
C13   1    0.389930    0.351777    0.414342    11.00000    0.01746    0.01878 =
         0.02178    0.00465    0.00785    0.00311
C14   1    0.697764    0.470105    0.741172    11.00000    0.01742    0.02438 =
         0.02332   -0.00144    0.00824    0.00098
AFIX  23
H14A  2    0.650938    0.517915    0.721554    11.00000   -1.20000
H14B  2    0.651896    0.449136    0.813354    11.00000   -1.20000
AFIX   0
C15   1    1.014016    0.420546    0.894143    11.00000    0.02382    0.02477 =
         0.02201   -0.00241    0.00837    0.00143
AFIX  43
H15   2    0.971890    0.379509    0.923610    11.00000   -1.20000
AFIX   0
C16   1    1.019177    0.518781    0.795165    11.00000    0.02714    0.02531 =
         0.03000   -0.00287    0.01414   -0.00411
AFIX  43
H16   2    0.980948    0.560751    0.741018    11.00000   -1.20000

AFIX   0
HKLF 4




REM  14_a.res in P2(1)/c
REM R1 =  0.0379 for    1966 Fo > 4sig(Fo)  and  0.0483 for all    2389 data
REM    199 parameters refined using      0 restraints

END

WGHT      0.0553      0.3700

REM Highest difference peak  0.184,  deepest hole -0.193,  1-sigma level  0.042
Q1    1   0.4593  0.3385  0.3818  11.00000  0.05    0.18
Q2    1   0.2991  0.3496  0.3811  11.00000  0.05    0.17
Q3    1   0.4269  0.3649  0.3436  11.00000  0.05    0.16
Q4    1   0.9141  0.3868  0.9609  11.00000  0.05    0.15
Q5    1   0.8103  0.4710  0.7711  11.00000  0.05    0.15
Q6    1   0.5320  0.3788  0.3148  11.00000  0.05    0.14
Q7    1   0.4413  0.3638  0.5052  11.00000  0.05    0.14
Q8    1   0.5791  0.4005  0.5952  11.00000  0.05    0.14
Q9    1   0.2404  0.2596  0.5683  11.00000  0.05    0.13
Q10   1   0.5112  0.4253  0.5390  11.00000  0.05    0.13
Q11   1   0.4656  0.3415  0.2631  11.00000  0.05    0.13
Q12   1   0.5422  0.3985  0.0253  11.00000  0.05    0.13
Q13   1   1.3168  0.4164  0.9562  11.00000  0.05    0.13
Q14   1   1.2813  0.5048  0.8215  11.00000  0.05    0.13
Q15   1   0.5306  0.3059  0.0367  11.00000  0.05    0.13
Q16   1   1.1586  0.4308  0.7809  11.00000  0.05    0.13
Q17   1   0.8007  0.3604 -0.0326  11.00000  0.05    0.13
Q18   1   0.4668  0.2538  0.0299  11.00000  0.05    0.13
Q19   1   0.6908  0.4124  0.5679  11.00000  0.05    0.13
Q20   1   0.7222  0.3609  0.0422  11.00000  0.05    0.13
;
_shelx_res_checksum              25150
_shelx_hkl_file
;
  -1   0   0 1671.53   21.10
  -1   0   0 1642.44   19.00
   1   0   0 1655.03   20.50
  -1   0   0 1663.93   20.50
  -2   0   0  852.01   11.70
  -2   0   0  881.31   15.10
   2   0   0  872.81   14.30
  -2   0   0  891.71   14.30
  -3   0   0    1.80    0.90
   3   0   0    1.00    1.30
  -3   0   0   -1.70    1.20
  -3   0   0    0.30    1.50
  -4   0   0   10.70    2.90
  -4   0   0   13.30    1.80
   4   0   0   10.80    2.50
  -4   0   0   12.60    2.70
  -5   0   0  199.88    8.90
   5   0   0  190.68    8.70
  -5   0   0  181.18    9.30
  -6   0   0   58.29    6.50
  -6   0   0   63.59    7.70
   6   0   0   55.79    6.40
   7   0   0   96.29   11.70
   7   0   0   81.29    8.50
  -7   0   0   95.99    9.90
  -7   0   0   75.39    8.10
  -8   0   0   82.59    8.90
   8   0   0   92.39   12.00
   0  -1   0    0.20    0.20
   0  -1   0    0.10    0.20
   0   1   0   -0.30    0.20
  -1  -1   0  310.47    5.50
  -1  -1   0  312.47    6.10
   1  -1   0  309.07    6.60
   1  -1   0  310.57    5.10
   1   1   0  315.17    4.30
  -1   1   0  315.47    5.30
  -1   1   0  301.37    5.80
   1   1   0  322.47    6.30
  -2  -1   0  946.91   16.00
   2  -1   0  968.70   14.80
  -2  -1   0  944.21   12.00
  -2  -1   0  930.51   14.80
   2   1   0  958.50   15.70
  -2   1   0  955.80   16.00
  -2   1   0  942.31   15.20
  -2   1   0  948.21   13.30
  -3  -1   0  470.95    7.50
  -3  -1   0  462.45   11.90
  -3  -1   0  465.25   10.70
   3  -1   0  465.95   10.60
  -3   1   0  481.35   11.90
   3   1   0  462.55   11.50
  -3   1   0  452.95   10.90
  -3   1   0  456.85    8.60
  -4  -1   0  315.97   11.00
  -4  -1   0  321.17    6.30
  -4  -1   0  312.57    9.90
   4  -1   0  321.87    9.90
  -4   1   0  319.97    7.40
   4   1   0  310.47   10.50
  -4   1   0  310.87   10.90
  -4   1   0  303.17   10.00
   5  -1   0   54.49    5.70
  -5  -1   0   55.79    5.70
  -5  -1   0   46.00    5.50
   5   1   0   49.60    5.70
  -5   1   0   61.59    6.20
  -5   1   0   60.89    6.50
   6  -1   0   44.20    7.20
  -6  -1   0   38.10    5.10
   6  -1   0   42.80    5.50
  -6  -1   0   41.70    5.80
  -6   1   0   41.70    5.60
   6   1   0   50.09    6.10
  -7  -1   0    0.60    2.50
   7  -1   0   -1.20    2.80
  -7  -1   0    2.10    2.50
   7  -1   0    0.10    3.90
  -7   1   0    3.00    2.50
   7   1   0    2.20    2.30
  -8  -1   0   60.89    7.60
   8  -1   0   51.39    9.40
  -8   1   0   52.59    7.60
   8   1   0   59.69    9.50
   0  -2   0   12.10    0.90
   0  -2   0   14.00    1.20
   0   2   0   11.70    1.00
   0   2   0   10.10    1.00
  -1  -2   0 2595.84   30.40
   1  -2   0 2606.44   32.40
   1  -2   0 2599.94   28.90
  -1  -2   0 2591.24   31.60
   1   2   0 2567.94   32.00
  -1   2   0 2514.55   31.00
  -1   2   0 2602.44   31.00
   1   2   0 2573.74   29.30
   2  -2   0   15.20    2.80
  -2  -2   0   11.20    1.90
   2  -2   0   15.20    1.80
  -2  -2   0   12.40    2.20
   2   2   0   19.30    2.80
  -2   2   0   14.40    1.90
  -2   2   0   12.90    2.20
   2   2   0   15.10    1.20
   3  -2   0  746.83   13.70
  -3  -2   0  707.33   15.40
   3  -2   0  758.72   17.10
  -3  -2   0  733.63   14.10
   3   2   0  722.63    9.90
  -3   2   0  707.73   12.50
   3   2   0  712.23   15.50
  -3   2   0  733.93   14.70
  -4  -2   0   33.20    4.40
   4  -2   0   32.20    3.70
   4  -2   0   23.50    4.00
  -4  -2   0   29.40    3.60
  -4   2   0   31.60    3.00
   4   2   0   32.90    1.70
  -4   2   0   34.40    4.20
   4   2   0   37.50    4.80
  -5  -2   0    0.90    1.80
   5  -2   0   -1.30    1.20
   5  -2   0    1.80    2.30
  -5  -2   0    2.10    2.30
   5   2   0    2.30    1.90
  -5   2   0   -0.20    1.50
   6  -2   0  237.08   13.10
   6  -2   0  247.48   10.40
  -6  -2   0  238.38   10.60
  -6  -2   0  242.88   11.90
   6   2   0  237.78   11.40
  -6   2   0  244.58   11.00
   7  -2   0   52.79    8.30
  -7  -2   0   43.40    7.10
  -7  -2   0   33.90    5.60
   7   2   0   38.50    6.30
  -7   2   0   28.60    5.40
   8  -2   0    3.10    4.20
  -8  -2   0    7.00    4.20
  -8  -2   0    4.20    2.90
   8   2   0    6.30    3.50
  -8   2   0    3.00    3.10
   0  -3   0   -0.10    0.60
   0  -3   0    0.40    0.80
   0   3   0    0.10    0.90
   0   3   0   -0.50    0.80
  -1  -3   0  243.88    6.00
  -1  -3   0  248.78    5.00
   1  -3   0  250.27    6.30
   1   3   0  247.28    4.90
  -1   3   0  251.77    5.70
  -1   3   0  245.58    5.90
   1   3   0  235.18    6.20
   2  -3   0  170.98    6.60
   2  -3   0  166.98    4.20
  -2  -3   0  173.28    6.10
  -2  -3   0  166.68    5.10
   2   3   0  174.68    6.40
  -2   3   0  164.48    5.20
   2   3   0  172.18    3.70
  -2   3   0  164.08    5.50
   3  -3   0   70.59    3.50
  -3  -3   0   76.09    4.80
  -3  -3   0   61.09    3.90
   3  -3   0   71.49    5.40
   3   3   0   68.79    4.90
   3   3   0   64.09    2.20
  -3   3   0   66.79    4.20
  -3   3   0   68.29    3.70
   4  -3   0  642.34   17.80
  -4  -3   0  629.94   14.40
  -4  -3   0  622.34   16.10
   4  -3   0  629.64   13.50
   4   3   0  635.44   16.10
  -4   3   0  615.24   12.50
  -4   3   0  636.24   15.20
  -5  -3   0   12.60    3.40
   5  -3   0   14.40    3.80
   5  -3   0   14.00    2.80
  -5  -3   0   15.00    3.10
   5   3   0   21.80    4.10
  -5   3   0   17.40    2.60
  -5   3   0   22.30    4.20
  -6  -3   0   13.20    4.00
   6  -3   0   17.40    4.90
  -6  -3   0   22.00    4.20
   6  -3   0   19.60    4.10
   6   3   0   16.60    4.10
  -6   3   0   14.90    3.90
  -7  -3   0  201.78   10.70
  -7  -3   0  201.08   12.20
   7  -3   0  202.18   13.60
   7   3   0  193.58   11.20
  -7   3   0  209.28   11.40
  -8  -3   0    4.00    3.00
  -8  -3   0    5.70    4.30
   8  -3   0    2.00    4.20
  -8   3   0    1.10    2.50
   8   3   0    3.10    3.20
   0  -4   0  128.99    3.50
   0  -4   0  124.79    4.00
   0   4   0  125.79    4.20
   0   4   0  128.29    3.60
  -1  -4   0 3045.70   38.00
   1  -4   0 3049.29   38.20
  -1  -4   0 3058.39   35.80
  -1   4   0 2990.30   36.90
   1   4   0 3016.60   38.20
   1   4   0 3024.30   36.20
  -2  -4   0  637.44   12.90
   2  -4   0  602.74   13.40
   2  -4   0  640.14    9.00
  -2  -4   0  631.24   11.20
   2   4   0  635.74    9.70
  -2   4   0  631.24   12.20
   2   4   0  624.44   13.30
  -2   4   0  631.24   12.20
   3  -4   0   63.99    5.20
  -3  -4   0   69.09    4.80
  -3  -4   0   70.19    4.00
   3  -4   0   67.89    3.20
  -3   4   0   71.89    4.10
   3   4   0   64.29    5.00
  -3   4   0   70.89    4.50
   3   4   0   71.09    2.40
   4  -4   0  119.39    5.10
  -4  -4   0  114.59    5.80
   4  -4   0  115.99    7.60
  -4  -4   0  105.29    6.60
  -4   4   0  110.49    5.20
   4   4   0  110.39    6.70
  -4   4   0  118.69    6.40
  -5  -4   0    1.30    2.10
   5  -4   0    0.10    2.00
   5  -4   0    1.40    1.50
  -5  -4   0    2.60    1.90
  -5   4   0    4.90    2.00
  -5   4   0    5.20    2.30
   5   4   0    5.50    2.60
  -6  -4   0   37.00    5.80
   6  -4   0   33.10    6.30
  -6  -4   0   39.40    5.40
  -6   4   0   42.50    6.00
   6   4   0   29.80    5.20
   7  -4   0    8.40    4.30
  -7  -4   0   11.50    4.40
  -7  -4   0   17.50    4.20
  -7   4   0   15.30    4.10
   7   4   0   14.30    4.80
  -8  -4   0   39.50    7.20
  -8  -4   0   52.09    7.50
   8  -4   0   32.40    7.80
   8   4   0   43.10    7.10
  -8   4   0   45.10    6.90
   0  -5   0    1.00    1.00
   0  -5   0   -1.20    1.00
   0   5   0    0.30    1.10
   0   5   0   -0.70    1.40
   1  -5   0 2770.32   36.30
  -1  -5   0 2819.22   33.70
  -1  -5   0 2756.92   35.90
  -1   5   0 2827.32   36.50
   1   5   0 2749.82   36.40
  -1   5   0 2804.42   35.00
   1   5   0 2810.52   34.80
  -2  -5   0   53.49    3.10
   2  -5   0   48.50    4.00
  -2  -5   0   58.79    3.80
  -2   5   0   49.70    3.50
   2   5   0   46.00    4.20
  -2   5   0   55.29    3.80
   2   5   0   51.79    2.60
  -3  -5   0    3.80    1.60
   3  -5   0   10.10    1.40
  -3  -5   0    6.50    2.10
   3  -5   0    7.10    2.50
   3   5   0    7.80    2.70
  -3   5   0    8.20    2.10
   3   5   0    8.70    1.40
  -3   5   0    4.50    1.80
  -4  -5   0   54.69    4.30
   4  -5   0   36.00    2.80
   4  -5   0   35.50    5.20
  -4  -5   0   35.60    4.50
   4   5   0   51.79    6.00
  -4   5   0   38.60    4.70
   4   5   0   39.90    1.90
  -4   5   0   42.20    4.20
  -5  -5   0   21.30    4.20
  -5  -5   0   19.10    3.50
   5  -5   0   13.70    3.90
  -5   5   0   19.20    3.80
   5   5   0   19.50    4.20
  -5   5   0   17.70    3.10
  -6  -5   0   15.70    3.80
  -6  -5   0   15.90    4.40
   6  -5   0   10.60    4.30
  -6   5   0   24.00    4.70
   6   5   0   25.40    5.40
  -7  -5   0   35.40    7.00
   7  -5   0   26.60    6.30
  -7  -5   0   32.00    5.40
  -7   5   0   19.10    4.30
   7   5   0   35.90    6.60
   8  -5   0    8.70    4.90
  -8  -5   0    6.50    3.30
  -8  -5   0    5.00    4.00
  -8   5   0    5.00    3.40
   8   5   0    7.10    3.90
   0  -6   0  279.37    6.40
   0  -6   0  286.17    7.40
   0   6   0  272.27    6.50
   0   6   0  286.87    7.70
   1  -6   0    1.00    1.30
  -1  -6   0   -1.00    0.80
  -1  -6   0    0.90    1.30
  -1   6   0    1.70    1.30
   1   6   0    0.10    1.20
  -1   6   0    2.00    1.50
   1   6   0   -0.90    1.40
  -1   6   0   -0.50    0.60
  -2  -6   0  224.28    7.70
   2  -6   0  238.18    8.30
  -2  -6   0  231.38    6.30
   2   6   0  236.18    6.10
   2   6   0  247.28    8.50
  -2   6   0  243.88    7.90
  -2   6   0  230.48    7.20
  -3  -6   0  644.74   15.30
   3  -6   0  660.63    9.70
  -3  -6   0  673.73   13.40
   3  -6   0  655.33   16.50
  -3   6   0  642.14   14.70
   3   6   0  646.54   11.00
   3   6   0  645.14   16.40
  -3   6   0  657.43   14.60
   4  -6   0   16.20    2.00
  -4  -6   0   11.40    2.90
  -4  -6   0   12.80    2.70
   4  -6   0   21.20    4.30
  -4   6   0   16.30    3.20
   4   6   0   11.80    3.30
  -4   6   0   17.20    3.00
   4   6   0   19.40    1.90
  -5  -6   0    5.50    2.20
  -5  -6   0    4.70    2.50
   5  -6   0    6.00    2.80
   5   6   0    4.50    2.80
  -5   6   0    3.50    2.00
  -5   6   0    3.60    2.40
  -6  -6   0   83.89    6.50
  -6  -6   0   83.59    8.50
   6  -6   0  109.29   11.30
   6   6   0   98.99   10.20
  -6   6   0   94.79    9.00
   7  -6   0    0.90    3.40
  -7  -6   0   -1.10    2.10
  -7  -6   0   -0.90    2.60
  -7   6   0    2.00    2.40
   7   6   0    0.10    2.70
  -8  -6   0    2.90    4.00
  -8  -6   0    0.00    2.60
   8  -6   0    0.30    3.60
   8   6   0    6.60    4.50
  -8   6   0    1.00    2.80
   0  -7   0   -1.10    1.10
   0  -7   0    0.30    0.90
   0   7   0   -0.90    1.20
   0   7   0   -1.10    1.30
   1  -7   0    4.40    1.80
  -1  -7   0    8.20    2.00
  -1  -7   0    2.00    1.10
  -1   7   0    3.70    1.50
   1   7   0    7.90    1.80
   1   7   0    3.40    1.80
  -1   7   0    5.20    1.00
  -1   7   0    1.70    1.60
   2  -7   0  321.27    9.90
  -2  -7   0  303.77    9.20
  -2  -7   0  317.87    7.70
   2   7   0  318.87    7.90
  -2   7   0  320.37    9.60
  -2   7   0  317.67    9.00
   2   7   0  302.17   10.00
  -3  -7   0  363.56   11.50
   3  -7   0  383.56   12.40
  -3  -7   0  379.96    9.70
  -3   7   0  396.66   11.20
   3   7   0  382.16    8.30
  -3   7   0  388.66   11.10
   3   7   0  380.26   12.40
  -4  -7   0   94.79    5.30
  -4  -7   0   86.29    6.30
   4  -7   0  103.19    7.30
  -4   7   0   92.09    5.80
  -4   7   0   91.79    6.10
   4   7   0   88.29    6.70
  -5  -7   0   83.19    6.80
   5  -7   0   66.79    8.00
  -5  -7   0   69.09    5.30
  -5   7   0   63.29    5.20
  -5   7   0   50.19    5.70
   5   7   0   71.89    7.90
   6  -7   0  115.79    9.80
  -6  -7   0  123.99    7.50
  -6  -7   0  109.69    8.80
   6   7   0  122.79   11.60
  -6   7   0  111.79    8.20
  -7  -7   0   27.30    6.20
  -7  -7   0   22.90    4.50
   7  -7   0   18.40    5.50
  -7   7   0   15.90    4.40
   7   7   0   18.80    4.90
   8  -7   0   17.30    6.30
  -8  -7   0   10.40    4.80
  -8   7   0   16.30    4.50
   8   7   0   13.90    5.20
   0  -8   0  229.58    7.50
   0  -8   0  232.48    6.40
   0   8   0  238.28    7.90
   0   8   0  229.28    6.70
  -1  -8   0   22.30    2.40
  -1  -8   0   25.40    3.40
   1  -8   0   15.00    2.50
  -1   8   0   17.80    3.10
  -1   8   0   21.00    1.90
   1   8   0   20.80    2.80
  -1   8   0   21.90    2.80
   1   8   0   21.80    3.20
  -2  -8   0    4.30    1.50
   2  -8   0    1.80    1.60
  -2  -8   0    1.10    1.50
   2   8   0    2.80    1.50
  -2   8   0    3.20    1.40
  -2   8   0    5.60    2.30
   2   8   0    2.00    1.90
  -3  -8   0    3.60    2.00
  -3  -8   0    3.10    1.60
   3  -8   0    7.90    2.70
  -3   8   0    2.90    1.90
   3   8   0    4.30    2.40
   3   8   0    4.90    1.60
  -3   8   0    5.30    2.30
  -4  -8   0    1.40    1.40
  -4  -8   0    0.50    1.70
   4  -8   0    0.50    2.00
  -4   8   0    0.80    1.70
   4   8   0    1.20    2.30
  -4   8   0    1.80    2.00
  -5  -8   0    2.90    2.20
   5  -8   0    2.80    2.70
  -5  -8   0    3.90    2.80
   5   8   0    4.70    3.00
  -5   8   0    3.50    2.60
  -5   8   0    3.20    2.30
  -6  -8   0  180.48   10.90
   6  -8   0  178.48   11.90
  -6  -8   0  185.08    9.30
  -6   8   0  192.68   10.80
   6   8   0  178.98   11.30
  -7  -8   0   45.80    6.10
  -7  -8   0   73.89    9.80
   7  -8   0   46.10    7.90
  -7   8   0   38.60    6.10
   7   8   0   48.50    8.20
  -8  -8   0   24.20    6.10
   8  -8   0   21.90    6.50
   8   8   0   19.60    6.00
  -8   8   0   24.70    5.80
   0  -9   0   -0.20    1.30
   0  -9   0   -1.30    0.90
   0   9   0   -2.50    1.30
   0   9   0   -1.90    1.10
  -1  -9   0  424.76    9.20
   1  -9   0  422.76   11.30
  -1  -9   0  429.26   11.50
  -1   9   0  423.56   12.00
  -1   9   0  420.26    7.90
   1   9   0  415.06   10.90
   1   9   0  420.46   11.30
  -1   9   0  429.26   10.10
  -2  -9   0  503.05   13.10
  -2  -9   0  497.45   10.60
   2  -9   0  493.35   13.40
   2   9   0  506.75   13.90
  -2   9   0  485.15   13.50
  -2   9   0  479.05   11.90
   2   9   0  479.45   11.40
  -3  -9   0   -0.60    1.30
   3  -9   0    0.80    1.60
  -3  -9   0   -0.10    1.30
  -3   9   0   -0.40    1.70
   3   9   0    0.10    1.10
   3   9   0   -2.90    1.50
  -3   9   0   -0.80    1.60
   4  -9   0   90.69    7.20
  -4  -9   0   91.79    5.40
  -4  -9   0   90.89    6.60
   4   9   0   99.79    7.50
  -4   9   0   89.19    6.40
  -4   9   0   96.89    6.40
  -5  -9   0   23.30    4.70
  -5  -9   0   21.00    3.70
   5  -9   0   38.00    6.40
   5   9   0   30.60    5.90
  -5   9   0   27.80    4.80
  -5   9   0   17.60    3.80
  -6  -9   0   10.40    4.00
  -6  -9   0   23.50    4.30
   6  -9   0   15.10    4.90
   6   9   0   32.60    6.80
  -6   9   0   22.10    4.70
  -7  -9   0   46.60    7.60
   7  -9   0   49.10    8.50
   7   9   0   56.69    8.90
  -7   9   0   39.60    6.30
   0 -10   0   43.40    3.20
   0 -10   0   54.19    5.10
   0  10   0   46.70    4.80
   0  10   0   42.00    3.90
   1 -10   0    5.70    1.80
  -1 -10   0    2.60    1.30
  -1 -10   0    7.40    2.30
   1 -10   0    7.00    2.20
  -1  10   0    4.80    2.30
   1  10   0    1.90    1.90
  -1  10   0    6.60    1.50
   1  10   0    3.60    1.90
  -2 -10   0   63.99    3.90
   2 -10   0   59.79    5.00
  -2 -10   0   63.99    4.90
   2  10   0   51.29    5.40
   2  10   0   65.99    4.50
  -2  10   0   62.79    6.00
  -2  10   0   63.49    4.50
  -3 -10   0   19.70    3.40
  -3 -10   0   22.90    2.90
   3 -10   0   20.40    3.80
  -3  10   0   18.20    3.90
   3  10   0   19.80    4.00
  -3  10   0   23.10    3.60
   3  10   0   27.60    3.30
   4 -10   0    0.20    2.10
  -4 -10   0    8.10    3.10
  -4 -10   0    3.20    1.90
   4  10   0    2.80    2.50
  -4  10   0    4.10    2.60
  -4  10   0    7.00    3.00
  -5 -10   0   23.80    4.70
   5 -10   0   23.60    5.40
  -5 -10   0   26.50    4.30
  -5  10   0   25.20    4.80
   5  10   0   24.40    5.20
  -5  10   0   22.00    4.20
   6 -10   0    3.70    3.10
  -6 -10   0    2.60    2.80
   6  10   0    4.70    3.40
  -6  10   0    3.50    2.90
  -7 -10   0   13.20    5.00
   7 -10   0    2.80    3.90
  -7  10   0    6.40    3.90
   7  10   0    8.20    4.20
   0 -11   0    0.30    1.20
   0 -11   0   -1.00    1.40
   0  11   0    0.60    1.60
   0  11   0    0.60    1.50
   1 -11   0    3.00    1.60
   1 -11   0    4.80    2.10
  -1 -11   0    7.00    1.80
  -1 -11   0    7.50    2.40
   1  11   0    4.70    2.30
   1  11   0    6.20    2.20
  -1  11   0    5.40    1.50
  -1  11   0    8.30    2.70
   2 -11   0  344.67   12.00
  -2 -11   0  340.67    9.20
  -2 -11   0  368.76   12.10
   2  11   0  346.97   12.00
  -2  11   0  336.37   12.00
   2  11   0  364.86   10.70
  -2  11   0  350.16   10.50
  -3 -11   0   94.69    5.20
  -3 -11   0  100.49    6.80
   3 -11   0   82.19    6.30
   3  11   0   84.29    6.90
  -3  11   0   96.29    6.20
  -3  11   0   88.19    6.60
   3  11   0   81.19    5.00
   4 -11   0   32.90    5.70
  -4 -11   0   22.30    3.40
  -4 -11   0   31.80    5.30
  -4  11   0   24.70    4.50
  -4  11   0   17.30    3.60
   4  11   0   32.40    5.80
  -5 -11   0   44.00    6.20
   5 -11   0   33.20    6.00
  -5  11   0   34.10    5.80
   5  11   0   42.40    6.50
  -5  11   0   44.60    6.00
  -6 -11   0   91.29   10.10
   6 -11   0   65.59    8.70
  -6  11   0   62.69    7.20
  -6  11   0   57.89    7.60
   6  11   0   64.49    8.50
   7 -11   0   13.30    5.20
  -7 -11   0    9.10    4.40
  -7  11   0   13.60    5.10
   7  11   0    9.70    5.00
   0 -12   0  300.37   10.70
   0 -12   0  298.57    9.00
   0  12   0  315.27   11.10
   0  12   0  297.57    9.20
   1 -12   0   22.90    3.80
  -1 -12   0   13.30    3.10
  -1 -12   0   13.80    2.40
   1 -12   0   13.90    2.70
   1  12   0   14.30    3.20
  -1  12   0   15.30    3.40
   1  12   0   16.50    3.30
  -1  12   0   21.90    2.60
  -2 -12   0  124.49    7.30
   2 -12   0  114.29    7.10
  -2 -12   0  118.79    5.40
   2  12   0  122.29    6.60
   2  12   0  113.89    7.40
  -2  12   0  108.19    6.10
  -2  12   0  122.69    7.60
   3 -12   0   27.30    4.40
  -3 -12   0   25.10    3.40
  -3 -12   0   36.90    5.20
  -3  12   0   25.60    4.50
   3  12   0   30.70    4.00
   3  12   0   27.00    4.90
  -3  12   0   30.10    4.40
  -4 -12   0   85.69    7.20
  -4 -12   0   80.89    5.40
   4 -12   0   80.39    8.30
  -4  12   0   88.09    6.90
  -4  12   0   88.79    7.10
   4  12   0   78.89    8.60
   5 -12   0    3.40    3.40
  -5 -12   0    2.40    2.80
   5  12   0    3.10    3.10
  -5  12   0    2.60    2.80
  -5  12   0    2.10    3.00
   6 -12   0   13.00    4.70
  -6 -12   0   15.30    4.70
  -6  12   0   17.60    4.60
  -6  12   0   12.60    4.40
   6  12   0    8.30    4.40
   7 -12   0    0.20    3.60
  -7 -12   0   -1.30    3.20
   7  12   0    2.80    3.80
  -7  12   0    1.60    4.00
   0 -13   0    2.40    2.00
   0 -13   0   -0.90    1.30
   0  13   0    0.30    1.60
   0  13   0    2.70    2.30
   1 -13   0  171.58    7.30
   1 -13   0  161.58    8.10
  -1 -13   0  157.18    6.50
  -1 -13   0  164.48    8.40
  -1  13   0  163.68    8.50
   1  13   0  167.88    8.20
   1  13   0  167.48    8.20
  -2 -13   0   99.09    6.80
  -2 -13   0   91.79    5.00
   2 -13   0   78.69    6.50
   2  13   0   87.49    6.70
   2  13   0   88.89    6.10
  -2  13   0   84.49    5.50
  -2  13   0   97.69    7.10
  -3 -13   0   43.00    4.40
  -3 -13   0   66.19    7.20
   3 -13   0   46.30    6.20
  -3  13   0   45.90    6.00
  -3  13   0   45.00    5.00
   3  13   0   53.99    5.50
   3  13   0   29.00    5.30
  -4 -13   0    3.80    3.10
   4 -13   0   12.40    3.90
   4  13   0    7.40    3.70
  -4  13   0    6.30    3.00
  -4  13   0    9.50    3.60
  -5 -13   0    1.10    2.70
   5 -13   0    2.10    2.80
   5  13   0    1.10    2.90
  -5  13   0    0.70    2.80
  -5  13   0   -0.90    2.60
   6 -13   0   -2.50    3.00
  -6 -13   0    0.70    3.00
  -6  13   0    2.20    2.80
  -6  13   0    9.20    4.00
   6  13   0    3.40    3.20
   7 -13   0    8.80    4.90
  -7 -13   0   13.10    5.10
  -7  13   0   10.70    5.00
   7  13   0   15.00    5.30
   0 -14   0    2.20    1.70
   0 -14   0    1.40    2.00
   0  14   0   -0.50    1.90
   0  14   0    1.20    2.10
   1 -14   0    0.30    1.90
   1 -14   0    0.40    1.70
  -1 -14   0    0.00    1.40
  -1 -14   0    0.70    2.00
   1  14   0    2.20    2.20
  -1  14   0   -0.10    2.10
   1  14   0    2.60    2.20
   2 -14   0   83.49    6.60
  -2 -14   0   73.49    4.90
  -2 -14   0   77.19    6.50
   2 -14   0   81.19    5.80
   2  14   0   84.99    8.10
  -2  14   0   67.59    7.20
   2  14   0   79.99    5.90
  -3 -14   0  138.69    8.50
   3 -14   0  140.29    9.20
   3  14   0  112.89    8.60
   3  14   0  120.99    7.00
  -3  14   0  135.49    8.70
  -3  14   0  133.69    7.60
   4 -14   0    2.80    3.20
  -4 -14   0   -1.60    2.20
  -4  14   0   -0.90    2.40
  -4  14   0    2.20    2.50
   4  14   0    0.80    2.50
   5 -14   0  552.34   20.20
  -5 -14   0  556.84   19.30
  -5  14   0  565.24   19.00
  -5  14   0  565.74   18.70
   5  14   0  550.54   20.80
   6 -14   0   25.00    6.30
  -6 -14   0    8.40    4.20
  -6  14   0   18.30    4.90
  -6  14   0   25.20    5.50
   6  14   0   19.60    5.40
   0 -15   0   -0.50    2.10
   0 -15   0   -1.60    1.50
   0  15   0   -0.90    1.80
   0  15   0   -0.10    2.10
  -1 -15   0    2.90    2.40
  -1 -15   0    0.00    1.50
   1 -15   0   -0.70    2.00
   1 -15   0    0.70    1.80
  -1  15   0    0.50    2.50
   1  15   0    1.10    2.10
   1  15   0    0.10    2.30
  -2 -15   0   88.69    7.10
   2 -15   0   79.39    5.80
   2 -15   0   63.19    7.10
  -2  15   0   72.49    7.70
   2  15   0   78.89    8.00
   2  15   0   83.59    6.40
   3 -15   0   20.70    4.60
  -3 -15   0   35.00    5.60
   3  15   0   30.60    5.80
   3  15   0   35.20    4.90
  -3  15   0   28.30    5.30
  -3  15   0   32.80    4.90
   4 -15   0   38.00    6.60
  -4 -15   0   43.90    6.70
   4  15   0   54.09    7.60
  -4  15   0   35.50    5.40
  -4  15   0   32.10    5.70
  -5 -15   0   53.49    7.80
   5 -15   0   48.50    7.70
  -5  15   0   36.10    6.10
  -5  15   0   51.29    7.20
   5  15   0   42.00    7.40
   6 -15   0    7.50    4.30
  -6 -15   0   12.50    4.20
  -6  15   0    9.20    4.00
  -6  15   0    1.50    3.60
   6  15   0    6.80    4.10
   0 -16   0   50.69    6.40
   0 -16   0   41.40    4.70
   0  16   0   38.00    5.60
  -1 -16   0   34.00    4.50
  -1 -16   0   39.90    6.00
   1 -16   0   39.30    4.90
   1 -16   0   42.20    5.90
   1  16   0   42.10    5.50
  -1  16   0   28.90    5.40
   1  16   0   38.40    5.50
   2 -16   0  346.27   12.10
   2 -16   0  332.37   13.50
  -2 -16   0  323.27   13.60
   2  16   0  343.37   13.80
  -2  16   0  333.87   14.40
   2  16   0  339.17   13.10
   3 -16   0   35.50    6.00
  -3  16   0   29.80    4.80
  -3  16   0   30.40    5.40
   4 -16   0    3.50    3.30
  -4 -16   0   -0.60    2.50
  -4  16   0    3.90    3.40
   4  16   0    5.40    3.40
  -4  16   0    5.50    2.90
  -5 -16   0   63.19    8.70
   5 -16   0   50.79    7.90
  -5  16   0   65.09    8.30
  -5  16   0   58.09    7.60
   5  16   0   57.69    8.60
  -6 -16   0    4.60    3.70
   6 -16   0   -2.80    3.20
  -6  16   0   10.30    4.90
   6  16   0    4.00    3.60
  -6  16   0    1.40    3.30
   0 -17   0    2.50    2.10
   0 -17   0    1.90    2.70
   0  17   0    1.50    2.50
   1 -17   0   -2.40    2.30
  -1 -17   0   -0.10    2.30
   1 -17   0    1.10    1.80
  -1  17   0    2.70    3.00
   1  17   0    0.40    2.50
   1  17   0    4.20    3.00
   2 -17   0  142.69    8.10
   2 -17   0  157.98    9.80
  -2 -17   0  163.48   10.20
  -2  17   0  142.09    9.80
   2  17   0  147.99    8.90
   2  17   0  130.79    9.10
   3 -17   0    0.40    2.60
   3 -17   0    1.50    2.00
  -3 -17   0   -0.50    2.60
   3  17   0    0.00    2.20
   3  17   0   -3.10    2.60
  -3  17   0   -0.60    2.50
  -4 -17   0  110.29    9.00
   4 -17   0  121.09    9.70
   4  17   0  104.89   11.00
  -4  17   0  103.09    7.90
  -4  17   0  107.59    9.10
   5 -17   0    2.70    3.60
  -5 -17   0    8.80    4.40
   5  17   0    1.40    3.20
  -5  17   0    4.40    3.50
  -5  17   0    9.60    4.00
   0 -18   0  139.79    9.40
   0  18   0  138.09    9.80
   1 -18   0   21.30    4.00
   1 -18   0   25.20    5.30
  -1 -18   0   29.40    5.40
  -1  18   0   30.60    5.80
   1  18   0   28.80    5.30
   2 -18   0   22.80    4.80
  -2 -18   0   34.00    6.20
   2 -18   0   28.00    4.90
   2  18   0   22.50    4.80
  -2  18   0   24.60    5.50
   2  18   0   18.90    4.30
   3 -18   0    5.60    3.50
  -3 -18   0    2.40    3.70
   3 -18   0    1.50    2.60
   3  18   0   10.60    4.40
  -3  18   0   11.30    4.20
   4 -18   0    7.20    4.30
  -4 -18   0   13.40    4.50
  -4  18   0    7.90    3.90
   4  18   0    8.00    4.00
  -4  18   0    7.70    3.60
  -5 -18   0   11.00    4.80
   5 -18   0   -0.80    4.00
  -5  18   0    9.80    4.40
  -5  18   0    2.20    2.90
   5  18   0    6.90    4.30
   0 -19   0    3.10    3.00
   0  19   0   -2.40    2.50
   1 -19   0   63.49    7.80
  -1 -19   0   68.39    8.30
  -1  19   0   49.99    7.80
   1  19   0   61.29    7.60
  -2 -19   0   79.39    8.90
   2 -19   0   78.79    9.10
   2 -19   0   78.69    7.60
   2  19   0   85.79    8.90
   2  19   0   80.79    8.90
  -2  19   0   88.49    9.90
   3 -19   0    8.10    3.50
  -3 -19   0    9.80    4.40
   3 -19   0    9.00    4.20
   3  19   0    8.20    3.90
  -3  19   0    7.20    3.40
   4 -19   0   -0.10    2.40
   4 -19   0    0.80    3.40
  -4 -19   0    1.50    3.10
  -4  19   0    5.80    3.20
   4  19   0    3.40    3.50
   0 -20   0    3.20    3.30
   0  20   0    2.60    3.40
   1 -20   0  438.16   17.70
  -1 -20   0  436.96   17.60
   1  20   0  412.26   17.00
  -1  20   0  420.36   18.10
   2 -20   0   43.00    7.10
  -2 -20   0   60.79    8.20
  -2  20   0   62.99    8.90
   2  20   0   53.69    7.40
   3 -20   0   79.99    9.50
  -3 -20   0   81.69   10.00
   3 -20   0   75.19    8.30
   3  20   0   79.19   10.00
  -3  20   0   91.19   10.50
  -4 -20   0    2.00    4.00
   4 -20   0    2.80    3.40
   4 -20   0   -2.30    3.10
  -4  20   0   -1.60    2.60
   4  20   0    0.20    3.50
   0 -21   0    2.60    3.20
   0  21   0   -2.30    3.30
   1 -21   0   11.00    4.20
  -1 -21   0    9.70    4.20
   1  21   0    6.80    4.20
  -1  21   0    9.10    4.50
  -2 -21   0    4.10    4.10
   2 -21   0    4.60    3.40
  -2  21   0    3.30    3.70
   2  21   0    6.50    3.90
   3 -21   0   12.70    4.50
  -3 -21   0    8.20    4.60
   3  21   0    7.70    5.90
  -3  21   0    4.70    3.60
   0 -22   0  209.98   13.10
   0  22   0  216.58   13.50
  -1 -22   0  168.18   12.00
   1 -22   0  168.18   11.40
   1  22   0  166.28   11.90
  -1  22   0  176.08   12.20
  -2 -22   0   91.89   10.80
   2 -22   0   56.09    8.00
   2  22   0   84.69   10.10
  -2  22   0   94.49   11.40
   0 -23   0    1.70    3.80
   0  23   0    6.30    4.20
   8   0  -1    0.70    2.70
  -8   0   1    4.50    2.70
  -7   0   1   -1.70    1.50
   7   0  -1    0.20    2.10
   7   0  -1   -1.10    2.20
  -6   0   1    0.10    1.80
   6   0  -1    0.30    1.60
  -6   0   1    0.40    2.20
   5   0  -1   -0.40    1.20
  -5   0   1    0.60    1.70
  -5   0   1    0.40    1.90
   4   0  -1    0.40    1.40
  -4   0   1   -0.30    1.30
  -4   0   1   -2.30    1.30
  -4   0   1   -0.10    0.60
  -3   0   1   -0.50    1.30
  -3   0   1   -0.80    0.70
  -3   0   1   -1.10    1.30
   3   0  -1    0.70    1.40
  -2   0   1   -1.20    0.70
   2   0  -1   -1.50    1.30
  -2   0   1   -1.10    1.20
  -2   0   1   -1.00    1.20
  -1   0   1   -1.90    0.70
   1   0  -1   -3.00    0.70
  -1   0   1   -1.90    0.60
   1   0  -1   -2.20    0.80
   0   0  -1   -1.80    0.40
   0   0  -1   -1.60    0.80
   0   0  -1   -0.90    0.60
  -1   0  -1    2.10    1.10
  -1   0  -1    0.30    1.10
  -1   0  -1   -0.40    0.90
  -1   0  -1    0.00    1.10
  -2   0  -1   -0.90    1.30
  -2   0  -1   -1.80    1.00
   2   0   1    1.00    1.40
  -2   0  -1   -0.90    1.20
  -3   0  -1    1.60    1.40
   3   0   1   -0.10    1.20
  -3   0  -1    0.80    1.60
  -3   0  -1   -0.20    1.00
  -4   0  -1    2.60    1.80
  -4   0  -1   -2.80    1.40
  -4   0  -1    0.10    1.10
   4   0   1    1.90    1.50
   5   0   1   -1.20    1.30
  -5   0  -1   -2.10    1.90
  -5   0  -1   -1.50    1.50
   6   0   1    0.00    2.10
  -6   0  -1   -0.30    2.30
  -6   0  -1    2.10    2.20
  -7   0  -1    0.10    2.70
   7   0   1   -2.20    2.20
  -7   0  -1    0.50    2.60
   8   0   1    1.00    3.90
  -8   0  -1   -2.80    2.70
  -8  -1   1   45.70    6.80
   8  -1  -1   40.50    7.90
   8   1  -1   41.10    7.60
   8   1  -1   61.99    8.20
  -8   1   1   51.09    7.10
   7  -1  -1  126.19   10.30
  -7  -1   1  102.39    7.80
  -7  -1   1  118.79    9.20
   7  -1  -1  125.49    8.30
   7   1  -1  135.19    8.90
  -7   1   1  130.79    8.90
  -6  -1   1  159.18    9.40
   6  -1  -1  138.29    7.90
   6  -1  -1  134.79    9.50
  -6  -1   1  141.69    8.30
  -6   1   1  140.29    8.20
   6   1  -1  147.89    8.60
   5  -1  -1  214.78    8.80
  -5  -1   1  227.58    9.40
   5  -1  -1  230.78   11.20
  -5  -1   1  214.58    9.60
  -5   1   1  229.48    9.40
   5   1  -1  229.18    9.50
   4  -1  -1  932.61   21.30
  -4  -1   1  956.30   18.80
   4  -1  -1  939.71   18.20
  -4  -1   1  958.90   19.70
  -4   1   1  950.70   14.00
  -4   1   1  932.71   19.40
  -4   1   1  945.51   19.00
   4   1  -1  943.31   19.30
   3  -1  -1   17.30    3.20
   3  -1  -1   21.20    2.80
  -3  -1   1   23.20    3.00
  -3  -1   1   16.20    2.70
   3   1  -1   13.40    2.50
  -3   1   1   12.80    2.30
  -3   1   1   15.20    1.70
   2  -1  -1    1.60    1.20
   2  -1  -1    0.10    1.50
  -2  -1   1    0.90    1.30
  -2  -1   1    1.80    1.30
  -2   1   1    1.90    1.00
  -2   1   1    0.50    1.20
   2   1  -1   -0.40    1.40
   1  -1  -1 1728.23   21.70
  -1  -1   1 1735.13   21.40
   1  -1  -1 1691.03   20.90
  -1  -1   1 1669.13   20.50
   1   1  -1 1704.23   20.10
   1   1  -1 1702.83   21.90
  -1   1   1 1702.03   21.10
  -1   1   1 1707.23   20.80
   0  -1   1  139.19    3.30
   0  -1  -1  145.39    3.20
   0  -1  -1  138.09    3.40
   0   1  -1  144.89    3.70
   0   1   1  137.09    2.30
   0   1   1  140.49    3.50
   0   1  -1  140.99    3.20
  -1  -1  -1 1764.52   21.60
  -1  -1  -1 1738.23   23.30
  -1  -1  -1 1745.13   22.20
  -1  -1  -1 1750.82   23.00
  -1   1  -1 1730.73   22.40
  -1   1  -1 1744.33   21.90
  -1   1  -1 1743.63   22.70
  -1   1  -1 1707.13   22.90
   2  -1   1  199.38    5.80
  -2  -1  -1  194.68    5.60
  -2  -1  -1  191.88    5.20
  -2  -1  -1  197.38    6.70
  -2   1  -1  194.78    6.60
  -2   1  -1  193.58    6.10
  -2   1  -1  192.38    5.60
   2   1   1  194.58    6.40
  -2   1  -1  203.48    5.70
  -3  -1  -1  384.06    9.80
  -3  -1  -1  387.06    8.40
  -3  -1  -1  390.86   11.30
   3  -1   1  403.06   10.00
  -3   1  -1  380.16   10.10
  -3   1  -1  365.96    8.70
   3   1   1  390.46   10.70
  -3   1  -1  364.26   11.00
  -4  -1  -1    2.70    2.10
  -4  -1  -1    1.40    1.10
  -4  -1  -1   -1.30    1.30
   4  -1   1   -0.30    1.10
  -4   1  -1    2.10    1.40
  -4   1  -1    0.20    1.70
   4   1   1    0.90    1.40
  -4   1  -1   -0.30    1.50
  -5  -1  -1   86.89    7.00
  -5  -1  -1   82.69    5.90
   5  -1   1   81.39    5.80
   5   1   1   67.29    6.80
  -5   1  -1   89.89    7.00
  -5   1  -1   75.09    6.90
   6  -1   1   82.69    6.70
  -6  -1  -1   78.89    8.40
  -6  -1  -1   89.79    6.90
   6   1   1   92.09    7.40
  -6   1  -1   93.59    9.40
  -6   1  -1   83.89    7.90
   7  -1   1  249.78   15.10
  -7  -1  -1  269.57   12.30
  -7  -1  -1  236.88   13.40
   7   1   1  252.17   12.80
  -7   1  -1  244.68   12.70
  -8  -1  -1   24.10    5.50
   8  -1   1   17.60    5.90
  -8  -1  -1   40.80    7.40
  -8   1  -1   19.80    5.20
   8   1   1   31.10    8.10
   8  -2  -1    3.80    3.30
  -8  -2   1   10.60    3.60
  -8  -2   1    8.20    4.10
   8   2  -1    4.90    3.20
   8   2  -1    9.00    4.00
  -8   2   1    5.90    3.20
  -7  -2   1    9.40    3.20
   7  -2  -1   24.50    5.70
  -7  -2   1   17.40    4.80
   7   2  -1   20.20    4.70
  -7   2   1   19.00    4.50
  -6  -2   1  171.78    9.70
  -6  -2   1  151.68    8.60
   6  -2  -1  132.39    9.60
   6  -2  -1  157.08    8.10
   6   2  -1  173.58    9.50
  -6   2   1  159.08    8.70
  -5  -2   1   81.29    5.80
   5  -2  -1   69.99    7.30
  -5  -2   1   83.19    6.30
   5  -2  -1   82.99    5.40
  -5   2   1   86.19    4.00
  -5   2   1   86.49    6.10
   5   2  -1   75.19    6.00
   4  -2  -1  106.09    5.30
   4  -2  -1  112.09    7.00
  -4  -2   1  100.49    6.00
  -4  -2   1  104.09    5.70
  -4   2   1   99.69    4.00
   4   2  -1  111.59    6.30
  -4   2   1   99.99    5.70
  -3  -2   1  149.29    5.80
  -3  -2   1  147.99    6.10
   3  -2  -1  145.99    5.30
   3  -2  -1  147.89    7.10
   3   2  -1  156.18    6.60
  -3   2   1  140.89    5.90
  -3   2   1  150.88    4.50
   2  -2  -1  150.98    5.80
  -2  -2   1  151.88    5.10
   2  -2  -1  149.09    4.40
  -2  -2   1  146.59    5.00
  -2   2   1  146.19    4.90
  -2   2   1  141.39    4.30
   2   2  -1  139.29    5.50
  -1  -2   1    2.30    0.80
   1  -2  -1    2.90    1.20
   1  -2  -1    3.00    0.80
  -1  -2   1    3.30    1.10
   1   2  -1    1.70    1.10
  -1   2   1    4.10    1.20
  -1   2   1    3.60    1.00
   1   2  -1    4.30    0.90
   0  -2  -1   36.30    2.10
   0  -2   1   33.20    1.50
   0  -2  -1   35.70    2.00
   0  -2   1   34.20    2.00
   0   2  -1   31.70    1.70
   0   2   1   31.40    2.10
   0   2  -1   35.10    2.30
  -1  -2  -1 3397.96   41.70
  -1  -2  -1 3426.96   42.10
  -1  -2  -1 3438.06   39.30
   1  -2   1 3493.65   42.40
  -1   2  -1 3432.26   39.60
   1   2   1 3432.86   40.50
  -1   2  -1 3403.76   41.40
  -1   2  -1 3448.25   41.60
  -2  -2  -1  313.97    8.80
  -2  -2  -1  332.27    7.40
  -2   2  -1  318.07    8.60
   2   2   1  332.07    6.80
  -2   2  -1  309.87    7.60
  -2   2  -1  323.77    7.10
   2   2   1  330.37    8.90
  -2   2  -1  324.87    8.20
  -3  -2  -1  858.41   15.80
   3  -2   1  811.52   15.40
  -3  -2  -1  847.62   18.00
  -3   2  -1  842.62   16.80
   3   2   1  824.52   17.50
  -3   2  -1  848.32   17.70
  -3   2  -1  844.72   15.20
   3   2   1  856.61   13.60
  -4  -2  -1  472.45   12.40
   4  -2   1  421.56   11.60
  -4  -2  -1  457.15   14.10
   4   2   1  444.96   13.30
   4   2   1  459.25    9.40
  -4   2  -1  453.65   12.90
  -4   2  -1  460.25   14.00
  -4   2  -1  457.55   11.00
  -5  -2  -1   33.50    4.70
   5  -2   1   23.70    5.20
   5  -2   1   28.00    4.00
  -5  -2  -1   28.70    4.60
  -5   2  -1   34.90    5.00
  -5   2  -1   17.50    3.80
   5   2   1   28.70    4.90
   6  -2   1    8.10    2.90
  -6  -2  -1    7.30    3.00
  -6  -2  -1    5.30    3.10
   6  -2   1   12.70    4.30
   6   2   1   11.90    3.70
  -6   2  -1    7.90    3.10
  -7  -2  -1   -1.50    2.30
  -7  -2  -1    0.40    2.50
   7  -2   1   -3.40    2.60
   7   2   1    3.20    2.80
  -7   2  -1   -0.50    2.40
  -8  -2  -1    9.90    4.30
  -8  -2  -1    4.60    3.30
   8  -2   1   15.90    6.10
  -8   2  -1   12.60    4.20
   8  -3  -1   12.40    4.60
  -8  -3   1    8.70    3.50
  -8  -3   1   15.40    5.10
  -8   3   1    8.00    3.80
   8   3  -1    7.70    3.80
  -7  -3   1  171.68   10.70
  -7  -3   1  170.88    9.70
   7  -3  -1  174.88   12.10
  -7   3   1  163.88   10.00
   7   3  -1  174.18   10.40
   6  -3  -1   -2.40    2.00
  -6  -3   1   -1.80    1.40
  -6  -3   1    0.70    2.10
   6  -3  -1   -0.60    1.40
  -6   3   1    1.70    1.80
   6   3  -1    3.80    2.50
  -5  -3   1   10.80    2.70
   5  -3  -1   10.70    2.50
   5  -3  -1   10.00    3.30
  -5  -3   1   13.20    3.10
  -5   3   1   12.00    2.90
  -5   3   1   16.10    2.30
   5   3  -1   13.40    3.30
  -4  -3   1   58.29    4.70
   4  -3  -1   57.89    3.90
  -4  -3   1   64.39    4.60
   4  -3  -1   72.69    7.10
  -4   3   1   51.99    3.40
  -4   3   1   63.59    5.60
   4   3  -1   57.29    5.70
   3  -3  -1  153.88    5.10
   3  -3  -1  163.58    7.60
  -3  -3   1  166.88    6.20
  -3  -3   1  169.08    6.60
  -3   3   1  156.18    6.20
   3   3  -1  168.58    7.10
  -3   3   1  168.08    5.50
  -2  -3   1  186.38    5.70
   2  -3  -1  185.38    6.60
  -2  -3   1  178.38    5.50
   2  -3  -1  186.58    4.50
  -2   3   1  184.18    5.40
   2   3  -1  192.88    6.60
  -2   3   1  165.98    5.30
   2   3  -1  189.58    3.60
  -1  -3   1 1566.04   20.10
   1  -3  -1 1586.54   21.50
   1  -3  -1 1567.34   19.20
  -1  -3   1 1567.54   20.70
  -1   3   1 1554.54   19.90
  -1   3   1 1565.64   21.20
   1   3  -1 1594.14   20.00
   1   3  -1 1603.74   21.80
   0  -3   1  987.90   13.00
   0  -3   1  960.20   14.00
   0  -3  -1  957.40   14.30
   0  -3  -1  996.40   13.90
   0   3  -1  982.90   14.60
   0   3  -1  954.60   12.90
   0   3   1  957.20   14.20
  -1  -3  -1  935.11   15.00
  -1  -3  -1  930.71   12.30
  -1  -3  -1  925.61   15.20
   1  -3   1  950.80   15.20
  -1   3  -1  936.31   15.30
   1   3   1  941.01   14.00
  -1   3  -1  943.51   14.80
  -1   3  -1  941.51   12.30
  -2  -3  -1   23.40    2.30
  -2  -3  -1   27.30    3.30
   2  -3   1   21.20    3.10
  -2   3  -1   19.20    2.00
  -2   3  -1   20.70    2.60
   2   3   1   24.70    2.10
   2   3   1   16.20    2.70
  -2   3  -1   20.90    2.50
  -3  -3  -1  741.93   14.30
   3  -3   1  771.32   13.90
  -3  -3  -1  727.33   16.70
   3  -3   1  735.63   17.70
  -3   3  -1  738.53   14.40
  -3   3  -1  735.43   15.70
   3   3   1  746.23   16.80
   3   3   1  740.43   12.30
  -4  -3  -1  606.74   14.20
  -4  -3  -1  581.94   16.20
   4  -3   1  590.64   17.40
   4  -3   1  604.94   13.60
  -4   3  -1  593.64   15.30
  -4   3  -1  594.64   13.30
   4   3   1  614.94   16.30
   4   3   1  578.54   10.80
  -5  -3  -1  121.69    7.10
  -5  -3  -1  115.69    7.90
   5  -3   1  117.29    8.90
   5  -3   1  121.49    6.60
  -5   3  -1  123.89    6.20
   5   3   1  110.09    7.70
  -5   3  -1  106.99    7.20
   6  -3   1  417.46   17.70
  -6  -3  -1  408.76   16.40
  -6  -3  -1  415.76   14.10
  -6   3  -1  404.86   14.70
   6   3   1  410.16   15.80
   7  -3   1  127.19   13.20
  -7  -3  -1  117.49    8.30
  -7  -3  -1  130.49   10.40
   7   3   1  114.09    9.30
  -7   3  -1  109.79    8.70
  -8  -3  -1   44.30    7.00
   8  -3   1   32.00    7.70
  -8  -3  -1   54.49    8.90
   8   3   1   59.79    8.80
  -8   3  -1   49.20    7.40
  -8  -4   1   17.90    5.20
  -8  -4   1   22.10    4.90
   8  -4  -1   29.40    6.60
   8   4  -1   33.70    6.60
  -8   4   1   17.50    4.60
  -7  -4   1   22.00    4.60
   7  -4  -1   14.50    4.60
  -7  -4   1   13.50    4.40
   7   4  -1   19.20    4.80
  -7   4   1   18.30    4.30
  -6  -4   1    1.20    2.40
  -6  -4   1   -0.90    2.10
   6  -4  -1    0.20    2.10
   6   4  -1    0.80    2.40
  -6   4   1   -1.20    1.90
   5  -4  -1   26.90    5.00
  -5  -4   1   27.20    4.50
   5  -4  -1   23.30    3.30
  -5  -4   1   26.50    4.30
  -5   4   1   30.00    3.40
  -5   4   1   16.70    3.30
   5   4  -1   21.70    4.40
   4  -4  -1  359.66    9.00
  -4  -4   1  356.76   11.20
   4  -4  -1  364.06   12.80
  -4  -4   1  341.07   10.10
  -4   4   1  360.96   11.00
  -4   4   1  343.17    8.90
   4   4  -1  357.96   11.90
  -3  -4   1  203.68    7.40
   3  -4  -1  205.08    5.50
   3  -4  -1  203.08    8.40
  -3  -4   1  209.98    7.00
  -3   4   1  214.98    6.60
   3   4  -1  221.08    8.30
  -3   4   1  198.28    7.10
  -2  -4   1   17.40    2.30
  -2  -4   1   16.00    2.20
   2  -4  -1   18.30    1.50
   2  -4  -1   16.80    2.50
  -2   4   1   15.30    2.30
   2   4  -1   18.30    1.60
   2   4  -1   15.30    2.60
  -2   4   1   15.70    2.20
   1  -4  -1 2828.22   35.70
   1  -4  -1 2824.52   32.30
  -1  -4   1 2751.62   33.80
  -1  -4   1 2795.22   34.30
  -1   4   1 2779.02   33.20
   1   4  -1 2756.02   35.50
   1   4  -1 2805.42   33.90
  -1   4   1 2685.63   35.30
   0  -4  -1 7556.54   84.59
   0  -4  -1 7438.96   84.29
   0  -4  -1 7511.45   85.79
   0  -4   1 7511.75   89.39
   0  -4   1 7466.35   83.69
   0   4   1 7465.65   85.39
   0   4  -1 7383.36   85.69
   0   4  -1 7570.84   83.39
   1  -4   1 9999.00  111.39
  -1  -4  -1 9660.93  110.99
  -1  -4  -1 9790.72  111.69
  -1  -4  -1 9846.21  107.19
   1   4   1 9881.21  109.89
  -1   4  -1 9759.92  110.99
  -1   4  -1 9537.55  109.49
  -1   4  -1 9908.01  111.59
  -2  -4  -1   36.30    2.60
  -2  -4  -1   50.09    4.50
   2  -4   1   36.40    4.00
  -2   4  -1   41.90    3.40
   2   4   1   36.70    2.50
   2   4   1   38.90    3.90
  -2   4  -1   33.70    2.00
  -2   4  -1   41.90    3.70
  -3  -4  -1   12.40    2.20
   3  -4   1   13.90    3.20
  -3  -4  -1    8.70    2.60
   3  -4   1   11.80    1.90
  -3   4  -1   10.00    2.30
  -3   4  -1   10.50    2.30
   3   4   1   11.50    1.70
   3   4   1    7.70    2.60
   4  -4   1   42.20    3.50
  -4  -4  -1   49.30    4.60
   4  -4   1   36.30    5.30
  -4  -4  -1   41.30    5.30
   4   4   1   44.10    5.40
  -4   4  -1   50.89    5.30
  -4   4  -1   47.40    3.90
   4   4   1   39.80    2.70
  -5  -4  -1   -1.60    2.00
   5  -4   1    0.50    2.60
  -5  -4  -1    1.00    1.80
   5  -4   1   -0.30    1.40
  -5   4  -1   -0.60    1.60
  -5   4  -1    0.50    2.00
   5   4   1    3.70    2.50
   6  -4   1   36.50    7.10
  -6  -4  -1   43.80    5.50
  -6  -4  -1   35.30    6.20
  -6   4  -1   40.10    5.90
   6   4   1   34.00    5.90
  -7  -4  -1   11.00    4.00
   7  -4   1    7.50    4.50
  -7  -4  -1   12.50    3.50
   7   4   1    6.20    3.30
  -7   4  -1    8.70    4.10
   8  -4   1   96.59   12.90
  -8  -4  -1   89.69    9.40
  -8  -4  -1   77.59    9.60
  -8   4  -1   80.99    9.50
   8   4   1   85.39   10.50
  -8  -5   1  450.05   17.00
  -8  -5   1  479.95   19.20
   8  -5  -1  413.16   20.20
   8   5  -1  421.96   18.50
   7  -5  -1   30.10    6.20
  -7  -5   1   39.50    5.80
  -7  -5   1   49.50    7.40
   7   5  -1   45.40    7.20
  -7   5   1   34.50    5.60
   6  -5  -1  134.59    9.90
  -6  -5   1  121.29    7.30
  -6  -5   1  122.99    8.40
   6   5  -1   99.59    8.10
  -6   5   1  113.29    8.00
   5  -5  -1   10.80    3.60
  -5  -5   1    6.20    2.60
  -5  -5   1    9.50    3.00
   5  -5  -1    8.20    2.10
  -5   5   1    8.90    2.90
   5   5  -1   10.90    3.40
  -5   5   1    8.20    2.30
  -4  -5   1   76.99    4.90
   4  -5  -1   78.39    6.20
   4  -5  -1   74.69    3.80
  -4  -5   1   71.99    5.20
   4   5  -1   73.39    5.80
  -4   5   1   90.19    5.70
  -4   5   1   85.19    4.90
   3  -5  -1   73.89    5.50
   3  -5  -1   82.99    3.10
  -3  -5   1   86.69    4.60
  -3  -5   1   84.59    4.90
   3   5  -1   79.89    5.30
  -3   5   1   78.29    4.60
  -3   5   1   83.29    4.60
   3   5  -1   81.19    2.60
   2  -5  -1  585.74   13.00
   2  -5  -1  598.04    8.50
  -2  -5   1  569.74   11.70
  -2  -5   1  589.44   11.40
   2   5  -1  603.34   13.30
  -2   5   1  597.84   12.10
  -2   5   1  596.44   11.50
   2   5  -1  586.84    9.80
  -1  -5   1  357.66    7.80
   1  -5  -1  364.96    6.40
  -1  -5   1  367.06    7.80
   1  -5  -1  373.26    9.00
  -1   5   1  376.56    8.80
  -1   5   1  364.46    7.10
   1   5  -1  380.26    8.00
   1   5  -1  382.46    8.80
   0  -5  -1 4068.49   48.60
   0  -5  -1 4054.39   46.00
   0  -5  -1 4110.99   50.29
   0  -5   1 4134.39   49.40
   0  -5   1 4190.48   48.70
   0   5  -1 4108.59   50.39
   0   5   1 4135.49   50.19
   0   5  -1 4035.20   47.80
  -1  -5  -1 5687.43   69.69
  -1  -5  -1 5759.72   64.69
   1  -5   1 5808.12   69.09
  -1   5  -1 5715.23   63.89
   1   5   1 5959.60   70.09
  -1   5  -1 5885.51   70.09
   1   5   1 5890.91   68.19
  -1   5  -1 5742.43   68.59
  -2  -5  -1    3.70    1.70
  -2  -5  -1    1.80    1.10
   2  -5   1    1.30    1.50
  -2   5  -1    1.00    1.40
   2   5   1    1.20    1.20
  -2   5  -1    2.20    1.70
   2   5   1    1.60    1.70
   3  -5   1   23.00    2.30
  -3  -5  -1   23.10    3.50
   3  -5   1   23.10    3.80
  -3  -5  -1   21.60    2.80
  -3   5  -1   18.50    3.00
   3   5   1   28.50    2.60
   3   5   1   25.50    3.90
  -3   5  -1   15.20    2.60
  -4  -5  -1  207.68    7.70
   4  -5   1  197.58   10.00
   4  -5   1  209.38    6.90
  -4  -5  -1  215.28    9.90
   4   5   1  204.68    5.80
  -4   5  -1  206.88    8.10
   4   5   1  210.98    9.70
  -4   5  -1  203.08    8.90
  -5  -5  -1    5.20    2.30
  -5  -5  -1    7.70    3.10
   5  -5   1   12.50    4.00
  -5   5  -1    5.80    2.80
  -5   5  -1    7.00    2.40
   5   5   1    8.40    3.30
  -6  -5  -1   24.10    5.20
  -6  -5  -1   32.10    4.80
   6  -5   1   22.90    5.80
  -6   5  -1   24.30    4.90
   6   5   1   19.90    4.70
   7  -5   1    7.70    4.70
  -7  -5  -1    4.20    3.60
  -7  -5  -1    7.50    3.00
   7   5   1    4.70    3.30
  -7   5  -1    3.80    3.00
   8  -5   1    2.00    4.20
  -8  -5  -1    7.50    4.20
   8   5   1   18.60    5.90
  -8   5  -1    3.60    3.40
  -8  -6   1  126.49   12.20
   8  -6  -1  101.09   12.30
  -8  -6   1  125.99    9.00
   8   6  -1  143.29   11.10
  -8   6   1  127.49   12.20
  -7  -6   1    8.20    3.90
   7  -6  -1   13.20    4.70
  -7  -6   1    7.80    2.90
  -7   6   1    8.60    3.70
   7   6  -1    7.40    3.50
  -6  -6   1   28.20    5.40
  -6  -6   1   29.50    4.90
   6  -6  -1   17.70    5.00
   6   6  -1   19.00    4.50
  -6   6   1   24.80    4.80
  -5  -6   1  405.56   12.50
   5  -6  -1  431.36   15.90
  -5  -6   1  394.66   13.80
  -5   6   1  425.86   11.80
   5   6  -1  417.06   14.90
  -5   6   1  435.06   13.80
  -4  -6   1  325.87   11.10
  -4  -6   1  327.17   10.10
   4  -6  -1  319.27   12.20
   4  -6  -1  321.37    7.50
  -4   6   1  323.37   10.60
   4   6  -1  327.77   12.00
  -4   6   1  342.67   10.10
   3  -6  -1  255.87    5.20
   3  -6  -1  272.57    9.90
  -3  -6   1  261.07    8.60
  -3  -6   1  249.97    7.80
  -3   6   1  249.08    8.10
   3   6  -1  256.57    5.70
   3   6  -1  267.17    9.80
  -3   6   1  244.78    8.20
  -2  -6   1  551.14   11.20
  -2  -6   1  540.75   11.70
   2  -6  -1  548.95    7.80
   2  -6  -1  539.15   12.90
   2   6  -1  552.04   10.20
  -2   6   1  539.25   12.40
   2   6  -1  548.95   13.00
  -2   6   1  537.25   11.00
  -1  -6   1    1.20    1.10
   1  -6  -1    2.50    0.90
  -1  -6   1    1.70    1.30
   1  -6  -1    3.90    1.60
  -1   6   1    1.80    1.10
  -1   6   1    1.90    1.70
   1   6  -1    0.80    1.60
   1   6  -1    3.60    1.60
   0  -6  -1   25.00    3.10
   0  -6   1   26.80    2.70
   0  -6   1   30.50    2.80
   0  -6  -1   23.10    2.50
   0  -6  -1   24.30    1.60
   0   6  -1   23.90    2.40
   0   6   1   22.20    2.80
   0   6  -1   24.30    2.90
   1  -6   1    5.70    1.60
  -1  -6  -1    8.60    2.10
  -1  -6  -1    7.50    1.20
  -1   6  -1    6.40    2.00
  -1   6  -1    8.70    1.00
  -1   6  -1    7.30    1.80
   1   6   1   10.50    2.40
   1   6   1    6.90    1.80
  -2  -6  -1    5.40    2.20
  -2  -6  -1    3.30    1.20
   2  -6   1    4.90    1.90
   2   6   1    5.20    1.50
   2   6   1    5.30    2.20
  -2   6  -1    7.40    2.10
  -2   6  -1    8.80    2.30
  -3  -6  -1   25.20    2.90
   3  -6   1   22.20    2.10
  -3  -6  -1   17.20    3.10
   3  -6   1   16.30    3.30
  -3   6  -1   18.90    3.20
   3   6   1   34.30    4.50
  -3   6  -1   20.00    3.30
   3   6   1   18.80    2.40
  -4  -6  -1    0.20    1.90
  -4  -6  -1   -0.60    1.30
   4  -6   1    1.20    2.20
   4  -6   1    0.40    1.40
  -4   6  -1    2.30    1.80
   4   6   1   -2.00    1.60
   4   6   1   -1.00    1.00
  -4   6  -1    1.80    1.60
  -5  -6  -1  156.78    9.50
  -5  -6  -1  166.08    7.90
   5  -6   1  142.79    9.60
  -5   6  -1  159.08    8.90
  -5   6  -1  166.98    7.80
   5   6   1  183.48   10.60
  -6  -6  -1    0.00    2.70
   6  -6   1    0.50    2.80
  -6  -6  -1   -2.30    1.60
   6   6   1   -1.00    2.60
  -6   6  -1   -2.20    2.00
  -7  -6  -1  129.09   10.40
   7  -6   1  141.09   13.90
  -7   6  -1  133.29    9.80
   7   6   1  150.48   11.30
  -8  -7   1   18.10    4.70
   8  -7  -1   18.90    6.40
  -8  -7   1   22.30    6.30
   8   7  -1   16.00    4.90
  -8   7   1   28.40    6.00
  -7  -7   1    2.60    2.70
  -7  -7   1    2.50    3.10
   7  -7  -1    1.20    3.50
   7   7  -1    0.10    2.60
  -7   7   1    6.10    3.70
  -6  -7   1  123.59    8.70
   6  -7  -1  121.19    9.60
  -6  -7   1  128.19    7.70
  -6   7   1  123.89    8.70
   6   7  -1  114.29    8.80
  -5  -7   1  123.69    7.80
  -5  -7   1  113.59    6.80
   5  -7  -1  134.39    9.00
  -5   7   1  113.79    7.60
  -5   7   1  119.69    6.70
   5   7  -1  111.59    8.10
  -4  -7   1   28.30    3.70
  -4  -7   1   28.80    4.10
   4  -7  -1   24.30    4.20
   4  -7  -1   29.40    2.00
   4   7  -1   27.50    2.00
  -4   7   1   34.10    4.50
   4   7  -1   22.60    4.00
  -4   7   1   24.40    3.70
  -3  -7   1  417.26   10.60
   3  -7  -1  410.06    6.40
   3  -7  -1  420.46   12.80
  -3  -7   1  402.96   11.40
  -3   7   1  409.76   11.00
   3   7  -1  431.46   12.90
  -3   7   1  397.96   11.30
   3   7  -1  414.26    8.50
   2  -7  -1  254.97    8.60
  -2  -7   1  243.58    7.20
   2  -7  -1  239.98    4.40
  -2  -7   1  246.98    7.80
  -2   7   1  235.38    8.10
   2   7  -1  231.68    8.50
  -2   7   1  251.77    7.30
   2   7  -1  251.87    6.90
  -1  -7   1   76.09    3.90
  -1  -7   1   72.09    3.90
   1  -7  -1   74.79    4.50
   1  -7  -1   73.19    2.90
  -1   7   1   73.59    3.40
   1   7  -1   69.59    4.20
   1   7  -1   71.69    4.00
  -1   7   1   81.39    4.80
   0  -7  -1  188.68    5.80
   0  -7  -1  185.98    6.70
   0  -7   1  188.28    6.00
   0  -7  -1  178.38    4.40
   0  -7   1  179.38    5.90
   0   7  -1  179.68    5.30
   0   7   1  173.28    6.40
   0   7   1  185.98    6.00
   0   7  -1  177.58    6.50
  -1  -7  -1    2.90    1.70
  -1  -7  -1    5.00    1.10
   1  -7   1    6.30    1.80
  -1   7  -1    3.50    2.10
   1   7   1    7.80    2.30
  -1   7  -1    7.60    1.00
  -1   7  -1    7.80    2.00
   1   7   1    4.10    1.70
  -2  -7  -1    0.60    1.10
   2  -7   1   -0.20    1.40
  -2  -7  -1    2.40    1.70
  -2   7  -1    3.30    1.90
  -2   7  -1    0.80    1.50
   2   7   1    2.50    2.00
   2   7   1    0.40    1.30
   3  -7   1  128.39    7.40
  -3  -7  -1  146.59    7.60
   3  -7   1  130.79    3.70
  -3  -7  -1  143.69    5.50
  -3   7  -1  129.79    6.80
   3   7   1  132.69    5.20
   3   7   1  138.39    7.90
  -3   7  -1  137.69    6.90
   4  -7   1   24.60    4.30
  -4  -7  -1   40.70    5.60
  -4  -7  -1   38.30    4.10
  -4   7  -1   24.80    4.10
  -4   7  -1   29.70    4.10
   4   7   1   37.30    5.80
  -5  -7  -1  124.09    6.90
   5  -7   1  120.49    9.10
  -5  -7  -1  112.69    8.20
  -5   7  -1  116.19    7.70
   5   7   1  104.19    8.50
  -5   7  -1  110.99    6.90
   6  -7   1    7.90    4.00
  -6  -7  -1   13.10    4.40
  -6  -7  -1   11.30    3.30
   6   7   1    7.00    3.80
  -6   7  -1   13.50    4.00
  -7  -7  -1    6.10    3.90
   7  -7   1    7.40    4.60
  -7   7  -1    6.90    3.10
   7   7   1    6.70    3.90
  -8  -8   1  372.76   17.80
   8  -8  -1  385.26   19.80
  -8  -8   1  402.96   16.00
  -8   8   1  400.86   17.50
   8   8  -1  391.26   18.50
  -7  -8   1  161.28   10.90
   7  -8  -1  169.38   12.30
  -7  -8   1  163.68    9.70
  -7   8   1  146.29   10.40
   7   8  -1  138.99   10.60
  -6  -8   1   94.99    7.70
   6  -8  -1   95.39   10.30
  -6  -8   1   89.19    6.80
  -6   8   1  104.19    7.90
   6   8  -1  104.29   10.40
   5  -8  -1   38.00    6.20
  -5  -8   1   41.90    4.80
  -5  -8   1   37.90    5.30
  -5   8   1   46.10    5.40
   5   8  -1   37.70    5.70
  -5   8   1   44.90    5.50
  -4  -8   1  309.97   11.00
  -4  -8   1  310.37   10.00
   4  -8  -1  320.67   12.50
  -4   8   1  300.37   10.70
  -4   8   1  309.47   10.80
   4   8  -1  316.67   12.50
  -3  -8   1  272.77    9.40
  -3  -8   1  251.07    8.30
   3  -8  -1  257.87   10.10
  -3   8   1  258.87    8.80
  -3   8   1  253.07    9.30
   3   8  -1  249.48   10.10
   3   8  -1  253.57    6.90
   2  -8  -1  244.88    4.60
   2  -8  -1  242.38    8.90
  -2  -8   1  260.07    7.60
  -2  -8   1  250.67    8.20
  -2   8   1  249.68    7.70
   2   8  -1  242.58    7.20
  -2   8   1  243.58    8.80
   2   8  -1  250.67    9.10
   1  -8  -1   92.99    3.50
   1  -8  -1   97.09    5.30
  -1  -8   1   93.99    4.70
  -1  -8   1   99.39    4.50
  -1   8   1  100.99    4.10
  -1   8   1   92.59    5.40
   1   8  -1   94.69    5.00
   1   8  -1   90.79    4.90
   0  -8  -1   39.80    2.40
   0  -8   1   37.40    3.10
   0  -8   1   44.60    3.30
   0  -8  -1   47.20    3.90
   0   8   1   40.10    3.60
   0   8  -1   37.20    3.80
   0   8   1   29.10    3.30
   0   8  -1   42.60    3.00
   1  -8   1  404.46   10.50
  -1  -8  -1  410.26   11.20
  -1  -8  -1  392.56    7.60
  -1   8  -1  399.46   11.40
  -1   8  -1  399.66    6.70
   1   8   1  391.86   10.90
  -1   8  -1  394.66   10.10
   1   8   1  401.46   10.30
  -2  -8  -1  462.75    9.30
   2  -8   1  449.46   12.40
  -2  -8  -1  453.95   12.80
  -2   8  -1  460.35   12.70
   2   8   1  466.65   13.20
   2   8   1  459.15   10.90
  -2   8  -1  440.16   11.80
  -3  -8  -1    0.10    1.70
   3  -8   1    2.40    1.90
  -3  -8  -1   -0.40    1.10
   3   8   1    0.30    2.00
  -3   8  -1   -0.20    1.50
   3   8   1    0.60    1.20
  -3   8  -1    1.20    1.90
   4  -8   1   12.80    3.90
  -4  -8  -1    8.90    2.20
  -4  -8  -1    5.80    2.80
  -4   8  -1   10.20    3.10
  -4   8  -1    9.40    3.10
   4   8   1    4.40    2.70
  -5  -8  -1   83.89    5.80
   5  -8   1   83.59    9.20
  -5  -8  -1   74.59    7.80
  -5   8  -1   70.49    7.20
  -5   8  -1   88.29    6.60
   5   8   1   81.19    8.70
  -6  -8  -1   60.29    8.70
   6  -8   1   46.00    7.60
  -6   8  -1   43.20    6.40
   6   8   1   49.50    7.70
   7  -8   1   12.00    5.00
  -7  -8  -1   10.80    4.90
   7   8   1   10.30    4.60
  -7   8  -1    4.00    3.70
   8  -9  -1   80.59   11.00
  -8  -9   1  141.29   11.40
   8   9  -1  126.79   13.60
  -8   9   1  114.19   12.10
  -7  -9   1   66.49    7.20
  -7  -9   1   73.09    8.80
   7  -9  -1   53.49    8.90
   7   9  -1   62.89    9.10
  -7   9   1   56.89    7.60
   6  -9  -1   19.70    5.20
  -6  -9   1   23.00    4.40
  -6  -9   1   26.00    5.20
  -6   9   1   26.70    5.00
  -6   9   1   21.50    5.90
   6   9  -1   22.00    5.20
   5  -9  -1   78.29    8.70
  -5  -9   1   71.89    7.40
  -5  -9   1   67.79    6.20
   5   9  -1   60.99    7.30
  -5   9   1   63.69    6.50
  -5   9   1   73.39    6.90
  -4  -9   1    7.30    2.60
  -4  -9   1   10.70    2.60
   4  -9  -1   10.70    3.50
  -4   9   1   12.30    3.30
  -4   9   1    9.80    2.80
   4   9  -1    8.90    3.30
  -3  -9   1  197.48    7.40
   3  -9  -1  218.98    9.40
  -3  -9   1  200.48    8.20
   3   9  -1  204.98    6.70
  -3   9   1  199.98    8.60
   3   9  -1  193.98    9.20
  -3   9   1  214.58    8.00
   2  -9  -1   47.50    5.00
  -2  -9   1   45.00    3.50
  -2  -9   1   54.59    4.10
   2   9  -1   42.00    3.40
   2   9  -1   46.70    5.00
  -2   9   1   39.20    4.30
  -2   9   1   48.90    3.60
  -2   9   1   43.70    2.10
   1  -9  -1  203.48    7.90
  -1  -9   1  206.48    7.20
  -1  -9   1  200.58    6.60
  -1   9   1  200.08    5.80
  -1   9   1  207.78    6.20
  -1   9   1  204.18    8.10
   1   9  -1  192.08    7.40
   1   9  -1  206.68    7.50
   0  -9   1    0.20    1.10
   0  -9   1   -0.40    1.20
   0  -9  -1   -0.90    1.30
   0  -9  -1   -0.20    0.80
   0   9   1   -0.10    1.40
   0   9  -1    2.50    1.80
   0   9   1    1.30    1.70
   0   9  -1    3.00    1.50
   1  -9   1 1454.85   24.00
   1  -9   1 1482.45   24.80
  -1  -9  -1 1475.55   20.40
  -1  -9  -1 1486.05   25.80
  -1   9  -1 1481.85   26.00
  -1   9  -1 1480.05   19.00
   1   9   1 1473.65   25.30
   1   9   1 1472.75   24.50
   2  -9   1  139.19    6.90
  -2  -9  -1  147.09    4.90
  -2  -9  -1  146.19    7.30
   2   9   1  144.49    7.60
  -2   9  -1  149.29    6.70
   2   9   1  147.29    6.30
  -2   9  -1  134.79    7.10
  -3  -9  -1   89.49    6.30
  -3  -9  -1   78.29    4.10
   3  -9   1   85.59    6.20
   3   9   1   87.49    6.70
  -3   9  -1   92.89    6.00
  -3   9  -1   80.39    5.90
   3   9   1   71.89    4.40
  -4  -9  -1    0.10    1.90
   4  -9   1    2.20    2.30
  -4  -9  -1   -2.60    1.30
  -4   9  -1   -1.30    2.10
   4   9   1    2.20    2.40
  -4   9  -1    1.20    2.10
  -5  -9  -1    3.00    2.70
   5  -9   1    2.20    2.50
  -5   9  -1   -1.70    2.30
   5   9   1   -0.90    2.20
  -5   9  -1    0.70    2.10
   6  -9   1    1.90    3.10
  -6  -9  -1    5.70    4.00
   6   9   1    9.40    4.50
  -6   9  -1    1.50    2.50
   7  -9   1    1.40    3.40
  -7  -9  -1   -4.90    2.90
   7   9   1   -1.30    3.10
  -7   9  -1    0.60    2.90
   8 -10  -1   59.99    9.80
  -8 -10   1   83.19   10.40
  -8  10   1   72.39    9.50
   8  10  -1   74.39   10.70
   7 -10  -1   45.20    7.90
  -7 -10   1   60.49    8.50
  -7 -10   1   47.10    6.30
  -7  10   1   45.60    7.30
   7  10  -1   53.49    8.80
   6 -10  -1  255.77   14.00
  -6 -10   1  291.27   11.80
  -6 -10   1  261.47   12.80
  -6  10   1  272.47   11.50
   6  10  -1  271.47   14.10
  -6  10   1  283.07   12.90
   5 -10  -1  227.28   12.10
  -5 -10   1  236.38    9.80
  -5 -10   1  226.48   11.00
  -5  10   1  237.38   10.80
  -5  10   1  226.48   10.40
   5  10  -1  215.58   11.60
   4 -10  -1    9.80    3.60
  -4 -10   1   11.00    3.10
  -4 -10   1   14.50    3.00
  -4  10   1    4.70    2.40
   4  10  -1    4.30    2.80
  -4  10   1    8.20    3.00
  -3 -10   1  187.68    8.10
  -3 -10   1  176.08    7.20
   3 -10  -1  173.78    8.60
   3  10  -1  174.78    9.00
  -3  10   1  175.58    7.40
  -3  10   1  163.48    8.40
   3  10  -1  174.08    6.60
  -2 -10   1  149.39    6.90
   2 -10  -1  136.49    7.30
  -2 -10   1  132.59    5.90
   2  10  -1  152.28    6.40
   2  10  -1  157.58    7.60
  -2  10   1  150.08    4.00
  -2  10   1  155.68    6.30
  -2  10   1  144.69    7.40
   1 -10  -1  123.39    6.50
  -1 -10   1  110.39    5.20
  -1 -10   1  109.19    5.60
   1  10  -1  114.69    5.90
  -1  10   1  107.29    4.50
  -1  10   1  112.79    6.50
  -1  10   1  115.79    4.80
   1  10  -1  115.29    6.10
   0 -10  -1    4.80    2.30
   0 -10  -1    6.20    1.50
   0 -10   1    3.30    1.40
   0 -10   1    7.80    2.20
   0  10  -1    8.50    2.00
   0  10   1    6.30    2.00
   0  10  -1    3.30    2.00
   0  10   1    3.80    2.00
  -1 -10  -1  140.09    7.10
   1 -10   1  141.19    6.50
   1 -10   1  134.39    6.20
  -1 -10  -1  134.69    4.60
  -1  10  -1  135.99    7.10
  -1  10  -1  138.09    4.00
   1  10   1  150.88    6.80
   1  10   1  150.88    7.10
  -2 -10  -1    0.90    1.60
   2 -10   1    0.10    1.50
  -2 -10  -1    1.50    1.20
  -2  10  -1   -0.20    1.30
   2  10   1   -0.80    2.10
  -2  10  -1    0.00    1.90
   2  10   1    2.50    1.70
   3 -10   1  103.69    6.90
  -3 -10  -1   98.79    4.80
  -3 -10  -1  103.89    7.00
   3  10   1  106.19    7.40
  -3  10  -1   97.49    6.80
   3  10   1   85.09    5.10
  -3  10  -1   98.79    6.40
  -4 -10  -1   97.09    7.50
   4 -10   1   88.09    7.30
  -4  10  -1   87.89    6.70
  -4  10  -1   90.49    7.00
   4  10   1   90.89    9.10
   5 -10   1  162.08   10.60
  -5 -10  -1  157.88   10.20
  -5  10  -1  164.08    9.60
   5  10   1  168.78   11.00
  -5  10  -1  169.68    9.30
  -6 -10  -1   -0.80    2.90
   6 -10   1    3.50    3.40
  -6  10  -1   -1.10    2.20
   6  10   1   -2.70    2.70
  -7 -10  -1   16.90    5.80
   7 -10   1   19.70    5.90
   7  10   1   17.30    5.90
  -7  10  -1   13.60    4.40
   7 -11  -1    0.30    3.20
  -7 -11   1   12.40    4.30
  -7  11   1    6.70    3.80
   7  11  -1   11.30    4.70
  -6 -11   1    4.40    2.50
   6 -11  -1    2.90    3.60
  -6 -11   1    6.50    3.40
  -6  11   1   10.10    3.60
  -6  11   1    6.70    3.00
   6  11  -1    7.50    3.70
   5 -11  -1   57.79    7.50
  -5 -11   1   55.49    5.60
  -5 -11   1   40.70    5.90
  -5  11   1   59.79    6.70
   5  11  -1   68.69    8.40
  -5  11   1   68.59    7.20
  -4 -11   1   16.30    3.10
   4 -11  -1   18.80    4.20
  -4 -11   1   19.20    4.10
  -4  11   1   17.70    3.50
   4  11  -1   13.30    3.80
  -4  11   1   18.60    3.90
   3 -11  -1    3.90    2.30
  -3 -11   1   -0.60    1.50
  -3 -11   1    1.00    1.70
  -3  11   1    0.70    2.00
   3  11  -1   -3.10    1.30
   3  11  -1   -2.30    1.80
  -3  11   1   -0.20    1.60
   2 -11  -1   94.89    6.40
  -2 -11   1  100.59    6.00
  -2 -11   1  103.39    5.40
  -2  11   1  105.19    6.80
  -2  11   1  100.29    5.20
   2  11  -1   99.19    5.60
   2  11  -1  104.99    6.60
  -2  11   1  105.69    4.00
  -1 -11   1    9.50    2.40
   1 -11  -1   15.10    2.90
  -1 -11   1   13.10    2.40
   1 -11  -1   10.70    2.10
  -1  11   1   15.80    2.40
   1  11  -1   11.00    2.70
   1  11  -1   12.50    2.90
  -1  11   1   11.30    2.90
   0 -11  -1   -0.30    0.90
   0 -11   1    1.10    1.50
   0 -11  -1   -0.30    1.70
   0 -11   1   -2.20    1.00
   0  11   1   -0.20    1.40
   0  11  -1   -1.20    1.30
   0  11   1    3.30    1.90
   0  11  -1   -0.80    1.60
   1 -11   1    2.70    1.80
   1 -11   1    0.70    1.40
  -1 -11  -1    0.00    1.50
  -1 -11  -1    0.30    1.00
  -1  11  -1    1.80    1.00
   1  11   1    0.50    1.70
  -1  11  -1   -0.80    1.70
   1  11   1    0.60    1.90
  -2 -11  -1    0.60    1.80
  -2 -11  -1    0.50    1.20
   2 -11   1   -1.50    1.40
   2  11   1    1.10    1.60
   2  11   1    1.20    2.10
  -2  11  -1   -2.10    1.00
  -2  11  -1    0.60    2.10
   3 -11   1  103.19    7.10
  -3 -11  -1  107.69    7.50
  -3 -11  -1  108.99    6.00
  -3  11  -1  104.79    7.20
   3  11   1  109.49    5.90
  -3  11  -1  105.99    6.60
   3  11   1   95.59    7.40
  -4 -11  -1  107.99    8.00
   4 -11   1   99.79    7.90
   4  11   1   99.89    8.20
  -4  11  -1  100.59    7.50
  -4  11  -1  107.79    7.40
  -5 -11  -1   11.00    4.30
   5 -11   1    4.10    3.00
   5  11   1    4.00    2.90
  -5  11  -1    9.00    3.20
  -5  11  -1   11.20    3.80
  -6 -11  -1   17.90    5.30
   6 -11   1    5.90    3.70
  -6  11  -1    8.90    3.80
   6  11   1    5.00    3.80
  -7 -11  -1   41.60    7.80
   7 -11   1   22.80    6.50
  -7  11  -1   42.60    7.50
   7  11   1   41.80    8.60
  -7 -12   1    5.50    3.80
   7 -12  -1   -1.00    3.10
  -7  12   1    4.60    3.60
   7  12  -1    4.70    4.10
   6 -12  -1   46.20    7.80
  -6 -12   1   48.20    6.90
   6  12  -1   69.29    9.40
  -6  12   1   56.19    7.20
  -6  12   1   47.20    6.70
  -5 -12   1  536.75   17.40
   5 -12  -1  512.35   19.10
  -5 -12   1  553.94   15.50
  -5  12   1  538.75   17.20
   5  12  -1  508.55   18.60
  -5  12   1  572.94   17.50
  -4 -12   1   30.70    4.10
   4 -12  -1   28.00    5.20
  -4 -12   1   35.20    5.20
  -4  12   1   26.60    4.40
   4  12  -1   24.80    4.90
  -4  12   1   27.10    4.90
  -3 -12   1    3.50    1.90
  -3 -12   1    2.80    2.10
   3 -12  -1    2.90    2.30
   3  12  -1    5.60    2.20
   3  12  -1    2.50    2.40
  -3  12   1    0.10    2.10
  -3  12   1    0.10    1.60
   2 -12  -1    5.00    2.40
  -2 -12   1    5.10    2.20
  -2 -12   1    3.20    1.80
  -2  12   1    3.10    1.80
  -2  12   1    5.50    2.60
   2  12  -1    5.60    2.10
   2  12  -1    5.30    2.70
   1 -12  -1  379.86   12.30
  -1 -12   1  376.16   10.50
  -1 -12   1  352.36   11.20
   1 -12  -1  357.56    9.60
  -1  12   1  376.16   12.70
  -1  12   1  351.66    9.20
   1  12  -1  371.26   11.90
   1  12  -1  351.26   11.10
   0 -12   1    6.20    2.10
   0 -12  -1   15.10    3.40
   0 -12   1   10.40    2.60
   0 -12  -1    5.40    1.60
   0  12  -1    8.00    2.10
   0  12   1    6.30    2.40
   0  12   1   11.00    3.00
   0  12  -1    8.90    2.90
   1 -12   1   33.60    4.40
  -1 -12  -1   31.90    4.50
   1 -12   1   36.40    4.20
  -1 -12  -1   33.60    3.00
   1  12   1   32.80    4.40
   1  12   1   25.10    4.10
  -1  12  -1   23.10    3.90
   2 -12   1   -0.10    1.80
  -2 -12  -1    1.60    1.40
  -2 -12  -1   -1.00    1.80
   2  12   1   -1.70    1.70
  -2  12  -1    3.30    1.90
   2  12   1   -0.40    2.20
  -2  12  -1   -0.20    2.10
   3 -12   1    0.90    2.00
  -3 -12  -1    0.30    2.10
   3  12   1    1.50    2.60
   3  12   1    0.80    1.70
  -3  12  -1   -2.10    1.90
  -3  12  -1    1.70    1.80
   4 -12   1   10.50    3.70
  -4 -12  -1   15.00    4.30
  -4  12  -1    8.80    3.70
   4  12   1   12.00    3.80
  -4  12  -1    7.10    3.20
   5 -12   1   71.99    8.80
  -5 -12  -1   94.39    9.80
  -5  12  -1   68.19    7.90
  -5  12  -1   83.89    8.80
   5  12   1   79.19    9.30
   6 -12   1   37.60    7.10
  -6 -12  -1   60.49    8.70
   6  12   1   44.10    7.70
  -6  12  -1   49.00    7.30
  -6  12  -1   46.30    7.30
  -7 -13   1   39.10    7.20
   7 -13  -1   36.00    7.40
  -7  13   1   33.80    6.70
   7  13  -1   45.00    8.50
   6 -13  -1   62.69    8.90
  -6 -13   1   80.69    9.20
   6  13  -1   82.79   10.50
  -6  13   1   64.59    7.70
  -6  13   1   90.29    9.10
   5 -13  -1   13.20    4.40
  -5 -13   1   17.20    4.70
  -5 -13   1   17.60    3.60
   5  13  -1   10.40    3.90
  -5  13   1   18.60    4.40
  -5  13   1   14.80    4.20
  -4 -13   1   38.60    5.90
   4 -13  -1   21.50    4.90
  -4 -13   1   29.20    4.30
   4  13  -1   22.80    4.70
   3 -13  -1    0.70    2.30
  -3 -13   1    1.20    2.00
  -3 -13   1    2.40    1.90
   3  13  -1    0.30    2.20
  -3  13   1    1.30    1.80
   3  13  -1    1.20    1.90
  -3  13   1   -0.60    1.80
  -2 -13   1  654.63   17.00
  -2 -13   1  647.84   14.90
   2 -13  -1  638.74   17.60
   2  13  -1  624.64   17.20
   2  13  -1  653.63   16.30
  -2  13   1  593.24   17.60
  -2  13   1  619.74   14.50
  -1 -13   1    0.80    1.70
  -1 -13   1    4.10    1.80
   1 -13  -1    4.40    2.50
   1 -13  -1    1.10    1.40
  -1  13   1    2.30    2.40
   1  13  -1    2.20    2.20
  -1  13   1    2.60    1.70
   1  13  -1   -0.50    1.80
   0 -13  -1  106.19    5.10
   0 -13   1  115.09    6.70
   0 -13   1  103.69    6.00
   0 -13  -1  105.59    7.00
   0  13  -1  109.79    5.70
   0  13   1  120.69    7.30
   0  13   1  118.39    6.40
   0  13  -1  106.69    7.10
   1 -13   1  607.54   15.50
  -1 -13  -1  603.34   17.10
   1 -13   1  644.14   16.30
  -1 -13  -1  625.14   12.40
  -1  13  -1  598.94   17.10
   1  13   1  624.74   16.60
   1  13   1  620.74   16.50
  -2 -13  -1  109.69    7.70
   2 -13   1  123.59    7.60
   2 -13   1  103.99    6.60
   2  13   1  116.69    7.00
   2  13   1  115.59    7.90
  -2  13  -1   96.39    7.40
  -3 -13  -1  169.88    9.60
   3 -13   1  170.08    9.50
  -3  13  -1  142.39    9.10
   3  13   1  166.98    8.10
  -3  13  -1  167.18    8.80
   3  13   1  168.48   10.20
  -4 -13  -1   -1.40    2.30
   4 -13   1   -0.20    2.40
   4  13   1   -2.30    2.40
  -4  13  -1    3.90    2.70
  -4  13  -1   -0.70    2.40
  -5 -13  -1  154.28   10.80
   5 -13   1  149.99   10.80
  -5  13  -1  160.48   10.20
  -5  13  -1  152.68   10.20
   5  13   1  157.78   11.40
   6 -13   1   21.30    5.70
  -6 -13  -1   26.60    6.00
   6  13   1   20.00    5.90
  -6  13  -1   12.30    4.60
  -6  13  -1   22.20    5.10
  -7 -14   1    4.60    3.50
   7 -14  -1   -0.50    3.30
  -7  14   1    0.20    3.50
   7  14  -1    5.50    3.90
  -6 -14   1  112.09   11.00
   6 -14  -1   82.49   10.20
  -6  14   1  107.09   10.40
  -6  14   1   91.59    9.20
   6  14  -1  108.49   11.10
  -5 -14   1    1.00    2.70
   5 -14  -1    1.00    3.00
  -5  14   1    0.10    2.40
  -5  14   1    3.20    2.80
   5  14  -1   -1.80    2.70
   4 -14  -1    1.30    3.20
  -4 -14   1    8.40    2.80
  -4 -14   1    5.50    3.10
   4  14  -1    4.60    3.20
  -4  14   1    3.20    2.50
  -4  14   1    1.60    2.90
   3 -14  -1   -2.20    2.00
  -3 -14   1   -1.10    1.60
  -3 -14   1    2.10    2.00
   3  14  -1   -1.90    1.90
  -3  14   1    0.60    1.90
   3  14  -1    0.90    2.00
  -3  14   1   -1.80    1.90
  -2 -14   1   13.50    3.30
  -2 -14   1   18.50    3.20
   2 -14  -1   18.20    4.00
   2  14  -1   18.10    3.70
  -2  14   1   12.40    3.40
  -2  14   1   10.90    2.60
   2  14  -1   20.90    4.20
  -1 -14   1  246.48    9.10
   1 -14  -1  235.08   10.70
  -1 -14   1  250.17   10.40
   1 -14  -1  228.68    8.30
   1  14  -1  234.28   10.30
   1  14  -1  251.67    9.90
  -1  14   1  235.58   10.90
   0 -14  -1   24.70    4.40
   0 -14   1   25.30    3.70
   0 -14   1   33.20    4.70
   0 -14  -1   25.60    3.20
   0  14   1   30.70    4.40
   0  14  -1   28.80    3.90
   0  14  -1   28.40    4.80
   0  14   1   31.70    5.30
   1 -14   1   14.80    3.30
   1 -14   1   21.40    3.70
  -1 -14  -1   14.40    3.90
   1  14   1   24.00    4.30
  -1  14  -1   21.30    4.10
   1  14   1   29.80    4.80
  -2 -14  -1   13.40    3.70
   2 -14   1   15.40    3.60
   2 -14   1   21.70    4.50
   2  14   1   19.10    3.90
  -2  14  -1   26.80    5.00
   2  14   1   15.10    4.30
   3 -14   1   15.00    4.00
  -3 -14  -1   10.90    3.60
  -3  14  -1   12.70    3.40
   3  14   1   15.40    3.50
   3  14   1   11.00    3.90
  -3  14  -1   23.10    4.90
  -4 -14  -1   47.80    6.90
   4 -14   1   51.09    7.00
  -4  14  -1   45.70    6.90
  -4  14  -1   50.39    6.60
   4  14   1   50.99    7.60
   5 -14   1   26.20    5.80
  -5 -14  -1   33.10    6.30
   5  14   1   21.10    5.90
  -5  14  -1   24.40    5.30
  -5  14  -1   19.20    4.80
  -6 -14  -1   19.80    5.90
   6 -14   1   12.50    5.20
  -6  14  -1    8.10    3.80
   6  14   1   18.30    4.90
  -6  14  -1    4.00    3.70
   6 -15  -1   37.90    7.10
  -6 -15   1   38.30    6.70
  -6  15   1   35.10    6.50
   6  15  -1   46.20    8.00
  -6  15   1   49.00    7.30
  -5 -15   1    2.40    2.90
   5 -15  -1    0.60    2.80
  -5  15   1    0.90    2.90
   5  15  -1    2.00    3.20
  -5  15   1    3.40    2.90
  -4 -15   1    0.20    2.30
   4 -15  -1    2.10    3.10
  -4  15   1    1.00    2.90
  -4  15   1    3.50    2.50
   4  15  -1    0.00    2.80
   3 -15  -1   10.90    3.60
  -3 -15   1   15.20    4.00
  -3 -15   1    9.70    2.70
   3  15  -1   13.60    3.30
  -3  15   1   16.60    3.50
  -3  15   1    8.90    3.30
   3  15  -1   12.60    4.00
  -2 -15   1    7.30    2.60
   2 -15  -1    2.70    2.70
  -2 -15   1    7.40    3.00
   2 -15  -1    5.90    2.30
  -2  15   1    1.90    2.70
   2  15  -1    2.70    2.30
   2  15  -1    3.60    2.80
  -1 -15   1   72.69    5.50
   1 -15  -1   66.89    4.80
  -1 -15   1   63.99    6.60
   1 -15  -1   59.29    6.50
  -1  15   1   57.79    7.10
   1  15  -1   73.89    6.80
   1  15  -1   72.09    7.20
   0 -15  -1   11.90    3.00
   0 -15  -1    2.50    2.70
   0 -15   1    2.40    2.10
   0 -15   1    7.80    2.90
   0  15  -1    3.30    2.60
   0  15   1    6.80    2.70
   0  15   1    4.40    2.70
  -1 -15  -1    0.80    2.30
   1 -15   1   -2.40    1.40
   1 -15   1    1.80    2.30
  -1  15  -1    0.50    2.60
   1  15   1   -2.50    1.70
   1  15   1    1.30    2.40
  -2 -15  -1  434.36   16.10
   2 -15   1  458.65   14.30
   2 -15   1  444.46   15.00
  -2  15  -1  456.35   16.50
   2  15   1  455.55   16.20
   2  15   1  446.96   14.80
  -3 -15  -1   26.00    5.30
   3 -15   1   26.20    5.00
   3  15   1   38.10    5.40
  -3  15  -1   28.00    4.60
  -3  15  -1   28.20    5.40
   3  15   1   21.30    5.10
   4 -15   1    0.30    2.50
  -4 -15  -1    2.20    2.90
   4  15   1    1.00    3.00
  -4  15  -1    0.60    2.60
  -4  15  -1   -1.00    2.40
  -5 -15  -1    7.30    4.10
   5 -15   1    5.00    3.60
  -5  15  -1    0.70    2.90
   5  15   1    1.20    2.90
  -5  15  -1    1.90    3.30
   6 -15   1   -0.10    3.40
  -6 -15  -1   -1.60    3.00
   6  15   1    5.00    3.40
  -6  15  -1    2.30    3.20
  -6  15  -1    3.60    3.70
   6 -16  -1    5.30    4.50
  -6 -16   1    7.90    4.10
  -6  16   1    6.70    3.90
   6  16  -1    7.20    3.80
  -6  16   1   -2.20    3.00
  -5 -16   1   25.20    5.60
   5 -16  -1   15.70    5.20
  -5  16   1   23.20    4.90
   5  16  -1   16.90    5.20
  -5  16   1   33.60    6.40
  -4 -16   1   -4.70    2.10
   4 -16  -1    2.70    3.30
  -4  16   1   -1.30    2.50
  -4  16   1    3.10    2.70
   4  16  -1    1.20    2.80
  -3 -16   1   18.20    4.50
   3 -16  -1   11.20    4.00
  -3  16   1   14.10    3.20
  -3  16   1   15.90    4.20
   3  16  -1   11.30    4.00
   3  16  -1   15.20    3.90
  -2 -16   1  181.18    9.70
  -2 -16   1  176.58    8.30
   2 -16  -1  173.08    8.20
   2 -16  -1  186.98   10.20
   2  16  -1  171.48    9.30
   2  16  -1  165.68    9.50
  -2  16   1  159.68   10.40
   1 -16  -1  405.86   15.10
   1 -16  -1  412.46   11.90
  -1 -16   1  440.06   14.80
  -1 -16   1  414.66   12.90
  -1  16   1  427.76   15.60
   1  16  -1  416.36   13.80
   1  16  -1  412.66   14.90
   0 -16   1    3.30    2.40
   0 -16  -1    6.00    3.20
   0 -16   1    5.30    2.80
   0  16  -1    1.30    2.60
   0  16   1    4.40    2.90
   0  16   1    5.80    4.00
  -1 -16  -1    5.50    3.20
   1 -16   1    3.10    2.70
   1 -16   1    1.30    2.10
   1  16   1    4.50    3.10
   1  16   1    1.00    2.30
  -1  16  -1    6.30    3.30
   2 -16   1   65.19    7.30
  -2 -16  -1   83.39    8.80
   2 -16   1   81.89    6.50
  -2  16  -1   79.89    8.30
   2  16   1   93.49    9.20
   2  16   1   85.89    7.90
  -3 -16  -1   32.90    5.90
   3 -16   1   26.80    5.00
   3 -16   1   24.70    4.90
   3  16   1   32.40    6.00
  -3  16  -1   20.10    4.80
   3  16   1   25.00    4.60
   4 -16   1   20.50    5.10
  -4 -16  -1   38.00    6.90
  -4  16  -1   19.30    4.70
  -4  16  -1   32.20    5.40
   4  16   1   30.60    6.30
  -5 -16  -1   51.49    8.00
   5 -16   1   40.40    7.00
  -5  16  -1   42.40    7.10
   5  16   1   49.40    8.50
  -5  16  -1   35.80    6.30
  -6 -17   1   72.99    9.30
   6 -17  -1   55.79    8.90
  -6  17   1   70.09    9.30
   6  17  -1   62.79    9.00
  -6  17   1   58.79    8.50
  -5 -17   1   50.39    7.70
   5 -17  -1   32.20    6.80
   5  17  -1   30.80    6.70
  -5  17   1   29.10    5.40
  -5  17   1   51.69    8.00
  -4 -17   1    2.80    3.10
   4 -17  -1    2.10    3.30
  -4  17   1    8.60    3.50
   4  17  -1    6.50    3.70
  -4  17   1   -0.20    2.90
   3 -17  -1   25.60    4.40
  -3 -17   1   20.10    4.90
   3 -17  -1   25.10    5.70
   3  17  -1   31.60    4.90
   3  17  -1   25.10    5.60
  -3  17   1   21.80    4.10
  -3  17   1   31.30    5.60
  -2 -17   1  158.88    9.60
  -2 -17   1  135.79    8.30
   2 -17  -1  141.89    7.70
   2 -17  -1  140.99    9.40
  -2  17   1  128.99    9.30
   2  17  -1  147.99    9.00
   2  17  -1  140.89    9.10
  -1 -17   1  108.49    7.90
   1 -17  -1  102.29    8.20
  -1 -17   1  112.69    6.80
   1  17  -1  109.69    8.10
  -1  17   1  115.39    8.80
   0 -17  -1   20.10    4.90
   0 -17   1   12.00    3.60
   0 -17   1   17.40    3.40
   0  17   1   19.40    5.00
   0  17  -1    8.30    3.50
  -1 -17  -1  125.79    9.10
   1 -17   1  113.99    7.30
   1 -17   1  128.49    8.60
   1  17   1  122.49    8.70
   1  17   1   98.29    7.70
  -1  17  -1  113.19   10.50
   2 -17   1  139.99    9.10
   2 -17   1  138.29    8.50
  -2 -17  -1  143.59   10.20
   2  17   1  154.28   10.20
  -2  17  -1  138.09    9.70
   2  17   1  131.79    8.90
   3 -17   1   29.10    4.90
   3 -17   1   37.50    6.10
  -3 -17  -1   24.40    5.20
   3  17   1   29.00    6.00
  -3  17  -1   28.80    5.90
  -4 -17  -1   35.70    6.60
   4 -17   1   19.50    5.30
  -4  17  -1   36.60    6.50
   4  17   1   40.90    7.30
  -4  17  -1   23.80    4.90
   5 -17   1    1.80    3.60
  -5 -17  -1    1.50    3.90
  -5  17  -1    7.00    3.70
   5  17   1    3.10    3.90
  -5  17  -1   -2.30    2.80
   5 -18  -1   -2.70    2.80
  -5 -18   1    2.80    3.60
  -5  18   1    2.70    2.80
   5  18  -1    1.30    3.40
  -5  18   1    0.50    3.20
  -4 -18   1   11.60    4.00
   4 -18  -1    8.20    3.80
  -4  18   1   14.10    4.40
   4  18  -1   21.30    5.90
  -4  18   1    7.00    3.20
   3 -18  -1    9.30    4.00
   3 -18  -1   14.40    3.40
  -3 -18   1   10.20    4.30
   3  18  -1   12.30    4.00
   3  18  -1   12.10    4.30
  -3  18   1   20.60    5.10
  -2 -18   1   56.39    7.30
   2 -18  -1   37.80    6.10
   2  18  -1   46.50    6.30
   2  18  -1   50.49    7.00
  -2  18   1   56.19    7.80
   1 -18  -1   29.70    5.40
  -1 -18   1   25.20    4.40
  -1 -18   1   30.50    5.30
   1  18  -1   30.60    5.40
  -1  18   1   23.90    5.10
   0 -18   1   -0.40    2.40
   0 -18   1   -1.10    2.00
   0 -18  -1    1.80    2.80
   0  18  -1    0.70    2.80
   0  18   1    3.10    3.10
   1 -18   1  162.58    9.80
  -1 -18  -1  159.58   10.50
   1 -18   1  168.08    9.10
   1  18   1  164.08   11.20
   1  18   1  182.88   10.70
  -1  18  -1  148.09   10.50
   2 -18   1  479.15   16.10
   2 -18   1  469.05   16.90
  -2 -18  -1  487.05   18.70
   2  18   1  489.75   18.10
   2  18   1  481.95   17.10
  -2  18  -1  501.95   18.50
  -3 -18  -1  182.78   11.70
   3 -18   1  180.78   11.10
   3 -18   1  160.88    9.80
  -3  18  -1  164.38   11.20
   3  18   1  153.38   11.30
  -4 -18  -1    3.30    3.80
   4 -18   1   -2.10    2.70
   4 -18   1    4.90    3.20
  -4  18  -1    6.00    3.70
   4  18   1    3.10    3.60
  -5 -18  -1    6.20    4.70
   5 -18   1   -0.40    3.80
   5  18   1    5.80    3.80
  -5  18  -1    2.20    3.20
  -5  18  -1    2.20    3.30
  -5 -19   1   30.60    6.70
   5 -19  -1   19.90    6.20
  -5  19   1   20.70    5.00
   5  19  -1   24.60    5.90
  -5  19   1   22.90    6.00
   4 -19  -1   23.10    5.10
   4 -19  -1   23.40    6.10
  -4 -19   1   39.00    6.80
  -4  19   1   24.10    5.10
  -4  19   1   36.90    7.10
   4  19  -1   22.80    5.80
   3 -19  -1   47.20    7.00
  -3 -19   1   47.60    7.30
   3  19  -1   54.49    7.70
  -3  19   1   56.29    8.10
   2 -19  -1    9.10    4.00
  -2 -19   1   19.30    5.10
   2  19  -1   14.40    4.40
  -2  19   1   11.20    4.50
  -1 -19   1   75.79    8.20
   1 -19  -1   66.09    8.10
   1  19  -1   79.19    8.60
  -1  19   1   74.69    9.20
   0 -19   1    4.00    2.50
   0 -19  -1    6.20    3.30
   0 -19   1    4.00    3.10
   0  19  -1    3.50    3.40
   0  19   1   -2.30    2.50
   1 -19   1  132.89    8.60
   1 -19   1  127.59    9.00
  -1 -19  -1  138.89   10.20
  -1  19  -1  142.09   10.40
   1  19   1  137.59    9.90
  -2 -19  -1   49.40    7.70
   2 -19   1   45.80    6.20
   2 -19   1   42.40    6.40
   2  19   1   68.89    8.60
   2  19   1   60.49    7.50
  -2  19  -1   43.50    7.00
  -3 -19  -1   21.20    5.40
   3 -19   1   23.20    5.50
   3 -19   1   24.90    5.10
   3  19   1   22.60    5.70
  -3  19  -1   18.80    5.10
   4 -19   1    3.90    3.90
  -4 -19  -1    2.10    3.70
   4 -19   1    1.90    3.40
  -4  19  -1    6.50    3.80
   4  19   1    4.30    4.20
  -4 -20   1    3.40    3.50
   4 -20  -1    0.60    3.60
  -4  20   1   -1.10    2.50
   4  20  -1    0.40    3.50
  -3 -20   1  125.59   10.30
   3 -20  -1  141.59   10.50
   3  20  -1  143.59   10.80
  -3  20   1  124.29   10.30
  -2 -20   1    3.40    3.50
   2 -20  -1    6.20    3.70
  -2  20   1    7.50    4.30
   2  20  -1    4.60    3.50
   1 -20  -1   79.59    9.20
  -1 -20   1   93.49    9.60
  -1  20   1   89.39   10.00
   1  20  -1   81.09    9.10
   0 -20   1    1.30    2.90
   0 -20  -1    7.30    3.80
   0  20   1    4.20    3.40
   0  20  -1   -1.50    2.90
   1 -20   1  237.68   12.80
   1 -20   1  236.68   11.40
  -1 -20  -1  268.67   14.30
  -1  20  -1  253.37   14.20
   1  20   1  226.88   13.00
   2 -20   1  116.69    8.50
  -2 -20  -1  133.69   13.00
   2 -20   1  114.29    9.40
   2  20   1  107.79   10.40
  -2  20  -1  128.59   10.60
   3 -20   1   -0.40    2.90
   3 -20   1    0.50    2.60
  -3 -20  -1    0.70    3.20
   3  20   1    3.10    3.60
  -3  20  -1    5.40    3.90
  -3 -21   1   27.40    6.60
   3 -21  -1   15.40    5.30
  -3  21   1   35.00    7.20
   2 -21  -1   33.80    6.40
  -2 -21   1   43.90    7.40
  -2  21   1   45.10    8.10
   2  21  -1   51.49    7.40
  -1 -21   1   84.99    9.80
   1 -21  -1   48.90    7.40
  -1  21   1   75.89    9.30
   1  21  -1   79.79    9.40
   0 -21   1    8.60    3.90
   0 -21  -1   -0.30    3.50
   0  21  -1    6.50    4.00
   0  21   1    8.00    4.20
  -1 -21  -1    2.00    3.80
   1 -21   1    6.40    3.80
  -1  21  -1    1.40    3.60
   1  21   1    0.00    3.10
  -2 -21  -1    8.00    4.70
   2 -21   1    5.80    3.10
   2 -21   1    8.30    3.70
   2  21   1    8.90    4.40
  -2  21  -1    9.50    4.50
  -3 -21  -1    2.20    3.70
   3 -21   1    4.60    3.10
   3 -21   1    0.30    3.20
  -3  21  -1   -0.20    3.50
   3  21   1    5.10    4.00
   2 -22  -1   -1.40    3.50
  -2 -22   1   -1.60    3.60
  -2  22   1    0.60    3.80
   2  22  -1    2.80    4.00
   1 -22  -1   17.20    5.30
  -1 -22   1   51.49    7.90
   1  22  -1   24.40    6.30
  -1  22   1   30.90    7.00
   0 -22  -1  198.08   13.10
   0 -22   1  195.38   12.20
   0  22   1  205.88   13.30
   0  22  -1  186.58   12.80
  -1 -22  -1   55.39    8.40
   1 -22   1   49.20    7.50
  -1  22  -1   64.19    9.20
   1  22   1   53.59    7.70
  -2 -22  -1   61.69    9.10
   2 -22   1   70.29    9.10
   2  22   1   65.99    8.50
  -2  22  -1   61.09    9.50
   0 -23   1   22.00    5.90
   0 -23  -1   24.00    6.50
   0  23  -1   22.90    6.10
   0  23   1   32.40    7.40
  -9   0   2   -1.20    2.20
   9   0  -2   -1.90    2.60
  -8   0   2  159.08   10.40
   8   0  -2  189.58   13.00
   8   0  -2  152.98   10.10
   7   0  -2  111.89    7.90
   7   0  -2  128.99   10.10
  -7   0   2  113.29    8.10
   6   0  -2  696.83   18.60
  -6   0   2  695.63   18.50
   6   0  -2  733.33   21.80
   5   0  -2    9.60    2.60
   5   0  -2   14.10    3.60
  -5   0   2   15.90    3.20
   4   0  -2  947.41   19.00
  -4   0   2  929.11   18.80
  -4   0   2  929.51   13.10
   4   0  -2  966.00   20.80
  -3   0   2   74.09    4.40
   3   0  -2   76.39    4.50
  -3   0   2   78.89    2.80
   3   0  -2   71.39    4.70
  -2   0   2 1977.00   24.70
   2   0  -2 1860.71   26.70
   2   0  -2 2020.40   26.80
  -2   0   2 1959.00   26.60
   1   0  -2 2576.64   32.80
   1   0  -2 2660.23   30.50
  -1   0   2 2635.14   31.90
  -1   0   2 2670.73   32.70
   0   0  -2 1378.36   17.30
   0   0   2 1371.66   17.60
   0   0  -2 1332.17   19.40
   0   0  -2 1346.87   18.80
  -1   0  -2  626.54   10.70
  -1   0  -2  625.24   12.00
  -1   0  -2  625.74   11.60
  -1   0  -2  634.94   11.70
  -2   0  -2   75.89    4.00
  -2   0  -2   80.99    4.20
  -2   0  -2   83.09    4.80
  -2   0  -2   82.29    4.40
   3   0   2  560.24   13.70
  -3   0  -2  567.64   12.60
  -3   0  -2  578.84   12.90
  -3   0  -2  562.44   14.50
   4   0   2  819.32   18.70
  -4   0  -2  803.82   16.50
  -4   0  -2  842.62   18.00
  -4   0  -2  859.41   20.60
  -5   0  -2  402.56   15.00
   5   0   2  391.46   13.60
  -5   0  -2  405.56   13.10
  -6   0  -2  100.29    8.50
  -6   0  -2  119.19    8.10
   6   0   2  122.19    8.50
  -7   0  -2    2.30    2.70
  -7   0  -2    3.10    3.10
  -9  -1   2   23.90    5.50
   9  -1  -2   18.50    6.50
  -9   1   2   15.30    4.50
   9   1  -2   18.70    5.70
  -8  -1   2  165.58   10.20
   8  -1  -2  151.58   12.00
   8   1  -2  141.09    9.70
  -8   1   2  155.08   10.40
   8   1  -2  157.58   12.00
   7  -1  -2  200.48   10.40
  -7  -1   2  231.78   11.40
   7  -1  -2  208.28   12.80
   7   1  -2  222.28   13.10
   7   1  -2  228.78   11.50
  -7   1   2  226.08   11.20
  -6  -1   2   20.80    4.00
   6  -1  -2    9.80    3.50
  -6  -1   2   24.50    4.80
   6  -1  -2   17.60    3.60
  -6   1   2   16.80    3.80
   6   1  -2   20.60    4.20
  -5  -1   2  225.98    9.70
   5  -1  -2  235.18    9.30
  -5  -1   2  223.98    9.20
   5  -1  -2  245.18   11.20
   5   1  -2  228.78    9.60
  -5   1   2  234.98    9.60
  -4  -1   2  224.18    8.30
  -4  -1   2  214.38    8.10
   4  -1  -2  215.28    9.20
   4  -1  -2  210.18    7.70
  -4   1   2  226.08    5.50
  -4   1   2  223.88    8.30
   4   1  -2  206.68    8.30
   3  -1  -2  142.29    6.40
   3  -1  -2  131.89    5.40
  -3  -1   2  141.59    5.80
  -3  -1   2  127.69    5.40
  -3  -1   2  138.29    3.30
  -3   1   2  135.49    5.50
   3   1  -2  140.29    6.10
  -3   1   2  129.59    4.10
  -2  -1   2  758.22   13.30
   2  -1  -2  744.53   13.00
  -2  -1   2  775.52   11.40
   2  -1  -2  780.52   13.60
  -2  -1   2  765.22   12.30
  -2   1   2  757.02   13.00
   2   1  -2  764.72   13.90
  -2   1   2  761.52   12.00
   1  -1  -2  159.48    4.10
   1  -1  -2  165.98    4.70
  -1  -1   2  162.78    4.60
   1   1  -2  161.58    3.10
  -1   1   2  157.18    4.80
  -1   1   2  164.28    4.20
   1   1  -2  161.98    4.70
   1   1  -2  163.68    5.00
   0  -1  -2  185.08    4.60
   0  -1   2  186.08    4.70
   0  -1  -2  184.48    5.20
   0   1   2  187.38    5.50
   0   1   2  184.48    3.90
   0   1  -2  183.18    3.80
   0   1  -2  178.68    4.80
   0   1  -2  189.48    5.70
  -1  -1  -2 1074.89   15.30
  -1  -1  -2 1083.29   17.30
  -1  -1  -2 1065.99   17.30
  -1  -1  -2 1126.49   17.50
  -1   1  -2 1116.59   17.80
  -1   1  -2 1128.49   16.70
  -1   1  -2 1088.79   16.50
  -1   1  -2 1080.49   16.80
  -2  -1  -2  160.68    5.40
  -2  -1  -2  152.18    5.90
  -2  -1  -2  150.38    6.30
  -2  -1  -2  157.78    5.80
  -2   1  -2  150.38    5.90
  -2   1  -2  161.08    5.80
  -2   1  -2  150.38    6.20
  -2   1  -2  150.48    5.50
  -3  -1  -2    1.60    1.90
  -3  -1  -2    1.00    1.30
   3  -1   2    2.70    1.40
  -3  -1  -2    0.60    1.50
  -3   1  -2    3.90    1.80
  -3   1  -2    0.20    1.50
  -3   1  -2    0.20    1.60
   3   1   2    0.40    1.40
  -4  -1  -2    0.30    1.70
   4  -1   2   -0.60    1.30
  -4  -1  -2    0.10    1.90
  -4  -1  -2   -0.10    1.40
  -4   1  -2    2.60    1.70
   4   1   2   -0.40    1.40
  -4   1  -2   -1.90    1.40
  -4   1  -2    2.10    2.20
  -5  -1  -2   13.30    3.50
  -5  -1  -2   14.50    3.80
   5  -1   2   14.70    3.40
  -5   1  -2   14.80    3.80
   5   1   2   12.90    3.50
  -5   1  -2   12.00    3.20
  -6  -1  -2   15.20    3.80
   6  -1   2   25.50    5.20
  -6  -1  -2    8.70    3.70
  -6   1  -2   10.70    3.60
   6   1   2   20.00    4.60
  -6   1  -2   12.30    4.20
  -7  -1  -2   89.89   10.20
   7  -1   2  108.99   12.50
  -7  -1  -2   92.59    8.90
  -7   1  -2   71.79    8.10
   7   1   2   82.09    9.30
   9  -2  -2   42.30    8.10
  -9  -2   2   42.00    7.00
  -9   2   2   43.40    6.90
   9   2  -2   57.09    9.70
  -8  -2   2   25.70    5.50
   8  -2  -2   36.70    7.70
   8   2  -2   35.50    6.40
   8   2  -2   29.60    6.80
  -8   2   2   26.70    5.60
  -7  -2   2  107.39   10.30
   7  -2  -2   88.99   10.40
  -7  -2   2  101.79    9.10
   7  -2  -2   90.59    7.10
  -7   2   2   87.69    8.70
   7   2  -2   85.99    8.90
   6  -2  -2  149.88    7.90
  -6  -2   2  156.48    8.50
   6  -2  -2  137.69    9.60
  -6  -2   2  146.69    8.70
   6   2  -2  152.98    8.80
  -6   2   2  164.98    8.80
  -5  -2   2  107.19    6.50
  -5  -2   2  112.39    6.90
   5  -2  -2  114.79    6.10
   5  -2  -2  100.79    7.40
  -5   2   2  109.19    4.20
   5   2  -2   93.69    6.50
  -5   2   2  115.39    6.70
   4  -2  -2  143.79    7.90
   4  -2  -2  160.58    6.60
  -4  -2   2  157.88    7.00
  -4  -2   2  162.78    7.10
   4   2  -2  160.88    7.50
  -4   2   2  150.68    6.80
  -4   2   2  158.18    5.10
   3  -2  -2   53.29    4.30
   3  -2  -2   62.49    3.70
  -3  -2   2   55.09    3.80
  -3  -2   2   49.10    3.80
  -3  -2   2   58.29    2.00
  -3   2   2   62.69    3.20
   3   2  -2   62.19    4.40
  -3   2   2   49.20    3.50
  -2  -2   2   15.50    2.20
   2  -2  -2   15.80    2.30
   2  -2  -2   13.80    2.00
  -2  -2   2   15.10    1.80
  -2   2   2   15.60    2.10
   2   2  -2   16.70    1.70
   2   2  -2   14.30    2.50
  -2   2   2   16.30    2.10
  -1  -2   2  183.78    3.10
  -1  -2   2  190.48    5.20
   1  -2  -2  181.78    5.00
   1  -2  -2  190.58    5.00
  -1   2   2  175.48    4.30
  -1   2   2  183.58    5.50
   1   2  -2  195.68    5.30
   1   2  -2  184.18    5.50
   0  -2  -2 1238.68   17.40
   0  -2  -2 1196.48   17.70
   0  -2   2 1239.18   15.50
   0  -2   2 1203.68   17.40
   0   2   2 1222.48   18.10
   0   2  -2 1214.98   17.10
   0   2   2 1195.78   14.70
   0   2  -2 1211.88   18.40
  -1  -2  -2 1356.16   20.90
  -1  -2  -2 1390.56   18.10
  -1  -2  -2 1374.76   21.10
   1   2   2 1355.86   20.30
  -1   2  -2 1372.76   20.10
  -1   2  -2 1394.56   19.50
  -1   2  -2 1397.16   21.40
  -1   2  -2 1396.06   19.90
  -2  -2  -2   24.80    3.30
  -2  -2  -2   26.70    3.30
  -2  -2  -2   31.70    2.90
   2   2   2   26.90    2.90
  -2   2  -2   30.50    3.30
  -2   2  -2   25.20    3.00
  -2   2  -2   24.40    2.70
  -2   2  -2   30.00    3.20
  -3  -2  -2  141.79    5.80
  -3  -2  -2  148.39    7.40
  -3   2  -2  135.59    6.80
  -3   2  -2  136.89    6.30
  -3   2  -2  137.69    6.30
  -3   2  -2  144.59    5.90
   3   2   2  139.79    5.50
   3   2   2  138.19    6.90
  -4  -2  -2   -1.70    1.50
  -4  -2  -2    1.00    1.50
   4  -2   2   -0.40    1.20
  -4   2  -2   -1.20    1.70
   4   2   2   -0.80    1.10
  -4   2  -2    7.00    2.60
  -4   2  -2   -0.30    1.60
   4   2   2   -1.50    1.30
  -5  -2  -2    0.70    1.90
  -5  -2  -2    1.70    2.50
   5  -2   2   -0.60    1.30
  -5   2  -2    1.30    2.00
   5   2   2   -1.40    1.80
  -5   2  -2    5.40    2.80
   6  -2   2   38.00    7.40
  -6  -2  -2   53.99    7.20
  -6  -2  -2   42.90    6.00
  -6   2  -2   43.30    6.00
   6   2   2   53.59    7.40
   7  -2   2   28.40    6.90
  -7  -2  -2   24.90    5.10
  -7  -2  -2   32.60    6.70
   7   2   2   26.10    5.90
  -7   2  -2   28.10    5.60
  -9  -3   2   22.50    5.50
   9  -3  -2   22.10    6.10
   9   3  -2   22.50    5.60
  -9   3   2   21.60    5.10
   9   3  -2   15.40    5.20
  -8  -3   2   65.79    7.70
  -8  -3   2   85.69    9.50
   8  -3  -2   90.49   11.20
   8   3  -2   86.19   10.00
  -8   3   2   82.39    9.00
   7  -3  -2  276.57   14.50
  -7  -3   2  261.97   12.10
  -7  -3   2  249.97   12.40
   7   3  -2  271.37   12.90
  -7   3   2  259.17   12.30
   6  -3  -2    6.30    2.90
   6  -3  -2    8.70    2.60
  -6  -3   2   10.70    3.30
  -6  -3   2    9.70    3.00
  -6   3   2    7.20    3.00
   6   3  -2   11.30    3.60
   5  -3  -2   53.79    4.30
   5  -3  -2   54.69    6.50
  -5  -3   2   66.89    6.60
  -5  -3   2   54.79    5.60
  -5   3   2   48.50    3.40
   5   3  -2   46.10    5.50
  -5   3   2   63.99    6.10
  -4  -3   2   75.89    5.00
   4  -3  -2   80.99    5.90
   4  -3  -2   81.59    4.50
  -4  -3   2   75.79    4.90
   4   3  -2   91.79    6.10
  -4   3   2   84.19    4.20
  -4   3   2   74.59    5.00
   3  -3  -2   30.70    3.00
   3  -3  -2   22.00    3.20
  -3  -3   2   31.80    3.50
  -3  -3   2   27.40    3.10
   3   3  -2   27.10    3.70
  -3   3   2   27.90    3.30
   3   3  -2   28.70    1.60
  -3   3   2   30.10    2.90
   2  -3  -2  154.18    5.80
  -2  -3   2  159.78    5.40
  -2  -3   2  159.28    4.70
   2  -3  -2  164.18    4.90
   2   3  -2  153.38    4.30
  -2   3   2  156.78    5.40
  -2   3   2  151.98    5.00
   2   3  -2  164.78    6.30
  -1  -3   2  633.44   11.20
   1  -3  -2  624.14   10.60
  -1  -3   2  619.04    8.50
   1  -3  -2  636.84   11.20
  -1   3   2  632.34   11.70
   1   3  -2  637.24   11.10
   1   3  -2  613.04   11.50
  -1   3   2  607.74    9.40
   0  -3   2 1395.26   17.60
   0  -3   2 1382.36   20.00
   0  -3  -2 1388.66   20.00
   0  -3  -2 1385.66   20.00
   0   3   2 1393.46   15.80
   0   3  -2 1368.76   19.00
   0   3   2 1423.76   20.70
   0   3  -2 1391.06   20.80
   1  -3   2   52.49    3.40
  -1  -3  -2   56.09    2.20
  -1  -3  -2   56.49    3.60
  -1  -3  -2   60.49    3.80
  -1   3  -2   62.59    3.00
   1   3   2   56.09    3.50
  -1   3  -2   56.79    3.50
  -1   3  -2   60.39    3.90
  -2  -3  -2   49.00    4.10
  -2  -3  -2   50.89    3.90
  -2  -3  -2   54.19    3.00
   2  -3   2   50.69    4.20
  -2   3  -2   55.19    4.00
   2   3   2   54.89    3.50
  -2   3  -2   52.69    3.10
  -2   3  -2   54.69    3.80
  -3  -3  -2   79.19    4.30
  -3  -3  -2   90.29    6.00
   3  -3   2   84.49    6.00
   3   3   2   86.99    4.30
  -3   3  -2   83.39    5.10
  -3   3  -2   87.29    5.30
  -3   3  -2   84.79    4.50
   3   3   2   95.49    6.00
  -4  -3  -2  577.94   16.70
   4  -3   2  519.15   17.00
  -4  -3  -2  566.74   13.70
   4  -3   2  556.34   13.60
   4   3   2  531.75   15.60
   4   3   2  543.65   12.10
  -4   3  -2  558.24   15.10
  -4   3  -2  544.25   13.80
   5  -3   2   -0.90    2.20
  -5  -3  -2   -0.50    1.80
   5  -3   2    0.20    1.50
  -5  -3  -2   -2.30    1.80
  -5   3  -2    2.40    2.10
   5   3   2    0.30    2.00
   6  -3   2    3.30    3.70
  -6  -3  -2    2.20    2.40
  -6  -3  -2    5.50    3.50
   6   3   2    5.20    3.10
  -6   3  -2    2.60    2.60
  -7  -3  -2   11.50    3.70
   7  -3   2   11.80    5.10
  -7  -3  -2    9.10    4.10
   7   3   2   10.90    4.40
  -7   3  -2    9.40    3.90
   8  -4  -2   30.50    6.60
  -8  -4   2   31.70    5.80
  -8  -4   2   39.30    6.70
  -8   4   2   28.50    5.80
   8   4  -2   32.80    6.60
  -7  -4   2 1130.49   27.90
   7  -4  -2 1181.28   31.50
  -7  -4   2 1202.28   27.50
   7   4  -2 1154.48   28.80
  -7   4   2 1174.88   27.80
   6  -4  -2   26.10    3.90
  -6  -4   2   11.60    3.10
   6  -4  -2   18.80    4.40
  -6  -4   2   23.10    4.60
  -6   4   2   19.80    4.20
   6   4  -2   14.60    3.90
   5  -4  -2   45.30    5.80
   5  -4  -2   63.29    4.30
  -5  -4   2   62.59    5.00
  -5  -4   2   66.19    6.30
  -5   4   2   56.79    5.80
   5   4  -2   58.69    6.70
  -5   4   2   61.09    4.00
   4  -4  -2   63.29    3.80
  -4  -4   2   65.69    4.70
  -4  -4   2   61.19    4.50
   4  -4  -2   47.40    5.20
  -4   4   2   60.49    4.60
   4   4  -2   68.79    5.50
  -4   4   2   59.89    3.90
  -3  -4   2   51.19    3.60
   3  -4  -2   45.00    2.90
  -3  -4   2   53.39    3.90
   3  -4  -2   53.09    4.40
  -3   4   2   49.00    3.50
  -3   4   2   50.99    3.70
   3   4  -2   51.79    2.30
   3   4  -2   54.09    4.40
   2  -4  -2   46.20    2.60
   2  -4  -2   41.90    3.60
  -2  -4   2   48.40    2.80
  -2  -4   2   51.29    3.30
  -2   4   2   45.90    3.40
  -2   4   2   39.50    2.80
   2   4  -2   46.90    2.60
   2   4  -2   47.90    4.30
  -1  -4   2 2342.67   28.60
  -1  -4   2 2479.55   32.00
   1  -4  -2 2436.46   30.60
   1  -4  -2 2393.16   31.90
  -1   4   2 2380.16   28.80
   1   4  -2 2480.65   31.90
  -1   4   2 2407.16   32.40
   1   4  -2 2428.06   32.20
   0  -4  -2 3215.58   40.30
   0  -4   2 3246.28   37.70
   0  -4   2 3191.58   40.50
   0  -4  -2 3143.99   40.60
   0   4   2 3192.78   40.90
   0   4  -2 3236.48   41.40
   0   4  -2 3195.98   38.80
  -1  -4  -2 2652.53   36.10
  -1  -4  -2 2711.33   30.70
  -1  -4  -2 2627.64   36.30
   1  -4   2 2628.74   35.10
  -1   4  -2 2649.83   32.70
  -1   4  -2 2662.63   35.60
  -1   4  -2 2627.34   36.50
   1   4   2 2624.64   35.10
  -2  -4  -2   35.70    4.10
  -2  -4  -2   34.00    2.40
   2  -4   2   35.30    4.10
  -2  -4  -2   43.00    4.30
  -2   4  -2   30.00    3.50
  -2   4  -2   31.90    2.40
  -2   4  -2   29.30    3.40
   2   4   2   32.10    3.10
  -3  -4  -2  692.33   13.50
  -3  -4  -2  704.33   17.20
   3  -4   2  695.83   17.80
  -3   4  -2  676.73   15.80
   3   4   2  735.33   17.60
   3   4   2  680.83   13.50
  -3   4  -2  678.73   13.30
  -3   4  -2  710.03   15.70
   4  -4   2    3.80    1.80
   4  -4   2    8.70    3.00
  -4  -4  -2    5.60    2.70
  -4  -4  -2    4.60    1.80
  -4   4  -2    6.90    2.50
   4   4   2    5.50    2.60
   4   4   2    4.40    1.70
  -4   4  -2    5.20    2.20
  -5  -4  -2   11.40    3.70
  -5  -4  -2   12.50    3.10
   5  -4   2    6.40    3.40
  -5   4  -2   11.60    3.00
   5   4   2    8.70    3.40
  -5   4  -2    9.90    2.90
   6  -4   2   33.30    6.90
  -6  -4  -2   24.60    4.30
  -6  -4  -2   22.80    5.30
   6   4   2   38.80    7.10
  -6   4  -2   13.40    3.70
   7  -4   2   23.90    6.50
  -7  -4  -2   21.90    5.60
   7   4   2   17.80    5.10
  -7   4  -2   28.40    5.60
   8  -5  -2   52.19    8.60
  -8  -5   2   51.39    7.10
  -8  -5   2   65.99    8.90
  -8   5   2   46.40    7.10
   8   5  -2   57.19    8.00
  -7  -5   2   37.60    5.60
  -7  -5   2   53.59    7.30
   7  -5  -2   28.80    5.80
  -7   5   2   50.79    6.60
   7   5  -2   52.79    7.10
  -6  -5   2   20.60    4.30
  -6  -5   2   16.10    3.80
   6  -5  -2   15.00    4.00
  -6   5   2   25.80    4.70
   6   5  -2   18.10    4.50
  -5  -5   2  154.08    7.80
   5  -5  -2  165.58    9.50
  -5  -5   2  148.89    8.10
   5  -5  -2  154.78    6.40
  -5   5   2  159.68    8.10
   5   5  -2  154.18    8.80
  -5   5   2  149.09    6.50
   4  -5  -2   62.59    3.60
  -4  -5   2   59.19    4.60
  -4  -5   2   57.59    4.50
   4  -5  -2   48.40    5.60
  -4   5   2   60.69    4.70
   4   5  -2   48.30    5.50
  -4   5   2   49.80    4.00
   3  -5  -2  211.48    5.60
  -3  -5   2  190.68    6.80
  -3  -5   2  202.28    7.30
   3  -5  -2  203.88    8.20
  -3   5   2  203.48    7.10
  -3   5   2  195.88    6.90
   3   5  -2  200.68    8.30
   3   5  -2  204.88    4.90
   2  -5  -2   11.00    2.20
  -2  -5   2    8.00    1.60
  -2  -5   2    9.30    2.00
   2  -5  -2    7.90    1.40
  -2   5   2    5.90    1.50
   2   5  -2   11.70    1.80
  -2   5   2    7.90    2.00
   2   5  -2    7.70    2.20
   1  -5  -2 1718.63   23.20
   1  -5  -2 1750.52   25.20
  -1  -5   2 1741.83   22.10
  -1  -5   2 1700.23   24.50
   1   5  -2 1750.52   24.70
   1   5  -2 1675.53   24.70
  -1   5   2 1666.23   21.30
  -1   5   2 1729.33   25.60
   0  -5   2  836.92   12.70
   0  -5  -2  821.12   15.00
   0  -5  -2  807.22   14.30
   0   5  -2  826.82   13.10
   0   5  -2  824.92   15.30
   0   5   2  819.22   15.00
  -1  -5  -2  780.72   10.20
  -1  -5  -2  772.12   15.40
   1  -5   2  775.82   14.30
  -1  -5  -2  773.52   14.90
   1   5   2  796.32   14.70
  -1   5  -2  781.82   14.60
  -1   5  -2  781.42   12.00
  -1   5  -2  765.02   15.60
   2  -5   2   57.69    4.30
  -2  -5  -2   54.89    4.30
  -2  -5  -2   57.09    2.80
  -2  -5  -2   54.89    5.20
  -2   5  -2   58.29    4.40
  -2   5  -2   53.99    4.00
  -2   5  -2   48.80    2.70
   2   5   2   55.29    3.70
  -3  -5  -2   84.89    6.00
   3  -5   2   84.79    6.10
  -3  -5  -2   81.09    4.20
   3   5   2   81.89    6.00
   3   5   2   82.29    4.30
  -3   5  -2   83.49    5.40
  -3   5  -2   94.19    5.70
   4  -5   2  109.29    7.80
   4  -5   2  105.29    5.30
  -4  -5  -2   97.39    7.20
  -4  -5  -2  106.79    5.60
   4   5   2  109.89    5.00
  -4   5  -2  116.49    6.60
   4   5   2  100.79    7.40
  -4   5  -2  101.19    6.60
   5  -5   2    6.00    3.30
  -5  -5  -2    9.30    3.50
  -5  -5  -2    5.90    2.40
  -5   5  -2    8.00    2.90
   5   5   2    7.50    3.30
  -5   5  -2    9.80    3.10
   6  -5   2   38.10    7.20
  -6  -5  -2   33.40    5.10
  -6  -5  -2   33.50    6.40
  -6   5  -2   35.80    5.80
   6   5   2   39.30    6.60
   7  -5   2   -1.80    3.40
  -7  -5  -2   -2.20    2.80
  -7   5  -2    3.10    3.50
   7   5   2   -1.10    2.70
  -8  -6   2  154.58   10.00
  -8  -6   2  141.19   10.90
   8  -6  -2  159.58   12.30
   8   6  -2  151.68   11.30
  -8   6   2  161.28   11.10
  -7  -6   2   19.40    4.80
   7  -6  -2   20.50    5.20
  -7  -6   2   20.70    4.60
  -7   6   2   17.60    4.60
   7   6  -2   14.70    4.40
  -6  -6   2  167.48    8.80
  -6  -6   2  150.48    9.10
   6  -6  -2  163.78   10.50
   6   6  -2  149.29    9.70
  -6   6   2  173.88    9.40
   5  -6  -2    1.90    1.30
   5  -6  -2   -0.40    1.70
  -5  -6   2    0.80    1.60
  -5  -6   2   -1.60    1.50
  -5   6   2    1.10    1.50
   5   6  -2    1.00    2.20
  -5   6   2   -1.30    1.60
  -4  -6   2   65.29    4.80
   4  -6  -2   68.89    5.80
   4  -6  -2   68.29    3.60
  -4  -6   2   64.79    4.80
   4   6  -2   62.39    2.30
  -4   6   2   57.39    4.40
  -4   6   2   63.49    4.70
   4   6  -2   76.29    7.30
  -3  -6   2    2.00    1.60
   3  -6  -2   -0.30    1.40
  -3  -6   2    0.40    1.20
   3  -6  -2    1.80    1.00
   3   6  -2    4.90    2.20
   3   6  -2    1.60    1.00
  -3   6   2    1.20    1.70
  -3   6   2    4.40    1.70
   2  -6  -2   32.20    3.50
  -2  -6   2   30.70    3.20
  -2  -6   2   33.10    2.60
   2  -6  -2   32.80    2.10
   2   6  -2   35.80    4.10
  -2   6   2   38.20    2.80
  -2   6   2   36.40    3.90
   2   6  -2   30.20    2.80
  -1  -6   2   60.59    3.70
   1  -6  -2   64.19    4.10
  -1  -6   2   55.09    2.90
   1  -6  -2   58.89    3.10
   1   6  -2   50.09    3.60
   1   6  -2   55.69    3.80
  -1   6   2   59.39    4.20
  -1   6   2   55.99    2.40
   0  -6  -2  235.88    7.60
   0  -6   2  242.58    7.30
   0  -6   2  250.97    6.20
   0  -6  -2  244.68    7.00
   0   6  -2  229.98    7.90
   0   6  -2  252.67    6.30
   0   6   2  253.47    8.00
   1  -6   2   45.30    3.30
  -1  -6  -2   45.00    1.60
  -1  -6  -2   45.70    3.70
  -1  -6  -2   51.49    4.70
  -1   6  -2   50.69    3.60
   1   6   2   52.49    3.90
  -1   6  -2   43.60    2.40
  -1   6  -2   39.10    4.00
   2  -6   2  178.48    7.50
  -2  -6  -2  167.98    4.70
  -2  -6  -2  168.78    7.60
   2   6   2  167.08    7.80
  -2   6  -2  171.68    7.10
  -2   6  -2  178.58    7.50
   2   6   2  162.08    6.40
  -2   6  -2  162.78    4.70
   3  -6   2   84.89    4.00
  -3  -6  -2   88.59    6.20
  -3  -6  -2   84.89    4.20
   3  -6   2   84.69    6.10
   3   6   2   90.49    6.50
  -3   6  -2   97.49    6.20
   3   6   2   86.99    4.70
  -3   6  -2   98.79    6.10
   4  -6   2  237.58   11.50
  -4  -6  -2  244.18   11.20
  -4  -6  -2  240.58    8.30
   4   6   2  235.88   11.10
  -4   6  -2  256.77   10.70
  -4   6  -2  232.28    9.70
  -5  -6  -2    6.70    2.60
   5  -6   2    7.80    3.50
  -5  -6  -2   10.90    3.90
  -5   6  -2    8.50    3.20
   5   6   2    9.30    3.70
  -5   6  -2   11.00    3.20
   6  -6   2   22.80    5.80
  -6  -6  -2   19.20    4.60
  -6   6  -2    9.80    3.50
   6   6   2   27.60    6.10
  -7  -6  -2   14.90    4.90
   7  -6   2    7.90    4.50
   7   6   2    4.80    3.80
  -7   6  -2    8.20    3.50
  -8  -7   2   17.30    5.00
  -8  -7   2   10.70    3.90
   8  -7  -2   12.60    4.50
  -8   7   2   10.50    4.40
   8   7  -2    6.60    3.80
   7  -7  -2   64.59    8.70
  -7  -7   2   79.99    8.20
  -7  -7   2   74.99    8.80
   7   7  -2   73.09    8.90
  -7   7   2   65.09    8.00
   6  -7  -2   -1.40    2.00
  -6  -7   2    7.00    2.90
  -6  -7   2    3.30    2.50
  -6   7   2    3.70    2.70
   6   7  -2    1.80    3.00
  -5  -7   2  497.65   15.10
  -5  -7   2  510.95   14.40
   5  -7  -2  500.75   17.00
   5   7  -2  488.75   16.50
  -5   7   2  483.85   13.20
  -5   7   2  498.75   14.80
  -4  -7   2  185.58    8.10
   4  -7  -2  190.58    5.50
  -4  -7   2  197.48    7.90
   4  -7  -2  197.38    9.50
   4   7  -2  186.38    9.20
  -4   7   2  188.28    7.90
  -4   7   2  188.48    7.90
   4   7  -2  191.28    4.90
  -3  -7   2  160.58    6.70
   3  -7  -2  175.68    8.00
  -3  -7   2  159.38    6.50
   3  -7  -2  154.58    4.50
  -3   7   2  155.58    6.50
  -3   7   2  170.68    7.20
   3   7  -2  156.28    7.90
   3   7  -2  161.48    5.10
  -2  -7   2   10.20    2.20
   2  -7  -2    8.10    1.40
  -2  -7   2    6.00    1.50
   2  -7  -2    4.30    1.90
  -2   7   2    8.70    2.30
  -2   7   2   13.10    2.10
   2   7  -2    6.10    2.20
   2   7  -2    7.30    1.80
  -1  -7   2  117.39    5.20
  -1  -7   2  116.59    4.40
   1  -7  -2  115.19    5.60
   1  -7  -2  113.49    4.60
  -1   7   2  121.39    3.70
   1   7  -2  116.69    5.50
   1   7  -2  112.79    5.40
  -1   7   2  124.59    5.90
   0  -7   2 1019.90   17.90
   0  -7  -2  981.90   17.20
   0  -7  -2 1003.30   18.70
   0  -7   2 1021.90   16.20
   0  -7  -2 1015.90   12.40
   0   7  -2  999.00   15.90
   0   7   2  997.40   18.50
   0   7  -2  994.70   18.80
  -1  -7  -2    2.10    1.70
  -1  -7  -2    0.80    1.60
   1  -7   2    1.60    1.40
  -1  -7  -2    0.80    0.60
   1  -7   2    3.00    1.60
  -1   7  -2    2.10    2.00
   1   7   2   -0.10    1.60
  -1   7  -2    3.40    1.10
  -2  -7  -2 2038.80   26.10
  -2  -7  -2 2065.59   33.50
   2  -7   2 2001.70   32.20
   2   7   2 2069.29   33.90
  -2   7  -2 2020.00   32.80
  -2   7  -2 2019.00   31.70
  -2   7  -2 1985.70   25.60
   2   7   2 2025.40   30.20
   3  -7   2  182.68    5.50
   3  -7   2  166.58    8.50
  -3  -7  -2  179.78    8.80
  -3  -7  -2  191.78    6.20
   3   7   2  188.08    9.20
   3   7   2  183.88    6.90
  -3   7  -2  185.38    8.60
  -3   7  -2  173.88    8.20
  -4  -7  -2   57.09    6.50
  -4  -7  -2   59.99    4.30
   4  -7   2   54.09    6.90
   4   7   2   58.69    7.00
  -4   7  -2   63.89    6.30
  -4   7  -2   69.19    5.60
  -5  -7  -2    8.30    3.30
   5  -7   2   12.30    4.20
  -5   7  -2    3.80    2.50
  -5   7  -2    4.00    3.30
   5   7   2    6.90    3.50
   6  -7   2   33.40    7.00
  -6  -7  -2   26.10    5.70
   6   7   2   26.30    5.70
  -6   7  -2   34.20    6.10
  -7  -7  -2   10.40    4.70
   7  -7   2    4.50    4.10
   7   7   2    2.50    3.70
  -7   7  -2    9.70    4.00
  -8  -8   2  213.18   13.00
   8  -8  -2  181.28   13.30
  -8  -8   2  192.68   11.30
  -8   8   2  173.98   12.40
   8   8  -2  176.28   12.50
   7  -8  -2   14.80    4.60
  -7  -8   2   18.70    4.60
  -7  -8   2   20.80    4.60
   7   8  -2   18.30    5.50
  -7   8   2   27.30    5.60
  -6  -8   2   30.10    4.40
   6  -8  -2   20.70    4.80
  -6  -8   2   35.50    5.60
   6   8  -2   34.50    6.30
  -6   8   2   34.90    5.40
  -5  -8   2   21.30    3.80
  -5  -8   2   30.00    4.60
   5  -8  -2   15.70    3.70
  -5   8   2   18.00    3.80
  -5   8   2   16.00    3.30
   5   8  -2   19.20    4.40
  -4  -8   2   77.79    5.40
  -4  -8   2   79.19    5.40
   4  -8  -2   82.59    3.30
   4  -8  -2   81.39    6.50
  -4   8   2   84.99    5.80
  -4   8   2   75.49    5.20
   4   8  -2   78.99    3.50
   4   8  -2   72.09    7.00
  -3  -8   2   11.90    2.50
   3  -8  -2   12.20    1.50
   3  -8  -2   13.20    3.00
  -3  -8   2   17.00    2.90
   3   8  -2   12.50    2.10
   3   8  -2   18.80    3.80
  -3   8   2   13.10    3.10
  -3   8   2   14.30    2.60
  -2  -8   2  225.18    7.60
   2  -8  -2  239.08    8.90
  -2  -8   2  207.58    7.00
   2  -8  -2  230.18    5.90
  -2   8   2  240.58    8.60
   2   8  -2  218.38    7.20
  -2   8   2  234.78    6.80
   2   8  -2  233.78    8.80
   1  -8  -2    4.90    1.90
  -1  -8   2    5.30    1.80
  -1  -8   2    5.70    1.50
   1  -8  -2    2.60    1.20
  -1   8   2    6.00    2.10
   1   8  -2    5.00    2.00
  -1   8   2    2.80    1.10
   1   8  -2    3.50    1.80
   0  -8   2  712.63   14.60
   0  -8  -2  696.23   13.80
   0  -8   2  708.53   13.30
   0  -8  -2  686.23    9.70
   0  -8  -2  714.03   15.50
   0   8  -2  680.73   12.50
   0   8   2  716.43   15.50
   0   8  -2  688.13   15.40
  -1  -8  -2  464.45    7.10
   1  -8   2  472.95   11.30
   1  -8   2  479.25   12.10
  -1  -8  -2  507.05   12.40
  -1  -8  -2  486.55   13.00
   1   8   2  477.95   12.10
  -1   8  -2  460.05   12.90
  -1   8  -2  464.75    8.30
  -2  -8  -2  259.37    9.90
   2  -8   2  245.38    9.10
  -2  -8  -2  240.68    5.80
  -2   8  -2  254.57    9.20
  -2   8  -2  252.17    9.80
   2   8   2  249.18   10.00
   2   8   2  260.47    8.50
  -2   8  -2  246.18    5.40
  -3  -8  -2  390.66   13.30
  -3  -8  -2  375.16    9.00
   3  -8   2  382.06   13.10
   3   8   2  406.76   13.90
  -3   8  -2  372.76   12.50
   3   8   2  376.56   10.50
  -3   8  -2  367.86   12.30
   4  -8   2    2.40    2.50
  -4  -8  -2    2.00    2.30
  -4   8  -2    2.40    2.40
  -4   8  -2    0.30    2.20
   4   8   2    3.70    3.30
  -5  -8  -2  124.99    9.30
   5  -8   2  122.99    9.50
  -5   8  -2  145.89    9.10
  -5   8  -2  144.29    8.50
   5   8   2  139.09   10.00
  -6  -8  -2   33.70    6.30
   6  -8   2   20.20    5.40
  -6   8  -2   25.60    5.20
   6   8   2   32.00    6.50
   7  -8   2    9.40    4.70
  -7  -8  -2   15.10    5.00
   7   8   2   16.30    5.40
  -7   8  -2   12.00    4.10
  -8  -9   2   61.29    7.50
   8  -9  -2   47.20    8.10
  -8  -9   2   56.59    8.40
   8   9  -2   46.90    7.80
  -8   9   2   67.59    8.70
  -7  -9   2   28.60    5.40
   7  -9  -2   22.80    5.50
  -7  -9   2   23.40    5.20
  -7   9   2   17.60    4.80
   7   9  -2   32.10    6.50
  -6  -9   2  328.77   12.80
  -6  -9   2  341.17   13.90
   6  -9  -2  323.57   15.10
  -6   9   2  338.77   14.20
   6   9  -2  353.06   15.50
  -6   9   2  333.87   12.00
  -5  -9   2    1.80    2.10
   5  -9  -2    0.00    1.80
  -5  -9   2    0.60    1.80
   5   9  -2   -0.20    2.00
  -5   9   2    1.40    2.20
  -5   9   2    2.20    2.20
   4  -9  -2   29.20    5.10
  -4  -9   2   42.20    4.90
  -4  -9   2   27.00    4.00
  -4   9   2   34.40    4.40
   4   9  -2   34.00    5.40
   4   9  -2   39.60    3.60
  -4   9   2   31.70    4.40
   3  -9  -2   -0.20    0.70
  -3  -9   2   -0.10    1.40
  -3  -9   2    1.50    1.40
   3  -9  -2    2.30    1.90
  -3   9   2   -0.50    1.50
   3   9  -2   -1.60    1.90
  -3   9   2   -1.40    1.00
   3   9  -2   -1.50    1.10
   2  -9  -2  156.38    4.80
  -2  -9   2  161.88    6.60
   2  -9  -2  157.38    7.50
  -2  -9   2  161.58    6.30
   2   9  -2  161.18    7.50
   2   9  -2  163.28    6.50
  -2   9   2  160.08    5.70
  -2   9   2  158.28    7.40
   1  -9  -2  415.06    9.40
  -1  -9   2  397.26   10.60
   1  -9  -2  417.16   11.80
  -1  -9   2  409.26   10.00
  -1   9   2  407.76   11.80
   1   9  -2  428.66   11.00
   1   9  -2  415.26   11.20
  -1   9   2  437.56    8.50
   0  -9   2    0.60    1.30
   0  -9  -2    1.20    1.50
   0  -9   2    2.30    1.30
   0  -9  -2   -0.10    1.60
   0  -9  -2    0.70    0.60
   0   9   2    2.30    1.70
   0   9  -2    1.30    1.20
   0   9  -2    0.90    1.60
   1  -9   2 3420.26   45.90
  -1  -9  -2 3371.46   48.50
  -1  -9  -2 3405.66   39.10
   1  -9   2 3358.36   46.80
   1   9   2 3356.46   47.00
  -1   9  -2 3382.86   40.50
  -1   9  -2 3399.96   48.80
   1   9   2 3361.46   48.10
  -2  -9  -2 1046.00   15.50
  -2  -9  -2 1056.49   22.70
   2  -9   2 1065.69   21.40
   2   9   2 1073.49   20.30
  -2   9  -2 1081.09   22.70
  -2   9  -2 1095.59   21.60
   2   9   2 1084.19   23.20
  -3  -9  -2    7.80    2.90
   3  -9   2    9.60    2.90
   3   9   2    0.80    1.70
  -3   9  -2    6.40    2.70
   3   9   2    5.90    2.80
  -3   9  -2    5.60    2.30
   4  -9   2  697.43   20.40
  -4  -9  -2  689.23   20.10
  -4   9  -2  691.43   19.10
   4   9   2  680.53   21.10
  -4   9  -2  704.73   19.20
   5  -9   2   81.39    9.40
  -5  -9  -2   63.59    7.80
  -5   9  -2   81.89    8.00
   5   9   2  105.99   10.90
  -5   9  -2   64.99    7.60
   6  -9   2   23.00    6.00
  -6  -9  -2    6.60    3.80
   6   9   2   11.60    4.50
  -6   9  -2   12.70    4.10
  -7  -9  -2   22.20    6.10
   7  -9   2   17.30    6.00
   7   9   2   17.60    5.90
  -7   9  -2    9.90    4.00
   8 -10  -2    9.50    4.40
  -8 -10   2   17.10    4.60
  -8 -10   2    3.80    3.60
   8  10  -2    6.50    4.20
  -8  10   2    9.00    4.40
  -7 -10   2   -0.70    2.60
  -7 -10   2    0.80    2.70
   7 -10  -2   -0.50    2.90
   7  10  -2    1.60    3.10
  -7  10   2   -1.20    3.00
   6 -10  -2    2.50    2.90
  -6 -10   2    2.50    2.40
  -6 -10   2   -0.20    2.00
  -6  10   2    1.10    2.30
  -6  10   2    0.20    2.60
   6  10  -2    8.20    3.90
  -5 -10   2  521.15   16.10
   5 -10  -2  501.25   17.70
  -5 -10   2  490.65   14.80
  -5  10   2  502.05   15.70
   5  10  -2  517.75   17.90
  -5  10   2  512.85   15.30
   4 -10  -2  378.06   14.10
  -4 -10   2  389.16   12.00
  -4 -10   2  377.96   12.30
  -4  10   2  387.96   13.10
   4  10  -2  369.26   14.10
  -4  10   2  392.06   12.20
  -3 -10   2   11.60    2.50
   3 -10  -2   12.60    1.70
  -3 -10   2   20.30    3.40
   3 -10  -2   10.60    3.00
   3  10  -2   16.90    2.70
   3  10  -2   11.30    3.20
  -3  10   2   12.10    3.00
  -3  10   2   17.30    2.90
  -2 -10   2  403.26   11.10
   2 -10  -2  426.76    8.90
   2 -10  -2  416.86   12.80
  -2 -10   2  418.26   11.50
  -2  10   2  433.66   10.20
   2  10  -2  419.76   11.40
   2  10  -2  416.26   12.60
  -2  10   2  427.06   13.10
  -1 -10   2   64.79    4.30
   1 -10  -2   73.39    5.30
  -1 -10   2   60.29    4.00
   1  10  -2   60.79    4.80
   1  10  -2   54.89    4.40
  -1  10   2   58.09    3.20
   0 -10  -2   34.90    2.10
   0 -10   2   32.30    3.40
   0 -10  -2   35.90    4.40
   0 -10   2   42.40    4.50
   0 -10  -2   44.10    4.20
   0  10   2   29.40    4.20
   0  10  -2   31.30    4.20
   0  10  -2   36.00    3.40
  -1 -10  -2   71.99    5.60
   1 -10   2   71.19    5.00
  -1 -10  -2   67.99    2.60
   1 -10   2   70.69    4.80
  -1  10  -2   77.19    5.80
   1  10   2   76.49    5.40
   1  10   2   66.29    5.30
  -1  10  -2   69.09    3.00
  -2 -10  -2  834.02   20.00
   2 -10   2  818.22   18.60
  -2  10  -2  808.12   19.80
  -2  10  -2  803.22   18.40
   2  10   2  824.82   20.30
   2  10   2  873.61   18.30
   3 -10   2    1.00    1.90
  -3 -10  -2   -0.70    1.60
   3  10   2    4.70    2.10
  -3  10  -2   -0.50    1.90
  -3  10  -2    4.30    2.40
   3  10   2    1.40    2.50
  -4 -10  -2   11.00    3.60
   4 -10   2   11.90    3.80
  -4  10  -2   14.50    3.90
  -4  10  -2   13.10    3.40
   4  10   2   12.30    4.20
  -5 -10  -2   90.69    9.80
   5 -10   2   62.89    8.20
   5  10   2   65.39    8.40
  -5  10  -2   77.29    8.20
  -5  10  -2   70.59    7.60
  -6 -10  -2    8.80    4.00
   6 -10   2   12.00    4.60
  -6  10  -2   10.10    3.80
   6  10   2   12.70    5.00
  -8 -11   2   47.10    8.00
   8 -11  -2   43.20    8.50
  -8 -11   2   42.40   10.20
  -8  11   2   38.40    7.00
   8  11  -2   32.60    6.80
  -7 -11   2   74.09    8.10
   7 -11  -2   58.69    9.10
  -7 -11   2   80.59    9.50
   7  11  -2   70.99    9.70
  -7  11   2   48.80    7.10
   6 -11  -2   86.69    9.60
  -6 -11   2  101.19    7.30
  -6 -11   2   96.29    7.80
  -6  11   2   99.99    9.30
   6  11  -2   87.49    9.70
  -6  11   2  106.19    7.50
  -5 -11   2    3.50    2.60
   5 -11  -2    0.60    2.70
  -5 -11   2    2.70    2.30
  -5  11   2    1.20    2.00
   5  11  -2    5.10    3.20
  -5  11   2    1.80    2.40
  -4 -11   2    1.50    2.00
  -4 -11   2    1.40    1.80
   4 -11  -2   -0.50    1.90
  -4  11   2    2.80    2.00
   4  11  -2    1.00    2.10
  -4  11   2   -0.60    2.00
  -3 -11   2  144.79    7.20
  -3 -11   2  137.49    7.00
   3 -11  -2  147.49    8.50
   3  11  -2  136.79    6.30
   3  11  -2  138.89    8.30
  -3  11   2  136.59    6.60
  -3  11   2  131.39    7.80
  -2 -11   2  903.01   18.30
  -2 -11   2  908.41   18.40
   2 -11  -2  911.11   14.90
   2 -11  -2  906.21   20.60
   2  11  -2  892.71   20.00
  -2  11   2  909.91   20.90
  -2  11   2  887.01   16.50
   2  11  -2  866.11   18.30
   1 -11  -2  662.23   17.00
   1 -11  -2  654.83   13.40
  -1 -11   2  685.63   15.00
   1 -11  -2  676.73   12.40
  -1 -11   2  661.43   15.20
   1  11  -2  688.13   15.50
  -1  11   2  664.63   16.90
   1  11  -2  666.33   16.20
   0 -11  -2  105.29    6.60
   0 -11   2  111.69    6.10
   0 -11  -2  106.89    3.80
   0 -11   2  111.49    5.70
   0  11   2  106.19    6.00
   0  11  -2  107.99    5.00
   0  11   2  105.19    6.40
   0  11  -2  116.29    6.80
   1 -11   2   17.50    3.20
  -1 -11  -2   12.60    3.30
   1 -11   2   20.00    3.30
   1  11   2   11.10    2.90
  -1  11  -2   16.20    3.60
  -1  11  -2   15.50    2.00
   1  11   2   14.70    3.20
   2 -11   2  144.59    7.60
  -2 -11  -2  153.58    8.40
   2 -11   2  148.89    7.70
   2  11   2  150.58    7.50
   2  11   2  135.39    8.10
  -2  11  -2  131.09    8.10
  -2  11  -2  145.89    7.70
  -3 -11  -2    9.60    3.30
   3 -11   2    6.00    2.60
   3  11   2   12.60    3.90
  -3  11  -2    7.70    3.20
  -3  11  -2   14.00    3.60
   3  11   2    9.90    2.80
  -4 -11  -2  250.87   12.40
   4 -11   2  268.67   12.60
  -4  11  -2  255.67   11.70
  -4  11  -2  251.67   11.70
   4  11   2  280.67   13.40
   5 -11   2  140.29   10.10
  -5 -11  -2  133.59   10.00
  -5  11  -2  134.69    9.30
   5  11   2  140.09   10.70
  -5  11  -2  147.49    9.90
   6 -11   2   18.40    5.50
  -6 -11  -2   17.60    4.70
  -6  11  -2   15.40    4.80
   6  11   2   26.00    6.60
   7 -12  -2   10.50    4.40
  -7 -12   2   11.50    4.30
  -7 -12   2   13.50    4.10
  -7  12   2   14.00    4.70
   7  12  -2   13.20    5.00
   6 -12  -2   82.59    9.60
  -6 -12   2  123.09    9.10
  -6 -12   2   93.29    7.20
  -6  12   2  116.79    8.20
   6  12  -2   97.59   10.50
  -6  12   2  111.69    8.50
  -5 -12   2    3.70    2.30
   5 -12  -2    4.50    3.00
  -5 -12   2   -0.40    2.00
  -5  12   2    5.50    2.70
   5  12  -2    1.60    2.60
  -5  12   2    3.40    2.70
  -4 -12   2    5.10    2.50
  -4 -12   2    6.40    2.70
   4 -12  -2    1.70    2.80
   4  12  -2    1.20    2.80
  -4  12   2   12.20    3.60
  -4  12   2    4.80    2.40
   3 -12  -2   44.10    5.80
  -3 -12   2   56.79    5.60
  -3 -12   2   40.90    4.60
   3  12  -2   43.90    6.00
  -3  12   2   41.30    5.40
  -3  12   2   51.49    5.00
   3  12  -2   49.99    4.90
   2 -12  -2  195.28    6.10
   2 -12  -2  203.38    9.50
  -2 -12   2  195.88    8.00
  -2 -12   2  197.78    8.20
  -2  12   2  193.48    6.90
   2  12  -2  193.48    8.20
   2  12  -2  197.48    9.10
  -2  12   2  177.88    9.00
  -1 -12   2  504.15   13.50
   1 -12  -2  512.05   10.90
   1 -12  -2  532.95   15.30
  -1 -12   2  514.85   13.20
   1  12  -2  529.05   14.60
   1  12  -2  509.35   13.50
  -1  12   2  530.75   12.60
  -1  12   2  513.85   15.30
   0 -12  -2  416.26   13.50
   0 -12   2  410.46   11.80
   0 -12   2  400.96   12.10
   0 -12  -2  414.16    8.50
   0  12  -2  401.66   10.20
   0  12   2  395.76   12.10
   0  12  -2  425.06   13.60
   0  12   2  424.36   13.30
   1 -12   2  226.28    9.00
   1 -12   2  232.08    9.40
  -1 -12  -2  207.78   10.00
  -1  12  -2  224.78   10.10
   1  12   2  230.38    9.60
   1  12   2  223.08    9.90
  -2 -12  -2    0.10    1.70
   2 -12   2   -0.60    1.60
   2 -12   2   -3.40    1.50
  -2  12  -2   -0.90    1.90
   2  12   2    0.80    2.20
   2  12   2   -2.60    1.70
  -3 -12  -2   17.70    4.20
   3 -12   2   24.80    4.60
   3  12   2   18.20    4.30
   3  12   2   19.00    3.70
  -3  12  -2   18.60    4.30
  -3  12  -2   29.80    4.90
  -4 -12  -2   -1.00    2.40
   4 -12   2   -1.60    2.30
  -4  12  -2   -0.10    2.40
  -4  12  -2    0.50    2.60
   4  12   2    2.90    2.90
   5 -12   2   33.50    6.60
  -5 -12  -2   42.30    7.00
  -5  12  -2   24.60    5.20
   5  12   2   40.40    7.50
  -5  12  -2   37.90    6.20
  -6 -12  -2   -1.10    3.50
   6 -12   2   -2.00    2.80
  -6  12  -2   -0.20    2.80
   6  12   2   -2.30    3.10
   7 -13  -2   -2.00    3.30
  -7 -13   2   -1.40    2.80
  -7  13   2    2.10    3.40
   7  13  -2    1.90    2.70
  -6 -13   2  145.99   10.00
   6 -13  -2  164.68   11.80
  -6 -13   2  150.88    9.00
   6  13  -2  165.18   11.50
  -6  13   2  157.48    9.70
  -6  13   2  153.48    9.90
  -5 -13   2   29.40    4.60
   5 -13  -2   21.30    5.10
  -5 -13   2   28.20    5.10
   5  13  -2   24.20    5.50
  -5  13   2   24.10    4.70
  -5  13   2   28.70    5.40
  -4 -13   2   -2.60    1.40
  -4 -13   2   -1.20    1.70
   4 -13  -2   -2.10    2.10
  -4  13   2   -2.00    1.80
  -4  13   2   -1.90    1.90
   4  13  -2   -0.30    2.20
  -3 -13   2    1.00    1.60
  -3 -13   2    0.50    1.60
   3 -13  -2    1.30    2.30
   3  13  -2    0.80    2.20
  -3  13   2   -0.80    2.00
  -3  13   2    2.00    1.80
   3  13  -2   -0.80    1.60
  -2 -13   2   26.50    4.00
   2 -13  -2   20.10    4.10
  -2 -13   2   27.10    4.00
  -2  13   2   28.10    3.50
   2  13  -2   26.70    4.00
   2  13  -2   22.80    4.40
  -2  13   2   27.60    4.70
  -1 -13   2   16.00    3.10
   1 -13  -2   12.00    3.40
   1 -13  -2   13.00    2.30
  -1 -13   2   11.80    2.90
  -1  13   2   15.60    2.90
  -1  13   2   11.20    3.30
   1  13  -2   18.10    3.40
   1  13  -2   11.10    3.00
   0 -13   2    3.20    2.20
   0 -13   2    2.40    1.70
   0 -13  -2    4.60    2.40
   0  13   2    1.70    2.20
   0  13  -2    0.90    1.60
   0  13   2   -0.10    1.90
   0  13  -2    0.90    2.30
   1 -13   2    0.10    1.60
   1 -13   2    0.70    1.70
  -1 -13  -2   -1.90    1.70
   1  13   2   -1.60    2.00
   1  13   2    3.80    2.50
  -1  13  -2    0.90    2.30
   2 -13   2    1.50    2.10
  -2 -13  -2    0.70    2.50
   2 -13   2    1.70    2.00
   2  13   2    2.00    2.30
  -2  13  -2   -0.70    2.20
   2  13   2    3.40    2.40
  -3 -13  -2  172.78   10.50
   3 -13   2  177.78    9.80
  -3  13  -2  183.88    9.70
   3  13   2  193.48    9.00
  -3  13  -2  184.78   10.30
   3  13   2  186.68   10.90
  -4 -13  -2  101.69   10.10
   4 -13   2  101.09    8.40
  -4  13  -2  102.29    8.00
  -4  13  -2  100.49    8.10
   4  13   2   99.19   10.10
   5 -13   2    3.50    3.40
  -5 -13  -2   -2.40    2.90
   5  13   2    9.00    3.80
  -5  13  -2   -2.10    2.90
  -5  13  -2    4.80    3.30
  -6 -13  -2    3.10    3.90
   6 -13   2   -0.20    2.90
   6  13   2   -1.80    3.20
  -6  13  -2    0.00    2.80
  -7 -14   2    2.30    3.30
   7 -14  -2    2.60    4.20
   7  14  -2    4.50    3.40
  -7  14   2    6.00    3.80
  -6 -14   2   49.10    9.90
   6 -14  -2   40.90    7.10
  -6 -14   2   56.49    7.70
   6  14  -2   55.49    8.30
  -6  14   2   59.49    7.40
  -6  14   2   43.90    6.50
  -5 -14   2   54.19    6.10
  -5 -14   2   74.59    8.10
   5 -14  -2   60.39    8.40
  -5  14   2   53.89    6.80
  -5  14   2   53.29    7.10
   5  14  -2   51.19    7.70
  -4 -14   2    1.40    2.10
  -4 -14   2    8.20    2.90
   4 -14  -2    1.50    2.60
   4  14  -2   10.00    3.90
  -4  14   2    4.30    2.60
  -4  14   2    3.60    3.00
  -3 -14   2   19.30    3.50
   3 -14  -2   24.30    4.70
  -3 -14   2   29.90    4.80
   3  14  -2   31.40    4.40
  -3  14   2   21.70    4.80
   3  14  -2   17.50    4.10
  -3  14   2   18.60    3.30
  -2 -14   2   22.90    3.80
  -2 -14   2   25.40    4.00
   2 -14  -2   21.00    4.40
  -2  14   2   23.40    3.30
   2  14  -2   30.50    4.60
  -2  14   2   17.80    4.30
   2  14  -2   30.10    5.00
   1 -14  -2   88.39    7.00
   1 -14  -2  113.09    7.70
  -1 -14   2   97.39    6.40
  -1 -14   2  110.29    6.60
   1  14  -2   96.59    7.00
  -1  14   2  106.19    7.70
  -1  14   2  106.39    6.00
   1  14  -2  113.19    6.60
   0 -14  -2   62.59    7.20
   0 -14   2   55.39    5.80
   0 -14   2   53.59    5.60
   0  14   2   44.90    5.70
   0  14   2   54.89    6.00
   0  14  -2   54.99    6.50
   1 -14   2  253.37   10.40
  -1 -14  -2  238.88   11.40
   1 -14   2  230.28    9.70
   1  14   2  235.78   10.60
   1  14   2  223.98   10.30
  -1  14  -2  224.68   10.90
   2 -14   2  495.75   15.40
   2 -14   2  479.45   15.00
  -2 -14  -2  471.15   16.40
  -2  14  -2  473.85   16.50
   2  14   2  486.85   17.00
   2  14   2  472.65   14.90
   3 -14   2  422.96   15.40
   3 -14   2  423.16   15.00
  -3 -14  -2  432.26   16.50
  -3  14  -2  403.26   15.70
   3  14   2  417.46   16.30
  -3  14  -2  411.46   14.80
   3  14   2  391.16   13.30
  -4 -14  -2    5.50    3.70
   4 -14   2    3.20    3.00
   4  14   2    2.20    3.40
  -4  14  -2    3.20    3.40
  -4  14  -2    5.60    3.20
   5 -14   2    4.30    3.50
  -5 -14  -2    0.30    3.70
  -5  14  -2    4.60    3.40
   5  14   2   11.90    4.30
  -5  14  -2    3.40    3.00
  -6 -14  -2   49.20    8.50
   6 -14   2   54.39    8.40
   6  14   2   60.19    9.90
  -6  14  -2   48.40    8.20
  -6  14  -2   55.79    8.40
  -7 -15   2   33.70    6.80
   7 -15  -2   49.40    8.50
  -7  15   2   28.40    6.30
   7  15  -2   26.60    6.40
  -6 -15   2   13.70    4.30
   6 -15  -2    6.00    4.40
  -6  15   2   15.00    4.50
  -6  15   2   20.40    5.50
   6  15  -2    9.80    4.40
  -5 -15   2   11.40    4.00
  -5 -15   2    4.70    2.60
   5 -15  -2   11.80    4.20
   5  15  -2   12.50    4.50
  -5  15   2   10.40    4.00
  -5  15   2    7.60    3.20
   4 -15  -2   61.49    7.90
  -4 -15   2   89.79    8.60
  -4 -15   2   76.69    6.90
  -4  15   2   86.89    9.40
   4  15  -2   65.39    8.20
  -4  15   2   76.19    7.10
   3 -15  -2   -1.40    2.40
  -3 -15   2   -1.40    1.60
  -3 -15   2   -1.90    1.90
   3  15  -2   -0.50    1.90
  -3  15   2    0.60    1.70
  -3  15   2   -2.40    2.10
   3  15  -2   -2.50    2.00
   2 -15  -2  149.79    9.00
   2 -15  -2  137.49    6.50
  -2 -15   2  133.39    8.00
  -2 -15   2  148.39    7.60
   2  15  -2  139.69    8.60
   2  15  -2  129.79    7.90
  -2  15   2  113.69    8.30
  -1 -15   2   43.00    5.10
   1 -15  -2   47.60    6.20
  -1 -15   2   64.09    6.40
   1  15  -2   48.70    5.50
  -1  15   2   44.40    6.10
   1  15  -2   44.40    5.70
   0 -15  -2   -0.40    2.10
   0 -15   2    0.00    1.80
   0 -15   2   -0.30    1.90
   0  15   2    0.80    2.70
   0  15   2   -1.70    2.00
   0  15  -2   -4.70    1.90
   1 -15   2   22.70    4.10
  -1 -15  -2   14.40    4.00
   1 -15   2   21.30    4.00
   1  15   2   19.40    4.20
  -1  15  -2   19.30    4.40
   1  15   2   19.50    4.40
   2 -15   2   56.29    6.10
   2 -15   2   74.39    7.20
  -2 -15  -2   64.19    7.90
   2  15   2   73.19    8.20
   2  15   2   61.39    6.70
  -2  15  -2   75.49    8.30
   3 -15   2    7.60    3.50
   3 -15   2    5.80    2.90
  -3 -15  -2    5.30    3.30
  -3  15  -2    9.40    3.80
   3  15   2    8.10    3.90
   3  15   2    6.50    3.10
  -4 -15  -2   -2.00    3.10
   4 -15   2    0.70    2.80
  -4  15  -2    1.60    2.80
   4  15   2    0.70    2.90
  -4  15  -2    0.40    3.00
  -5 -15  -2   11.40    4.60
   5 -15   2    9.20    4.20
   5  15   2    2.00    3.40
  -5  15  -2   17.90    4.90
  -5  15  -2   13.20    4.70
  -6 -16   2    5.90    3.80
   6 -16  -2    3.70    4.10
   6  16  -2   11.60    4.60
  -6  16   2    4.30    3.70
  -6  16   2    9.60    4.10
   5 -16  -2   81.59    9.80
  -5 -16   2  105.89    8.60
   5  16  -2   81.89   10.10
  -5  16   2   90.69    8.60
  -5  16   2   83.79    9.30
  -4 -16   2    7.70    3.30
  -4 -16   2    9.30    3.10
   4 -16  -2    4.30    3.30
  -4  16   2    6.10    3.00
   4  16  -2   11.80    4.30
  -4  16   2    8.30    3.70
  -3 -16   2   17.00    4.20
  -3 -16   2   13.90    3.50
   3 -16  -2   21.10    4.60
   3  16  -2    8.00    3.20
   3  16  -2   12.30    4.00
  -3  16   2   18.50    4.10
  -3  16   2   19.20    3.60
  -2 -16   2  200.68    9.20
   2 -16  -2  193.38   10.80
  -2 -16   2  187.08    9.80
   2  16  -2  178.78    9.50
   2  16  -2  196.38   10.10
  -2  16   2  207.08   11.30
   1 -16  -2   55.09    7.10
  -1 -16   2   37.10    5.20
  -1 -16   2   49.50    5.50
   1  16  -2   63.69    7.10
  -1  16   2   44.20    6.50
   0 -16   2  118.89    7.60
   0 -16   2  118.29    7.60
   0 -16  -2  111.79    8.30
   0  16   2  113.79    8.50
   0  16   2  107.29    7.40
   0  16  -2  122.09    8.60
   1 -16   2  483.75   15.20
  -1 -16  -2  457.15   17.10
   1 -16   2  451.65   14.70
   1  16   2  470.35   16.40
  -1  16  -2  478.05   17.00
   1  16   2  456.95   15.80
   2 -16   2    1.00    2.40
  -2 -16  -2    0.10    2.50
   2 -16   2    0.40    2.50
   2  16   2    1.70    2.60
  -2  16  -2    3.70    2.90
   2  16   2    0.80    2.70
   3 -16   2    6.30    3.60
   3 -16   2   10.30    3.70
  -3 -16  -2   12.40    4.50
  -3  16  -2    8.50    4.00
   3  16   2    5.80    3.70
  -4 -16  -2   -2.30    3.00
   4 -16   2    0.40    2.50
   4 -16   2    0.30    3.00
  -4  16  -2    4.60    3.30
   4  16   2    2.10    3.40
  -4  16  -2    0.80    2.70
   5 -16   2  112.99   11.70
  -5 -16  -2  130.99   11.10
   5  16   2  129.79   13.70
  -5  16  -2  113.59   11.50
  -5  16  -2  132.39   10.30
  -6 -17   2   31.50    6.20
   6 -17  -2   13.40    5.40
  -6  17   2   26.90    6.20
  -6  17   2   27.10    5.50
   6  17  -2   25.90    6.90
   5 -17  -2    0.10    3.00
  -5 -17   2    3.40    3.30
   5  17  -2   -1.20    2.90
  -5  17   2    4.70    3.30
  -5  17   2    2.10    3.20
   4 -17  -2    4.40    3.70
  -4 -17   2   -0.90    2.20
  -4  17   2   -0.60    2.30
  -4  17   2    0.90    2.10
   4  17  -2    0.80    3.00
  -3 -17   2    1.90    2.10
   3 -17  -2    3.50    3.50
  -3 -17   2    0.70    2.50
  -3  17   2   -1.80    2.00
   3  17  -2   -1.60    2.60
   3  17  -2    1.10    2.60
   2 -17  -2   32.30    5.60
  -2 -17   2   42.00    6.00
  -2 -17   2   36.30    5.10
  -2  17   2   31.20    5.80
   2  17  -2   39.70    5.90
   2  17  -2   51.29    6.50
  -1 -17   2   51.79    6.30
  -1 -17   2   55.39    6.20
   1 -17  -2   53.89    7.10
  -1  17   2   51.59    7.10
   1  17  -2   57.89    6.90
   0 -17   2    4.60    2.60
   0 -17  -2    4.50    3.10
   0 -17   2   14.90    3.90
   0  17  -2   14.40    4.20
   0  17   2   15.60    4.50
   1 -17   2   43.80    5.80
   1 -17   2   49.99    6.50
  -1 -17  -2   42.20    6.80
   1  17   2   35.80    6.00
  -1  17  -2   42.10    6.70
   1  17   2   55.59    7.20
   2 -17   2  107.09    9.90
  -2 -17  -2   88.69    9.30
   2 -17   2  101.09    7.80
   2  17   2  109.99    9.10
   2  17   2  102.39    9.50
  -2  17  -2   93.69    9.60
  -3 -17  -2    9.60    4.30
   3 -17   2   13.60    4.00
   3 -17   2    7.70    3.60
  -3  17  -2   11.60    4.10
   3  17   2   -0.50    3.40
   4 -17   2   18.80    4.70
  -4 -17  -2   18.80    5.50
   4 -17   2   11.60    4.80
  -4  17  -2   21.70    5.50
   4  17   2   11.70    4.80
   5 -18  -2   -1.60    3.40
  -5 -18   2    1.30    2.90
  -5  18   2   -1.70    2.70
   5  18  -2    2.10    3.30
  -5  18   2   -0.50    2.70
   4 -18  -2   92.89   10.30
  -4 -18   2  117.49    8.80
   4  18  -2  112.29   11.20
  -4  18   2   99.49   10.30
  -3 -18   2    4.40    2.90
   3 -18  -2    2.90    3.40
   3  18  -2    6.80    3.00
  -3  18   2    1.50    2.70
   3  18  -2    4.20    3.00
   2 -18  -2  161.28   10.60
  -2 -18   2  169.78    9.90
  -2 -18   2  143.79    8.60
  -2  18   2  158.68   10.90
   2  18  -2  187.78   10.50
  -1 -18   2    1.50    2.30
   1 -18  -2    1.60    3.30
  -1 -18   2   -1.00    2.40
   1  18  -2    1.70    2.90
  -1  18   2    2.30    3.20
   0 -18   2  151.08    9.10
   0 -18  -2  175.08   11.00
   0 -18   2  157.88    9.00
   0  18  -2  135.19    9.90
   0  18   2  161.08   10.50
   1 -18   2   32.40    5.30
   1 -18   2   29.00    5.20
  -1 -18  -2   36.80    6.50
   1  18   2   45.50    7.00
  -1  18  -2   37.40    6.20
   1  18   2   47.50    6.80
  -2 -18  -2  270.47   14.20
   2 -18   2  271.27   12.60
   2 -18   2  259.17   12.30
   2  18   2  285.37   13.10
  -2  18  -2  268.97   14.00
   2  18   2  280.77   14.30
  -3 -18  -2    1.30    3.20
   3 -18   2    5.80    3.10
   3 -18   2   -0.70    2.70
  -3  18  -2    0.30    2.60
   3  18   2    3.90    3.70
   4 -18   2   37.10    6.80
  -4 -18  -2   34.80    7.00
   4 -18   2   26.10    5.90
  -4  18  -2   46.40    7.50
   4  18   2   38.80    8.20
  -5 -19   2   -1.30    3.10
   5 -19  -2    4.00    4.20
  -5  19   2    0.30    3.40
   5  19  -2    0.00    3.30
   4 -19  -2   17.50    5.30
  -4 -19   2   25.00    5.50
   4  19  -2   27.20    6.00
  -4  19   2   23.90    5.70
   3 -19  -2    9.30    4.30
  -3 -19   2    9.80    3.90
  -3  19   2   13.40    4.20
   3  19  -2    6.70    4.00
   3  19  -2    9.20    6.20
   2 -19  -2   -0.40    2.90
  -2 -19   2    6.60    3.40
  -2 -19   2    4.20    2.70
   2  19  -2    1.00    3.10
  -2  19   2    2.60    3.20
   1 -19  -2   70.29    8.60
  -1 -19   2   84.39    8.60
  -1 -19   2   65.39    6.80
   1  19  -2   73.69    8.60
  -1  19   2   75.69    9.10
   0 -19   2   33.20    5.20
   0 -19   2   30.70    5.30
   0 -19  -2   35.80    6.70
   0  19  -2   26.10    5.50
   0  19   2   21.20    5.50
   1 -19   2   15.40    3.80
   1 -19   2   21.90    4.80
  -1 -19  -2   13.10    4.50
   1  19   2   17.20    4.60
  -1  19  -2    7.80    4.40
  -2 -19  -2   95.69   10.70
   2 -19   2   51.79    6.40
   2 -19   2   66.29    7.60
   2  19   2   91.49    9.60
   2  19   2   90.09   10.00
  -2  19  -2   95.39   10.00
   3 -19   2   22.00    5.30
  -3 -19  -2   27.40    6.30
   3 -19   2   23.80    5.50
   3  19   2   15.50    5.30
  -3  19  -2   30.50    6.40
   4 -19   2   11.10    4.80
   4 -19   2   17.90    5.10
  -4 -19  -2   24.40    6.50
  -4  19  -2   19.40    5.10
   4 -20  -2    5.50    4.20
  -4 -20   2   11.40    4.20
   4  20  -2    0.40    3.80
  -4  20   2    4.30    3.80
  -3 -20   2    6.30    3.90
   3 -20  -2    6.90    4.30
  -3  20   2    8.80    4.20
   2 -20  -2    9.20    4.30
  -2 -20   2   23.30    5.40
   2  20  -2   21.10    5.20
  -2  20   2   27.20    6.40
  -1 -20   2    3.50    2.70
  -1 -20   2    0.20    2.40
   1 -20  -2   -0.30    2.90
  -1  20   2    4.30    3.60
   1  20  -2   -1.70    2.90
   0 -20   2   10.40    3.50
   0 -20   2   20.80    4.90
   0 -20  -2   26.90    6.10
   0  20  -2    6.70    4.20
   0  20   2   10.50    4.20
  -1 -20  -2   10.50    4.60
   1 -20   2    7.10    3.60
   1 -20   2    6.30    3.60
   1  20   2    7.80    4.00
  -1  20  -2   10.90    4.50
  -2 -20  -2   38.90    7.40
   2 -20   2   37.70    6.40
   2 -20   2   19.10    4.80
  -2  20  -2   33.40    6.60
   2  20   2   38.70    7.30
   2  20   2   36.60    7.00
   3 -20   2    0.60    2.90
  -3 -20  -2    4.90    4.00
   3 -20   2    2.80    3.50
   3  20   2    2.50    3.60
  -3  20  -2    3.30    3.40
   3 -21  -2   91.79   10.40
  -3 -21   2  110.49   11.30
  -3  21   2   93.69   10.50
  -2 -21   2   30.90    6.10
   2 -21  -2   22.00    6.00
   2  21  -2   19.30    5.10
  -2  21   2   28.20    6.20
   1 -21  -2   -0.30    3.20
  -1 -21   2    2.00    3.00
  -1  21   2    1.50    3.40
   1  21  -2    0.80    3.10
   0 -21   2   74.59    8.00
   0 -21   2   58.29    7.70
   0 -21  -2   60.29    8.80
   0  21  -2   58.49    8.60
   0  21   2   62.39    8.80
   1 -21   2    4.30    3.20
   1 -21   2   -1.90    2.30
  -1 -21  -2    4.30    4.10
   1  21   2    0.00    3.70
  -1  21  -2    2.80    3.80
   2 -21   2   10.30    4.00
   2 -21   2    8.90    4.30
  -2 -21  -2    7.20    4.70
  -2  21  -2   10.50    5.00
   2  21   2   10.00    4.50
  -2 -22   2   19.40    8.00
   2 -22  -2    9.10    5.10
  -2  22   2   18.90    5.80
   2  22  -2   21.30    5.80
  -1 -22   2   33.60    9.40
   1 -22  -2   22.30    6.10
  -1  22   2   35.20    7.20
   1  22  -2   33.80    7.00
   0 -22  -2   22.20    6.20
   0  22   2   27.90    6.30
   0  22  -2   14.00    5.10
   1 -22   2   27.50    5.60
  -1 -22  -2   46.60    8.70
  -1  22  -2   38.60    7.70
   1  22   2   47.90    7.90
   9   0  -3    2.30    3.50
  -9   0   3   -1.70    2.20
  -8   0   3    2.90    2.80
   8   0  -3    0.90    2.90
   8   0  -3   -1.50    2.20
   7   0  -3   -0.90    2.40
  -7   0   3    3.60    2.60
   7   0  -3   -0.80    1.90
  -6   0   3   -0.80    1.50
   6   0  -3   -0.30    1.70
   6   0  -3    0.10    1.90
   5   0  -3   -1.50    1.70
  -5   0   3   -0.20    1.60
   5   0  -3    2.40    1.80
   4   0  -3   -0.30    1.50
  -4   0   3    0.80    1.00
   4   0  -3    0.00    1.40
  -4   0   3    0.80    1.40
  -3   0   3   -1.60    1.00
  -3   0   3   -0.10    1.20
   3   0  -3    0.00    1.40
   3   0  -3    1.20    1.50
  -2   0   3   -1.40    1.20
  -2   0   3   -0.80    1.00
   2   0  -3    0.70    1.00
   2   0  -3   -0.10    1.30
  -1   0   3   -0.20    0.90
   1   0  -3    1.10    1.50
  -1   0   3    0.40    1.40
   1   0  -3   -0.60    1.10
   1   0  -3    0.20    0.70
   0   0   3    0.00    0.80
   0   0  -3    0.00    1.00
   0   0  -3   -2.00    0.90
   0   0  -3   -1.10    1.40
  -1   0  -3    0.70    1.20
  -1   0  -3    1.00    1.60
  -1   0  -3   -2.30    1.10
  -1   0  -3    0.90    1.10
  -2   0  -3    2.20    1.70
  -2   0  -3   -0.80    1.20
  -2   0  -3   -0.50    1.40
  -2   0  -3    0.20    1.20
  -3   0  -3    2.10    1.90
  -3   0  -3   -2.80    1.00
  -3   0  -3    0.90    1.60
  -3   0  -3    0.40    1.50
  -4   0  -3   -0.40    1.60
  -4   0  -3    1.50    2.20
   4   0   3   -0.40    1.50
  -4   0  -3   -1.60    1.70
   5   0   3    0.00    2.00
  -5   0  -3    1.20    2.80
  -5   0  -3    2.80    2.10
  -6   0  -3   -2.40    1.90
   6   0   3   -1.00    2.20
  -6   0  -3    2.30    3.40
  -7   0  -3   -2.80    2.70
  -7   0  -3   -0.30    2.70
  -9  -1   3   41.70    6.80
   9  -1  -3   39.70    7.90
   9   1  -3   41.70    8.20
  -9   1   3   54.69    8.00
  -8  -1   3   41.50    6.70
   8  -1  -3   41.40    7.60
   8  -1  -3   36.00    6.20
   8   1  -3   36.30    6.10
   8   1  -3   37.90    7.10
  -8   1   3   34.90    5.90
  -7  -1   3  970.70   24.40
   7  -1  -3  935.61   27.10
   7  -1  -3  987.60   24.20
   7   1  -3  961.90   27.40
  -7   1   3 1024.60   25.00
   7   1  -3  940.01   24.30
   6  -1  -3  189.78    9.30
   6  -1  -3  180.28   10.50
  -6  -1   3  188.78    9.30
   6   1  -3  190.48   10.60
  -6   1   3  181.48    9.20
   6   1  -3  179.88    9.50
  -5  -1   3   -0.50    1.40
   5  -1  -3    1.80    1.50
   5  -1  -3    2.20    2.20
  -5   1   3    1.10    1.70
   5   1  -3    2.50    1.90
   5   1  -3   -0.60    1.80
  -5   1   3    0.60    1.10
  -4  -1   3   42.10    2.40
   4  -1  -3   47.90    4.50
   4  -1  -3   42.10    4.70
  -4  -1   3   41.10    4.30
  -4   1   3   54.19    5.10
  -4   1   3   46.80    2.90
   4   1  -3   45.00    4.90
   4   1  -3   56.09    5.40
   3  -1  -3  241.38    8.00
  -3  -1   3  252.07    7.80
  -3  -1   3  236.08    6.10
   3  -1  -3  243.28    7.80
  -3   1   3  235.08    6.50
  -3   1   3  250.57    7.70
   3   1  -3  245.18    8.40
   3   1  -3  246.18    7.70
   2  -1  -3  645.54   12.70
  -2  -1   3  687.03   12.30
   2  -1  -3  691.13   11.90
  -2  -1   3  671.23   12.70
  -2   1   3  673.03   12.60
   2   1  -3  672.43   13.40
   2   1  -3  688.63   11.10
  -2   1   3  684.13   12.50
   1  -1  -3 4824.22   55.59
  -1  -1   3 4629.44   57.29
   1  -1  -3 4940.01   58.79
   1   1  -3 4883.71   59.29
   1   1  -3 4861.51   53.29
   1   1  -3 4960.10   58.89
  -1   1   3 4828.32   58.99
  -1   1   3 4909.51   56.59
   0  -1   3  203.48    5.60
   0  -1  -3  212.28    5.60
   0  -1  -3  206.78    6.50
   0   1   3  193.38    6.70
   0   1  -3  204.68    4.80
   0   1   3  203.18    5.00
   0   1  -3  203.28    6.20
   0   1  -3  196.48    6.90
  -1  -1  -3    1.90    1.40
  -1   1  -3    2.60    1.50
  -1   1  -3    4.50    1.60
  -1   1  -3    3.50    1.80
  -1   1  -3    5.40    1.60
  -2  -1  -3    1.80    1.50
  -2  -1  -3    1.20    1.20
  -2  -1  -3    0.80    1.70
  -2  -1  -3    0.00    1.30
  -2   1  -3    0.50    1.20
  -2   1  -3    0.40    1.40
  -2   1  -3    0.00    1.20
  -2   1  -3    0.20    1.50
  -3  -1  -3   -0.50    1.80
  -3  -1  -3    1.70    1.70
  -3  -1  -3    0.30    1.60
  -3  -1  -3    1.80    1.60
  -3   1  -3    0.10    1.30
  -3   1  -3    1.00    1.90
  -3   1  -3    1.70    1.90
  -3   1  -3   -1.50    1.40
   4  -1   3   65.29    6.40
  -4  -1  -3   56.99    5.30
  -4  -1  -3   55.59    6.50
   4   1   3   61.39    6.60
  -4   1  -3   62.19    5.10
  -4   1  -3   55.89    5.50
  -4   1  -3   69.39    7.20
   5  -1   3    1.20    2.20
  -5  -1  -3    4.70    2.50
  -5  -1  -3    5.70    3.10
  -5   1  -3    3.40    2.30
  -5   1  -3    1.90    2.80
   5   1   3    5.90    2.80
  -6  -1  -3   -0.30    2.10
  -6  -1  -3   -4.20    2.30
  -6   1  -3    5.60    2.70
   6   1   3   -0.70    2.20
  -6   1  -3    1.30    3.10
  -7  -1  -3   40.00    6.30
  -7  -1  -3   41.60    7.30
   7  -1   3   42.40    8.70
  -7   1  -3   29.00    5.60
  -9  -2   3   29.20    6.00
   9  -2  -3   16.40    5.70
  -9   2   3   23.80    5.60
   9   2  -3   18.10    5.50
   9   2  -3   15.60    4.70
   8  -2  -3   36.60    7.10
  -8  -2   3   30.90    5.60
  -8   2   3   36.80    6.30
   8   2  -3   24.10    5.30
   8   2  -3   30.20    6.60
   7  -2  -3    3.30    3.10
   7  -2  -3    0.70    2.20
  -7  -2   3    5.80    3.10
  -7   2   3    4.40    2.70
   7   2  -3    6.70    3.10
   7   2  -3    9.00    3.70
  -6  -2   3  441.56   14.70
   6  -2  -3  440.26   16.20
   6  -2  -3  410.16   13.30
  -6  -2   3  448.76   14.70
   6   2  -3  441.36   15.00
  -6   2   3  435.26   14.40
  -5  -2   3    9.60    2.60
   5  -2  -3    5.70    2.70
   5  -2  -3   10.20    2.50
  -5  -2   3    8.70    2.60
   5   2  -3    8.30    2.70
  -5   2   3    3.60    2.00
  -5   2   3    9.70    1.90
  -4  -2   3  486.65   12.30
   4  -2  -3  490.25   13.80
  -4  -2   3  488.75    8.50
   4  -2  -3  485.55   12.20
  -4  -2   3  500.95   12.90
   4   2  -3  498.35   13.80
  -4   2   3  478.55   12.70
  -4   2   3  468.85   10.10
  -3  -2   3  525.85    9.80
   3  -2  -3  523.65   11.70
  -3  -2   3  558.54   12.50
  -3  -2   3  523.35   10.90
   3  -2  -3  530.95   12.50
   3   2  -3  540.85   13.10
  -3   2   3  512.65   10.80
  -3   2   3  535.65   12.00
  -2  -2   3  540.45   11.30
   2  -2  -3  536.35   10.60
   2  -2  -3  533.75   11.00
  -2   2   3  535.35   10.50
   2   2  -3  540.75   10.70
   2   2  -3  524.75   11.80
   2   2  -3  529.95    9.20
  -2   2   3  516.55   11.00
  -1  -2   3   89.89    3.90
   1  -2  -3   95.49    3.70
   1  -2  -3   97.29    4.40
   1   2  -3   94.39    4.60
  -1   2   3   90.49    4.60
   1   2  -3   92.09    4.40
  -1   2   3   97.99    3.40
   0  -2  -3  388.36    9.40
   0  -2  -3  391.16    8.70
   0  -2   3  393.46    8.80
   0   2  -3  384.06   10.00
   0   2   3  391.46    9.90
   0   2  -3  393.16    6.90
   0   2  -3  401.16    8.90
   0   2   3  389.36    6.90
  -1  -2  -3   91.79    3.40
  -1  -2  -3   90.69    4.80
  -1  -2  -3   87.39    4.80
  -1   2  -3   78.39    4.00
  -1   2  -3   82.59    4.30
  -1   2  -3   84.29    4.20
  -1   2  -3   87.09    5.10
   1   2   3   98.09    5.10
  -2  -2  -3   57.69    4.40
  -2  -2  -3   45.60    3.10
  -2  -2  -3   52.09    4.40
  -2   2  -3   48.70    3.80
  -2   2  -3   50.09    4.00
  -2   2  -3   55.99    4.60
   2   2   3   50.89    3.90
  -2   2  -3   54.19    3.80
  -3  -2  -3   42.90    4.00
  -3  -2  -3   42.70    5.10
  -3  -2  -3   58.39    5.80
  -3   2  -3   43.70    4.40
   3   2   3   48.60    4.00
  -3   2  -3   51.89    5.30
  -3   2  -3   47.00    4.80
  -3   2  -3   38.60    4.50
  -4  -2  -3   16.70    3.10
  -4  -2  -3   17.40    3.90
   4  -2   3   14.10    3.10
   4   2   3    8.30    2.40
  -4   2  -3    9.00    3.00
  -4   2  -3   10.10    2.80
   4   2   3    8.20    2.90
  -4   2  -3    6.20    2.50
  -5  -2  -3   54.39    5.80
   5  -2   3   45.70    6.00
  -5  -2  -3   43.20    6.60
  -5   2  -3   51.89    7.00
   5   2   3   56.79    7.30
  -5   2  -3   50.29    5.90
   6  -2   3   32.10    6.80
  -6  -2  -3   32.10    5.10
  -6  -2  -3   38.70    6.40
  -6   2  -3   34.90    5.80
   6   2   3   41.00    6.80
   7  -2   3    5.90    5.00
  -7  -2  -3   -1.80    3.20
   7   2   3    8.90    4.40
  -7   2  -3    1.90    3.10
   9  -3  -3   42.60    8.20
  -9  -3   3   70.59    9.10
   9   3  -3   74.29   11.20
  -9   3   3   63.69    8.30
   9   3  -3   61.89    8.90
  -8  -3   3    5.80    3.20
   8  -3  -3   -0.40    2.70
   8   3  -3    2.70    3.20
  -8   3   3    1.10    2.80
   8   3  -3    0.70    2.50
   7  -3  -3  404.86   14.10
  -7  -3   3  397.86   15.40
  -7  -3   3  416.76   15.20
   7  -3  -3  377.46   16.70
   7   3  -3  391.16   15.80
  -7   3   3  421.36   15.50
   6  -3  -3   41.10    5.00
  -6  -3   3   41.50    5.70
  -6  -3   3   26.40    4.40
   6  -3  -3   41.10    6.30
   6   3  -3   36.30    5.50
  -6   3   3   40.00    5.40
   5  -3  -3   38.50    5.50
   5  -3  -3   35.80    4.20
  -5  -3   3   20.60    3.60
  -5  -3   3   35.50    4.40
   5   3  -3   42.50    5.60
  -5   3   3   36.40    4.60
  -5   3   3   39.40    3.70
  -4  -3   3  997.00   19.70
  -4  -3   3 1007.10   18.80
  -4  -3   3  986.30   13.90
   4  -3  -3  970.90   18.40
   4  -3  -3  992.80   21.20
  -4   3   3  976.90   17.00
  -4   3   3  978.60   19.40
   4   3  -3  988.50   21.10
  -3  -3   3  256.97    7.10
   3  -3  -3  248.58    7.40
  -3  -3   3  253.47    8.20
   3  -3  -3  248.68    8.30
  -3   3   3  244.88    7.70
   3   3  -3  236.48    8.70
  -3   3   3  230.18    7.30
   3   3  -3  248.38    6.30
   2  -3  -3   25.80    2.90
   2  -3  -3   26.60    2.80
  -2  -3   3   30.70    3.40
  -2  -3   3   23.40    1.80
   2   3  -3   31.50    3.50
  -2   3   3   21.50    2.40
   2   3  -3   24.80    2.60
  -2   3   3   26.00    3.00
  -1  -3   3  757.02   13.80
   1  -3  -3  748.63   13.70
   1  -3  -3  774.72   13.30
  -1   3   3  757.12   11.40
   1   3  -3  752.72   13.90
  -1   3   3  773.22   14.60
   1   3  -3  755.22   14.30
   0  -3   3 2588.54   31.20
   0  -3  -3 2601.04   35.30
   0  -3  -3 2562.84   34.10
   0  -3   3 2604.44   34.50
   0   3  -3 2603.94   34.00
   0   3   3 2593.64   35.80
   0   3  -3 2550.04   36.00
   0   3   3 2597.94   30.30
  -1  -3  -3  107.59    5.10
   1  -3   3  104.29    5.00
  -1  -3  -3  112.39    5.40
   1  -3   3  105.49    4.80
  -1  -3  -3  104.49    3.40
  -1   3  -3   99.09    5.50
  -1   3  -3   99.69    4.50
  -1   3  -3  108.49    5.00
   1   3   3  105.99    5.20
  -2  -3  -3  288.67    9.70
  -2  -3  -3  299.07    9.90
  -2  -3  -3  297.57    7.50
  -2   3  -3  302.17    8.40
  -2   3  -3  299.77    9.10
  -2   3  -3  296.27   10.00
   2   3   3  294.97    9.10
  -2   3  -3  275.07    8.90
  -3  -3  -3   67.29    5.20
  -3  -3  -3   70.69    4.30
  -3  -3  -3   74.09    6.00
  -3   3  -3   65.29    5.30
   3   3   3   68.89    4.70
  -3   3  -3   74.99    5.60
  -3   3  -3   65.89    5.10
  -3   3  -3   63.89    4.30
   4  -3   3   -1.00    1.90
  -4  -3  -3    3.00    1.80
  -4  -3  -3    2.80    2.50
   4  -3   3    0.70    1.50
  -4   3  -3   -1.90    1.80
   4   3   3   -2.10    1.20
  -4   3  -3    0.00    1.90
   4   3   3   -0.80    1.80
   5  -3   3    1.30    2.90
  -5  -3  -3    3.20    2.10
  -5  -3  -3    2.90    2.70
   5   3   3    2.70    2.50
  -5   3  -3    4.50    2.60
  -6  -3  -3   24.40    5.60
   6  -3   3   16.10    5.40
  -6   3  -3   15.60    4.50
   6   3   3   18.80    4.80
   7  -3   3    2.60    3.70
  -7  -3  -3    0.30    3.40
   7   3   3    3.10    3.60
  -7   3  -3    4.80    4.00
  -9  -4   3    2.80    3.00
   9  -4  -3    1.60    3.50
   9   4  -3    2.20    3.30
  -9   4   3   -3.60    2.60
   9   4  -3    1.80    3.20
  -8  -4   3  106.59   10.90
  -8  -4   3   82.99    9.10
   8  -4  -3   99.89   11.60
  -8   4   3   84.09    9.20
   8   4  -3   81.19    9.50
  -7  -4   3   27.80    5.10
   7  -4  -3   25.30    5.70
  -7  -4   3   43.60    6.30
   7   4  -3   30.60    5.70
  -7   4   3   35.10    5.70
  -6  -4   3  139.79    8.40
  -6  -4   3  157.48    8.50
   6  -4  -3  143.89    7.40
   6  -4  -3  157.98   10.00
   6   4  -3  159.78    9.50
  -6   4   3  168.38    9.10
   5  -4  -3  933.91   22.80
  -5  -4   3  927.71   20.50
  -5  -4   3  903.21   20.10
   5  -4  -3  924.31   18.50
  -5   4   3  925.01   17.40
  -5   4   3  933.01   20.60
   5   4  -3  946.21   22.40
   4  -4  -3   66.39    4.20
  -4  -4   3   68.79    2.80
   4  -4  -3   68.49    5.60
  -4  -4   3   71.59    4.60
  -4  -4   3   71.39    5.00
   4   4  -3   71.19    5.50
  -4   4   3   65.49    4.20
  -4   4   3   69.29    4.80
   3  -4  -3    1.80    1.60
   3  -4  -3    1.00    1.10
  -3  -4   3    0.50    1.50
  -3  -4   3    1.40    1.10
   3   4  -3    3.30    1.20
  -3   4   3    2.20    1.60
  -3   4   3    1.30    1.40
   3   4  -3    4.00    1.90
  -2  -4   3  124.79    5.30
   2  -4  -3  121.59    4.80
   2  -4  -3  122.69    5.30
  -2  -4   3  119.89    3.70
   2   4  -3  118.99    4.90
  -2   4   3  118.59    5.40
   2   4  -3  117.59    5.70
  -2   4   3  111.29    4.40
   1  -4  -3 1165.98   18.90
   1  -4  -3 1185.38   18.90
  -1  -4   3 1193.88   19.20
   1   4  -3 1174.88   19.40
  -1   4   3 1173.08   15.70
  -1   4   3 1203.18   20.30
   1   4  -3 1182.88   19.90
   0  -4   3 2513.75   31.00
   0  -4  -3 2587.34   35.40
   0  -4   3 2506.55   34.80
   0  -4  -3 2560.84   35.00
   0   4   3 2622.34   36.20
   0   4   3 2606.54   29.20
   0   4  -3 2543.15   33.70
   0   4  -3 2620.04   36.60
  -1  -4  -3  454.45    7.40
  -1  -4  -3  442.76   11.30
   1  -4   3  453.15   11.00
  -1  -4  -3  463.75   11.70
   1  -4   3  446.76   10.50
  -1   4  -3  427.96   11.70
  -1   4  -3  450.55    9.80
   1   4   3  467.05   11.40
  -2  -4  -3   22.10    3.50
   2  -4   3   28.10    3.70
  -2  -4  -3   26.70    2.50
  -2  -4  -3   26.50    4.00
  -2   4  -3   24.40    3.70
   2   4   3   25.20    3.30
  -2   4  -3   21.90    3.20
  -2   4  -3   30.10    3.20
   3  -4   3   31.20    4.80
  -3  -4  -3   31.30    4.60
  -3  -4  -3   42.10    5.20
  -3  -4  -3   33.10    3.40
  -3   4  -3   30.00    4.10
   3   4   3   34.30    3.90
  -3   4  -3   35.00    3.70
  -3   4  -3   22.10    3.70
   4  -4   3   75.39    7.80
  -4  -4  -3   67.69    7.10
   4  -4   3   75.59    5.30
  -4  -4  -3   70.29    4.80
   4   4   3   64.59    6.90
  -4   4  -3   83.59    6.30
   4   4   3   89.89    5.30
  -4   4  -3   81.19    6.20
  -5  -4  -3  337.87   11.60
  -5  -4  -3  327.27   14.40
   5  -4   3  335.07   15.30
  -5   4  -3  334.87   18.50
  -5   4  -3  330.97   13.30
   5   4   3  302.57   13.70
   6  -4   3   87.69   10.40
  -6  -4  -3   87.69   10.10
  -6   4  -3   92.49    9.10
   6   4   3   84.29    9.50
   7  -4   3    4.90    4.30
  -7  -4  -3    3.50    3.90
   7   4   3   -2.40    2.70
  -7   4  -3   -2.30    2.60
  -9  -5   3    3.30    3.10
   9  -5  -3   -1.90    2.80
  -9  -5   3    2.50    3.10
   9   5  -3   -0.50    2.90
  -9   5   3   -1.90    3.20
   9   5  -3    0.10    3.10
  -8  -5   3    0.30    2.40
   8  -5  -3    3.30    3.50
  -8  -5   3    2.90    2.70
   8   5  -3    0.20    2.90
  -8   5   3    3.30    3.30
   7  -5  -3   86.19    9.90
  -7  -5   3   68.89    7.90
  -7  -5   3   80.99    8.10
  -7   5   3   74.59    8.00
   7   5  -3   72.19    8.50
   6  -5  -3   21.20    4.50
   6  -5  -3   23.50    3.60
  -6  -5   3   26.50    4.70
  -6  -5   3   26.80    4.60
   6   5  -3   17.20    4.30
  -6   5   3   18.10    4.10
   5  -5  -3   40.30    5.70
   5  -5  -3   45.50    4.40
  -5  -5   3   43.70    5.00
  -5  -5   3   49.60    5.60
  -5   5   3   36.40    4.80
  -5   5   3   38.70    4.20
   5   5  -3   38.70    5.50
   4  -5  -3 1272.57   25.00
  -4  -5   3 1224.58   23.20
   4  -5  -3 1279.47   20.70
  -4  -5   3 1264.27   22.30
  -4   5   3 1247.48   23.10
  -4   5   3 1214.48   21.50
   4   5  -3 1264.87   25.50
   4   5  -3 1250.27   17.60
   3  -5  -3   20.50    2.60
   3  -5  -3   19.30    3.20
  -3  -5   3   24.00    3.30
  -3  -5   3   19.30    2.50
   3   5  -3   21.10    3.50
  -3   5   3   14.60    2.40
  -3   5   3   20.90    3.00
   3   5  -3   22.60    2.40
  -2  -5   3   28.30    2.10
  -2  -5   3   33.50    3.70
   2  -5  -3   34.40    3.20
   2  -5  -3   38.60    4.00
  -2   5   3   27.30    3.40
  -2   5   3   30.00    2.50
   2   5  -3   31.50    3.30
   2   5  -3   34.40    4.00
   1  -5  -3    1.30    1.30
  -1  -5   3    0.50    1.20
   1  -5  -3    1.30    1.30
  -1  -5   3   -0.10    0.50
  -1   5   3   -0.30    1.50
   1   5  -3   -1.00    1.20
  -1   5   3    0.50    0.70
   1   5  -3   -1.80    1.20
   0  -5   3  768.52   14.90
   0  -5  -3  759.42   15.10
   0  -5  -3  742.93   15.00
   0  -5   3  766.82   11.80
   0   5  -3  760.82   15.90
   0   5   3  740.43   15.60
   0   5  -3  764.62   13.70
  -1  -5  -3   10.20    2.50
  -1  -5  -3   11.70    2.50
   1  -5   3    9.20    2.00
  -1  -5  -3   13.50    1.20
   1  -5   3   12.70    2.40
   1   5   3    5.40    1.90
  -1   5  -3   14.50    2.90
  -1   5  -3   12.50    2.00
  -2  -5  -3  270.17    6.30
  -2  -5  -3  264.67    9.50
  -2  -5  -3  263.37    9.80
   2  -5   3  273.67    9.40
  -2   5  -3  278.57   10.00
  -2   5  -3  267.27    7.50
  -2   5  -3  259.07    9.10
   2   5   3  257.77    8.70
  -3  -5  -3   10.90    2.90
   3  -5   3   15.60    3.40
  -3  -5  -3   14.00    2.20
  -3  -5  -3   10.30    3.10
  -3   5  -3   13.10    3.20
   3   5   3   12.20    2.40
  -3   5  -3   16.70    3.40
  -3   5  -3   16.00    2.60
   3   5   3   13.70    3.20
  -4  -5  -3   60.29    5.20
  -4  -5  -3   52.09    6.40
   4  -5   3   53.99    6.90
  -4   5  -3   51.39    6.10
  -4   5  -3   60.99    6.20
   4   5   3   58.49    5.90
   4   5   3   61.39    7.60
   5  -5   3    2.20    2.90
  -5  -5  -3    1.00    2.50
  -5   5  -3   -0.10    2.20
  -5   5  -3   -2.20    2.10
   5   5   3    3.70    2.70
  -6  -5  -3   21.20    5.50
   6  -5   3   16.60    5.60
  -6   5  -3   15.90    4.20
   6   5   3   19.10    5.30
   7  -5   3    1.60    3.70
  -7  -5  -3    3.50    3.60
   7   5   3    5.40    3.80
  -7   5  -3    2.90    3.30
  -8  -6   3   31.80    6.20
   8  -6  -3   48.30    8.00
  -8  -6   3   56.79    7.60
  -8   6   3   41.10    6.80
   8   6  -3   34.40    6.50
  -7  -6   3   32.70    5.80
   7  -6  -3   26.90    5.80
  -7  -6   3   28.80    5.30
  -7   6   3   29.30    5.30
   7   6  -3   23.50    5.20
   6  -6  -3    8.40    3.50
  -6  -6   3   12.40    3.40
  -6  -6   3    7.00    2.80
  -6   6   3    8.80    2.90
   6   6  -3    8.70    3.40
   5  -6  -3  216.48   10.70
  -5  -6   3  216.08    9.20
  -5  -6   3  226.78    9.40
   5  -6  -3  206.58    7.50
  -5   6   3  215.78    8.50
  -5   6   3  204.18    9.20
   5   6  -3  212.88   10.40
   4  -6  -3   29.00    4.70
  -4  -6   3   25.40    3.80
  -4  -6   3   27.60    3.60
   4  -6  -3   25.30    3.00
  -4   6   3   21.80    3.30
   4   6  -3   26.20    4.30
  -4   6   3   22.40    3.40
   4   6  -3   23.40    2.20
   3  -6  -3  542.25   11.00
   3  -6  -3  530.85   13.70
  -3  -6   3  538.95   13.00
  -3  -6   3  535.05   11.50
  -3   6   3  514.85   12.90
   3   6  -3  550.14   14.60
  -3   6   3  514.05   11.80
   3   6  -3  519.35   10.80
  -2  -6   3   50.79    3.70
  -2  -6   3   54.19    2.80
   2  -6  -3   55.39    3.30
   2  -6  -3   54.19    4.20
   2   6  -3   53.79    4.40
   2   6  -3   56.99    3.80
  -2   6   3   60.09    3.20
  -2   6   3   59.09    4.40
  -1  -6   3  119.29    3.60
   1  -6  -3  119.19    5.60
  -1  -6   3  125.69    5.60
   1  -6  -3  112.59    5.00
  -1   6   3  123.19    3.20
  -1   6   3  121.99    6.00
   1   6  -3  115.39    5.40
   1   6  -3  117.09    5.70
   0  -6  -3  468.05   11.70
   0  -6  -3  449.95   11.30
   0  -6   3  461.65    8.80
   0  -6   3  432.06   11.10
   0   6   3  463.15   12.10
   0   6  -3  463.65   12.10
   0   6  -3  466.65    9.90
   1  -6   3  114.29    5.80
  -1  -6  -3  109.39    5.90
  -1  -6  -3   99.89    5.70
   1  -6   3  110.09    5.00
  -1   6  -3  106.29    4.30
   1   6   3  103.49    5.70
  -1   6  -3   99.29    6.00
  -2  -6  -3   20.70    2.00
  -2  -6  -3   22.10    3.60
  -2  -6  -3   20.10    3.60
   2  -6   3   13.60    2.80
  -2   6  -3   21.60    3.40
  -2   6  -3   21.20    2.60
  -2   6  -3   18.80    3.60
   2   6   3   20.50    3.20
   3  -6   3   25.50    4.10
  -3  -6  -3   26.10    4.40
  -3  -6  -3   25.40    2.90
  -3   6  -3   28.30    3.10
   3   6   3   22.90    4.50
  -3   6  -3   21.10    3.50
  -3   6  -3   26.70    4.30
   3   6   3   29.70    3.70
   4  -6   3    9.30    3.40
  -4  -6  -3   11.50    3.70
  -4   6  -3    9.10    3.10
  -4   6  -3    4.10    2.50
   4   6   3    7.70    3.40
  -5  -6  -3    9.10    3.70
   5  -6   3   17.50    4.70
  -5   6  -3   14.50    4.20
  -5   6  -3   10.00    3.50
   5   6   3   20.20    4.80
   6  -6   3   -0.40    2.90
  -6  -6  -3   -1.20    2.70
  -6   6  -3    2.00    2.80
   6   6   3   -1.90    2.70
   8  -7  -3   24.60    6.20
  -8  -7   3   19.30    5.10
  -8  -7   3   14.50    4.30
   8   7  -3   16.20    5.00
  -8   7   3   20.20    5.10
  -7  -7   3  221.28   10.90
  -7  -7   3  213.18   11.60
   7  -7  -3  221.48   13.20
  -7   7   3  235.38   11.80
   7   7  -3  237.08   13.10
   6  -7  -3   12.60    3.90
  -6  -7   3   16.00    3.90
  -6  -7   3   12.80    3.60
   6   7  -3    9.40    3.50
  -6   7   3    9.10    3.20
   5  -7  -3    0.50    1.40
   5  -7  -3    3.20    2.30
  -5  -7   3   -2.90    1.20
  -5  -7   3    5.30    2.30
  -5   7   3    4.30    2.50
  -5   7   3    0.50    1.90
   5   7  -3   -1.40    1.90
  -4  -7   3    1.80    1.60
  -4  -7   3   -0.30    1.20
   4  -7  -3    0.50    1.00
   4  -7  -3    0.30    1.60
  -4   7   3   -1.20    1.30
   4   7  -3    2.20    2.10
   4   7  -3    0.40    0.80
  -4   7   3   -0.40    1.30
  -3  -7   3  108.99    5.00
  -3  -7   3  120.69    6.10
   3  -7  -3  117.79    6.60
   3  -7  -3  117.09    4.70
   3   7  -3  104.39    4.80
  -3   7   3  119.49    5.40
   3   7  -3  117.99    6.80
  -3   7   3  104.29    5.90
   2  -7  -3  206.58    7.90
  -2  -7   3  196.98    5.80
  -2  -7   3  199.68    7.40
   2  -7  -3  200.78    6.20
   2   7  -3  198.78    7.10
  -2   7   3  203.98    5.90
   2   7  -3  213.08    8.30
  -2   7   3  194.78    7.90
  -1  -7   3  778.02   12.50
   1  -7  -3  798.52   16.40
  -1  -7   3  793.62   16.10
   1  -7  -3  807.52   15.20
  -1   7   3  800.32   17.10
  -1   7   3  779.72   11.20
   1   7  -3  796.72   16.40
   1   7  -3  804.82   15.60
   0  -7   3  301.37    7.20
   0  -7  -3  291.87    9.00
   0  -7   3  293.17    9.20
   0  -7  -3  299.07    9.70
   0   7  -3  304.87    9.90
   0   7  -3  289.17    7.60
   0   7   3  302.87    9.80
   1  -7   3  798.52   15.30
  -1  -7  -3  789.62   17.70
  -1  -7  -3  798.62   17.10
   1  -7   3  792.82   16.90
   1   7   3  797.22   17.20
  -1   7  -3  781.82   13.60
  -1   7  -3  789.42   18.10
   2  -7   3  253.77    9.40
  -2  -7  -3  245.38    5.50
  -2  -7  -3  232.08    9.70
  -2  -7  -3  248.28    9.70
  -2   7  -3  245.28    6.90
  -2   7  -3  245.28    9.10
   2   7   3  251.37    9.00
  -2   7  -3  238.78    9.90
  -3  -7  -3    3.60    2.50
   3  -7   3    0.00    1.60
   3   7   3    4.10    2.10
  -3   7  -3    1.80    2.20
  -3   7  -3    2.90    2.20
   3   7   3    1.50    2.30
  -4  -7  -3  106.09    8.10
   4  -7   3   96.59    7.70
  -4   7  -3  114.89    7.80
  -4   7  -3  101.39    7.30
   4   7   3  111.89   10.60
  -5  -7  -3  298.47   13.90
   5  -7   3  267.27   13.80
  -5   7  -3  271.27   12.10
  -5   7  -3  269.27   12.60
   5   7   3  259.47   13.90
   6  -7   3   32.10    6.80
  -6  -7  -3   31.60    6.40
  -6   7  -3   23.50    5.20
   6   7   3   37.40    7.00
  -8  -8   3  114.69   10.40
   8  -8  -3   93.89   11.40
  -8  -8   3   98.39   10.20
   8   8  -3   94.59   10.40
  -8   8   3  106.69   10.40
   7  -8  -3    2.90    2.80
  -7  -8   3    4.00    2.60
  -7  -8   3   -0.20    2.00
   7   8  -3    4.80    3.70
  -7   8   3    2.60    2.90
   6  -8  -3   99.69   10.00
  -6  -8   3  102.59    7.50
  -6  -8   3   93.39    7.00
  -6   8   3   88.09    8.10
  -6   8   3   98.19    6.70
   6   8  -3  104.39   10.30
   5  -8  -3   55.59    6.80
  -5  -8   3   64.49    6.50
  -5  -8   3   61.39    6.30
  -5   8   3   54.99    5.60
   5   8  -3   49.30    6.60
  -5   8   3   47.80    5.40
   4  -8  -3   58.49    3.40
  -4  -8   3   59.19    4.60
   4  -8  -3   52.99    6.00
  -4  -8   3   56.49    5.40
  -4   8   3   57.09    4.50
  -4   8   3   56.59    5.60
   4   8  -3   61.09    3.60
   4   8  -3   73.29    7.20
   3  -8  -3   10.10    1.70
  -3  -8   3   14.20    2.80
  -3  -8   3   10.30    2.10
   3  -8  -3    7.30    2.30
  -3   8   3   13.10    2.40
   3   8  -3   15.30    2.40
  -3   8   3   10.70    2.80
   3   8  -3    5.90    2.40
  -2  -8   3   90.49    4.20
   2  -8  -3   85.89    5.60
  -2  -8   3   95.19    5.30
   2  -8  -3   92.09    4.40
   2   8  -3   86.49    5.70
  -2   8   3  109.19    6.20
  -2   8   3   95.99    4.10
   2   8  -3   89.19    5.10
   1  -8  -3   31.60    3.40
  -1  -8   3   34.50    4.00
   1  -8  -3   29.40    3.70
  -1  -8   3   40.50    2.70
   1   8  -3   38.10    4.30
  -1   8   3   32.20    4.10
  -1   8   3   30.90    1.90
   1   8  -3   38.00    3.90
   0  -8  -3  140.59    7.00
   0  -8   3  143.69    5.20
   0  -8  -3  142.09    6.20
   0  -8   3  150.28    6.70
   0   8   3  141.19    7.10
   0   8  -3  144.29    5.30
   0   8  -3  139.49    7.10
  -1  -8  -3  144.99    7.50
  -1  -8  -3  147.59    7.00
   1  -8   3  149.09    7.00
   1  -8   3  152.98    6.10
   1   8   3  164.28    7.50
  -1   8  -3  140.79    7.60
  -1   8  -3  159.88    5.30
  -2  -8  -3  366.56   12.20
   2  -8   3  360.06   11.20
  -2  -8  -3  352.56   12.40
  -2   8  -3  340.07    8.10
  -2   8  -3  357.26   11.70
   2   8   3  367.86   11.20
  -2   8  -3  340.07   12.30
   3  -8   3  314.07   12.10
  -3  -8  -3  325.77   12.90
   3   8   3  323.67   13.20
  -3   8  -3  341.47   12.60
  -3   8  -3  331.77   12.00
   3   8   3  328.27   10.60
  -4  -8  -3   42.80    6.20
   4  -8   3   43.00    6.10
  -4   8  -3   49.60    6.20
  -4   8  -3   38.80    5.30
   4   8   3   50.89    7.20
   5  -8   3   11.30    4.10
  -5  -8  -3   14.00    4.50
   5   8   3    6.20    3.80
  -5   8  -3    9.10    3.50
  -5   8  -3    4.40    2.50
   6  -8   3   -1.30    2.70
  -6  -8  -3    0.50    2.80
  -6   8  -3    3.60    2.80
   6   8   3    1.40    3.10
   8  -9  -3   67.19    9.30
  -8  -9   3   99.29   10.10
  -8  -9   3   76.89    9.30
  -8   9   3   96.39   10.50
   8   9  -3   99.29   11.30
  -7  -9   3   17.10    4.20
   7  -9  -3    9.30    4.10
  -7  -9   3   16.50    4.50
   7   9  -3    9.30    4.20
  -7   9   3    9.10    3.60
   6  -9  -3   24.40    5.60
  -6  -9   3   25.30    4.80
  -6  -9   3   21.60    4.30
  -6   9   3   24.30    4.50
   6   9  -3   18.10    4.80
  -6   9   3   22.40    4.60
   5  -9  -3   24.60    4.80
  -5  -9   3   31.80    4.70
  -5  -9   3   27.20    4.20
  -5   9   3   26.60    4.30
   5   9  -3   26.60    5.00
  -5   9   3   27.80    4.40
  -4  -9   3   37.30    4.30
   4  -9  -3   31.80    4.50
   4  -9  -3   38.90    2.90
  -4  -9   3   42.20    5.00
  -4   9   3   38.50    4.50
   4   9  -3   44.00    6.00
  -4   9   3   31.90    4.80
   4   9  -3   45.10    3.30
   3  -9  -3   86.39    4.10
   3  -9  -3   87.39    6.30
  -3  -9   3   85.99    4.80
  -3  -9   3   85.69    5.50
  -3   9   3   76.99    5.80
   3   9  -3   90.59    5.00
   3   9  -3   81.49    6.20
  -3   9   3   84.99    4.80
  -2  -9   3   34.80    3.30
   2  -9  -3   32.30    3.20
   2  -9  -3   26.60    3.80
  -2  -9   3   29.80    3.70
  -2   9   3   31.00    4.30
   2   9  -3   33.10    3.90
  -2   9   3   28.30    2.70
   2   9  -3   32.40    4.40
   1  -9  -3  264.67    9.70
  -1  -9   3  260.37    7.30
   1  -9  -3  260.17    8.20
  -1  -9   3  273.47    9.10
   1   9  -3  261.27    8.60
   1   9  -3  256.07    9.30
  -1   9   3  272.97    5.60
  -1   9   3  250.57    9.60
   0  -9  -3  221.08    9.00
   0  -9   3  219.88    6.90
   0  -9  -3  227.88    8.20
   0  -9   3  222.88    8.40
   0   9  -3  218.88    9.00
   0   9  -3  207.98    6.70
   0   9   3  226.48    9.00
  -1  -9  -3 1081.99   21.70
   1  -9   3 1088.89   19.90
  -1  -9  -3 1130.69   23.30
  -1   9  -3 1107.29   17.40
  -1   9  -3 1124.69   23.50
   1   9   3 1131.19   22.40
   2  -9   3  449.06   13.70
   2  -9   3  459.95   13.00
  -2  -9  -3  469.15   14.80
   2   9   3  462.25   14.90
  -2   9  -3  461.55   13.80
  -2   9  -3  466.15   14.70
   2   9   3  465.35   13.40
   3  -9   3  211.58   10.00
  -3  -9  -3  212.48   10.50
  -3   9  -3  204.98    9.80
   3   9   3  229.38   11.20
   3   9   3  216.18    8.80
  -3   9  -3  211.58   10.00
   4  -9   3  147.39    9.70
  -4  -9  -3  147.89    9.50
  -4   9  -3  148.69    9.00
   4   9   3  156.68   10.40
  -4   9  -3  149.99    9.00
  -5  -9  -3   81.09    9.30
   5  -9   3   74.49    9.10
  -5   9  -3   57.89    7.20
   5   9   3   62.89    8.80
  -5   9  -3   80.99    8.20
  -6  -9  -3   15.50    5.20
   6  -9   3   16.30    5.30
  -6   9  -3   16.50    4.50
   6   9   3   12.60    5.20
  -8 -10   3   37.70    6.60
   8 -10  -3   13.40    4.90
  -8 -10   3   26.80    6.30
   8  10  -3   20.90    5.90
  -8  10   3   24.70    5.80
  -7 -10   3   15.50    4.50
  -7 -10   3   16.30    4.30
   7 -10  -3    8.70    3.80
   7  10  -3   15.90    5.20
  -7  10   3   17.00    4.90
   6 -10  -3   78.39    9.20
  -6 -10   3   86.59    8.30
  -6 -10   3   77.09    7.80
  -6  10   3   81.09    7.80
   6  10  -3   73.89    9.00
  -6  10   3   75.29    7.80
  -5 -10   3    0.30    1.80
  -5 -10   3   -1.40    1.50
   5 -10  -3    0.80    2.20
  -5  10   3   -1.90    1.80
  -5  10   3    2.50    2.40
   5  10  -3    0.60    2.50
   4 -10  -3   37.00    5.10
  -4 -10   3   43.60    5.30
  -4 -10   3   49.70    5.20
   4  10  -3   48.80    3.80
   4  10  -3   47.40    6.00
  -4  10   3   49.80    5.10
  -4  10   3   39.70    5.30
  -3 -10   3   36.70    4.40
   3 -10  -3   28.30    4.20
   3 -10  -3   40.00    2.90
  -3 -10   3   38.90    4.10
  -3  10   3   33.00    3.70
   3  10  -3   38.90    5.20
   3  10  -3   40.40    4.20
  -3  10   3   41.50    5.20
  -2 -10   3  336.47    9.30
   2 -10  -3  334.27    9.00
  -2 -10   3  332.27   10.70
   2 -10  -3  323.37   11.50
   2  10  -3  318.77   11.30
  -2  10   3  323.77    8.20
  -2  10   3  325.37   11.70
   2  10  -3  338.77   10.50
  -1 -10   3   18.40    3.40
   1 -10  -3    8.30    2.00
  -1 -10   3   16.80    2.50
   1 -10  -3   16.10    3.40
   1  10  -3   17.20    3.00
  -1  10   3   12.60    3.20
   1  10  -3   12.00    2.80
  -1  10   3   19.00    1.80
   0 -10   3  365.76    9.70
   0 -10  -3  374.26   12.30
   0 -10   3  362.06   11.50
   0 -10  -3  380.56   11.00
   0  10   3  391.16   12.30
   0  10  -3  368.36    9.50
   0  10  -3  387.66   12.50
  -1 -10  -3    3.80    2.20
  -1 -10  -3   -1.50    1.50
   1 -10   3    3.90    2.20
   1 -10   3    3.40    1.60
   1  10   3    1.30    2.00
  -1  10  -3    2.40    2.20
  -1  10  -3    1.50    1.10
   2 -10   3    1.50    1.70
  -2 -10  -3    1.00    1.80
   2 -10   3    1.90    1.70
  -2  10  -3    0.40    2.10
   2  10   3    1.30    2.20
   2  10   3    2.20    2.10
   3 -10   3  468.35   15.10
  -3 -10  -3  453.95   15.90
  -3  10  -3  470.25   15.00
   3  10   3  472.75   13.90
  -3  10  -3  491.55   16.20
   3  10   3  447.46   16.40
   4 -10   3   19.70    4.60
  -4 -10  -3   10.40    3.80
   4  10   3   11.10    4.00
  -4  10  -3   10.40    3.40
  -4  10  -3   15.00    4.00
  -5 -10  -3   -0.40    2.80
   5 -10   3    2.20    3.00
  -5  10  -3    0.50    2.70
   5  10   3   -1.20    2.80
  -5  10  -3    1.40    2.20
   6 -10   3   -0.10    3.40
  -6 -10  -3    0.10    2.80
  -6  10  -3    2.30    2.50
   6  10   3   -2.10    2.90
  -8 -11   3    3.80    3.20
  -8 -11   3   -1.00    2.80
   8 -11  -3    4.40    3.10
  -8  11   3   -2.70    2.70
   8  11  -3   -1.50    3.50
   7 -11  -3    3.50    3.30
  -7 -11   3    3.80    2.90
  -7 -11   3   -0.70    2.50
   7  11  -3    3.60    3.80
  -7  11   3    6.90    3.30
  -6 -11   3   26.10    4.80
  -6 -11   3   24.20    4.80
   6 -11  -3   23.40    5.30
   6  11  -3   22.50    5.60
  -6  11   3   31.90    5.40
  -6  11   3   31.00    5.20
  -5 -11   3   69.09    6.70
  -5 -11   3   74.69    7.50
   5 -11  -3   53.59    7.30
  -5  11   3   69.09    6.90
  -5  11   3   57.99    6.70
   5  11  -3   76.19    8.70
  -4 -11   3    8.00    2.60
  -4 -11   3    5.70    2.20
   4 -11  -3    9.80    3.40
   4  11  -3    4.50    2.50
  -4  11   3    6.70    2.80
   4  11  -3    4.10    2.80
  -4  11   3    4.20    2.00
   3 -11  -3    2.90    1.30
  -3 -11   3    3.80    1.80
   3 -11  -3    0.90    1.90
  -3 -11   3   -0.70    1.50
   3  11  -3    3.10    1.80
  -3  11   3    1.90    1.60
   3  11  -3    1.30    2.10
  -3  11   3    1.70    2.30
  -2 -11   3   21.80    3.70
  -2 -11   3   24.40    3.30
   2 -11  -3   33.00    4.90
   2 -11  -3   24.40    3.00
  -2  11   3   20.80    4.10
   2  11  -3   23.40    4.00
   2  11  -3   19.90    3.50
  -2  11   3   20.20    2.50
   1 -11  -3  215.18    9.50
   1 -11  -3  221.48    5.50
   1 -11  -3  217.78    7.80
  -1 -11   3  210.08    7.40
  -1 -11   3  219.28    8.80
   1  11  -3  217.48    8.50
   1  11  -3  228.68    9.60
  -1  11   3  222.98    9.70
   0 -11   3   52.59    5.50
   0 -11   3   61.29    4.10
   0 -11  -3   50.49    5.70
   0 -11  -3   58.09    5.30
   0  11  -3   46.30    5.50
   0  11  -3   49.30    3.70
   0  11   3   48.70    5.70
  -1 -11  -3  237.58   10.70
  -1 -11  -3  259.07   10.20
   1 -11   3  242.78   10.00
   1 -11   3  254.67    9.00
  -1  11  -3  237.98   10.60
   1  11   3  245.38   10.00
  -2 -11  -3  572.34   17.40
   2 -11   3  528.35   14.60
   2 -11   3  528.55   15.70
   2  11   3  533.45   17.00
  -2  11  -3  534.25   16.70
   2  11   3  526.55   15.10
   3 -11   3  394.36   13.90
  -3 -11  -3  384.26   14.90
  -3  11  -3  381.16   14.60
   3  11   3  386.66   12.50
   3  11   3  368.76   15.10
  -3  11  -3  392.26   14.10
   4 -11   3   -0.70    2.20
  -4 -11  -3    0.50    2.40
  -4  11  -3    2.70    2.60
  -4  11  -3    3.40    2.90
   4  11   3    1.10    2.60
   5 -11   3    3.10    3.10
  -5 -11  -3    2.80    3.10
  -5  11  -3   -0.90    2.70
   5  11   3   -1.20    2.40
  -5  11  -3    0.50    2.20
  -6 -11  -3    1.90    3.30
   6 -11   3    2.30    3.60
  -6  11  -3   -0.30    2.90
   6  11   3   -4.90    2.80
  -7 -12   3    1.20    2.30
   7 -12  -3    2.60    3.20
  -7 -12   3    5.40    3.40
  -7  12   3    3.20    3.00
   7  12  -3    7.50    4.40
  -6 -12   3   89.59    7.60
   6 -12  -3   80.19    9.80
  -6 -12   3   79.49    7.90
  -6  12   3   79.29    8.20
  -6  12   3   80.19    8.10
   6  12  -3   64.19    8.50
  -5 -12   3    4.40    2.80
   5 -12  -3    1.90    2.50
  -5 -12   3    2.10    2.20
  -5  12   3    4.10    2.80
   5  12  -3    2.30    3.10
  -5  12   3    2.10    2.60
  -4 -12   3    8.60    2.90
  -4 -12   3   14.30    3.20
   4 -12  -3    8.70    3.20
  -4  12   3   13.70    4.10
  -4  12   3   16.00    3.30
   4  12  -3   13.40    3.90
  -3 -12   3  135.09    7.60
   3 -12  -3  156.08    8.80
  -3 -12   3  145.29    7.10
  -3  12   3  161.88    6.80
   3  12  -3  150.98    8.90
   3  12  -3  166.08    7.40
  -3  12   3  158.48    8.90
   2 -12  -3  233.68    7.60
  -2 -12   3  246.48    9.70
  -2 -12   3  210.78    8.10
   2 -12  -3  232.08   10.30
   2  12  -3  245.28    9.70
  -2  12   3  235.38   10.40
   2  12  -3  250.97   10.20
  -2  12   3  233.58    7.20
  -1 -12   3  181.48    8.40
  -1 -12   3  200.18    7.60
   1 -12  -3  194.18    7.60
   1 -12  -3  197.68    9.60
   1  12  -3  179.38    8.90
  -1  12   3  197.68    9.60
   1  12  -3  183.68    8.00
   0 -12  -3   70.59    7.10
   0 -12   3   68.09    4.70
   0 -12   3   66.19    6.40
   0 -12  -3   58.69    5.60
   0  12  -3   58.29    4.00
   0  12  -3   65.09    6.70
   0  12   3   50.29    5.70
  -1 -12  -3   18.30    3.90
   1 -12   3   19.30    3.40
   1 -12   3   12.70    3.30
   1  12   3   19.50    3.90
  -1  12  -3   12.20    3.40
   1  12   3   19.90    4.10
   2 -12   3    0.90    1.80
  -2 -12  -3    5.50    2.60
   2 -12   3    4.70    2.30
   2  12   3    0.50    2.50
   2  12   3    1.90    2.20
  -2  12  -3    1.60    2.40
   3 -12   3   -0.90    2.00
  -3 -12  -3    2.90    2.50
   3 -12   3    3.00    2.60
   3  12   3    2.70    2.70
   3  12   3    2.20    2.40
  -3  12  -3    4.00    2.90
  -3  12  -3    1.40    2.70
   4 -12   3   28.60    5.30
  -4 -12  -3   24.90    5.30
  -4  12  -3   20.50    4.40
   4  12   3   17.10    5.00
  -4  12  -3   27.10    5.20
   5 -12   3    3.10    3.30
  -5 -12  -3   21.40    5.30
   5  12   3   13.70    5.30
  -5  12  -3   13.00    4.20
  -5  12  -3   18.10    4.60
   6 -12   3  150.28   11.70
   7 -13  -3    4.40    3.30
  -7 -13   3    4.10    3.20
  -7 -13   3    6.90    3.40
  -7  13   3   11.80    4.40
   7  13  -3   12.90    4.70
  -6 -13   3  201.68   10.80
  -6 -13   3  186.48   10.70
   6 -13  -3  208.78   12.40
   6  13  -3  185.48   12.30
  -6  13   3  214.48   11.20
  -6  13   3  181.68   10.50
  -5 -13   3   -0.10    2.10
  -5 -13   3    0.80    2.10
   5 -13  -3    0.00    2.50
  -5  13   3    0.50    2.70
  -5  13   3    1.50    2.30
   5  13  -3    3.70    3.20
  -4 -13   3    2.60    2.20
  -4 -13   3    0.50    1.80
   4 -13  -3   -0.30    2.20
   4  13  -3   -0.10    2.40
  -4  13   3    0.10    1.70
  -4  13   3   -0.60    2.30
  -3 -13   3   -0.30    1.60
   3 -13  -3    0.10    1.90
  -3 -13   3    0.00    1.80
  -3  13   3    0.10    1.60
  -3  13   3    1.60    2.60
   3  13  -3    1.60    2.00
   3  13  -3   -1.50    1.90
  -2 -13   3   10.70    3.00
   2 -13  -3   13.10    3.60
   2 -13  -3    9.50    2.40
  -2 -13   3   27.90    3.90
  -2  13   3   19.40    4.10
   2  13  -3   11.60    3.20
  -2  13   3   14.10    2.40
   2  13  -3   14.60    3.60
  -1 -13   3  152.68    7.90
   1 -13  -3  136.19    8.30
   1 -13  -3  153.48    7.00
  -1 -13   3  154.08    7.10
   1  13  -3  156.08    8.60
  -1  13   3  153.28    8.70
   1  13  -3  146.99    7.30
   0 -13  -3   15.80    3.70
   0 -13  -3   18.40    3.50
   0 -13   3   22.00    4.00
   0 -13   3   17.60    3.20
   0  13   3   11.40    3.20
   0  13   3   10.40    3.30
   0  13  -3   20.30    4.20
   1 -13   3   77.09    5.60
   1 -13   3   86.69    6.40
  -1 -13  -3   71.59    7.70
   1  13   3   74.09    7.50
   1  13   3   87.49    7.10
  -1  13  -3   77.79    7.90
   2 -13   3 2144.09   38.00
  -2 -13  -3 2120.79   40.10
   2 -13   3 2110.39   36.10
   2  13   3 2104.69   40.10
  -2  13  -3 2160.78   40.30
   2  13   3 2132.79   37.30
   3 -13   3  764.52   21.00
   3 -13   3  724.73   19.90
  -3 -13  -3  739.03   22.10
  -3  13  -3  706.63   21.60
   3  13   3  738.73   22.70
   3  13   3  749.23   19.20
   4 -13   3  130.49    9.60
  -4 -13  -3  121.09    9.60
  -4  13  -3  122.09    9.20
  -4  13  -3  109.39    8.90
   4  13   3  133.29   12.90
  -5 -13  -3   -0.10    2.90
   5 -13   3    4.40    3.10
   5  13   3    0.80    2.90
  -5  13  -3   -1.70    2.60
  -5  13  -3   -1.70    2.80
  -7 -14   3    5.00    3.40
   7 -14  -3    2.20    3.30
  -7 -14   3   13.10    4.70
   7  14  -3    9.30    4.50
  -7  14   3   12.60    4.30
  -6 -14   3    9.80    3.90
  -6 -14   3    5.20    2.90
   6 -14  -3    9.40    4.00
  -6  14   3    2.60    2.70
  -6  14   3    9.30    3.70
   6  14  -3    2.20    3.10
  -5 -14   3   11.90    3.70
  -5 -14   3    5.10    3.10
   5 -14  -3    7.50    3.60
  -5  14   3   10.00    3.30
   5  14  -3   12.30    4.50
  -5  14   3   10.10    3.70
  -4 -14   3  201.38    9.60
  -4 -14   3  195.58    9.50
   4 -14  -3  202.48   11.30
  -4  14   3  189.98   10.80
   4  14  -3  203.28   11.30
  -4  14   3  182.88    9.00
  -3 -14   3  124.69    7.10
  -3 -14   3  113.29    7.30
   3 -14  -3  121.89    8.60
   3  14  -3  126.39    8.40
  -3  14   3  144.79    9.00
   3  14  -3  136.49    7.60
  -3  14   3  136.79    6.60
   2 -14  -3  117.69    8.10
  -2 -14   3  133.49    7.70
  -2 -14   3  118.79    6.60
   2  14  -3  123.49    7.80
  -2  14   3  117.39    8.20
   2  14  -3  133.49    7.90
   1 -14  -3   -2.00    1.50
  -1 -14   3    1.00    1.60
  -1 -14   3   -0.80    1.60
   1 -14  -3    0.00    2.30
   1  14  -3   -0.40    2.30
  -1  14   3    0.40    1.90
   1  14  -3   -0.60    1.90
  -1  14   3    5.20    3.10
   0 -14   3    2.20    1.90
   0 -14   3    2.70    2.10
   0 -14  -3    3.50    2.60
   0  14   3    3.10    2.70
   0  14  -3    8.00    3.30
   0  14   3    6.40    2.80
   1 -14   3   -0.90    1.80
   1 -14   3    0.40    1.80
  -1 -14  -3   -1.80    1.60
   1  14   3    1.30    2.50
  -1  14  -3    3.30    3.20
   1  14   3   -2.60    1.80
   2 -14   3   73.19    7.70
  -2 -14  -3   83.49    8.90
   2 -14   3   75.79    6.40
  -2  14  -3   64.49    7.80
   2  14   3   85.09    8.30
   2  14   3   80.19    8.30
   3 -14   3    8.90    3.20
   3 -14   3   18.70    4.40
  -3 -14  -3   13.90    4.40
   3  14   3   15.50    4.00
   3  14   3   18.50    4.70
  -3  14  -3   17.50    4.70
   4 -14   3    9.50    3.80
   4 -14   3    6.50    3.60
  -4 -14  -3   11.50    4.40
  -4  14  -3    4.80    3.30
  -4  14  -3   12.00    4.30
   4  14   3    6.40    3.70
   5 -14   3    2.50    3.60
  -5 -14  -3    2.40    3.10
  -5  14  -3    5.70    3.50
   5  14   3    0.10    3.10
  -5  14  -3    3.60    3.20
   7 -15  -3   80.19   11.00
  -7 -15   3   69.99    8.80
   7  15  -3   70.19   10.00
  -7  15   3   66.79    8.50
  -6 -15   3    4.10    3.20
  -6 -15   3    3.10    2.90
   6 -15  -3    0.00    3.10
  -6  15   3    1.70    2.60
  -6  15   3    3.30    3.30
   6  15  -3    0.30    2.80
  -5 -15   3   64.49    7.00
  -5 -15   3   65.29    7.60
   5 -15  -3   56.19    8.20
  -5  15   3   46.40    6.50
  -5  15   3   59.19    7.00
   5  15  -3   51.59    7.80
  -4 -15   3   53.19    6.20
  -4 -15   3   78.19    7.60
   4 -15  -3   62.99    7.90
   4  15  -3   64.19    8.00
  -4  15   3   48.40    7.00
  -4  15   3   65.09    6.50
   3 -15  -3    5.80    3.00
  -3 -15   3    6.50    2.50
  -3 -15   3    8.70    3.10
   3  15  -3    5.20    3.10
  -3  15   3    7.60    3.30
   3  15  -3    8.70    3.10
   2 -15  -3   33.00    5.40
  -2 -15   3   42.90    5.20
  -2 -15   3   34.40    4.90
   2  15  -3   43.20    5.60
   2  15  -3   37.80    5.40
  -2  15   3   25.40    5.30
  -1 -15   3  293.17   10.70
  -1 -15   3  264.87   11.20
   1 -15  -3  283.27   12.80
   1  15  -3  297.57   12.60
   1  15  -3  268.67   11.50
  -1  15   3  269.97   12.40
  -1  15   3  272.17   10.60
   0 -15  -3  165.98   10.20
   0 -15   3  172.98    9.20
   0 -15   3  169.48    8.20
   0  15   3  176.88   10.10
   0  15   3  182.58    9.40
   0  15  -3  179.38   10.10
   1 -15   3   26.40    4.60
   1 -15   3   46.90    5.60
  -1 -15  -3   32.90    5.20
   1  15   3   36.70    6.10
   1  15   3   40.60    6.10
  -1  15  -3   33.40    5.70
   2 -15   3  157.28    8.70
  -2 -15  -3  148.59   10.00
   2 -15   3  146.69    9.20
  -2  15  -3  145.29    9.70
   2  15   3  143.49    9.80
   2  15   3  149.69    9.00
   3 -15   3   19.50    4.70
   3 -15   3   12.80    3.80
  -3 -15  -3   21.50    5.10
   3  15   3   16.00    4.80
  -3  15  -3   12.40    4.10
  -4 -15  -3  120.39   10.10
   4 -15   3  122.49    9.50
   4 -15   3  112.29    8.90
   4  15   3  131.49   10.60
  -4  15  -3  130.59   10.10
  -5 -15  -3    1.90    3.60
   5 -15   3   -0.50    3.10
  -5  15  -3    2.80    3.20
  -5  15  -3   -4.30    3.20
   5  15   3    1.00    3.10
  -6 -16   3   43.30    7.00
  -6 -16   3   46.30    8.50
   6 -16  -3   27.20    6.80
   6  16  -3   45.00    7.80
  -6  16   3   32.90    5.90
  -6  16   3   49.60    7.60
   5 -16  -3   78.39    9.20
  -5 -16   3   97.89    7.70
  -5 -16   3  101.19    8.00
   5  16  -3  117.59   11.40
  -5  16   3  108.09   10.90
  -5  16   3   95.29    7.30
   4 -16  -3    3.90    3.20
  -4 -16   3    2.40    2.60
  -4 -16   3   16.20    4.10
   4  16  -3    5.80    3.80
  -4  16   3    4.50    3.20
  -3 -16   3   -1.60    1.80
   3 -16  -3   -1.20    2.60
  -3 -16   3   -2.80    1.80
   3  16  -3    3.70    2.60
   3  16  -3   -0.80    2.30
  -3  16   3   -1.30    2.30
   2 -16  -3   11.60    3.80
  -2 -16   3   17.80    3.80
  -2 -16   3   14.30    3.70
   2  16  -3   17.40    4.20
   2  16  -3   25.90    4.60
  -2  16   3   22.70    5.20
  -1 -16   3  500.95   15.80
  -1 -16   3  507.75   15.10
   1 -16  -3  532.75   18.20
   1  16  -3  532.25   17.40
  -1  16   3  516.35   17.90
   0 -16   3   69.39    6.70
   0 -16   3   63.79    7.20
   0 -16  -3   67.19    8.10
   0  16   3   71.89    7.50
   0  16   3   66.19    7.70
   0  16  -3   56.79    7.10
   1 -16   3    8.10    3.00
  -1 -16  -3    5.80    3.20
   1 -16   3   15.70    3.70
  -1  16  -3    8.90    3.80
   1  16   3    9.90    3.50
   1  16   3   16.50    4.30
  -2 -16  -3    4.70    3.30
   2 -16   3    1.80    2.70
   2 -16   3    5.30    3.00
  -2  16  -3    5.70    3.50
   2  16   3    2.60    3.10
   2  16   3    0.60    2.60
  -3 -16  -3   -1.20    3.00
   3 -16   3    2.60    2.50
   3 -16   3   -0.80    2.80
  -3  16  -3    5.60    3.50
   3  16   3    3.40    3.20
   4 -16   3   -1.40    3.10
   4 -16   3    1.50    2.20
  -4 -16  -3   -3.40    3.00
  -4  16  -3    4.20    3.60
   4  16   3    0.90    3.30
  -6 -17   3  254.27   13.70
   6 -17  -3  233.38   15.00
   6  17  -3  255.57   14.90
  -6  17   3  248.98   14.00
  -6  17   3  236.48   12.50
   5 -17  -3   34.40    7.10
  -5 -17   3   47.50    7.00
  -5 -17   3   31.60    5.50
   5  17  -3   34.30    6.60
  -5  17   3   44.60    7.70
  -4 -17   3   23.00    4.80
  -4 -17   3   15.40    4.00
   4 -17  -3   15.30    4.70
  -4  17   3   20.00    5.20
   4  17  -3   21.00    5.40
  -3 -17   3   88.09    8.20
  -3 -17   3   82.89    7.00
   3 -17  -3   58.89    7.40
   3  17  -3   84.99    7.90
   3  17  -3   77.99    8.60
  -3  17   3   93.29    9.90
  -2 -17   3    1.70    2.20
  -2 -17   3   -0.30    2.20
   2 -17  -3    0.70    2.70
  -2  17   3   -0.90    2.80
   2  17  -3    1.70    2.60
   2  17  -3    3.90    2.80
   1 -17  -3   15.10    4.50
  -1 -17   3    4.80    2.80
  -1 -17   3   10.30    3.10
  -1  17   3   11.10    4.10
   1  17  -3   13.60    4.10
   0 -17  -3   18.20    4.80
   0 -17   3   19.50    4.20
   0 -17   3   33.80    5.10
   0  17  -3   21.10    5.30
   0  17   3   13.80    4.10
   0  17   3   22.30    4.70
   1 -17   3   -0.40    2.30
  -1 -17  -3    1.90    2.90
   1 -17   3    3.00    2.50
   1  17   3    2.00    2.80
   1  17   3    0.50    2.90
  -1  17  -3    5.10    3.50
  -2 -17  -3   -2.70    2.90
   2 -17   3    1.40    2.60
   2 -17   3    0.50    2.60
  -2  17  -3    1.20    2.60
   2  17   3    0.20    2.80
   2  17   3   -3.70    2.60
   3 -17   3    4.70    3.70
  -3 -17  -3    2.40    3.80
   3  17   3   -0.70    3.00
  -3  17  -3    6.00    3.40
  -4 -17  -3   41.50    7.50
   4 -17   3   49.30    7.50
   4  17   3   46.40    8.30
  -4  17  -3   48.80    8.00
   5 -18  -3  203.58   13.70
  -5  18   3  217.88   13.00
   5  18  -3  212.38   13.30
  -4 -18   3   16.80    4.10
   4 -18  -3   18.40    5.50
   4  18  -3   25.00    5.60
  -4  18   3   25.60    5.40
   3 -18  -3   22.60    5.60
  -3 -18   3   28.50    5.00
   3  18  -3   24.10    4.90
  -3  18   3   18.30    4.80
   3  18  -3   20.20    5.10
  -2 -18   3   12.00    3.70
   2 -18  -3    9.80    4.10
  -2  18   3    6.40    3.80
   2  18  -3    8.00    3.50
   1 -18  -3    2.60    3.20
  -1 -18   3    4.00    2.80
  -1  18   3   -1.30    2.70
   1  18  -3    6.50    3.70
   0 -18  -3   19.80    5.10
   0 -18   3   28.00    5.10
   0  18   3   21.20    5.50
   0  18  -3   10.50    4.20
  -1 -18  -3    7.80    4.40
   1 -18   3    6.40    3.50
   1  18   3    7.30    3.70
  -1  18  -3    8.20    4.50
   1  18   3    2.70    3.10
   2 -18   3   18.50    4.40
  -2 -18  -3   17.90    5.60
   2  18   3   15.50    5.10
  -2  18  -3   27.00    5.40
   2  18   3   18.60    5.50
  -3 -18  -3  115.19   12.10
   3 -18   3   73.69    8.60
  -3  18  -3   99.79   10.90
   3  18   3   80.39   10.30
   5 -19  -3   88.59   10.90
  -5  19   3  108.29   11.30
   5  19  -3  113.39   12.70
   4 -19  -3   -0.80    3.30
  -4  19   3    0.80    2.90
   4  19  -3    1.30    2.90
   3 -19  -3   12.10    4.70
  -3 -19   3   13.40    4.00
   3  19  -3    8.70    4.90
   3  19  -3   18.00    4.50
  -3  19   3    5.50    3.70
  -2 -19   3  104.89    8.00
   2 -19  -3   84.09    9.60
   2  19  -3  108.79   10.30
  -2  19   3  124.69   10.40
   1 -19  -3   -0.40    2.90
  -1 -19   3   -0.40    2.20
   1  19  -3    1.20    3.20
  -1  19   3    2.50    3.40
   0 -19  -3   82.09    9.80
   0 -19   3   62.69    7.30
   0  19   3   61.59    8.20
   0  19  -3   71.09    8.40
   1 -19   3   14.60    4.10
  -1 -19  -3    6.20    4.40
  -1  19  -3    7.50    4.30
   1  19   3   12.10    4.30
   1  19   3    9.20    3.90
   2 -19   3   -1.90    1.90
  -2 -19  -3   -1.30    3.80
   2  19   3    3.10    3.50
   2  19   3    0.80    3.10
  -2  19  -3    1.30    2.60
   3 -19   3   93.09   10.30
  -3 -19  -3   90.19   11.10
   3  19   3   67.99    9.80
  -3  19  -3   62.49    8.80
   4 -20  -3   -3.50    3.20
  -4  20   3    3.60    3.50
   4  20  -3    1.70    3.40
  -3 -20   3    5.70    6.20
   3 -20  -3    8.00    4.30
  -3  20   3   18.50    5.10
  -2 -20   3   -0.20    2.50
   2 -20  -3    3.00    3.70
   2  20  -3    1.70    3.00
  -2  20   3   -1.80    2.90
   1 -20  -3    4.30    3.90
  -1 -20   3    7.80    3.30
   1  20  -3   14.70    4.60
  -1  20   3   15.00    5.50
   0 -20  -3   86.29   10.30
   0 -20   3   70.09    7.80
   0  20  -3   80.09    9.30
   0  20   3   96.79   10.50
   1 -20   3    8.40    3.70
  -1 -20  -3   10.70    5.40
  -1  20  -3    8.20    4.40
   1  20   3   13.60    4.90
  -2 -20  -3   49.70    8.10
   2 -20   3   41.80    6.50
  -2  20  -3   48.80    7.10
   2  20   3   58.19    8.30
   2  20   3   53.79    8.70
   3 -21  -3   -0.30    3.30
  -3  21   3    0.40    2.90
   2 -21  -3    3.80    3.90
  -2 -21   3   -0.90    2.80
  -2  21   3    5.10    4.30
   2  21  -3   -1.00    2.90
  -1 -21   3   14.00    4.40
   1 -21  -3   13.80    5.20
   1  21  -3   18.40    5.20
  -1  21   3   15.70    5.60
   0 -21   3   -1.90    2.70
   0 -21  -3   -0.60    3.30
   0  21  -3   -0.30    3.00
   0  21   3    0.60    3.20
   1 -21   3   19.20    5.00
  -1 -21  -3   24.50    6.80
   1  21   3   22.50    6.40
  -1  21  -3   34.40    7.70
   2 -22  -3    4.30    4.20
   2  22  -3    8.40    4.20
  -2  22   3    6.70    4.00
   1 -22  -3    2.60    3.80
  -1 -22   3   -0.60    3.00
  -1  22   3    0.90    3.80
   1  22  -3    5.00    4.30
   0 -22   3    3.60    2.90
   0 -22  -3   -1.20    3.60
   0  22  -3    1.20    3.60
   0  22   3   -3.50    3.10
   9   0  -4   -0.50    3.00
  -9   0   4    0.80    2.70
   8   0  -4   85.19    9.40
   8   0  -4   85.19   10.50
  -8   0   4   82.99    9.20
   7   0  -4 1188.58   30.30
  -7   0   4 1144.09   26.90
   7   0  -4 1135.49   27.10
   6   0  -4  688.23   18.60
   6   0  -4  674.13   20.20
  -6   0   4  675.63   18.90
   5   0  -4  309.57   11.50
   5   0  -4  314.97   11.30
  -5   0   4  313.57   11.10
  -5   0   4  297.27    7.70
  -4   0   4  811.52   17.60
   4   0  -4  837.42   17.70
   4   0  -4  817.42   18.00
  -4   0   4  805.02   14.80
   3   0  -4  911.01   18.20
  -3   0   4  876.31   16.10
   3   0  -4  885.81   15.80
  -3   0   4  874.91   17.10
   2   0  -4    3.90    1.80
  -2   0   4    4.20    1.60
   2   0  -4    4.00    1.20
  -2   0   4    4.10    1.80
   1   0  -4  412.26   10.30
  -1   0   4  388.36    8.90
   1   0  -4  418.66    7.30
   1   0  -4  404.06   10.80
   0   0   4  996.40   16.30
   0   0  -4  982.90   15.60
   0   0  -4 1009.50   19.50
   0   0  -4  993.00   18.20
  -1   0  -4  592.44   13.70
   1   0   4  596.84   12.20
  -1   0  -4  584.34   14.60
  -1   0  -4  585.14   12.70
  -2   0  -4   57.19    4.10
  -2   0  -4   70.19    5.40
  -2   0  -4   65.79    5.00
  -2   0  -4   59.59    4.70
  -3   0  -4  446.46   14.00
  -3   0  -4  433.06   13.00
  -3   0  -4  424.16   12.10
  -3   0  -4  433.86   13.50
  -4   0  -4    1.60    2.20
  -4   0  -4    4.40    2.20
  -4   0  -4   10.90    3.30
  -4   0  -4    7.00    3.10
   4   0   4    8.80    2.70
  -5   0  -4  546.55   19.20
  -5   0  -4  540.75   16.40
   5   0   4  550.14   18.20
  -6   0  -4    5.30    3.80
  -6   0  -4    4.10    3.10
   9  -1  -4    7.50    4.10
   9   1  -4   12.10    4.30
  -9   1   4   20.10    5.00
   9   1  -4   17.00    5.40
   8  -1  -4    2.50    3.10
   8  -1  -4   -1.20    2.10
  -8  -1   4   -1.30    2.30
  -8   1   4    1.00    2.30
   8   1  -4   -4.50    1.80
   8   1  -4    2.50    2.80
  -7  -1   4  150.58    9.20
   7  -1  -4  141.79   10.30
   7  -1  -4  156.58    9.30
  -7   1   4  169.78    9.60
   7   1  -4  161.88    9.60
   7   1  -4  157.38   10.70
   6  -1  -4  276.37   12.60
  -6  -1   4  280.47   11.20
   6  -1  -4  279.17   11.40
   6   1  -4  283.17   12.60
   6   1  -4  259.97   11.50
  -6   1   4  267.27   11.20
   5  -1  -4   58.99    5.80
  -5  -1   4   57.39    3.40
   5  -1  -4   71.69    5.80
  -5  -1   4   59.89    6.00
   5   1  -4   76.09    5.80
  -5   1   4   60.89    3.70
   5   1  -4   78.19    6.00
  -5   1   4   64.59    6.10
  -4  -1   4   42.50    4.40
  -4  -1   4   49.10    3.20
   4  -1  -4   56.19    5.30
   4  -1  -4   52.89    5.00
   4   1  -4   43.00    4.60
  -4   1   4   47.50    4.60
  -4   1   4   44.00    3.40
   4   1  -4   38.10    4.60
   3  -1  -4 1970.90   30.10
  -3  -1   4 1950.10   28.10
  -3  -1   4 1946.51   29.90
   3  -1  -4 1958.40   28.40
   3   1  -4 1972.90   27.60
  -3   1   4 1896.11   29.30
   3   1  -4 1905.61   30.50
  -3   1   4 1955.80   28.60
  -2  -1   4   22.10    2.80
   2  -1  -4   27.60    3.40
   2  -1  -4   18.40    2.10
  -2  -1   4   25.00    3.10
   2   1  -4   20.90    1.80
  -2   1   4   17.90    2.40
   2   1  -4   21.50    2.80
   2   1  -4   25.00    3.40
  -2   1   4   19.60    3.00
  -1  -1   4  104.29    4.50
   1  -1  -4   98.09    3.70
   1  -1  -4  114.99    5.40
   1   1  -4  105.69    5.20
  -1   1   4   99.69    4.00
   1   1  -4  103.29    2.80
  -1   1   4   98.49    5.40
   1   1  -4  102.29    5.60
   0  -1  -4   14.50    2.10
   0  -1  -4   17.50    2.60
   0  -1   4   15.60    2.20
   0   1   4   15.50    3.00
   0   1  -4   17.40    2.60
   0   1  -4   16.80    1.90
   0   1   4   19.00    2.20
   0   1  -4   20.00    3.20
  -1  -1  -4  240.58    8.90
  -1  -1  -4  231.38    7.80
  -1  -1  -4  236.08    8.40
   1  -1   4  223.38    7.20
  -1   1  -4  224.68    8.10
  -1   1  -4  227.88    8.80
   1   1   4  228.08    6.60
  -1   1  -4  231.18    7.30
   1   1   4  225.48    8.60
  -2  -1  -4    5.00    2.20
  -2  -1  -4    0.30    1.70
  -2  -1  -4    1.10    1.50
  -2  -1  -4    4.30    1.60
  -2   1  -4    2.20    1.80
  -2   1  -4    3.00    2.00
  -2   1  -4    2.80    1.80
  -2   1  -4    2.80    1.70
  -3  -1  -4    7.40    2.10
  -3  -1  -4    4.60    2.60
  -3  -1  -4    8.20    2.50
  -3  -1  -4    5.90    2.60
  -3   1  -4    4.60    2.60
  -3   1  -4    9.40    2.70
  -3   1  -4    4.20    2.40
   3   1   4    6.00    2.40
  -3   1  -4    2.80    1.90
  -4  -1  -4    3.40    2.80
  -4  -1  -4    3.80    2.20
   4   1   4    2.70    2.30
  -4   1  -4    3.70    2.40
  -4   1  -4    2.10    2.50
  -4   1  -4    4.10    2.20
  -4   1  -4    3.20    2.70
   4   1   4    2.20    2.20
  -5  -1  -4    0.20    2.20
   5  -1   4    1.00    2.20
  -5  -1  -4    0.00    2.80
   5   1   4    0.70    2.30
  -5   1  -4    2.30    2.90
  -5   1  -4   -0.90    2.10
  -6  -1  -4    1.60    3.10
  -6   1  -4    1.80    2.90
  -6   1  -4   -0.20    3.00
   6   1   4   -0.30    2.30
  -9  -2   4   -0.50    2.40
   9  -2  -4   -0.20    2.90
   9   2  -4    1.00    3.00
  -9   2   4    0.80    2.80
   9   2  -4    0.30    3.10
  -8  -2   4    0.50    2.20
   8  -2  -4    4.90    3.20
  -8   2   4    7.40    3.60
   8   2  -4    5.10    3.40
   8   2  -4    1.30    2.90
   7  -2  -4  246.58   13.10
   7  -2  -4  241.68   11.20
  -7  -2   4  236.38   11.50
  -7   2   4  239.98   11.60
   7   2  -4  232.88   12.00
   7   2  -4  249.18   12.90
   6  -2  -4   12.30    3.20
   6  -2  -4    7.60    3.10
  -6  -2   4   11.40    3.10
  -6   2   4   10.30    3.00
   6   2  -4   11.50    3.50
   6   2  -4    4.20    2.80
   5  -2  -4   15.70    3.20
   5  -2  -4   15.40    3.40
  -5  -2   4   15.90    3.30
   5   2  -4   13.60    3.30
  -5   2   4   13.60    3.20
   5   2  -4   13.60    3.20
  -5   2   4   17.80    2.70
   4  -2  -4   49.20    4.90
   4  -2  -4   43.30    4.70
  -4  -2   4   39.90    4.30
  -4  -2   4   40.20    2.90
  -4   2   4   38.60    4.40
  -4   2   4   41.40    3.90
   4   2  -4   44.30    5.10
   4   2  -4   43.20    4.60
  -3  -2   4  349.87   10.10
   3  -2  -4  364.56   10.20
   3  -2  -4  371.86    9.70
  -3  -2   4  359.16    9.20
  -3   2   4  363.86    9.80
   3   2  -4  358.96    8.60
   3   2  -4  366.06   11.20
  -3   2   4  360.26    9.70
   2  -2  -4   58.39    4.00
  -2  -2   4   49.40    3.60
   2  -2  -4   52.29    3.20
   2   2  -4   60.59    4.20
  -2   2   4   47.90    4.00
  -2   2   4   60.19    3.50
   2   2  -4   55.59    4.10
   2   2  -4   57.99    2.10
   1  -2  -4  265.87    8.20
   1  -2  -4  262.57    6.70
  -1  -2   4  254.67    7.60
  -1   2   4  262.87    8.60
   1   2  -4  274.37    8.90
  -1   2   4  265.37    6.50
   1   2  -4  256.47    8.10
   0  -2  -4   95.69    4.40
   0  -2  -4   90.19    5.00
   0  -2   4  100.89    4.70
   0   2  -4   99.69    3.60
   0   2  -4  106.19    5.90
   0   2  -4   91.19    4.80
   0   2   4  100.19    5.60
   0   2   4   98.79    3.60
   1  -2   4   17.20    2.70
  -1  -2  -4   18.10    3.20
  -1  -2  -4   18.20    2.90
   1   2   4   15.70    3.10
   1   2   4   17.30    2.10
  -1   2  -4   15.00    2.40
  -1   2  -4   13.60    2.90
  -1   2  -4   18.40    2.90
  -2  -2  -4   -0.60    1.50
  -2  -2  -4   -0.30    1.10
  -2  -2  -4    0.10    1.80
  -2   2  -4   -1.50    1.30
  -2   2  -4   -1.50    1.70
   2   2   4   -1.40    1.40
  -2   2  -4    0.00    1.40
  -2   2  -4   -0.70    1.40
  -3  -2  -4    0.30    1.50
  -3  -2  -4    0.90    1.80
  -3  -2  -4    1.80    2.30
  -3   2  -4    2.80    1.90
  -3   2  -4    2.30    2.10
  -3   2  -4    0.70    1.50
  -3   2  -4   -1.70    1.70
   3   2   4   -1.40    1.50
  -4  -2  -4  301.47   13.00
  -4  -2  -4  307.67   10.50
   4   2   4  308.27   12.90
  -4   2  -4  292.37   11.20
  -4   2  -4  320.27   11.70
  -4   2  -4  294.37   12.50
   4   2   4  303.07   11.00
  -4   2  -4  315.47   12.00
   5  -2   4  126.39    8.90
  -5  -2  -4   99.59    9.70
  -5   2  -4   84.59    8.80
  -5   2  -4  100.89    7.60
   5   2   4  109.59    8.60
   6  -2   4   24.20    6.20
  -6  -2  -4   23.90    5.70
  -6   2  -4   11.90    4.20
   6   2   4   15.10    4.90
   9  -3  -4   37.40    7.90
  -9  -3   4   39.40    6.90
   9   3  -4   38.70    7.70
  -9   3   4   27.90    6.50
   9   3  -4   35.60    7.40
   8  -3  -4  194.88   12.90
  -8  -3   4  198.68   11.40
  -8   3   4  216.58   12.20
   8   3  -4  203.08   13.10
   8   3  -4  203.28   12.40
  -7  -3   4  130.99    8.70
   7  -3  -4  130.59    8.10
   7  -3  -4  126.29    9.70
  -7   3   4  141.39    9.00
   7   3  -4  142.49    9.70
   7   3  -4  119.09    9.20
   6  -3  -4  557.34   18.20
   6  -3  -4  547.35   15.40
  -6  -3   4  550.04   16.60
  -6   3   4  536.65   16.40
   6   3  -4  542.55   17.50
   6   3  -4  527.25   17.30
   5  -3  -4  155.98    7.40
  -5  -3   4  155.48    7.90
  -5  -3   4  165.48    7.50
   5  -3  -4  162.18    8.70
  -5   3   4  158.58    6.40
  -5   3   4  180.98    8.30
   5   3  -4  165.08    8.70
  -4  -3   4    4.10    1.90
   4  -3  -4   -0.80    1.30
  -4  -3   4   -0.60    1.10
  -4  -3   4    0.60    1.10
   4  -3  -4   -0.50    1.30
   4   3  -4    1.40    1.50
   4   3  -4    3.20    2.00
  -4   3   4    1.20    1.40
  -4   3   4    0.20    1.40
   3  -3  -4    2.90    1.50
  -3  -3   4   -0.50    1.20
   3  -3  -4    2.10    1.60
   3   3  -4   -2.90    1.20
  -3   3   4    0.30    1.50
  -3   3   4    1.80    1.40
   3   3  -4    1.60    1.30
   3   3  -4    4.40    1.60
  -2  -3   4  120.79    5.50
   2  -3  -4  120.19    5.50
   2  -3  -4  128.59    5.20
   2   3  -4  131.19    5.90
   2   3  -4  120.99    6.00
  -2   3   4  119.49    4.70
  -2   3   4  115.29    5.70
  -1  -3   4    5.30    1.80
   1  -3  -4    1.60    1.50
   1  -3  -4    2.60    1.40
  -1   3   4    2.00    1.00
  -1   3   4    0.20    1.70
   1   3  -4    5.10    2.00
   1   3  -4    3.00    1.70
   0  -3   4   82.39    3.40
   0  -3  -4   79.89    4.40
   0  -3   4   83.89    4.60
   0  -3  -4   87.79    5.00
   0   3  -4   79.99    4.60
   0   3  -4   87.29    5.60
   0   3   4   88.79    3.10
   0   3   4   79.39    5.20
   1  -3   4 1248.48   21.80
  -1  -3  -4 1244.48   23.10
  -1  -3  -4 1253.07   22.30
   1   3   4 1257.87   23.30
  -1   3  -4 1252.97   21.60
   1   3   4 1248.58   18.30
  -1   3  -4 1247.48   23.90
  -1   3  -4 1250.37   20.00
  -2  -3  -4   73.19    3.90
  -2  -3  -4   68.09    5.20
  -2  -3  -4   66.79    5.30
  -2   3  -4   64.89    5.50
   2   3   4   68.39    5.00
  -2   3  -4   80.69    5.00
  -2   3  -4   77.19    5.00
  -2   3  -4   69.79    4.90
  -3  -3  -4   36.80    5.00
  -3  -3  -4   21.00    4.10
  -3  -3  -4   25.00    3.30
   3   3   4   31.30    4.30
  -3   3  -4   28.20    4.40
  -3   3  -4   33.10    4.60
  -3   3  -4   27.90    4.00
  -3   3  -4   31.10    4.10
  -4  -3  -4   67.79    7.50
   4  -3   4   83.39    8.90
  -4  -3  -4   80.39    5.50
  -4   3  -4   78.29    6.50
  -4   3  -4   88.19    6.60
   4   3   4   71.69    7.70
  -4   3  -4   72.59    5.80
   4   3   4   84.89    5.90
   5  -3   4  256.57   13.90
  -5  -3  -4  229.68   12.60
   5   3   4  246.78   12.80
  -5   3  -4  235.28   11.40
  -6  -3  -4    2.20    3.40
   6  -3   4    5.60    4.00
  -6   3  -4    2.00    2.70
   6   3   4    3.90    3.40
   9  -4  -4   61.09    9.80
  -9  -4   4   72.49    9.30
   9   4  -4   67.69   10.20
   9   4  -4   45.40    7.70
  -9   4   4   78.59   10.20
  -8  -4   4  192.68   11.00
   8  -4  -4  194.08   13.00
   8   4  -4  188.38   12.50
  -8   4   4  182.28   11.40
   8   4  -4  192.38   12.00
   7  -4  -4  177.48   10.40
  -7  -4   4  167.88    9.60
   7  -4  -4  169.28   11.10
  -7  -4   4  186.48    9.90
   7   4  -4  186.28   11.20
  -7   4   4  170.58   10.10
   6  -4  -4  438.86   13.00
  -6  -4   4  435.06   14.60
   6  -4  -4  425.36   15.90
  -6  -4   4  439.36   14.30
  -6   4   4  424.76   14.40
   6   4  -4  397.06   15.30
   5  -4  -4   30.90    4.20
   5  -4  -4   34.50    5.00
  -5  -4   4   28.20    3.80
  -5  -4   4   32.30    4.50
  -5   4   4   39.60    4.30
   5   4  -4   37.10    5.60
  -5   4   4   34.00    4.50
  -4  -4   4   40.20    3.30
   4  -4  -4   50.29    4.70
   4  -4  -4   45.20    5.20
  -4  -4   4   54.09    5.30
   4   4  -4   47.50    5.20
  -4   4   4   42.30    4.40
  -4   4   4   37.30    4.00
  -3  -4   4  362.76   10.40
   3  -4  -4  358.06   10.30
  -3  -4   4  343.07    7.90
   3  -4  -4  363.36    9.90
  -3   4   4  344.47   10.00
   3   4  -4  349.87   11.20
  -3   4   4  361.16    9.60
   3   4  -4  339.27    9.10
   2  -4  -4  206.58    7.00
  -2  -4   4  219.28    7.50
   2  -4  -4  196.78    7.10
  -2   4   4  194.48    7.70
  -2   4   4  196.68    5.90
   2   4  -4  204.18    7.30
   2   4  -4  215.18    7.90
   1  -4  -4    5.10    1.70
  -1  -4   4    2.60    1.50
   1  -4  -4    7.90    2.00
  -1   4   4    7.80    2.40
  -1   4   4    6.80    1.30
   1   4  -4    3.70    1.70
   1   4  -4    4.10    2.10
   0  -4  -4   78.49    4.90
   0  -4  -4   80.69    4.70
   0  -4   4   82.09    3.20
   0  -4   4   78.09    4.70
   0   4   4   78.09    5.20
   0   4  -4   73.29    5.30
   0   4  -4   76.29    4.40
   0   4   4   77.09    2.70
  -1  -4  -4   25.80    3.50
   1  -4   4   25.40    3.10
   1  -4   4   25.30    3.40
  -1  -4  -4   26.90    3.70
   1   4   4   25.40    3.80
  -1   4  -4   21.20    3.60
   1   4   4   33.20    2.10
  -1   4  -4   26.70    3.10
   2  -4   4  223.28    9.10
  -2  -4  -4  229.18    9.30
  -2  -4  -4  229.68    6.50
  -2  -4  -4  235.58    9.50
  -2   4  -4  236.08   10.10
   2   4   4  225.68    8.90
  -2   4  -4  234.88    8.10
  -2   4  -4  238.78    8.90
  -3  -4  -4  323.97    9.20
  -3  -4  -4  319.27   12.00
   3  -4   4  323.37   12.50
  -3  -4  -4  329.67   12.60
   3   4   4  319.87   10.80
  -3   4  -4  321.57   10.30
  -3   4  -4  306.47   11.10
  -3   4  -4  317.07   12.20
  -4  -4  -4  235.98   11.90
   4  -4   4  252.17   12.60
  -4   4  -4  241.08   10.30
  -4   4  -4  260.27   11.20
  -4   4  -4  236.98   10.80
   4   4   4  247.38   10.00
   4   4   4  248.08   12.10
  -5  -4  -4    1.70    3.00
   5  -4   4   -2.60    2.10
   5   4   4   -1.80    2.00
  -5   4  -4    3.20    2.70
   6  -4   4   60.19    9.50
  -6  -4  -4   43.90    7.20
   6   4   4   37.70    7.30
  -6   4  -4   33.80    6.00
  -9  -5   4   55.69    8.00
   9  -5  -4   23.20    5.80
  -9   5   4   24.10    6.30
   9   5  -4   28.60    6.60
   9   5  -4   26.50    6.40
  -8  -5   4    1.50    2.70
   8  -5  -4    1.30    2.90
  -8  -5   4    2.90    2.70
  -8   5   4   -1.60    3.00
   8   5  -4    3.80    3.20
  -7  -5   4    6.00    2.90
   7  -5  -4    1.90    2.90
  -7  -5   4    7.20    3.10
   7   5  -4    6.90    3.40
  -7   5   4    6.10    3.20
  -6  -5   4  401.76   14.10
   6  -5  -4  409.16   15.80
  -6  -5   4  400.56   13.40
   6  -5  -4  417.16   12.60
  -6   5   4  412.56   14.20
   6   5  -4  400.76   15.60
   5  -5  -4    9.10    2.30
   5  -5  -4   15.40    3.60
  -5  -5   4   12.50    2.70
  -5  -5   4   14.60    3.40
   5   5  -4   10.60    3.40
  -5   5   4   15.10    2.90
  -5   5   4   13.70    3.10
  -4  -5   4   83.99    4.70
   4  -5  -4   98.79    6.30
   4  -5  -4   86.89    5.00
  -4  -5   4   87.39    5.70
   4   5  -4   94.49    4.30
   4   5  -4   88.99    6.40
  -4   5   4   94.39    5.40
  -4   5   4   90.29    5.30
   3  -5  -4    0.20    1.20
  -3  -5   4    0.80    1.40
  -3  -5   4    1.10    0.90
   3  -5  -4   -0.90    1.30
  -3   5   4   -1.10    1.10
  -3   5   4   -1.50    1.50
   3   5  -4    2.50    1.40
   3   5  -4   -0.90    1.40
  -2  -5   4   49.70    4.00
  -2  -5   4   46.00    1.90
   2  -5  -4   39.90    3.90
   2  -5  -4   52.79    3.70
  -2   5   4   42.40    2.80
   2   5  -4   52.99    5.00
  -2   5   4   46.10    4.90
   2   5  -4   44.80    4.20
   1  -5  -4   58.99    4.10
  -1  -5   4   61.19    4.20
   1  -5  -4   55.69    4.10
   1   5  -4   58.19    4.20
  -1   5   4   69.09    5.00
   1   5  -4   66.59    4.80
  -1   5   4   55.19    2.40
   0  -5   4   -0.40    0.70
   0  -5  -4   -0.90    1.20
   0  -5   4   -1.20    1.10
   0  -5  -4   -0.90    1.30
   0   5   4    0.60    1.60
   0   5  -4    0.50    1.10
   0   5  -4    3.10    1.90
   0   5   4   -0.30    0.50
  -1  -5  -4  134.09    6.80
  -1  -5  -4  144.59    7.20
   1  -5   4  136.79    6.60
   1  -5   4  137.09    5.70
   1   5   4  133.99    6.80
   1   5   4  137.19    3.70
  -1   5  -4  141.79    6.00
  -1   5  -4  127.49    7.20
   2  -5   4  123.49    6.70
  -2  -5  -4  119.39    7.00
  -2  -5  -4  121.69    4.40
  -2  -5  -4  130.59    7.30
  -2   5  -4  134.89    6.90
  -2   5  -4  139.49    7.80
   2   5   4  131.09    6.90
  -2   5  -4  125.69    5.90
   3  -5   4   80.49    6.50
  -3  -5  -4   86.99    6.80
  -3  -5  -4   78.59    6.20
  -3   5  -4   89.09    6.20
  -3   5  -4   85.49    6.60
   3   5   4   86.29    5.90
  -3   5  -4   84.69    5.30
   4  -5   4  552.04   18.80
  -4  -5  -4  560.84   18.30
  -4   5  -4  562.44   17.40
  -4   5  -4  539.35   16.50
   4   5   4  582.94   19.10
   5  -5   4   -0.70    2.50
  -5  -5  -4    1.90    3.30
   5   5   4    0.30    2.60
  -5   5  -4    0.20    2.20
  -6  -5  -4   33.70    6.50
   6  -5   4   30.10    6.70
   6   5   4   33.00    7.20
  -6   5  -4   30.80    6.00
  -9  -6   4    9.40    3.80
   9  -6  -4    6.00    3.90
   9   6  -4    9.30    4.40
  -9   6   4    7.10    4.90
   9   6  -4   12.80    4.90
   8  -6  -4   42.80    7.70
  -8  -6   4   37.70    6.30
  -8  -6   4   51.99    7.60
  -8   6   4   43.60    7.00
   8   6  -4   50.09    8.30
   7  -6  -4  474.85   18.70
  -7  -6   4  447.16   15.90
  -7  -6   4  441.76   15.60
   7   6  -4  435.36   17.60
  -7   6   4  459.25   16.60
  -6  -6   4  452.15   15.00
  -6  -6   4  447.06   14.40
   6  -6  -4  471.75   16.80
   6  -6  -4  446.96   14.10
  -6   6   4  425.16   14.60
   6   6  -4  455.05   16.70
   5  -6  -4  216.18   10.50
  -5  -6   4  216.88    8.70
  -5  -6   4  200.98    9.10
   5  -6  -4  229.68    8.20
  -5   6   4  204.78    9.00
  -5   6   4  204.18    8.40
   5   6  -4  208.28   10.70
  -4  -6   4  103.09    5.30
   4  -6  -4  100.09    5.20
  -4  -6   4  100.89    6.10
   4  -6  -4   94.99    6.40
  -4   6   4  106.99    5.80
   4   6  -4   95.09    6.90
  -4   6   4   99.69    5.90
   4   6  -4  100.79    4.60
  -3  -6   4  119.29    4.60
  -3  -6   4  125.89    6.40
   3  -6  -4  136.79    5.90
   3  -6  -4  130.09    6.60
  -3   6   4  126.79    5.50
  -3   6   4  115.89    6.30
   3   6  -4  126.39    7.20
   3   6  -4  122.79    5.60
   2  -6  -4  191.98    7.10
   2  -6  -4  176.28    7.20
  -2  -6   4  191.58    4.50
  -2  -6   4  190.38    7.50
  -2   6   4  193.48    8.10
  -2   6   4  185.88    5.60
   2   6  -4  184.68    7.80
   2   6  -4  186.68    7.40
   1  -6  -4  186.48    7.40
  -1  -6   4  190.48    7.40
  -1  -6   4  182.08    3.80
   1  -6  -4  194.18    7.30
   1   6  -4  173.78    6.80
   1   6  -4  180.08    7.70
  -1   6   4  176.78    4.10
  -1   6   4  186.08    8.10
   0  -6  -4  160.58    7.10
   0  -6   4  156.18    6.90
   0  -6  -4  157.38    7.10
   0  -6   4  151.78    4.50
   0   6   4  152.58    7.40
   0   6  -4  159.48    7.70
   0   6  -4  143.89    6.00
   1  -6   4  126.09    5.50
  -1  -6  -4  133.69    6.90
  -1  -6  -4  127.49    6.70
   1  -6   4  124.79    6.60
   1   6   4  126.39    3.00
  -1   6  -4  128.89    5.50
  -1   6  -4  120.09    7.30
   1   6   4  131.89    7.00
  -2  -6  -4   -0.80    1.90
   2  -6   4   -1.80    1.50
  -2  -6  -4    0.90    1.80
   2  -6   4   -0.40    1.30
  -2   6  -4   -0.40    1.80
  -2   6  -4   -1.80    1.70
   2   6   4   -0.20    1.50
  -2   6  -4   -0.60    1.30
   3  -6   4 1147.29   25.20
  -3  -6  -4 1103.99   25.10
  -3  -6  -4 1141.99   24.90
  -3   6  -4 1070.89   23.80
  -3   6  -4 1085.69   22.20
   3   6   4 1106.99   22.60
  -3   6  -4 1133.59   25.10
   4  -6   4   -0.80    2.10
  -4  -6  -4    4.10    3.40
  -4   6  -4   -0.20    2.40
  -4   6  -4    3.50    2.70
   4   6   4    7.60    3.50
  -5  -6  -4    1.50    2.80
   5  -6   4   -2.30    2.40
  -5   6  -4    1.40    2.70
  -5   6  -4    0.70    2.60
   5   6   4    0.10    2.70
  -6  -6  -4   36.80    7.50
   6  -6   4   44.80    8.10
  -6   6  -4   38.00    6.10
   6   6   4   39.40    7.60
  -8  -7   4   60.69    8.00
   8  -7  -4   65.89    9.00
  -8  -7   4   82.09    9.50
  -8   7   4   59.69    8.10
   8   7  -4   52.19    8.30
  -7  -7   4   26.60    5.20
  -7  -7   4   16.50    4.10
   7  -7  -4   12.90    4.20
  -7   7   4   21.60    5.00
   7   7  -4   13.30    4.70
  -6  -7   4   19.00    4.10
  -6  -7   4   23.90    4.50
   6  -7  -4   25.40    5.30
  -6   7   4   19.50    4.30
  -6   7   4   26.30    4.20
   6   7  -4   24.50    5.10
  -5  -7   4   13.40    3.30
   5  -7  -4    5.90    2.80
  -5  -7   4    7.30    2.60
   5  -7  -4   10.20    2.40
  -5   7   4   13.40    3.20
  -5   7   4    9.90    2.80
   5   7  -4    7.40    3.10
   4  -7  -4   -2.60    1.40
  -4  -7   4   -1.20    1.00
  -4  -7   4   -0.60    1.50
   4  -7  -4    0.80    1.20
   4   7  -4    1.00    1.20
  -4   7   4   -0.60    1.60
   4   7  -4    2.50    2.20
  -4   7   4    2.30    1.60
   3  -7  -4   79.69    5.60
  -3  -7   4   83.69    4.00
   3  -7  -4   79.39    4.50
  -3  -7   4   84.29    5.40
  -3   7   4   78.09    5.50
  -3   7   4   81.39    4.50
   3   7  -4   78.89    4.70
   3   7  -4   76.99    5.80
  -2  -7   4   37.50    2.20
   2  -7  -4   34.50    3.60
  -2  -7   4   38.50    4.10
   2  -7  -4   37.70    4.20
  -2   7   4   41.10    4.80
  -2   7   4   37.50    2.60
   2   7  -4   45.00    4.40
   2   7  -4   43.20    4.70
  -1  -7   4  723.33   11.20
   1  -7  -4  764.92   16.00
   1  -7  -4  760.42   16.70
  -1  -7   4  752.82   16.40
   1   7  -4  763.42   17.10
   1   7  -4  757.12   15.80
  -1   7   4  781.12   17.50
  -1   7   4  744.33   10.40
   0  -7   4  267.57    6.50
   0  -7  -4  274.97    9.60
   0  -7  -4  264.17    9.60
   0  -7   4  272.87    9.50
   0   7   4  255.27    9.80
   0   7  -4  263.27   10.10
   0   7  -4  277.57    8.30
   1  -7   4  254.27    7.90
   1  -7   4  246.98    9.40
  -1  -7  -4  257.17    9.70
  -1  -7  -4  254.27    9.90
  -1   7  -4  255.67    7.80
   1   7   4  259.97    9.90
  -1   7  -4  246.68   10.30
  -2  -7  -4  105.39    7.10
   2  -7   4  100.89    6.10
   2  -7   4  108.49    6.70
  -2  -7  -4  115.59    7.10
  -2   7  -4   96.59    6.90
   2   7   4  112.09    6.70
  -2   7  -4  103.59    5.20
  -3  -7  -4  204.28   10.30
   3  -7   4  190.78    9.60
  -3  -7  -4  202.28   10.10
  -3   7  -4  203.48    9.50
  -3   7  -4  186.78   10.00
   3   7   4  183.78    8.80
   3   7   4  186.58   10.40
  -4  -7  -4   18.50    4.80
   4  -7   4   18.80    4.50
  -4   7  -4   22.00    4.40
   4   7   4   20.90    5.30
  -4   7  -4   17.30    4.20
   5  -7   4  129.09   10.00
  -5  -7  -4  143.79   10.50
  -5   7  -4  131.79    9.30
  -5   7  -4  139.99    9.40
   5   7   4  147.39   11.00
   6  -7   4    2.70    3.70
  -6  -7  -4    1.10    3.50
  -6   7  -4    7.00    3.40
   6   7   4    0.90    3.10
  -8  -8   4   39.80    6.70
   8  -8  -4   25.20    5.90
  -8  -8   4   26.10    5.10
  -8   8   4   27.80    5.70
   8   8  -4   20.70    5.70
  -7  -8   4   11.60    3.70
  -7  -8   4    7.70    3.20
   7  -8  -4   10.70    4.40
   7   8  -4    5.30    3.50
  -7   8   4   12.00    4.00
   6  -8  -4   62.89    7.90
  -6  -8   4   71.29    7.20
  -6  -8   4   66.79    7.40
   6   8  -4   72.29    8.80
  -6   8   4   71.89    6.90
  -6   8   4   61.49    6.70
  -5  -8   4  280.57   10.40
   5  -8  -4  305.57   12.90
  -5  -8   4  296.57   11.60
   5  -8  -4  302.47   10.70
  -5   8   4  280.27   10.70
   5   8  -4  287.77   12.80
  -5   8   4  290.57   11.00
   4  -8  -4   73.69    4.40
  -4  -8   4   66.99    5.30
   4  -8  -4   72.09    6.00
  -4  -8   4   72.09    4.60
  -4   8   4   71.19    5.70
   4   8  -4   78.99    4.50
  -4   8   4   74.29    5.10
   4   8  -4   71.49    7.00
   3  -8  -4   78.19    4.50
   3  -8  -4   82.29    5.80
  -3  -8   4   81.49    4.10
  -3  -8   4   81.69    5.50
   3   8  -4   80.49    6.10
  -3   8   4   87.39    6.10
   3   8  -4   85.19    5.00
  -3   8   4   86.99    4.60
  -2  -8   4  816.02   17.90
   2  -8  -4  828.22   16.40
   2  -8  -4  818.72   17.90
  -2  -8   4  804.42   13.40
  -2   8   4  801.42   13.50
  -2   8   4  786.22   18.60
   2   8  -4  819.72   17.70
   2   8  -4  835.22   18.30
   1  -8  -4  154.58    6.90
  -1  -8   4  165.38    7.40
   1  -8  -4  165.68    7.70
  -1  -8   4  150.58    4.50
   1   8  -4  150.58    6.80
  -1   8   4  156.88    7.80
  -1   8   4  154.38    3.30
   1   8  -4  159.68    7.70
   0  -8   4  177.78    5.60
   0  -8   4  177.18    8.00
   0  -8  -4  188.48    8.10
   0  -8  -4  180.28    8.30
   0   8  -4  189.48    6.90
   0   8   4  184.08    8.40
   0   8  -4  193.28    8.90
  -1  -8  -4  225.98    9.60
   1  -8   4  205.78    7.20
  -1  -8  -4  225.28    9.30
   1  -8   4  212.98    9.10
  -1   8  -4  223.38   10.10
   1   8   4  219.08    9.50
  -1   8  -4  216.28    7.10
   2  -8   4  241.48   10.10
   2  -8   4  228.18    9.10
  -2  -8  -4  217.58   10.10
  -2  -8  -4  227.98   10.00
   2   8   4  239.28    9.90
  -2   8  -4  217.98   10.20
  -2   8  -4  228.78   11.20
   3  -8   4   93.59    6.90
  -3  -8  -4   92.89    7.50
   3   8   4   98.49    6.70
  -3   8  -4   98.89    7.60
  -3   8  -4   95.39    7.00
   3   8   4   81.19    8.30
   4  -8   4   74.59    8.40
  -4  -8  -4   85.59    9.10
  -4   8  -4   87.49    8.30
  -4   8  -4   76.19    7.90
   4   8   4   83.49    9.30
  -5  -8  -4   72.09    9.00
   5  -8   4   69.29    8.80
   5   8   4   73.29    9.10
  -5   8  -4   62.49    7.50
  -5   8  -4   80.79    8.70
  -6  -8  -4    3.30    3.70
   6  -8   4    3.00    3.90
   6   8   4   10.50    4.60
  -6   8  -4    5.40    3.20
   8  -9  -4    2.30    3.00
  -8  -9   4    2.70    3.00
  -8  -9   4    2.50    3.10
   8   9  -4   -0.60    3.20
  -8   9   4    2.30    3.70
  -7  -9   4   12.90    3.80
  -7  -9   4    8.20    3.40
   7  -9  -4    5.50    3.30
   7   9  -4    6.00    4.00
  -7   9   4    4.20    3.10
  -6  -9   4    4.40    2.50
  -6  -9   4    3.70    2.70
   6  -9  -4    5.60    3.00
  -6   9   4    4.20    2.80
   6   9  -4    2.30    3.00
  -6   9   4    5.70    2.60
  -5  -9   4  103.09    7.00
   5  -9  -4  102.99    7.90
  -5  -9   4  109.89    6.60
  -5   9   4  113.59    7.00
  -5   9   4  104.99    7.10
   5   9  -4  100.09    7.90
  -4  -9   4  249.88   10.00
   4  -9  -4  254.07    8.00
  -4  -9   4  259.27    8.90
   4  -9  -4  249.97   11.00
   4   9  -4  263.77   11.80
  -4   9   4  248.28   10.30
   4   9  -4  251.67    8.30
  -4   9   4  264.77    9.30
  -3  -9   4    1.00    1.20
   3  -9  -4   -0.70    1.90
   3  -9  -4    0.40    1.30
  -3  -9   4    0.70    1.60
   3   9  -4    1.50    2.20
  -3   9   4    0.10    1.20
  -3   9   4    0.40    1.80
   3   9  -4    0.30    1.50
  -2  -9   4   16.60    2.10
  -2  -9   4   15.90    3.10
   2  -9  -4   21.10    3.60
   2  -9  -4   16.20    2.80
  -2   9   4   18.90    2.20
   2   9  -4   18.70    3.50
   2   9  -4   14.40    3.10
  -2   9   4   16.80    3.60
   1  -9  -4   47.60    5.40
   1  -9  -4   53.69    5.00
  -1  -9   4   46.50    4.80
  -1  -9   4   54.39    3.00
   1   9  -4   58.49    5.80
   1   9  -4   57.29    4.50
  -1   9   4   57.89    6.10
   0  -9  -4  289.57   10.90
   0  -9   4  287.17    7.70
   0  -9  -4  282.97   10.00
   0  -9   4  310.87   10.90
   0   9   4  297.17   11.00
   0   9  -4  294.97   11.30
   0   9  -4  288.37    8.60
  -1  -9  -4  128.09    7.60
   1  -9   4  131.59    7.60
   1  -9   4  126.19    5.70
  -1  -9  -4  134.29    7.30
   1   9   4  115.79    7.30
  -1   9  -4  120.89    7.60
  -1   9  -4  125.19    5.30
  -2  -9  -4   19.00    3.80
  -2  -9  -4   17.40    4.00
   2  -9   4   17.50    3.70
   2  -9   4   12.40    3.00
  -2   9  -4   11.10    3.70
   2   9   4   18.10    3.70
  -3  -9  -4 1098.29   26.50
   3  -9   4 1106.29   24.90
   3   9   4 1117.89   23.40
  -3   9  -4 1091.19   24.90
  -3   9  -4 1082.49   26.10
   3   9   4 1071.79   27.10
   4  -9   4   44.90    6.40
  -4  -9  -4   55.69    7.60
  -4   9  -4   49.60    6.90
  -4   9  -4   47.60    6.10
   4   9   4   33.50    6.50
  -5  -9  -4   -1.00    3.20
   5  -9   4    1.20    2.80
  -5   9  -4    4.20    3.20
   5   9   4    2.10    2.90
  -5   9  -4    5.80    3.00
   6  -9   4    5.10    4.20
   6   9   4    2.60    3.60
  -6   9  -4    8.10    3.40
  -8 -10   4   41.90    7.10
   8 -10  -4   22.00    5.80
  -8 -10   4   41.40    6.60
  -8  10   4   45.90    7.20
   8  10  -4   34.60    7.50
  -7 -10   4    5.40    3.00
  -7 -10   4    1.00    2.20
   7 -10  -4    0.70    2.80
   7  10  -4    3.40    3.40
  -7  10   4   -0.10    2.90
  -6 -10   4   78.59    7.50
  -6 -10   4   80.99    8.00
   6 -10  -4   75.09    8.90
   6  10  -4   74.69    9.00
  -6  10   4   72.49    7.60
  -6  10   4   70.19    7.30
  -5 -10   4   86.09    6.80
  -5 -10   4   83.39    6.00
   5 -10  -4   78.79    8.40
   5  10  -4  105.69   10.00
  -5  10   4   95.29    6.60
  -5  10   4   80.99    6.70
   4 -10  -4    8.90    3.00
   4 -10  -4   10.40    2.40
  -4 -10   4    9.90    2.40
  -4 -10   4    7.30    2.60
  -4  10   4    3.90    2.00
   4  10  -4   12.00    3.60
   4  10  -4    6.90    2.40
  -4  10   4    8.40    3.10
   3 -10  -4   -0.50    1.90
  -3 -10   4    0.20    1.20
   3 -10  -4   -0.80    1.20
  -3 -10   4   -1.00    1.60
  -3  10   4   -1.40    2.00
   3  10  -4    0.00    2.00
  -3  10   4   -1.00    1.10
   3  10  -4   -0.80    1.40
   2 -10  -4    9.00    2.30
  -2 -10   4   12.90    3.10
   2 -10  -4    9.20    2.90
  -2 -10   4   14.40    2.10
  -2  10   4   10.80    1.70
  -2  10   4    9.70    3.00
   2  10  -4    8.70    2.80
   2  10  -4    8.20    2.50
  -1 -10   4  129.39    5.00
   1 -10  -4  118.29    7.30
   1 -10  -4  131.69    6.60
  -1 -10   4  132.89    7.20
  -1  10   4  130.99    7.70
   1  10  -4  127.59    6.40
   1  10  -4  134.29    7.60
   0 -10  -4  203.58    8.80
   0 -10  -4  195.08    9.30
   0 -10   4  193.58    8.80
   0 -10   4  188.08    6.50
   0  10   4  195.88    9.30
   0  10  -4  191.78    9.50
   0  10  -4  179.58    6.90
  -1 -10  -4    3.10    2.10
   1 -10   4    0.00    1.30
  -1 -10  -4   -0.80    1.60
   1 -10   4   -1.20    1.80
   1  10   4    1.30    2.20
  -1  10  -4    1.40    1.90
  -1  10  -4   -0.20    1.80
  -2 -10  -4   10.00    3.00
  -2 -10  -4    3.30    2.60
   2 -10   4    1.20    1.90
   2 -10   4    1.50    1.70
  -2  10  -4    7.60    3.10
   2  10   4    3.20    2.30
   3 -10   4   27.90    4.80
   3 -10   4   35.70    5.40
  -3 -10  -4   36.00    5.80
  -3  10  -4   33.50    5.20
   3  10   4   38.70    5.30
   3  10   4   39.00    6.10
  -3  10  -4   41.10    6.30
   4 -10   4   21.80    4.80
  -4 -10  -4   27.30    5.40
  -4  10  -4   25.60    4.60
  -4  10  -4   32.60    5.80
   4  10   4   26.80    6.30
  -5 -10  -4   22.00    5.40
   5 -10   4   13.30    4.50
   5  10   4   15.30    5.20
  -5  10  -4   15.50    4.60
  -5  10  -4   13.20    4.30
   8 -11  -4   36.40    6.90
  -8 -11   4   48.00    7.50
  -8 -11   4   68.49    8.30
   8  11  -4   50.49    9.20
  -8  11   4   39.50    7.10
  -7 -11   4   -0.30    2.30
  -7 -11   4   -2.90    2.20
   7 -11  -4    0.10    2.50
  -7  11   4   -0.40    2.80
   7  11  -4    0.30    3.40
  -6 -11   4   13.80    4.10
  -6 -11   4   13.60    3.60
   6 -11  -4   14.00    4.20
  -6  11   4    6.40    3.10
   6  11  -4   15.60    4.60
  -6  11   4    4.80    3.10
   5 -11  -4  111.49    8.60
  -5 -11   4  112.19    7.60
  -5 -11   4  116.39    7.20
  -5  11   4  101.09    7.60
   5  11  -4   90.39    9.10
  -5  11   4  108.99    7.10
  -4 -11   4   23.30    4.30
  -4 -11   4   22.10    3.50
   4 -11  -4   18.10    3.90
   4  11  -4   20.00    4.60
   4  11  -4   20.40    3.50
  -4  11   4   21.70    4.00
  -4  11   4   21.20    3.70
   3 -11  -4  205.98    9.90
  -3 -11   4  191.18    7.30
   3 -11  -4  197.48    7.30
  -3 -11   4  170.68    8.50
   3  11  -4  197.58    8.40
  -3  11   4  201.78    7.10
  -3  11   4  217.68   10.30
   3  11  -4  199.88    9.90
  -2 -11   4    4.90    2.10
   2 -11  -4    3.40    1.80
   2 -11  -4    1.00    2.00
  -2 -11   4    4.10    1.50
  -2  11   4    4.10    2.50
   2  11  -4    3.40    2.10
   2  11  -4    3.90    2.30
  -1 -11   4    8.10    1.80
  -1 -11   4    5.20    2.40
   1 -11  -4    4.70    2.40
   1 -11  -4    5.90    2.10
   1  11  -4    5.50    2.70
   1  11  -4    5.10    2.10
  -1  11   4    3.10    2.50
   0 -11  -4    9.20    3.00
   0 -11   4   12.90    2.40
   0 -11   4    7.30    2.90
   0 -11  -4    9.30    2.70
   0  11   4   10.50    3.40
   0  11  -4    4.90    2.80
   0  11  -4   13.00    2.50
   1 -11   4   39.70    4.40
  -1 -11  -4   45.60    5.50
   1 -11   4   39.40    5.10
  -1 -11  -4   28.20    4.60
   1  11   4   38.60    5.60
  -1  11  -4   37.70    5.50
  -2 -11  -4  172.38   10.00
   2 -11   4  193.78    9.90
  -2 -11  -4  191.98   10.10
   2 -11   4  181.28    8.50
   2  11   4  184.08   10.30
  -2  11  -4  184.98   10.40
   2  11   4  205.78    9.70
   3 -11   4   58.09    6.60
  -3 -11  -4   83.69    9.00
   3 -11   4   55.39    6.90
   3  11   4   38.40    6.40
  -3  11  -4   74.59    8.30
   3  11   4   46.20    5.70
  -4 -11  -4  144.59   10.40
   4 -11   4  150.48    9.70
  -4  11  -4  139.89    9.90
  -4  11  -4  146.69    9.70
   4  11   4  153.98   10.90
  -5 -11  -4    2.30    3.60
   5 -11   4    7.90    4.20
  -5  11  -4    4.40    3.80
  -5  11  -4   10.80    3.70
   5  11   4    5.70    4.10
  -8 -12   4   11.50    4.60
   8 -12  -4    3.20    3.80
   8  12  -4   11.60    5.30
  -8  12   4   10.90    4.50
  -7 -12   4   13.20    4.10
  -7 -12   4   17.20    4.40
   7 -12  -4   11.10    4.30
  -7  12   4   20.30    5.10
   7  12  -4   13.90    4.90
  -6 -12   4  267.77   12.10
   6 -12  -4  253.17   13.80
  -6 -12   4  276.57   12.40
   6  12  -4  274.37   14.30
  -6  12   4  275.57   12.50
  -6  12   4  280.47   12.90
  -5 -12   4    8.40    2.90
   5 -12  -4    4.30    2.90
  -5 -12   4    4.80    2.70
  -5  12   4   10.90    3.00
  -5  12   4    9.30    3.40
   5  12  -4    7.60    3.80
  -4 -12   4    3.30    1.90
   4 -12  -4    4.10    2.80
  -4 -12   4    0.10    2.10
   4  12  -4    2.20    2.00
  -4  12   4    1.50    1.90
  -4  12   4    4.30    2.50
   4  12  -4   -0.10    2.60
   3 -12  -4   -2.80    1.70
  -3 -12   4    2.10    1.50
  -3 -12   4   -0.50    1.60
   3 -12  -4    4.20    1.70
  -3  12   4    1.70    1.50
   3  12  -4    2.30    2.30
  -3  12   4    3.60    2.50
   3  12  -4    4.80    2.40
   2 -12  -4    7.10    2.20
  -2 -12   4    3.70    2.20
   2 -12  -4    2.50    2.50
  -2 -12   4    7.70    2.10
   2  12  -4    9.80    3.00
   2  12  -4    5.30    2.50
  -2  12   4    2.10    2.40
   1 -12  -4   62.49    5.00
  -1 -12   4   58.39    4.10
   1 -12  -4   47.70    5.80
  -1 -12   4   58.89    6.40
   1  12  -4   54.99    5.50
  -1  12   4   49.30    6.00
   1  12  -4   63.99    6.70
   0 -12   4    1.30    1.40
   0 -12   4   -2.80    1.50
   0 -12  -4    2.50    2.20
   0 -12  -4   -1.70    1.60
   0  12  -4   -3.30    1.80
   0  12  -4   -0.20    1.50
   0  12   4   -0.80    2.10
  -1 -12  -4  115.69    7.40
   1 -12   4  108.09    6.10
  -1 -12  -4   98.19    7.70
   1 -12   4  119.29    7.60
  -1  12  -4   89.49    8.50
   1  12   4   99.19    7.30
   2 -12   4   12.70    3.60
   2 -12   4   18.00    3.70
  -2 -12  -4   14.10    4.00
  -2  12  -4   12.90    4.10
   2  12   4    8.20    3.60
   2  12   4   12.80    3.80
   3 -12   4    2.00    2.50
  -3 -12  -4    5.40    2.90
   3 -12   4    2.30    2.40
  -3  12  -4    2.70    2.80
   3  12   4    4.30    2.90
   3  12   4    0.40    2.30
  -4 -12  -4   36.50    6.20
   4 -12   4   34.50    6.10
  -4  12  -4   36.20    6.70
  -4  12  -4   32.80    5.50
   4  12   4   33.70    6.80
  -5 -12  -4   34.30    6.80
  -5  12  -4   33.10    6.20
   5  12   4   33.70    7.50
  -5  12  -4   40.20    6.80
   7 -13  -4    2.70    3.00
  -7 -13   4   12.10    4.20
  -7  13   4    8.90    3.70
   7  13  -4   16.70    5.20
  -6 -13   4   11.60    3.80
   6 -13  -4   15.50    4.40
  -6 -13   4   15.50    4.70
  -6  13   4   21.80    4.50
  -6  13   4   14.80    4.30
   6  13  -4    7.70    3.60
  -5 -13   4   46.20    6.20
   5 -13  -4   31.00    5.90
  -5 -13   4   44.20    6.20
   5  13  -4   39.70    6.70
  -5  13   4   26.30    4.40
  -5  13   4   34.60    6.00
  -4 -13   4    2.80    2.50
  -4 -13   4    2.00    2.00
   4 -13  -4    3.60    3.10
  -4  13   4    3.10    2.70
   4  13  -4    5.50    3.10
  -4  13   4    0.40    1.80
  -3 -13   4   41.10    6.50
  -3 -13   4   38.10    5.20
   3 -13  -4   28.80    5.30
   3  13  -4   47.10    5.50
  -3  13   4   35.20    5.60
   3  13  -4   47.10    6.30
   2 -13  -4   37.60    4.20
   2 -13  -4   30.00    4.90
  -2 -13   4   30.40    4.60
   2  13  -4   33.00    4.90
   2  13  -4   29.80    4.70
  -2  13   4   33.80    5.40
  -1 -13   4    0.50    2.00
   1 -13  -4    2.00    1.80
   1 -13  -4    3.90    2.90
   1  13  -4    1.20    1.80
  -1  13   4   -1.10    2.10
   1  13  -4    0.40    2.20
   0 -13  -4    8.90    3.10
   0 -13   4   10.80    3.20
   0 -13  -4   11.00    3.10
   0  13  -4   10.10    3.30
   0  13   4    8.60    3.40
  -1 -13  -4   72.49    7.50
   1 -13   4   71.69    7.50
  -1 -13  -4   80.29    8.30
  -1  13  -4   67.59    7.50
   1  13   4   82.19    8.20
   1  13   4   74.79    7.80
  -2 -13  -4  152.88    9.80
   2 -13   4  135.89    8.90
   2  13   4  134.29    9.40
   2  13   4  160.08    9.20
  -2  13  -4  132.49    9.50
  -3 -13  -4   67.59    8.00
   3 -13   4   74.69    8.60
   3  13   4   91.79   10.30
  -3  13  -4   88.09    9.10
   3  13   4   82.39    8.90
   4 -13   4   13.90    4.10
  -4 -13  -4   21.10    5.60
   4  13   4   28.30    5.90
  -4  13  -4   17.60    5.40
  -5 -13  -4   -0.30    3.10
  -5  13  -4    2.10    3.50
   5  13   4   -0.90    3.50
  -5  13  -4    4.50    3.30
  -7 -14   4   49.90    7.00
   7 -14  -4   46.10    8.00
  -7  14   4   43.00    7.10
   7  14  -4   38.60    7.30
  -6 -14   4    8.20    3.30
   6 -14  -4    4.70    3.20
   6  14  -4   16.10    5.20
  -6  14   4   11.10    4.10
  -6  14   4    3.20    3.30
   5 -14  -4  241.28   13.10
  -5 -14   4  210.48   10.80
   5  14  -4  227.78   13.10
  -5  14   4  241.78   10.50
  -5  14   4  223.48   12.10
  -4 -14   4   34.60    5.50
   4 -14  -4   30.10    5.60
   4  14  -4   22.40    5.00
  -4  14   4   35.30    6.20
   3 -14  -4   88.29    8.70
  -3 -14   4  100.39    7.30
   3  14  -4   82.59    8.40
   3  14  -4   95.69    7.00
  -3  14   4  107.19    8.00
  -2 -14   4   50.29    5.90
   2 -14  -4   57.89    5.30
   2 -14  -4   48.00    6.50
   2  14  -4   68.99    7.00
  -2  14   4   68.09    7.80
   2  14  -4   58.59    6.60
   1 -14  -4   43.90    6.30
   1 -14  -4   46.20    5.20
  -1 -14   4   46.10    6.00
  -1  14   4   53.19    7.30
   1  14  -4   51.89    5.30
   1  14  -4   43.90    5.90
   0 -14  -4   75.09    7.10
   0 -14  -4   71.49    8.00
   0 -14   4   67.89    7.00
   0  14   4   66.79    7.60
   0  14  -4   70.49    7.60
   1 -14   4    5.50    2.60
  -1 -14  -4    4.40    2.90
   1  14   4    8.80    3.50
   1  14   4   11.10    3.60
  -1  14  -4    7.30    3.50
   2 -14   4  563.04   18.50
  -2 -14  -4  585.34   20.00
   2  14   4  608.74   18.50
  -2  14  -4  599.54   20.20
   2  14   4  570.94   19.60
   3 -14   4   37.80    6.40
  -3 -14  -4   17.90    4.40
   3  14   4   27.30    5.90
  -3  14  -4   19.10    4.50
   4 -14   4    2.30    2.90
  -4 -14  -4   -6.00    2.30
  -4  14  -4    0.00    3.00
   4  14   4    0.90    3.10
   7 -15  -4   -8.00    1.90
  -7 -15   4   -1.50    2.50
  -7  15   4    0.40    3.20
   7  15  -4   -4.40    2.60
  -6 -15   4   15.10    4.10
   6  15  -4   16.50    5.10
  -5 -15   4  180.28   10.00
   5 -15  -4  189.08   11.90
  -5  15   4  173.18   11.00
   5  15  -4  174.58   11.70
  -4 -15   4   18.80    4.40
   4 -15  -4   11.10    4.20
   4  15  -4   16.10    4.90
  -4  15   4   14.60    4.40
  -3 -15   4   13.30    3.80
   3 -15  -4   10.60    3.60
   3  15  -4   15.70    3.80
  -3  15   4   12.40    4.00
   3  15  -4   23.50    5.00
  -2 -15   4   96.39    7.20
   2 -15  -4  111.29    8.40
   2  15  -4  103.69    7.70
   2  15  -4  108.19    7.50
  -2  15   4   92.69    9.30
   1 -15  -4   21.20    4.70
  -1 -15   4   18.00    4.00
   1 -15  -4   15.00    3.40
  -1  15   4   19.80    4.50
   1  15  -4   20.50    4.50
   0 -15  -4   16.70    4.30
   0 -15   4   27.20    4.90
   0  15  -4   21.00    4.80
   0  15   4   20.60    4.90
   0  15   4   30.30    5.50
   1 -15   4   57.59    7.20
  -1 -15  -4   44.00    6.80
   1  15   4   45.50    6.50
   1  15   4   40.10    6.30
  -1  15  -4   54.89    7.60
   2 -15   4   -1.40    1.80
  -2 -15  -4   -0.50    2.80
   2  15   4   -0.10    2.80
  -2  15  -4    3.40    3.00
   2  15   4   -4.20    2.50
  -3 -15  -4  205.18   12.20
   3 -15   4  194.08   11.30
  -3  15  -4  179.98   11.60
   3  15   4  175.58   12.00
  -4 -15  -4   32.80    6.40
   4 -15   4   12.30    4.10
   4  15   4   30.90    6.60
  -4  15  -4   26.90    5.70
   6 -16  -4    0.20    2.60
  -6 -16   4    3.10    2.70
  -6  16   4    0.70    3.00
   6  16  -4    3.90    3.50
  -5 -16   4   45.90    6.30
   5 -16  -4   35.00    6.10
   5  16  -4   39.30    6.90
  -5  16   4   43.90    7.20
   4 -16  -4   12.50    4.10
  -4 -16   4   16.70    4.20
  -4  16   4   10.40    4.10
   4  16  -4    6.10    3.60
  -3 -16   4   -0.90    1.90
   3 -16  -4    3.50    3.30
   3  16  -4   -0.60    2.50
  -3  16   4    1.90    3.00
   3  16  -4    1.20    2.80
   2 -16  -4   55.49    7.00
  -2 -16   4   57.69    6.90
   2  16  -4   71.29    7.70
  -2  16   4   72.69    8.40
   2  16  -4   80.29    7.80
   1 -16  -4    0.40    2.30
  -1 -16   4   -1.40    2.30
   1  16  -4    3.70    3.20
  -1  16   4   -0.50    2.30
  -1  16   4    2.40    2.80
   0 -16   4  134.69    9.10
   0 -16  -4  143.99    9.90
   0  16   4  131.39    9.00
   0  16  -4  138.29    9.60
   0  16   4  138.39    9.50
   1 -16   4    0.60    2.30
  -1 -16  -4    0.40    2.80
   1  16   4   -1.10    2.40
   1  16   4   -2.40    2.80
  -1  16  -4   -0.40    3.00
   2 -16   4   34.20    6.00
  -2 -16  -4   30.20    6.20
  -2  16  -4   26.50    5.50
   2  16   4   29.30    5.90
   2  16   4   31.40    6.40
   3 -16   4    6.30    3.40
  -3 -16  -4    3.10    2.90
  -3  16  -4    4.00    3.20
   3  16   4    9.40    3.80
   4 -16   4   23.50    5.50
  -4 -16  -4   41.60    7.30
   4  16   4   46.30    8.60
  -4  16  -4   31.50    6.10
   6 -17  -4    2.50    3.00
  -6 -17   4    0.10    3.00
  -6  17   4    0.60    3.30
   6  17  -4    0.80    3.20
   5 -17  -4   27.00    6.20
  -5 -17   4   17.50    4.30
   5  17  -4   17.80    5.40
  -5  17   4   21.00    5.50
  -4 -17   4   41.90    6.30
   4 -17  -4   38.00    6.40
  -4  17   4   44.60    7.30
   4  17  -4   40.60    7.00
  -3 -17   4   30.90    5.50
   3 -17  -4   18.70    4.90
   3  17  -4   22.80    5.00
   3  17  -4   17.60    4.40
  -3  17   4   13.50    4.20
  -2 -17   4    6.50    3.30
   2 -17  -4    0.40    2.60
   2  17  -4   -0.80    2.80
  -2  17   4    5.40    3.60
   1 -17  -4   -0.10    2.60
  -1 -17   4   -2.20    2.00
   1  17  -4    2.60    3.00
  -1  17   4    3.30    3.20
   0 -17   4  139.89    9.10
   0 -17  -4  137.09   10.10
   0  17   4  137.19   10.00
   0  17  -4  145.09   10.30
   0  17   4  129.19    9.10
  -1 -17  -4   -0.80    2.90
   1 -17   4    0.20    2.40
   1  17   4    1.10    2.70
   1  17   4   -2.00    2.30
  -1  17  -4   -1.60    2.80
   2 -17   4  189.18   11.10
  -2 -17  -4  211.78   12.80
  -2  17  -4  173.58   11.80
   2  17   4  201.98   11.50
   2  17   4  179.28   12.00
   3 -17   4   92.59   10.20
  -3 -17  -4   97.89   11.00
  -3  17  -4   69.39    9.20
   3  17   4   75.49   10.40
   5 -18  -4  153.08   11.70
  -5 -18   4  178.88   11.00
   5  18  -4  177.28   12.40
  -5  18   4  158.88   11.50
  -4 -18   4    9.10    3.60
   4 -18  -4    4.70    3.20
  -4  18   4    3.60    3.40
   4  18  -4   -0.20    3.10
  -3 -18   4   44.50    6.40
   3 -18  -4   53.49    7.80
   3  18  -4   50.19    6.80
   3  18  -4   43.10    6.70
  -3  18   4   42.80    7.30
   2 -18  -4   12.10    4.30
  -2 -18   4   16.10    4.30
  -2  18   4   17.10    5.40
   2  18  -4   15.80    4.40
  -1 -18   4    4.10    2.90
   1 -18  -4    9.50    3.90
  -1  18   4    0.70    3.20
   1  18  -4    1.60    3.00
   0 -18   4    4.10    2.90
   0 -18  -4   11.40    4.10
   0  18  -4    9.70    4.50
   0  18   4    8.50    4.10
   0  18   4    4.60    3.50
  -1 -18  -4    0.00    2.60
   1 -18   4    1.10    2.60
  -1  18  -4    0.40    3.40
   1  18   4    3.20    3.20
   1  18   4    0.60    3.10
  -2 -18  -4   70.79    9.30
   2 -18   4   69.59    8.70
   2  18   4  113.59   10.90
   2  18   4   84.89   10.30
  -2  18  -4   63.19    8.40
  -3 -18  -4  185.08   12.60
   3 -18   4  168.28   11.20
   3  18   4  209.68   13.80
  -3  18  -4  156.28   11.80
   5 -19  -4  181.98   12.80
  -5 -19   4  182.48   11.40
  -5  19   4  214.38   13.30
   5  19  -4  195.48   13.30
   4 -19  -4   34.00    6.30
  -4 -19   4   38.20    6.10
  -4  19   4   28.20    6.20
   4  19  -4   38.00    6.90
   3 -19  -4    3.10    3.50
  -3 -19   4    5.90    3.60
   3  19  -4    7.20    3.50
  -3  19   4    4.40    3.20
   2 -19  -4    2.50    3.20
  -2 -19   4   -1.00    2.70
  -2  19   4    0.70    3.40
   2  19  -4    1.30    2.90
  -1 -19   4   61.19    7.40
   1 -19  -4   64.09    8.40
   1  19  -4   74.09    8.90
  -1  19   4   77.59    9.90
   0 -19   4    4.30    2.70
   0 -19  -4   -0.30    3.00
   0  19  -4    2.30    3.20
   0  19   4   -1.90    2.40
   1 -19   4   38.70    6.30
  -1 -19  -4   38.30    7.00
  -1  19  -4   42.10    7.40
   1  19   4   32.80    6.40
   1  19   4   52.09    7.80
   2 -19   4   -0.70    2.60
  -2 -19  -4    6.20    3.90
   2  19   4   -1.60    3.40
   2  19   4   -1.20    3.20
  -2  19  -4    1.70    2.80
  -4 -20   4    2.50    3.00
   4 -20  -4    1.50    3.50
   4  20  -4    5.20    4.60
  -4  20   4   -0.30    2.80
  -3 -20   4    2.20    3.20
   3 -20  -4    1.30    3.20
   3  20  -4    5.80    4.00
  -3  20   4    5.40    3.50
   2 -20  -4  301.07   15.50
  -2 -20   4  294.87   13.90
   2  20  -4  292.37   14.50
  -2  20   4  310.77   16.40
   1 -20  -4   48.40    7.40
  -1 -20   4   56.89    7.60
  -1  20   4   66.89    9.10
   1  20  -4   69.39    9.20
   0 -20  -4  224.58   13.80
   0 -20   4  219.98   12.00
   0  20   4  223.88   13.80
   0  20  -4  219.58   13.40
   1 -20   4    1.90    2.90
  -1 -20  -4    4.60    4.00
   1  20   4   -3.10    3.20
  -1  20  -4    1.10    3.80
  -3 -21   4    4.50    3.80
   3 -21  -4    6.70    4.70
  -3  21   4   15.10    5.40
  -2 -21   4   67.09    8.50
   2 -21  -4   76.39   10.30
   2  21  -4   75.79    9.40
  -2  21   4   52.69    8.70
  -1 -21   4  133.59    9.70
   1 -21  -4  150.48   12.50
   1  21  -4  133.29   10.80
  -1  21   4  129.19   13.00
   0 -21   4    4.70    3.20
   0 -21  -4   -2.70    3.70
   0  21   4   -0.20    3.20
   0  21  -4   -2.10    3.50
   9   0  -5   -0.60    2.70
  -9   0   5   -1.80    2.60
   9   0  -5   -0.50    3.00
   8   0  -5    2.70    2.80
  -8   0   5   -0.80    2.30
   8   0  -5    0.60    2.40
  -7   0   5    3.00    2.40
   7   0  -5   -2.00    2.10
   7   0  -5    1.20    2.20
  -6   0   5   -0.40    2.10
   6   0  -5   -1.00    1.80
   6   0  -5   -0.70    1.90
  -5   0   5    0.60    1.70
  -5   0   5    0.20    1.40
   5   0  -5    0.70    1.60
   5   0  -5    1.30    1.70
  -4   0   5    0.00    1.20
   4   0  -5    2.10    1.50
   4   0  -5   -1.00    1.60
  -4   0   5    0.70    1.60
   3   0  -5   -1.30    1.20
  -3   0   5    0.10    1.30
  -3   0   5   -0.90    1.30
   3   0  -5    0.40    1.00
  -2   0   5    1.00    1.60
  -2   0   5   -1.00    0.90
   2   0  -5   -0.20    0.80
   2   0  -5    0.10    1.50
   1   0  -5   -0.10    1.30
  -1   0   5   -0.30    1.40
   1   0  -5   -0.30    0.90
  -1   0   5    0.90    1.10
   0   0  -5   -1.80    1.20
   0   0   5    0.40    1.00
   0   0  -5   -0.30    1.80
   0   0  -5   -0.60    1.10
  -1   0  -5    1.10    1.50
   1   0   5   -0.30    1.00
  -1   0  -5   -0.30    1.80
  -1   0  -5   -0.30    1.40
  -2   0  -5   -0.30    1.60
   2   0   5   -1.50    1.20
  -2   0  -5   -0.70    2.00
  -2   0  -5    2.10    2.10
  -3   0  -5   -3.50    1.60
  -3   0  -5    1.10    1.90
  -3   0  -5   -0.30    1.80
  -3   0  -5   -1.20    1.90
  -4   0  -5   -3.90    2.20
  -4   0  -5    0.60    2.10
   4   0   5    1.40    2.50
  -4   0  -5   -0.40    2.20
  -5   0  -5   -1.70    2.90
   5   0   5    0.90    2.70
  -6   0  -5    0.30    3.70
   9  -1  -5   -3.00    2.70
  -9  -1   5    4.80    3.70
   9   1  -5    3.50    3.30
   9   1  -5   14.20    5.10
  -9   1   5    4.10    3.30
  -8  -1   5   26.00    5.40
   8  -1  -5   34.20    6.40
   8  -1  -5   29.20    5.40
  -8   1   5   26.30    5.80
   8   1  -5   34.50    6.60
   8   1  -5   33.50    6.30
   7  -1  -5   20.10    4.40
   7  -1  -5   17.70    4.50
  -7  -1   5   18.40    4.40
   7   1  -5   13.90    4.00
  -7   1   5   12.90    4.00
   7   1  -5   11.20    3.80
   6  -1  -5   55.49    6.40
  -6  -1   5   49.50    6.00
   6  -1  -5   54.79    6.60
   6   1  -5   61.59    7.10
   6   1  -5   40.70    5.60
  -6   1   5   41.00    5.30
  -5  -1   5   61.29    4.00
  -5  -1   5   67.79    6.70
   5  -1  -5   60.59    6.20
   5  -1  -5   59.99    6.10
  -5   1   5   60.09    4.10
   5   1  -5   67.59    5.40
   5   1  -5   65.79    6.80
  -5   1   5   69.39    6.60
   4  -1  -5    8.50    2.40
  -4  -1   5   15.70    2.90
  -4  -1   5   10.70    2.40
   4  -1  -5    9.60    2.30
  -4   1   5   11.30    2.40
   4   1  -5   12.00    3.00
   4   1  -5   11.80    2.40
  -4   1   5   12.20    2.80
  -3  -1   5   28.50    3.70
  -3  -1   5   32.90    3.90
   3  -1  -5   31.90    4.00
   3  -1  -5   32.20    3.20
  -3   1   5   29.40    3.80
  -3   1   5   35.40    3.80
   3   1  -5   36.90    4.40
   3   1  -5   28.00    2.40
   2  -1  -5   17.80    2.10
  -2  -1   5   19.50    3.00
   2  -1  -5   19.90    3.30
  -2  -1   5   15.40    2.90
   2   1  -5   16.10    1.50
   2   1  -5   16.80    2.90
  -2   1   5   15.20    2.40
  -2   1   5   21.60    3.50
   1  -1  -5  136.89    6.50
  -1  -1   5  126.89    5.40
   1  -1  -5  122.89    4.60
   1   1  -5  121.29    6.70
  -1   1   5  126.49    6.70
   1   1  -5  130.69    6.40
  -1   1   5  124.29    4.90
   1   1  -5  128.09    3.70
   0  -1  -5  158.98    6.00
   0  -1   5  163.98    6.30
   0  -1  -5  159.18    7.20
   0   1  -5  160.98    5.40
   0   1  -5  162.88    8.10
   0   1   5  161.48    5.60
   0   1  -5  158.88    7.10
   0   1   5  163.18    7.80
  -1  -1  -5  254.97    9.80
  -1  -1  -5  248.78    8.70
   1  -1   5  241.58    8.20
  -1   1  -5  243.68   10.10
  -1   1  -5  247.08    9.40
  -1   1  -5  245.08    8.10
   1   1   5  257.87   10.10
   1   1   5  254.47    7.70
   2  -1   5  216.88    8.30
  -2  -1  -5  224.08    9.70
  -2  -1  -5  212.28    9.20
   2   1   5  204.68    9.40
  -2   1  -5  216.98   10.20
   2   1   5  197.78    7.40
  -2   1  -5  210.48    8.70
  -2   1  -5  205.78    9.00
  -3  -1  -5   82.49    5.50
  -3  -1  -5   79.29    6.80
  -3  -1  -5   88.19    6.60
   3   1   5   87.19    6.80
  -3   1  -5   80.89    5.60
  -3   1  -5   91.09    6.50
  -3   1  -5   85.49    7.00
  -3   1  -5   86.59    6.80
  -4  -1  -5  626.34   19.60
  -4  -1  -5  605.14   18.20
  -4  -1  -5  645.44   19.50
   4   1   5  603.64   17.70
  -4   1  -5  609.84   17.80
  -4   1  -5  631.84   17.20
  -4   1  -5  634.34   18.80
  -4   1  -5  649.14   19.40
  -5  -1  -5   81.39    9.10
   5  -1   5   93.19    9.70
  -5   1  -5   76.89    7.60
   5   1   5  108.79   10.80
  -5   1  -5   85.09    9.40
   6  -1   5   12.60    5.50
  -6  -1  -5    4.00    3.80
  -6   1  -5    2.20    3.50
  -9  -2   5   45.50    7.40
   9  -2  -5   21.30    5.90
  -9   2   5   28.30    5.90
   9   2  -5   26.80    6.40
   9   2  -5   45.30    7.90
   8  -2  -5   16.60    4.20
   8  -2  -5   12.00    4.40
  -8  -2   5   23.50    5.00
   8   2  -5   17.20    4.90
   8   2  -5    9.10    4.00
  -8   2   5   15.60    4.60
   7  -2  -5    1.40    2.40
  -7  -2   5   -0.70    2.00
   7  -2  -5    0.10    2.30
  -7   2   5    6.00    3.10
   7   2  -5   -0.60    2.10
   7   2  -5   -0.40    2.40
  -6  -2   5    1.00    2.00
   6  -2  -5    0.90    2.00
   6  -2  -5    0.90    2.10
  -6   2   5   -1.00    1.70
   6   2  -5    1.30    2.30
   6   2  -5    0.60    2.00
   5  -2  -5    5.60    2.30
   5  -2  -5   10.30    2.90
  -5  -2   5    8.70    2.10
  -5  -2   5    4.90    2.30
   5   2  -5    8.20    2.80
  -5   2   5    9.50    2.30
  -5   2   5    8.20    2.50
   5   2  -5    6.70    2.60
   4  -2  -5   24.20    3.60
   4  -2  -5   32.70    3.80
  -4  -2   5   32.20    3.70
  -4  -2   5   33.60    4.30
  -4   2   5   32.30    3.90
   4   2  -5   38.80    4.90
  -4   2   5   30.70    3.90
   4   2  -5   32.20    3.50
  -3  -2   5  376.76   10.80
   3  -2  -5  374.06    9.60
   3  -2  -5  358.16   10.90
  -3  -2   5  387.56   10.80
   3   2  -5  374.06   11.60
   3   2  -5  382.26    7.90
  -3   2   5  382.46   10.30
  -3   2   5  365.86   10.90
  -2  -2   5   52.99    3.90
   2  -2  -5   40.60    3.00
   2  -2  -5   36.40    4.10
  -2   2   5   47.30    3.40
   2   2  -5   44.50    4.60
   2   2  -5   53.39    5.20
  -2   2   5   46.80    5.00
   1  -2  -5  190.78    7.70
  -1  -2   5  186.08    7.00
   1  -2  -5  203.48    6.30
  -1   2   5  194.98    8.50
  -1   2   5  200.48    6.10
   1   2  -5  203.08    7.80
   1   2  -5  225.68    8.90
   0  -2   5  493.15   11.90
   0  -2  -5  495.65   13.30
   0  -2  -5  470.45   11.20
   0   2  -5  481.15    9.40
   0   2   5  476.75   13.50
   0   2  -5  478.05   14.00
   0   2  -5  471.55   12.50
   0   2   5  490.15   10.00
  -1  -2  -5  393.56   12.30
  -1  -2  -5  379.06   11.10
   1  -2   5  373.06   10.90
  -1   2  -5  378.86   11.50
   1   2   5  392.56   12.60
   1   2   5  381.16    9.20
  -1   2  -5  378.86   10.00
  -1   2  -5  397.56   12.90
  -2  -2  -5    1.20    1.80
   2  -2   5    1.10    1.50
  -2  -2  -5    1.60    2.20
  -2   2  -5   -0.50    1.60
  -2   2  -5   -1.00    2.00
   2   2   5    0.80    1.90
   2   2   5    0.60    1.10
  -2   2  -5    2.00    2.00
  -3  -2  -5    4.20    2.00
  -3  -2  -5    3.70    2.70
  -3  -2  -5    2.30    2.20
  -3   2  -5    3.50    2.50
  -3   2  -5    0.30    2.00
   3   2   5    0.60    2.00
  -3   2  -5    3.40    2.90
  -3   2  -5    2.40    1.90
  -4  -2  -5  219.48   11.60
  -4  -2  -5  189.68   10.50
  -4   2  -5  206.08    9.80
  -4   2  -5  197.88    9.80
  -4   2  -5  210.98   11.20
   4   2   5  205.98    9.90
  -4   2  -5  215.68   11.10
  -5  -2  -5    0.40    3.20
   5  -2   5    1.40    3.10
  -5   2  -5    3.30    3.10
   5   2   5    4.30    3.00
  -5   2  -5    2.20    2.70
   6  -2   5   12.10    5.10
  -6  -2  -5   23.20    6.10
   6   2   5   18.50    5.40
  -9  -3   5    8.00    3.60
   9  -3  -5    5.50    3.70
  -9   3   5   12.80    4.60
   9   3  -5    5.90    3.60
   9   3  -5    2.60    3.10
  -8  -3   5   77.49    9.00
   8  -3  -5   64.99    8.90
   8   3  -5   58.99    8.10
   8   3  -5   80.29    9.30
  -8   3   5   89.19    9.50
  -7  -3   5   50.59    6.50
   7  -3  -5   38.00    5.60
   7  -3  -5   51.29    7.20
  -7   3   5   39.40    6.10
   7   3  -5   40.20    6.40
   7   3  -5   42.10    6.30
  -6  -3   5   63.89    6.90
   6  -3  -5   64.09    7.00
   6  -3  -5   75.79    6.00
   6   3  -5   75.59    7.50
  -6   3   5   68.49    6.80
   6   3  -5   61.39    7.20
   5  -3  -5  101.89    6.40
   5  -3  -5  103.39    6.70
  -5  -3   5  103.29    6.80
  -5  -3   5   99.19    6.10
  -5   3   5   93.79    6.20
   5   3  -5   95.39    6.30
   5   3  -5   97.19    7.20
  -5   3   5   99.79    5.50
   4  -3  -5  215.28    8.70
  -4  -3   5  216.38    8.90
   4  -3  -5  225.18    8.60
  -4  -3   5  207.68    7.30
  -4   3   5  215.48    8.40
   4   3  -5  217.08    7.50
   4   3  -5  224.08    9.80
  -4   3   5  220.88    8.50
  -3  -3   5  168.78    7.40
   3  -3  -5  161.58    7.20
   3  -3  -5  170.48    6.70
   3   3  -5  160.48    7.90
  -3   3   5  166.48    6.60
   3   3  -5  166.18    4.80
  -3   3   5  165.08    7.30
   3   3  -5  166.58    7.10
   2  -3  -5  865.81   18.20
  -2  -3   5  856.81   17.20
   2  -3  -5  862.81   15.80
  -2   3   5  871.31   15.50
   2   3  -5  867.61   18.30
   2   3  -5  897.71   18.60
  -2   3   5  856.11   18.70
  -1  -3   5  266.77    8.50
   1  -3  -5  280.67    9.50
   1  -3  -5  267.07    7.90
   1   3  -5  274.57   10.10
  -1   3   5  291.87   10.20
  -1   3   5  268.87    6.90
   1   3  -5  292.87    9.60
   0  -3  -5  194.38    7.30
   0  -3   5  208.78    7.70
   0  -3  -5  186.08    8.10
   0   3  -5  204.38    7.90
   0   3   5  199.58    8.60
   0   3  -5  203.78    9.00
   0   3   5  197.28    5.60
  -1  -3  -5   97.29    6.30
  -1  -3  -5  102.39    6.10
   1  -3   5  103.09    5.80
   1   3   5  107.39    6.80
  -1   3  -5   99.69    5.00
  -1   3  -5   97.19    6.80
  -1   3  -5   95.79    5.70
   1   3   5  106.39    4.40
   2  -3   5  236.18    9.30
  -2  -3  -5  241.58   10.20
  -2  -3  -5  250.97   10.20
  -2   3  -5  235.18   10.60
  -2   3  -5  238.38    9.40
   2   3   5  228.48    7.40
   2   3   5  227.98   10.00
  -2   3  -5  244.88    9.20
  -3  -3  -5   60.39    6.80
  -3  -3  -5   86.69    8.10
  -3   3  -5   69.29    5.70
  -3   3  -5   73.39    7.50
  -3   3  -5   61.29    5.90
   3   3   5   70.59    6.80
  -3   3  -5   75.29    6.30
  -4  -3  -5  102.79    8.20
  -4  -3  -5  110.89    8.80
   4  -3   5  107.89    8.90
  -4   3  -5   99.29    8.00
  -4   3  -5  106.09    7.30
   4   3   5  117.49    8.10
  -4   3  -5  114.19    7.70
   5  -3   5  150.28   11.20
  -5  -3  -5  152.18   10.90
   5   3   5  128.79   10.00
  -5   3  -5  146.39    9.20
   6  -3   5    3.90    3.90
  -9  -4   5    0.20    2.60
   9  -4  -5   -1.20    2.80
  -9   4   5    2.20    3.40
   9   4  -5   -1.30    2.70
   9   4  -5    3.40    3.20
   8  -4  -5    8.50    4.10
  -8  -4   5    3.50    2.90
  -8   4   5   13.90    4.20
   8   4  -5   13.00    4.60
   8   4  -5    5.20    3.30
   7  -4  -5    4.60    2.70
   7  -4  -5    1.10    2.50
  -7  -4   5   -1.10    2.10
  -7   4   5    7.70    3.20
   7   4  -5    3.20    2.90
   7   4  -5    0.90    2.70
   6  -4  -5  168.48    9.80
   6  -4  -5  166.88    8.50
  -6  -4   5  166.78    9.10
   6   4  -5  158.08    9.80
   6   4  -5  164.48    9.20
  -6   4   5  155.68    8.70
   5  -4  -5    2.40    2.10
   5  -4  -5    3.50    1.90
  -5  -4   5    3.90    2.30
   5   4  -5    2.00    2.30
  -5   4   5    3.00    2.00
   5   4  -5    0.50    1.70
  -5   4   5    2.30    2.00
   4  -4  -5   48.70    5.00
  -4  -4   5   50.39    5.40
   4  -4  -5   49.20    5.00
  -4   4   5   37.10    4.30
   4   4  -5   40.50    4.10
   4   4  -5   47.20    3.80
   4   4  -5   47.40    5.80
  -4   4   5   46.70    4.80
  -3  -4   5 1098.29   21.40
   3  -4  -5 1077.89   21.00
   3  -4  -5 1122.89   20.30
   3   4  -5 1123.59   22.70
   3   4  -5 1123.39   16.10
  -3   4   5 1085.79   21.60
   3   4  -5 1087.49   20.70
  -3   4   5 1110.49   19.60
   2  -4  -5   22.00    2.90
  -2  -4   5   21.50    3.20
   2  -4  -5   27.00    3.70
  -2   4   5   27.70    2.90
   2   4  -5   30.30    4.00
   2   4  -5   23.20    3.50
  -2   4   5   26.50    3.90
   1  -4  -5   12.50    2.70
  -1  -4   5   11.00    2.40
   1  -4  -5    9.80    2.20
  -1   4   5    7.90    1.40
  -1   4   5   10.10    2.80
   1   4  -5   11.30    2.90
   1   4  -5   10.20    2.40
   0  -4   5    2.70    1.10
   0  -4  -5    4.70    2.10
   0  -4   5    0.50    1.40
   0  -4  -5    0.30    1.50
   0   4   5    2.80    1.00
   0   4  -5    1.50    2.10
   0   4   5    5.80    2.50
   0   4  -5    0.60    1.30
  -1  -4  -5  228.48    9.80
  -1  -4  -5  235.18    9.20
   1  -4   5  256.37    9.40
   1  -4   5  217.78    7.70
   1   4   5  229.88    6.20
  -1   4  -5  228.78   10.30
  -1   4  -5  234.28    8.80
   1   4   5  239.88    9.80
   2  -4   5    7.30    2.40
   2  -4   5    4.40    2.10
  -2  -4  -5    2.30    2.10
  -2  -4  -5    2.90    2.40
   2   4   5    2.80    2.20
  -2   4  -5    8.50    2.60
  -2   4  -5    1.60    2.30
   3  -4   5  106.39    7.60
  -3  -4  -5   87.09    7.40
  -3  -4  -5   96.49    7.30
  -3   4  -5  113.19    6.70
   3   4   5  101.79    6.90
  -3   4  -5   95.79    6.70
  -3   4  -5  111.19    7.90
  -4  -4  -5  411.16   16.20
  -4  -4  -5  365.96   14.80
   4  -4   5  357.86   15.40
  -4   4  -5  397.06   14.40
  -4   4  -5  375.46   15.00
   4   4   5  394.86   16.00
  -5  -4  -5    5.00    3.70
   5  -4   5    2.50    3.30
  -5   4  -5    0.90    2.50
   5   4   5    1.50    2.80
   9  -5  -5    4.80    3.60
  -9  -5   5    7.90    3.60
  -9   5   5    6.20    4.10
   9   5  -5    4.20    3.60
   9   5  -5    2.00    3.60
   8  -5  -5  134.79   10.80
  -8  -5   5  137.69    9.60
   8   5  -5  116.59    9.90
   8   5  -5  134.39   10.50
  -8   5   5  134.89    9.90
   7  -5  -5  130.99    9.90
  -7  -5   5  139.69    9.00
   7   5  -5  139.19   10.00
   7   5  -5  142.39    9.80
  -7   5   5  146.79    9.50
  -6  -5   5  453.15   15.30
   6  -5  -5  453.05   16.20
   6  -5  -5  450.55   13.70
  -6  -5   5  460.85   13.90
  -6   5   5  459.65   15.20
   6   5  -5  437.66   16.40
   5  -5  -5   30.30    4.20
   5  -5  -5   25.80    4.30
  -5  -5   5   38.70    4.30
  -5  -5   5   26.40    4.30
  -5   5   5   26.50    4.00
  -5   5   5   35.30    4.70
   5   5  -5   17.90    4.00
   4  -5  -5   78.99    5.60
   4  -5  -5   72.79    5.10
  -4  -5   5   72.19    3.90
  -4  -5   5   73.69    5.40
  -4   5   5   58.59    4.50
   4   5  -5   70.69    4.60
   4   5  -5   80.59    6.30
  -4   5   5   74.69    5.50
  -3  -5   5   56.89    5.30
   3  -5  -5   43.80    4.40
   3  -5  -5   46.30    4.60
   3   5  -5   46.70    2.70
   3   5  -5   51.49    5.30
  -3   5   5   63.09    6.00
  -3   5   5   47.10    3.60
   3   5  -5   41.40    4.30
  -2  -5   5  249.48    8.90
   2  -5  -5  256.47    9.00
   2  -5  -5  256.37    8.60
  -2   5   5  260.27   10.10
   2   5  -5  249.08    9.30
   2   5  -5  257.77    9.40
  -2   5   5  242.08    6.80
   1  -5  -5  579.04   13.70
  -1  -5   5  589.64   14.30
   1  -5  -5  574.14   14.60
  -1   5   5  565.54   10.10
  -1   5   5  598.24   15.60
   1   5  -5  576.44   14.10
   1   5  -5  578.14   15.50
   0  -5  -5   46.50    4.60
   0  -5  -5   45.90    5.10
   0  -5   5   42.70    4.60
   0  -5   5   43.50    2.50
   0   5   5   50.99    5.40
   0   5  -5   45.00    5.40
   0   5   5   50.89    2.40
   0   5  -5   38.80    4.20
  -1  -5  -5   68.39    5.20
   1  -5   5   74.99    5.40
  -1  -5  -5   73.79    5.80
   1  -5   5   67.59    4.40
   1   5   5   73.99    5.90
  -1   5  -5   76.29    5.00
  -1   5  -5   71.79    7.00
   2  -5   5    3.80    2.20
   2  -5   5    3.80    2.00
  -2  -5  -5    2.20    2.00
  -2  -5  -5    2.60    2.40
  -2   5  -5    6.70    2.30
   2   5   5    3.10    2.20
  -2   5  -5    3.90    2.60
  -3  -5  -5    2.80    2.40
   3  -5   5   -0.70    1.80
  -3  -5  -5   -0.10    2.60
  -3   5  -5    1.70    2.00
   3   5   5    1.00    2.20
  -3   5  -5    0.30    2.10
  -3   5  -5   -1.20    2.30
  -4  -5  -5  342.07   15.00
   4  -5   5  352.36   15.10
  -4   5  -5  329.87   13.20
   4   5   5  339.27   15.20
  -4   5  -5  365.06   14.50
   5  -5   5   20.40    5.50
  -5  -5  -5   18.70    5.20
  -5   5  -5   18.00    4.40
   5   5   5   24.50    6.30
   9  -6  -5   30.60    7.20
  -9  -6   5   36.00    6.80
   9   6  -5   29.70    6.90
  -9   6   5   28.30    6.50
   9   6  -5   29.70    6.70
   8  -6  -5   23.30    5.80
  -8  -6   5   36.40    6.40
  -8   6   5   31.60    6.00
   8   6  -5   43.90    8.00
   8   6  -5   27.50    5.90
  -7  -6   5   79.59    8.60
   7  -6  -5   66.39    8.70
  -7  -6   5   79.69    7.90
  -7   6   5   63.49    7.30
   7   6  -5   93.09   10.20
   6  -6  -5  226.58    9.40
  -6  -6   5  228.68   10.80
  -6  -6   5  236.18   10.00
   6  -6  -5  235.58   11.70
  -6   6   5  228.98    9.40
  -6   6   5  203.18   10.10
   6   6  -5  245.78   12.50
  -5  -6   5  212.68    9.90
  -5  -6   5  246.28    8.80
   5  -6  -5  232.18    8.90
   5  -6  -5  234.98   10.70
  -5   6   5  197.98    8.80
  -5   6   5  202.28    9.20
   5   6  -5  217.88   11.00
   4  -6  -5   86.49    6.20
  -4  -6   5   92.19    4.50
  -4  -6   5   88.89    5.90
   4  -6  -5   89.59    5.40
   4   6  -5   98.39    7.00
  -4   6   5   92.79    5.50
  -4   6   5   90.09    6.00
   4   6  -5   89.49    5.10
  -3  -6   5   46.60    5.00
  -3  -6   5   51.49    2.60
   3  -6  -5   49.00    4.70
   3  -6  -5   47.30    4.80
  -3   6   5   52.79    3.80
   3   6  -5   50.99    5.60
  -3   6   5   48.60    5.70
   3   6  -5   54.89    4.40
   2  -6  -5  899.71   19.00
  -2  -6   5  942.91   19.50
   2  -6  -5  904.41   18.50
  -2   6   5  878.61   20.30
   2   6  -5  932.11   19.80
  -2   6   5  908.01   15.10
   2   6  -5  954.20   19.90
   1  -6  -5  163.88    7.20
   1  -6  -5  143.79    7.10
  -1  -6   5  157.18    7.20
   1   6  -5  164.28    7.10
   1   6  -5  147.49    7.80
  -1   6   5  153.28    4.10
  -1   6   5  148.79    7.90
   0  -6   5    3.10    2.00
   0  -6   5    1.00    1.00
   0  -6  -5    2.60    1.90
   0  -6  -5    2.20    1.80
   0   6  -5    2.90    2.40
   0   6   5    4.50    2.40
   0   6  -5    1.80    1.60
  -1  -6  -5    0.20    1.80
  -1  -6  -5    1.10    2.20
   1  -6   5    1.40    1.90
   1  -6   5    0.00    1.10
  -1   6  -5    2.90    1.80
   1   6   5    2.40    2.10
  -1   6  -5   -1.40    1.90
   2  -6   5    2.90    2.10
  -2  -6  -5    1.90    2.10
   2  -6   5    5.40    2.40
  -2  -6  -5    7.50    2.90
   2   6   5    2.20    2.00
  -2   6  -5    2.10    1.90
  -2   6  -5    5.80    3.00
   3  -6   5   65.79    7.20
  -3  -6  -5   64.29    7.10
  -3  -6  -5   62.29    7.10
   3  -6   5   50.49    6.20
  -3   6  -5   71.79    7.70
  -3   6  -5   52.49    6.20
   3   6   5   53.29    6.00
  -4  -6  -5   43.70    6.70
   4  -6   5   53.89    7.10
  -4   6  -5   46.90    6.70
   4   6   5   48.80    7.50
  -4   6  -5   46.30    5.90
   5  -6   5   30.10    6.20
  -5  -6  -5   25.90    6.00
  -5   6  -5   28.00    5.40
   5   6   5   33.00    6.80
  -8  -7   5   55.79    7.30
   8  -7  -5   52.69    8.40
  -8  -7   5   47.50    6.60
   8   7  -5   49.60    7.90
  -8   7   5   67.49    8.30
  -7  -7   5  340.97   13.50
   7  -7  -5  352.56   16.10
  -7  -7   5  366.76   14.70
  -7   7   5  365.36   14.70
   7   7  -5  353.96   16.10
  -6  -7   5   69.89    7.60
   6  -7  -5   76.69    8.30
  -6  -7   5   70.19    5.80
   6   7  -5   71.29    8.40
  -6   7   5   73.29    7.00
  -6   7   5   74.99    7.40
   5  -7  -5   42.60    4.70
   5  -7  -5   46.10    5.90
  -5  -7   5   51.59    4.90
  -5  -7   5   47.30    6.00
   5   7  -5   33.10    5.20
  -5   7   5   46.20    5.30
  -5   7   5   50.79    5.70
   4  -7  -5   47.00    5.40
  -4  -7   5   62.69    6.30
  -4  -7   5   56.99    3.80
   4  -7  -5   63.69    4.80
  -4   7   5   54.09    5.80
   4   7  -5   57.39    4.30
  -4   7   5   55.49    4.30
   4   7  -5   48.10    5.80
   3  -7  -5   19.20    3.50
  -3  -7   5   21.00    3.60
   3  -7  -5   11.90    2.60
   3   7  -5   18.10    3.60
  -3   7   5   21.70    2.90
   3   7  -5   19.40    3.30
  -3   7   5   21.10    3.80
   2  -7  -5   43.30    4.70
   2  -7  -5   38.20    4.30
  -2  -7   5   44.30    5.00
  -2   7   5   35.80    2.60
   2   7  -5   38.10    4.80
   2   7  -5   46.50    5.20
  -2   7   5   34.90    4.60
   1  -7  -5  548.25   14.20
   1  -7  -5  548.65   14.50
  -1  -7   5  554.54   14.60
   1   7  -5  583.64   14.20
   1   7  -5  571.64   15.80
  -1   7   5  563.04   15.90
   0  -7  -5  495.35   14.40
   0  -7  -5  522.45   14.50
   0  -7   5  538.65   14.70
   0   7  -5  548.15   16.10
   0   7  -5  500.45   13.10
   0   7   5  509.35   15.20
  -1  -7  -5    0.70    1.80
   1  -7   5   -1.30    1.60
  -1  -7  -5   -0.70    1.70
  -1   7  -5    3.80    1.90
  -1   7  -5    2.90    2.20
   1   7   5    1.30    2.00
  -2  -7  -5   27.40    4.70
   2  -7   5   27.30    4.20
   2  -7   5   28.70    4.60
  -2  -7  -5   23.50    4.60
  -2   7  -5   25.40    4.90
  -2   7  -5   26.70    3.80
   2   7   5   30.00    4.70
   3  -7   5   88.19    7.10
   3  -7   5   95.69    7.10
  -3  -7  -5   92.69    7.80
  -3  -7  -5   88.79    7.30
   3   7   5   91.49    6.70
  -3   7  -5   79.19    8.10
  -4  -7  -5   54.39    7.70
  -4   7  -5   39.40    5.80
   4   7   5   42.70    7.20
  -4   7  -5   46.60    6.60
  -5  -7  -5   57.79    8.20
   5   7   5   44.10    7.80
  -5   7  -5   62.39    7.50
  -5   7  -5   53.99    9.60
   8  -8  -5    3.30    3.10
  -8  -8   5    3.30    2.80
   8   8  -5   -0.70    3.00
  -8   8   5    2.50    3.00
  -7  -8   5    9.20    3.60
  -7  -8   5   11.60    4.10
   7  -8  -5    4.60    3.60
  -7   8   5    7.70    3.60
   7   8  -5   14.40    5.00
   6  -8  -5  577.94   19.30
  -6  -8   5  592.24   18.10
  -6  -8   5  573.14   16.40
  -6   8   5  584.94   16.50
  -6   8   5  608.44   17.70
   6   8  -5  572.24   19.70
  -5  -8   5  307.57   12.40
   5  -8  -5  336.97   13.40
   5  -8  -5  334.17   10.60
  -5  -8   5  319.47   13.40
   5   8  -5  303.57   13.50
  -5   8   5  327.27   11.50
  -5   8   5  345.87   12.50
   4  -8  -5   68.09    4.90
   4  -8  -5   57.59    6.20
  -4  -8   5   71.99    6.80
  -4   8   5   72.49    5.90
   4   8  -5   63.69    4.80
  -4   8   5   60.79    4.60
   4   8  -5   81.59    8.10
  -3  -8   5   54.69    5.80
   3  -8  -5   45.80    4.60
   3  -8  -5   48.60    5.50
   3   8  -5   48.80    5.00
   3   8  -5   43.50    5.30
  -3   8   5   49.10    5.70
  -3   8   5   50.99    3.60
   2  -8  -5  180.18    7.80
   2  -8  -5  180.08    8.30
  -2  -8   5  182.18    8.30
  -2   8   5  168.58    5.10
   2   8  -5  173.48    8.40
  -2   8   5  171.08    8.70
   2   8  -5  186.48    8.60
   1  -8  -5   21.70    3.50
  -1  -8   5   20.70    3.80
   1  -8  -5   20.80    3.60
   1   8  -5   20.00    4.00
   1   8  -5   19.60    3.40
  -1   8   5   16.20    3.60
   0  -8  -5    1.90    1.80
   0  -8  -5    0.60    2.20
   0  -8   5   -2.00    1.70
   0   8   5   -0.40    2.00
   0   8  -5    3.40    1.70
   0   8  -5    3.00    2.60
  -1  -8  -5  104.49    7.00
  -1  -8  -5  101.69    6.90
   1  -8   5  107.39    7.00
   1   8   5  107.29    7.20
  -1   8  -5  114.99    8.00
  -1   8  -5  115.99    5.90
  -2  -8  -5   66.59    7.00
  -2  -8  -5   65.29    7.00
   2  -8   5   68.99    7.10
   2   8   5   55.79    6.30
  -2   8  -5   71.99    7.80
   3  -8   5   23.80    4.70
  -3  -8  -5   24.50    4.70
  -3  -8  -5   21.60    5.00
   3   8   5   18.10    4.20
  -3   8  -5   25.70    5.10
  -4  -8  -5   33.20    6.30
   4   8   5   31.30    6.00
  -4   8  -5   34.40    5.70
  -4   8  -5   32.10    6.10
  -5  -8  -5   11.00    4.60
  -5   8  -5   14.90    4.10
  -5   8  -5    8.00    4.00
   5   8   5    1.80    3.40
  -8  -9   5    0.40    2.40
   8  -9  -5   10.90    4.50
  -8   9   5    1.60    3.10
   8   9  -5    1.10    3.40
   7  -9  -5    3.00    3.50
  -7  -9   5    7.70    3.30
  -7   9   5   14.20    4.10
   7   9  -5    3.50    3.60
  -6  -9   5  449.46   15.80
   6  -9  -5  475.25   17.60
  -6   9   5  471.25   15.40
   6   9  -5  503.85   18.70
  -6   9   5  470.35   15.70
   5  -9  -5  344.17   14.00
  -5  -9   5  355.96   13.30
  -5   9   5  341.47   12.70
  -5   9   5  347.17   12.00
   5   9  -5  349.96   14.70
   4  -9  -5   38.30    4.10
  -4  -9   5   37.30    5.10
   4  -9  -5   31.10    4.90
  -4   9   5   36.00    5.30
   4   9  -5   29.90    4.10
  -4   9   5   33.30    4.00
   4   9  -5   38.80    5.80
   3  -9  -5    1.30    1.50
   3  -9  -5   -0.50    2.00
  -3  -9   5    0.30    1.60
  -3   9   5    0.60    2.10
   3   9  -5   -1.00    1.80
   3   9  -5    3.90    2.00
  -3   9   5   -0.40    1.30
   2  -9  -5    4.50    2.00
   2  -9  -5    1.00    2.10
  -2  -9   5    1.20    1.90
   2   9  -5    0.80    1.80
  -2   9   5    4.20    2.60
   2   9  -5    2.20    2.20
   1  -9  -5  190.88    8.60
   1  -9  -5  196.48    9.10
  -1  -9   5  199.18    9.10
  -1   9   5  210.08    9.90
   1   9  -5  194.98    9.50
   1   9  -5  195.28    8.10
   0  -9   5   11.30    3.20
   0  -9  -5    9.20    2.80
   0  -9  -5   13.00    3.10
   0   9  -5   12.30    2.60
   0   9   5   10.10    3.10
   0   9  -5    8.30    3.40
  -1  -9  -5    0.10    2.00
  -1  -9  -5   -1.10    1.80
   1  -9   5   -0.30    1.80
  -1   9  -5   -0.80    1.30
  -1   9  -5   -1.60    2.10
   1   9   5   -0.10    1.90
  -2  -9  -5   17.60    4.30
  -2  -9  -5   18.60    4.30
   2  -9   5   16.20    4.00
  -2   9  -5    9.00    3.80
   2   9   5   12.90    3.90
   3  -9   5   40.00    6.10
  -3  -9  -5   36.30    5.80
  -3  -9  -5   39.90    6.40
   3   9   5   35.70    5.40
  -3   9  -5   37.60    6.00
   3   9   5   36.10    6.00
   4  -9   5    9.20    3.90
  -4  -9  -5   16.30    4.50
   4   9   5    7.80    4.30
  -4   9  -5    4.40    3.70
  -4   9  -5   20.80    5.00
  -5  -9  -5    0.20    3.00
  -5   9  -5    6.60    4.00
  -5   9  -5    5.00    3.30
   5   9   5    5.10    3.60
   8 -10  -5   45.50    8.00
  -8 -10   5   56.49    7.80
  -8  10   5   37.60    6.60
   8  10  -5   42.20    8.10
  -7 -10   5   92.59    9.50
   7 -10  -5   89.19    9.90
   7  10  -5  105.39   11.70
  -7  10   5   94.39    9.20
   6 -10  -5   35.90    6.20
  -6 -10   5   47.40    6.30
  -6  10   5   29.20    4.90
  -6  10   5   38.80    5.90
   6  10  -5   40.00    6.60
   5 -10  -5  222.18   11.60
  -5 -10   5  243.38   11.00
  -5  10   5  221.28   10.60
  -5  10   5  223.28    9.60
   5  10  -5  238.38   12.30
   4 -10  -5  216.78   10.50
   4 -10  -5  210.98    8.30
  -4 -10   5  216.08   10.10
  -4  10   5  196.88    8.10
   4  10  -5  210.38   10.90
  -4  10   5  201.78   10.00
   4  10  -5  211.08    8.60
   3 -10  -5   63.49    6.50
   3 -10  -5   68.49    5.00
  -3 -10   5   60.09    6.10
  -3  10   5   55.69    6.00
   3  10  -5   66.19    5.50
   3  10  -5   63.99    6.70
   2 -10  -5    0.30    2.10
  -2 -10   5    1.80    1.90
   2 -10  -5    4.20    2.00
  -2  10   5    1.00    1.90
   2  10  -5    1.50    2.00
   2  10  -5    3.10    2.40
  -1 -10   5    1.70    2.10
   1 -10  -5    0.60    2.00
   1 -10  -5   -0.20    1.70
   1  10  -5    1.10    1.90
  -1  10   5    2.10    2.50
   1  10  -5   -0.80    2.10
   0 -10  -5    2.60    2.40
   0 -10   5    2.40    2.20
   0 -10  -5    2.70    2.20
   0  10  -5   -1.50    2.20
   0  10  -5    3.50    1.90
   0  10   5    2.40    2.50
  -1 -10  -5   51.39    6.10
  -1 -10  -5   61.49    6.90
   1 -10   5   50.69    6.00
   1  10   5   61.79    6.90
  -1  10  -5   48.20    6.50
  -2 -10  -5   95.69    7.60
   2 -10   5  102.29    7.70
  -2 -10  -5   97.89    7.70
  -2  10  -5   84.69    8.40
   2  10   5  104.19    7.60
   3 -10   5   16.20    4.40
  -3 -10  -5   11.60    4.30
   3  10   5    5.80    3.40
  -3  10  -5    3.70    3.30
   3  10   5    9.10    3.30
  -4 -10  -5    4.10    3.30
   4 -10   5    4.70    3.50
   4  10   5    1.60    3.60
  -4  10  -5    6.60    3.80
   5 -10   5    8.30    4.00
  -5 -10  -5   10.10    4.50
  -5  10  -5   10.00    3.70
  -5  10  -5    6.10    4.20
   5  10   5    9.30    4.50
   8 -11  -5    4.10    3.30
  -8 -11   5    5.30    3.50
   8  11  -5    7.60    4.80
  -8  11   5    1.30    3.20
   7 -11  -5   -2.30    2.40
  -7 -11   5    2.30    3.10
   7  11  -5   -2.00    2.50
  -7  11   5    1.40    3.00
  -6 -11   5    7.10    3.10
   6 -11  -5    2.00    2.70
  -6  11   5    0.30    2.30
   6  11  -5   -0.50    2.60
  -6  11   5    3.80    2.70
   5 -11  -5  159.18   10.30
  -5 -11   5  149.88    9.20
  -5  11   5  144.39    8.00
   5  11  -5  149.19   10.00
  -5  11   5  161.68    9.50
   4 -11  -5   24.00    4.60
  -4 -11   5   20.70    3.90
  -4  11   5   23.10    3.60
   4  11  -5   25.80    4.80
   4  11  -5   36.10    4.60
  -4  11   5   30.10    5.00
   3 -11  -5   -1.40    2.00
   3 -11  -5   -0.30    1.50
  -3 -11   5   -2.30    1.40
   3  11  -5   -2.10    1.50
  -3  11   5    0.20    2.30
   3  11  -5   -0.10    2.00
   2 -11  -5   28.40    4.10
   2 -11  -5   23.30    4.60
  -2 -11   5   24.60    4.30
   2  11  -5   24.00    4.30
   2  11  -5   34.40    4.90
  -2  11   5   33.60    5.50
   1 -11  -5   10.70    3.00
  -1 -11   5   19.90    4.00
   1 -11  -5    9.30    3.00
   1  11  -5    8.70    3.40
  -1  11   5    9.30    3.30
   1  11  -5   14.30    3.00
   0 -11   5   -0.20    1.90
   0 -11  -5    3.10    2.30
   0 -11  -5   -0.60    2.10
   0  11  -5    0.00    1.40
   0  11   5    0.90    2.50
   0  11  -5   -2.00    2.20
  -1 -11  -5  206.58   10.20
  -1 -11  -5  197.78   10.50
   1 -11   5  218.58   10.60
   1  11   5  222.08   10.80
  -1  11  -5  190.58   10.90
  -2 -11  -5  139.49    9.10
  -2 -11  -5  134.29    9.40
   2 -11   5  162.78    9.60
   2  11   5  133.39    8.60
  -2  11  -5  122.19    9.20
  -3 -11  -5    0.50    3.20
   3 -11   5    0.60    2.50
   3  11   5   -4.10    2.30
   3  11   5   -0.60    2.30
  -3  11  -5    3.20    3.10
   4 -11   5   34.90    6.60
  -4 -11  -5   23.50    5.60
  -4  11  -5   29.20    6.00
   4  11   5   35.10    7.20
  -7 -12   5   27.30    5.80
   7 -12  -5   23.80    5.70
   7  12  -5   31.40    6.90
  -7  12   5   16.90    4.30
  -6 -12   5   13.10    4.30
   6 -12  -5   12.10    4.60
  -6  12   5   20.40    4.70
  -6  12   5    9.60    3.40
   6  12  -5   24.30    5.60
   5 -12  -5   82.29    8.70
  -5 -12   5   98.19    7.70
  -5  12   5   92.29    7.60
   5  12  -5  105.39   10.00
  -5  12   5  104.79    6.90
   4 -12  -5   16.50    4.40
  -4 -12   5   18.20    4.10
   4  12  -5   17.90    4.20
  -4  12   5   14.70    4.10
   4  12  -5   13.00    3.30
   3 -12  -5   52.79    5.50
  -3 -12   5   44.50    5.80
   3 -12  -5   35.10    5.10
   3  12  -5   36.90    5.50
  -3  12   5   35.70    5.50
   3  12  -5   38.00    5.20
  -2 -12   5  159.48    8.70
   2 -12  -5  155.38    9.20
   2 -12  -5  162.88    7.90
  -2  12   5  153.38    9.20
   2  12  -5  156.88    8.50
   2  12  -5  155.98    9.00
   1 -12  -5  143.59    7.90
   1 -12  -5  173.48    9.50
  -1 -12   5  145.69    8.40
   1  12  -5  167.48    7.80
   1  12  -5  137.59    8.80
  -1  12   5  139.59    9.00
   0 -12  -5   34.40    5.20
   0 -12   5   26.20    4.60
   0 -12  -5   32.20    5.30
   0  12  -5   27.30    5.10
   0  12   5   27.10    5.00
   1 -12   5   11.00    3.80
  -1 -12  -5   14.90    4.00
  -1 -12  -5   18.80    4.10
   1  12   5   12.80    3.90
  -1  12  -5    5.80    3.30
  -2 -12  -5   34.80    6.00
   2 -12   5   32.50    5.50
  -2 -12  -5   24.90    5.20
  -2  12  -5   26.10    5.50
   2  12   5   45.40    6.40
   3 -12   5    3.20    3.50
  -3 -12  -5    4.80    3.60
  -3  12  -5    1.10    3.00
   3  12   5    0.30    4.00
   3  12   5    5.10    3.30
   4 -12   5   75.69    9.10
  -4 -12  -5   82.39    9.90
  -4  12  -5   63.39    8.50
   4  12   5   74.39    9.60
  -7 -13   5   -1.60    2.50
   7 -13  -5   -1.20    2.70
  -7  13   5    1.50    2.90
   7  13  -5   -1.30    3.00
  -6 -13   5   19.90    4.60
   6 -13  -5   10.00    4.10
  -6  13   5   30.10    5.80
  -6  13   5   29.00    4.90
   6  13  -5   19.10    5.50
   5 -13  -5  272.07   13.60
  -5 -13   5  270.27   12.50
   5  13  -5  278.47   13.80
  -5  13   5  292.27   13.50
   4 -13  -5  453.95   16.90
  -4 -13   5  427.06   15.30
  -4  13   5  427.86   16.00
   4  13  -5  435.66   16.30
   4  13  -5  407.76   13.90
  -3 -13   5    6.90    3.00
   3 -13  -5   13.50    3.80
   3 -13  -5   11.10    3.70
   3  13  -5   12.50    3.80
  -3  13   5   12.00    4.00
   3  13  -5   15.10    4.00
   2 -13  -5   26.50    4.80
  -2 -13   5   27.80    4.70
   2 -13  -5   33.80    4.50
   2  13  -5   43.40    5.50
  -2  13   5   22.70    4.70
   2  13  -5   32.80    5.20
  -1 -13   5  215.88   10.40
   1 -13  -5  222.88   11.00
   1 -13  -5  197.98    9.40
   1  13  -5  194.58   10.60
   1  13  -5  210.38    9.10
  -1  13   5  207.88   11.00
   0 -13  -5  108.69    8.50
   0 -13   5  111.89    8.00
   0 -13  -5  124.49    8.00
   0  13  -5  110.59    8.70
   0  13   5  130.69    8.90
  -1 -13  -5   15.50    4.00
   1 -13   5   24.60    4.80
  -1 -13  -5   12.20    3.80
  -1  13  -5   18.10    4.60
   1  13   5   18.20    4.70
   2 -13   5   15.90    4.70
  -2 -13  -5    9.00    3.90
   2  13   5    9.00    3.70
  -2  13  -5    4.60    3.40
   2  13   5   22.10    5.30
  -3 -13  -5    0.10    3.30
   3 -13   5    2.40    3.20
  -3  13  -5    2.90    3.30
   3  13   5    0.10    2.90
   4 -13   5   33.90    7.10
  -4 -13  -5   33.40    6.80
  -4  13  -5   27.10    6.10
   4  13   5   32.10    6.70
  -7 -14   5    5.70    3.80
   7 -14  -5    2.40    3.60
  -7  14   5    0.70    3.00
   7  14  -5    3.00    3.80
  -6 -14   5   14.30    4.50
   6 -14  -5   11.70    4.40
   6  14  -5   28.10    6.30
  -6  14   5   12.20    4.10
   5 -14  -5  664.53   21.80
  -5 -14   5  634.24   19.80
  -5  14   5  634.84   20.90
   5  14  -5  697.53   22.40
  -4 -14   5   94.69    7.50
   4 -14  -5   91.69    9.70
  -4  14   5  108.29    8.70
   4  14  -5  100.19    8.20
   3 -14  -5   72.39    7.90
  -3 -14   5   73.09    7.30
   3  14  -5   93.99    8.90
  -3  14   5   69.69    8.00
   3  14  -5   73.69    7.50
   2 -14  -5    5.60    2.50
  -2 -14   5    6.40    2.80
   2 -14  -5    6.90    3.30
   2  14  -5    3.10    2.60
   2  14  -5    6.00    3.20
  -2  14   5   -1.80    2.60
   1 -14  -5    2.30    2.80
   1 -14  -5    1.90    2.30
  -1 -14   5   -2.20    1.90
   1  14  -5    9.10    3.50
  -1  14   5    2.00    2.70
   0 -14  -5   68.09    7.00
   0 -14   5   62.09    7.60
   0 -14  -5   65.59    8.20
   0  14  -5   69.59    8.10
   0  14   5   58.29    7.60
  -1 -14  -5    0.20    2.70
  -1 -14  -5    5.20    3.00
   1 -14   5   -0.50    2.40
  -1  14  -5    3.30    2.80
   1  14   5    4.70    3.20
  -2 -14  -5    1.40    3.00
   2 -14   5    1.20    2.10
   2  14   5    2.80    3.20
   2  14   5   -0.10    2.70
  -2  14  -5    1.80    3.20
  -3 -14  -5  106.09   10.90
   3 -14   5  101.09   10.90
   3  14   5  101.69   11.50
  -3  14  -5   98.59   10.20
  -4 -14  -5    5.80    3.70
   4 -14   5   -0.90    3.50
  -4  14  -5    3.80    3.50
   4  14   5    3.20    3.10
   6 -15  -5   33.00    6.20
  -6 -15   5   40.70    6.80
   6  15  -5   43.20    7.70
  -6  15   5   37.10    6.70
   5 -15  -5  115.19    9.60
  -5 -15   5  129.89    9.20
   5  15  -5  126.39   11.90
  -5  15   5  122.49    9.70
  -4 -15   5  223.08   11.30
   4 -15  -5  180.88   11.50
   4  15  -5  222.88   12.00
  -4  15   5  230.48   12.50
  -3 -15   5    7.60    3.00
   3 -15  -5   18.30    4.70
   3  15  -5   13.50    3.80
  -3  15   5    9.50    3.70
   3  15  -5   13.50    3.80
   2 -15  -5   18.80    4.20
  -2 -15   5   16.80    4.20
   2 -15  -5   18.50    4.60
   2  15  -5   15.80    4.10
   2  15  -5   10.50    3.60
  -2  15   5   13.40    4.60
   1 -15  -5   38.30    5.20
   1 -15  -5   56.79    7.70
  -1 -15   5   38.60    6.20
  -1  15   5   41.20    6.40
   1  15  -5   57.69    7.10
   0 -15  -5   69.09    7.50
   0 -15  -5   55.79    7.70
   0 -15   5   44.20    6.70
   0  15  -5   54.89    7.40
   0  15   5   61.29    8.00
  -1 -15  -5    2.70    3.20
   1 -15   5    2.70    3.00
   1  15   5    3.90    3.20
   1  15   5   -1.20    2.60
  -1  15  -5    3.70    3.40
   2 -15   5   10.20    4.00
  -2 -15  -5    7.50    3.60
   2  15   5   12.20    4.40
   2  15   5   11.70    4.60
  -2  15  -5   11.90    4.10
  -3 -15  -5   93.09   10.50
   3 -15   5   73.09    9.00
  -3  15  -5   75.49    9.30
   3  15   5   81.49   10.30
   6 -16  -5   59.09    8.50
  -6 -16   5   74.99    8.50
   6  16  -5   92.69   10.50
  -6  16   5   68.69    9.10
   5 -16  -5   24.10    5.80
  -5 -16   5   42.10    6.70
  -5  16   5   33.60    6.30
   5  16  -5   29.00    5.90
   4 -16  -5   81.39    9.20
  -4 -16   5   67.19    7.50
  -4  16   5   81.79    9.50
   4  16  -5   73.69    8.70
   3 -16  -5   37.70    6.50
  -3 -16   5   46.20    6.60
   3  16  -5   36.60    5.80
   3  16  -5   44.50    6.60
  -3  16   5   37.60    6.50
   2 -16  -5   48.10    7.00
  -2 -16   5   43.70    6.10
  -2  16   5   75.29    9.10
   2  16  -5   58.49    7.30
   1 -16  -5   53.89    7.50
  -1 -16   5   61.29    7.50
   1 -16  -5   56.99    6.60
   1  16  -5   57.99    7.60
  -1  16   5   56.89    7.90
   0 -16  -5    1.10    2.80
   0 -16   5    2.60    2.50
   0 -16  -5    0.20    2.60
   0  16  -5   -1.10    2.80
   0  16   5    1.10    3.00
   1 -16   5    9.10    3.40
  -1 -16  -5   14.40    4.70
   1  16   5   13.50    4.30
   1  16   5   10.60    4.30
  -1  16  -5   20.50    5.30
   2 -16   5   37.00    6.60
  -2 -16  -5   27.00    5.90
   2  16   5   28.10    5.80
  -2  16  -5   32.40    6.60
   2  16   5   36.90    6.90
  -3 -16  -5   48.40    8.10
   3 -16   5   58.09    8.80
   3  16   5   44.70    7.90
  -3  16  -5   42.70    7.60
   6 -17  -5    3.00    3.60
  -6 -17   5    1.40    3.10
   6  17  -5    3.80    3.50
  -6  17   5   -1.60    3.20
   5 -17  -5   53.09    8.20
  -5 -17   5   69.09    8.50
  -5  17   5   76.59    9.80
   5  17  -5   89.09   10.50
  -4 -17   5  186.38   10.80
   4 -17  -5  167.98   11.20
  -4  17   5  187.08   12.00
   4  17  -5  177.68   11.40
  -3 -17   5   58.79    7.40
   3 -17  -5   44.00    7.20
   3  17  -5   56.99    7.10
   3  17  -5   50.89    7.00
  -3  17   5   49.99    7.40
   2 -17  -5   18.20    4.70
  -2 -17   5   13.70    4.00
   2  17  -5   20.90    5.00
  -2  17   5   12.30    4.50
   1 -17  -5   25.40    6.90
   1 -17  -5   21.00    5.00
  -1 -17   5   24.40    5.10
  -1  17   5   32.50    6.30
   1  17  -5   27.00    5.70
   0 -17   5   21.30    4.70
   0 -17  -5   23.10    5.50
   0  17   5   21.80    6.00
   0  17   5   17.10    4.60
   0  17  -5   17.80    5.10
   1 -17   5   29.10    5.40
  -1 -17  -5   46.70    7.80
  -1  17  -5   34.40    6.50
   1  17   5   45.60    7.60
   1  17   5   29.60    6.10
  -2 -17  -5    6.40    3.90
   2 -17   5    0.40    2.50
   2  17   5    0.20    3.20
  -2  17  -5   10.80    4.00
   2  17   5    2.60    3.60
   5 -18  -5   24.80    5.90
  -5 -18   5   34.30    6.30
  -5  18   5   48.60    8.20
   5  18  -5   31.30    6.70
   4 -18  -5    5.80    3.80
  -4 -18   5    8.70    3.50
  -4  18   5    2.50    3.40
   4  18  -5   -3.00    3.00
  -3 -18   5   -2.10    2.50
   3 -18  -5    2.80    3.10
  -3  18   5   -0.50    2.70
   3  18  -5   -0.50    2.60
  -2 -18   5    9.10    3.50
   2 -18  -5    6.80    3.40
   2  18  -5    3.30    3.50
  -2  18   5    7.30    4.30
  -1 -18   5    5.60    3.30
   1 -18  -5   14.30    4.90
   1  18  -5   17.30    5.20
  -1  18   5    5.10    3.70
   0 -18   5    1.00    2.50
   0 -18  -5    0.30    3.20
   0  18   5    0.70    3.00
   0  18   5    1.80    3.20
   0  18  -5    0.50    3.30
   1 -18   5    9.90    4.20
  -1 -18  -5    6.40    4.30
  -1  18  -5    9.00    4.40
   1  18   5    8.40    4.30
   1  18   5   10.10    4.40
   2 -18   5  177.78   11.50
  -2 -18  -5  193.08   12.90
  -2  18  -5  179.08   12.40
   2  18   5  202.88   12.30
   2  18   5  187.78   12.90
   4 -19  -5   20.40    5.20
  -4 -19   5   12.80    4.20
   4  19  -5   14.60    4.90
  -4  19   5   11.70    4.60
  -3 -19   5   23.50    5.70
   3 -19  -5   32.10    6.30
  -3  19   5   30.90    6.40
   3  19  -5   31.90    6.00
   2 -19  -5    9.70    4.00
  -2 -19   5    5.00    3.80
  -2  19   5    4.90    4.30
   2  19  -5    0.60    3.50
  -1 -19   5   -3.60    2.30
   1 -19  -5    2.50    3.20
  -1  19   5   -1.30    3.10
   1  19  -5    3.90    3.80
   0 -19   5    5.40    3.00
   0 -19  -5    5.70    3.60
   0  19   5    6.30    4.20
   0  19  -5    4.50    4.40
  -1 -19  -5   19.10    5.50
   1 -19   5   16.90    4.50
  -1  19  -5   18.40    5.70
   1  19   5   18.90    5.60
   1  19   5    8.10    4.10
   3 -20  -5   18.70    5.30
  -3 -20   5   17.10    4.80
   3  20  -5   15.90    5.10
  -3  20   5   19.60    5.10
   2 -20  -5   32.50    6.60
  -2 -20   5   25.80    5.60
   2  20  -5   38.00    7.40
  -2  20   5   34.50    7.60
   1 -20  -5   58.79    9.00
  -1 -20   5   60.99    8.20
  -1  20   5   56.89    9.20
   1  20  -5   54.89    8.20
   0 -20  -5   10.40    4.60
   0 -20   5   12.70    4.40
   0  20   5    9.50    4.80
   0  20  -5   19.60    5.80
   9   0  -6    6.80    4.20
   9   0  -6    7.40    4.00
  -9   0   6    7.80    4.50
   8   0  -6   28.20    5.50
  -8   0   6   42.10    7.30
   8   0  -6   37.70    6.50
  -7   0   6   -1.30    1.90
   7   0  -6   -1.50    2.00
   7   0  -6   -1.70    2.20
  -6   0   6  503.55   16.20
   6   0  -6  528.25   16.30
   6   0  -6  510.45   16.70
   5   0  -6   16.50    3.70
  -5   0   6   11.10    2.70
  -5   0   6   17.40    3.70
   5   0  -6   13.20    3.00
  -4   0   6   37.10    4.70
   4   0  -6   30.60    3.50
   4   0  -6   43.40    5.50
  -4   0   6   30.00    4.20
   3   0  -6   28.40    4.20
  -3   0   6   30.10    4.20
   3   0  -6   30.30    2.50
  -3   0   6   31.80    4.00
   2   0  -6    5.20    2.30
  -2   0   6    1.60    1.90
  -2   0   6    8.70    2.10
   2   0  -6    4.70    1.30
   1   0  -6   18.10    2.20
  -1   0   6   24.30    3.20
   1   0  -6   25.10    3.80
  -1   0   6   18.40    3.70
   0   0   6    9.40    2.10
   0   0   6   10.00    3.00
   0   0  -6    9.30    2.80
   0   0  -6    8.10    2.10
   1   0   6  175.18    9.40
  -1   0  -6  181.18    8.90
  -1   0  -6  170.48    9.30
   1   0   6  178.78    7.20
  -1   0  -6  178.28    7.50
   2   0   6   64.99    7.10
  -2   0  -6   56.19    6.30
  -2   0  -6   68.19    7.30
  -2   0  -6   64.59    6.40
   2   0   6   63.39    4.90
  -3   0  -6   19.50    4.40
   3   0   6    8.20    3.40
  -3   0  -6    8.60    3.50
   3   0   6   15.50    3.30
   4   0   6  365.16   14.70
  -4   0  -6  369.86   14.80
  -4   0  -6  391.06   15.70
   5   0   6  998.90   28.70
  -5   0  -6 1093.39   29.20
  -9  -1   6   37.40    7.40
   9  -1  -6   35.70    7.50
  -9   1   6   38.80    7.20
   9   1  -6   23.60    5.80
   9   1  -6   32.20    6.50
   8  -1  -6   30.80    5.50
  -8  -1   6   44.00    7.10
   8  -1  -6   46.70    7.50
  -8   1   6   43.20    7.10
   8   1  -6   34.50    6.30
   8   1  -6   37.30    6.40
   7  -1  -6   66.79    7.60
   7  -1  -6   71.09    7.90
  -7  -1   6   99.19    9.10
  -7   1   6   99.99    9.70
   7   1  -6   85.09    8.90
   7   1  -6   73.59    8.10
   6  -1  -6    6.40    2.80
   6  -1  -6    5.30    2.80
  -6  -1   6    7.40    3.10
  -6   1   6    2.70    2.30
   6   1  -6    5.00    2.60
   6   1  -6    3.70    2.70
   5  -1  -6  333.87   11.30
   5  -1  -6  323.47   12.30
  -5  -1   6  331.57   10.30
  -5  -1   6  345.37   12.20
   5   1  -6  352.66   11.10
   5   1  -6  341.37   13.20
  -5   1   6  357.56   11.00
  -5   1   6  350.26   12.20
  -4  -1   6  107.99    6.40
   4  -1  -6  132.99    6.00
   4  -1  -6  126.19    7.30
  -4  -1   6  120.09    6.50
   4   1  -6  118.79    7.20
  -4   1   6  131.79    6.90
  -4   1   6  122.19    6.60
   4   1  -6  129.39    5.50
   3  -1  -6   56.79    5.80
  -3  -1   6   50.99    5.40
  -3  -1   6   63.59    4.70
   3  -1  -6   51.39    3.40
  -3   1   6   58.69    5.80
  -3   1   6   48.50    4.70
   3   1  -6   45.30    3.00
   3   1  -6   42.90    4.80
  -2  -1   6    0.90    1.40
   2  -1  -6    1.60    1.10
   2  -1  -6    0.50    1.60
  -2  -1   6   -1.10    1.80
  -2   1   6    0.90    2.00
  -2   1   6    1.40    1.40
   2   1  -6   -0.10    1.50
   1  -1  -6  145.89    7.40
   1  -1  -6  143.99    5.40
  -1  -1   6  140.29    6.20
   1   1  -6  142.09    7.90
   1   1  -6  151.98    7.60
  -1   1   6  140.69    5.70
  -1   1   6  133.19    7.60
   0  -1  -6   12.00    2.50
   0  -1  -6   15.50    3.40
   0  -1   6   12.50    2.60
   0   1  -6   12.50    3.60
   0   1  -6   14.50    3.10
   0   1   6   18.30    2.60
   0   1   6   10.80    3.40
   0   1  -6   11.70    2.20
  -1  -1  -6  103.69    6.20
   1  -1   6  112.79    6.10
  -1  -1  -6  108.29    7.10
   1   1   6  112.89    7.60
   1   1   6  117.09    5.70
  -1   1  -6  112.99    7.00
  -1   1  -6  120.89    8.00
  -1   1  -6  107.59    5.90
  -2  -1  -6   17.50    4.10
  -2  -1  -6   21.20    4.00
   2  -1   6   15.20    3.10
   2   1   6   19.10    4.20
   2   1   6   19.90    3.40
  -2   1  -6   20.20    4.40
  -2   1  -6   16.00    3.70
  -2   1  -6   15.10    3.40
  -3  -1  -6    0.30    2.50
   3  -1   6    0.40    1.70
  -3  -1  -6    3.60    2.80
   3   1   6   -0.90    2.30
  -3   1  -6   -5.20    2.00
  -3   1  -6    0.50    2.20
  -3   1  -6   -1.30    2.20
  -4  -1  -6    4.70    3.20
   4  -1   6    2.70    3.00
  -4  -1  -6    5.20    3.70
   4   1   6    4.00    3.40
  -4   1  -6    3.70    2.80
  -4   1  -6    3.10    3.10
  -4   1  -6    2.10    3.00
  -5  -1  -6   70.39    9.00
   5   1   6   72.99    9.40
   9  -2  -6    0.30    3.00
  -9  -2   6    1.00    2.50
   9   2  -6    4.20    3.30
  -9   2   6   -3.00    2.50
   9   2  -6   -0.20    2.80
   8  -2  -6   52.69    8.20
   8  -2  -6   54.09    7.20
  -8  -2   6   58.89    8.20
  -8   2   6   52.89    7.30
   8   2  -6   61.99    8.00
   8   2  -6   52.69    7.80
  -7  -2   6  127.79    8.80
   7  -2  -6  113.19    8.20
   7  -2  -6  123.49    8.90
   7   2  -6  134.99    9.10
   7   2  -6  118.89    9.00
  -7   2   6  117.99    8.50
   6  -2  -6   10.90    3.40
   6  -2  -6   15.00    3.50
  -6  -2   6   13.60    3.60
  -6   2   6   13.80    3.60
   6   2  -6   12.70    3.30
   6   2  -6   13.20    4.10
  -5  -2   6   65.89    6.60
   5  -2  -6   68.09    6.60
  -5  -2   6   61.49    4.60
   5  -2  -6   62.29    5.20
  -5   2   6   68.49    6.50
   5   2  -6   75.89    7.50
  -5   2   6   66.69    5.30
   5   2  -6   62.29    4.90
   4  -2  -6  105.69    5.70
  -4  -2   6   92.99    6.10
   4  -2  -6  102.39    6.50
  -4  -2   6   94.29    5.80
  -4   2   6   94.89    5.90
  -4   2   6   88.49    6.00
   4   2  -6  111.19    7.20
  -3  -2   6   28.70    3.90
  -3  -2   6   24.20    3.80
   3  -2  -6   28.40    4.10
   3  -2  -6   31.10    3.30
  -3   2   6   28.40    4.10
  -3   2   6   23.50    3.20
   3   2  -6   25.50    3.90
   2  -2  -6  452.95   13.50
   2  -2  -6  442.36   10.10
  -2  -2   6  439.76   12.00
   2   2  -6  447.86   13.30
   2   2  -6  456.75   14.00
  -2   2   6  449.56   11.00
  -2   2   6  466.15   13.80
   1  -2  -6   83.19    4.50
   1  -2  -6   77.19    5.70
  -1  -2   6   81.59    4.90
   1   2  -6   64.39    6.20
  -1   2   6   70.09    3.90
   1   2  -6   84.39    6.60
  -1   2   6   78.59    6.10
   0  -2  -6   40.10    4.90
   0  -2   6   39.20    4.30
   0  -2  -6   38.10    4.00
   0   2   6   41.80    3.10
   0   2   6   34.70    5.00
   0   2  -6   40.20    4.90
   0   2  -6   36.40    5.30
  -1  -2  -6  142.89    7.30
  -1  -2  -6  155.28    8.40
   1   2   6  143.99    6.00
   1   2   6  156.18    8.80
  -2  -2  -6  219.28   10.60
  -2  -2  -6  229.18   10.30
   2  -2   6  250.27    9.90
  -2   2  -6  234.58   10.50
  -2   2  -6  242.58   11.90
   2   2   6  230.68   10.90
  -2   2  -6  241.88   13.50
  -3  -2  -6   86.89    8.40
   3  -2   6   72.79    7.00
  -3  -2  -6   87.29    7.10
  -3   2  -6   74.79   11.00
   3   2   6   95.19    7.40
  -3   2  -6   76.49    8.30
  -3   2  -6   77.79    7.50
   4  -2   6    4.20    3.00
  -4  -2  -6   12.20    3.90
  -4  -2  -6   11.00    4.10
   4   2   6    4.10    3.80
  -4   2  -6    4.10    2.90
  -4   2  -6    2.40    2.50
  -4   2  -6    3.90    3.30
  -5  -2  -6   57.69    8.10
   5   2   6   54.29    8.00
  -9  -3   6    3.10    2.90
   9  -3  -6    3.70    3.30
  -9   3   6    0.10    3.10
   9   3  -6    6.50    3.90
   8  -3  -6    3.80    3.10
  -8  -3   6    4.50    3.10
   8  -3  -6   -0.80    2.30
   8   3  -6    5.30    3.50
  -8   3   6    4.20    3.20
   7  -3  -6  406.76   16.20
  -7  -3   6  422.26   16.10
   7  -3  -6  425.76   15.50
  -7   3   6  422.66   15.80
   7   3  -6  431.96   19.50
   7   3  -6  435.46   16.90
  -6  -3   6   11.40    3.50
   6  -3  -6   16.10    3.80
   6  -3  -6   17.30    4.10
   6   3  -6   11.10    3.60
  -6   3   6   14.70    3.70
  -5  -3   6    1.70    1.60
  -5  -3   6    0.30    1.70
   5  -3  -6    2.30    2.00
   5  -3  -6   -0.60    1.50
   5   3  -6    2.70    2.50
  -5   3   6    1.50    1.90
  -5   3   6    2.30    1.80
  -4  -3   6   81.09    5.40
   4  -3  -6   80.59    5.30
  -4  -3   6   76.09    5.70
   4  -3  -6   74.49    5.80
  -4   3   6   73.39    5.70
   4   3  -6   90.99    6.70
  -4   3   6   82.29    5.40
   3  -3  -6  140.39    6.00
   3  -3  -6  127.99    7.00
  -3  -3   6  150.58    7.30
  -3   3   6  129.09    6.00
   3   3  -6  154.48    7.70
   3   3  -6  131.09    7.40
  -3   3   6  121.29    7.20
  -2  -3   6  633.34   15.00
   2  -3  -6  606.84   15.80
   2  -3  -6  613.14   13.00
   2   3  -6  609.94   15.80
  -2   3   6  629.14   16.70
   2   3  -6  628.04   16.70
  -2   3   6  597.44   12.90
  -1  -3   6   66.19    4.70
   1  -3  -6   72.99    4.60
   1  -3  -6   72.99    5.60
   1   3  -6   66.59    6.40
   1   3  -6   77.29    5.60
  -1   3   6   72.29    3.90
  -1   3   6   68.19    5.70
   0  -3  -6   15.40    2.80
   0  -3   6   13.70    2.80
   0  -3  -6   20.20    3.90
   0   3  -6   14.00    3.50
   0   3  -6   16.20    3.40
   0   3   6   13.60    3.20
   0   3   6   15.90    2.20
  -1  -3  -6  133.99    7.50
  -1  -3  -6  148.09    8.30
   1  -3   6  142.89    7.20
  -1   3  -6  137.29    8.60
  -1   3  -6  142.49    7.60
   1   3   6  138.59    8.40
  -2  -3  -6   -1.00    1.90
  -2  -3  -6   -2.40    2.20
   2  -3   6   -0.80    1.60
  -2   3  -6    1.80    2.00
  -2   3  -6    2.70    2.90
   2   3   6   -0.80    2.30
  -3  -3  -6   23.20    4.70
   3  -3   6   18.50    4.10
  -3  -3  -6   29.40    5.20
  -3   3  -6   28.40    4.50
   3   3   6   26.10    4.80
  -3   3  -6   22.70    5.10
  -4  -3  -6  185.38   11.00
  -4  -3  -6  192.28   11.70
   4  -3   6  186.78   10.50
  -4   3  -6  182.68   11.20
  -5  -3  -6   16.20    5.10
   5   3   6   14.00    4.80
  -5   3  -6    8.70    5.70
   9  -4  -6   75.49   10.40
  -9  -4   6   82.89    9.90
   9   4  -6   45.90    7.70
  -9   4   6   57.39    8.40
   8  -4  -6   20.00    5.20
  -8  -4   6   28.80    5.60
  -8   4   6   20.30    5.10
   8   4  -6   26.10    5.80
  -7  -4   6    0.40    2.20
   7  -4  -6    3.50    2.90
   7  -4  -6    2.40    2.40
  -7   4   6   -1.00    2.00
   7   4  -6    2.10    3.20
   6  -4  -6   12.60    3.70
   6  -4  -6   11.00    3.30
  -6  -4   6   12.50    3.50
   6   4  -6    8.70    3.50
  -6   4   6   12.90    3.50
  -5  -4   6   12.10    2.70
   5  -4  -6    8.50    2.70
   5  -4  -6    7.80    2.80
  -5  -4   6    8.10    2.80
  -5   4   6    6.10    2.40
  -5   4   6    8.70    2.80
   5   4  -6    9.40    3.50
  -4  -4   6   22.50    3.60
   4  -4  -6   15.60    3.10
  -4  -4   6   19.70    3.60
   4  -4  -6   18.00    3.50
  -4   4   6   21.20    3.40
  -4   4   6   28.50    4.40
   4   4  -6   18.90    4.10
   3  -4  -6   25.30    3.80
  -3  -4   6   28.20    4.20
   3  -4  -6   22.20    3.20
  -3   4   6   19.60    3.70
   3   4  -6   22.60    3.90
  -3   4   6   18.60    2.90
   3   4  -6   19.80    3.50
  -2  -4   6   11.20    2.70
   2  -4  -6   12.50    3.00
   2  -4  -6    9.30    2.30
   2   4  -6   11.20    3.00
  -2   4   6   11.80    3.20
   2   4  -6   10.80    2.90
  -2   4   6   13.70    2.30
   1  -4  -6  462.25   13.80
  -1  -4   6  466.35   12.90
   1  -4  -6  464.65   12.10
  -1   4   6  461.85   14.50
  -1   4   6  472.75   10.10
   1   4  -6  492.95   13.70
   1   4  -6  472.65   15.00
   0  -4  -6    4.60    2.60
   0  -4  -6    2.40    2.00
   0  -4   6    6.10    2.30
   0   4  -6    6.10    2.70
   0   4   6    3.20    2.50
   0   4  -6    2.70    1.80
  -1  -4  -6    3.20    2.40
  -1  -4  -6    2.60    2.10
   1  -4   6    6.40    2.40
  -1   4  -6    3.70    2.60
  -1   4  -6    5.40    2.30
   1   4   6    7.40    3.20
  -2  -4  -6    6.80    2.80
  -2  -4  -6    1.60    2.40
   2  -4   6    6.10    2.70
  -2   4  -6    8.30    2.80
  -2   4  -6    9.60    3.50
   2   4   6    1.40    2.40
   3  -4   6   -0.50    2.10
  -3  -4  -6   -2.10    1.90
  -3  -4  -6    4.30    3.10
  -3   4  -6   -0.20    1.90
   3   4   6    1.90    2.70
  -3   4  -6   -2.40    2.20
   4  -4   6   51.99    6.90
  -4  -4  -6   68.29    8.50
  -4  -4  -6   54.09    7.50
  -4   4  -6   44.40    7.00
  -5  -4  -6  120.59   11.60
  -5   4  -6  131.39    9.50
   5   4   6  122.19   12.50
   9  -5  -6    1.20    2.90
  -9  -5   6    0.10    2.70
   9   5  -6    1.80    3.60
  -9   5   6    3.00    3.60
  -8  -5   6    0.40    2.40
   8  -5  -6    1.60    2.90
   8   5  -6    1.70    3.30
  -8   5   6    1.60    3.40
  -7  -5   6   25.80    5.10
   7  -5  -6   22.60    4.80
   7  -5  -6   27.10    4.80
   7   5  -6   24.80    5.50
  -7   5   6   33.40    5.70
  -6  -5   6   -0.40    1.90
   6  -5  -6    2.10    2.30
   6  -5  -6    0.60    2.10
  -6   5   6   -0.20    2.10
   6   5  -6   -1.30    2.30
  -6   5   6    0.20    1.90
   5  -5  -6   33.10    4.50
   5  -5  -6   27.60    4.20
  -5  -5   6   30.80    4.70
   5   5  -6   38.40    6.10
  -5   5   6   29.10    4.30
  -5   5   6   33.00    4.60
   4  -5  -6  447.06   13.20
   4  -5  -6  450.45   13.60
  -4  -5   6  461.45   13.90
  -4   5   6  455.35   12.70
  -4   5   6  441.96   13.70
   4   5  -6  456.25   13.00
   4   5  -6  456.45   15.10
   3  -5  -6   36.30    4.30
   3  -5  -6   43.80    5.10
  -3  -5   6   40.20    5.00
  -3   5   6   37.70    5.30
   3   5  -6   32.00    4.30
   3   5  -6   42.70    5.20
  -3   5   6   39.00    3.90
  -2  -5   6  296.57   10.40
   2  -5  -6  288.67   10.70
   2  -5  -6  309.17    9.60
   2   5  -6  297.27   11.30
   2   5  -6  303.37   11.00
  -2   5   6  293.97    7.90
  -2   5   6  285.17   11.40
   1  -5  -6    1.00    1.60
   1  -5  -6   -0.30    1.60
  -1  -5   6    2.10    1.70
  -1   5   6   -0.80    1.80
   1   5  -6    2.00    1.60
   1   5  -6   -1.30    2.10
   0  -5  -6   -0.50    1.90
   0  -5   6   -1.10    1.30
   0  -5  -6    1.10    1.80
   0   5  -6    1.30    1.80
   0   5   6    1.00    2.10
   0   5  -6    2.90    2.60
   1  -5   6  115.69    7.00
  -1  -5  -6  119.89    7.30
  -1  -5  -6  104.89    7.20
  -1   5  -6  123.49    8.40
  -1   5  -6  110.29    6.90
   1   5   6  118.79    7.90
  -2  -5  -6   36.50    5.40
  -2  -5  -6   51.29    6.20
   2  -5   6   64.49    6.80
   2   5   6   56.09    6.70
  -2   5  -6   49.10    5.70
  -2   5  -6   45.20    6.30
  -3  -5  -6   48.90    6.70
   3  -5   6   43.90    6.00
  -3  -5  -6   40.70    6.30
   3   5   6   43.70    6.00
  -3   5  -6   47.90    6.90
  -4  -5  -6    2.30    3.20
  -4  -5  -6    5.90    3.40
   4  -5   6   -0.10    2.60
  -4   5  -6    2.60    3.20
   4   5   6    5.50    3.00
  -5  -5  -6   19.50    5.80
   5  -5   6   17.40    4.80
   5   5   6   23.00    6.10
  -5   5  -6   15.10    4.30
  -8  -6   6   50.49    7.30
   8  -6  -6   65.39    9.10
   8   6  -6   61.19    9.20
  -8   6   6   58.49    7.60
   7  -6  -6    9.50    3.70
  -7  -6   6    1.50    2.00
   7   6  -6    6.80    3.90
  -7   6   6    0.70    2.40
   6  -6  -6  114.09    8.10
   6  -6  -6  104.19    6.90
  -6  -6   6   95.19    7.40
   6   6  -6  108.09   10.40
  -6   6   6  107.59    7.50
  -6   6   6  109.69    7.00
  -5  -6   6   49.00    6.30
   5  -6  -6   50.79    5.80
   5  -6  -6   63.59    6.10
  -5   6   6   64.79    6.30
  -5   6   6   62.49    6.20
   5   6  -6   62.39    7.50
   4  -6  -6   16.90    3.50
   4  -6  -6   17.10    3.40
  -4  -6   6   29.70    4.50
   4   6  -6   17.30    3.20
   4   6  -6   23.20    4.20
  -4   6   6   24.30    4.50
  -4   6   6   23.10    3.50
  -3  -6   6  819.72   19.40
   3  -6  -6  836.62   19.10
   3  -6  -6  834.62   18.40
  -3   6   6  815.72   20.50
   3   6  -6  816.52   20.10
   3   6  -6  840.52   19.40
  -3   6   6  828.62   16.20
   2  -6  -6  285.67   10.70
   2  -6  -6  279.37    9.80
  -2  -6   6  253.47    9.90
  -2   6   6  284.97   11.50
  -2   6   6  270.57    7.40
   2   6  -6  265.17   10.80
   2   6  -6  258.97   10.30
   1  -6  -6  237.98    9.30
  -1  -6   6  246.18    9.80
   1  -6  -6  247.18   10.30
   1   6  -6  229.38    9.50
  -1   6   6  259.67   11.10
   1   6  -6  242.78   10.90
   0  -6   6  186.38    8.70
   0  -6  -6  172.88    8.30
   0  -6  -6  175.78    9.00
   0   6  -6  162.18    9.50
   0   6  -6  175.18    8.00
   0   6   6  181.78    9.50
   1  -6   6  120.39    7.40
  -1  -6  -6  116.79    7.40
  -1  -6  -6  108.19    7.60
  -1   6  -6  114.79    6.80
  -1   6  -6  122.89    8.60
   1   6   6  124.69    8.10
  -2  -6  -6   82.69    7.00
   2  -6   6   88.59    8.20
  -2  -6  -6   84.69    8.30
  -2   6  -6   83.99    6.30
  -2   6  -6   85.79    8.50
   2   6   6   83.49    6.80
  -3  -6  -6    1.00    3.10
   3  -6   6    1.10    2.50
  -3  -6  -6   -1.40    1.90
  -3   6  -6    0.30    2.50
   3   6   6    1.50    2.30
  -4  -6  -6   23.50    5.80
   4  -6   6   25.10    5.40
  -4   6  -6   27.80    5.70
   4   6   6   28.10    6.60
   5  -6   6  109.49   11.00
   8  -7  -6   20.50    5.30
  -8  -7   6   15.50    4.60
   8   7  -6    7.50    4.30
  -8   7   6   10.40    3.90
  -7  -7   6   38.60    6.20
   7  -7  -6   37.50    6.50
  -7   7   6   53.49    7.20
   7   7  -6   34.60    6.50
   6  -7  -6  123.39    7.60
   6  -7  -6  147.99    9.40
  -6  -7   6  130.19    8.40
  -6   7   6  123.09    7.70
   6   7  -6  139.59    9.80
  -6   7   6  115.49    7.80
   5  -7  -6   25.30    4.00
  -5  -7   6   33.00    4.90
   5  -7  -6   20.90    4.10
   5   7  -6   26.40    4.80
  -5   7   6   40.30    5.00
  -5   7   6   27.20    4.30
   4  -7  -6   29.60    4.50
   4  -7  -6   29.60    4.30
  -4  -7   6   25.90    4.30
   4   7  -6   28.50    4.00
  -4   7   6   25.80    4.60
  -4   7   6   32.90    4.00
   4   7  -6   20.50    4.10
   3  -7  -6  141.59    7.40
  -3  -7   6  132.29    7.60
   3  -7  -6  140.59    7.40
   3   7  -6  132.99    7.50
  -3   7   6  146.09    8.40
   3   7  -6  141.39    8.40
  -3   7   6  148.69    6.00
   2  -7  -6    8.70    2.60
  -2  -7   6    6.10    2.30
   2  -7  -6    7.10    2.40
   2   7  -6    4.80    2.30
  -2   7   6    5.60    2.70
   2   7  -6    4.10    2.50
   1  -7  -6    4.80    2.40
   1  -7  -6    9.90    3.10
  -1  -7   6    7.80    2.80
   1   7  -6    6.80    2.40
   1   7  -6    9.90    3.30
  -1   7   6    6.30    2.80
   0  -7  -6   77.59    7.30
   0  -7  -6   75.19    6.10
   0  -7   6   75.69    7.10
   0   7  -6   83.89    5.80
   0   7   6   83.89    6.60
   0   7  -6   67.89    7.50
   1  -7   6    1.20    2.00
  -1  -7  -6    2.20    2.20
  -1  -7  -6    2.70    2.50
  -1   7  -6    1.00    2.70
   1   7   6    0.30    2.10
  -1   7  -6    2.00    1.80
  -2  -7  -6  137.99    9.10
  -2  -7  -6  127.49    8.70
   2  -7   6  138.49    8.60
  -2   7  -6  146.19    9.70
   2   7   6  165.28    9.50
  -3  -7  -6    3.40    3.40
   3  -7   6    7.80    3.30
  -3  -7  -6    5.10    3.10
  -3   7  -6    3.80    3.20
   3   7   6    6.60    3.10
   4  -7   6  104.89   10.40
  -4  -7  -6   83.39    9.20
   4   7   6  110.09   11.90
  -4   7  -6   82.89    9.10
   8  -8  -6   13.60    5.10
  -8  -8   6   18.00    4.90
   8   8  -6   24.60    6.10
  -8   8   6   14.80    4.90
   7  -8  -6   63.19    8.00
  -7  -8   6   59.69    7.40
   7   8  -6   97.59   11.20
  -7   8   6   75.29    8.40
   6  -8  -6   -2.50    1.90
  -6  -8   6    2.90    2.70
   6   8  -6    0.50    2.70
  -6   8   6    1.00    2.10
  -6   8   6   -2.00    2.30
  -5  -8   6    5.20    2.60
   5  -8  -6    5.20    2.20
   5  -8  -6    4.90    3.10
   5   8  -6    7.20    3.10
  -5   8   6    2.00    2.40
  -5   8   6    3.60    2.30
  -4  -8   6   31.90    5.00
   4  -8  -6   17.80    3.40
   4  -8  -6   17.90    3.80
  -4   8   6   22.30    3.30
  -4   8   6   19.10    4.30
   4   8  -6   20.20    4.30
   4   8  -6   23.10    3.90
  -3  -8   6    3.10    2.10
   3  -8  -6    3.10    2.30
   3  -8  -6    0.50    1.70
   3   8  -6    1.50    2.00
  -3   8   6    0.90    2.50
   3   8  -6    2.30    2.40
   2  -8  -6  446.56   13.90
  -2  -8   6  442.76   14.00
   2  -8  -6  438.96   13.80
   2   8  -6  439.56   14.70
   2   8  -6  419.76   13.60
  -2   8   6  420.16   14.60
   1  -8  -6    5.80    2.60
   1  -8  -6    5.20    2.70
  -1  -8   6    8.90    2.70
   1   8  -6    6.90    3.20
   1   8  -6    6.00    2.60
  -1   8   6    5.60    3.10
   0  -8  -6    0.80    2.20
   0  -8   6    2.90    2.30
   0  -8  -6    3.90    2.60
   0   8  -6   -0.20    2.70
   0   8   6    1.10    2.50
   0   8  -6    0.30    1.80
  -1  -8  -6   31.60    5.20
   1  -8   6   32.70    5.00
  -1  -8  -6   44.50    6.20
  -1   8  -6   44.50    6.60
  -1   8  -6   33.80    4.40
   1   8   6   39.70    6.00
  -2  -8  -6   63.69    7.40
   2  -8   6   69.29    7.60
  -2  -8  -6   71.29    7.60
  -2   8  -6   78.19    8.80
   2   8   6   87.09    8.80
   3  -8   6    7.40    3.70
  -3  -8  -6   18.50    4.70
  -3  -8  -6    9.20    3.80
   3   8   6   10.80    3.80
  -3   8  -6   14.50    4.70
  -4  -8  -6    4.50    4.00
   4  -8   6   -2.30    2.70
   4   8   6   -3.10    2.60
  -4   8  -6    2.30    3.20
  -8  -9   6    3.30    2.90
   8  -9  -6   -1.10    2.90
  -8   9   6    0.30    2.80
   8   9  -6    3.80    4.00
  -7  -9   6    2.80    3.00
   7  -9  -6    3.90    3.50
   7   9  -6    3.10    3.50
  -7   9   6    6.70    3.50
   6  -9  -6   41.40    6.20
  -6  -9   6   79.99    8.50
   6   9  -6   57.19    7.90
  -6   9   6   59.49    6.70
  -6   9   6   59.79    7.00
  -5  -9   6   -1.30    1.80
   5  -9  -6   -0.10    1.80
   5  -9  -6   -1.80    2.00
   5   9  -6   -2.10    1.80
  -5   9   6    0.70    1.90
  -5   9   6    0.10    2.30
   4  -9  -6  260.07   10.30
   4  -9  -6  287.57   11.80
  -4  -9   6  270.77   11.50
  -4   9   6  284.97   12.20
   4   9  -6  270.07   10.40
   4   9  -6  261.67   12.20
  -4   9   6  268.87    9.30
  -3  -9   6  533.25   16.10
   3  -9  -6  523.55   15.70
   3  -9  -6  570.34   15.30
   3   9  -6  530.35   15.90
   3   9  -6  533.95   16.50
  -3   9   6  541.65   17.30
   2  -9  -6   44.80    5.50
   2  -9  -6   42.40    5.20
  -2  -9   6   50.09    5.80
   2   9  -6   50.19    5.70
  -2   9   6   37.90    5.40
   2   9  -6   45.60    5.90
   1  -9  -6   -0.10    1.90
  -1  -9   6   -1.00    1.90
   1  -9  -6    3.50    2.40
  -1   9   6   -0.50    2.20
   1   9  -6    1.70    2.70
   1   9  -6    1.10    1.90
   0  -9   6    3.80    2.50
   0  -9  -6    4.60    2.60
   0  -9  -6    1.60    2.50
   0   9   6    4.70    3.00
   0   9  -6    5.20    2.40
   0   9  -6    1.70    2.80
   1  -9   6   27.40    4.60
  -1  -9  -6   33.70    5.50
  -1  -9  -6   27.80    5.00
   1   9   6   23.50    4.90
  -1   9  -6   42.20    6.40
  -2  -9  -6    2.40    3.10
   2  -9   6   17.70    4.60
  -2  -9  -6   11.00    3.70
  -2   9  -6    7.70    3.70
   2   9   6    2.60    2.80
  -3  -9  -6   65.29    8.40
  -3  -9  -6   79.99    9.30
   3  -9   6   43.10    6.50
   3   9   6   69.79    8.00
  -3   9  -6   56.19    7.60
  -4  -9  -6   -0.30    3.60
   4  -9   6    1.50    3.10
   4   9   6    0.70    3.20
  -4   9  -6    7.20    4.00
   8 -10  -6   14.00    5.10
  -8 -10   6    8.50    3.50
   8  10  -6   19.90    6.10
  -8  10   6   12.80    4.70
  -7 -10   6   -1.20    2.10
   7 -10  -6   -0.80    2.60
  -7  10   6   -1.50    2.50
   7  10  -6   -2.60    2.40
  -6 -10   6    9.00    3.70
   6 -10  -6   13.40    4.30
  -6  10   6   15.00    4.00
   6  10  -6    5.40    3.60
  -6  10   6    9.30    3.30
   5 -10  -6  957.30   24.50
  -5 -10   6  962.00   24.10
  -5  10   6  940.21   21.00
  -5  10   6  943.01   23.80
   5  10  -6  920.21   25.50
  -4 -10   6 1323.67   28.70
   4 -10  -6 1378.36   29.40
   4 -10  -6 1411.46   26.70
   4  10  -6 1360.06   27.10
  -4  10   6 1377.66   29.60
   4  10  -6 1405.16   30.80
  -3 -10   6    1.20    1.90
   3 -10  -6    2.10    2.10
   3 -10  -6    4.20    2.80
  -3  10   6    1.70    2.60
   3  10  -6    2.20    2.50
   3  10  -6    4.00    2.80
   2 -10  -6   65.79    6.50
   2 -10  -6   63.69    6.60
  -2 -10   6   71.09    7.20
   2  10  -6   75.29    7.40
  -2  10   6   66.19    7.40
   2  10  -6   72.29    6.80
   1 -10  -6   44.90    5.80
   1 -10  -6   52.09    6.10
  -1 -10   6   44.80    5.80
   1  10  -6   59.09    6.10
   1  10  -6   53.19    6.50
  -1  10   6   48.90    6.40
   0 -10  -6   14.30    4.00
   0 -10  -6   20.20    4.30
   0 -10   6    6.40    3.30
   0  10  -6   16.70    3.30
   0  10  -6   23.20    5.10
   0  10   6   15.80    4.20
  -1 -10  -6   -2.00    2.10
   1 -10   6    4.10    2.60
  -1 -10  -6   -1.60    2.30
   1  10   6    2.40    2.60
  -1  10  -6   -1.40    2.40
   2 -10   6   79.49    8.60
  -2 -10  -6   85.09    8.60
  -2 -10  -6   75.89    8.40
   2  10   6   70.19    8.30
  -2  10  -6   91.79    9.70
  -3 -10  -6    8.90    3.90
  -3 -10  -6    4.60    3.50
   3 -10   6    8.00    3.70
   3  10   6    8.40    3.80
   3  10   6    5.90    3.90
  -3  10  -6    8.20    4.20
  -4 -10  -6   87.19   10.00
   4 -10   6   99.49   10.40
   4  10   6  103.39   12.50
  -4  10  -6   75.49    9.30
   8 -11  -6  152.38   11.90
  -8 -11   6  152.08   10.90
   8  11  -6  169.78   13.20
  -8  11   6  162.58   11.10
   7 -11  -6   16.00    5.00
  -7 -11   6   31.80    6.10
   7  11  -6   25.60    5.80
  -7  11   6   17.00    4.60
   6 -11  -6  183.08   11.80
  -6 -11   6  195.48   11.10
  -6  11   6  208.58   11.10
   6  11  -6  189.88   12.10
  -6  11   6  205.08   10.20
  -5 -11   6   51.09    6.80
   5 -11  -6   54.39    7.00
   5  11  -6   55.39    7.40
  -5  11   6   61.49    7.50
  -4 -11   6   95.89    8.90
   4 -11  -6   72.79    7.60
   4 -11  -6   85.09    6.20
   4  11  -6   78.29    6.40
  -4  11   6   77.29    8.40
   4  11  -6   80.59    8.70
   3 -11  -6   45.20    6.00
   3 -11  -6   42.80    5.30
  -3 -11   6   44.20    5.90
   3  11  -6   47.50    5.90
   3  11  -6   43.40    5.80
  -3  11   6   49.80    6.80
   2 -11  -6   29.90    4.70
  -2 -11   6   17.60    3.80
   2 -11  -6   28.30    4.90
  -2  11   6   19.90    4.40
   2  11  -6   19.90    4.00
   2  11  -6   25.50    4.70
  -1 -11   6  263.67   11.60
   1 -11  -6  247.78   11.60
   1 -11  -6  264.07   11.40
   1  11  -6  268.87   10.30
   1  11  -6  257.87   12.50
  -1  11   6  245.78   12.30
   0 -11  -6   30.50    5.30
   0 -11  -6   23.00    4.60
   0 -11   6   34.20    5.80
   0  11   6   40.00    6.10
   0  11  -6   30.30    5.70
   1 -11   6   50.79    7.10
  -1 -11  -6   34.50    5.50
  -1 -11  -6   44.90    6.40
   1  11   6   42.80    6.70
  -1  11  -6   33.60    5.70
   2 -11   6   95.79    9.20
  -2 -11  -6   95.39    9.50
  -2 -11  -6  106.59   10.40
   2  11   6   96.09    9.40
  -2  11  -6   89.59    9.50
  -3 -11  -6    0.30    3.30
   3 -11   6    6.40    3.80
   3  11   6    4.50    3.30
  -3  11  -6    7.80    4.10
   4 -11   6   10.60    4.30
  -4 -11  -6    7.00    4.40
  -4  11  -6    7.80    4.10
   4  11   6   11.40    4.90
   7 -12  -6  104.39   11.20
  -7 -12   6  131.89    9.60
  -7  12   6  122.49    9.00
   7  12  -6  139.69   13.20
   6 -12  -6   12.70    4.60
  -6 -12   6   27.20    5.20
  -6  12   6   37.70    6.20
   6  12  -6   29.50    6.10
  -5 -12   6  134.39    9.10
   5 -12  -6  131.99    9.60
  -5  12   6  155.48    9.90
   5  12  -6  156.28   10.60
  -4 -12   6  180.18   10.30
   4 -12  -6  184.18   10.60
   4  12  -6  181.08   10.70
   4  12  -6  177.68    9.40
  -4  12   6  178.58   10.50
  -3 -12   6  205.38   10.40
   3 -12  -6  204.58    9.50
   3 -12  -6  206.58   10.70
   3  12  -6  215.18   10.80
  -3  12   6  179.18   10.50
   3  12  -6  200.68   10.20
   2 -12  -6   58.29    6.90
   2 -12  -6   52.99    6.30
  -2 -12   6   53.19    6.60
   2  12  -6   60.99    7.20
   2  12  -6   65.09    6.70
  -2  12   6   53.19    7.10
   1 -12  -6    4.00    2.60
  -1 -12   6   -0.10    2.40
   1 -12  -6    0.80    2.40
  -1  12   6   -1.50    2.30
   1  12  -6    4.70    3.30
   1  12  -6    2.10    2.20
   0 -12   6   25.90    5.50
   0 -12  -6   28.10    5.20
   0 -12  -6   30.90    5.60
   0  12   6   43.00    6.70
   0  12  -6   33.50    5.90
  -1 -12  -6   81.69    8.50
   1 -12   6   67.29    7.90
  -1 -12  -6   72.59    8.70
  -1  12  -6   70.99    8.50
   1  12   6   80.89    8.90
   2 -12   6   47.70    6.80
  -2 -12  -6   48.40    7.10
  -2 -12  -6   34.90    6.20
   2  12   6   52.89    7.30
  -2  12  -6   52.49    7.60
   3 -12   6   55.19    7.50
  -3 -12  -6   69.49    9.10
   3  12   6   54.49    8.30
  -3  12  -6   50.39    7.40
   7 -13  -6   31.90    6.90
  -7 -13   6   33.00    6.40
   7  13  -6   34.80    6.80
   6 -13  -6   11.30    4.00
  -6 -13   6    5.80    3.40
  -6  13   6    9.80    3.90
   6  13  -6   12.10    4.60
  -5 -13   6  504.75   17.50
   5 -13  -6  471.85   18.20
  -5  13   6  547.05   18.80
   5  13  -6  522.15   19.40
   4 -13  -6  110.99    8.60
  -4 -13   6  128.79    8.90
  -4  13   6  118.29    9.10
   4  13  -6  124.99    8.00
   4  13  -6  125.79    9.20
  -3 -13   6    5.10    2.90
   3 -13  -6    1.70    2.20
   3 -13  -6    7.10    3.20
   3  13  -6    3.00    2.40
   3  13  -6    4.50    3.00
  -3  13   6    2.20    2.90
  -2 -13   6    6.60    3.00
   2 -13  -6    7.70    3.10
   2 -13  -6    7.00    3.40
   2  13  -6    5.60    3.00
   2  13  -6    7.60    3.40
  -2  13   6   -0.30    2.40
   1 -13  -6    5.60    3.20
  -1 -13   6   10.80    3.60
   1 -13  -6   10.30    3.20
  -1  13   6   16.20    4.70
   1  13  -6    6.80    3.70
   0 -13  -6    5.70    3.00
   0 -13  -6    4.50    2.90
   0 -13   6   -1.00    2.40
   0  13   6    3.90    3.40
   0  13  -6    2.80    3.40
   1 -13   6    0.40    2.80
  -1 -13  -6    2.10    3.30
  -1 -13  -6    3.20    2.90
  -1  13  -6    1.00    2.70
   1  13   6   -2.40    2.20
  -2 -13  -6  120.19    9.80
   2 -13   6  104.39   10.50
  -2 -13  -6  108.59    9.20
  -2  13  -6  111.19   11.50
   2  13   6  102.49   10.10
  -3 -13  -6   34.10    6.60
   3 -13   6   31.30    6.60
   3  13   6   31.50    6.90
  -3  13  -6   34.20    6.40
   7 -14  -6   11.80    4.90
  -7 -14   6   16.70    4.60
   7  14  -6   24.50    6.10
  -6 -14   6   35.00    6.40
   6 -14  -6   24.20    5.90
   6  14  -6   37.50    7.10
  -6  14   6   42.30    7.50
   5 -14  -6  513.35   19.50
  -5 -14   6  492.35   17.70
   5  14  -6  530.65   19.90
  -5  14   6  489.35   18.40
  -4 -14   6  180.78   10.70
   4 -14  -6  207.48   11.60
   4  14  -6  203.38   11.60
   4  14  -6  200.88   11.50
  -4  14   6  216.38   12.00
  -3 -14   6    4.40    2.80
   3 -14  -6    3.30    3.10
  -3  14   6    7.70    3.80
   3  14  -6   11.90    3.90
   3  14  -6    7.50    3.40
   2 -14  -6   10.50    3.70
   2 -14  -6    1.20    2.50
  -2 -14   6    2.60    2.80
  -2  14   6    8.40    3.90
   2  14  -6    4.60    3.00
   2  14  -6    6.10    2.90
   1 -14  -6    8.70    3.30
   1 -14  -6    9.10    3.40
  -1 -14   6    6.10    3.00
   1  14  -6   14.20    4.30
  -1  14   6   13.00    4.00
   0 -14   6   73.49    8.10
   0 -14  -6   56.59    7.20
   0 -14  -6   70.79    7.70
   0  14  -6   73.39    8.80
   0  14   6   76.59    9.10
  -1 -14  -6   17.00    4.60
  -1 -14  -6   10.90    4.10
   1 -14   6    9.90    4.40
   1  14   6    5.60    3.60
  -1  14  -6   11.30    4.40
  -2 -14  -6   20.70    5.30
   2 -14   6   21.40    5.60
   2  14   6   28.50    6.20
  -2  14  -6   21.80    5.50
   2  14   6   24.50    5.60
  -3 -14  -6   42.30    7.50
   3 -14   6   43.30    7.40
   3  14   6   59.89    9.40
  -3  14  -6   45.70    7.80
  -6 -15   6   31.60    6.10
   6 -15  -6   24.70    5.60
  -6  15   6   32.50    6.50
   6  15  -6   35.30    7.30
  -5 -15   6   -3.50    2.20
   5 -15  -6    1.40    3.80
   5  15  -6   -4.00    2.60
  -5  15   6    1.60    2.80
   4 -15  -6    0.20    2.80
  -4 -15   6   -1.00    2.60
   4  15  -6    1.30    2.80
  -4  15   6    4.10    3.50
   3 -15  -6  190.28   11.60
  -3 -15   6  190.88   10.80
  -3  15   6  191.28   12.20
   3  15  -6  173.18   10.30
   3  15  -6  201.68   11.10
  -2 -15   6    3.10    2.50
   2 -15  -6    5.60    3.10
   2 -15  -6    3.50    2.60
  -2  15   6    5.80    3.40
   2  15  -6    5.50    3.30
   1 -15  -6   54.39    7.40
  -1 -15   6   64.69    7.30
   1 -15  -6   83.69    8.00
  -1  15   6   68.29    8.70
   1  15  -6   87.79    9.50
   0 -15  -6   14.00    4.70
   0 -15  -6   13.00    3.80
   0 -15   6    9.60    3.30
   0  15   6    9.50    4.00
   0  15  -6    4.70    4.00
   1 -15   6   26.50    5.50
  -1 -15  -6   47.50    6.90
  -1 -15  -6   49.99    7.70
   1  15   6   42.20    6.70
  -1  15  -6   37.30    7.10
  -2 -15  -6   -3.60    2.90
   2 -15   6    1.20    2.80
  -2  15  -6    1.20    3.00
   2  15   6    4.70    3.60
   2  15   6    2.70    3.30
   6 -16  -6    4.80    4.30
  -6 -16   6   11.10    4.10
   6  16  -6   11.50    4.80
  -6  16   6    9.00    4.20
   5 -16  -6   -4.30    2.80
  -5 -16   6   -1.30    2.50
  -5  16   6   -1.80    2.50
   5  16  -6    3.50    3.10
   4 -16  -6   -1.60    2.80
  -4 -16   6    6.20    4.00
  -4  16   6    2.40    2.70
   4  16  -6    5.00    3.30
   3 -16  -6   -2.90    2.60
  -3 -16   6    1.60    2.70
  -3  16   6   -4.80    2.10
   3  16  -6    2.30    2.90
   3  16  -6    0.80    3.10
   2 -16  -6  251.07   13.50
  -2 -16   6  239.58   12.40
   2  16  -6  230.88   12.80
  -2  16   6  260.27   14.20
   1 -16  -6   30.10    5.40
  -1 -16   6   35.20    5.80
   1 -16  -6   30.00    5.90
  -1  16   6   21.00    5.30
   1  16  -6   40.00    7.10
   0 -16   6   -1.50    1.90
   0 -16  -6    4.90    3.60
   0 -16  -6   -0.80    2.10
   0  16   6    1.20    3.10
   0  16  -6   -5.20    2.80
   1 -16   6   32.50    6.10
  -1 -16  -6   23.00    5.20
   1  16   6   36.90    6.80
   1  16   6   34.00    6.50
  -1  16  -6   26.60    5.90
   2 -16   6    0.50    3.00
  -2 -16  -6    1.30    3.50
  -2  16  -6    3.10    2.90
   2  16   6    2.60    3.40
   2  16   6   -0.80    3.00
  -5 -17   6    2.30    2.90
   5 -17  -6    4.90    3.70
   5  17  -6    6.10    3.60
  -5  17   6    0.70    3.30
   4 -17  -6  170.58   11.60
  -4 -17   6  148.19   10.50
  -4  17   6  176.58   11.80
   4  17  -6  160.68   10.80
  -3 -17   6   20.90    5.00
   3 -17  -6   16.70    5.10
   3  17  -6   22.80    5.30
  -3  17   6   14.50    4.50
   2 -17  -6   73.39    9.50
  -2 -17   6   65.99    8.40
   2  17  -6   75.59    9.10
  -2  17   6   50.59    7.80
  -1 -17   6   69.29    8.60
   1 -17  -6   73.19    8.90
   1 -17  -6   82.89    8.50
   1  17  -6  102.69   10.60
  -1  17   6   81.29   10.20
   0 -17  -6    4.10    3.50
   0 -17  -6   -2.10    2.50
   0 -17   6    0.20    2.20
   0  17   6    2.40    3.40
   0  17  -6   -1.30    3.40
  -1 -17  -6    5.90    3.50
   1 -17   6    2.40    3.00
  -1  17  -6    0.00    3.60
   1  17   6    2.80    3.50
   1  17   6    4.10    3.90
   4 -18  -6   18.90    5.40
  -4 -18   6    8.10    4.00
  -4  18   6   29.30    6.40
   4  18  -6   20.80    5.30
  -3 -18   6   -1.80    2.40
   3 -18  -6   -4.00    2.90
   3  18  -6   -3.00    3.00
  -3  18   6    0.80    2.50
  -2 -18   6   10.70    3.90
   2 -18  -6    7.10    3.80
   2  18  -6    5.60    4.00
  -2  18   6    6.00    4.00
   1 -18  -6   26.60    5.90
  -1 -18   6   22.10    5.00
   1  18  -6   33.00    6.70
  -1  18   6   29.50    6.40
   0 -18   6    7.50    3.30
   0 -18  -6    2.40    3.40
   0  18  -6    8.40    4.80
   0  18   6    7.90    4.10
   0  18   6    9.80    5.20
   1 -18   6    7.40    3.80
  -1 -18  -6   29.10    6.70
  -1  18  -6   13.40    5.50
   1  18   6   14.00    5.00
   3 -19  -6    3.50    3.60
  -3 -19   6    1.50    2.80
  -3  19   6    1.00    2.80
   3  19  -6   -0.20    3.30
  -2 -19   6   -0.10    2.70
   2 -19  -6    5.60    3.90
   2  19  -6    3.80    3.60
  -2  19   6    4.20    4.40
   1 -19  -6    0.10    3.20
  -1 -19   6   -0.10    2.80
  -1  19   6    0.90    3.50
   1  19  -6    5.40    3.80
  -9   0   7   -0.60    3.00
   9   0  -7    0.70    3.00
  -8   0   7    0.00    2.70
   8   0  -7   -1.50    2.70
   7   0  -7    2.60    2.50
  -7   0   7    1.30    2.40
   6   0  -7    3.20    2.70
  -6   0   7   -1.00    1.80
  -5   0   7   -1.80    1.60
  -5   0   7   -2.30    1.70
   5   0  -7    1.00    2.00
   4   0  -7   -2.10    1.50
  -4   0   7    1.30    1.80
  -4   0   7   -1.70    1.80
  -3   0   7   -0.50    1.30
   3   0  -7    0.80    1.90
  -3   0   7    0.30    2.20
   2   0  -7   -0.50    1.60
  -2   0   7   -0.80    1.80
  -2   0   7    2.30    1.60
  -1   0   7    1.80    2.30
  -1   0   7   -1.70    1.10
   1   0  -7    0.40    1.90
   0   0   7    0.90    1.50
   0   0  -7    1.30    2.10
   0   0   7    0.40    2.50
   1   0   7    0.90    1.50
  -1   0  -7    0.80    2.50
   1   0   7   -0.30    2.40
  -2   0  -7    1.90    2.50
   2   0   7   -0.80    2.60
   3   0   7   -1.20    2.70
  -3   0  -7   -4.60    2.30
   4   0   7    2.60    3.90
  -4   0  -7    2.00    3.10
   9  -1  -7   56.69    8.30
  -9  -1   7   56.49    8.30
  -9   1   7   71.39    9.30
   9   1  -7   62.19    8.50
  -8  -1   7   28.60    5.50
   8  -1  -7   23.30    5.30
  -8   1   7   41.20    6.80
   8   1  -7   36.70    6.40
  -7  -1   7   11.00    3.90
   7  -1  -7    6.60    3.30
  -7   1   7   10.10    3.70
   7   1  -7    5.40    3.40
  -6  -1   7   67.39    7.30
   6  -1  -7   83.69    8.20
   6   1  -7   66.49    7.80
  -6   1   7   71.49    7.70
   5  -1  -7   22.00    4.60
  -5  -1   7   13.70    3.70
  -5  -1   7   16.00    3.40
  -5   1   7   19.70    3.90
   5   1  -7    7.20    3.00
  -5   1   7   21.10    3.80
  -4  -1   7    8.40    2.80
   4  -1  -7   10.60    3.10
  -4  -1   7   10.20    3.00
   4   1  -7   11.90    3.30
  -4   1   7    6.40    2.40
  -4   1   7    5.00    2.60
  -3  -1   7   22.40    4.20
   3  -1  -7   23.50    4.00
  -3  -1   7   22.30    3.70
  -3   1   7   23.90    4.40
   3   1  -7   19.40    3.80
  -3   1   7   25.70    3.80
   2  -1  -7  189.78    9.30
  -2  -1   7  201.98    8.20
  -2  -1   7  194.28    9.60
   2   1  -7  198.98    9.50
  -2   1   7  198.68    7.60
  -2   1   7  190.98    9.80
  -1  -1   7   32.50    5.10
  -1  -1   7   32.90    4.00
   1  -1  -7   20.50    4.00
  -1   1   7   35.90    5.40
   1   1  -7   32.60    4.70
  -1   1   7   27.90    3.50
   0  -1  -7   18.70    4.10
   0  -1   7   14.70    3.00
   0   1  -7   18.50    3.90
   0   1   7   15.80    3.90
   0   1  -7   25.20    4.70
   0   1   7   17.60    2.90
   1  -1   7  126.99    6.90
  -1  -1  -7  120.29    8.30
   1   1   7  104.89    8.20
  -1   1  -7  116.49    8.80
  -1   1  -7  114.79    7.80
  -2  -1  -7   66.39    7.70
   2  -1   7   62.69    6.40
   2  -1   7   56.59    7.30
   2   1   7   53.89    7.40
  -2   1  -7   59.49    7.10
  -2   1  -7   55.09    7.10
   3  -1   7   35.80    6.20
  -3  -1  -7   34.10    5.80
  -3   1  -7   56.99    7.40
   3   1   7   50.69    7.10
  -4  -1  -7   30.50    6.00
   4  -1   7   32.60    6.30
  -4   1  -7   29.90    5.70
  -9  -2   7   44.80    8.20
  -9   2   7   53.79    8.70
   9   2  -7   44.50    7.80
  -8  -2   7    9.00    3.80
   8  -2  -7    8.30    3.80
  -8   2   7    8.00    3.90
   8   2  -7    6.30    3.40
   7  -2  -7   -0.40    2.40
  -7  -2   7    1.50    2.60
   7  -2  -7   -0.60    3.70
  -7   2   7   -1.40    2.10
   7   2  -7   -0.30    2.40
   6  -2  -7  147.19    9.10
  -6  -2   7  155.58    9.20
   6   2  -7  136.49    9.50
  -6   2   7  136.59    8.60
   5  -2  -7   33.00    5.30
  -5  -2   7   49.90    5.40
  -5  -2   7   35.10    5.20
   5   2  -7   35.10    5.40
  -5   2   7   38.30    5.10
  -5   2   7   37.50    5.20
  -4  -2   7   16.90    3.70
   4  -2  -7   25.80    4.40
  -4  -2   7   24.60    4.30
  -4   2   7   23.50    3.80
   4   2  -7   15.20    3.70
  -4   2   7   18.90    4.20
  -3  -2   7    6.50    2.80
   3  -2  -7   10.20    3.40
  -3  -2   7    7.00    2.30
   3   2  -7    4.90    2.40
  -3   2   7   13.20    3.40
  -3   2   7   10.60    2.50
  -2  -2   7   10.60    3.40
   2  -2  -7   16.80    3.60
  -2  -2   7   20.20    3.40
  -2   2   7   22.60    4.50
   2   2  -7   16.10    3.40
  -2   2   7   19.00    3.00
   2   2  -7   14.30    3.70
   1  -2  -7   28.70    4.80
  -1  -2   7   32.10    4.20
   1   2  -7   35.30    5.40
   1   2  -7   26.70    4.30
  -1   2   7   35.60    3.80
  -1   2   7   40.60    6.10
   0  -2  -7   19.90    4.30
   0  -2   7   22.10    3.60
   0   2  -7   27.60    4.40
   0   2  -7   17.30    4.30
   0   2   7   17.10    4.40
   1  -2   7   11.60    3.10
  -1  -2  -7    8.20    3.10
  -1   2  -7    9.00    3.80
  -1   2  -7   13.90    3.70
   1   2   7    4.30    2.90
   2  -2   7   55.29    6.00
  -2  -2  -7   45.90    6.40
   2   2   7   53.29    7.20
  -2   2  -7   36.10    5.50
  -2   2  -7   46.40    7.10
  -3  -2  -7    2.20    2.70
  -3   2  -7    0.50    2.40
  -3   2  -7    3.10    3.20
   3   2   7   -4.40    2.40
   4  -2   7    9.50    4.10
  -4  -2  -7   14.30    4.30
  -8  -3   7  124.99   11.40
   8  -3  -7   94.99   10.10
   8  -3  -7  107.09    8.70
   8   3  -7   92.39   10.10
  -8   3   7  121.89   11.30
   7  -3  -7  350.16   14.50
   7  -3  -7  352.06   14.40
  -7  -3   7  360.36   14.90
   7   3  -7  358.66   15.70
  -7   3   7  351.76   14.60
  -6  -3   7  379.56   14.20
   6  -3  -7  359.76   14.00
   6  -3  -7  364.46   13.10
  -6   3   7  362.06   13.80
   6   3  -7  362.16   15.00
  -5  -3   7    4.60    2.40
   5  -3  -7    5.80    2.50
  -5  -3   7   -0.30    1.90
   5  -3  -7    7.80    3.00
  -5   3   7    0.70    1.80
   5   3  -7    4.20    2.80
  -5   3   7    2.70    2.30
  -4  -3   7   -1.40    1.60
   4  -3  -7    4.80    2.30
   4  -3  -7    1.40    1.60
  -4  -3   7    0.30    1.60
   4   3  -7    3.70    2.30
  -4   3   7    1.40    1.80
  -4   3   7   -1.20    1.70
  -3  -3   7   11.80    3.20
  -3  -3   7    5.90    2.50
   3  -3  -7    9.40    2.70
   3  -3  -7    6.30    2.70
   3   3  -7   10.00    3.10
  -3   3   7   11.70    3.30
  -3   3   7    7.90    2.40
   3   3  -7    8.60    3.00
   2  -3  -7    7.10    2.70
  -2  -3   7   11.10    2.80
   2  -3  -7    8.10    3.40
   2   3  -7    4.40    2.40
  -2   3   7   12.40    3.50
   2   3  -7    5.50    2.90
  -2   3   7    6.10    1.90
  -1  -3   7   57.99    5.60
   1  -3  -7   47.50    5.90
   1  -3  -7   57.69    7.30
   1   3  -7   47.70    5.50
   1   3  -7   59.89    6.90
  -1   3   7   50.89    6.10
   0  -3  -7   70.39    7.30
   0  -3  -7   62.19    8.00
   0  -3   7   64.79    5.10
   0   3  -7   50.59    5.90
   0   3  -7   46.70    6.40
   0   3   7   52.19    6.50
  -1  -3  -7   16.20    4.00
  -1  -3  -7   11.00    4.30
   1  -3   7   13.60    3.30
  -1   3  -7   13.00    3.80
  -1   3  -7   14.50    4.10
   1   3   7   17.80    4.40
   2  -3   7  151.78    8.50
  -2  -3  -7  163.28    9.80
  -2   3  -7  158.78    9.40
  -2   3  -7  146.89   10.20
   2   3   7  162.68    9.90
  -3  -3  -7   -2.40    2.20
   3  -3   7   -3.10    2.00
  -3   3  -7    0.00    3.00
  -3   3  -7   -2.20    2.20
   3   3   7   -1.10    2.60
  -4  -3  -7   39.50    6.90
  -4   3  -7   25.20    5.90
   8  -4  -7    0.50    2.70
  -8  -4   7    2.50    3.00
  -8   4   7    0.80    3.10
   8   4  -7    3.20    3.00
   7  -4  -7   68.79    7.80
  -7  -4   7   78.79    8.80
   7  -4  -7   58.79    7.00
   7   4  -7   44.10    6.90
  -7   4   7   69.19    7.70
   6  -4  -7  159.68    9.00
   6  -4  -7  153.28    9.10
  -6  -4   7  145.29    9.00
  -6   4   7  162.38    9.40
   6   4  -7  165.38   10.40
  -6   4   7  159.88    8.50
  -5  -4   7   52.89    5.40
  -5  -4   7   51.99    6.50
   5  -4  -7   57.79    6.00
   5  -4  -7   52.69    6.20
  -5   4   7   56.79    6.20
   5   4  -7   65.79    7.60
  -5   4   7   49.10    5.80
  -4  -4   7   12.10    3.20
   4  -4  -7   11.60    3.10
   4  -4  -7   12.40    3.00
  -4  -4   7   19.00    3.90
  -4   4   7   12.50    2.80
  -4   4   7   17.00    4.20
   4   4  -7   11.30    3.20
  -3  -4   7  364.36   12.50
   3  -4  -7  358.76   10.70
   3  -4  -7  381.76   13.40
  -3   4   7  377.06   13.50
   3   4  -7  370.26   13.30
  -3   4   7  373.96   10.90
   3   4  -7  365.36   13.20
  -2  -4   7    0.90    1.70
   2  -4  -7    0.80    2.10
   2  -4  -7    2.90    1.90
  -2   4   7    3.20    2.30
   2   4  -7    4.70    2.80
   2   4  -7    0.70    1.90
  -2   4   7   -0.30    1.30
  -1  -4   7   10.00    2.80
   1  -4  -7   14.80    3.70
   1  -4  -7   21.40    3.60
   1   4  -7   16.50    4.10
  -1   4   7   11.80    3.80
   1   4  -7   17.60    3.70
   0  -4  -7   23.80    4.00
   0  -4   7   27.90    4.50
   0  -4  -7   24.90    4.70
   0   4   7   21.60    4.70
   0   4  -7   20.70    4.00
   0   4  -7   23.90    4.90
  -1  -4  -7    0.40    2.30
   1  -4   7    1.30    2.10
  -1  -4  -7   -0.60    2.30
   1   4   7    2.00    2.60
  -1   4  -7   -1.40    2.00
  -1   4  -7   -0.30    2.50
  -2  -4  -7  109.59    8.10
   2  -4   7  114.79    7.70
  -2  -4  -7  106.79    8.20
  -2   4  -7  116.69    8.00
  -2   4  -7  109.99   10.50
   2   4   7  105.09    8.30
  -3  -4  -7  180.38   10.90
   3  -4   7  168.48    9.90
  -3  -4  -7  189.38   11.30
  -3   4  -7  178.48   11.40
   3   4   7  186.88   11.00
  -4  -4  -7   17.10    5.00
   4  -4   7   14.20    5.10
  -4   4  -7   30.10    6.40
   8  -5  -7   18.10    5.10
  -8  -5   7   24.70    6.00
   8   5  -7   21.90    5.60
  -8   5   7   18.60    4.90
   7  -5  -7   33.70    5.40
   7  -5  -7   22.30    4.70
  -7  -5   7   27.90    5.40
  -7   5   7   27.20    5.00
   7   5  -7   32.90    6.20
  -6  -5   7   51.09    6.50
   6  -5  -7   47.50    6.10
   6  -5  -7   58.99    6.70
  -6   5   7   51.69    6.30
   6   5  -7   48.00    6.60
  -6   5   7   63.09    7.00
  -5  -5   7    5.10    2.30
  -5  -5   7    1.80    2.20
   5  -5  -7    6.70    2.90
   5  -5  -7    5.70    2.80
  -5   5   7    6.40    2.50
  -5   5   7    9.20    3.20
   5   5  -7    3.40    2.80
  -4  -5   7  273.17   11.10
   4  -5  -7  277.27   11.40
   4  -5  -7  297.37   10.50
   4   5  -7  277.17   11.10
   4   5  -7  301.27   12.60
  -4   5   7  305.07   12.40
  -4   5   7  293.37   10.20
  -3  -5   7  592.14   16.40
   3  -5  -7  569.14   16.50
   3  -5  -7  582.84   14.60
   3   5  -7  563.24   16.90
  -3   5   7  561.54   17.20
  -3   5   7  568.34   13.50
   3   5  -7  596.84   17.30
   2  -5  -7  212.38    8.60
  -2  -5   7  212.78    9.40
   2  -5  -7  199.98    9.90
   2   5  -7  204.58    9.60
  -2   5   7  204.58   10.40
   2   5  -7  212.38   10.50
  -1  -5   7    2.00    1.80
   1  -5  -7    0.00    1.90
   1  -5  -7   -0.50    2.00
   1   5  -7    1.40    2.20
   1   5  -7    3.40    2.90
  -1   5   7    4.60    2.90
   0  -5  -7   57.19    5.80
   0  -5   7   61.59    6.30
   0  -5  -7   50.99    6.20
   0   5   7   60.39    7.00
   0   5  -7   62.99    6.80
   0   5  -7   56.79    7.00
  -1  -5  -7   34.00    5.10
  -1  -5  -7   48.50    6.60
   1  -5   7   41.30    5.80
   1   5   7   42.90    6.30
  -1   5  -7   43.40    6.50
  -1   5  -7   39.90    5.30
   2  -5   7   56.09    6.70
  -2  -5  -7   37.60    5.70
  -2  -5  -7   39.90    6.10
   2   5   7   45.60    6.50
  -2   5  -7   50.69    6.90
  -2   5  -7   52.49    6.40
  -3  -5  -7   35.50    6.60
   3  -5   7   48.60    6.90
  -3  -5  -7   45.10    6.70
   3   5   7   28.70    5.50
  -3   5  -7   40.30    6.70
  -4  -5  -7   25.00    6.30
   4  -5   7   28.20    5.50
  -4  -5  -7   29.60    6.10
  -4   5  -7   27.70    5.90
   8  -6  -7    5.90    3.90
  -8  -6   7   -2.30    2.10
  -8   6   7    0.50    3.00
   8   6  -7   -0.60    2.90
   7  -6  -7   35.90    5.60
  -7  -6   7   42.40    6.80
   7  -6  -7   33.50    6.00
   7   6  -7   27.90    6.00
  -7   6   7   27.60    5.40
  -6  -6   7   19.10    4.40
   6  -6  -7   12.50    3.50
   6  -6  -7   14.60    3.80
  -6   6   7   11.30    3.20
  -6   6   7   19.90    4.30
   6   6  -7   14.00    4.50
   5  -6  -7    5.70    2.80
   5  -6  -7    4.90    2.50
  -5  -6   7    7.30    3.10
  -5  -6   7    5.90    3.70
  -5   6   7    2.70    2.50
  -5   6   7    0.60    2.10
   5   6  -7    7.50    3.60
   4  -6  -7  133.39    7.60
  -4  -6   7  127.69    8.10
   4  -6  -7  164.68    8.80
  -4   6   7  129.09    6.60
  -4   6   7  132.99    8.40
   4   6  -7  100.79    7.70
   4   6  -7  125.79    7.80
   3  -6  -7   59.39    5.70
   3  -6  -7   53.09    6.10
  -3  -6   7   66.79    6.60
   3   6  -7   67.09    6.90
  -3   6   7   73.19    8.00
   3   6  -7   55.19    6.40
   2  -6  -7   43.20    5.60
  -2  -6   7   47.20    5.80
   2  -6  -7   51.49    5.20
   2   6  -7   44.20    5.50
  -2   6   7   40.50    5.60
   2   6  -7   32.50    5.40
   1  -6  -7   20.00    3.90
   1  -6  -7   18.30    4.20
  -1  -6   7   14.00    3.40
  -1   6   7   16.80    4.20
   1   6  -7   13.50    3.30
   1   6  -7   13.20    3.90
   0  -6  -7   -0.80    2.20
   0  -6  -7    1.20    2.30
   0  -6   7    3.00    2.20
   0   6   7    1.20    2.60
   0   6  -7   -2.60    1.60
   0   6  -7    0.30    2.40
  -1  -6  -7   95.99    7.80
   1  -6   7  100.69    7.40
  -1  -6  -7   90.89    7.30
  -1   6  -7   96.29    9.40
  -1   6  -7   98.09    6.90
   1   6   7  107.19    8.10
   2  -6   7   41.50    5.70
  -2  -6  -7   43.60    6.40
  -2  -6  -7   39.90    5.90
  -2   6  -7   63.39    8.10
   2   6   7   38.10    6.00
  -3  -6  -7   16.10    4.90
   3  -6   7   20.10    5.00
  -3  -6  -7   16.20    4.40
  -3   6  -7    7.30    3.80
   3   6   7   21.00    5.00
   4  -6   7   23.30    5.50
  -4  -6  -7   24.50    5.60
  -4  -6  -7   25.20    5.90
  -4   6  -7   25.50    6.20
   4   6   7   22.20    5.80
   8  -7  -7  295.27   15.00
  -8  -7   7  320.97   15.00
   8   7  -7  264.37   15.10
  -8   7   7  285.67   14.10
   7  -7  -7    2.50    3.10
  -7  -7   7   -0.60    2.00
   7   7  -7    2.10    3.20
  -7   7   7   -2.20    2.00
   6  -7  -7   64.19    6.90
   6  -7  -7   56.69    6.90
  -6  -7   7   77.39    8.70
   6   7  -7   61.29    8.20
  -6   7   7   63.19    7.00
  -6   7   7   65.09    7.20
  -5  -7   7    9.30    3.50
   5  -7  -7    1.60    2.40
   5  -7  -7    3.90    2.40
   5   7  -7    1.20    2.50
  -5   7   7    1.10    1.90
  -5   7   7    3.00    2.50
  -4  -7   7    0.90    1.90
   4  -7  -7    0.70    2.10
   4  -7  -7   -2.20    2.10
   4   7  -7   -3.00    1.80
  -4   7   7   -0.70    2.00
   4   7  -7    1.50    2.40
   3  -7  -7  518.35   14.90
   3  -7  -7  512.35   15.90
  -3  -7   7  485.35   15.40
   3   7  -7  507.45   16.20
   3   7  -7  499.75   16.10
  -3   7   7  491.25   16.70
   2  -7  -7   45.90    5.20
   2  -7  -7   55.49    6.80
  -2  -7   7   51.89    5.90
  -2   7   7   46.30    6.30
   2   7  -7   44.90    5.40
   2   7  -7   40.80    5.80
  -1  -7   7    1.00    2.00
   1  -7  -7   -1.20    2.00
   1  -7  -7    2.20    2.30
  -1   7   7    1.80    2.60
   1   7  -7    2.50    2.90
   1   7  -7   -0.40    2.00
   0  -7  -7  202.48   10.60
   0  -7  -7  175.28    9.00
   0  -7   7  202.98    9.80
   0   7   7  194.08   10.80
   0   7  -7  194.88   11.20
   0   7  -7  183.68    9.00
  -1  -7  -7    3.60    2.70
   1  -7   7    3.00    2.90
  -1  -7  -7    0.10    2.50
   1   7   7    3.10    3.00
  -1   7  -7    1.50    2.20
  -1   7  -7   -0.50    2.60
  -2  -7  -7  337.67   14.90
  -2  -7  -7  345.57   14.70
   2  -7   7  330.97   13.80
  -2   7  -7  345.57   15.50
   2   7   7  351.16   14.80
  -3  -7  -7    3.50    3.00
  -3  -7  -7    0.30    3.20
   3  -7   7   -1.10    2.30
   3   7   7    5.00    3.10
  -3   7  -7    4.70    3.40
  -8  -8   7   35.70    6.70
   8  -8  -7   23.80    5.70
  -8   8   7   24.30    5.40
   8   8  -7   25.30    6.40
   7  -8  -7   20.10    5.20
  -7  -8   7   25.50    5.30
  -7   8   7   24.70    5.30
   7   8  -7   25.30    5.90
   6  -8  -7   -1.10    2.10
  -6  -8   7   -0.10    2.10
   6  -8  -7   -1.50    2.50
  -6   8   7    0.20    2.30
   6   8  -7   -0.90    2.20
  -6   8   7    4.50    2.60
   5  -8  -7    4.20    2.50
   5  -8  -7    2.60    2.60
  -5  -8   7   -1.80    2.20
  -5   8   7    4.90    2.20
  -5   8   7    7.40    2.80
   5   8  -7    4.50    2.90
  -4  -8   7    9.00    3.20
   4  -8  -7   13.00    3.40
   4  -8  -7    6.40    3.00
   4   8  -7    7.40    3.00
  -4   8   7    7.60    3.40
   4   8  -7   10.10    3.70
   3  -8  -7  257.77   10.90
  -3  -8   7  246.58   11.00
   3  -8  -7  267.87   11.00
  -3   8   7  241.28   11.60
   3   8  -7  258.67   11.60
   3   8  -7  235.58   11.20
   2  -8  -7    5.90    3.00
  -2  -8   7    8.10    3.10
   2  -8  -7    6.20    2.80
   2   8  -7    4.10    2.50
  -2   8   7    5.20    3.20
   2   8  -7    4.50    2.90
   1  -8  -7  110.39    7.90
  -1  -8   7  105.39    7.40
   1  -8  -7  108.89    7.50
  -1   8   7  104.99    8.30
   1   8  -7  109.99    8.80
   1   8  -7  112.19    7.10
   0  -8   7   -0.10    2.00
   0  -8  -7   -4.50    2.10
   0  -8  -7   -0.50    2.30
   0   8  -7    3.30    2.20
   0   8  -7   -2.60    2.70
   0   8   7   -0.30    2.30
   1  -8   7   62.09    7.10
  -1  -8  -7   59.69    6.90
  -1  -8  -7   52.69    7.30
   1   8   7   51.79    6.80
  -1   8  -7   61.99    7.70
  -1   8  -7   52.89    8.90
   2  -8   7    9.50    3.90
  -2  -8  -7    3.00    3.00
  -2  -8  -7    9.30    3.80
  -2   8  -7    5.80    3.20
   2   8   7    3.20    3.30
  -3  -8  -7    4.20    3.10
   3  -8   7   -0.40    2.70
  -3  -8  -7    0.40    3.30
  -3   8  -7   -2.50    2.50
   3   8   7    2.20    2.90
   8  -9  -7   31.80    6.10
  -8  -9   7   41.50    6.90
   8   9  -7   24.20    6.70
  -8   9   7   29.80    6.00
  -7  -9   7    4.60    2.90
   7  -9  -7    0.90    3.10
  -7   9   7    0.80    2.50
   7   9  -7   -2.50    2.80
   6  -9  -7   51.39    7.20
  -6  -9   7   65.69    8.20
   6   9  -7   71.49    9.00
  -6   9   7   59.09    7.30
  -6   9   7   66.99    6.90
   5  -9  -7   37.90    5.20
  -5  -9   7   47.80    6.50
   5  -9  -7   42.70    6.00
  -5   9   7   39.00    5.70
   5   9  -7   38.20    6.10
   4  -9  -7   49.10    6.10
  -4  -9   7   64.39    7.20
   4  -9  -7   69.49    7.10
   4   9  -7   72.29    7.10
   4   9  -7   60.69    7.50
  -4   9   7   52.69    6.90
   3  -9  -7  108.69    7.70
   3  -9  -7  129.39    8.20
  -3  -9   7  119.49    8.10
   3   9  -7  134.59    8.40
   3   9  -7  124.89    8.30
  -3   9   7  110.39    8.40
  -2  -9   7  181.98    9.70
   2  -9  -7  178.68    9.50
   2  -9  -7  185.38    9.50
  -2   9   7  186.68   10.60
   2   9  -7  169.18    9.20
   2   9  -7  190.38   10.80
  -1  -9   7   32.40    5.10
   1  -9  -7   55.59    7.00
   1  -9  -7   43.50    5.50
   1   9  -7   33.80    5.90
  -1   9   7   42.40    6.20
   1   9  -7   45.30    5.60
   0  -9  -7    5.70    3.10
   0  -9  -7   11.50    3.60
   0  -9   7    8.80    3.30
   0   9   7    7.50    3.70
   0   9  -7    8.40    2.80
   0   9  -7    5.40    3.70
   1  -9   7    4.30    3.00
  -1  -9  -7    4.80    3.30
  -1  -9  -7    2.50    2.50
   1   9   7    2.70    3.20
  -1   9  -7   -0.60    2.90
   2  -9   7    2.20    3.30
  -2  -9  -7    3.30    3.20
  -2  -9  -7    7.10    3.60
   2   9   7   10.40    4.30
  -2   9  -7   10.50    4.00
   3  -9   7   98.59   10.00
  -3  -9  -7   94.99    9.80
  -3  -9  -7  126.69   12.10
   3   9   7   95.99   10.80
  -3   9  -7  107.49   10.80
   7 -10  -7    3.00    3.60
  -7 -10   7    0.50    2.60
  -7  10   7    5.10    3.30
   7  10  -7    6.70    4.10
   6 -10  -7   82.89    8.80
  -6 -10   7   87.69    9.60
  -6  10   7   80.99    8.70
   6  10  -7  124.49   11.90
   5 -10  -7    4.30    3.30
  -5 -10   7   10.10    3.60
   5 -10  -7    1.50    2.20
   5  10  -7    2.60    3.00
  -5  10   7    8.70    3.50
   4 -10  -7  525.95   15.90
  -4 -10   7  518.05   17.50
   4 -10  -7  527.75   16.90
   4  10  -7  508.55   16.10
   4  10  -7  518.75   18.10
  -4  10   7  501.35   17.60
   3 -10  -7   15.20    3.80
  -3 -10   7   32.30    5.60
   3 -10  -7   23.90    4.60
  -3  10   7   23.20    5.10
   3  10  -7   21.70    4.40
   3  10  -7   23.40    4.90
   2 -10  -7  468.75   15.50
   2 -10  -7  435.56   15.20
  -2 -10   7  438.46   15.40
   2  10  -7  436.06   16.30
  -2  10   7  438.16   16.60
   2  10  -7  430.36   14.80
   1 -10  -7  140.89    9.10
  -1 -10   7  131.19    8.50
   1 -10  -7  126.49    8.50
  -1  10   7  128.89    9.20
   1  10  -7  138.29    8.00
   1  10  -7  125.49    9.70
   0 -10  -7    9.20    3.70
   0 -10   7    6.00    3.10
   0 -10  -7    3.00    2.90
   0  10   7    6.40    3.60
   0  10  -7    3.20    2.50
   0  10  -7    1.40    3.40
  -1 -10  -7   27.70    5.50
  -1 -10  -7   40.10    6.10
   1 -10   7   44.50    6.80
   1  10   7   37.00    6.50
  -1  10  -7   31.30    6.10
  -2 -10  -7   68.59    8.50
   2 -10   7   80.59    9.00
  -2 -10  -7   75.59    8.80
  -2  10  -7   76.79    9.40
   2  10   7   87.89    9.70
  -3 -10  -7    9.80    4.60
   3 -10   7   17.10    5.40
  -3 -10  -7    7.90    4.30
  -3  10  -7   15.40    5.10
  -7 -11   7   12.00    4.00
   7 -11  -7    7.00    4.00
   7  11  -7   13.40    4.90
  -6 -11   7   18.70    4.70
   6 -11  -7   12.10    4.20
  -6  11   7   21.50    5.30
   6  11  -7   18.00    5.00
  -5 -11   7    3.70    2.70
   5 -11  -7   -1.90    2.50
  -5  11   7    2.50    2.50
   5  11  -7   -2.90    1.90
   4 -11  -7   29.20    5.30
   4 -11  -7   39.00    5.50
  -4 -11   7   27.70    5.40
   4  11  -7   24.60    5.00
  -4  11   7   35.20    6.00
   4  11  -7   27.50    5.00
   3 -11  -7   56.99    6.70
   3 -11  -7   71.19    7.30
  -3 -11   7   55.29    7.10
   3  11  -7   65.59    7.20
   3  11  -7   59.59    6.90
  -3  11   7   80.99    9.30
   2 -11  -7   12.60    3.80
  -2 -11   7   17.70    4.40
   2 -11  -7   12.10    3.60
  -2  11   7    7.30    3.60
   2  11  -7   14.50    4.50
   2  11  -7    9.80    3.30
  -1 -11   7   50.79    6.60
   1 -11  -7   53.09    6.60
   1 -11  -7   45.30    6.10
   1  11  -7   39.30    6.30
  -1  11   7   25.60    5.10
   1  11  -7   48.40    5.80
   0 -11  -7    2.60    3.00
   0 -11  -7   -2.90    2.20
   0 -11   7    2.10    2.70
   0  11   7    0.20    2.80
   0  11  -7    0.30    2.90
  -1 -11  -7    1.10    3.20
   1 -11   7   -0.50    3.00
  -1 -11  -7    2.70    3.10
   1  11   7    5.40    3.40
  -1  11  -7   -1.50    3.00
  -2 -11  -7   19.30    5.10
  -2 -11  -7   14.70    4.30
   2 -11   7   15.60    4.50
  -2  11  -7   16.30    5.10
   2  11   7   18.30    4.80
  -3 -11  -7   42.00    7.40
   3 -11   7   48.90    7.60
  -3 -11  -7   48.30    7.40
  -3  11  -7   47.40    7.50
   3  11   7   29.50    6.50
   7 -12  -7   18.20    5.30
  -7 -12   7   31.40    6.10
   7  12  -7   24.70    6.00
   6 -12  -7   -0.50    2.70
  -6 -12   7    0.10    2.80
   6  12  -7    2.60    3.10
  -6  12   7    4.00    3.20
   5 -12  -7   -2.50    3.00
  -5 -12   7    1.80    2.90
   5  12  -7    0.40    2.70
  -5  12   7    3.10    2.90
  -4 -12   7   41.30    6.20
   4 -12  -7   45.00    6.30
   4 -12  -7   57.99    6.60
   4  12  -7   56.69    6.90
  -4  12   7   40.40    6.70
   4  12  -7   53.19    7.10
  -3 -12   7    4.90    2.70
   3 -12  -7    5.30    3.30
   3 -12  -7    0.60    2.30
   3  12  -7    1.80    2.40
   3  12  -7    0.30    2.80
  -3  12   7    0.60    2.70
   2 -12  -7   24.80    4.70
  -2 -12   7   26.00    4.90
   2 -12  -7   24.50    4.80
  -2  12   7   29.00    5.60
   2  12  -7   14.70    4.40
   2  12  -7   22.60    4.40
  -1 -12   7  111.89    8.70
   1 -12  -7  102.89    8.60
   1 -12  -7   94.89    7.80
   1  12  -7   95.79    7.30
  -1  12   7   86.39    9.50
   1  12  -7   98.59   10.10
   0 -12  -7   61.39    7.40
   0 -12   7   57.99    7.10
   0 -12  -7   63.59    7.90
   0  12  -7   64.59    8.30
   0  12   7   88.29   10.10
  -1 -12  -7   -2.50    2.80
   1 -12   7   -4.00    2.40
  -1 -12  -7    1.80    3.20
   1  12   7   -2.90    2.60
  -1  12  -7   -4.10    2.40
   2 -12   7    1.10    2.90
  -2 -12  -7    6.40    3.80
  -2 -12  -7    1.50    3.60
  -2  12  -7    8.20    4.10
   2  12   7   -1.20    3.00
   7 -13  -7    8.70    4.10
  -7 -13   7    8.00    3.50
   7  13  -7    5.90    3.80
   6 -13  -7   -3.40    3.00
  -6 -13   7   -3.70    2.00
  -6  13   7   -2.10    2.70
   6  13  -7    1.80    2.60
  -5 -13   7  107.49   10.40
   5 -13  -7  112.09    9.60
  -5  13   7  118.19    9.60
   5  13  -7  130.09   12.40
   4 -13  -7   34.90    6.10
  -4 -13   7   44.40    6.60
  -4  13   7   44.80    7.00
   4  13  -7   38.50    6.40
   4  13  -7   50.09    6.80
  -3 -13   7   72.79    8.50
   3 -13  -7   60.99    6.80
   3 -13  -7   42.00    6.60
  -3  13   7   64.29    8.40
   3  13  -7   61.89    7.50
   3  13  -7   64.79    7.60
   2 -13  -7   29.10    5.50
   2 -13  -7   23.90    4.90
  -2 -13   7   26.80    5.00
   2  13  -7   40.20    6.60
  -2  13   7   26.00    5.90
   2  13  -7   25.30    4.80
   1 -13  -7   84.89    8.60
  -1 -13   7   88.79    9.20
   1 -13  -7   78.79    8.80
  -1  13   7   87.99    9.50
   1  13  -7   75.89    9.00
   0 -13  -7   32.90    6.20
   0 -13   7   35.00    6.00
   0 -13  -7   34.60    6.20
   0  13   7   27.80    6.10
   0  13  -7   34.20    6.20
  -1 -13  -7   -2.30    2.60
  -1 -13  -7   -3.70    2.40
   1 -13   7   -1.10    2.70
   1  13   7    0.00    3.30
  -1  13  -7    4.50    3.10
  -2 -13  -7   18.60    5.20
  -2 -13  -7   21.30    5.50
   2 -13   7   21.10    5.80
   2  13   7   12.50    5.10
  -2  13  -7   20.80    5.20
  -6 -14   7   -1.50    2.60
   6 -14  -7    0.40    3.20
  -6  14   7    1.80    3.00
   6  14  -7   -0.70    2.60
  -5 -14   7    4.60    3.10
   5 -14  -7    2.10    3.40
  -5  14   7    3.80    3.30
   5  14  -7   -1.50    2.90
  -4 -14   7  216.08   11.90
   4 -14  -7  218.98   12.40
   4  14  -7  212.58   11.50
  -4  14   7  230.18   13.00
   4  14  -7  202.78   11.90
   3 -14  -7    3.40    3.00
   3 -14  -7    1.30    3.20
  -3 -14   7    6.90    3.10
  -3  14   7    7.00    3.40
   3  14  -7    1.80    2.90
   3  14  -7    4.00    3.00
  -2 -14   7    9.40    3.40
   2 -14  -7    9.90    3.60
   2 -14  -7   18.20    4.80
   2  14  -7    9.30    3.90
  -2  14   7   12.90    4.90
   2  14  -7    9.90    4.10
   1 -14  -7   15.70    4.90
  -1 -14   7   10.20    4.20
   1 -14  -7   14.10    4.20
  -1  14   7   12.00    4.50
   1  14  -7   10.20    4.30
   0 -14   7   26.30    5.60
   0 -14  -7   33.40    6.10
   0 -14  -7   29.00    5.90
   0  14   7   28.00    6.40
   0  14  -7   26.00    6.30
  -1 -14  -7   -2.20    2.70
  -1 -14  -7    2.30    3.50
   1 -14   7    0.30    3.10
   1  14   7    0.90    3.00
  -1  14  -7    2.10    3.10
  -2 -14  -7   52.59    8.60
  -2 -14  -7   21.20    5.70
   2 -14   7   31.70    6.40
   2  14   7   32.10    6.60
  -2  14  -7   42.70    7.50
   2  14   7   34.40    7.00
   6 -15  -7    2.20    3.40
  -6 -15   7    8.20    3.50
  -6  15   7    4.50    3.70
   6  15  -7    1.60    3.10
   5 -15  -7  209.38   12.70
  -5 -15   7  205.08   11.90
  -5  15   7  212.58   12.70
   5  15  -7  242.18   13.80
  -4 -15   7  387.46   16.60
   4 -15  -7  406.66   17.20
  -4  15   7  375.46   17.20
   4  15  -7  422.86   17.10
   3 -15  -7    2.00    3.30
  -3 -15   7    3.10    2.90
  -3  15   7   -0.80    2.50
   3  15  -7    0.50    2.90
   3  15  -7    2.50    2.80
   2 -15  -7    8.40    3.80
  -2 -15   7   12.60    3.90
   2 -15  -7   13.10    3.90
  -2  15   7   11.00    4.30
   2  15  -7    4.20    3.70
   1 -15  -7   26.30    5.20
  -1 -15   7   29.70    5.80
   1 -15  -7   29.40    6.40
  -1  15   7   28.70    6.50
   1  15  -7   18.40    5.80
   0 -15  -7    6.40    3.60
   0 -15   7   13.10    5.30
   0 -15  -7    3.20    3.70
   0  15  -7   14.00    5.10
   0  15   7    8.70    4.00
  -1 -15  -7   11.40    4.40
   1 -15   7    5.40    4.10
  -1 -15  -7    2.80    3.60
  -1  15  -7    6.20    3.90
   1  15   7   -2.70    2.70
   5 -16  -7    5.90    4.10
  -5 -16   7   -0.20    3.00
   5  16  -7    1.90    3.60
  -5  16   7   -3.70    2.70
  -4 -16   7   -2.20    2.80
   4 -16  -7    0.50    2.90
   4  16  -7    4.20    3.00
  -4  16   7   -0.50    2.90
  -3 -16   7   35.50    6.40
   3 -16  -7   38.00    6.40
  -3  16   7   35.40    6.80
   3  16  -7   34.20    6.40
   2 -16  -7    4.70    3.00
  -2 -16   7    5.80    3.50
   2 -16  -7    3.90    3.50
  -2  16   7    0.80    3.20
   2  16  -7    3.60    3.60
  -1 -16   7   13.50    4.50
   1 -16  -7    7.50    3.60
   1 -16  -7    2.80    3.60
   1  16  -7    8.50    4.60
  -1  16   7   13.70    4.70
   0 -16  -7   54.09    8.10
   0 -16   7   65.59    8.40
   0 -16  -7   75.79    9.00
   0  16  -7   67.79   10.00
   0  16   7   76.79    9.60
   1 -16   7   -0.70    3.10
  -1 -16  -7    4.40    3.80
  -1 -16  -7   -0.10    3.40
   1  16   7   -2.10    3.10
  -1  16  -7   -1.60    2.90
   4 -17  -7  143.79   11.30
  -4 -17   7  134.39   10.50
   4  17  -7  104.29   10.60
  -4  17   7  140.89   10.90
  -3 -17   7   20.40    5.00
   3 -17  -7   22.20    5.50
   3  17  -7   17.20    5.20
  -3  17   7   22.50    6.30
  -2 -17   7    4.20    3.10
   2 -17  -7    5.40    3.90
   2  17  -7    3.70    3.70
  -2  17   7   -0.80    3.20
   1 -17  -7   27.80    6.70
   1 -17  -7   28.00    5.50
  -1 -17   7   28.80    6.10
  -1  17   7   20.60    5.60
   1  17  -7   25.20    6.40
   0 -17  -7   10.30    5.20
   0 -17  -7   14.40    4.70
   0 -17   7   11.00    4.70
   0  17  -7   16.30    5.80
   0  17   7    8.70    4.60
   3 -18  -7   -1.40    3.20
  -3 -18   7    1.10    3.10
  -3  18   7   -1.50    2.50
   3  18  -7    7.90    4.20
  -2 -18   7   25.30    5.70
   2 -18  -7   26.20    6.10
   2  18  -7   34.40    7.10
  -2  18   7   23.90    6.30
  -8   0   8   -0.90    2.70
   8   0  -8    6.10    3.70
   7   0  -8   47.50    7.10
  -7   0   8   57.39    7.50
   6   0  -8   30.60    5.20
  -6   0   8   39.40    6.10
  -5   0   8    3.90    2.70
  -5   0   8    6.60    2.80
   5   0  -8    5.30    3.10
  -4   0   8   68.39    7.30
   4   0  -8   64.39    7.50
  -4   0   8   76.39    6.00
   3   0  -8  926.11   23.40
  -3   0   8  877.81   22.60
  -3   0   8  868.71   19.70
  -2   0   8 1159.08   26.90
  -2   0   8 1192.08   23.40
   2   0  -8 1188.58   26.70
  -1   0   8   23.30    4.90
  -1   0   8   25.50    3.70
   1   0  -8   27.00    4.90
   0   0  -8   18.90    4.40
   0   0   8   14.00    4.50
   1   0   8  116.69    9.20
  -1   0  -8  102.99    8.50
  -2   0  -8   -1.50    2.60
   2   0   8    2.00    2.80
   3   0   8   92.59   10.30
  -3   0  -8   91.09    9.30
  -8  -1   8   48.80    7.30
   8  -1  -8   48.20    7.40
  -8   1   8   40.00    7.00
   8   1  -8   48.70    7.40
   7  -1  -8    0.60    2.80
  -7  -1   8    2.00    2.50
  -7   1   8    3.00    3.00
   7   1  -8   -2.50    2.30
   6  -1  -8  268.17   12.80
  -6  -1   8  270.97   12.30
   6   1  -8  270.97   13.20
  -6   1   8  270.87   12.10
  -5  -1   8  125.49    7.80
  -5  -1   8  144.19    8.40
   5  -1  -8  144.09    9.30
  -5   1   8  149.99    8.50
  -5   1   8  129.69    7.90
   5   1  -8  126.59    8.70
  -4  -1   8   36.40    5.00
  -4  -1   8   39.60    5.70
   4  -1  -8   31.50    5.00
  -4   1   8   35.40    5.50
   4   1  -8   34.20    5.50
  -4   1   8   34.50    4.90
  -3  -1   8  459.75   14.10
   3  -1  -8  485.35   16.00
  -3  -1   8  479.25   15.80
  -3   1   8  457.05   13.50
  -3   1   8  463.15   15.80
   3   1  -8  469.55   15.70
   2  -1  -8  136.89    8.60
  -2  -1   8  126.69    6.90
  -2  -1   8  121.99    8.50
  -2   1   8  124.89    8.60
  -2   1   8  138.49    6.80
   2   1  -8  119.39    8.10
  -1  -1   8   23.50    3.80
   1  -1  -8   18.10    4.10
  -1  -1   8   13.90    4.10
   1   1  -8   16.90    4.00
  -1   1   8   11.50    3.80
   0  -1   8   22.30    5.20
   0  -1  -8   10.00    3.90
   0  -1   8   14.30    3.10
   0   1   8    8.80    3.60
   0   1  -8   20.50    4.80
  -1  -1  -8   24.30    5.20
   1  -1   8   27.30    5.80
   1   1   8   23.30    5.40
  -1   1  -8   22.30    4.80
   2  -1   8  126.99   10.10
  -2  -1  -8  130.79    9.60
   2   1   8  122.79    9.60
  -2   1  -8  122.19    9.30
  -3  -1  -8   16.30    5.30
   3  -1   8   10.10    4.80
  -3   1  -8   17.50    4.90
   3   1   8   10.70    4.30
  -8  -2   8    3.80    3.50
   8  -2  -8    0.60    2.90
  -8   2   8    4.60    3.50
   8   2  -8    0.80    2.90
  -7  -2   8    5.60    3.00
   7  -2  -8    2.00    2.60
  -7   2   8    2.70    2.80
   7   2  -8    3.30    3.10
   6  -2  -8   84.39    8.30
  -6  -2   8   97.59    7.70
  -6   2   8   98.69    9.40
   6   2  -8   99.89    9.60
   5  -2  -8   -0.40    2.10
  -5  -2   8   -0.20    2.00
  -5  -2   8    1.90    2.60
   5   2  -8    0.10    2.20
  -5   2   8    2.10    2.10
  -5   2   8   -0.90    1.70
   4  -2  -8   57.89    6.50
  -4  -2   8   74.59    7.40
  -4  -2   8   55.79    6.40
  -4   2   8   73.19    7.70
  -4   2   8   68.89    6.50
   4   2  -8   61.29    7.40
  -3  -2   8   11.90    3.20
   3  -2  -8   12.10    3.70
  -3  -2   8    6.40    2.90
   3   2  -8    8.90    3.10
  -3   2   8    9.10    2.50
  -3   2   8   15.30    4.20
  -2  -2   8   89.79    7.50
  -2  -2   8   83.19    6.10
   2  -2  -8   88.49    7.10
  -2   2   8   88.99    8.70
   2   2  -8   78.09    7.70
  -2   2   8   90.39    5.80
  -1  -2   8    2.60    2.20
   1  -2  -8    3.00    2.50
  -1  -2   8    0.40    2.60
  -1   2   8    5.60    3.20
   1   2  -8    2.10    2.30
   1   2  -8    7.00    3.20
   0  -2  -8    3.40    3.00
   0  -2   8    3.40    2.30
   0   2   8   -1.80    2.70
   0   2  -8   -1.30    2.20
   0   2  -8    0.70    2.50
   1  -2   8   36.50    5.20
  -1  -2  -8   39.00    6.50
  -1   2  -8   42.10    6.40
   1   2   8   35.60    6.40
  -1   2  -8   39.80    6.70
  -2  -2  -8   12.80    4.00
   2  -2   8   16.10    5.00
   2   2   8    9.80    4.30
  -2   2  -8   25.50    5.70
  -2   2  -8   12.00    4.20
   3  -2   8    0.10    3.50
  -3  -2  -8   -1.20    2.60
   3   2   8    0.20    2.60
  -3   2  -8   -1.40    2.60
  -8  -3   8    7.20    3.60
   8  -3  -8    7.20    3.60
  -8   3   8    2.80    3.30
   8   3  -8    5.40    4.00
  -7  -3   8   70.09    8.40
   7  -3  -8   66.39    7.60
   7   3  -8   78.59    9.50
  -7   3   8   68.49    8.10
  -6  -3   8    8.10    3.30
   6  -3  -8    4.40    2.90
  -6   3   8    6.20    3.10
   6   3  -8    3.60    2.90
  -6   3   8    8.70    3.10
  -5  -3   8   -0.50    2.20
   5  -3  -8    0.20    2.30
  -5  -3   8   -1.10    1.80
  -5   3   8   -6.30    1.50
   5   3  -8    1.30    2.40
  -5   3   8    2.50    2.30
  -4  -3   8   25.10    4.80
   4  -3  -8   20.00    4.30
  -4  -3   8   19.40    4.00
  -4   3   8   16.10    3.30
   4   3  -8   20.80    4.50
  -4   3   8   19.40    4.40
  -3  -3   8  272.67   11.10
   3  -3  -8  276.77   12.10
  -3  -3   8  255.47   11.80
   3   3  -8  283.07   12.00
  -3   3   8  246.58   11.90
  -3   3   8  264.17    9.70
  -2  -3   8   68.29    6.50
   2  -3  -8   63.19    6.90
   2   3  -8   70.89    7.40
  -2   3   8   64.89    7.60
   2   3  -8   55.79    7.20
  -1  -3   8  152.38    8.10
   1  -3  -8  129.49    8.80
  -1   3   8  136.29    9.20
   1   3  -8  134.49    9.80
   1   3  -8  141.29    8.60
   0  -3   8    1.70    2.20
   0  -3  -8   -0.10    2.30
   0   3  -8   -3.90    2.40
   0   3   8    0.80    2.80
   0   3  -8    0.60    2.20
   1  -3   8   14.00    3.90
  -1  -3  -8    7.70    3.80
   1   3   8   16.70    4.80
  -1   3  -8   16.20    4.20
  -1   3  -8   18.20    5.50
  -2  -3  -8   12.80    4.40
  -2   3  -8   11.70    4.00
  -2   3  -8    8.70    3.90
   2   3   8   15.60    4.40
  -3  -3  -8   22.00    5.20
   3   3   8   34.50    6.60
  -3   3  -8   16.40    5.20
  -8  -4   8   -0.80    3.00
   8  -4  -8    0.30    2.50
   8   4  -8    0.50    3.10
  -8   4   8    1.10    2.60
   7  -4  -8   35.20    5.80
  -7  -4   8   43.60    7.00
   7   4  -8   44.90    7.70
  -7   4   8   45.80    6.60
  -6  -4   8    2.90    2.60
   6  -4  -8   -0.70    2.20
  -6   4   8   -1.50    2.20
  -6   4   8    2.80    2.60
   6   4  -8    2.30    2.60
  -5  -4   8    6.10    3.00
   5  -4  -8    5.70    3.00
  -5  -4   8    5.00    2.60
  -5   4   8    3.50    2.70
   5   4  -8    3.00    2.80
  -5   4   8   10.70    3.20
  -4  -4   8   18.10    3.90
   4  -4  -8   11.00    3.40
  -4  -4   8   13.90    3.50
  -4   4   8   16.20    3.20
  -4   4   8    3.60    2.80
   4   4  -8   10.40    3.50
  -3  -4   8  142.19    8.30
   3  -4  -8  158.08    9.20
   3   4  -8  135.49    9.10
  -3   4   8  120.29    8.50
   3   4  -8  138.39    8.70
   2  -4  -8   60.39    7.20
  -2  -4   8   68.89    7.00
  -2   4   8   61.39    7.30
   2   4  -8   66.69    7.20
   2   4  -8   79.39    8.30
  -1  -4   8  117.19    7.20
   1  -4  -8  101.19    8.00
  -1   4   8  126.09    9.00
   1   4  -8  103.59    7.70
   1   4  -8  114.69    9.00
   0  -4  -8    8.10    3.40
   0  -4   8    9.60    3.10
   0   4  -8   16.60    4.80
   0   4  -8    9.90    3.20
   0   4   8   14.70    4.30
  -1  -4  -8    1.20    2.50
   1  -4   8    7.20    2.90
  -1   4  -8    7.50    3.70
   1   4   8    2.50    2.90
  -1   4  -8   10.10    3.30
   2  -4   8   34.20    5.80
  -2  -4  -8   40.10    6.20
  -2   4  -8   36.10    6.70
  -2   4  -8   43.80    6.70
   2   4   8   39.90    7.10
  -3  -4  -8   28.20    5.80
   3   4   8   25.40    5.70
  -3   4  -8   21.70    5.50
  -8  -5   8   -2.70    2.70
   8   5  -8   -1.40    3.20
  -8   5   8    1.50    3.10
   7  -5  -8   16.30    4.40
  -7  -5   8   31.10    6.00
   7   5  -8   29.30    6.40
  -7   5   8   34.20    5.90
   6  -5  -8    9.10    3.40
  -6  -5   8   10.10    3.80
  -6   5   8    7.90    3.40
  -6   5   8   11.50    3.70
   6   5  -8   13.30    4.40
   5  -5  -8   82.99    8.30
  -5  -5   8   76.09    6.30
  -5  -5   8   87.79    8.30
   5   5  -8   64.09    7.20
  -5   5   8   95.89    6.50
  -5   5   8   87.89    8.80
  -4  -5   8  207.78   10.40
  -4  -5   8  212.88   10.40
   4  -5  -8  224.18   11.10
   4   5  -8  210.98   10.60
   4   5  -8  220.58   11.30
  -4   5   8  213.38   11.10
  -3  -5   8  553.64   16.60
   3  -5  -8  558.24   17.40
  -3   5   8  548.95   18.00
   3   5  -8  534.55   17.70
   3   5  -8  559.74   17.60
  -2  -5   8   66.59    6.60
   2  -5  -8   81.99    8.30
   2   5  -8   62.29    6.80
  -2   5   8   56.59    7.20
   2   5  -8   67.09    8.00
  -1  -5   8   42.10    5.50
   1  -5  -8   53.49    6.80
   1   5  -8   44.20    6.30
   1   5  -8   43.80    5.70
  -1   5   8   47.00    6.90
   0  -5  -8   30.10    5.60
   0  -5   8   25.20    4.50
   0   5  -8   29.50    5.00
   0   5   8   27.50    5.70
   0   5  -8   26.00    5.50
  -1  -5  -8   22.40    5.20
   1  -5   8   29.10    5.00
   1   5   8   30.90    6.20
  -1   5  -8   26.60    5.00
  -1   5  -8   11.60    4.30
   2  -5   8    5.00    3.00
  -2  -5  -8   11.60    4.10
   2   5   8    6.00    3.30
  -2   5  -8    6.00    5.30
  -2   5  -8    7.90    4.10
  -3  -5  -8   16.70    4.80
   3  -5   8   14.60    5.20
   3   5   8   16.70    4.70
  -3   5  -8   15.30    5.50
  -8  -6   8   21.80    5.90
   8   6  -8   28.40    6.50
  -8   6   8   19.00    5.10
   7  -6  -8   26.00    5.20
  -7  -6   8   33.00    6.10
  -7   6   8   35.90    6.10
   7   6  -8   38.20    7.40
   6  -6  -8  121.99    8.60
  -6  -6   8  134.89    9.40
  -6   6   8  131.29    8.30
   6   6  -8  136.09   10.30
  -6   6   8  111.89    8.10
   5  -6  -8  505.05   16.70
  -5  -6   8  492.95   15.50
  -5  -6   8  485.85   16.80
  -5   6   8  484.75   17.10
   5   6  -8  483.95   17.80
  -5   6   8  455.45   20.00
   4  -6  -8  145.89    9.00
  -4  -6   8  129.09    8.50
   4   6  -8  162.98    9.80
   4   6  -8  159.28    9.50
  -4   6   8  139.79    9.40
   3  -6  -8  583.74   18.20
  -3  -6   8  581.44   17.20
   3   6  -8  568.84   18.50
   3   6  -8  548.85   17.90
  -3   6   8  575.84   18.90
  -2  -6   8  265.47   11.40
   2  -6  -8  270.47   12.50
   2   6  -8  270.67   11.90
  -2   6   8  257.07   12.50
   2   6  -8  251.27   12.70
   1  -6  -8    9.00    3.80
  -1  -6   8   18.40    4.30
   1   6  -8   10.20    3.40
   1   6  -8    6.00    3.60
  -1   6   8    1.50    2.90
   0  -6  -8   -0.90    2.00
   0  -6   8   -2.30    1.80
   0   6  -8   -0.10    2.20
   0   6  -8    4.50    3.30
   0   6   8   -3.00    2.30
  -1  -6  -8    2.20    2.60
   1  -6   8    2.10    2.70
  -1   6  -8    1.10    2.70
   1   6   8    2.30    2.70
  -1   6  -8    7.40    3.30
   2  -6   8    7.50    3.60
  -2  -6  -8    0.80    2.80
   2   6   8    4.40    3.10
  -2   6  -8   -2.30    2.60
   3  -6   8   11.40    4.50
  -3  -6  -8   12.30    4.60
   3   6   8   11.90    4.60
  -3   6  -8   15.30    4.70
  -8  -7   8   39.20    6.80
   8   7  -8   37.90    7.10
  -8   7   8   33.20    6.10
  -7  -7   8   33.80    6.40
   7   7  -8   30.50    6.50
  -7   7   8   44.00    6.60
  -6  -7   8    9.60    3.80
   6  -7  -8    6.60    3.20
   6   7  -8    6.20    3.50
  -6   7   8   12.50    3.80
  -6   7   8   16.20    4.00
  -5  -7   8   79.99   11.00
  -5  -7   8   78.39    8.20
   5  -7  -8   66.99    7.50
   5   7  -8   75.99    7.70
  -5   7   8   64.99    7.70
   5   7  -8   68.09    7.80
   4  -7  -8  174.88    9.80
  -4  -7   8  134.39    8.60
   4   7  -8  157.38    9.90
   4   7  -8  149.59    9.40
  -4   7   8  156.08    9.90
  -3  -7   8   33.70    5.40
   3  -7  -8   25.20    4.90
   3   7  -8   21.40    4.80
  -3   7   8   20.30    4.40
   3   7  -8   34.30    5.70
   2  -7  -8   38.10    6.10
  -2  -7   8   45.80    5.90
  -2   7   8   37.80    6.00
   2   7  -8   34.10    5.90
   2   7  -8   39.30    5.70
  -1  -7   8   12.30    3.70
   1  -7  -8    7.70    3.50
  -1   7   8   11.90    3.80
   1   7  -8   16.20    4.80
   1   7  -8    8.60    3.40
   0  -7   8  134.49    8.70
   0  -7  -8  120.69    9.20
   0   7  -8  112.79    8.10
   0   7   8  115.99    9.40
   0   7  -8  109.29    9.20
  -1  -7  -8    7.80    3.80
   1  -7   8    7.00    3.30
   1   7   8    7.60    3.80
  -1   7  -8    2.10    3.00
  -1   7  -8    1.50    2.70
  -2  -7  -8   13.50    4.40
   2  -7   8   17.40    4.90
   2   7   8   14.30    4.80
  -2   7  -8   23.00    5.40
   8   8  -8  165.68   15.60
   7  -8  -8   52.39    7.90
  -7  -8   8   62.49    8.50
   7   8  -8   66.89    9.40
  -7   8   8   52.79    6.90
  -6  -8   8   31.10    6.10
   6  -8  -8   22.10    4.70
   6  -8  -8   19.50    4.60
   6   8  -8   25.30    5.50
  -6   8   8   30.50    5.50
   5  -8  -8    5.10    3.10
   5  -8  -8    2.60    2.70
  -5  -8   8    8.30    3.50
   5   8  -8    5.50    3.20
  -5   8   8    0.70    3.00
   4  -8  -8   68.89    7.30
  -4  -8   8   86.19    8.60
   4  -8  -8   92.99    7.10
   4   8  -8   91.89    7.30
  -4   8   8   89.69    9.20
   4   8  -8   75.99    8.60
  -3  -8   8   33.80    5.70
   3  -8  -8   21.50    4.20
   3  -8  -8   26.40    5.00
   3   8  -8   23.40    5.00
   3   8  -8   28.40    5.00
  -3   8   8   38.60    6.40
   2  -8  -8    3.30    2.70
  -2  -8   8    6.10    3.40
   2  -8  -8    0.50    2.80
   2   8  -8    1.10    2.50
  -2   8   8    1.60    2.60
   2   8  -8    0.50    2.80
   1  -8  -8   54.59    7.50
  -1  -8   8   55.29    7.10
   1  -8  -8   51.59    7.10
   1   8  -8   41.20    6.60
   1   8  -8   43.80    6.20
  -1   8   8   56.39    8.10
   0  -8   8    6.70    3.20
   0  -8  -8    7.30    3.50
   0   8  -8   10.50    4.10
   0   8   8    4.80    3.40
   0   8  -8    3.40    2.70
  -1  -8  -8   38.90    6.80
   1  -8   8   22.90    4.90
  -1   8  -8   30.20    6.20
   1   8   8   29.30    5.80
  -2  -8  -8   11.70    4.10
   2  -8   8   12.70    4.40
  -2   8  -8   11.40    4.40
   2   8   8    9.80    4.30
   7  -9  -8   10.70    4.40
  -7  -9   8   11.70    3.90
   7   9  -8    8.00    3.80
   6  -9  -8   41.20    6.70
  -6  -9   8   40.10    6.50
  -6   9   8   41.70    6.40
   6   9  -8   35.40    6.50
   5  -9  -8  126.19    8.80
  -5  -9   8  130.89    9.30
   5  -9  -8  125.19    8.40
   5   9  -8  113.29    9.40
  -5   9   8  115.39    9.10
   4  -9  -8   14.00    4.00
   4  -9  -8   17.30    4.00
  -4  -9   8   15.90    4.30
  -4   9   8   21.40    5.10
   4   9  -8   10.00    3.50
   4   9  -8   19.80    4.60
  -3  -9   8   43.60    6.20
   3  -9  -8   36.00    5.40
   3  -9  -8   35.40    5.60
  -3   9   8   34.30    6.20
   3   9  -8   30.80    5.20
   3   9  -8   35.60    5.90
   2  -9  -8   97.09    7.90
  -2  -9   8  114.19    8.50
   2  -9  -8  105.99    7.80
   2   9  -8   91.29    9.40
  -2   9   8  113.59    9.30
   2   9  -8  100.79    7.60
  -1  -9   8   90.99    8.80
   1  -9  -8   82.49    8.20
   1  -9  -8   74.29    8.20
   1   9  -8   91.39    9.50
   1   9  -8   84.99    8.20
  -1   9   8   78.59    9.00
   0  -9   8    3.40    2.90
   0  -9  -8    1.50    3.00
   0  -9  -8    2.90    3.20
   0   9  -8    0.90    2.50
   0   9  -8    2.70    3.40
   0   9   8    2.90    3.50
   1  -9   8   25.00    5.40
  -1  -9  -8   19.20    4.90
  -1  -9  -8   25.00    5.70
  -1   9  -8   25.30    5.50
   1   9   8   21.10    5.70
   2  -9   8   -0.70    3.10
  -2  -9  -8   -0.50    2.80
   2   9   8    3.70    3.70
  -2   9  -8   -2.00    2.90
  -7 -10   8   71.39    8.90
   7 -10  -8   44.60    7.00
   7  10  -8   61.49    8.80
  -6 -10   8    7.90    3.90
   6 -10  -8    4.40    3.50
  -6  10   8    8.60    3.90
   6  10  -8   14.10    4.50
   5 -10  -8   93.39    7.90
  -5 -10   8   88.59    9.50
   5 -10  -8   96.19    7.90
   5  10  -8   94.59   10.40
  -5  10   8   91.79    9.80
   4 -10  -8   -0.90    2.40
  -4 -10   8    0.60    2.90
   4 -10  -8    2.80    3.00
  -4  10   8   -0.90    2.40
   4  10  -8   -1.70    2.20
   4  10  -8    1.00    2.90
   3 -10  -8   20.20    4.70
   3 -10  -8    9.60    3.50
  -3 -10   8   14.20    4.30
   3  10  -8   14.60    4.00
   3  10  -8   14.50    4.30
  -3  10   8   13.00    4.20
   2 -10  -8  105.09    8.00
   2 -10  -8  114.89    9.00
  -2 -10   8  125.19    8.90
   2  10  -8  116.99    9.30
   2  10  -8  117.79    8.30
  -2  10   8  120.79    9.40
   1 -10  -8    2.20    3.10
  -1 -10   8    5.30    3.30
   1 -10  -8    1.40    3.10
   1  10  -8    4.90    3.60
  -1  10   8    2.10    3.10
   1  10  -8    0.20    2.20
   0 -10  -8   92.09    9.60
   0 -10   8   92.19    9.30
   0 -10  -8  100.59    8.30
   0  10   8   98.09   10.40
   0  10  -8  109.19   11.10
   1 -10   8    0.80    3.40
  -1 -10  -8   -0.70    3.00
  -1 -10  -8   -0.10    3.00
  -1  10  -8    0.00    3.00
   1  10   8   -2.90    2.50
  -2 -10  -8    5.70    3.60
   2 -10   8   11.90    4.70
  -2 -10  -8   17.40    5.10
  -2  10  -8   15.90    5.10
   2  10   8    8.90    4.10
  -7 -11   8   -0.50    2.20
   7 -11  -8   -0.10    3.50
   7  11  -8    3.10    3.40
   6 -11  -8    5.90    3.80
  -6 -11   8   10.80    3.90
  -6  11   8    9.50    3.90
   6  11  -8    4.20    3.50
   5 -11  -8    0.20    2.70
  -5 -11   8    1.70    3.40
  -5  11   8    2.70    2.90
   5  11  -8   -3.00    2.10
   4 -11  -8   74.89    8.10
  -4 -11   8   63.09    7.90
   4 -11  -8   51.69    6.60
   4  11  -8   68.69    7.70
   4  11  -8   80.39    9.40
  -4  11   8   72.79    9.30
  -3 -11   8    9.50    3.70
   3 -11  -8    6.50    3.30
   3 -11  -8    7.10    3.20
   3  11  -8   17.50    4.50
  -3  11   8    9.80    4.30
   3  11  -8    8.40    3.50
   2 -11  -8   61.29    7.30
   2 -11  -8   51.89    6.70
  -2 -11   8   60.49    7.50
   2  11  -8   70.29    8.70
   2  11  -8   55.79    7.00
  -2  11   8   61.49    8.50
   1 -11  -8   68.79    8.10
   1 -11  -8   53.79    7.00
  -1 -11   8   53.79    7.70
  -1  11   8   57.59    8.00
   1  11  -8   51.99    6.30
   1  11  -8   53.29    7.80
   0 -11   8    6.90    3.70
   0 -11  -8    7.90    4.10
   0 -11  -8   12.20    3.80
   0  11  -8    6.80    4.10
   0  11   8    5.80    4.10
  -1 -11  -8   -0.70    3.10
  -1 -11  -8   -2.20    3.10
   1 -11   8    1.30    3.20
   1  11   8    1.60    3.10
  -1  11  -8   -1.80    2.80
  -6 -12   8    1.60    2.70
   6 -12  -8   -2.10    3.30
   6  12  -8    3.50    2.80
  -6  12   8    2.80    3.20
   5 -12  -8   -2.60    2.60
  -5 -12   8   -2.40    2.20
   5  12  -8   -0.70    3.20
  -5  12   8    1.30    2.70
   4 -12  -8    8.50    4.00
   4 -12  -8   -0.80    2.60
  -4 -12   8    5.30    3.50
   4  12  -8    5.70    3.50
  -4  12   8    5.50    3.40
   4  12  -8   10.40    3.90
   3 -12  -8   -0.50    2.50
   3 -12  -8   -2.50    2.20
  -3 -12   8    0.70    2.70
  -3  12   8   -2.10    2.40
   3  12  -8    1.40    2.70
   3  12  -8   -3.20    3.00
  -2 -12   8    2.10    2.80
   2 -12  -8    0.80    2.60
   2 -12  -8   -2.00    2.50
   2  12  -8   -4.40    2.10
  -2  12   8    0.20    3.10
   2  12  -8   -1.30    3.30
   1 -12  -8    7.30    3.70
   1 -12  -8    1.40    3.30
  -1 -12   8    9.10    4.00
  -1  12   8    0.60    3.20
   1  12  -8   12.50    4.90
   0 -12   8   19.60    5.20
   0 -12  -8   19.00    5.30
   0 -12  -8   27.90    6.00
   0  12  -8   24.30    5.90
   0  12   8   12.30    4.60
   1 -12   8   11.10    4.60
  -1 -12  -8   19.00    5.30
  -1 -12  -8    6.20    3.80
   1  12   8   15.80    5.30
  -1  12  -8   18.20    5.30
  -6 -13   8   19.40    5.20
   6 -13  -8   21.80    5.40
   6  13  -8   21.90    5.50
  -6  13   8   15.80    5.20
   5 -13  -8    3.00    3.20
  -5 -13   8    2.10    2.80
   5  13  -8    1.90    2.90
  -5  13   8   -2.20    2.80
  -4 -13   8   -0.30    2.60
   4 -13  -8    3.90    3.30
   4  13  -8    7.20    3.40
   4  13  -8    2.80    3.20
  -4  13   8    3.20    2.90
  -3 -13   8   30.80    6.10
   3 -13  -8   21.60    5.40
   3 -13  -8   26.20    5.50
  -3  13   8   27.80    6.10
   3  13  -8   28.10    6.00
   3  13  -8   16.40    4.40
   2 -13  -8    0.50    3.00
   2 -13  -8   -1.20    2.60
  -2 -13   8    4.20    3.40
   2  13  -8   -2.00    3.10
  -2  13   8    0.10    2.80
   2  13  -8   -1.00    2.50
   1 -13  -8  118.79    9.60
  -1 -13   8   97.09   10.00
   1 -13  -8  106.69   10.20
   1  13  -8  108.49   11.40
  -1  13   8  115.39   12.00
   0 -13  -8   -0.10    3.20
   0 -13  -8    2.50    3.70
   0 -13   8    0.90    3.00
   0  13  -8    4.10    4.30
   0  13   8   -0.80    2.90
   1 -13   8   -0.70    3.50
  -1 -13  -8    3.50    3.60
  -1 -13  -8    3.60    3.50
   1  13   8    0.70    3.60
  -1  13  -8    1.10    3.40
  -5 -14   8    5.00    3.60
   5 -14  -8    2.80    3.60
   5  14  -8    0.20    3.20
  -5  14   8    4.00    3.70
   4 -14  -8   13.00    4.30
  -4 -14   8    7.20    3.70
  -4  14   8    3.10    3.30
   4  14  -8    9.00    4.40
   4  14  -8   10.90    4.00
   3 -14  -8    3.50    3.30
   3 -14  -8    4.10    3.60
  -3 -14   8    8.90    3.90
   3  14  -8    2.00    2.80
  -3  14   8   -1.80    2.30
   3  14  -8    4.00    3.90
   2 -14  -8   34.70    6.20
  -2 -14   8   24.10    5.50
   2 -14  -8   29.40    5.80
   2  14  -8   24.80    6.20
  -2  14   8   23.80    6.30
   1 -14  -8   22.50    5.30
   1 -14  -8   23.20    5.70
  -1 -14   8   19.80    5.50
   1  14  -8   12.40    5.00
  -1  14   8   19.40    5.70
   0 -14  -8    2.10    3.40
   0 -14   8    1.00    3.10
   0 -14  -8    7.10    4.20
   0  14   8    0.80    3.50
   0  14  -8    4.10    4.50
  -5 -15   8   18.90    5.30
   5 -15  -8   23.70    5.70
   5  15  -8   12.70    4.80
  -5  15   8   18.40    6.00
   4 -15  -8   95.39   10.30
  -4 -15   8  110.09   11.30
   4  15  -8  103.89   10.30
  -4  15   8  133.89   13.30
   4  15  -8  107.69   12.90
   3 -15  -8    0.20    3.10
  -3 -15   8    2.10    2.50
   3  15  -8    1.50    3.80
   3  15  -8    1.90    3.20
  -3  15   8    1.20    2.90
   2 -15  -8    7.80    3.90
  -2 -15   8    7.70    4.40
   2 -15  -8   19.40    5.30
   2  15  -8   13.50    4.80
  -2  15   8    4.30    4.30
   1 -15  -8    1.10    3.10
  -1 -15   8    7.80    4.60
   1 -15  -8   11.30    4.70
  -1  15   8    3.70    4.00
   1  15  -8    4.10    4.80
   4 -16  -8   -0.10    3.50
  -4 -16   8    9.40    4.10
   4  16  -8    3.70    3.30
  -4  16   8    7.60    4.00
   3 -16  -8    6.50    4.30
  -3 -16   8    7.00    3.40
   3  16  -8    7.50    4.60
  -3  16   8    6.70    3.60
  -2 -16   8   -2.40    2.20
   2 -16  -8    4.00    3.40
   2 -16  -8    3.00    3.80
  -2  16   8    0.60    4.00
   2  16  -8    5.70    4.90
  -8   0   9    4.40    3.50
   8   0  -9   -4.10    2.20
   7   0  -9   -4.00    2.30
  -7   0   9   -1.00    2.40
  -6   0   9    0.40    2.20
   6   0  -9   -3.00    2.10
  -5   0   9   -0.60    2.60
   5   0  -9    1.50    2.70
  -5   0   9    1.20    2.00
  -4   0   9   -1.00    2.30
   4   0  -9    0.90    2.20
  -4   0   9    1.30    2.20
  -3   0   9   -0.70    1.90
   3   0  -9   -0.40    2.30
  -3   0   9    0.90    2.70
  -2   0   9   -3.30    2.10
   2   0  -9    3.60    2.50
   1   0  -9   -0.10    2.20
  -1   0   9    3.20    3.20
   0   0   9    0.10    3.00
   0   0  -9    4.20    2.90
  -1   0  -9    0.80    2.80
   1   0   9    3.50    3.40
   2   0   9    2.40    3.50
  -2   0  -9   -3.30    2.80
  -8  -1   9  161.68   11.20
   8  -1  -9  155.78   11.50
  -8   1   9  177.88   11.30
   8   1  -9  151.78   11.70
   7  -1  -9  149.88   10.70
  -7  -1   9  133.49    9.70
   7   1  -9  126.49   10.10
  -7   1   9  133.39    9.50
  -6  -1   9    6.90    3.30
   6  -1  -9   14.10    4.30
  -6   1   9   13.00    3.80
   6   1  -9    8.00    3.80
  -5  -1   9   83.29    8.10
  -5  -1   9   87.59    8.50
   5  -1  -9   78.29    8.40
   5   1  -9   67.09    7.70
  -5   1   9   82.49    8.10
  -5   1   9   75.09    8.20
   4  -1  -9   56.59    7.10
  -4  -1   9   80.79    7.50
  -4  -1   9   76.39    8.50
   4   1  -9   76.09    8.20
  -4   1   9   72.59    7.10
  -4   1   9   67.09    7.70
  -3  -1   9  338.07   14.40
  -3  -1   9  300.97   11.90
   3  -1  -9  326.87   14.10
   3   1  -9  304.27   13.70
  -3   1   9  333.17   14.30
  -3   1   9  336.57   11.90
   2  -1  -9  692.53   21.10
  -2  -1   9  690.43   18.00
  -2  -1   9  689.13   21.30
  -2   1   9  672.43   21.00
   2   1  -9  680.23   20.70
  -1  -1   9    0.60    2.50
   1  -1  -9    3.50    3.40
   1   1  -9    1.60    2.30
  -1   1   9    3.10    3.00
   0  -1   9   -2.20    2.40
   0  -1  -9    1.50    2.50
   0   1  -9   -2.50    2.40
   0   1   9    1.70    3.10
   1  -1   9    3.70    3.60
  -1  -1  -9    8.60    3.80
   1   1   9    9.70    4.30
  -1   1  -9    7.80    3.80
   2  -1   9   34.30    7.10
  -2  -1  -9   31.30    6.00
  -2   1  -9   32.10    6.30
   2   1   9   34.80    6.90
   8  -2  -9    1.40    3.10
  -8  -2   9    4.70    3.70
  -8   2   9    0.50    2.80
   8   2  -9    6.10    3.90
  -7  -2   9   21.60    4.90
   7  -2  -9   12.50    4.10
   7   2  -9   15.90    4.80
  -7   2   9   22.40    4.90
  -6  -2   9   50.49    7.10
   6  -2  -9   43.20    6.70
   6   2  -9   39.20    6.60
  -6   2   9   52.19    6.80
  -6   2   9   48.40    6.70
   5  -2  -9   57.29    7.20
  -5  -2   9   61.39    7.00
  -5  -2   9   69.69    7.70
  -5   2   9   64.59    7.00
  -5   2   9   67.59    8.00
   5   2  -9   59.59    7.90
   4  -2  -9  233.28   11.90
  -4  -2   9  241.18   12.00
  -4  -2   9  240.78   10.90
   4   2  -9  239.38   12.20
  -4   2   9  237.78   10.20
  -4   2   9  246.68   12.00
  -3  -2   9   23.80    5.20
   3  -2  -9   25.50    5.20
  -3  -2   9   28.10    4.60
   3   2  -9   25.40    4.80
  -3   2   9   31.30    5.70
  -2  -2   9   21.60    5.20
   2  -2  -9    9.80    3.70
  -2  -2   9   10.50    3.10
   2   2  -9   17.60    4.50
  -2   2   9   10.30    3.90
  -1  -2   9   56.79    7.60
  -1  -2   9   66.29    6.70
   1  -2  -9   55.89    7.10
   1   2  -9   57.19    7.20
  -1   2   9   82.49    9.20
   0  -2   9    4.20    3.60
   0  -2  -9    3.40    2.80
   0   2  -9    4.10    3.10
   0   2   9    4.50    3.20
  -1  -2  -9   55.49    8.00
   1  -2   9   50.49    7.90
  -1   2  -9   48.90    7.10
   1   2   9   43.60    6.90
   2  -2   9    3.00    4.10
  -2  -2  -9    0.90    3.10
   2   2   9   -0.40    3.10
  -2   2  -9   -0.10    3.20
  -8  -3   9   20.70    5.60
   8  -3  -9    9.60    4.20
  -8   3   9   15.20    5.00
   8   3  -9   20.70    5.70
  -7  -3   9    0.60    2.80
   7  -3  -9    4.40    3.20
   7   3  -9   -1.60    2.60
  -7   3   9    3.40    3.10
  -6  -3   9   25.10    4.90
   6  -3  -9   19.30    4.60
  -6   3   9   31.60    5.80
   6   3  -9   22.40    5.10
  -6   3   9   27.50    5.00
  -5  -3   9  118.39    8.20
   5  -3  -9  114.59    8.70
  -5  -3   9  135.29    9.00
  -5   3   9  111.99    7.60
   5   3  -9  124.19    9.30
  -5   3   9  136.19    9.40
   4  -3  -9    6.00    3.10
  -4  -3   9    6.70    3.60
  -4  -3   9    9.40    3.20
   4   3  -9    7.30    3.40
  -4   3   9    6.90    3.40
   3  -3  -9  192.68   11.00
  -3  -3   9  185.98   10.80
  -3  -3   9  191.58    9.80
   3   3  -9  168.48   10.50
  -3   3   9  168.98   10.60
  -2  -3   9  715.33   22.10
   2  -3  -9  703.13   21.40
  -2  -3   9  712.93   18.90
   2   3  -9  721.93   21.20
  -2   3   9  702.73   22.00
  -1  -3   9   23.40    5.40
   1  -3  -9   24.70    5.40
  -1  -3   9   21.80    4.30
   1   3  -9   16.50    4.20
   1   3  -9   21.70    5.40
  -1   3   9   25.80    5.70
   0  -3   9   35.90    5.50
   0  -3  -9   31.40    5.90
   0  -3   9   41.20    7.50
   0   3  -9   43.00    6.50
   0   3   9   41.00    6.80
   0   3  -9   48.60    7.20
  -1  -3  -9  102.69   10.20
   1  -3   9   88.99   10.50
  -1   3  -9  105.49   11.10
  -1   3  -9   79.99    8.70
   1   3   9  111.09   11.50
   2  -3   9   59.59    9.00
  -2  -3  -9   78.99    9.60
   2   3   9   71.09    9.30
  -2   3  -9   78.19    8.90
  -8  -4   9    3.10    3.70
   8  -4  -9    4.60    3.50
   8   4  -9    8.50    4.40
  -8   4   9   13.80    4.90
   7  -4  -9   -1.50    2.70
  -7  -4   9    1.30    3.10
  -7   4   9    1.50    2.80
   7   4  -9   -2.40    2.60
  -6  -4   9    1.20    2.60
   6  -4  -9    2.20    2.50
  -6   4   9    1.80    2.40
  -6   4   9    3.20    3.00
   6   4  -9    3.80    2.90
   5  -4  -9   77.29    8.40
  -5  -4   9   89.79    8.50
  -5  -4   9   75.69    8.30
  -5   4   9   80.19    8.90
   5   4  -9   67.59    8.10
   4  -4  -9   -2.30    2.00
  -4  -4   9   -2.20    2.40
  -4  -4   9   -1.20    1.90
   4   4  -9    1.20    2.70
  -4   4   9    5.50    3.20
   3  -4  -9   20.60    5.10
  -3  -4   9    7.20    3.40
  -3  -4   9   13.00    3.70
  -3   4   9   11.70    4.00
   3   4  -9    2.00    2.50
   2  -4  -9  200.68   11.40
  -2  -4   9  191.58    9.70
   2   4  -9  196.08   11.00
   2   4  -9  207.68   12.30
  -2   4   9  233.58   12.60
  -1  -4   9   85.09    6.80
   1  -4  -9   68.89    8.00
   1   4  -9   66.49    8.70
  -1   4   9   81.79    9.40
   1   4  -9   79.79    8.60
   0  -4   9   11.10    3.50
   0  -4  -9    9.50    3.80
   0   4  -9   13.60    4.40
   0   4  -9    5.20    3.30
   0   4   9   18.60    5.00
  -1  -4  -9    7.20    3.50
   1   4   9    6.90    4.30
  -1   4  -9    7.70    3.60
  -1   4  -9    7.60    4.00
  -2  -4  -9   26.60    5.70
   2   4   9   24.00    6.00
  -2   4  -9   28.20    6.20
  -7  -5   9    3.70    3.60
   7  -5  -9    1.40    3.00
   7   5  -9    6.80    4.00
  -7   5   9    4.70    3.30
   6  -5  -9   -1.20    2.40
  -6  -5   9   -1.00    2.80
   6   5  -9   -2.40    2.60
  -6   5   9    0.50    2.50
  -5  -5   9   43.40    6.20
  -5  -5   9   42.90    6.20
   5  -5  -9   31.20    5.60
  -5   5   9   46.90    6.90
   5   5  -9   42.00    6.70
   4  -5  -9   40.90    5.90
  -4  -5   9   48.10    6.60
  -4  -5   9   33.50    5.80
  -4   5   9   44.30    7.00
   4   5  -9   34.60    5.90
   3  -5  -9   -3.60    2.30
  -3  -5   9    0.00    2.20
   3   5  -9    1.30    3.10
  -3   5   9    4.00    3.00
   3   5  -9    4.60    2.90
   2  -5  -9  124.69    9.50
  -2  -5   9  109.39    8.00
   2   5  -9   97.29    9.50
   2   5  -9  100.49   10.30
  -2   5   9  114.99    9.10
   1  -5  -9    1.10    2.90
  -1  -5   9    7.50    3.20
   1   5  -9    4.10    3.00
  -1   5   9   10.40    3.90
   1   5  -9    7.60    4.10
   0  -5  -9   21.40    5.20
   0  -5   9   15.30    4.00
   0   5   9   14.50    4.70
   0   5  -9    9.20    3.90
   0   5  -9   15.60    4.60
   1  -5   9   35.20    5.70
  -1  -5  -9   44.50    7.20
  -1   5  -9   43.50    7.60
   1   5   9   50.39    8.30
  -1   5  -9   46.50    7.10
  -2  -5  -9   11.00    4.00
   2   5   9   16.60    5.00
  -2   5  -9   16.30    5.40
   7  -6  -9   18.90    4.80
  -7  -6   9   27.00    6.00
   7   6  -9   12.90    5.00
   6  -6  -9   46.30    6.60
  -6  -6   9   60.79    8.10
  -6   6   9   56.69    7.40
   6   6  -9   50.79    7.00
  -5  -6   9   21.80    4.70
  -5  -6   9   31.70    5.70
   5  -6  -9   35.20    6.00
   5   6  -9   23.70    5.10
  -5   6   9   17.30    4.60
   4  -6  -9  191.58   11.10
  -4  -6   9  183.38   10.50
  -4  -6   9  180.58   10.60
  -4   6   9  199.78   11.40
   4   6  -9  173.78   10.50
   4   6  -9  175.38   10.90
  -3  -6   9   -0.60    2.10
   3  -6  -9    1.10    2.90
  -3   6   9    2.10    2.80
   3   6  -9   -0.30    3.10
   3   6  -9   -1.90    2.20
   2  -6  -9    0.50    2.80
  -2  -6   9    0.60    2.30
   2   6  -9    1.80    2.60
   2   6  -9    3.20    3.70
  -2   6   9   -0.10    2.40
  -1  -6   9    5.90    3.60
   1  -6  -9    2.00    3.20
   1   6  -9    2.00    2.90
   1   6  -9    2.10    3.40
  -1   6   9    2.00    3.40
   0  -6   9    3.40    3.10
   0  -6  -9    2.10    3.00
   0   6  -9    2.30    2.70
   0   6  -9    0.80    2.90
   0   6   9    6.10    3.70
  -1  -6  -9    3.60    3.40
   1  -6   9    6.90    3.30
   1   6   9    4.00    3.80
  -1   6  -9    1.30    2.90
  -1   6  -9    4.60    3.30
  -7  -7   9   -1.30    2.50
   7  -7  -9    6.20    3.60
   7   7  -9    9.10    4.40
   6  -7  -9   19.90    4.70
  -6  -7   9   16.00    4.70
  -6   7   9   11.90    4.20
   6   7  -9   18.10    4.80
   5  -7  -9   -1.80    2.30
  -5  -7   9    1.50    2.80
  -5  -7   9    3.60    3.00
   5   7  -9   -1.70    2.20
  -5   7   9    0.80    3.10
   4  -7  -9   22.20    4.90
  -4  -7   9   25.00    5.10
   4   7  -9   22.30    5.20
  -4   7   9   27.40    5.80
   4   7  -9   33.70    6.20
   3  -7  -9    4.00    3.20
  -3  -7   9    9.30    3.70
   3   7  -9    8.10    3.30
  -3   7   9   14.40    4.60
   3   7  -9    9.10    4.00
  -2  -7   9  108.79    8.20
   2  -7  -9  125.59    9.60
   2   7  -9  123.09    8.90
   2   7  -9  120.79    9.70
  -2   7   9  120.89    9.60
   1  -7  -9   35.80    6.30
  -1  -7   9   47.90    6.50
  -1   7   9   49.20    8.00
   1   7  -9   37.70    6.00
   1   7  -9   38.30    6.80
   0  -7   9   58.69    7.80
   0  -7  -9   70.29    9.10
   0   7   9   48.40    7.60
   0   7  -9   46.30    6.50
   0   7  -9   61.59    8.70
   1  -7   9    1.90    2.90
  -1  -7  -9   -1.20    2.90
  -1   7  -9    4.50    3.00
   1   7   9    6.40    3.90
  -7  -8   9    2.00    3.20
   7   8  -9    2.00    3.30
   6  -8  -9   -0.40    2.70
  -6  -8   9    2.60    3.10
   6   8  -9   -2.40    2.30
  -6   8   9   -0.50    2.80
   5  -8  -9    2.80    2.50
  -5  -8   9    8.60    3.70
  -5   8   9   13.50    4.50
   5   8  -9   12.40    3.90
   4  -8  -9   91.19    9.50
  -4  -8   9   88.79    9.10
   4   8  -9   88.59    9.20
  -4   8   9  118.09   11.50
   4   8  -9  102.79   10.10
  -3  -8   9   98.69    9.70
   3  -8  -9   90.29    9.50
   3   8  -9  102.79   10.00
  -3   8   9   73.59    8.90
   3   8  -9   98.39    9.50
  -2  -8   9    5.40    3.60
   2  -8  -9    2.20    3.10
  -2   8   9   -3.20    2.10
   2   8  -9   -1.30    2.50
   2   8  -9    4.00    3.80
  -1  -8   9   33.50    5.60
   1  -8  -9   37.50    6.90
   1   8  -9   43.20    6.30
   1   8  -9   29.50    6.40
  -1   8   9   40.80    7.60
   0  -8   9    3.10    3.10
   0  -8  -9    3.60    3.50
   0   8  -9    2.80    3.00
   0   8   9    2.50    3.40
   0   8  -9    3.20    3.10
  -1  -8  -9   -0.10    2.90
   1  -8   9    4.00    3.20
  -1   8  -9    5.00    3.80
   1   8   9   -2.40    2.90
  -7  -9   9   30.00    6.50
   7   9  -9   17.50    5.10
  -6  -9   9    1.40    3.00
   6  -9  -9    0.30    2.60
   6   9  -9   -1.50    2.50
  -6   9   9   -4.30    2.50
  -5  -9   9   13.40    4.40
   5  -9  -9   17.50    4.40
   5   9  -9   14.20    4.70
  -5   9   9   13.60    4.50
  -4  -9   9    2.20    3.00
   4  -9  -9    5.10    3.30
   4   9  -9    3.00    3.50
  -4   9   9    0.40    2.80
   4   9  -9   -0.10    2.50
   3  -9  -9   36.50    6.50
  -3  -9   9   15.00    4.30
   3   9  -9   23.40    5.10
  -3   9   9   24.20    5.50
   3   9  -9   27.30    5.80
  -2  -9   9    3.00    3.00
   2  -9  -9    2.00    3.00
   2   9  -9   -0.80    3.10
  -2   9   9    1.50    3.20
   2   9  -9    1.60    3.10
   1  -9  -9  102.69   10.00
  -1  -9   9  118.09    8.90
  -1   9   9  100.29   10.90
   1   9  -9  103.19    8.20
   1   9  -9   91.29   10.60
   0  -9  -9    2.00    3.40
   0  -9   9    0.10    2.90
   0   9  -9   -0.80    3.20
   0   9   9    1.70    3.50
  -1  -9  -9   59.19    8.70
   1  -9   9   61.79    8.10
  -1   9  -9   59.69    8.70
   1   9   9   55.39    8.60
  -6 -10   9   10.30    4.50
  -6  10   9   15.30    4.70
   6  10  -9   13.60    4.60
  -5 -10   9   88.29    9.70
   5 -10  -9  107.89   10.10
  -5  10   9   79.79    9.40
   5  10  -9   88.29   10.00
  -4 -10   9   36.70    6.50
   4 -10  -9   35.60    6.10
   4  10  -9   29.70    5.60
   4  10  -9   27.30    5.70
  -4  10   9   35.10    6.70
   3 -10  -9    1.70    3.00
  -3 -10   9   -0.90    2.70
   3  10  -9    3.30    3.00
  -3  10   9    0.60    2.80
   3  10  -9    3.90    3.90
   2 -10  -9    3.60    3.50
  -2 -10   9   -2.20    3.20
   2  10  -9   12.30    3.90
  -2  10   9    2.00    3.20
   2  10  -9    6.90    4.40
  -1 -10   9    6.20    3.30
   1 -10  -9    5.10    3.80
   1  10  -9    3.60    3.10
   1  10  -9    9.50    4.70
  -1  10   9    0.70    3.30
   0 -10   9   20.30    5.30
   0 -10  -9    8.90    4.70
   0  10   9    9.40    4.60
   0  10  -9   16.80    5.60
  -6 -11   9    3.00    3.50
  -6  11   9   -0.20    3.00
   6  11  -9    8.00    4.00
  -5 -11   9   82.89    9.40
   5 -11  -9   72.79    8.40
  -5  11   9   82.49    9.90
   5  11  -9   49.90    7.10
  -4 -11   9   29.00    6.00
   4 -11  -9   41.50    6.60
   4  11  -9   39.90    6.80
  -4  11   9   34.50    6.70
   4  11  -9   43.50    7.00
  -3 -11   9   -3.70    2.40
   3 -11  -9    1.60    3.40
   3  11  -9   -0.10    3.50
   3  11  -9   -0.80    2.20
  -3  11   9    5.80    3.80
   2 -11  -9    1.10    3.20
  -2 -11   9   -2.90    2.70
  -2  11   9    0.80    3.40
   2  11  -9   -0.80    2.30
   2  11  -9    1.00    3.50
   1 -11  -9   12.00    4.80
  -1 -11   9   11.80    4.20
  -1  11   9    3.40    3.60
   1  11  -9   16.20    5.50
   0 -11  -9   22.40    5.50
   0 -11   9   19.10    5.20
   0  11  -9   16.40    5.70
   0  11   9   20.40    6.10
  -5 -12   9   -0.80    2.90
   5  12  -9    4.70    3.40
  -5  12   9    1.00    3.00
  -4 -12   9    5.40    3.70
   4 -12  -9    8.90    4.00
   4  12  -9   10.40    4.50
   4  12  -9    3.80    3.10
  -4  12   9    8.50    4.00
   3 -12  -9   80.99    9.10
  -3 -12   9  102.09   10.80
  -3  12   9   93.89   10.90
   3  12  -9   93.19   10.40
   3  12  -9  101.89    9.80
  -2 -12   9   -0.70    2.60
   2 -12  -9    6.80    4.10
  -2  12   9   -3.60    2.80
   2  12  -9    1.30    2.70
   2  12  -9    3.60    3.70
   1 -12  -9   20.70    5.80
  -1 -12   9   16.00    4.50
   1  12  -9   18.10    5.80
  -1  12   9   11.70    5.30
  -5 -13   9    1.30    3.40
  -5  13   9   -1.40    3.10
   5  13  -9   -1.40    2.90
   4 -13  -9   10.80    4.10
  -4 -13   9   14.40    5.20
   4  13  -9   16.90    5.00
  -4  13   9   15.00    4.90
   4  13  -9   16.40    4.90
   3 -13  -9   30.50    6.20
  -3 -13   9   37.50    7.10
   3  13  -9   40.10    7.10
  -3  13   9   49.50    8.80
   3  13  -9   42.20    7.00
  -2 -13   9   53.89    8.50
   2 -13  -9   58.49    8.30
   2  13  -9   51.69    7.90
  -2  13   9   70.49   10.60
   1 -13  -9    4.80    3.80
  -1 -13   9    5.50    3.90
   1  13  -9    9.50    4.80
  -1  13   9    6.30    4.30
   4 -14  -9   14.40    5.10
  -4 -14   9    8.90    4.60
   4  14  -9   18.20    5.20
  -4  14   9   19.70    5.30
   4  14  -9   16.00    5.10
   3 -14  -9    0.30    3.30
  -3 -14   9    0.70    3.10
   3 -14  -9    0.40    4.50
   3  14  -9    5.40    3.70
  -3  14   9   -1.40    2.80
   3  14  -9   -1.20    3.00
  -2 -14   9    3.60    3.60
   2 -14  -9   -4.30    4.50
   2 -14  -9    4.80    3.90
  -2  14   9    6.80    4.50
   2  14  -9    7.00    4.50
  -7   0  10   68.69    8.60
   7   0 -10   65.69    9.10
   6   0 -10   -3.00    2.40
  -6   0  10    2.00    2.90
  -5   0  10    2.00    2.70
  -5   0  10    1.80    2.40
   5   0 -10    0.20    2.60
  -4   0  10   40.60    7.00
  -4   0  10   34.70    5.90
   4   0 -10   42.70    7.20
  -3   0  10    0.20    2.70
   3   0 -10   -2.10    2.30
   2   0 -10    7.40    3.70
  -2   0  10   11.80    4.30
   1   0 -10   -2.70    2.40
  -1   0  10   -1.40    3.10
   0   0 -10   19.60    5.20
   0   0  10   16.50    6.00
  -7  -1  10   16.20    4.70
   7  -1 -10   21.40    5.40
  -7   1  10   21.20    5.20
   7   1 -10    7.20    4.00
   6  -1 -10   18.30    5.10
  -6  -1  10   30.90    5.80
  -6   1  10   24.80    5.50
  -6   1  10   17.30    5.60
   6   1 -10   17.90    5.20
  -5  -1  10    2.60    2.80
   5  -1 -10    0.60    2.90
  -5  -1  10   -0.70    2.70
  -5   1  10    1.20    2.60
  -5   1  10   -1.80    2.30
   5   1 -10   -0.90    2.90
   4  -1 -10    8.80    3.70
  -4  -1  10    8.10    3.50
  -4  -1  10   19.70    4.70
  -4   1  10   15.70    4.60
   4   1 -10   14.50    3.90
   3  -1 -10   32.20    5.60
  -3  -1  10   50.99    7.30
   3   1 -10   54.29    7.40
  -3   1  10   45.00    6.90
   2  -1 -10   76.29    8.50
  -2  -1  10  104.09   10.70
  -2   1  10   93.89    9.90
   2   1 -10  108.19    8.80
  -1  -1  10   75.09    9.60
   1  -1 -10   89.99    9.90
   1   1 -10   72.49    8.50
  -1   1  10   81.89    9.70
   0  -1  10    1.40    3.30
   0  -1 -10    6.20    3.50
   0   1  10   -1.00    3.10
   0   1 -10    5.30    3.60
  -7  -2  10    0.60    2.70
   7  -2 -10    4.00    3.30
   7   2 -10    2.20    3.30
  -7   2  10    6.40    3.70
   6  -2 -10   -0.80    2.40
  -6  -2  10   -3.30    2.30
   6   2 -10   -2.60    2.50
  -6   2  10    0.30    2.80
  -6   2  10   -1.10    2.30
  -5  -2  10    3.80    3.10
   5  -2 -10    7.50    3.80
  -5  -2  10    7.00    3.30
  -5   2  10    4.50    3.10
   5   2 -10    6.90    3.90
  -4  -2  10   15.90    4.10
  -4  -2  10   27.30    5.80
   4  -2 -10   19.30    4.80
   4   2 -10   19.90    4.90
  -4   2  10   26.70    5.60
   3  -2 -10  126.19    9.80
  -3  -2  10  112.79    7.90
  -3  -2  10  105.99    9.00
  -3   2  10  108.69    9.10
   3   2 -10   87.49    9.40
  -2  -2  10   14.80    4.60
   2  -2 -10   16.70    4.20
   2   2 -10   19.80    4.90
  -2   2  10   19.10    5.40
  -1  -2  10   80.49   10.30
   1  -2 -10   72.59    9.00
  -1   2  10   87.89   10.60
   1   2 -10   61.89    8.00
   0  -2 -10   29.20    6.20
   0  -2  10   14.30    5.30
   0   2  10   15.60    5.30
   0   2 -10   21.20    5.60
   7  -3 -10    5.90    4.20
  -7  -3  10    9.70    4.20
   7   3 -10   12.00    4.70
  -7   3  10   10.60    4.10
   6  -3 -10    3.70    3.00
  -6  -3  10    7.50    3.30
   6   3 -10   11.70    4.50
  -6   3  10   17.00    4.90
   5  -3 -10   16.20    5.20
  -5  -3  10   19.70    4.80
  -5  -3  10    9.80    3.80
   5   3 -10   11.20    3.80
  -5   3  10   12.30    4.30
  -4  -3  10    6.30    3.50
   4  -3 -10    0.70    3.00
  -4  -3  10    0.50    2.20
  -4   3  10   -0.90    2.50
   4   3 -10    2.30    2.80
   3  -3 -10   20.80    5.50
  -3  -3  10   17.40    4.10
  -3  -3  10   17.10    5.20
  -3   3  10   15.00    4.60
   3   3 -10   20.40    5.10
   2  -3 -10   92.19   10.00
  -2  -3  10  108.89    7.80
  -2  -3  10  103.99   11.20
   2   3 -10   77.69    8.50
  -2   3  10   89.49    9.80
  -1  -3  10   69.69    9.10
   1  -3 -10   70.79    9.30
  -1   3  10   61.79    8.40
   1   3 -10   63.09    7.80
   0  -3 -10   29.90    6.00
   0  -3  10   36.00    7.10
   0   3  10   45.10    8.10
   0   3 -10   40.10    6.80
   7  -4 -10    5.70    3.70
  -7  -4  10   11.10    4.20
   7   4 -10    2.30    3.80
  -6  -4  10    1.90    2.80
   6  -4 -10    0.00    2.70
   6   4 -10   -5.10    2.70
  -6   4  10   -2.00    2.50
   5  -4 -10   -0.40    2.90
  -5  -4  10   -1.60    2.50
  -5  -4  10    2.00    2.70
   5   4 -10    3.00    3.00
  -5   4  10   -1.10    2.80
  -4  -4  10   65.09    7.80
   4  -4 -10   44.10    6.80
  -4  -4  10   57.09    7.80
   4   4 -10   43.30    6.80
  -4   4  10   43.50    7.00
  -3  -4  10   19.70    4.80
  -3  -4  10   19.20    5.40
   3  -4 -10   12.20    4.50
   3   4 -10   16.20    4.60
  -3   4  10   10.00    3.90
   2  -4 -10  352.46   16.30
  -2  -4  10  359.86   16.60
  -2  -4  10  366.46   14.30
  -2   4  10  339.47   16.00
   2   4 -10  364.06   15.80
   1  -4 -10   33.10    6.10
  -1  -4  10   22.10    6.90
  -1  -4  10   28.50    6.30
   1   4 -10   32.80    6.30
  -1   4  10   18.60    5.50
   0  -4  10    8.90    5.00
   0  -4 -10    2.50    3.20
   0   4 -10    5.30    3.40
   0   4  10    9.50    4.20
   7  -5 -10    0.40    2.80
  -7  -5  10    2.40    3.40
   7   5 -10    0.90    3.30
  -6  -5  10   38.20    6.50
   6  -5 -10   32.70    6.00
  -6   5  10   47.90    6.90
   6   5 -10   34.60    6.10
  -5  -5  10   62.49    7.90
   5  -5 -10   49.60    6.80
  -5  -5  10   74.19    8.50
  -5   5  10   66.79    8.70
   5   5 -10   51.49    7.10
  -4  -5  10   -1.00    2.50
  -4  -5  10   -1.60    2.10
   4  -5 -10   -1.70    2.60
  -4   5  10    0.40    3.10
   4   5 -10    2.40    2.90
  -3  -5  10    3.50    3.00
   3  -5 -10    4.00    3.40
  -3  -5  10    7.80    4.10
   3   5 -10    8.20    3.50
  -3   5  10   10.80    3.80
  -2  -5  10   70.49    9.20
   2  -5 -10   49.70    7.40
  -2  -5  10   60.79    7.30
   2   5 -10   72.09    9.30
   2   5 -10   57.89    7.60
  -2   5  10   77.89    9.50
  -1  -5  10   69.99    8.00
   1  -5 -10   76.69    9.30
  -1   5  10   60.29    8.50
   1   5 -10   70.89    9.80
   1   5 -10   56.49    7.80
   0  -5 -10    8.00    3.90
   0   5 -10    2.20    3.70
   0   5 -10    2.40    2.80
   0   5  10    2.50    3.40
  -6  -6  10   69.89    8.90
   6  -6 -10   55.79    7.80
  -6   6  10   67.89    8.80
   6   6 -10   58.99    8.20
   5  -6 -10   34.40    6.40
  -5  -6  10   42.20    7.10
  -5  -6  10   48.20    7.30
  -5   6  10   49.99    7.90
   5   6 -10   44.90    7.20
   4  -6 -10   62.59    8.30
  -4  -6  10   54.29    7.60
  -4  -6  10   49.00    7.10
   4   6 -10   56.69    7.90
  -4   6  10   48.90    7.70
  -3  -6  10   18.20    4.90
   3  -6 -10   18.50    5.20
  -3  -6  10   22.80    4.90
   3   6 -10   31.60    6.40
   3   6 -10   24.80    5.60
  -3   6  10   35.60    6.90
  -2  -6  10   -2.90    2.30
   2  -6 -10   -1.00    3.30
   2   6 -10    1.40    3.40
  -2   6  10    1.90    2.70
   2   6 -10    1.50    3.10
  -1  -6  10  240.28   12.40
   1  -6 -10  231.78   14.00
   1   6 -10  234.28   12.90
   1   6 -10  244.48   15.00
  -1   6  10  210.28   13.30
   0  -6 -10    9.20    4.20
   0  -6  10   16.60    4.90
   0   6 -10    3.60    3.40
   0   6  10    7.70    4.60
   0   6 -10    1.90    3.70
  -6  -7  10   45.00    7.60
   6  -7 -10   29.10    6.00
  -6   7  10   27.10    5.60
   6   7 -10   33.20    6.50
  -5  -7  10    0.00    2.60
   5  -7 -10   -3.10    2.50
  -5  -7  10   -0.30    2.80
  -5   7  10    6.10    3.40
   5   7 -10    2.40    2.70
  -4  -7  10    0.60    2.90
   4  -7 -10    2.10    3.30
  -4  -7  10    2.20    3.30
   4   7 -10    4.40    3.70
   4   7 -10   -3.30    2.20
  -4   7  10   -1.10    2.90
  -3  -7  10    2.40    2.90
   3  -7 -10   -2.60    2.70
  -3   7  10    0.80    2.90
   3   7 -10    3.60    3.80
   3   7 -10   -2.20    2.50
  -2  -7  10  134.19    9.60
   2  -7 -10  128.29   10.40
   2   7 -10  127.59   12.10
  -2   7  10  146.69   11.00
   2   7 -10  140.89   10.10
  -1  -7  10    7.20    3.60
   1  -7 -10   12.30    5.00
  -1   7  10    6.50    3.70
   1   7 -10    9.20    4.40
   1   7 -10   19.10    5.00
   0  -7  10    1.00    3.20
   0   7 -10   -1.40    3.70
   6  -8 -10    2.80    3.10
  -6  -8  10   -1.70    2.80
  -6   8  10    3.60    3.50
   6   8 -10    3.10    3.40
   5  -8 -10   -0.20    3.30
  -5  -8  10    4.30    3.10
  -5   8  10    6.10    3.40
   5   8 -10    7.10    3.80
  -4  -8  10   32.20    6.30
   4  -8 -10   15.30    4.80
   4   8 -10   29.70    6.20
  -4   8  10   21.40    5.60
   4   8 -10   11.40    3.90
  -3  -8  10    1.70    2.90
   3  -8 -10   -1.30    3.00
   3   8 -10    3.50    4.00
  -3   8  10    0.00    3.00
   3   8 -10    0.10    2.80
   2  -8 -10   13.40    4.90
  -2  -8  10   26.00    5.40
   2   8 -10   21.40    4.90
   2   8 -10   19.10    6.20
  -2   8  10   24.70    6.20
  -1  -8  10  115.49   10.80
   1  -8 -10   92.59   10.30
   1   8 -10   97.29    9.60
   1   8 -10   87.69   10.80
  -1   8  10  113.79   12.90
  -5  -9  10    2.50    3.00
   5  -9 -10   -1.10    2.80
   5   9 -10    4.40    3.30
  -5   9  10   -3.20    2.80
  -4  -9  10    7.00    4.00
   4  -9 -10    3.30    3.60
   4   9 -10    9.40    4.90
   4   9 -10    9.70    4.10
  -4   9  10    8.20    3.60
   3  -9 -10   85.59   10.20
  -3  -9  10   96.09   10.20
   3   9 -10   65.99    8.20
   3   9 -10   79.39   10.00
  -3   9  10   74.79    9.80
  -2  -9  10   73.09    8.60
   2  -9 -10   80.69    9.60
   2   9 -10   76.49    9.00
   2   9 -10   91.99   10.40
  -2   9  10   72.49   10.00
   1  -9 -10  126.59   12.70
  -1  -9  10  143.79   10.60
   1   9 -10  124.09   12.70
   1   9 -10  129.39   10.10
  -1   9  10  142.39   11.40
   5 -10 -10   79.29    9.40
  -5 -10  10   99.89   10.70
  -5  10  10  103.79   11.60
   5  10 -10   94.79   10.10
   4 -10 -10  409.36   17.70
  -4 -10  10  394.56   17.30
  -4  10  10  405.96   18.30
   4  10 -10  393.76   17.90
   4  10 -10  416.76   17.80
   3 -10 -10    1.80    3.60
  -3 -10  10    4.60    3.80
   3  10 -10    2.10    3.20
   3  10 -10    2.50    4.10
  -3  10  10    6.90    3.50
   2 -10 -10    3.80    3.70
  -2 -10  10    0.60    3.40
   2  10 -10    6.80    3.60
  -2  10  10    4.40    4.10
   2  10 -10   -1.90    3.70
  -4 -11  10    0.40    3.20
   4 -11 -10   -1.30    3.20
   4  11 -10    1.40    2.90
  -4  11  10   -3.90    2.50
   4  11 -10    2.40    3.80
   3 -11 -10   66.59    9.10
  -3 -11  10   56.59    8.40
  -3  11  10   50.79    8.40
   3  11 -10   53.19    8.70
   3  11 -10   56.49    7.70
   5   0 -11    0.40    3.30
  -5   0  11    0.50    2.90
   4   0 -11   -0.30    2.80
  -4   0  11    4.10    3.10
  -3   0  11    1.80    3.00
   3   0 -11    3.00    3.10
   2   0 -11   -3.20    2.30
  -2   0  11    0.90    2.70
   5  -1 -11   46.60    7.90
  -5  -1  11   62.49    8.50
  -5   1  11   48.30    7.60
   5   1 -11   34.20    6.60
  -4  -1  11   59.59    8.50
   4  -1 -11   36.30    6.90
  -4   1  11   50.29    8.10
   4   1 -11   30.10    6.20
   3  -1 -11    0.90    2.80
  -3  -1  11    6.20    3.80
  -3   1  11    4.00    3.80
   3   1 -11    4.70    3.30
   2  -1 -11   92.19   10.30
  -2  -1  11   93.79   10.60
  -2   1  11  105.69   11.60
   2   1 -11   93.29   10.30
   5  -2 -11   -1.70    3.00
  -5  -2  11   -0.80    2.50
  -5  -2  11    4.70    3.30
  -5   2  11    1.30    3.30
   5   2 -11   -0.20    2.90
  -4  -2  11   26.70    6.30
   4  -2 -11   13.70    4.40
   4   2 -11   10.30    3.80
  -4   2  11   16.90    4.90
   3  -2 -11   13.20    4.30
  -3  -2  11   12.70    4.50
   3   2 -11    6.20    3.10
  -3   2  11   19.90    5.60
  -2  -2  11    2.50    3.30
   2  -2 -11   -2.60    2.40
   2   2 -11   -0.10    3.30
  -2   2  11   -1.90    2.60
  -5  -3  11   54.49    7.70
   5  -3 -11   42.30    7.30
  -5  -3  11   43.30    7.00
  -5   3  11   50.59    7.50
   5   3 -11   47.00    7.30
   4  -3 -11   13.70    5.00
  -4  -3  11    5.40    3.40
  -4  -3  11   11.50    4.20
  -4   3  11   17.90    5.30
   4   3 -11   13.00    4.70
   3  -3 -11   45.50    7.30
  -3  -3  11   82.09   10.10
   3   3 -11   55.09    8.00
  -3   3  11   72.59    9.60
  -2  -3  11   -0.50    2.70
   2  -3 -11    0.90    2.80
  -2   3  11   -0.60    2.70
   2   3 -11    1.40    3.40
  -5  -4  11    8.30    3.70
   5  -4 -11    5.60    3.80
  -5  -4  11    2.60    3.10
  -5   4  11    3.30    3.60
   5   4 -11    8.50    3.60
  -4  -4  11   14.60    4.30
   4  -4 -11    8.50    4.30
  -4  -4  11   20.30    5.30
  -4   4  11   10.10    4.00
   4   4 -11   13.50    4.40
  -3  -4  11    0.10    2.50
  -3  -4  11    0.20    2.90
   3  -4 -11    0.70    3.30
   3   4 -11    0.50    3.20
  -3   4  11    1.50    3.10
  -2  -4  11    1.90    3.40
   2  -4 -11    3.10    3.30
  -2   4  11    4.10    3.50
   2   4 -11   -5.80    2.50
  -5  -5  11   13.30    4.80
  -5  -5  11   18.80    5.10
   5  -5 -11   10.90    4.70
   5   5 -11    7.50    3.80
  -5   5  11   11.80    4.50
   4  -5 -11    2.40    3.80
  -4  -5  11   -0.70    2.70
  -4  -5  11    1.00    2.70
  -4   5  11    2.70    3.30
   4   5 -11    3.50    3.10
  -3  -5  11   33.70    6.10
  -3  -5  11   44.40    7.80
   3  -5 -11   37.40    7.30
  -3   5  11   46.90    7.80
   3   5 -11   41.10    7.00
   4  -6 -11   54.19    7.90
  -4  -6  11   96.09   10.10
  -4  -6  11  102.09   11.50
   4   6 -11   62.09    8.60
  -4   6  11   79.89   10.50
  -3  -6  11    0.50    3.00
  -3  -6  11    0.70    2.90
   3  -6 -11    3.80    3.80
  -3   6  11    1.20    2.90
   3   6 -11    7.00    3.80

_computing_structure_solution     'SHELXT 2014/4 (Sheldrick, 2014)'
;
_shelx_hkl_checksum              54127
loop_
_space_group_symop_operation_xyz
'x, y, z'
'-x, y+1/2, -z+1/2'
'-x, -y, -z'
'x, -y-1/2, z-1/2'
loop_
_atom_site_label
_atom_site_type_symbol
_atom_site_fract_x
_atom_site_fract_y
_atom_site_fract_z
_atom_site_U_iso_or_equiv
_atom_site_adp_type
_atom_site_occupancy
_atom_site_site_symmetry_order
_atom_site_calc_flag
_atom_site_refinement_flags_posn
_atom_site_refinement_flags_adp
N1 N 0.56920(17) 0.29864(6) 0.11772(14) 0.0205(3) Uani 1 1 d . .
C1 C 0.5782(2) 0.34047(9) 0.00879(18) 0.0282(4) Uani 1 1 d . .
H1 H 0.495125 0.377344 -0.036142 0.034 Uiso 1 1 calc R U
C2 C 0.7139(2) 0.25465(8) 0.14949(18) 0.0246(4) Uani 1 1 d . .
H2 H 0.744467 0.219097 0.223223 0.030 Uiso 1 1 calc R U
N2 N 0.7170(2) 0.32337(8) -0.02662(16) 0.0326(4) Uani 1 1 d . .
N3 N 0.80554(19) 0.26758(7) 0.06553(16) 0.0303(3) Uani 1 1 d . .
C3 C 0.4370(2) 0.30196(8) 0.18899(17) 0.0219(3) Uani 1 1 d . .
H3A H 0.417597 0.255032 0.219791 0.026 Uiso 1 1 calc R U
H3B H 0.316458 0.318661 0.113570 0.026 Uiso 1 1 calc R U
N4 N 0.90091(17) 0.47103(6) 0.80939(14) 0.0211(3) Uani 1 1 d . .
C4 C 0.4990(2) 0.34841(7) 0.32624(16) 0.0189(3) Uani 1 1 d . .
C5 C 0.6568(2) 0.38726(8) 0.36893(17) 0.0205(3) Uani 1 1 d . .
H5 H 0.725791 0.387387 0.307455 0.025 Uiso 1 1 calc R U
N5 N 1.18888(18) 0.43562(7) 0.93019(15) 0.0292(3) Uani 1 1 d . .
N6 N 1.19199(19) 0.49970(7) 0.86530(16) 0.0303(3) Uani 1 1 d . .
C6 C 0.7187(2) 0.42708(7) 0.50240(17) 0.0205(3) Uani 1 1 d . .
H6 H 0.830230 0.452711 0.529948 0.025 Uiso 1 1 calc R U
C7 C 0.6228(2) 0.42984(8) 0.59341(17) 0.0197(3) Uani 1 1 d . .
C8 C 0.45018(19) 0.39392(8) 0.54745(16) 0.0193(3) Uani 1 1 d . .
C9 C 0.3354(2) 0.39829(8) 0.62969(17) 0.0218(3) Uani 1 1 d . .
H9 H 0.370650 0.427592 0.715687 0.026 Uiso 1 1 calc R U
C10 C 0.1746(2) 0.36094(8) 0.58698(17) 0.0237(4) Uani 1 1 d . .
H10 H 0.100858 0.364060 0.644400 0.028 Uiso 1 1 calc R U
C11 C 0.1182(2) 0.31805(8) 0.45871(18) 0.0241(4) Uani 1 1 d . .
H11 H 0.007735 0.291772 0.430953 0.029 Uiso 1 1 calc R U
C12 C 0.2216(2) 0.31394(8) 0.37360(17) 0.0217(3) Uani 1 1 d . .
H12 H 0.180593 0.285461 0.286074 0.026 Uiso 1 1 calc R U
C13 C 0.3899(2) 0.35178(7) 0.41434(17) 0.0193(3) Uani 1 1 d . .
C14 C 0.6978(2) 0.47010(8) 0.74117(17) 0.0217(3) Uani 1 1 d . .
H14A H 0.650938 0.517915 0.721554 0.026 Uiso 1 1 calc R U
H14B H 0.651896 0.449136 0.813354 0.026 Uiso 1 1 calc R U
C15 C 1.0140(2) 0.42055(8) 0.89414(17) 0.0238(4) Uani 1 1 d . .
H15 H 0.971890 0.379509 0.923610 0.029 Uiso 1 1 calc R U
C16 C 1.0192(2) 0.51878(8) 0.79516(18) 0.0266(4) Uani 1 1 d . .
H16 H 0.980948 0.560751 0.741018 0.032 Uiso 1 1 calc R U
loop_
_atom_site_aniso_label
_atom_site_aniso_U_11
_atom_site_aniso_U_22
_atom_site_aniso_U_33
_atom_site_aniso_U_23
_atom_site_aniso_U_13
_atom_site_aniso_U_12
N1 0.0196(7) 0.0224(7) 0.0211(7) -0.0023(5) 0.0098(5) -0.0011(5)
C1 0.0322(9) 0.0306(9) 0.0253(9) 0.0018(7) 0.0150(7) 0.0010(7)
C2 0.0226(8) 0.0242(8) 0.0268(8) -0.0052(7) 0.0097(7) -0.0006(7)
N2 0.0360(8) 0.0359(8) 0.0328(8) -0.0034(6) 0.0211(7) -0.0045(7)
N3 0.0263(7) 0.0331(8) 0.0349(8) -0.0102(6) 0.0159(6) -0.0036(6)
C3 0.0200(8) 0.0248(8) 0.0236(8) -0.0010(6) 0.0114(6) -0.0012(6)
N4 0.0192(7) 0.0230(7) 0.0217(7) -0.0025(5) 0.0088(5) -0.0006(5)
C4 0.0190(8) 0.0181(8) 0.0196(7) 0.0027(6) 0.0077(6) 0.0031(6)
C5 0.0192(8) 0.0215(8) 0.0240(8) 0.0010(6) 0.0121(6) 0.0021(6)
N5 0.0237(7) 0.0350(8) 0.0281(7) -0.0055(6) 0.0096(6) 0.0013(6)
N6 0.0255(8) 0.0353(8) 0.0330(8) -0.0075(6) 0.0146(7) -0.0047(6)
C6 0.0182(8) 0.0191(8) 0.0247(8) 0.0005(6) 0.0093(6) -0.0011(6)
C7 0.0185(7) 0.0189(8) 0.0210(8) 0.0023(6) 0.0073(6) 0.0034(6)
C8 0.0186(8) 0.0188(8) 0.0206(8) 0.0035(6) 0.0079(6) 0.0049(6)
C9 0.0209(8) 0.0247(8) 0.0205(8) 0.0019(6) 0.0091(6) 0.0033(6)
C10 0.0213(8) 0.0297(9) 0.0241(8) 0.0047(7) 0.0132(7) 0.0046(7)
C11 0.0185(8) 0.0257(9) 0.0280(8) 0.0042(7) 0.0091(7) -0.0004(6)
C12 0.0189(8) 0.0234(8) 0.0224(8) 0.0014(6) 0.0078(6) 0.0013(6)
C13 0.0175(7) 0.0188(8) 0.0218(8) 0.0046(6) 0.0079(6) 0.0031(6)
C14 0.0174(8) 0.0244(8) 0.0233(8) -0.0014(6) 0.0082(6) 0.0010(6)
C15 0.0238(8) 0.0248(8) 0.0220(8) -0.0024(6) 0.0084(7) 0.0014(6)
C16 0.0271(9) 0.0253(9) 0.0300(9) -0.0029(7) 0.0141(7) -0.0041(7)
loop_
_atom_type_symbol
_atom_type_description
_atom_type_scat_dispersion_real
_atom_type_scat_dispersion_imag
_atom_type_scat_source
C C 0.0033 0.0016 'International Tables Vol C Tables 4.2.6.8 and 6.1.1.4'
H H 0.0000 0.0000 'International Tables Vol C Tables 4.2.6.8 and 6.1.1.4'
N N 0.0061 0.0033 'International Tables Vol C Tables 4.2.6.8 and 6.1.1.4'
loop_
_geom_angle_atom_site_label_1
_geom_angle_atom_site_label_2
_geom_angle_atom_site_label_3
_geom_angle
C1 N1 C2 104.70(13)
C1 N1 C3 127.39(13)
C2 N1 C3 127.88(13)
N2 C1 N1 110.95(15)
N2 C1 H1 124.5
N1 C1 H1 124.5
N3 C2 N1 111.17(14)
N3 C2 H2 124.4
N1 C2 H2 124.4
C1 N2 N3 106.72(13)
C2 N3 N2 106.46(13)
N1 C3 C4 113.30(12)
N1 C3 H3A 108.9
C4 C3 H3A 108.9
N1 C3 H3B 108.9
C4 C3 H3B 108.9
H3A C3 H3B 107.7
C15 N4 C16 104.11(13)
C15 N4 C14 126.59(13)
C16 N4 C14 129.15(13)
C5 C4 C13 119.02(14)
C5 C4 C3 121.96(13)
C13 C4 C3 119.02(13)
C4 C5 C6 121.20(14)
C4 C5 H5 119.4
C6 C5 H5 119.4
C15 N5 N6 106.59(13)
C16 N6 N5 106.43(13)
C7 C6 C5 121.81(14)
C7 C6 H6 119.1
C5 C6 H6 119.1
C6 C7 C8 118.85(14)
C6 C7 C14 120.80(13)
C8 C7 C14 120.35(13)
C9 C8 C7 122.35(14)
C9 C8 C13 118.38(13)
C7 C8 C13 119.27(13)
C10 C9 C8 121.15(14)
C10 C9 H9 119.4
C8 C9 H9 119.4
C9 C10 C11 120.38(14)
C9 C10 H10 119.8
C11 C10 H10 119.8
C12 C11 C10 120.39(14)
C12 C11 H11 119.8
C10 C11 H11 119.8
C11 C12 C13 121.00(14)
C11 C12 H12 119.5
C13 C12 H12 119.5
C12 C13 C4 121.74(14)
C12 C13 C8 118.64(13)
C4 C13 C8 119.63(13)
N4 C14 C7 111.75(12)
N4 C14 H14A 109.3
C7 C14 H14A 109.3
N4 C14 H14B 109.3
C7 C14 H14B 109.3
H14A C14 H14B 107.9
N5 C15 N4 111.35(14)
N5 C15 H15 124.3
N4 C15 H15 124.3
N6 C16 N4 111.53(15)
N6 C16 H16 124.2
N4 C16 H16 124.2
loop_
_geom_bond_atom_site_label_1
_geom_bond_atom_site_label_2
_geom_bond_distance
N1 C1 1.351(2)
N1 C2 1.3578(19)
N1 C3 1.4596(18)
C1 N2 1.310(2)
C1 H1 0.9500
C2 N3 1.305(2)
C2 H2 0.9500
N2 N3 1.398(2)
C3 C4 1.511(2)
C3 H3A 0.9900
C3 H3B 0.9900
N4 C15 1.3563(19)
N4 C16 1.360(2)
N4 C14 1.4652(19)
C4 C5 1.368(2)
C4 C13 1.430(2)
C5 C6 1.409(2)
C5 H5 0.9500
N5 C15 1.311(2)
N5 N6 1.398(2)
N6 C16 1.307(2)
C6 C7 1.368(2)
C6 H6 0.9500
C7 C8 1.431(2)
C7 C14 1.520(2)
C8 C9 1.423(2)
C8 C13 1.432(2)
C9 C10 1.372(2)
C9 H9 0.9500
C10 C11 1.406(2)
C10 H10 0.9500
C11 C12 1.369(2)
C11 H11 0.9500
C12 C13 1.426(2)
C12 H12 0.9500
C14 H14A 0.9900
C14 H14B 0.9900
C15 H15 0.9500
C16 H16 0.9500
loop_
_geom_torsion_atom_site_label_1
_geom_torsion_atom_site_label_2
_geom_torsion_atom_site_label_3
_geom_torsion_atom_site_label_4
_geom_torsion
C2 N1 C1 N2 0.80(18)
C3 N1 C1 N2 178.73(14)
C1 N1 C2 N3 -0.60(17)
C3 N1 C2 N3 -178.52(13)
N1 C1 N2 N3 -0.69(18)
N1 C2 N3 N2 0.20(17)
C1 N2 N3 C2 0.30(17)
C1 N1 C3 C4 -88.36(18)
C2 N1 C3 C4 89.11(18)
N1 C3 C4 C5 5.1(2)
N1 C3 C4 C13 -174.74(12)
C13 C4 C5 C6 3.8(2)
C3 C4 C5 C6 -176.08(14)
C15 N5 N6 C16 0.15(17)
C4 C5 C6 C7 -1.3(2)
C5 C6 C7 C8 -3.1(2)
C5 C6 C7 C14 176.70(13)
C6 C7 C8 C9 -175.26(14)
C14 C7 C8 C9 4.9(2)
C6 C7 C8 C13 4.9(2)
C14 C7 C8 C13 -174.89(13)
C7 C8 C9 C10 -177.08(14)
C13 C8 C9 C10 2.7(2)
C8 C9 C10 C11 -1.0(2)
C9 C10 C11 C12 -1.1(2)
C10 C11 C12 C13 1.2(2)
C11 C12 C13 C4 -179.62(14)
C11 C12 C13 C8 0.6(2)
C5 C4 C13 C12 178.35(13)
C3 C4 C13 C12 -1.8(2)
C5 C4 C13 C8 -1.8(2)
C3 C4 C13 C8 178.04(13)
C9 C8 C13 C12 -2.5(2)
C7 C8 C13 C12 177.33(13)
C9 C8 C13 C4 177.68(13)
C7 C8 C13 C4 -2.5(2)
C15 N4 C14 C7 -81.06(17)
C16 N4 C14 C7 93.86(18)
C6 C7 C14 N4 -30.72(19)
C8 C7 C14 N4 149.09(13)
N6 N5 C15 N4 -0.16(17)
C16 N4 C15 N5 0.11(17)
C14 N4 C15 N5 176.06(13)
N5 N6 C16 N4 -0.08(17)
C15 N4 C16 N6 -0.01(17)
C14 N4 C16 N6 -175.81(13)
