#------------------------------------------------------------------------------
#$Date: 2019-11-03 12:50:31 +0200 (Sun, 03 Nov 2019) $
#$Revision: 221445 $
#$URL: file:///home/coder/svn-repositories/cod/cif/4/12/83/4128322.cif $
#------------------------------------------------------------------------------
#
# This file is available in the Crystallography Open Database (COD),
# http://www.crystallography.net/
#
# All data on this site have been placed in the public domain by the
# contributors.
#
data_4128322
loop_
_publ_author_name
'Kusaka, Shinpei'
'Kiyose, Atsushi'
'Sato, Hiroshi'
'Hijikata, Yuh'
'Hori, Akihiro'
'Ma, Yunsheng'
'Matsuda, Ryotaro'
_publ_section_title
;
 Dynamic Topochemical Reaction Tuned by Guest Molecules in the Nanospace
 of a Metal-Organic Framework.
;
_journal_issue                   40
_journal_name_full               'Journal of the American Chemical Society'
_journal_page_first              15742
_journal_page_last               15746
_journal_paper_doi               10.1021/jacs.9b07682
_journal_volume                  141
_journal_year                    2019
_chemical_formula_moiety         'C30 H28 N2 O5 Zn'
_chemical_formula_sum            'C30 H28 N2 O5 Zn'
_chemical_formula_weight         561.94
_space_group_crystal_system      triclinic
_space_group_IT_number           2
_space_group_name_Hall           '-P 1'
_space_group_name_H-M_alt        'P -1'
_symmetry_space_group_name_Hall  '-P 1'
_symmetry_space_group_name_H-M   'P -1'
_atom_sites_solution_hydrogens   geom
_atom_sites_solution_primary     direct
_atom_sites_solution_secondary   difmap
_cell_angle_alpha                78.272(4)
_cell_angle_beta                 79.655(4)
_cell_angle_gamma                80.661(4)
_cell_formula_units_Z            2
_cell_length_a                   8.8203(4)
_cell_length_b                   11.0081(6)
_cell_length_c                   14.1769(6)
_cell_measurement_reflns_used    7878
_cell_measurement_temperature    93
_cell_measurement_theta_max      28.59
_cell_measurement_theta_min      2.62
_cell_volume                     1314.51(11)
_computing_cell_refinement       'CrysAlisPro 1.171.39.9b (Rigaku OD, 2015)'
_computing_data_collection       'CrysAlisPro 1.171.39.9b (Rigaku OD, 2015)'
_computing_data_reduction        'CrysAlisPro 1.171.39.9b (Rigaku OD, 2015)'
_computing_molecular_graphics    'CrystalStructure 4.2.2'
_computing_publication_material  'CrystalStructure 4.2.2 (Rigaku, 2016)'
_computing_structure_refinement  'SHELXL Version 2014/7 (Sheldrick, 2008)'
_computing_structure_solution    'SHELXT Version 2014/5 (Sheldrick, 2014)'
_diffrn_ambient_temperature      93
_diffrn_detector_area_resol_mean 5.811
_diffrn_measured_fraction_theta_full 1.000
_diffrn_measured_fraction_theta_max 0.874
_diffrn_measurement_device_type  'Rigaku XtaLAB P200'
_diffrn_measurement_method       \w
_diffrn_radiation_type           'Mo K\a'
_diffrn_radiation_wavelength     0.71075
_diffrn_reflns_av_R_equivalents  0.0433
_diffrn_reflns_Laue_measured_fraction_full 1.000
_diffrn_reflns_Laue_measured_fraction_max 0.874
_diffrn_reflns_limit_h_max       11
_diffrn_reflns_limit_h_min       -12
_diffrn_reflns_limit_k_max       15
_diffrn_reflns_limit_k_min       -14
_diffrn_reflns_limit_l_max       18
_diffrn_reflns_limit_l_min       -19
_diffrn_reflns_number            24641
_diffrn_reflns_point_group_measured_fraction_full 1.000
_diffrn_reflns_point_group_measured_fraction_max 0.874
_diffrn_reflns_theta_full        25.242
_diffrn_reflns_theta_max         30.393
_diffrn_reflns_theta_min         2.196
_diffrn_standards_number         0
_exptl_absorpt_coefficient_mu    0.978
_exptl_absorpt_correction_T_max  1.000
_exptl_absorpt_correction_T_min  0.744
_exptl_absorpt_correction_type   multi-scan
_exptl_absorpt_process_details
;
CrysAlisPro 1.171.39.9b (Rigaku Oxford Diffraction, 2015)
Empirical absorption correction using spherical harmonics,
 implemented in SCALE3 ABSPACK scaling algorithm.
;
_exptl_crystal_colour            nONE
_exptl_crystal_density_diffrn    1.420
_exptl_crystal_density_method    'not measured'
_exptl_crystal_description       nONE
_exptl_crystal_F_000             584.00
_refine_diff_density_max         1.32
_refine_diff_density_min         -1.13
_refine_ls_extinction_method     none
_refine_ls_goodness_of_fit_ref   1.043
_refine_ls_hydrogen_treatment    refxyz
_refine_ls_number_parameters     474
_refine_ls_number_reflns         6946
_refine_ls_number_restraints     951
_refine_ls_R_factor_all          0.0721
_refine_ls_R_factor_gt           0.0570
_refine_ls_shift/su_max          0.001
_refine_ls_structure_factor_coef Fsqd
_refine_ls_weighting_details
'w = 1/[\s^2^(Fo^2^)+(0.0462P)^2^+2.9848P] where P=(Fo^2^+2Fc^2^)/3'
_refine_ls_weighting_scheme      calc
_refine_ls_wR_factor_gt          0.1272
_refine_ls_wR_factor_ref         0.1334
_reflns_Friedel_coverage         0.000
_reflns_number_gt                5791
_reflns_number_total             6946
_reflns_threshold_expression     F^2^>2.0\s(F^2^)
_cod_data_source_file            ja9b07682_si_009.cif
_cod_data_source_block           xcalibur
_cod_database_code               4128322
_shelx_res_file
;

    shelxl.res created by SHELXL-2014/7

TITL shelxl_a.res in P-1
REM Old TITL irr100asssynDMF
REM SHELXT solution in P-1
REM R1 0.132, Rweak 0.016, Alpha 0.052, Orientation as input
REM Formula found by SHELXT: C27 N7 O6 Zn
CELL 0.71075 8.8203 11.0081 14.1769 78.272 79.655 80.661
ZERR 2 0.0004 0.0006 0.0006 0.004 0.004 0.004
LATT 1
SFAC C H N O Zn
UNIT 60 56 4 10 2
EQIV $1 1-X,1-Y,2-Z
DFIX 1.39 0.01 C15 C16 C16 C17 C17 C18 C18 C19
DFIX 2.41 0.04 C15 C17 C16 C18 C17 C19
DFIX 2.33 0.04 C15 C19
DFIX 1.39 0.01 C22 C23 C23 C24 C24 C25 C25 C26 C26 C27 C27 C22
DFIX 2.41 0.04 C22 C24 C23 C25 C24 C26 C25 C27 C26 C22 C27 C23
DFIX 1.37 0.01 N1 C15 N1 C19
DFIX 2.36 0.04 N1 C16 N1 C18
DFIX 1.39 0.01 C37 C38 C38 C39 C39 C40
DFIX 2.36 0.04 N2 C29 N2 C31
DFIX 1.37 0.01 N2 C28 N2 C32
DFIX 1.51 C36 C37 C40 C39
DFIX 1.39 0.01 C28 C29 C29 C30 C30 C31 C31 C32
DFIX 1.51 C30 C33
DFIX 1.48 C17 C20 C21 C22
DFIX 1.32 C20 C21
DFIX 1.58 0.001 C33 C34 C34 C35 C35 C36
DFIX 2.49 0.04 C33 C35 C34 C36
DFIX 0.8 C34 C21
DFIX 2.61 0.001 C30 C34
DFIX 1.15 0.001 C21 C34
FLAT N2 C28 C29 C30 C31 C32
FLAT N1 C15 C16 C17 C18 C19 C20 C21 C22 C23 C24 C25 C26 C27
SIMU 0.01 0.02 2
ISOR 0.01 0.02

L.S. 100
PLAN  10
TEMP -180
FREE C34 C34_$1
BOND $H
list 4
fmap 2
acta
REM <olex2.extras>
REM <HklSrc "%.\\shelxl.hkl">
REM </olex2.extras>

WGHT    0.046200    2.984800
FVAR       0.46904   0.65126
ZN1   5    0.116844    0.902891    0.544438    11.00000    0.01439    0.02344 =
         0.01771   -0.00326   -0.00246   -0.00692
O1    4   -0.008349    0.774434    0.521317    11.00000    0.02047    0.03209 =
         0.04729   -0.01157   -0.00850   -0.00964
O2    4   -0.180533    0.925538    0.456276    11.00000    0.03881    0.02991 =
         0.03379   -0.00022   -0.01460   -0.01675
O3    4    0.058992    1.065873    0.342738    11.00000    0.02389    0.04211 =
         0.02180   -0.00615    0.00069    0.00126
O4    4    0.231567    0.913768    0.406214    11.00000    0.02810    0.04363 =
         0.01982   -0.00078    0.00027   -0.00031
C1    1    0.181632    0.991586    0.336540    11.00000    0.02007    0.02871 =
         0.01996   -0.00565   -0.00158   -0.00879
C2    1    0.278083    0.995759    0.237094    11.00000    0.01756    0.03254 =
         0.01750   -0.00428   -0.00149   -0.00589
C3    1    0.411029    0.911311    0.222401    11.00000    0.02417    0.03738 =
         0.01964   -0.00072   -0.00363   -0.00031
AFIX  43
H3    2    0.443380    0.851594    0.275876    11.00000   -1.20000
AFIX   0
C4    1    0.497051    0.913301    0.130404    11.00000    0.02341    0.04031 =
         0.02198   -0.00269   -0.00174    0.00326
AFIX  43
H4    2    0.587659    0.854441    0.121786    11.00000   -1.20000
AFIX   0
C5    1    0.453591    1.000176    0.049602    11.00000    0.01928    0.03507 =
         0.01721   -0.00250   -0.00103   -0.00372
C6    1    0.320715    1.085508    0.065390    11.00000    0.02956    0.04229 =
         0.02052    0.00046   -0.00341    0.00330
AFIX  43
H6    2    0.288708    1.145946    0.012200    11.00000   -1.20000
AFIX   0
C7    1    0.234133    1.083633    0.157809    11.00000    0.02459    0.04017 =
         0.02305   -0.00414   -0.00134    0.00388
AFIX  43
H7    2    0.144080    1.142888    0.166976    11.00000   -1.20000
AFIX   0
C8    1   -0.133501    0.813676    0.488049    11.00000    0.02219    0.02963 =
         0.02190   -0.00575   -0.00134   -0.01157
C9    1   -0.238098    0.718911    0.487259    11.00000    0.02131    0.02764 =
         0.03517   -0.00398   -0.00924   -0.01077
C10   1   -0.200601    0.595718    0.524200    11.00000    0.04751    0.03995 =
         0.14479    0.01648   -0.06558   -0.01884
AFIX  43
H10   2   -0.104504    0.568443    0.548094    11.00000   -1.20000
AFIX   0
C11   1   -0.300888    0.509129    0.527496    11.00000    0.06127    0.03798 =
         0.16739    0.02537   -0.07723   -0.02294
AFIX  43
H11   2   -0.270724    0.423297    0.552022    11.00000   -1.20000
AFIX   0
C12   1   -0.444486    0.545561    0.495627    11.00000    0.02943    0.02759 =
         0.06984    0.00319   -0.02896   -0.01274
C13   1   -0.476911    0.668388    0.454204    11.00000    0.02349    0.02841 =
         0.03218    0.00024   -0.01313   -0.00920
AFIX  43
H13   2   -0.570865    0.695498    0.427737    11.00000   -1.20000
AFIX   0
C14   1   -0.376222    0.754287    0.449860    11.00000    0.02897    0.02550 =
         0.03594    0.00355   -0.01319   -0.01123
AFIX  43
H14   2   -0.402492    0.839029    0.420670    11.00000   -1.20000
AFIX   0
PART 1
N1    3    0.270424    0.795143    0.627128    21.00000    0.01987    0.02984 =
         0.02251   -0.00712   -0.00202   -0.00537
C15   1    0.394734    0.839912    0.643103     0.63641    0.02309    0.03507 =
         0.03715   -0.01282   -0.00878   -0.00374
AFIX  43
H15   2    0.413048    0.922031    0.611239     0.28563   -1.20000
AFIX   0
C16   1    0.496471    0.772634    0.703258    21.00000    0.03340    0.04861 =
         0.04219   -0.01281   -0.01450   -0.00579
AFIX  43
H16   2    0.579106    0.810278    0.715200    21.00000   -1.20000
AFIX   0
C17   1    0.479238    0.650993    0.746285    21.00000    0.03418    0.05289 =
         0.03368   -0.00826   -0.01180   -0.00237
C18   1    0.357116    0.601631    0.725121    21.00000    0.04194    0.04233 =
         0.04409    0.00522   -0.00898   -0.00656
AFIX  43
H18   2    0.341357    0.517556    0.752425    21.00000   -1.20000
AFIX   0
C19   1    0.258285    0.674384    0.664431    21.00000    0.03186    0.03877 =
         0.03734   -0.00002   -0.00745   -0.00809
AFIX  43
H19   2    0.178358    0.637400    0.648417    21.00000   -1.20000
AFIX   0
C20   1    0.581885    0.585817    0.818003    21.00000    0.04490    0.05262 =
         0.05072   -0.00120   -0.01915   -0.01450
AFIX  43
H20   2    0.667025    0.625387    0.823707    21.00000   -1.20000
AFIX   0
C21   1    0.563547    0.478094    0.873756    21.00000    0.05863    0.06107 =
         0.06057    0.00902   -0.03046   -0.02276
AFIX  43
H21   2    0.479283    0.439504    0.865289    21.00000   -1.20000
AFIX   0
C22   1    0.654106    0.411013    0.945802    21.00000    0.07241    0.06678 =
         0.05461    0.00216   -0.03525   -0.02303
C23   1    0.783086    0.458985    0.956299    21.00000    0.06566    0.07022 =
         0.06897    0.00435   -0.02764   -0.01763
AFIX  43
H23   2    0.790105    0.546207    0.942193    21.00000   -1.20000
AFIX   0
C24   1    0.900918    0.372124    0.988559    21.00000    0.05620    0.06857 =
         0.07332   -0.01556   -0.02300   -0.00795
AFIX  43
H24   2    0.997869    0.397857    0.990501    21.00000   -1.20000
AFIX   0
C25   1    0.880873    0.248929    1.017990    21.00000    0.05991    0.05534 =
         0.05847   -0.01645   -0.02388    0.01020
AFIX  43
H25   2    0.967257    0.190635    1.036054    21.00000   -1.20000
AFIX   0
C26   1    0.746648    0.206692    1.022583    21.00000    0.07165    0.05079 =
         0.06773   -0.01563   -0.02908   -0.00050
AFIX  43
H26   2    0.726750    0.125237    1.055270    21.00000   -1.20000
AFIX   0
C27   1    0.641713    0.288634    0.977242    21.00000    0.07277    0.05616 =
         0.06121   -0.01171   -0.03096   -0.00534
AFIX  43
H27   2    0.552445    0.258395    0.966519    21.00000   -1.20000
AFIX   0
PART 0
PART 2
N2    3    0.262195    0.802359    0.633697   -21.00000    0.02601    0.03190 =
         0.02544   -0.00519   -0.00640   -0.00830
C28   1    0.224686    0.693786    0.690934   -21.00000    0.02817    0.03086 =
         0.02966   -0.00448   -0.00840   -0.01322
AFIX  43
H28   2    0.140795    0.657687    0.678933   -21.00000   -1.20000
AFIX   0
C29   1    0.304738    0.634103    0.766138   -21.00000    0.03452    0.03937 =
         0.03820    0.00290   -0.01422   -0.01381
AFIX  43
H29   2    0.277659    0.556483    0.803274   -21.00000   -1.20000
AFIX   0
C30   1    0.424618    0.686166    0.788269   -21.00000    0.03648    0.04178 =
         0.03999   -0.00355   -0.01875   -0.01116
C31   1    0.465087    0.795042    0.728320   -21.00000    0.03286    0.04090 =
         0.03793   -0.00689   -0.01436   -0.01117
AFIX  43
H31   2    0.555135    0.827941    0.734682   -21.00000   -1.20000
AFIX   0
C32   1    0.374073    0.855581    0.659280   -21.00000    0.02890    0.03853 =
         0.03910   -0.00887   -0.01106   -0.00518
AFIX  43
H32   2    0.390032    0.938397    0.627992   -21.00000   -1.20000
AFIX   0
C33   1    0.501981    0.644182    0.879319   -21.00000    0.04268    0.04739 =
         0.04237   -0.00017   -0.01716   -0.00973
AFIX  13
H33   2    0.614128    0.656654    0.866903   -21.00000   -1.20000
AFIX   0
C34   1    0.474026    0.508901    0.936757   -21.00000    0.05732    0.04923 =
         0.05109    0.00242   -0.02716   -0.01658
AFIX  13
H34   2    0.421145    0.459843    0.903274   -21.00000   -1.20000
AFIX   0
C35   1    0.630104    0.439152    0.972723   -21.00000    0.06468    0.05363 =
         0.04838   -0.00093   -0.03226   -0.01756
C36   1    0.590247    0.305108    1.026412   -21.00000    0.06107    0.04919 =
         0.04796   -0.00638   -0.03421   -0.01144
AFIX  13
H36   2    0.522259    0.270128    0.992118   -21.00000   -1.20000
AFIX   0
C37   1    0.727706    0.214724    1.051930   -21.00000    0.07201    0.05170 =
         0.06265   -0.01968   -0.02511   -0.00097
AFIX  43
H37   2    0.734271    0.129438    1.046272   -21.00000   -1.20000
AFIX   0
C38   1    0.846187    0.256403    1.084081   -21.00000    0.06147    0.06787 =
         0.06390   -0.00834   -0.02259    0.00064
AFIX  43
H38   2    0.913990    0.202182    1.123996   -21.00000   -1.20000
AFIX   0
C39   1    0.858802    0.383402    1.053729   -21.00000    0.06118    0.07342 =
         0.06990   -0.00585   -0.02027   -0.01198
AFIX  43
H39   2    0.934079    0.416733    1.077749   -21.00000   -1.20000
AFIX   0
C40   1    0.766910    0.466086    0.989476   -21.00000    0.06141    0.06313 =
         0.06031   -0.00187   -0.02199   -0.01300
AFIX  43
H40   2    0.802071    0.543086    0.956927   -21.00000   -1.20000
AFIX   0

PART 0
O5    4    0.763957    0.679671    0.166570    11.00000    0.06329    0.04074 =
         0.14818   -0.00771   -0.07171   -0.00399
N3    3    0.956876    0.738624    0.228176    11.00000    0.03752    0.04097 =
         0.05601   -0.00724   -0.01906   -0.00668
C41   1    0.876284    0.656823    0.209700    11.00000    0.05124    0.03866 =
         0.09329   -0.00278   -0.03721   -0.00682
AFIX  43
H41   2    0.909462    0.571009    0.232479    11.00000   -1.20000
AFIX   0
C42   1    1.096393    0.699501    0.271926    11.00000    0.04176    0.05888 =
         0.05118   -0.01348   -0.01999   -0.00613
AFIX 137
H42A  2    1.185030    0.730294    0.226250    11.00000   -1.50000
H42B  2    1.114185    0.607910    0.287416    11.00000   -1.50000
H42C  2    1.084811    0.733700    0.331856    11.00000   -1.50000
AFIX   0
C43   1    0.910327    0.871891    0.200768    11.00000    0.06590    0.04280 =
         0.07533   -0.00965   -0.03332   -0.01161
AFIX 137
H43A  2    0.914454    0.913706    0.254867    11.00000   -1.50000
H43B  2    0.804036    0.886409    0.185614    11.00000   -1.50000
H43C  2    0.981026    0.905644    0.143297    11.00000   -1.50000
AFIX   0
HKLF 4

REM  shelxl_a.res in P-1
REM R1 =  0.0570 for    5791 Fo > 4sig(Fo)  and  0.0721 for all    6946 data
REM    474 parameters refined using    951 restraints

END

WGHT      0.0462      2.9901

REM Highest difference peak  1.320,  deepest hole -1.127,  1-sigma level  0.092
Q1    1  -0.3403  0.5208  0.5776  11.00000  0.05    1.32
Q2    1   0.0735  0.9756  0.5391  11.00000  0.05    1.07
Q3    1   0.1743  0.8386  0.5768  11.00000  0.05    1.06
Q4    1  -0.2406  0.6038  0.5729  11.00000  0.05    1.00
Q5    1  -0.2735  0.5008  0.4951  11.00000  0.05    0.95
Q6    1   0.0965  0.8937  0.6019  11.00000  0.05    0.72
Q7    1   0.5113  0.4984  0.9201  11.00000  0.05    0.71
Q8    1  -0.1791  0.5862  0.4966  11.00000  0.05    0.63
Q9    1   0.5412  0.5118  0.8120  11.00000  0.05    0.63
Q10   1   0.6205  0.5385  0.8769  11.00000  0.05    0.57
;
_shelx_res_checksum              48450
_shelx_hkl_file
;
   0   1   1 1040.52   39.43
  -1   0   0   68.67    2.79
  -1   0  -1  712.06   27.02
   1   0   1  625.04   23.99
   0  -1   1  791.07   29.63
   0  -1   1  769.54   29.66
  -1  -1   0 1912.04   77.24
  -1  -1   0 2092.69   77.30
  -1  -1   0 2129.29   77.28
   1   1   0 2169.08   81.99
  -1  -1  -1  635.83   24.93
  -1  -1  -1  667.63   24.90
  -1  -1  -1  654.91   24.86
  -1  -1  -1  657.45   24.95
   0   0   2 1969.39   74.55
   0   0  -2 1816.67   68.79
  -1   0   1 1651.11   62.69
  -1   0   1 1673.90   62.87
   1   0  -1 1610.93   61.13
   1  -1   0  245.39    9.68
  -1   1   0  230.54    9.02
   0   1   2  620.61   23.65
  -1   0  -2   27.30    1.99
   1   0   2   33.68    1.50
   1   0   2   28.02    2.17
  -1   0  -2   28.73    1.63
  -1   0  -2   31.65    1.41
   1   1  -1 1091.31   43.19
  -1  -1   1 1153.74   44.12
  -1  -1   1 1164.20   44.04
   1   1  -1 1170.97   43.12
  -1   1  -1 4904.70  178.34
   1  -1   1 5016.42  181.70
  -1   1  -1 4506.82  178.38
   1  -1   1 4628.51  181.63
  -1   1   1   63.51    2.69
  -1  -1  -2  471.79   18.05
   1   1   2  487.96   18.43
   1   1   2  477.19   18.28
   0   1  -2  291.77   11.33
   0  -1   2  286.10   11.21
   0  -1   2  290.83   11.20
   0   2   0    6.23    1.46
   0   2   1   10.47    1.34
   0   2   1    8.00    1.43
   1   0  -2  860.56   32.92
  -1   0   2  794.67   30.86
  -1   0   2  810.48   30.62
   1   2   1 9953.18  375.87
  -1  -2  -1 9902.87  373.99
   1   2   0    6.34    1.95
  -1  -2   0    5.08    1.86
   0  -2   1   43.61    2.45
   0   2  -1   43.62    2.55
   0  -2   1   48.99    2.30
   0   2  -1   48.14    2.41
   1  -1   2   15.16    1.85
  -1   1  -2   14.26    1.86
   0   2   2  439.85   16.77
   0   2   2  429.98   16.73
   0  -2  -2  426.66   16.48
  -1   1   2 1003.25   38.66
  -1   1   2 1029.66   38.60
   1  -1  -2 1025.86   38.88
   0   0  -3  968.80   37.23
   0   0  -3  994.75   37.33
   0   0   3 1127.15   42.89
   1   2   2  102.89    4.38
   1   2   2  104.92    4.33
   0   1   3  304.45   11.61
   0  -1  -3  299.71   11.70
   0   1   3  293.98   11.68
   0   1   3  294.79   11.50
  -1  -1   2  421.15   15.89
  -1  -1   2  401.00   16.08
  -1  -1  -3   93.45    3.92
   1   1   3   91.74    3.82
   1   1   3   91.27    4.17
  -1  -1  -3   95.76    4.37
  -1  -1  -3   94.72    4.02
   1   0   3   15.57    1.93
  -1   0  -3   17.75    1.34
  -1   0  -3   17.00    2.04
   1   0   3   14.36    1.37
   1   0   3   16.59    2.15
   2   0   0   52.20    2.29
  -2   0   0   55.27    2.22
  -2   0   0   49.69    2.17
   2   0   0   55.40    2.27
  -2   0   0   45.07    3.12
   2   0   0   54.21    2.58
  -2   0   0   48.01    2.57
  -2   0  -1  154.47    6.28
   2   0   1  150.86    6.32
  -2   0  -1  148.52    5.97
   2   0   1  159.07    6.01
  -1   2   0  422.02   15.39
  -1   2   0  379.50   15.15
   1  -2   0  413.71   15.87
   2   1   1   41.17    2.26
   2   1   1   36.15    2.12
   2   1   1   37.53    2.14
   2   1   1   41.31    2.08
  -2  -1  -1   37.77    2.12
  -2  -1  -1   38.85    2.12
  -2  -1  -1   38.62    2.80
   1   2  -1   -1.20    1.59
   1   2  -1    2.26    1.45
  -1  -2   1    1.16    1.52
  -1  -2   1    1.00    2.02
   2   1   0   18.56    1.57
   2   1   0   15.10    1.43
   2   1   0   15.14    1.38
   2   1   0   16.44    2.25
  -2  -1   0   12.51    2.50
  -2  -1   0   17.08    2.21
   1  -2  -1  499.16   19.11
  -1   2   1  510.02   19.50
  -1   2  -1    6.16    1.72
   1  -2   1    7.00    1.49
   2   1   2  616.44   23.78
  -2  -1  -2  613.39   23.45
   2   1   2  616.53   24.08
   2   1   2  637.61   23.91
  -2  -1  -2  613.40   23.53
  -2  -1  -2  622.86   23.62
   0   1  -3  142.07    5.89
   0  -1   3  135.00    5.61
  -2   0   1   57.94    2.42
  -2   0   1   54.65    3.18
   2   0  -1   52.41    2.53
   2   0  -1   53.36    3.25
   2   0   2   57.53    3.77
  -2   0  -2   66.62    3.27
  -2   0  -2   62.93    2.69
   2   0   2   63.96    3.70
  -2   0  -2   64.71    2.90
   0   2  -2   -0.28    1.37
   0  -2   2    1.86    1.47
   0  -2   2    3.58    1.28
   0   2  -2    1.27    1.67
   0   2  -2    0.73    1.46
   0   2   3  982.09   37.43
   0  -2  -3  969.77   37.00
  -1  -2  -3  139.76    5.79
   1   2   3  138.61    5.70
   2  -1   0    2.38    1.36
   2  -1   0    0.78    2.03
  -2   1   0    0.46    2.36
  -2   1   0   -0.48    1.38
   1   0  -3  428.79   16.74
  -1   0   3  451.73   16.76
  -1   0   3  451.67   16.39
   2   1  -1  218.12    8.53
   2   1  -1  192.82    8.70
  -2  -1   1  209.99    8.43
  -2  -1   1  193.93    8.59
  -1   2   2  117.11    4.78
   1  -2  -2  122.71    4.98
   1  -2  -2  120.74    5.00
   2  -1   1  156.08    7.23
  -2   1  -1  168.01    6.97
  -2   1  -1  168.37    7.36
   2  -1   1  179.06    7.26
   1  -1   3    5.20    1.76
   1  -1   3    6.07    1.59
  -1   1  -3    3.56    1.50
   1  -1   3    6.00    1.73
  -1   1  -3    4.80    1.67
  -2  -2  -1  147.95    6.36
   2   2   1  144.08    5.91
   2   2   1  136.05    5.83
   2   2   1  143.87    6.41
   2   2   1  139.10    5.84
  -2  -2  -1  144.80    5.94
   2   2   1  146.46    5.90
   2   2   1  138.69    6.51
   2   2   1  141.52    6.18
  -2  -2  -1  132.97    5.81
  -2  -2  -1  146.76    5.92
   1  -1  -311976.20  454.93
  -1   1   312102.80  450.35
  -1   1   311722.60  450.40
   1  -1  -312090.90  454.79
  -2   1   1  152.60    7.06
  -2   1   1  157.09    6.43
   0  -3  -1   43.22    2.49
   0   3   1   48.92    2.68
   2   2   0    7.29    2.06
   2   2   0    3.59    1.49
  -2  -2   0    5.53    1.95
  -2  -2   0    3.92    2.21
   2   2   0    5.07    2.12
  -2  -2   0    5.06    2.16
   2   2   0    5.13    1.16
   2   2   0    4.95    1.52
   2   2   0    5.52    2.17
   0   3   0   23.60    2.00
   0  -3   0   21.16    1.30
   0  -3   0   27.58    1.83
  -2  -2  -2 3260.84  122.87
  -2  -2  -2 3249.70  122.95
   2   2   2 3224.30  121.45
  -2  -2  -2 3207.64  122.79
  -2  -2  -2 3278.57  122.94
   2   2   2 3126.62  121.40
   2   2   2 3255.52  121.32
  -1  -2   2   80.96    3.72
   1   2  -2   95.82    3.96
  -1  -3  -1 1272.42   48.44
  -1   2  -2  190.45    7.62
   1  -2   2  176.03    7.32
   1  -2   2  189.74    7.53
   1  -2   2  182.81    7.20
  -1   2  -2  180.60    7.29
  -2  -1  -3   92.70    3.82
  -2  -1  -3   89.42    3.98
  -2  -1  -3   81.12    4.18
   2   1   3   89.11    3.60
   2   1   3   92.79    3.94
   2   1   3   84.43    4.71
  -1  -1   3  809.94   30.77
  -1  -3   0   44.82    2.75
   0   1   4 1173.01   46.39
   0  -1  -4 1179.65   44.99
   0   1   4 1257.51   46.50
   0   1   4 1250.89   46.55
   0  -1  -4 1235.14   45.00
   0  -1  -4 1140.24   44.86
   2  -1   2  707.19   26.99
  -2   1  -2  737.04   28.44
  -2   1  -2  726.32   28.42
   2  -1   2  681.56   27.01
   1   1   4   18.21    2.00
  -1  -1  -4   22.22    2.19
  -1  -1  -4   21.17    1.47
   1   1   4   19.30    1.53
   0   0   4 1986.20   75.44
   0   0  -4 1940.79   74.72
   0   0  -4 2012.07   74.84
   1   3   2  249.26    9.58
  -1  -3  -2  228.13    9.03
   0  -3  -2  223.34    8.94
   0   3   2  217.81    9.06
   0   3   2  236.37    9.12
   2   0  -2  803.52   31.33
  -2   0   2  855.16   30.84
   2   0  -2  813.49   30.88
  -2   0   2  789.34   30.92
  -2   0   2  807.05   31.35
  -2   0  -3  160.24    6.39
  -2   0  -3  157.78    6.95
  -2   0  -3  153.96    6.05
   2   0   3  161.44    7.25
   1   0   4   98.37    4.46
  -1   0  -4   95.27    4.02
   1   0   4   88.31    3.94
   1   0   4  101.14    4.56
  -1   0  -4   96.72    4.41
   0   3  -1  373.77   14.60
   0  -3   1  422.80   15.85
   0  -3   1  396.61   16.04
  -2  -2   1   86.10    3.98
   2   2  -1   85.64    3.54
   2   2  -1   88.45    4.36
   2   2  -1   85.25    4.23
  -2  -2   1   77.64    4.13
  -2  -2   1   74.45    4.15
  -2  -1   2  610.95   22.98
   2   1  -2  627.81   24.14
   2   1  -2  615.61   23.69
  -2  -1   2  567.31   23.13
   2   1  -2  580.30   24.14
   2   1  -2  649.90   23.95
   1  -2  -3 1912.94   72.74
   1  -2  -3 1926.29   72.78
  -1   2   3 1922.85   70.45
  -1   2   3 1789.06   70.48
  -2   1   2  167.28    6.68
   2  -1  -2  169.69    6.79
  -2  -2  -3    6.28    1.38
  -2  -2  -3    4.59    1.48
  -2  -2  -3    7.15    1.54
   2   2   3    4.60    1.29
   0   2  -3  366.01   14.97
   0   2  -3  400.88   14.98
   0  -2   3  395.97   14.78
   0  -2   3  362.47   14.72
   1   2   4   30.77    2.09
   1   2   4   24.87    2.27
   1   2   4   29.26    1.91
   1   2   4   26.07    1.74
  -1  -2  -4   29.67    2.22
   1   3  -1    2.16    1.57
   1   3  -1    0.92    1.39
  -1  -3   1    3.95    1.85
  -2   2   0  284.82   12.20
  -2   2   0  293.42   11.92
   2  -2   0  279.05   10.72
  -2   2   0  302.69   11.44
   2  -2   0  280.84   11.34
   0   2   4  124.53    4.73
   0  -2  -4  126.12    5.35
   0   2   4  101.91    4.40
  -1   3   0   54.76    2.72
   1  -3   0   60.15    2.87
   1  -3  -1  123.66    5.17
  -1   3   1  126.86    5.28
   1   3   3    7.65    1.26
   1   3   3    6.97    1.42
  -1  -3  -3    5.10    1.28
   0   1  -4   36.50    2.17
   0   1  -4   29.87    1.92
   0  -1   4   37.12    2.27
   0  -1   4   33.94    1.99
   0  -3  -3   33.90    2.20
   0   3   3   35.21    2.15
   0   3   3   33.80    2.15
   0  -3  -3   32.60    2.14
  -2   2  -1  573.75   20.81
  -2   2  -1  562.11   20.69
  -2   2  -1  550.41   20.57
   2  -2   1  559.26   21.82
  -2   2  -1  501.86   20.01
  -2   2   1  422.60   16.13
  -2   2   1  395.91   16.43
   2  -2  -1  403.03   15.43
   2  -1   3  166.01    7.10
   2  -1   3  152.20    7.04
  -2   1  -3  172.59    7.57
  -2  -3  -1  163.10    6.78
  -2  -3  -1  161.08    6.85
  -2  -3  -1  166.82    7.05
   2   3   1  171.61    7.35
   2   3   1  161.28    6.96
   2   3   1  168.79    7.08
   2   3   1  162.34    7.00
   2   3   1  166.94    6.88
   1   0  -4 1261.15   48.18
  -1   0   4 1301.61   50.61
  -1   0   4 1337.65   50.33
  -1   2  -3  364.02   14.27
   1  -2   3  381.49   14.57
  -1   2  -3  360.75   13.99
   1  -2   3  367.29   14.60
  -1   2  -3  362.64   14.38
   1  -2   3  366.04   14.69
   1  -1   4  459.41   17.71
   1  -1   4  462.83   17.73
  -1   1  -4  428.23   17.06
   1  -1   4  435.94   17.80
  -1   1  -4  462.68   17.40
  -1   1  -4  457.28   17.49
  -1   1   4 1285.98   49.09
   1  -1  -4 1276.48   48.36
   1  -1  -4 1264.19   48.45
  -1   3  -1  888.87   34.21
  -1   3  -1  900.49   34.17
  -2  -1  -4  154.75    6.21
   2   1   4  155.40    6.54
   2   1   4  156.33    6.22
   2   1   4  155.61    6.73
   2   1   4  170.32    7.28
  -2  -1  -4  157.57    6.57
  -2  -1  -4  157.27    6.60
  -2  -1  -4  160.71    6.41
   2   3   2 4388.20  168.95
   2   3   2 4475.39  168.97
  -2  -3  -2 4497.34  167.86
   2   3   2 4465.20  168.96
  -2  -3  -2 4410.90  167.80
   2   3   2 4574.05  169.38
  -2  -3  -2 4400.62  167.71
  -1   3   2  802.79   30.71
  -1   3   2  805.45   30.78
   1  -3  -2  796.19   30.46
   1   2  -3   16.32    1.35
  -1  -2   3   16.99    1.79
   0  -3   2 1155.60   43.95
   0   3  -2 1191.03   44.08
   0   3  -2 1108.37   44.22
   0   3  -2 1161.18   44.15
   2   3   0   11.80    1.83
   2   3   0   12.27    2.22
  -2  -3   0   14.27    2.20
   2   3   0   10.35    2.37
   2   3   0   11.90    2.07
   3   1   1  772.89   29.53
  -3  -1  -1  735.61   29.39
   3   1   1  774.77   29.74
  -3  -1  -1  760.15   28.69
   3   1   1  771.23   29.48
  -3  -1  -1  742.19   28.86
  -2   0   3  763.01   29.06
   2   0  -3  759.92   28.94
  -2   0   3  741.07   28.58
   2   0  -3  750.27   29.33
  -2   0  -4  525.07   19.91
  -2   0  -4  507.01   19.45
  -2   0  -4  492.07   19.12
   2   0   4  514.64   20.41
   2   2  -2    5.19    1.69
  -2  -2   2    6.20    1.68
   2   2  -2    3.95    1.83
  -2  -2   2    2.82    2.04
   3   0   1  402.69   15.89
   3   0   1  380.72   16.38
   3   0   1  396.25   15.42
   3   0   1  425.04   15.54
  -3   0  -1  412.20   16.14
  -3   0  -1  438.60   16.56
   2  -2   2 2477.01   93.28
   2  -2   2 2444.06   92.70
  -2   2  -2 2508.27   95.13
  -2   2  -2 2491.72   95.20
   2  -2   2 2452.84   93.18
  -3   0   0  808.86   32.05
  -3   0   0  837.31   31.55
  -3   0   0  824.74   31.21
   3   0   0  812.16   30.93
   3   0   0  799.13   31.24
   3   0   0  823.78   30.93
  -3   0   0  816.10   31.14
   3   1   0   30.83    1.81
  -3  -1   0   30.30    2.87
   3   1   0   28.50    2.79
   3   1   0   30.40    1.76
  -3  -1   0   25.50    3.07
  -3  -1   0   31.74    1.94
   3   1   0   28.47    1.86
   3   1   0   28.00    1.48
  -2   2   2  219.53    8.85
   2  -2  -2  243.86    9.52
  -2   2   2  225.97    8.64
   2   2   4  351.20   13.58
   2   2   4  338.52   13.39
   2   2   4  356.41   13.73
  -2  -2  -4  348.87   13.70
   2   2   4  354.98   14.32
  -3  -1  -2   28.86    1.81
  -3  -1  -2   29.99    2.20
   3   1   2   30.59    1.84
   3   1   2   28.45    1.71
   3   1   2   29.19    1.74
   3   1   2   31.22    2.30
  -3  -1  -2   30.65    1.91
  -2   1   3    8.97    1.32
   2  -1  -3    5.80    2.14
   2  -1  -3    7.50    1.34
  -1  -1   4   20.89    2.31
  -1  -1   4   22.48    1.56
  -1  -3   2  413.37   16.51
   1   3  -2  460.69   18.12
  -1  -3   2  459.54   16.99
   1   3  -2  469.53   18.01
   2   3   3   41.27    2.54
   2   3   3   38.93    2.52
  -2  -3  -3   40.21    2.49
   2   3   3   42.39    2.63
  -1  -1  -5  116.61    5.30
  -1  -1  -5  117.02    4.89
   1   1   5  112.61    5.15
   1   1   5  117.20    4.85
  -1  -1  -5  115.38    5.27
  -3   0  -2  608.42   25.08
  -3   0  -2  633.50   24.12
  -3   0  -2  639.71   24.32
  -3   0  -2  640.22   24.71
   3   0   2  618.79   24.01
   3   0   2  613.49   24.46
   2   1  -3   39.32    3.01
   2   1  -3   41.10    2.21
  -2  -1   3   37.97    3.11
  -2  -1   3   37.12    2.87
  -2  -1   3   38.53    2.54
  -1  -3  -4    5.16    1.49
   1   3   4    5.14    1.37
  -1  -3  -4    5.93    1.53
   0   1   5   56.19    2.99
   0  -1  -5   50.67    3.01
   0  -1  -5   51.90    2.60
   0   1   5   52.09    2.84
   0  -1  -5   47.34    2.72
   1  -2  -4  148.15    6.04
  -1   2   4  135.45    5.92
   1  -2  -4  145.46    6.18
  -1   2   4  150.70    5.91
   1  -3   2  369.97   14.63
   1  -3   2  379.28   14.54
  -1   3  -2  401.60   15.23
  -1   3  -2  366.63   15.09
   1  -3   2  372.14   14.42
   3   2   1    2.73    2.27
   3   2   1    1.22    1.48
  -3  -2  -1    2.32    1.36
   3   2   1    0.91    2.07
   3   2   1    2.72    2.59
  -3  -2  -1    1.98    1.31
  -3  -2  -1    1.40    2.22
  -3  -2  -1    2.16    1.41
   3   2   1    1.71    1.47
   3   2   1    1.68    1.34
   3   2   1    2.26    1.32
   0   0   5   39.95    2.48
   0   0  -5   36.82    2.24
   0   0  -5   38.26    2.38
   0   0   5   34.82    2.25
  -1   0  -5  147.22    6.02
   1   0   5  157.06    6.74
   1   0   5  148.09    6.16
   1   0   5  150.13    6.63
  -2  -3   1   14.25    2.21
  -2  -3   1   13.11    2.32
   2   3  -1   17.84    2.45
   2   3  -1   15.69    2.13
   2   3  -1   17.70    2.26
   1  -3  -3  436.26   16.78
   1  -3  -3  427.65   16.78
  -1   3   3  421.12   16.26
  -1   3   3  417.31   16.26
   0   3   4  479.75   18.64
   0  -3  -4  498.28   18.73
   0  -3  -4  463.51   18.65
   0   3   4  480.93   18.67
   3   0  -1   94.07    3.83
   3   0  -1   90.92    4.87
  -3   0   1   97.77    5.03
  -3   0   1   95.62    4.03
   3   0  -1   98.68    4.00
  -3   0   1  102.23    4.28
   3   0  -1  100.48    4.15
  -1  -4  -1  849.28   32.63
   1   4   1  795.07   30.69
   3   2   2  426.37   16.28
   3   2   2  409.83   16.18
   3   2   2  415.46   16.11
  -3  -2  -2  410.64   16.46
  -3  -2  -2  443.67   16.37
  -3  -2  -2  411.64   17.05
   3   2   2  413.03   16.41
  -3  -2  -2  405.74   16.40
   0  -4  -1  509.07   19.81
   0   4   1  467.13   18.23
   3   1  -1   31.64    1.75
   3   1  -1   34.08    1.92
  -3  -1   1   37.95    2.96
   3   1  -1   28.78    2.67
   3   1  -1   34.52    3.13
  -3  -1   1   28.99    1.83
  -3  -1   1   33.13    3.12
   3   1  -1   38.43    1.86
   1   2   5   24.88    1.76
   1   2   5   27.57    2.30
  -1  -2  -5   24.91    1.74
   1   2   5   25.95    1.91
  -1  -2  -5   23.22    2.00
  -1  -2  -5   23.98    1.89
  -1  -2  -5   24.66    2.24
   1   2   5   27.01    2.17
   1   4   2   33.06    2.62
   1   4   2   41.45    2.64
  -1  -4  -2   33.09    2.25
  -3   1   0  341.76   14.01
  -3   1   0  385.08   14.59
  -3   1   0  379.37   15.15
  -3   1   0  389.46   14.09
   3  -1   0  384.05   15.11
   3  -1   0  384.64   15.62
  -3   1   0  380.65   14.06
   3  -1   1  579.81   22.19
   3  -1   1  604.39   22.66
  -3   1  -1  603.61   23.05
  -3   1  -1  604.74   23.55
  -3   1  -1  605.19   23.98
   3   1   3   55.54    3.35
   3   1   3   57.42    2.28
  -3  -1  -3   53.05    3.05
  -3  -1  -3   47.80    2.40
   3   1   3   55.62    4.10
  -3  -1  -3   55.24    2.58
  -3  -1  -3   57.00    2.76
   3   1   3   54.89    2.61
   3   1   3   56.46    2.78
   3   2   0   43.46    3.17
  -3  -2   0   41.60    3.46
   3   2   0   44.75    2.48
  -3  -2   0   40.78    2.18
  -3  -2   0   39.66    3.21
   3   2   0   42.21    2.46
   3   2   0   40.38    3.25
   3   2   0   41.84    3.28
   3   2   0   41.34    2.33
   0   2  -4  172.50    7.44
   0  -2   4  170.68    7.10
   0   2  -4  186.85    7.54
   0  -4   0  156.26    6.22
   0  -4   0  142.52    5.70
   0  -4   0  141.40    6.16
   0   4   0  147.36    6.31
   0   4   2    1.58    1.54
   0   4   2   -0.18    1.57
   0  -4  -2    0.03    1.58
   1   4   0  136.98    5.46
  -1  -4   0  182.41    7.70
   1   4   0  160.42    6.22
   2  -1   4  569.53   22.81
   2  -1   4  598.95   22.71
  -2   1  -4  607.18   23.86
   2  -1   4  575.81   22.89
   0   2   5  215.31    8.91
   0   2   5  221.49    8.71
   0  -2  -5  208.87    8.63
   0  -2  -5  209.96    8.80
   0  -2  -5  225.76    8.77
   0   2   5  224.59    9.04
   3   0   3 1103.91   42.81
  -3   0  -3 1099.18   42.76
  -3   0  -3 1092.09   41.84
   3   0   3 1124.34   42.89
   3   0   3 1090.74   42.50
  -3   0  -3 1138.23   42.50
  -3   0  -3 1102.07   42.05
  -2   2  -3  912.84   35.37
   2  -2   3  928.19   35.78
   2  -2   3  924.08   35.70
  -1   2  -4  609.12   23.77
   1  -2   4  606.72   23.60
  -1   2  -4  591.40   23.57
   1  -2   4  590.42   23.70
   1  -2   4  625.68   23.54
  -1   2  -4  628.98   23.68
   0   3  -3  228.25    8.10
   0   3  -3  202.85    8.16
   0   3  -3  210.77    8.04
   0  -3   3  211.02    8.52
   2  -2  -3    7.43    1.04
  -2   2   3    7.29    1.32
  -2   2   3    6.35    0.94
   3  -1  -1    3.92    2.37
  -3   1   1    3.84    1.42
  -3   1   1    4.65    1.03
  -3   1   1    5.49    2.35
   3   2   3   90.83    4.09
  -3  -2  -3   92.63    4.45
   3   2   3   91.09    4.57
  -3  -2  -3   92.90    4.06
  -3  -2  -3   93.39    4.18
   3   2   3   98.29    4.28
  -3  -2  -3   91.88    4.28
   3  -1   2  563.53   21.99
  -3   1  -2  555.15   21.72
  -3   1  -2  595.88   22.64
  -3   1  -2  574.42   22.23
   3  -1   2  554.68   22.32
  -3   1  -2  563.16   22.57
   3  -1   2  566.93   22.35
  -2   3   0  148.84    7.26
   2  -3   0  162.24    6.49
  -2   3   0  167.83    6.60
  -2   3   0  170.96    7.11
   2   3   4  121.61    5.21
   2   3   4  118.68    5.24
  -2  -3  -4  115.29    5.14
   2   1   5  573.91   21.99
  -2  -1  -5  557.08   21.31
   2   1   5  583.63   22.84
   2   1   5  584.46   22.39
   2   1   5  553.78   22.59
  -2  -1  -5  553.76   21.66
  -1  -4  -3   15.41    1.89
   1   4   3   16.76    1.95
  -1  -4  -3   11.85    1.48
  -2   3   1  400.93   15.21
   2  -3  -1  384.19   14.85
  -2   3   1  375.22   15.85
   0  -1   5   14.63    1.88
   0   1  -5   12.87    1.60
   0   1  -5   15.21    1.76
   0   4  -1    4.67    1.72
   0  -4   1    8.26    1.20
   0  -4   1    7.89    1.75
  -2  -2   3  117.21    5.09
   2   2  -3  132.37    5.56
  -2  -2   3  111.78    5.50
   1  -1   5  250.39    9.99
   1  -1   5  248.14   10.11
   1  -1   5  234.29    9.97
  -1   1  -5  215.38    8.99
  -1   1  -5  249.42    9.52
  -2   3  -1  248.63    9.89
  -2   3  -1  248.00   10.45
   2  -3   1  249.44   10.17
  -2   3  -1  266.38   10.66
  -3  -2   1   92.66    4.80
   3   2  -1   89.66    4.84
   3   2  -1   90.28    3.81
   3   2  -1   88.05    4.63
  -3  -2   1   89.74    5.00
  -1  -2   4  381.18   14.77
   1   2  -4  390.01   15.18
  -3   0   2   32.74    3.38
  -3   0   2   36.49    1.98
  -3   0   2   43.41    3.18
   3   0  -2   39.46    2.14
   3   0  -2   38.79    3.29
  -3   0   2   36.81    2.08
  -1   1   5 1779.55   68.12
   1  -1  -5 1747.08   66.46
   1  -1  -5 1745.23   66.41
  -1   1   5 1811.17   68.30
   0  -4  -3   80.56    3.92
   0   4   3   83.57    4.05
   0   4   3   83.74    3.97
  -1   0   5  117.81    5.52
   2   0  -4 1425.54   54.63
  -2   0   4 1460.30   53.97
  -2   0   4 1406.05   53.28
  -2   0   4 1379.00   53.48
   2   0  -4 1426.10   54.26
   1   4  -1   27.18    1.69
   1   4  -1   25.01    2.33
   1   4  -1   20.27    1.86
   1   4  -1   21.56    2.26
   2   2   5   24.21    2.25
   2   2   5   24.71    2.96
   2   2   5   20.90    1.64
  -2  -2  -5   22.37    1.92
  -2   0  -5  566.95   21.87
  -2   0  -5  557.81   22.21
   2   0   5  614.00   23.81
  -2   0  -5  605.43   22.65
   2   0   5  593.03   23.83
   1   3  -3   70.95    3.53
   1   3  -3   70.33    3.35
  -1  -3   3   65.67    3.17
  -2  -4  -1  618.42   23.60
  -2  -4  -1  574.83   23.62
   2   4   1  646.36   25.11
  -2  -4  -1  632.85   23.75
  -2  -3   2  112.70    5.18
   2   3  -2  118.41    5.38
  -2  -3   2  107.74    5.47
   2   3  -2  123.67    5.51
  -2  -4  -2 1265.54   47.78
   2   4   2 1263.52   48.29
  -2  -4  -2 1195.93   47.76
  -2  -4  -2 1278.43   47.70
   1  -3   3  349.92   12.45
  -1   3  -3  316.13   13.53
  -1   3  -3  336.89   13.43
   1  -3   3  333.97   12.56
  -1   3  -3  348.47   13.20
   1  -4  -1  842.95   32.34
  -1   4   1  808.46   31.03
   3   1  -2    4.35    1.27
   3   1  -2    3.96    1.90
  -3  -1   2    2.26    2.68
  -3  -1   2    2.53    2.15
  -3  -1   2    2.88    0.72
   3   1  -2    3.87    2.39
   3   1  -2    6.16    2.72
   2  -1  -4  673.17   26.16
   2  -1  -4  692.20   26.30
  -2   1   4  682.03   26.19
   2  -1  -4  694.62   26.64
   1  -4   0   76.62    3.64
  -1   4   0   73.28    3.63
  -3  -3  -1  515.64   20.04
   3   3   1  505.99   20.27
   3   3   1  493.76   19.90
   3   3   1  511.09   19.98
   3   3   1  519.06   20.52
   3   3   1  501.20   19.91
   3   3   1  532.02   20.07
   3   3   1  548.17   20.72
  -3  -3  -1  510.87   20.57
   3   3   2  134.80    6.01
   3   3   2  132.08    5.93
  -3  -3  -2  124.70    5.51
   3   3   2  143.61    6.03
  -3  -3  -2  129.71    5.64
   3   3   2  139.76    6.87
  -3  -3  -2  129.65    5.66
   3   3   2  132.70    6.72
   3   3   2  141.23    6.38
  -3  -1  -4  172.85    7.02
  -3  -1  -4  166.90    8.00
   3   1   4  177.34    6.91
   3   1   4  178.63    7.37
   3   1   4  176.15    8.30
  -3  -1  -4  174.93    7.27
   2  -3  -2   11.15    1.41
  -2   3   2    9.92    1.23
   1  -3  -4   55.91    2.93
  -1   3   4   46.62    2.72
  -1   3   4   53.99    2.61
   1  -3  -4   54.78    2.91
   1   3   5  157.30    6.30
   1   3   5  141.31    6.04
  -1  -3  -5  154.33    6.62
  -1  -3  -5  151.19    6.43
   1   3   5  137.57    6.43
   3  -1  -2  160.42    6.52
  -3   1   2  163.91    7.58
  -3   1   2  165.85    6.59
  -3   1   2  160.67    6.77
  -3   1  -3  783.20   30.70
  -3   1  -3  824.17   31.23
   3  -1   3  787.57   31.07
   3  -1   3  799.38   31.12
  -3   1  -3  821.53   31.51
   2   4   0  146.73    6.52
   2   4   0  142.34    6.60
  -2  -4   0  134.74    6.22
   2   4   0  145.69    6.66
  -1   4   2  312.09   12.83
   1  -4  -2  337.14   13.30
  -1   4   2  333.75   12.78
  -2  -1   4  303.97   12.22
   2   1  -4  309.01   12.51
   2   1  -4  301.01   11.99
  -2  -1   4  307.10   12.61
   3  -2   0  328.63   13.54
  -3   2   0  352.04   14.65
  -3   2   0  353.21   14.16
   3   2   4  152.53    6.88
  -3  -2  -4  152.78    6.59
   3   2   4  149.80    6.33
   3   2   4  159.21    6.57
   3   2   4  154.23    6.06
   3   2   4  148.55    6.49
  -3  -2  -4  151.84    6.74
  -3  -2  -4  152.96    6.42
  -2  -4  -3  498.26   19.58
   2   4   3  548.30   20.53
   2   4   3  513.93   20.73
   3   3   0   53.85    3.04
  -3  -3   0   52.54    3.59
  -3  -3   0   57.62    3.74
  -3  -3   0   48.97    3.71
   3   3   0   55.86    3.02
   3   3   0   48.99    3.61
   3   3   0   52.62    3.75
   3   3   0   57.55    3.78
   3   3   0   52.16    2.70
   3   3   0   49.03    2.97
   0  -3  -5   72.78    3.74
   0  -3  -5   81.67    3.85
   0   3   5   76.56    3.67
   1  -2  -5  319.81   12.70
   1  -2  -5  321.16   12.65
  -1   2   5  329.36   12.97
   2  -3   2  555.56   21.57
  -2   3  -2  585.32   22.55
   2  -3   2  552.28   21.25
  -2   3  -2  555.82   22.31
  -3   0  -4 1229.17   47.11
   3   0   4 1246.01   48.62
   3   0   4 1267.45   48.72
  -3   0  -4 1163.96   46.82
  -3   0  -4 1225.84   46.43
  -3   0  -4 1230.19   46.19
  -3   0  -4 1211.27   46.02
  -3   2  -1  743.12   29.37
   3  -2   1  723.76   27.71
   3  -2   1  693.46   27.38
  -3   2  -1  735.74   29.47
  -3   2  -1  757.72   29.06
  -1  -1   5   97.66    4.28
  -1  -1   5   95.46    4.97
   1   1  -5   94.83    4.16
  -3  -3  -3  262.55   10.56
  -3  -3  -3  257.04   10.64
   3   3   3  266.30   10.91
   3   3   3  260.92   10.66
   3   3   3  271.50   10.81
  -3  -3  -3  264.13   10.64
  -3  -3  -3  258.81   10.44
   3   3   3  261.51   10.90
   1  -4   1  524.58   20.35
  -1   4  -1  495.56   18.25
  -1   4  -1  443.87   18.12
   1   4   4  339.88   13.63
  -1  -4  -4  316.13   12.51
  -1  -4  -4  331.54   12.96
   1   1   6   13.37    1.70
   1   1   6   18.47    2.25
   1   1   6   16.63    2.16
  -1  -1  -6   16.56    2.40
  -1  -1  -6   15.04    1.68
  -1  -1  -6   17.36    2.14
   0  -4   2   11.64    1.91
   0   4  -2    8.30    1.72
   0   4  -2   10.67    2.05
   0  -4   2   11.19    1.48
  -3   2   1  196.62    8.07
   3  -2  -1  205.83    8.00
  -3   2   1  212.24    9.22
  -3   2   1  214.58    8.53
   2  -2   4 1598.83   61.85
  -2   2  -4 1521.66   60.73
   2  -2   4 1591.63   61.85
  -2   2  -4 1584.53   60.76
   2  -2   4 1614.53   61.72
   2  -2   4 1662.20   61.87
  -2   2  -4 1602.66   60.07
   0  -1  -6    5.35    1.64
   0  -1  -6    5.66    1.71
   0  -1  -6    6.66    2.23
   0  -1  -6    5.62    1.60
   0   1   6    5.46    1.87
   0   1   6    7.09    1.83
   0   1   6    5.83    1.59
   0   4   4    1.76    1.54
   0  -4  -4    2.63    1.66
   0  -4  -4    2.55    1.70
   0   4   4    2.01    1.63
  -3  -2   2   42.93    3.18
   3   2  -2   47.46    3.32
   3   2  -2   45.74    3.18
  -3  -2   2   40.99    3.41
  -2  -3  -5   11.97    1.93
   2   3   5   14.54    1.82
   2   3   5   17.32    2.05
   2   3   5   16.15    1.58
  -2   2   4   51.41    2.77
   2  -2  -4   55.06    2.66
   2  -2  -4   55.52    3.00
   2  -2  -4   58.07    3.60
  -2   2   4   52.72    2.51
   2  -1   5 1751.28   67.70
  -2   1  -5 1779.92   66.09
  -2   1  -5 1763.10   66.09
   2  -1   5 1785.43   67.70
  -2   1  -5 1692.22   65.43
   2  -1   5 1770.32   67.51
   1   4  -2  864.57   32.92
   1   4  -2  855.80   33.17
  -3   2  -2  653.59   25.74
  -3   2  -2  653.65   26.06
   3  -2   2  598.40   24.24
   3  -2   2  631.93   24.51
   3  -2   2  636.51   24.56
  -3   2  -2  663.74   26.04
   1   2   6   18.82    1.94
  -1  -2  -6   17.41    2.13
  -1  -2  -6   17.60    2.30
  -1  -2  -6   18.82    1.87
  -1  -2  -6   20.74    2.08
   1   2   6   19.86    1.84
   1   2   6   18.31    2.36
   1   0   6   91.27    4.30
  -1   0  -6   95.22    4.28
   1   0   6  103.67    4.88
   1   0   6  100.55    4.99
   2  -3  -3  312.10   12.29
  -2   3   3  313.18   11.94
  -2   3   3  297.51   12.10
  -1   4   3    1.90    1.51
  -1   4   3    0.92    1.48
   1  -4  -3    2.46    1.67
   0   0   6  154.47    6.43
   0   0  -6  152.74    6.27
   0   0  -6  143.26    6.41
   0   0   6  149.37    6.66
   2   4  -1   15.47    2.40
   2   4  -1   19.80    2.43
  -2  -4   1   18.26    2.72
   0   2  -5  126.33    5.64
   0  -2   5   78.73    3.64
   0  -2   5  125.66    4.41
   0   2  -5  123.68    5.74
  -3   0   3   10.30    1.26
  -3   0   3   15.93    1.64
   3   0  -3   12.40    2.83
   3   0  -3   15.55    1.69
  -3   0   3   13.15    2.50
  -3   0   3   15.11    2.92
   0   3  -4  149.09    6.79
   0   3  -4  167.57    6.84
   0  -3   4  157.23    6.67
   3   3  -1   18.89    1.99
  -3  -3   1   17.92    3.08
   3   3  -1   15.24    2.19
   3   3  -1   18.36    2.99
   3   3  -1   14.86    1.44
   3   3  -1   14.93    2.62
  -3  -3   1   17.82    2.54
   3   3  -1   19.23    2.86
  -3  -3   1   17.01    2.69
   2   4   4 1024.11   37.01
  -2  -4  -4  960.97   37.01
   2   4   4  918.27   37.40
   2   4   4  941.46   37.00
   0  -2  -6   18.58    2.36
   0   2   6   11.94    1.80
   0   2   6   17.80    2.07
   0   2   6   16.84    1.76
   0  -2  -6   16.66    1.96
   0  -2  -6   18.33    1.96
  -1   2  -5  100.72    4.78
   1  -2   5  104.19    4.89
   1  -2   5  101.33    4.65
  -1   2  -5  101.90    5.06
   1  -2   5  100.81    4.87
  -1   2  -5  108.46    5.09
   3   3   4    0.93    1.61
   3   3   4    1.86    1.69
  -3  -3  -4    2.10    1.81
  -3  -3  -4    1.64    1.94
  -3  -3  -4   -0.26    1.86
   3   3   4    1.02    2.03
   3   1  -3   67.57    3.27
   3   1  -3   66.80    4.37
  -3  -1   3   67.12    4.41
  -3  -1   3   69.52    4.02
  -3  -1   3   68.49    4.42
   3  -2  -2  310.59   12.04
  -3   2   2  298.91   11.82
  -3   2   2  308.34   12.12
  -3   2   2  297.24   12.84
  -3   2   2  304.57   12.77
   1  -4   2  659.76   24.48
   1  -4   2  609.14   24.43
  -1   4  -2  620.23   21.99
  -1   4  -2  618.44   21.62
   2   3  -3    3.94    1.17
  -2  -3   3    8.82    2.17
   2   3  -3    3.44    1.45
  -3   1   3   11.59    1.42
   3  -1  -3    7.26    2.76
   3  -1  -3    9.65    1.59
  -3   1   3   11.33    2.53
  -3   1   3   11.89    1.55
  -3   1  -4 1142.95   42.21
   3  -1   4 1118.62   42.95
   3  -1   4 1092.78   42.89
  -3   1  -4 1056.82   41.42
   2   1   6  115.08    5.94
   2   1   6  124.37    5.72
   2   1   6  114.51    5.39
  -2  -1  -6  112.65    5.43
  -2  -1  -6  110.53    4.77
   2   1   6  109.48    4.85
   2   2  -4   11.20    1.74
   2   2  -4   18.60    2.88
  -2  -2   4   15.38    2.49
  -2  -2   4   11.87    1.74
  -2  -2   4   11.89    2.71
  -3  -1  -5   46.29    2.56
   3   1   5   39.27    3.80
  -3  -1  -5   45.58    3.87
  -3  -1  -5   43.45    2.18
   3   1   5   46.71    2.20
   3   1   5   43.52    2.68
  -3  -1  -5   45.96    2.86
   2  -3   3  713.53   28.26
   2  -3   3  736.19   28.12
  -2   3  -3  693.85   27.22
   1  -3   4  686.42   27.71
   1  -3   4  738.13   27.62
  -1   3  -4  664.98   26.09
  -1   3  -4  690.40   25.68
  -1   3  -4  638.60   25.80
   4   1   1  188.96    8.82
   4   1   1  198.72    7.79
   4   1   1  190.00    7.44
  -4  -1  -1  194.83    9.04
  -4  -1  -1  194.13    7.89
   4   1   1  197.52    8.10
   4   1   1  192.77    7.74
  -4  -1  -1  195.20    8.20
  -1  -3   4    5.39    1.64
   1   3  -4    6.97    2.07
   1   3  -4    5.09    1.48
   2   2   6   16.98    1.72
  -2  -2  -6   18.13    1.97
  -2  -2  -6   19.76    2.47
   2   2   6   16.74    3.04
  -2  -2  -6   17.35    1.75
   2   2   6   16.31    2.27
   1   5   1  143.24    6.52
  -1  -5  -1  143.52    6.62
  -1  -5  -1  156.56    6.60
  -3  -2  -5   26.81    2.22
   3   2   5   29.94    2.31
  -3  -2  -5   31.07    2.40
   3   2   5   29.53    1.79
  -3  -2  -5   26.29    2.64
   3   2   5   29.29    3.58
   3   2   5   30.64    2.74
   4   1   2   33.61    1.94
   4   1   2   29.09    2.01
   4   1   2   31.42    2.67
   4   1   2   28.69    1.88
  -4  -1  -2   34.16    2.08
   4   1   2   31.37    2.03
  -4  -1  -2   31.47    2.21
  -4  -1  -2   33.23    2.59
  -1   3   5   22.92    1.86
   1  -3  -5   25.74    2.19
   1  -3  -5   24.44    2.20
  -1   3   5   24.29    2.07
   1  -3  -5   25.49    2.07
   1   5   2    9.30    2.13
  -1  -5  -2    8.97    2.01
  -1  -5  -2    5.23    2.20
   1   5   2    6.85    2.26
   4   0   1  252.34   10.19
  -4   0  -1  253.96   10.13
   4   0   1  245.77    9.56
  -4   0  -1  267.37   10.72
   4   0   1  247.65   11.07
   0  -5  -1  340.82   13.65
   0   5   1  330.35   13.30
   2   0  -5 2078.29   78.77
  -2   0   5 2045.44   78.72
   2   0  -5 2064.68   79.10
  -2   0   5 2096.85   79.20
  -2   0   5 2081.14   78.53
  -1  -2   5  228.06    9.04
  -1  -2   5  217.34    9.73
   1   2  -5  233.34    9.41
   3  -2   3  981.23   38.02
  -3   2  -3  990.67   38.68
   3  -2   3  976.52   38.09
   1   4   5  172.57    7.38
  -1  -4  -5  172.04    7.35
  -1  -4  -5  165.79    6.95
   4   1   0   96.98    3.94
   4   1   0   94.37    4.24
   4   1   0   90.84    4.32
   4   1   0   96.75    4.16
   4   1   0   93.21    5.30
  -4  -1   0   88.14    4.26
  -4  -1   0   93.16    5.56
  -4  -1   0   93.45    5.27
  -3  -4  -2 1066.31   41.70
  -3  -4  -2 1112.68   41.82
   3   4   2 1117.01   43.30
   3   4   2 1119.45   42.71
   3   4   2 1097.71   42.82
   3   4   2 1079.11   42.65
   3   4   2 1154.95   42.88
  -2   0  -6  176.92    8.16
  -2   0  -6  192.40    7.56
   2   0   6  192.60    8.74
  -2   0  -6  183.25    7.93
   2   0   6  198.56    8.69
   0  -1   6  114.16    5.27
   0   1  -6  103.01    4.67
   2  -1  -5 1469.69   57.53
   2  -1  -5 1538.06   57.91
  -2   1   5 1499.98   57.13
   2  -1  -5 1546.51   57.63
  -3  -4  -1 1268.46   47.76
   3   4   1 1251.00   49.21
   3   4   1 1274.60   49.48
   3   4   1 1313.60   49.80
   3   4   1 1352.81   49.91
   3   4   1 1246.02   49.13
  -3  -4  -1 1257.53   48.02
   3   4   1 1308.11   49.33
   3   4   1 1315.20   49.43
  -3  -4  -1 1216.33   47.65
   1   3   6    8.83    1.73
   1   3   6    8.31    2.04
   1   3   6    6.58    1.63
  -1  -3  -6    8.66    1.86
  -1  -3  -6    6.06    2.01
  -1   1  -6  364.93   15.18
   1  -1   6  372.18   15.32
   1  -1   6  380.73   15.47
  -1   1  -6  382.90   14.76
   1  -1   6  397.69   15.34
   0   5   2  257.01   10.54
   0   5   2  255.82   10.61
   0  -5  -2  250.10   10.29
  -3   0  -5 1611.11   60.84
  -3   0  -5 1575.77   59.75
  -3   0  -5 1560.33   60.19
   3   0   5 1595.28   61.50
   4   0   0   15.89    1.04
   4   0   0   18.91    1.33
  -4   0   0   18.85    2.03
  -4   0   0   16.88    1.31
  -4   0   0   17.61    2.98
   4   0   0   16.19    1.93
   4   0   0   17.35    3.04
   4   0   0   15.59    1.38
  -4   0  -2   54.66    2.50
   4   0   2   55.77    3.37
  -4   0  -2   56.19    2.83
   4   0   2   57.17    4.33
  -4   0  -2   60.76    4.60
  -4   0  -2   60.43    3.49
   2  -4   0   65.81    3.21
  -2   4   0   62.28    3.13
  -2   4   0   58.38    3.75
  -1   1   6 2435.96   91.81
   1  -1  -6 2410.13   91.57
  -1   1   6 2394.29   91.97
   0   4  -3  460.14   17.82
   0  -4   3  445.95   17.37
   0   4  -3  417.83   17.94
   0   4  -3  475.44   17.76
  -2   4   1  274.35   12.19
   2  -4  -1  301.67   11.92
  -2   4   1  303.90   11.63
   1   5   0  180.08    7.84
   4   2   1  386.23   15.95
   4   2   1  351.66   14.78
  -4  -2  -1  381.64   15.07
   4   2   1  383.18   15.76
  -4  -2  -1  376.92   15.99
   4   2   1  381.75   14.85
   4   2   1  383.53   15.03
   4   2   1  397.31   14.92
  -4  -2  -1  382.58   15.89
   4   2   1  371.80   15.52
   0  -5   0  937.47   34.20
   0   5   0  912.71   35.21
   0  -5   0  872.32   33.66
  -4  -2  -2   66.57    4.74
   4   2   2   70.44    4.95
   4   2   2   75.85    4.04
  -4  -2  -2   72.15    3.69
   4   2   2   78.91    3.67
   4   2   2   74.51    3.64
  -4  -2  -2   75.52    3.88
   4   2   2   73.41    3.67
  -4  -2  -2   77.40    3.70
  -1   0   6  835.02   32.32
  -1   0   6  849.30   32.63
   1  -4  -4  180.12    7.55
   1  -4  -4  179.73    7.56
  -1   4   4  176.94    7.32
  -1   4   4  175.56    7.34
   1   5   3   27.37    2.65
   1   5   3   32.81    2.73
  -1  -5  -3   25.21    2.15
  -2  -4   2    1.61    2.53
   2   4  -2    1.42    1.94
  -2  -4   2    0.45    2.01
   2   4  -2    1.64    1.81
   3   4   3 4733.73  175.19
   3   4   3 4702.89  174.63
   3   4   3 4577.30  174.47
  -3  -4  -3 4545.44  172.20
  -3  -4  -3 4557.83  172.29
   3   4   3 4593.15  174.51
  -3  -4  -3 4531.05  172.08
   3   4   3 4485.71  174.52
   4   1   3  521.17   19.59
   4   1   3  520.06   20.07
   4   1   3  480.56   20.67
  -4  -1  -3  496.70   19.74
  -4  -1  -3  493.56   20.11
  -4  -1  -3  520.24   19.58
   4   1   3  492.41   19.34
   0   4   5   93.61    4.40
   0  -4  -5   98.62    4.70
   0  -4  -5   96.55    4.72
   0   4   5   92.77    4.39
  -3  -2   3  139.41    6.34
   3   2  -3  131.06    5.69
   3   2  -3  127.17    6.66
  -3  -2   3  132.88    6.66
   3   2  -3  142.88    6.08
  -3   3   0  485.95   19.64
  -3   3   0  510.64   19.61
  -3   3   0  499.91   19.23
  -3   3   0  474.51   18.41
   0  -3  -6  286.51   11.46
   0   3   6  283.22   11.53
   0   3   6  281.29   11.40
   0  -3  -6  269.62   11.45
   0  -3  -6  293.54   11.50
   2  -3  -4  149.29    6.02
  -2   3   4  139.40    5.57
   2  -3  -4  140.58    6.15
  -2   3   4  130.44    5.79
  -3  -3   2  186.54    7.90
  -3  -3   2  170.57    8.26
  -3  -3   2  179.58    8.10
   3   3  -2  195.21    7.68
   3   3  -2  194.04    7.90
  -2   4  -1   94.13    4.29
  -2   4  -1   91.53    4.87
   1   4  -3   42.10    2.63
   1   4  -3   37.95    2.85
  -1  -4   3   24.63    1.55
   1   4  -3   35.88    2.53
  -3  -4   0 1582.34   60.82
   3   4   0 1636.24   61.68
   3   4   0 1693.96   61.80
   3   4   0 1584.42   61.54
   3   4   0 1610.63   61.31
   3   4   0 1542.36   61.23
  -2  -1   5 1642.26   59.20
  -2  -1   5 1586.12   58.71
   2   1  -5 1642.48   62.47
  -2  -1   5 1492.25   58.32
   2   1  -5 1622.14   62.04
   4   2   0  325.09   12.60
  -4  -2   0  316.48   13.19
   4   2   0  327.92   13.67
   4   2   0  314.57   13.33
  -4  -2   0  306.32   13.23
   4   2   0  313.88   12.55
  -4  -2   0  304.41   12.17
   4   2   0  305.83   12.54
   2  -4  -2   65.07    3.26
  -2   4   2   62.79    3.22
  -2   4   2   63.95    3.11
   2   4   5  666.08   22.69
  -2  -4  -5  634.17   24.75
   2   4   5  537.42   22.44
  -3   2   3  176.87    7.22
   0  -5  -3  625.54   24.36
   0   5   3  626.83   25.13
   0   5   3  659.46   25.06
  -4  -2  -3  393.33   15.19
   4   2   3  395.60   15.39
   4   2   3  394.40   15.75
  -4  -2  -3  379.36   15.28
   4   2   3  380.56   15.18
  -4  -2  -3  382.07   15.50
  -3   3  -1  302.99   11.30
  -3   3  -1  295.54   11.54
   3  -3   1  282.45   11.81
  -3   3  -1  297.11   11.77
  -2  -5  -2 1265.93   48.60
  -2  -5  -2 1267.93   48.59
  -1   2   6 1093.81   41.84
   1  -2  -6 1129.29   42.10
   1  -2  -6 1072.36   42.02
  -1   2   6 1088.70   41.87
  -4  -1   1  275.36   12.14
   4   1  -1  306.03   11.29
  -4  -1   1  281.23   12.04
   4   1  -1  290.09   12.18
   4   1  -1  272.74   11.28
  -4  -1   1  277.04   11.07
   4   1  -1  269.24   12.34
   4   1  -1  284.66   11.19
   3  -3  -1  104.61    4.37
  -3   3   1  105.59    5.06
  -3   3   1  103.10    5.73
   4   0  -1   82.70    4.58
   4   0  -1   71.48    3.54
   4   0  -1   75.77    3.27
   4   0  -1   70.09    3.01
  -4   0   1   73.34    3.75
  -4   0   1   81.74    4.81
   2  -2   5  723.57   27.94
  -2   2  -5  719.34   28.10
   2  -2   5  676.56   27.94
  -2   2  -5  714.46   28.18
   2  -2   5  742.48   27.86
   2   3   6   42.86    2.50
  -2  -3  -6   44.06    2.88
   2   3   6   45.62    2.94
  -2  -3  -6   45.31    2.99
   3   3   5   34.83    2.62
   3   3   5   29.99    2.46
  -3  -3  -5   24.61    2.51
   3   3   5   29.00    2.88
   3   3   5   28.03    2.27
   3   3   5   28.61    1.90
  -3  -3  -5   29.29    2.43
  -3  -3  -5   30.35    2.58
  -2  -5  -1  216.59    9.27
   4   0   3   -0.43    2.97
   4   0   3    2.53    2.05
  -4   0  -3    1.75    1.41
  -4   0  -3    0.75    1.99
   4   0   3    1.64    2.80
  -4   0  -3    0.89    1.14
   4  -1   1  982.72   38.58
  -4   1  -1  965.17   37.22
  -4   1  -1  975.72   37.04
  -4   1  -1 1014.91   38.47
   4  -1   1  984.81   37.96
  -4   1  -1  999.40   37.85
   1  -4   3  339.56   13.48
  -1   4  -3  313.40   12.65
  -1   4  -3  311.52   12.87
   2  -2  -5  492.59   19.12
   2  -2  -5  484.17   18.91
   2  -2  -5  495.29   19.37
  -2   2   5  499.05   19.42
  -4   1   0  159.16    6.54
  -4   1   0  155.67    5.79
  -4   1   0  166.74    7.59
   4  -1   0  149.96    7.55
   4  -1   0  155.33    6.70
   0   5  -1  208.20    8.81
   0  -5   1  227.77    9.72
   0  -5   1  238.75    9.25
  -3   0   4  554.51   21.50
   3   0  -4  583.81   23.11
  -3   0   4  563.10   22.09
   3   0  -4  579.13   22.48
  -3   0   4  548.74   22.32
   1   5  -1  920.76   37.79
   1   5  -1 1021.01   38.20
  -1  -5   1 1045.80   40.22
   1   5  -1 1024.35   37.64
  -2  -5  -3 1194.35   45.77
   2   5   3 1034.98   39.29
  -1  -1   6   10.39    2.69
  -1  -1   6   11.28    1.71
   1   1  -6    9.74    1.61
  -4   1  -2  888.40   31.89
   4  -1   2  863.01   33.56
  -4   1  -2  775.64   30.26
   4  -1   2  846.53   33.04
   4  -1   2  844.63   33.57
  -4   1  -2  842.87   30.59
  -4   1  -2  869.83   31.31
   1  -5  -1    3.02    1.88
  -1   5   1    1.58    1.96
  -3  -4  -4 1084.19   41.55
  -3  -4  -4 1070.49   41.43
   3   4   4 1015.90   40.82
   3   4   4 1062.56   40.69
   3   4   4 1087.38   40.91
   3   4   4 1066.58   40.70
  -2   1  -6  161.00    7.46
   2  -1   6  166.87    7.51
  -2   1  -6  162.30    6.70
   2  -1   6  167.55    7.30
   2  -1   6  157.23    7.41
  -2   1  -6  168.15    7.50
   2  -3   4    2.92    1.97
   2  -3   4    2.72    1.96
   2  -3   4    3.06    1.93
  -2   3  -4    0.97    1.95
  -2   3  -4    3.99    2.45
   1   5   4  134.14    6.04
   1   5   4  127.65    5.96
  -1  -5  -4  127.65    5.52
  -1  -5  -4  123.80    4.79
  -2  -5   0   47.18    3.44
   2   5   0   52.87    3.66
  -1  -1  -7   70.53    3.72
  -1  -1  -7   81.63    4.16
  -1  -1  -7   80.92    4.30
   1   1   7   75.04    3.73
   1   1   7   78.74    4.26
  -3   1   4   69.40    3.46
   3  -1  -4   70.04    4.43
  -3   1   4   68.01    4.63
   3  -1  -4   68.67    3.07
   3  -1  -4   70.10    3.51
  -3   1  -5   13.10    1.82
   3  -1   5   13.59    3.06
  -3   1  -5   13.97    1.35
  -3   1  -5   16.08    2.91
   3  -1   5   13.83    2.81
  -3   3  -2   43.74    2.27
  -3   3  -2   44.13    3.81
   3  -3   2   38.98    3.29
  -3   3  -2   44.24    3.68
  -3   3  -2   42.35    3.15
  -1   5   0  119.81    5.50
   4   3   2  237.00   10.35
   4   3   2  235.24   10.82
   4   3   2  242.00    9.86
   4   3   2  251.97   10.99
   4   3   2  227.41    9.73
   4   3   2  245.99    9.79
   4   3   2  235.63    9.93
  -4  -3  -2  246.80    9.81
  -4  -3  -2  236.13    9.84
  -4  -3  -2  235.86    9.80
  -4  -3  -2  227.49   10.67
   3  -2   4    9.96    2.69
   3  -2   4   10.48    2.65
  -3   2  -4    8.55    2.74
  -2   4  -2  114.97    5.58
  -2   4  -2  112.70    5.85
   2  -4   2  113.95    5.05
  -2   4  -2  120.25    5.17
  -3  -1   4  789.77   30.17
   3   1  -4  778.89   30.38
  -3  -1   4  787.31   29.85
  -3  -1   4  712.56   30.02
   3   1  -4  770.12   29.71
   4   1   4  620.99   25.46
   4   1   4  633.47   25.61
   4   1   4  628.23   25.02
  -4  -1  -4  602.91   23.61
  -4  -1  -4  617.53   23.40
  -4  -1  -4  589.44   24.00
   4   1   4  636.32   24.49
  -3   3   2  402.72   14.62
  -3   3   2  402.35   15.28
  -3   3   2  379.62   14.19
   3  -3  -2  401.21   15.52
   0  -3   5  371.79   14.78
   0   3  -5  394.48   15.07
   0   3  -5  358.42   15.05
  -1   5   2    5.14    1.77
   1  -5  -2    4.06    1.95
  -1   5   2    3.33    1.81
  -4  -3  -1  253.74   10.27
   4   3   1  273.06   11.58
   4   3   1  267.06   11.42
   4   3   1  255.68   10.52
   4   3   1  236.47   10.46
   4   3   1  268.10   11.23
   4   3   1  270.06   10.66
  -4  -3  -1  254.95   11.24
   4   3   1  261.01   10.57
  -4  -2   1   13.77    3.20
  -4  -2   1   13.83    2.89
   4   2  -1   13.44    1.75
   4   2  -1   13.05    2.57
   4   2  -1   13.77    1.56
  -4  -2   1   12.48    1.40
   4   2  -1   10.42    1.30
   4   2  -1   15.77    3.25
  -4   1   1  598.80   22.68
  -4   1   1  567.99   22.21
  -4   1   1  603.03   23.52
   4  -1  -1  563.89   22.78
   3   4  -1  328.23   14.37
  -3  -4   1  349.58   14.57
   3   4  -1  358.90   14.42
   3   4  -1  393.18   14.95
   3   4  -1  366.05   14.86
   3   4  -1  370.10   14.76
  -2  -3   4    4.43    2.21
   2   3  -4    3.85    1.14
   2  -4  -3   36.08    2.42
  -2   4   3   38.63    2.29
   1   2   7   24.07    2.12
  -1  -2  -7   24.34    2.43
   1   2   7   22.35    2.58
  -1  -2  -7   26.59    2.43
  -1  -2  -7   22.20    2.16
   1   2   7   23.64    2.13
  -1  -2  -7   23.57    2.69
   0   1   7  129.71    5.66
   0  -1  -7  131.98    5.75
   0  -1  -7  128.15    6.11
   0   1   7  128.79    5.85
   0  -1  -7  126.74    5.92
   0  -1  -7  136.63    5.92
   3   1   6  234.04    9.24
  -3  -1  -6  226.21    8.95
   3   1   6  231.55    9.88
  -3  -1  -6  229.94    9.49
   3   1   6  235.21   10.57
  -3  -1  -6  226.07    9.46
  -3  -1  -6  222.23    9.21
   4   2   4   95.02    4.46
   4   2   4   98.81    4.42
  -4  -2  -4   94.19    4.37
   4   2   4   91.83    4.92
  -4  -2  -4   92.46    4.12
   4   2   4   91.89    4.18
  -4  -2  -4   92.64    4.82
   4   2   4   91.39    3.76
  -4  -2  -4   92.57    4.50
   0   5   4   -1.68    1.84
   0   5   4   -0.72    1.79
   0  -5  -4    0.80    1.91
   3   2   6  605.28   23.69
  -3  -2  -6  598.30   23.37
  -3  -2  -6  592.14   23.14
   3   2   6  607.10   23.18
   3   2   6  593.21   24.43
   3   2   6  601.88   23.66
   0  -2   6  190.00    8.15
   0   2  -6  255.57   10.35
   0   2  -6  241.44   10.23
   0  -2   6  248.20    8.76
   0   2  -6  245.25    9.98
   1   0   7  241.69   10.14
   1   0   7  235.39    9.63
  -1   0  -7  227.55    9.47
  -1   0  -7  243.97    9.89
   1   0   7  238.17   10.12
  -4  -3  -3   11.62    2.07
  -4  -3  -3   12.20    2.05
   4   3   3   12.00    1.87
  -4  -3  -3   11.29    2.03
  -4  -3  -3   11.76    1.96
  -4  -3  -3    8.85    3.08
   4   3   3   14.43    3.64
   4   3   3   12.00    3.33
   4   3   3   11.83    2.15
   4   3   3    9.44    1.87
   1  -3   5    2.88    1.89
  -1   3  -5    1.89    1.93
  -1   3  -5    0.74    1.85
  -1   3  -5    4.15    2.24
  -1   3  -5    1.73    1.76
   1  -3   5    1.61    1.84
  -4   0   2  299.91   11.88
  -4   0   2  290.12   13.21
  -4   0   2  309.52   12.07
   4   0  -2  314.18   11.06
  -4   0   2  315.16   13.05
   4   0  -2  304.71   12.18
  -1  -4  -6  144.06    6.32
   1   4   6  146.83    6.51
  -1  -4  -6  150.91    6.66
   1   4   6  135.44    6.09
   1   4   6  147.41    6.36
  -1   2  -6  477.11   19.26
   1  -2   6  489.07   19.40
   1  -2   6  480.88   19.48
   1  -2   6  499.81   19.21
  -1   2  -6  512.76   19.22
  -1   2  -6  468.09   18.75
  -4   0  -4  430.21   17.26
   4   0   4  446.09   18.58
   4   0   4  444.97   18.13
  -4   0  -4  445.65   16.94
   4   0   4  460.73   18.74
  -4   0  -4  440.61   18.26
  -4   0  -4  445.41   17.82
  -4   0  -4  429.53   17.20
   2   5   4  605.52   23.20
   0   0   7   35.38    2.48
   0   0  -7   37.05    2.50
   0   0  -7   32.81    2.51
   0   0   7   33.50    2.78
   0   0  -7   35.28    2.58
   4   1  -2   27.40    3.59
  -4  -1   2   28.40    1.81
  -4  -1   2   28.49    3.60
   4   1  -2   29.14    1.98
   4   1  -2   29.44    3.37
  -4  -1   2   30.14    3.22
   4   1  -2   30.30    2.95
   4  -1   3  120.42    6.35
   4  -1   3  119.71    6.29
  -4   1  -3  116.41    6.22
  -4   1  -3  101.18    4.28
  -4   1  -3  118.12    4.77
  -4   1  -3  115.09    5.55
   4  -1   3  112.32    5.67
  -4   1  -3  124.91    6.35
  -2  -2   5  127.17    5.79
   2   2  -5  113.34    4.65
  -2  -2   5  129.64    6.21
  -2  -2   5  113.76    4.77
   2   2  -5  117.90    5.19
  -2  -2   5  124.24    5.19
  -4  -3   0  202.19    9.15
   4   3   0  208.18    8.32
  -4  -3   0  196.99    9.25
   4   3   0  213.74    9.21
   4   3   0  196.94    8.46
   4   3   0  188.35    8.37
   4   3   0  203.72    8.52
   4   3   0  214.31    9.48
   4   3   0  199.37    9.20
   0  -2  -7  737.17   28.27
   0  -2  -7  715.21   28.43
   0   2   7  708.47   27.44
   0  -2  -7  740.27   28.41
   0   2   7  727.89   27.74
   0   2   7  703.51   27.45
  -1   5  -1   12.48    2.25
  -1   5  -1    7.50    1.82
   1  -5   1   10.98    2.06
  -1   5  -1   10.16    2.16
   1  -4  -5   95.09    4.56
   1  -4  -5   95.14    4.63
  -1   4   5   92.11    4.25
  -1   4   5   89.61    4.34
  -1   3   6  678.81   26.25
   1  -3  -6  638.66   24.89
   1  -3  -6  628.57   24.72
   1  -3  -6  664.34   24.96
  -2  -4   3  147.15    7.22
  -2  -4   3  153.41    6.62
   2   4  -3  153.58    6.31
   2   4  -3  145.33    6.34
   2   4  -3  157.60    6.79
   0   4  -4  158.70    5.86
   0   4  -4  150.93    5.84
  -2  -1  -7  492.48   19.43
  -2  -1  -7  494.25   19.49
  -2  -1  -7  482.07   18.92
   2   1   7  489.70   20.02
   2   1   7  497.95   19.89
   2   1   7  497.65   19.12
   2   1   7  482.38   19.54
   0  -5   2   95.41    4.69
   0   5  -2   90.97    4.67
   0   5  -2   95.71    4.73
   0  -5   2   94.17    4.16
   1  -5  -3    2.28    1.84
  -1   5   3    0.68    1.68
  -1   5   3    1.52    1.71
  -1  -3   5   61.18    3.07
   1   3  -5   58.67    3.22
   1   3  -5   61.20    3.58
  -3   0  -6  339.77   13.20
  -3   0  -6  347.66   14.42
  -3   0  -6  333.27   13.67
   3   0   6  314.05   13.77
   3   0   6  350.08   14.09
  -2  -5   1   33.93    3.28
   2   5  -1   34.91    2.96
   2   5  -1   36.23    2.93
  -2  -2  -7   59.76    3.56
  -2  -2  -7   54.63    2.97
  -2  -2  -7   56.03    3.20
   2   2   7   56.50    4.24
  -2  -2  -7   53.21    3.57
   2   2   7   55.75    2.96
   2   2   7   59.71    3.53
   2   2   7   53.46    3.72
  -3  -3   3  226.20   10.07
  -3  -3   3  239.39    9.81
   3   3  -3  241.36   10.03
   1   5  -2   30.72    2.81
   1   5  -2   30.66    2.77
   1   5  -2   31.13    2.13
   3  -2  -4  245.78   10.26
   3  -2  -4  248.19    9.59
  -3   2   4  254.20   10.21
   3  -2  -4  228.44    9.13
   2  -3  -5  173.99    7.32
  -2   3   5  175.47    7.26
  -2   3   5  179.55    7.44
   2  -3  -5  173.73    7.78
   2  -3  -5  183.86    7.48
   0   4   6  147.80    6.47
   0  -4  -6  138.15    6.42
   0  -4  -6  149.86    6.44
  -3   3  -3    6.16    2.87
  -3   3  -3    1.07    2.64
   3  -3   3    3.38    1.31
   3  -3   3    1.29    2.35
  -3  -4  -5    4.53    2.12
   3   4   5    7.14    1.90
  -3  -4  -5    4.71    1.99
   3   4   5    3.50    2.21
   3   4   5    5.19    2.28
   3   4   5    4.34    1.93
   2   4   6    5.22    1.79
   2   4   6    3.67    1.80
  -2  -4  -6    3.76    2.01
   2   4   6    2.85    1.14
   2   4   6    3.45    1.64
  -4   1   2  627.61   24.33
  -4   1   2  634.82   24.63
   4  -1  -2  632.77   24.32
  -4   1   2  659.56   25.56
   4  -2   1  132.22    6.10
  -4   2  -1  150.38    6.74
   4  -2   1  134.81    6.78
  -4   2  -1  138.65    7.39
  -4   2   0    4.51    1.19
   4  -2   0    6.59    2.88
  -4   2   0    6.44    3.11
  -4   2   0    6.89    1.94
  -4   2   0    3.99    0.70
  -1  -3  -7    3.69    1.88
   1   3   7    3.51    1.62
   1   3   7    1.25    1.13
   1   3   7    2.80    2.04
   1   3   7    3.58    1.73
  -1  -3  -7    3.14    2.00
   3  -3  -3  479.91   18.57
  -3   3   3  460.27   17.23
  -3   3   3  459.12   16.14
  -3  -2   4  627.30   25.58
  -3  -2   4  628.79   25.47
   3   2  -4  660.99   25.90
  -3  -2   4  660.50   25.16
   3   2  -4  648.25   25.21
   4   3   4    0.28    1.63
   4   3   4    2.45    2.10
  -4  -3  -4    1.29    1.78
  -4  -3  -4    1.54    1.90
  -4  -3  -4    1.38    1.84
  -4  -3  -4    1.30    2.73
  -4  -3  -4    1.22    1.86
   4   3   4    0.41    1.61
  -3  -3  -6   87.89    4.33
   3   3   6   87.13    4.31
   3   3   6   77.81    4.22
   3   3   6   81.62    3.75
   3   3   6   87.94    5.44
  -3  -3  -6   82.75    4.46
  -2   1   6 1513.67   55.89
  -2   1   6 1439.04   55.33
  -2   1   6 1435.11   55.41
   2  -1  -6 1466.23   55.75
   2  -1  -6 1494.47   56.01
   2  -1  -6 1432.26   55.68
  -2   0   6   95.31    5.06
  -2   0   6   85.50    4.31
   2   0  -6   96.63    4.96
   2   0  -6   86.74    4.36
  -1  -4   4   56.44    2.78
   1   4  -4   60.92    3.43
   1   4  -4   69.67    3.61
   1   4  -4   59.83    3.68
  -1  -5  -5    8.98    1.55
  -1  -5  -5   10.52    2.20
   1   5   5    7.60    2.04
   1   5   5    8.42    2.04
   2   0   7  536.82   21.42
   2   0   7  530.17   21.40
  -2   0  -7  463.26   19.63
  -2   0  -7  515.04   19.26
   2  -4   3    1.47    1.66
  -2   4  -3    1.84    2.42
  -2   4  -3   -1.63    2.24
   2  -4   3    2.44    1.69
  -1   4  -4  118.11    5.83
  -1   4  -4  110.40    5.49
   1  -4   4  121.63    4.98
   1  -4   4  126.91    4.83
  -1  -2   6    7.01    0.83
   1   2  -6   13.96    1.71
   1   2  -6   13.16    2.52
  -1  -2   6   14.34    2.77
  -1  -2   6   11.51    1.60
   3   5   2  302.92   12.67
   3   5   2  313.01   12.77
  -3  -5  -2  298.21   12.27
  -3  -5  -2  302.51   12.41
   3   5   2  308.49   13.17
   3   5   2  304.80   12.66
  -3  -5  -2  302.93   12.57
  -4  -2   2  124.32    6.60
  -4  -2   2  128.67    6.46
   4   2  -2  131.73    5.97
   4   2  -2  137.89    6.38
   4   2  -2  124.33    5.10
  -4  -1  -5   82.86    3.97
  -4  -1  -5   82.62    3.67
  -4  -1  -5   69.35    3.22
  -4  -1  -5   84.45    5.28
   4   1   5   83.68    4.12
   4   1   5   86.24    5.60
   4   1   5   85.12    4.87
   4   1   5   81.73    5.38
   3   5   1   97.37    5.01
   3   5   1   97.10    5.53
   3   5   1   89.79    5.07
   3   5   1   96.51    5.01
   3   5   1   97.89    5.66
  -3  -5  -1   95.78    5.15
  -3  -5  -1   90.26    4.67
  -3  -5  -1   94.08    4.81
   2  -4  -4  284.26   11.42
  -2   4   4  262.10   10.95
  -2   4   4  280.00   10.81
   4   3  -1  462.13   18.93
  -4  -3   1  487.47   19.42
  -4  -3   1  465.97   19.52
   4   3  -1  493.78   19.55
   4   3  -1  456.97   19.63
   4   3  -1  496.11   19.82
   4   3  -1  496.85   18.71
  -3  -4   2  397.53   16.46
   3   4  -2  423.51   18.18
  -3  -4   2  415.61   16.77
   3   4  -2  460.45   17.92
   3   4  -2  453.76   18.04
   4  -2   2   78.81    4.92
   4  -2   2   84.45    4.38
  -4   2  -2   86.73    4.68
  -4   2  -2   87.13    5.48
   4  -2   2   78.22    4.99
  -4   2  -2   85.13    5.39
   1  -1   7  901.79   36.44
  -1   1  -7  923.28   35.39
  -1   1  -7  903.42   34.92
   1  -1   7  971.98   36.63
   1  -1   7  959.05   36.45
   4  -2  -1  293.81   11.28
  -4   2   1  328.43   13.01
  -4   2   1  342.21   14.49
  -4   2   1  347.78   13.64
  -4  -2  -5  378.15   14.80
   4   2   5  374.97   15.16
   4   2   5  383.09   14.59
   4   2   5  376.27   15.68
  -4  -2  -5  381.89   15.55
  -4  -2  -5  384.23   15.26
   4   2   5  370.67   16.24
  -4  -2  -5  380.80   15.04
  -3  -5  -3 2235.18   84.94
  -3  -5  -3 2223.91   85.06
   3   5   3 2200.92   85.53
   3   5   3 2262.55   85.57
   3   5   3 2255.62   85.46
   3   5   3 2259.54   86.18
   0   1  -7  122.10    5.41
   0  -1   7  121.19    5.70
   0  -1   7  125.39    5.53
   1  -1  -7  921.09   35.52
  -1   1   7  980.76   37.76
  -1   1   7  982.73   37.95
   1  -5   2   31.98    2.23
  -1   5  -2   32.44    2.47
  -1   5  -2   30.39    2.74
   1  -5   2   31.38    2.60
   0  -3  -7  365.41   14.82
   0   3   7  375.52   13.39
   0  -3  -7  374.08   14.84
   0   3   7  376.34   13.53
   2   3   7   23.85    2.02
  -2  -3  -7   24.40    2.35
   2   3   7   26.09    2.82
   2   3   7   30.33    2.58
  -2  -3  -7   25.98    2.62
  -4   1  -4    6.50    2.32
   4  -1   4    9.98    2.32
  -4   1  -4    5.61    3.10
  -4   1  -4    4.74    1.54
  -4   1  -4    2.91    0.75
   4  -1   4    2.92    2.74
  -4   1  -4    4.13    1.06
   4  -1   4    1.77    2.85
  -2   2  -6    2.23    2.16
   2  -2   6    1.51    1.89
   2  -2   6    2.51    2.08
  -2   2  -6    2.01    2.26
   2   5   5  723.28   26.96
   2   5   5  670.48   26.34
   0   5   5   11.31    1.88
   0  -5  -5    6.83    2.04
   0   5   5   10.25    1.94
   0  -5  -5   10.48    2.08
  -1   0   7  340.79   14.00
   4   4   2   78.11    4.19
   4   4   2   80.69    4.12
   4   4   2   80.76    4.77
   4   4   2   80.65    5.22
   4   4   2   78.98    4.17
  -4  -4  -2   78.04    4.15
   4   4   2   73.46    5.03
  -3   2  -5    3.65    2.78
   3  -2   5    3.06    2.16
   3  -2   5    2.87    2.42
   3  -2   5    1.98    2.15
   3  -2   5    4.62    2.61
  -3   0   5  276.88   10.65
   3   0  -5  290.74   11.44
  -3   0   5  279.93   11.23
  -3   0   5  253.21   10.24
   3   0  -5  270.54   12.03
  -3   0   5  269.95   11.56
  -1   5   4  323.95   12.87
   1  -5  -4  315.12   12.75
  -1   5   4  319.27   12.95
  -2   2   6 1103.66   42.27
   2  -2  -6 1154.60   44.65
   2  -2  -6 1164.85   44.52
   2  -2  -6 1161.40   44.35
  -2   3  -5   30.73    2.99
  -2   3  -5   27.01    2.16
   2  -3   5   32.24    2.65
   2  -3   5   28.54    2.65
  -2   3  -5   30.71    2.91
   2  -3   5   27.62    2.74
   2   1  -6  117.59    5.30
  -2  -1   6  135.18    6.51
  -2  -1   6  125.99    5.31
  -4   0   3   58.46    4.69
   4   0  -3   60.75    4.58
   4   0  -3   67.34    3.28
  -4   0   3   64.96    3.05
  -4   0   3   60.16    3.12
  -4   0   3   66.96    4.41
  -3   4   0   25.20    3.25
  -3   4   0   28.79    2.72
  -3   4   0   24.69    1.72
  -3   4   0   23.93    3.37
   4   4   1  156.64    6.91
   4   4   1  151.02    6.64
   4   4   1  152.08    6.84
   4   4   1  159.35    7.83
   4   4   1  156.80    7.59
   4   4   1  146.94    6.75
  -4  -4  -1  150.00    7.43
   4   4   1  156.87    7.37
   4   0   5   13.12    3.31
   4   0   5   11.72    3.10
   4   0   5    7.66    2.41
  -4   0  -5   10.31    1.83
  -4   0  -5   10.42    2.53
  -4   0  -5   10.28    0.94
  -4   0  -5    9.76    1.42
  -4   0  -5    9.23    2.98
  -3  -5   0  116.83    6.05
   3   5   0  122.99    6.12
   3   5   0  112.60    5.89
   3   5   0  116.22    5.61
   3   5   0  101.79    5.49
   3   5   0  118.81    5.82
   3  -1  -5   46.37    3.76
  -3   1   5   43.61    2.73
   3  -1  -5   43.61    2.78
   3  -1  -5   43.07    2.36
  -1   2   7    8.35    1.85
  -1   2   7    8.41    2.38
   1  -2  -7    9.52    1.81
   4   4   3   85.92    4.28
  -4  -4  -3   77.20    4.12
  -4  -4  -3   79.27    4.26
   4   4   3   78.64    4.81
   4   4   3   83.81    5.49
   4   4   3   79.40    4.19
   4   4   3   77.07    5.33
  -4  -4  -3   86.02    4.30
   4   4   3   80.07    4.37
  -1  -6  -2  204.38    8.84
  -1  -6  -2  218.66    9.07
   1   6   2  225.10    9.47
   1   6   2  215.33    9.50
  -3   1  -6  187.40    7.47
   3  -1   6  197.79    8.86
  -3   1  -6  178.27    7.91
   3  -1   6  190.52    8.44
   3  -1   6  189.22    8.61
  -3   1  -6  194.40    8.74
   3  -4  -1  124.46    5.26
  -3   4   1  128.45    6.18
  -3   4   1  128.33    6.69
  -3   4   1  133.31    5.41
  -4  -1   3   22.93    1.33
  -4  -1   3   30.65    3.74
   4   1  -3   33.01    2.27
   4   1  -3   33.76    3.85
  -4  -1   3   30.68    3.09
   2  -5  -1  101.55    4.65
  -2   5   1   89.00    5.12
  -2   5   1  106.06    4.63
   1   6   1  665.52   26.11
  -1  -6  -1  716.13   27.94
  -2  -5   2  252.61   10.92
   2   5  -2  282.46   10.84
   2   5  -2  259.43   11.01
   2   5  -2  250.93   10.91
  -2   5   0   20.87    2.71
  -2   5   0   22.36    2.20
   3   5   4  315.82   12.81
   3   5   4  310.70   12.88
  -3  -5  -4  300.01   12.41
  -3  -5  -4  299.91   12.50
   3   5   4  302.56   12.65
   3   5   4  315.52   13.61
   3   5   4  316.13   12.36
  -3  -5  -4  302.78   12.26
  -3   4  -1  208.95    9.47
  -3   4  -1  223.18    9.40
  -3   4  -1  209.90    8.47
  -3   4  -1  210.13    9.71
   0   5  -3  602.97   22.35
   0   5  -3  531.84   22.47
  -3  -1   5  273.54   11.47
  -3  -1   5  284.08   11.97
   3   1  -5  278.75   12.06
  -3  -1   5  264.13   11.84
   3   1  -5  284.02   11.37
  -4   2  -3    7.26    2.33
  -4   2  -3    7.94    2.97
   4  -2   3    7.42    2.71
  -4   2  -3    9.23    3.39
   4  -2   3    6.41    2.24
   4  -2   3   11.64    2.89
  -4  -3  -5  108.56    5.02
   4   3   5  100.21    4.29
   4   3   5   99.57    4.65
   4   3   5  103.50    5.39
   4   3   5  106.23    5.00
  -4  -3  -5  102.07    4.81
  -4  -3  -5  109.19    5.19
  -4  -3  -5  106.10    5.31
   0   6   1   60.21    3.75
   0  -6  -1   59.15    3.14
   0  -6  -1   35.49    1.68
  -4   2   2  501.27   19.52
  -4   2   2  514.93   19.98
  -4   2   2  507.67   20.83
  -4   2   2  501.65   20.84
   0  -6  -2  728.37   28.38
   0   6   2  726.39   27.91
   0   6   2  702.87   28.00
   4  -1  -3  630.36   25.49
  -4   1   3  599.69   23.99
  -4   1   3  622.55   23.83
   4  -1  -3  641.63   24.64
  -4   1   3  653.96   25.03
  -1  -6  -3   71.66    3.64
   1   6   3   79.78    4.45
   1   6   3   79.40    4.36
  -1  -6  -3   65.61    3.99
  -2   5   2   46.13    2.81
   2  -5  -2   39.27    2.64
  -2   5   2   43.68    2.65
   3  -3   4   32.69    3.08
   3  -3   4   33.18    3.16
  -3   3  -4   30.54    3.26
  -2   1  -7    0.43    1.38
  -2   1  -7    0.85    2.13
   2  -1   7    2.11    2.01
   2  -1   7    1.34    2.31
   2  -1   7    1.91    2.10
   1   5  -3  101.80    4.96
   1   5  -3   89.35    4.67
   1   5  -3   99.23    4.50
   4   4   0  400.99   15.62
   4   4   0  378.79   15.50
   4   4   0  403.01   16.19
  -4  -4   0  394.33   16.15
   4   4   0  412.96   16.38
  -4  -4   0  380.84   16.09
   4   4   0  379.04   16.05
   4   4   0  388.53   15.26
   4   4   0  364.19   15.43
   3   1   7   51.91    3.78
   3   1   7   51.23    3.52
  -3  -1  -7   51.79    2.94
  -3  -1  -7   50.98    3.20
  -3  -1  -7   49.37    3.24
  -3  -1  -7   47.89    2.60
   3   1   7   51.53    2.71
   3   1   7   47.61    4.22
  -2  -3   5  118.90    4.88
  -2  -3   5   84.29    3.75
   2   3  -5  116.89    4.94
  -3  -2  -7  164.22    7.05
   3   2   7  152.77    7.23
   3   2   7  161.93    8.24
  -3  -2  -7  160.94    7.31
   3   2   7  167.78    6.77
   3   2   7  171.61    7.40
  -1  -6   0  483.39   19.21
   1   6   0  474.25   18.95
   3  -3  -4  285.31   11.37
  -3   3   4  273.19   11.15
  -3   3   4  282.26   10.89
  -3   4   2  161.26    7.66
  -3   4   2  154.52    6.41
   3  -4  -2  149.62    6.23
   1  -4  -6   27.96    2.16
   1  -4  -6   31.00    2.62
   1  -4  -6   29.42    2.47
  -1   4   6   30.61    2.47
  -1   4   6   29.40    2.21
  -2   5  -1   50.19    3.58
  -2   5  -1   51.94    3.09
  -3  -4  -6   97.99    4.88
   3   4   6   96.83    4.52
   3   4   6   98.03    4.84
   0   3  -6  505.59   19.43
   0  -3   6  472.94   18.71
   0   3  -6  472.96   19.42
   1   1  -7   38.33    2.44
  -1  -1   7   35.15    3.29
  -1  -1   7   37.38    2.48
   1   1  -7   36.90    3.21
   0  -6   0  535.88   20.33
   0   6   0  497.95   19.78
   0  -6   0  508.98   19.64
  -4  -4  -4  195.44    8.34
   4   4   4  201.45    9.63
   4   4   4  207.21    8.82
   4   4   4  194.95    8.42
  -4  -4  -4  192.78    8.39
   4   4   4  195.22    8.57
  -4  -4  -4  191.33    8.14
   4   4   4  195.86    8.80
  -1  -4  -7  413.07   16.46
   1   4   7  418.01   16.55
  -1  -4  -7  418.67   16.71
   1   4   7  415.37   16.55
   1   4   7  400.89   16.26
   1   4   7  428.09   16.73
   2   4  -4  194.06    8.31
   2   4  -4  248.98    8.68
  -2  -4   4  265.70   10.91
  -2  -6  -2  120.90    5.83
   4   3  -2  929.53   31.07
  -4  -3   2  876.95   34.03
   4   3  -2  899.80   31.35
  -4  -3   2  856.85   34.17
   0  -6  -3  481.17   19.09
   0   6   3  483.00   19.54
   0   6   3  496.36   19.41
  -1  -1  -8   53.66    3.40
   1   1   8   49.31    3.01
   1   1   8   57.01    3.62
  -1  -1  -8   57.39    3.43
  -1  -1  -8   46.21    3.59
  -1  -1  -8   49.67    2.98
  -3  -3   4  493.62   20.28
  -3  -3   4  511.19   19.88
   2  -4   4   48.15    3.02
  -2   4  -4   38.33    3.30
  -2   4  -4   43.18    3.35
   2  -4   4   46.30    3.18
   2  -4   4   46.30    2.89
  -3   2   5  134.02    5.85
   3  -2  -5  127.03    5.30
   3  -2  -5  133.02    5.83
   3  -2  -5  128.51    6.49
   1   5   6  402.06   16.13
  -1  -5  -6  400.84   15.89
  -1  -5  -6  413.22   16.39
   1   5   6  408.79   16.28
  -2  -6  -1   73.54    4.31
  -1   3  -6    2.24    2.02
  -1   3  -6    2.42    1.76
   1  -3   6    1.19    1.86
   1  -3   6    2.26    1.89
  -1   3  -6   -0.26    2.38
  -3   4  -2   62.24    4.23
  -3   4  -2   60.95    4.45
   3  -4   2   58.88    3.72
  -3   4  -2   61.45    3.13
   4   2  -3  261.76   12.11
  -4  -2   3  261.68   11.93
   4   2  -3  273.07   11.15
   4   2  -3  301.24   12.20
  -4  -2   3  280.56   11.74
   4   2  -3  287.57   11.74
   0   4  -5    4.90    2.11
   0   4  -5    4.29    1.96
   0   4  -5    5.09    2.12
   5   1   1    3.28    0.79
  -5  -1  -1    1.53    3.18
   5   1   1    1.92    1.45
   5   1   1    3.77    1.24
  -5  -1  -1    3.91    1.84
   5   1   1    0.53    2.96
  -5  -1  -1    3.87    1.42
   5   1   1    3.11    1.67
   5   1   1    3.95    1.34
  -5  -1  -2  149.57    8.11
   5   1   2  143.73    6.35
  -5  -1  -2  151.99    7.07
   5   1   2  151.36    6.28
  -5  -1  -2  161.64    6.65
   5   1   2  156.66    6.94
   5   1   2  166.85    6.43
   1   2   8    3.98    1.83
  -1  -2  -8    6.15    2.27
  -1  -2  -8    2.83    1.86
  -1  -2  -8    5.76    2.00
  -1  -2  -8    5.81    2.05
   3   5  -1  135.34    6.77
   3   5  -1  125.22    6.49
   3   5  -1  144.54    6.70
  -3  -5   1  131.29    6.66
   3   5  -1  135.36    6.34
  -1   5  -3    0.34    2.07
   1  -5   3    2.17    1.64
  -1   5  -3    0.88    2.20
  -2  -6  -3    9.35    2.40
   2   6   3   13.68    2.57
  -2  -6  -3   15.99    2.28
  -2   4   5  477.88   18.07
  -2   4   5  446.88   18.19
   2  -4  -5  478.79   18.68
   2  -4  -5  477.10   18.80
   2   4   7  136.37    6.40
   2   4   7  130.12    5.71
  -2  -4  -7  134.05    6.17
  -2  -4  -7  137.03    6.05
  -2  -4  -7  126.23    6.26
   2   4   7  129.22    6.07
   2   4   7  132.71    5.91
   2   4   7  128.59    6.09
  -1  -6  -4   56.62    3.61
   1   6   4   55.12    3.66
  -1  -6  -4   56.54    3.01
   1   6   4   61.92    3.65
  -1   3   7  168.84    7.20
   1  -3  -7  162.77    7.04
  -3   0  -7   24.89    2.49
  -3   0  -7   23.77    2.91
  -3   0  -7   26.76    1.92
  -3   0  -7   29.24    3.40
   3   0   7   25.36    3.01
   3   0   7   27.96    3.38
  -2   5   3   56.79    3.26
   2  -5  -3   60.28    3.33
  -2   5   3   62.24    3.17
  -3  -4   3  408.20   16.41
   3   4  -3  457.67   16.63
  -3  -4   3  397.07   16.78
   3   4  -3  431.54   16.31
   2  -3  -6  461.96   17.98
   2  -3  -6  456.38   18.26
  -2   3   6  470.76   17.81
  -2   3   6  439.32   17.90
  -4  -1  -6   27.35    2.17
  -4  -1  -6   25.21    2.47
  -4  -1  -6   27.80    3.69
   4   1   6   26.10    3.73
  -4  -2  -6  668.36   26.62
   4   2   6  653.96   26.29
   4   2   6  653.29   25.75
   4   2   6  661.79   25.15
   4   2   6  651.43   26.71
  -4  -2  -6  669.24   25.44
  -4  -2  -6  626.61   25.95
  -4  -2  -6  650.85   25.67
  -4   3   0   39.34    3.93
  -4   3   0   28.64    2.86
   0  -1  -8   35.37    2.71
   0  -1  -8   30.55    3.08
   0   1   8   29.91    2.91
   0   1   8   35.33    2.74
   0  -1  -8   33.50    2.54
   0  -1  -8   41.31    2.72
   0   1   8   33.12    2.49
   2   2  -6    4.73    1.11
  -2  -2   6    2.00    1.00
  -2  -2   6    2.18    1.37
  -2  -2   6    2.22    3.04
   0   2  -7  584.68   23.31
   0  -2   7  579.46   20.98
   0   2  -7  589.70   23.08
   0   2  -7  607.58   23.43
   0  -2   7  507.68   20.45
   3   3   7   35.33    2.87
   3   3   7   35.43    4.05
  -3  -3  -7   35.66    2.75
   3   3   7   32.97    2.20
  -4   1  -5  117.72    6.23
  -4   1  -5  121.74    4.93
  -4   1  -5  121.44    5.53
   4  -1   5  119.81    6.67
  -4   1  -5  129.43    6.77
   4  -1   5  122.95    6.59
  -5  -2  -2  370.89   14.56
   5   2   2  358.39   14.18
   5   2   2  353.30   15.41
   5   2   2  341.95   14.13
  -5  -2  -2  356.80   14.32
  -5  -2  -2  341.69   15.41
   5   2   2  380.87   14.32
   5   2   2  366.00   14.64
  -5   0  -1    1.22    3.11
   5   0   1   -1.14    1.87
  -5   0  -1   -0.35    1.92
   5   0   1   -1.69    3.35
   5   0   1    0.42    0.79
  -5   0  -1    0.63    1.16
  -1   2  -7  120.47    5.84
   1  -2   7  116.37    5.27
  -1   2  -7  114.90    5.21
   1  -2   7  108.34    5.52
   1  -2   7  113.28    5.47
  -1   2  -7  113.37    5.76
  -3  -5  -5  165.21    7.46
   3   5   5  162.36    7.49
   3   5   5  179.59    7.94
   3   5   5  181.05    7.35
   3   5   5  180.06    7.71
  -1   5   5   40.25    2.62
   1  -5  -5   42.95    3.06
   4  -3   1  200.76    9.16
  -4   3  -1  211.99    9.59
  -4   3  -1  200.01    9.73
  -4   3  -1  200.62    8.99
   2   5   6  915.88   35.58
  -2  -5  -6  928.06   36.11
   0  -4  -7  520.18   20.88
   0  -4  -7  538.51   20.92
   0  -4  -7  529.02   20.77
   0   4   7  531.68   20.93
   5   2   1   31.21    2.48
   5   2   1   27.95    3.60
   5   2   1   28.88    2.40
  -5  -2  -1   31.14    2.47
   5   2   1   32.29    4.04
   5   2   1   34.20    2.29
   5   2   1   31.06    1.72
  -5  -2  -1   29.38    4.01
  -5  -2  -1   29.36    3.76
   5   2   1   31.16    2.37
   5   1   0  279.30   12.50
  -5  -1   0  271.32   12.59
   5   1   0  284.36   11.19
   5   1   0  288.67   11.04
   5   1   0  281.74   11.26
  -5  -1   0  281.92   11.46
  -5  -1   0  283.81   12.57
   5   1   0  274.62   11.47
   1   0   8  771.82   30.49
   1   0   8  783.14   30.52
  -1   0  -8  780.12   29.50
  -1   0  -8  737.42   29.08
   5   0   2   10.43    3.24
  -5   0  -2    9.48    2.22
  -5   0  -2    5.52    3.41
  -5   0  -2    7.64    1.45
   5   0   2    7.78    2.11
  -1   4  -5   14.34    2.23
   1  -4   5   21.14    2.20
  -1   4  -5   21.08    2.57
   1  -4   5   20.76    2.18
  -1   4  -5   20.91    2.20
   5   1   3  308.98   12.42
   5   1   3  334.31   12.70
  -5  -1  -3  322.11   13.26
   5   1   3  314.56   12.45
  -5  -1  -3  338.98   13.05
  -5  -1  -3  331.76   13.74
   5   1   3  317.23   14.09
   5   1   3  332.12   13.26
   1   6  -1  277.33    9.69
   1   6  -1  196.94    8.83
  -1  -6   1  298.81   12.31
  -1  -3   6  171.26    7.18
  -1  -3   6  172.66    8.13
   1   3  -6  188.54    7.98
   1   3  -6  174.25    7.64
   2   6   0  143.54    5.98
  -2  -6   0  187.38    8.42
   2   6   0  206.93    7.35
   0  -6   1  753.89   28.86
   0   6  -1  706.15   27.63
   0  -6   1  762.40   29.41
   3   2  -5  229.93    9.68
  -3  -2   5  225.21   10.33
  -3  -2   5  220.72   10.10
   3   2  -5  246.30   10.51
  -3  -2   5  234.99    9.68
   0   2   8    6.02    2.10
   0   2   8    6.63    1.88
   0  -2  -8    8.40    2.01
   0  -2  -8    7.80    2.42
   0  -2  -8    5.97    1.96
   0   2   8    6.02    2.07
   0  -2  -8    7.24    2.02
   4   4  -1  370.99   14.49
   4   4  -1  318.21   13.59
   4   4  -1  344.70   14.20
   4   4  -1  328.10   13.60
   4   4  -1  337.98   13.24
   4   4  -1  338.46   14.29
  -4  -4   1  332.80   14.26
  -4  -4   1  319.49   14.16
  -4  -4   1  348.20   14.11
   2   1   8  736.71   27.94
  -2  -1  -8  703.75   26.63
  -2  -1  -8  676.34   26.50
   2   1   8  702.15   28.05
   2   1   8  696.57   27.13
   2   1   8  691.10   27.55
  -2  -1  -8  656.98   26.00
   0   5   6   23.36    2.28
   0  -5  -6   20.37    2.48
   0  -5  -6   23.90    2.53
   2  -5   2   12.45    1.97
  -2   5  -2   11.92    2.59
  -2   5  -2   11.78    2.07
  -2   5  -2   13.05    2.42
   1   4  -5   44.40    3.00
  -1  -4   5   32.48    2.29
   1   4  -5   37.09    2.68
   4  -3  -1   62.61    2.76
  -4   3   1   99.16    4.54
  -4   3   1  103.33    6.20
  -4   3   1  116.16    5.33
   4  -2   4   62.39    4.36
  -4   2  -4   62.04    4.72
   4  -2   4   60.80    4.42
  -4   2  -4   64.30    4.21
  -3   4   3  172.65    6.81
   3  -4  -3  164.05    6.84
  -3   4   3  164.51    8.13
  -3   4   3  161.90    7.06
   2   2   8   41.86    3.83
   2   2   8   42.82    3.12
   2   2   8   39.61    3.32
  -2  -2  -8   40.15    2.85
  -2  -2  -8   40.95    3.30
   2   2   8   39.34    2.58
  -2  -2  -8   42.03    2.63
  -2  -2  -8   40.09    3.31
  -5   0   0  209.80    8.84
   5   0   0  199.36    9.17
  -5   0   0  196.99    9.73
   5   0   0  188.44    7.64
   5   0   0  194.69    8.16
  -4   2   3  411.54   16.06
  -4   2   3  411.92   16.35
  -4   2   3  407.11   17.23
   5   2   3  597.92   23.61
   5   2   3  604.70   23.65
  -5  -2  -3  591.48   25.35
   5   2   3  630.45   23.89
   5   2   3  629.39   24.33
  -5  -2  -3  622.47   24.29
  -5  -2  -3  634.38   24.12
  -5  -2  -3  618.28   24.54
   5   2   3  615.51   23.81
   1  -6  -1   39.97    2.90
  -1   6   1   31.76    2.78
   0   0  -8   48.78    3.07
   0   0  -8   46.64    2.95
   0   0   8   49.70    3.18
   0   0   8   41.57    2.90
   0   0  -8   47.24    3.09
   0   0   8   38.65    3.43
   2   6   4    4.57    2.22
  -2  -6  -4    4.77    2.06
   0  -6  -4  249.70   10.45
   0   6   4  245.93   10.46
   0   6   4  248.56   10.30
   4   0  -4   55.39    3.12
  -4   0   4   43.80    2.38
  -4   0   4   53.77    2.83
   4   0  -4   56.53    4.48
  -4   0   4   47.74    4.33
  -4   0   4   50.19    3.90
   1  -6  -2  334.95   13.56
  -1   6   2  339.78   13.71
   4   4   5   26.72    2.40
  -4  -4  -5   27.40    2.69
   4   4   5   25.51    2.49
  -4  -4  -5   24.70    2.35
  -4  -4  -5   28.08    2.66
  -5  -2   0   19.13    3.59
   5   2   0   19.48    1.90
   5   2   0   19.31    3.88
   5   2   0   19.14    1.92
  -5  -2   0   19.73    1.94
   5   2   0   21.14    1.57
   5   2   0   17.35    3.19
   5   2   0   22.11    2.19
  -5  -2   0   21.48    3.51
   4  -3   2   83.00    4.45
  -4   3  -2   99.33    5.70
   4  -3   2   81.70    5.02
  -4   3  -2   83.43    5.64
  -4   3  -2   88.21    4.95
  -1  -3  -8  268.61   11.03
  -1  -3  -8  258.24   10.95
   1   3   8  269.59   10.31
   1   3   8  265.90   10.56
   1   3   8  271.22   10.80
  -2  -5   3  100.99    5.56
   2   5  -3  100.83    4.66
   2   5  -3  105.00    5.13
   2   5  -3   96.06    4.63
  -4   0  -6  170.85    7.40
   4   0   6  174.76    8.75
  -4   0  -6  171.67    8.45
  -4   0  -6  166.09    7.05
   4   0   6  176.15    8.62
  -4   0  -6  170.26    6.73
  -1   6   0  253.90   10.58
   4   3   6  461.12   17.66
  -4  -3  -6  426.98   17.81
   4   3   6  434.16   16.97
   4   3   6  434.54   17.60
   4   3   6  437.72   17.30
   4   3   6  438.43   18.06
   4   3   6  447.88   18.68
  -4  -3  -6  448.03   17.47
  -4  -3  -6  441.64   17.69
  -5   0  -3   50.25    2.49
  -5   0  -3   56.92    2.95
   5   0   3   54.81    3.45
   5   0   3   51.36    4.52
  -5   0  -3   62.47    3.78
   5   0   3   45.52    2.25
   5   0   3   49.20    4.37
   2  -1  -7  971.01   35.99
  -2   1   7  933.15   35.99
  -2   1   7  956.51   36.48
  -2   1   7  925.87   35.89
   2  -1  -7  920.10   35.71
   2  -1  -7  901.50   35.66
   3  -2   6    2.84    2.51
  -3   2  -6    3.45    2.39
  -3   2  -6    2.66    1.12
   3  -2   6    4.81    2.13
   3  -2   6    2.57    2.72
  -3   2  -6    2.66    2.60
   3  -2   6    5.54    2.26
  -4  -1   4   22.42    3.60
   4   1  -4   26.75    3.56
  -4  -1   4   23.24    3.06
   4   1  -4   24.67    2.24
   3  -4   3  210.23    8.71
   3  -4   3  194.18    8.07
  -3   4  -3  201.88    9.60
  -3   4  -3  208.34    8.49
  -3   4  -3  217.60    9.44
  -2   0   7  301.33   12.18
   2   0  -7  276.76   11.31
  -2   0   7  307.19   12.85
  -2   0   7  298.57   11.99
  -4   1   4  333.66   13.98
  -4   1   4  336.74   12.86
   4  -1  -4  337.85    9.37
  -4   1   4  316.33   12.84
  -4   1   4  298.79   14.04
   4  -1  -4  328.20   10.62
   0   5  -4   12.51    2.12
   0   5  -4   13.24    1.77
   0   5  -4   14.43    2.39
   0   5  -4   10.22    2.28
   2   0   8  182.71    8.48
   2   0   8  184.51    8.52
  -2   0  -8  176.98    7.43
   5   1  -1  125.46    5.08
  -5  -1   1  114.13    5.26
   5   1  -1  119.73    5.22
   5   1  -1  111.89    5.24
  -5  -1   1  118.54    6.72
   5   1  -1  116.04    6.75
   5   1  -1  113.74    6.40
  -5  -1   1  119.18    6.57
   5   1  -1  125.64    5.11
   2  -3   6  207.43    8.82
   2  -3   6  206.41    8.81
  -2   3  -6  192.36    8.79
  -2   3  -6  195.33    7.93
   2  -3   6  200.01    8.98
  -2   3  -6  189.08    8.54
   4   5   2  271.99   11.56
   4   5   2  272.09   11.40
  -4  -5  -2  251.66   10.55
   4   5   2  260.50   11.95
   4   5   2  263.01   11.25
  -4  -5  -2  247.28   10.44
   4   5   2  287.40   12.28
   4   5   2  262.52   11.07
   5   3   2  136.51    7.76
   5   3   2  146.87    6.33
  -5  -3  -2  137.67    6.19
  -5  -3  -2  137.63    7.47
   5   3   2  143.95    6.49
   5   3   2  136.21    7.12
   5   3   2  134.18    6.20
   5   3   2  140.74    6.24
   5   3   2  141.25    7.49
   1   2  -7  347.06   14.21
  -1  -2   7  331.83   13.22
  -1  -2   7  330.22   13.95
  -5   1  -1   84.92    3.52
  -5   1  -1   75.81    3.24
  -5   1  -1   86.61    5.70
   5  -1   1   78.57    5.40
   5  -1   1   80.92    4.33
  -5   1  -1   82.54    4.48
   2   3   8    5.77    1.72
  -2  -3  -8    2.63    2.02
  -2  -3  -8    4.49    2.26
  -2  -3  -8    4.31    2.15
   2   3   8    1.45    2.34
   2   3   8    6.62    2.13
   2   3   8    5.16    1.92
   5   0  -1   89.06    5.45
  -5   0   1   97.94    5.87
   5   0  -1   90.47    3.94
  -5   0   1   98.40    4.80
   5   0  -1   89.68    4.27
   5   1   4   39.35    2.51
  -5  -1  -4   39.50    2.40
  -5  -1  -4   38.81    2.61
   5   1   4   38.50    4.27
  -5  -1  -4   34.77    3.12
   5   1   4   41.30    4.43
   5   1   4   43.07    3.37
   4  -3  -2  428.96   16.55
  -4   3   2  424.03   16.69
  -4   3   2  404.23   16.13
  -4   3   2  431.10   17.57
   3  -3   5   18.33    2.83
   3  -3   5   17.71    2.61
  -3   3  -5   22.11    3.19
   3  -3   5   18.55    2.43
   3  -3   5   18.06    2.66
   1  -6  -3  123.79    5.79
  -1   6   3  128.95    5.79
  -1   6   3  122.99    5.91
   2  -5  -4  321.23   12.93
  -2   5   4  324.87   12.96
   1   6   5   49.16    3.36
  -1  -6  -5   47.83    2.32
  -1  -6  -5   44.84    3.27
   1   6   5   52.18    3.38
   5   2   4  189.83    7.47
   5   2   4  222.84    9.01
   5   2   4  206.15    7.99
  -5  -2  -4  209.28    8.95
  -5  -2  -4  212.09    8.76
  -5  -2  -4  214.40    9.29
   5   2   4  208.73    8.27
   4   5   3   91.09    5.19
   4   5   3   86.27    4.70
  -4  -5  -3   83.24    4.39
  -4  -5  -3   79.65    4.53
   4   5   3   93.80    5.73
   4   5   3   90.13    4.81
   4   5   3   88.10    4.82
   4   5   3   98.08    5.94
   2  -2   7   23.09    2.71
   2  -2   7   22.65    2.67
   2  -2   7   24.85    2.65
  -2   2  -7   18.73    1.91
  -2   2  -7   17.79    2.78
  -2   2  -7   18.78    2.79
   3   5  -2    6.55    2.36
   3   5  -2    6.18    2.49
  -3  -5   2    6.89    3.06
   3   5  -2    6.08    2.43
  -3   0   6  150.89    6.33
   3   0  -6  167.81    8.02
   3   0  -6  171.52    7.37
  -3   0   6  168.18    7.80
  -3   0   6  155.59    7.27
  -3   0   6  165.61    6.83
   5   3   1   83.52    4.14
   5   3   1   82.84    4.15
  -5  -3  -1   80.00    3.96
  -5  -3  -1   79.05    5.36
   5   3   1   81.10    4.19
   5   3   1   72.83    5.14
   5   3   1   74.09    4.10
   5   3   1   87.84    5.67
   5   3   1   84.11    5.29
   0   3   8  174.43    7.26
   0  -3  -8  167.32    7.63
   0   3   8  175.40    7.57
   0   3   8  166.50    7.33
   0  -3  -8  176.15    7.58
   0   3   8  162.57    7.09
   0  -3  -8  171.51    7.42
   2   6  -1  764.05   28.04
  -2  -6   1  685.21   27.14
   2   6  -1  800.35   27.91
   3  -3  -5   95.82    5.56
  -3   3   5  100.07    4.29
   3  -3  -5  102.72    4.42
  -3   3   5  101.36    4.67
   3  -3  -5  106.91    4.78
  -5   1   0    8.68    2.14
  -5   1   0    9.19    1.16
   5  -1   0   11.35    3.09
   5  -1   0   11.92    1.91
  -5   1   0    8.22    3.23
  -5   1   0    6.40    0.83
  -5   1   0    9.72    3.67
   4   5   1  241.10   10.31
   4   5   1  236.20    9.97
   4   5   1  235.01   10.19
   4   5   1  261.81   11.27
   4   5   1  245.27   10.65
   4   5   1  246.37   10.99
   4   5   1  242.80   10.36
  -4  -5  -1  231.63   10.38
  -5   1  -2   31.26    4.08
  -5   1  -2   29.83    2.98
  -5   1  -2   28.14    1.95
   5  -1   2   22.84    2.61
   5  -1   2   27.90    3.69
   5  -1   2   28.14    3.85
   5   3   3  131.05    6.20
  -5  -3  -3  126.72    5.83
  -5  -3  -3  117.89    6.92
  -5  -3  -3  127.01    5.91
   5   3   3  118.95    7.30
  -5  -3  -3  125.69    5.73
   5   3   3  123.13    5.71
   5   3   3  134.60    5.87
   5   3   3  128.32    7.18
   4   3  -3 2091.57   78.66
   4   3  -3 2010.14   78.92
  -4  -3   3 1930.68   72.11
  -4  -3   3 1818.44   72.28
  -3   1   6  118.75    5.39
   3  -1  -6  122.95    5.30
   3  -1  -6  121.10    6.33
   3  -1  -6  122.20    5.61
  -3  -6  -2  161.07    7.22
  -3  -6  -2  155.34    7.28
   3   6   2  153.69    7.63
  -3  -6  -2  159.69    7.43
   3  -1   7  247.63   10.73
   3  -1   7  266.16   10.95
  -3   1  -7  244.48   10.75
  -3   1  -7  240.26    9.71
  -3   1  -7  236.97   10.17
   3  -1   7  229.20   10.42
  -3   1  -7  259.72   10.95
   1   5  -4  304.26    9.34
   1   5  -4  305.70    9.06
   2  -2  -7  509.18   19.95
   2  -2  -7  500.03   20.09
   2  -2  -7  524.82   20.25
  -2   2   7  495.47   19.80
  -2   2   7  515.79   19.82
   1  -6   1  151.72    6.29
   1  -6   1  148.25    6.74
  -1   6  -1  137.17    6.02
  -1   6  -1  142.92    6.35
   1  -1   8  596.21   23.10
  -1   1  -8  573.51   22.33
   1  -1   8  587.92   23.29
   1  -1   8  572.31   23.12
   3   4   7    1.67    1.62
   3   4   7    2.21    1.89
  -3  -4  -7    1.39    2.08
   3   4   7    2.23    3.13
   0   6  -2  228.24    9.43
   0  -6   2  238.25   10.04
   0   6  -2  208.81    9.43
  -1   1   8  111.10    5.63
   1  -1  -8  120.36    5.64
  -3  -6  -3  652.24   25.03
   3   6   3  638.82   24.49
  -3  -6  -3  620.19   25.11
   3   6   3  600.69   24.25
  -3  -6  -3  635.22   25.09
   1   6  -2  680.92   24.81
   1   6  -2  622.58   24.79
   1   6  -2  609.82   24.24
   5   2  -1  270.83   10.45
   5   2  -1  249.37   10.51
   5   2  -1  281.55   10.73
  -5  -2   1  274.80   11.83
  -5  -2   1  247.61   11.82
   5   2  -1  252.99   10.68
   5   2  -1  268.71   12.00
  -5  -2   1  261.39   10.45
   5   2  -1  266.29   11.72
  -4   3  -3  214.51    8.66
   4  -3   3  205.00    8.01
  -4   3  -3  192.88    8.03
  -4   3  -3  197.53    8.64
   4  -3   3  179.76    7.50
   0   1  -8  340.38   13.55
   0  -1   8  328.81   13.32
   0  -1   8  331.64   13.52
   0   1  -8  327.44   13.35
   3   6   1   65.61    4.66
   3   6   1   59.82    4.41
  -3  -6  -1   64.96    4.27
  -3  -6  -1   62.06    3.91
   3   6   1   60.69    4.08
  -2  -6  -5   40.41    3.28
   2   6   5   48.38    3.38
   3   5   6    2.05    1.86
  -3  -5  -6    2.74    2.09
   3   5   6    4.57    1.73
   3   5   6    1.82    1.94
   3   5   6    3.11    2.36
  -1   5  -4   58.78    3.58
   1  -5   4   76.35    3.89
  -1   5  -4   54.09    3.90
   2  -5   3   51.79    3.19
   2  -5   3   53.70    3.06
  -2   5  -3   51.56    3.09
  -2   5  -3   47.73    3.79
  -2   5  -3   49.17    3.72
  -2  -1   7    4.76    1.44
  -2  -1   7    3.69    2.96
  -5   0  -4    2.02    3.22
  -5   0  -4    2.94    1.30
   5   0   4    2.85    3.28
   5   0   4    4.10    2.24
   5   0   4    0.83    3.24
  -5   0  -4    1.62    2.20
  -5   0  -4    3.82    1.61
   4   4  -2  385.56   16.36
   4   4  -2  424.34   16.76
   4   4  -2  411.76   17.10
  -4  -4   2  413.00   17.41
   4   4  -2  404.09   16.36
   4   4  -2  437.54   17.06
  -4  -4   2  442.03   17.13
  -4  -4   2  390.92   17.18
  -3   4   4  284.69   11.44
  -3   4   4  283.55   11.12
   3  -4  -4  285.80   11.47
  -2   4  -5   37.70    3.24
   2  -4   5   40.99    2.92
   2  -4   5   40.06    3.06
  -2   4  -5   34.90    3.21
   2  -4   5   39.54    2.80
  -4  -5  -4  552.59   22.15
  -4  -5  -4  563.66   22.24
   4   5   4  578.01   23.78
   4   5   4  576.09   22.88
  -4  -5  -4  559.53   21.97
   4   5   4  574.69   22.73
   4   5   4  584.95   22.97
   4   5   4  567.23   22.88
  -5  -3   0   75.66    5.02
  -5  -3   0   75.07    3.62
  -5  -3   0   70.59    5.16
   5   3   0   78.64    4.94
   5   3   0   70.63    3.98
   5   3   0   82.19    4.06
   5   3   0   80.86    5.50
   5   3   0   79.96    5.25
   5   3   0   68.07    3.93
   5   3   0   73.93    3.77
   3   1  -6  285.39   12.26
  -3  -1   6  264.09   11.85
  -3  -1   6  273.54   11.47
   3   1  -6  284.04   11.56
  -3  -1   6  276.89   12.01
  -1   0   8  147.47    7.00
  -1   0   8  142.29    6.49
   1   0  -8  130.48    5.96
   4   2  -4   24.82    2.24
  -4  -2   4   27.05    3.56
  -4  -2   4   22.14    3.74
  -4  -2   4   28.10    3.12
   4   2  -4   28.48    3.90
   0   6   5   54.11    3.48
   0  -6  -5   51.49    3.42
   0   6   5   55.90    3.40
   1  -4  -7  138.89    6.04
   1  -4  -7  150.19    6.54
   1  -4  -7  148.44    6.51
  -1   4   7  168.25    7.27
  -1  -5  -7  672.47   26.62
   1   5   7  659.43   26.17
  -1  -5  -7  710.35   27.06
   1   5   7  681.75   26.47
   1   5   7  691.01   26.62
  -1   2   8   16.63    2.24
   1  -2  -8   17.17    2.11
   1  -2  -8   14.55    2.22
  -1   2   8   14.79    2.65
   5  -1  -1  181.82    8.90
  -5   1   1  183.94    7.52
  -5   1   1  198.98    9.37
  -5   1   1  194.81    8.26
  -5   1  -3  358.11   14.78
  -5   1  -3  337.96   13.85
  -5   1  -3  355.31   13.93
  -5   1  -3  375.31   15.56
  -5   1  -3  356.04   15.39
   5  -1   3  348.93   15.09
   5  -1   3  341.24   15.03
   5  -1   3  350.26   14.39
  -5  -3  -4  417.18   16.41
   5   3   4  412.05   16.59
  -5  -3  -4  407.27   16.66
  -5  -3  -4  415.25   16.55
   5   3   4  426.85   17.27
  -5  -3  -4  399.11   17.58
   5   3   4  429.72   16.87
   4   5   0  115.58    6.43
   4   5   0  114.23    5.11
   4   5   0  106.49    5.54
   4   5   0  116.32    5.67
  -4  -5   0  112.35    6.27
   4   5   0  114.62    6.22
   4   5   0  107.55    6.01
   4   5   0  112.82    5.61
   3   2   8   99.48    6.03
  -3  -2  -8   93.55    4.65
   3   2   8   95.13    5.50
  -3  -2  -8   92.46    4.30
   3   2   8   96.81    4.44
   3   2   8  101.38    5.12
  -2  -4   5   10.78    2.32
   2   4  -5   10.44    1.62
  -4   2  -5   92.09    5.76
   4  -2   5   97.27    5.63
   4  -2   5   92.60    5.49
   1  -5  -6   83.97    4.19
  -1   5   6   81.04    4.15
   1  -5  -6   82.84    4.28
  -1   5   6   80.24    4.04
   2  -4  -6  242.80   10.56
  -2   4   6  238.94    9.79
  -2   4   6  237.13    9.69
   2  -4  -6  256.54   10.32
   2  -4  -6  256.75   10.45
   4  -2  -4  235.01   10.59
  -4   2   4  238.22    9.72
  -4   2   4  229.38   10.66
  -4   2   4  235.11    9.54
  -4   1  -6    1.34    1.79
  -4   1  -6    0.54    1.17
   4  -1   6    1.20    3.09
   4  -1   6    1.69    2.77
  -4   1  -6    0.64    2.90
   3   1   8   33.15    3.84
  -3  -1  -8   31.27    2.91
   3   1   8   34.20    3.44
   3   1   8   34.58    2.33
   3   1   8   37.30    3.18
  -3  -1  -8   33.43    2.27
  -3  -1  -8   34.64    3.23
   3   6   4  310.66   13.12
   3   6   4  342.90   13.47
   3   6   4  323.78   12.69
   3   6   4  327.97   13.45
  -3  -6  -4  312.41   13.29
  -3  -6  -4  327.03   13.15
   4   4   6   36.64    2.29
   4   4   6   37.70    2.76
   4   4   6   39.37    2.95
   4   4   6   37.25    3.04
  -4  -4  -6   40.42    3.04
  -4  -4  -6   38.65    3.13
  -4  -4  -6   34.87    3.14
   3  -2  -6   42.70    3.01
   3  -2  -6   46.73    3.80
  -3   2   6   45.63    2.90
   3  -2  -6   45.87    2.51
   2   3  -6   41.85    2.38
  -2  -3   6   40.05    3.19
  -2  -3   6   42.88    3.86
  -1   6   4  197.81    8.24
   1  -6  -4  186.27    8.07
  -1   6   4  188.44    8.33
  -4  -2  -7  347.81   15.45
   4   2   7  387.30   15.02
   4   2   7  388.78   16.70
   4   2   7  380.04   15.65
  -4  -2  -7  387.02   15.00
  -4  -2  -7  381.98   15.30
   4   2   7  392.67   15.79
   3   4  -4  245.24    8.05
   3   4  -4  167.69    7.45
  -3  -4   4  212.60    9.36
  -3  -3   5   55.23    4.54
  -3  -3   5   52.26    4.04
  -3  -3   5   59.01    3.37
   3   3  -5   66.47    4.66
   3   3  -5   55.63    3.33
  -3   5   0  245.63   10.80
  -3   5   0  246.95   11.03
  -3   5   0  253.45   10.04
  -2  -5  -7  600.88   23.76
  -2  -5  -7  624.28   24.23
   2   5   7  609.74   23.22
   2   5   7  570.63   22.76
   1   4   8  957.33   36.17
  -1  -4  -8  964.49   36.46
   1   4   8  920.52   35.65
   1   4   8  911.31   35.93
  -1  -4  -8  916.04   36.21
  -3   5   1  121.10    5.97
  -3   5   1  121.22    5.14
   3  -5  -1  119.69    5.22
  -3   5   1  109.18    6.26
   5   1  -2  274.52   10.46
  -5  -1   2  254.58   10.15
   5   1  -2  257.72   10.49
   5   1  -2  253.86   11.80
  -5  -1   2  245.78   11.41
   5   1  -2  259.22   11.58
   5   1  -2  255.37   11.87
  -5  -1   2  247.88   11.54
   5   0  -2  159.91    5.35
  -5   0   2  145.26    8.27
  -5   0   2  166.31    8.14
   5   0  -2  148.02    6.96
  -5   0   2  159.85    6.85
  -4  -1  -7  250.31   10.05
  -4  -1  -7  247.12   10.44
   4   1   7  251.15   10.71
   4   1   7  245.30   11.53
  -4  -1  -7  241.34    9.69
  -4  -1  -7  250.99   11.36
  -3  -6   0   96.90    5.48
   3   6   0   97.36    5.72
   3   6   0  107.27    5.81
  -4   3   3  373.24   14.78
  -4   3   3  383.93   15.22
  -4   3   3  372.74   16.17
   4  -3  -3  389.63   15.17
  -4   3   3  375.32   16.13
  -2   1  -8   11.30    2.48
   2  -1   8    8.99    2.40
   2  -1   8   11.79    2.74
  -2   1  -8   12.50    1.79
   2  -1   8   11.50    2.61
  -5  -2  -5  632.57   24.82
   5   2   5  582.89   24.77
  -5  -2  -5  620.57   24.22
   5   2   5  599.64   24.97
   5   2   5  592.05   22.83
   5   2   5  628.63   23.62
   5   2   5  612.35   23.24
  -5  -2  -5  619.91   24.50
   5   2   5  634.45   24.26
   5   1   5   30.10    3.17
   5   1   5   24.86    3.87
  -5  -1  -5   27.43    2.41
  -5  -1  -5   25.60    2.09
  -5  -1  -5   25.37    2.84
  -5  -1  -5   27.74    3.94
   5   1   5   29.91    4.26
   3  -4   4   79.35    4.50
  -3   4  -4   77.88    4.92
   3  -4   4   81.65    4.50
   0   4  -6    4.60    2.05
   0  -4   6    6.23    1.85
   0   4  -6    5.36    2.30
   0  -3   7  319.88   13.04
   0   3  -7  311.79   12.95
   0   3  -7  317.34   13.25
   0   3  -7  340.80   13.34
   1  -6   2    3.56    2.07
  -1   6  -2    3.07    2.24
  -1   6  -2    0.94    1.05
  -1   6  -2    1.13    2.36
   1  -6   2    2.00    1.51
   2   4   8   51.54    3.07
  -2  -4  -8   57.97    3.73
  -2  -4  -8   53.50    3.58
   2   4   8   52.10    3.34
  -2  -4  -8   55.80    3.56
   2   4   8   56.45    3.83
  -3   5  -1  204.63    9.49
  -3   5  -1  198.64    9.82
  -3   5  -1  209.56    9.53
  -3   5  -1  220.80    8.69
   0  -5  -7  464.39   18.65
   0  -5  -7  472.98   18.69
   0  -5  -7  462.89   18.37
   0   5   7  459.88   18.31
   3   3   8  180.67    7.39
   3   3   8  177.57    8.92
   3   3   8  177.69    7.88
  -3  -3  -8  177.10    7.78
   3   3   8  167.32    8.28
   1  -3   7    2.37    1.98
   1  -3   7    1.17    1.48
  -1   3  -7   -1.00    2.30
  -1   3  -7    1.14    2.49
   1  -3   7   -1.01    2.09
   2  -3  -7   18.08    2.30
  -2   3   7   17.61    2.23
   2  -3  -7   18.54    2.63
   2  -3  -7   15.99    1.98
   3  -5  -2    3.32    1.65
  -3   5   2    3.81    1.41
  -3   5   2    3.97    1.62
  -3   5   2    8.30    3.02
   2   6  -2   13.47    2.06
   2   6  -2   14.74    2.65
   2   6  -2   16.39    2.79
  -2  -6   2   16.95    3.07
   2   6  -2   17.54    2.51
   2   6  -2   17.14    1.82
   5   4   2   95.90    6.18
   5   4   2   98.34    5.57
   5   4   2  100.38    4.85
   5   4   2   88.94    4.72
  -5  -4  -2   92.74    5.81
   5   4   2   94.87    5.97
   5   4   2   92.96    4.76
   5   4   2   90.31    4.74
  -4  -3  -7  368.29   15.35
   4   3   7  375.11   16.20
   4   3   7  363.84   15.06
  -4  -3  -7  366.73   14.88
   4   3   7  364.78   14.43
  -4  -3  -7  374.16   15.17
   4   3   7  387.70   15.13
   4   5   5    1.86    3.35
   4   5   5   -0.06    2.40
  -4  -5  -5    2.97    2.28
   4   5   5    0.70    2.04
  -4  -5  -5    1.68    2.14
   4   5   5    2.90    2.64
   4   5   5    3.75    2.23
  -4  -5  -5    1.87    2.26
  -5   2  -1  237.73    9.95
  -5   2  -1  268.72   11.05
   5  -2   1  255.08   10.79
  -5   2  -1  260.39    9.91
  -5   2  -1  257.05   10.03
  -5   2  -1  289.73   12.03
   5  -2   1  256.53   11.59
  -2   5   5  124.01    5.43
   2  -5  -5  130.39    5.95
  -2   5   5  121.70    5.67
   2   5  -4  216.68    7.65
  -2  -5   4  186.38    7.97
  -2  -5   4  196.73    8.93
   2   5  -4  228.70    7.34
  -2   6   1  107.58    5.85
  -2   6   1  120.75    5.41
   2  -6  -1  115.11    5.33
  -1  -6  -6  130.28    5.51
   1   6   6  128.46    6.01
  -1  -6  -6  124.64    6.24
  -1  -6  -6  125.20    6.16
   1   6   6  126.17    6.10
  -5  -3   1    4.10    3.10
   5   3  -1   -0.14    2.73
   5   3  -1    2.52    1.35
   5   3  -1    3.66    1.99
   5   3  -1    2.92    1.71
  -5  -3   1    1.76    3.21
   5   3  -1    1.57    3.33
  -1   4  -6   19.30    2.62
   1  -4   6   24.29    2.49
  -1   4  -6   18.21    2.11
  -1   4  -6   15.93    2.28
   1  -4   6   24.56    2.44
   1   1  -8   56.25    4.06
  -1  -1   8   63.67    3.49
  -1  -1   8   55.69    4.27
   1   1  -8   67.00    3.40
   3   0   8   22.20    3.14
  -3   0  -8   25.45    2.00
   3   0   8   25.13    3.51
  -3   0  -8   22.03    2.57
  -4   0   5    3.15    2.62
   4   0  -5   -0.09    1.86
   4   0  -5    3.02    3.26
  -4   0   5    0.50    0.94
  -4   0   5   -0.18    1.87
  -4   0   5    3.77    3.18
   5   4   3   32.76    3.56
   5   4   3   30.24    2.63
   5   4   3   28.74    4.30
   5   4   3   29.27    2.80
   5   4   3   28.81    4.19
   5   4   3   29.66    2.66
  -5  -4  -3   27.85    2.71
  -5  -4  -3   28.08    3.75
  -5  -4  -3   30.94    2.76
   5   2  -2   21.21    1.92
  -5  -2   2   23.70    3.40
  -5  -2   2   17.82    1.42
   5   2  -2   24.44    3.72
   5   2  -2   21.95    1.48
   5   2  -2   25.72    3.17
  -5  -2   2   21.37    3.60
   5   2  -2   20.76    2.02
  -5   2   0    9.80    0.84
  -5   2   0   14.05    2.27
   5  -2   0   11.58    3.15
  -5   2   0   12.35    3.57
  -5   2   0   11.92    1.39
  -4   4   0  523.68   21.51
  -4   4   0  493.07   20.84
  -4   4   0  551.93   21.45
   0   4   8  395.29   15.99
   0   4   8  398.87   16.16
   0  -4  -8  396.34   16.33
   0   4   8  420.00   16.38
   0  -4  -8  417.18   16.47
   0  -4  -8  411.83   16.44
  -4   3  -4   29.33    3.74
   4  -3   4   38.29    3.72
   4  -3   4   42.46    3.62
   1  -3  -8  171.85    7.50
  -1   3   8  181.50    7.76
  -1   3   8  172.70    7.56
  -5   1   2  373.17   14.55
  -5   1   2  348.94   14.08
  -5   1   2  384.99   15.76
  -2   6   0   48.93    3.20
  -2   6   0   47.77    3.57
  -5  -4  -1   15.52    3.36
   5   4   1   17.49    2.42
   5   4   1   20.86    3.49
   5   4   1   18.82    2.45
   5   4   1   16.32    2.09
   5   4   1   15.30    3.31
   5   4   1   16.65    2.42
   5   4   1   17.60    3.55
   5  -1   4  226.23   10.70
  -5   1  -4  242.34    9.15
  -5   1  -4  240.06    9.95
  -5   1  -4  228.38    8.11
   5  -1   4  229.28   10.04
   5  -1   4  227.79   10.69
  -4   0  -7   46.16    2.75
  -4   0  -7   49.26    2.45
   4   0   7   46.07    4.19
  -4   0  -7   44.82    4.42
  -4   0  -7   46.00    3.17
   1   1   9  339.04   14.27
  -1  -1  -9  331.82   13.77
  -1  -1  -9  335.31   13.84
   1   1   9  342.46   13.68
  -1  -1  -9  331.28   13.42
  -1  -1  -9  339.23   13.81
   1   7   2  486.01   20.05
  -1  -7  -2  501.52   20.09
   1   7   2  509.42   20.02
  -1  -7  -2  503.92   19.94
   2  -6  -2  145.35    6.49
  -2   6   2  156.54    6.82
  -3  -5   3   12.32    2.56
   3   5  -3   16.23    2.57
  -3  -5   3    8.90    3.19
   3   5  -3    8.79    2.37
  -5  -3  -5  548.34   21.87
  -5  -3  -5  562.30   21.49
  -5  -3  -5  527.23   21.18
  -5  -3  -5  560.43   21.70
   5   3   5  551.17   21.44
   5   3   5  549.15   21.89
   5   3   5  525.94   21.34
   5   3   5  538.23   21.08
   5   3   5  540.34   20.66
   1   2   9   42.19    3.23
  -1  -2  -9   40.24    3.17
  -1  -2  -9   42.43    3.15
   1   2   9   33.05    2.70
  -1  -2  -9   33.44    3.21
  -1  -2  -9   37.20    2.86
   4   5  -1  482.00   18.78
   4   5  -1  454.21   18.24
   4   5  -1  445.90   17.78
  -4  -5   1  444.72   18.50
   4   5  -1  499.22   19.03
   4   5  -1  449.79   18.75
   4   5  -1  434.71   18.20
  -5   0  -5   35.79    2.65
   5   0   5   36.34    3.34
   5   0   5   30.30    3.96
  -5   0  -5   35.53    2.20
  -5   0  -5   34.13    3.27
  -5   0  -5   33.53    4.12
   5   0   5   34.31    4.12
  -3  -2   6  140.36    7.10
   3   2  -6  156.27    7.56
   3   2  -6  147.19    6.62
  -3  -2   6  151.34    7.42
  -3  -2   6  139.15    6.51
   3   6   5  212.46    9.52
  -3  -6  -5  222.87    9.73
   3   6   5  249.72   10.03
   3   6   5  235.72    9.32
   3   6   5  238.41   10.11
  -5   2  -2   14.93    3.68
   5  -2   2   12.15    3.22
  -5   2  -2   11.28    1.07
  -5   2  -2   13.78    2.63
  -5   2  -2   12.68    3.68
   5  -2   2   10.99    2.35
  -5   2  -2   10.65    1.45
   5  -2   2    9.24    3.24
  -4   4  -1  181.07    8.08
  -4   4  -1  183.19    7.88
  -4   4  -1  175.92    7.35
   0   6  -3   58.37    4.02
   0   6  -3   66.86    3.95
   2   6   6  125.31    6.14
  -2  -6  -6  115.35    5.91
   4  -4  -1   49.27    2.44
  -4   4   1   55.68    4.90
  -4   4   1   67.57    4.08
   1   4  -6  396.93   15.04
  -1  -4   6  292.99   11.82
   1   4  -6  347.35   14.84
  -2  -2   7   10.41    1.70
   2   2  -7   15.74    1.52
  -2  -2   7   14.21    1.49
  -2  -2   7   12.40    3.19
  -4   1   5  148.32    6.31
  -4   1   5  143.24    7.40
  -4   1   5  143.76    6.11
   4  -1  -5  151.83    7.63
   4  -1  -5  148.91    6.58
  -4   1   5  141.07    7.72
   1   7   1  233.69   10.18
  -1  -7  -1  247.07   10.29
  -1  -7  -1  232.33   10.23
  -4  -1   5   39.99    4.11
   4   1  -5   38.00    4.23
   4   1  -5   43.75    2.88
  -4  -1   5   39.47    3.54
   1   6  -3   35.81    2.48
   1   6  -3   32.49    2.82
   1   6  -3   35.67    3.12
   1   6  -3   39.36    3.28
   1   7   3  338.95   14.22
   1   7   3  343.25   14.11
  -1  -7  -3  344.82   14.07
  -1  -7  -3  337.77   13.73
  -1   2  -8  189.46    7.90
   1  -2   8  181.11    8.34
   1  -2   8  185.79    8.28
   1  -2   8  192.47    8.04
  -1   2  -8  176.76    8.38
  -1   2  -8  192.41    8.45
   0   5  -5   17.51    2.38
   0   5  -5   19.30    2.54
   0   5  -5   16.54    2.49
  -3  -6   1    9.07    3.09
   3   6  -1   14.89    2.88
   3   6  -1   12.56    2.83
   3  -5   2  100.14    4.67
  -3   5  -2  106.73    6.12
  -3   5  -2  109.65    5.84
  -3   5  -2  107.15    4.97
   1   3  -7   93.51    4.76
   1   3  -7   84.01    4.26
   1   3  -7   80.25    4.32
  -1  -3   7   85.69    4.10
  -1  -3   7   77.41    5.09
   0  -2   8  317.63   12.98
   0  -2   8  351.88   13.53
   0   2  -8  372.95   14.69
   0   2  -8  342.38   14.43
   0   2  -8  354.57   14.24
  -3   2  -7   17.11    1.87
   3  -2   7   21.03    2.79
  -3   2  -7   24.14    3.08
  -3   2  -7   20.00    3.24
   3  -2   7   16.56    2.98
   3  -2   7   21.05    2.66
  -5   2   1  315.64   12.91
   5  -2  -1  283.88   10.73
  -5   2   1  309.03   12.20
   5  -2  -1  216.45    8.48
  -5   2   1  307.64   13.93
  -5   2   1  318.44   14.03
  -2   5  -4  240.78   10.38
  -2   5  -4  226.06   10.22
   2  -5   4  247.14   10.27
   3  -3   6  198.80    8.84
  -3   3  -6  200.87    8.97
   3  -3   6  192.42    8.78
  -3   3  -6  180.32    8.92
   3  -3   6  177.63    8.49
  -5  -4  -4  196.97    8.88
   5   4   4  202.09    8.65
   5   4   4  203.36    9.33
   5   4   4  196.93    9.08
   5   4   4  205.84   10.15
   5   4   4  211.68    8.89
   5   4   4  202.12   10.32
  -5  -4  -4  198.93    8.72
  -5  -4  -4  211.12    8.89
   0  -7  -2  140.16    6.55
   0   7   2  146.94    6.81
   0   7   2  139.76    6.82
  -4  -3   4  428.61   16.92
  -4  -3   4  395.12   17.21
   4   3  -4  386.88   16.84
   4   3  -4  408.97   15.95
   0   1   9   75.33    4.54
   0  -1  -9   82.34    4.38
   0  -1  -9   85.60    4.85
   0   1   9   77.50    4.27
   0  -1  -9   86.64    4.59
   0   7   1  198.42    8.80
   0  -7  -1  219.34    6.68
   0  -7  -1  226.28    6.68
  -3   5   3   50.09    4.24
  -3   5   3   49.48    2.80
   3  -5  -3   51.83    3.01
   2   2   9  133.39    6.43
   2   2   9  136.62    7.15
  -2  -2  -9  135.35    6.50
   2   2   9  131.41    5.96
   2   2   9  143.49    6.83
  -2  -2  -9  145.97    6.64
  -2  -2  -9  136.15    6.06
  -2  -2  -9  125.35    6.43
   1  -6  -5  449.83   17.97
  -1   6   5  476.52   18.21
  -1   6   5  441.89   18.26
  -3   4   5  197.63    7.95
   3  -4  -5  193.24    8.11
  -3   4   5  192.25    8.19
   2  -6   1  235.90    9.80
  -2   6  -1  247.23    9.98
  -2   6  -1  227.47   10.12
   0   6   6   33.36    2.91
   0   6   6   37.94    2.82
   0  -6  -6   32.07    3.04
   0  -6  -6   37.16    3.10
   0  -6  -6   35.64    2.44
  -3  -5  -7    4.92    2.32
   3   5   7    3.92    1.82
   3   5   7    2.29    1.86
   3   5   7    3.70    1.75
   3   5   7    1.40    2.02
  -4  -4   3 1037.97   43.09
   4   4  -3 1189.39   45.83
  -4  -4   3 1054.69   42.91
   4   4  -3 1179.75   46.13
  -2  -1  -9  286.04   11.77
  -2  -1  -9  269.15   11.13
   2   1   9  293.35   12.48
   2   1   9  278.19   11.85
   2   1   9  290.79   12.24
   2   1   9  275.14   11.39
  -2  -1  -9  273.24   11.71
  -3   3   6  112.92    5.24
   3  -3  -6  107.33    5.73
   3  -3  -6  108.02    4.76
   2   7   2  339.22   14.19
   2   7   2  337.48   14.08
  -2  -7  -2  326.98   13.50
   1   0   9  567.62   22.68
  -1   0  -9  522.53   21.53
  -1   0  -9  550.84   21.65
   1   0   9  562.45   22.64
  -1   0  -9  550.98   21.25
  -5  -4   0   32.08    3.75
   5   4   0   31.99    4.02
   5   4   0   29.61    2.86
   5   4   0   30.70    2.80
   5   4   0   34.74    4.08
   5   4   0   34.77    3.72
   5   4   0   34.25    2.44
   5   4   0   31.60    2.73
   0  -2  -9   70.26    4.16
   0   2   9   72.87    3.90
   0   2   9   71.01    4.22
   0   2   9   72.34    4.09
   0  -2  -9   71.91    4.02
   0  -2  -9   72.93    4.38
   0  -2  -9   76.71    4.17
  -4   4  -2  148.50    7.47
   4  -4   2  137.09    6.78
  -4   4  -2  154.24    6.84
  -4   4  -2  157.17    7.39
  -2   6   3   42.13    3.03
   2  -6  -3   49.62    3.20
  -2   6   3   53.15    3.00
   1   7   0  193.14    8.72
  -1  -7   0  233.31   10.01
  -4   4   2   10.71    3.50
  -4   4   2    9.57    1.15
  -4   4   2   13.78    1.87
   4  -4  -2   14.37    1.59
  -5   0   3  202.49   10.07
  -5   0   3  204.48    9.76
   5   0  -3  212.60    8.51
  -5   0   3  206.09    8.47
   5   0  -3  213.68    6.80
   2   7   3  105.19    5.53
   2   7   3  101.37    5.54
  -2  -7  -3  105.93    5.31
  -1  -3  -9   61.57    3.52
   1   3   9   55.66    3.31
  -1  -3  -9   58.80    3.83
   1   3   9   54.53    3.11
   1   3   9   52.70    3.41
   1   3   9   58.21    3.92
  -1  -3  -9   61.09    3.86
   1   5  -5  238.15    9.31
  -1  -5   5  122.54    5.03
   1   5  -5  220.92    9.41
   5  -2   3   13.40    3.27
   5  -2   3   10.42    3.30
  -5   2  -3   14.04    1.70
  -5   2  -3   11.30    3.57
  -5   2  -3   14.13    2.76
  -5   2  -3   14.12    3.87
   5  -2   3   11.51    2.58
   0   7   3  368.79   15.69
   0  -7  -3  383.49   15.59
   0   7   3  396.71   15.60
   2  -3   7   68.22    4.11
  -2   3  -7   70.08    4.14
  -2   3  -7   66.56    4.40
   2  -3   7   77.27    4.09
   2  -3   7   68.63    4.30
  -2   3  -7   62.63    3.46
  -4   3   4  497.95   19.88
  -4   3   4  491.49   20.86
  -4   3   4  507.61   19.60
   4  -3  -4  501.65   19.50
   5   1  -3  285.86   12.86
   5   1  -3  298.44   11.51
  -5  -1   3  264.26   11.94
  -5  -1   3  278.23   11.78
  -5  -1   3  252.00   10.18
   5   1  -3  282.97   11.62
   2   7   1   79.91    4.82
  -2  -7  -1   78.73    4.61
   3   4   8    7.65    3.32
   3   4   8    4.19    1.70
   3   4   8    4.08    2.16
  -3  -4  -8    5.45    2.23
  -1   5  -5  375.12   15.42
   1  -5   5  410.10   16.33
  -1   5  -5  421.53   15.01
  -1  -7  -4  254.51   10.88
  -1  -7  -4  254.47   10.35
   1   7   4  268.03   11.55
   1   7   4  269.94   11.37
   0  -7   0  248.06   10.57
   0   7   0  241.38   10.41
  -5  -2  -6  312.52   13.62
  -5  -2  -6  302.02   12.80
  -5  -2  -6  310.43   12.39
   5   2   6  302.87   12.25
   5   2   6  306.26   13.56
  -5  -2  -6  288.12   11.70
  -5  -2  -6  303.32   12.12
   5   2   6  301.95   13.75
   5   2   6  291.37   11.42
   5   2   6  310.93   12.95
   1  -6   3   26.97    2.63
  -1   6  -3   24.56    3.04
  -1   6  -3   24.89    2.75
   1  -6   3   28.43    2.22
  -2   1   8  357.85   14.35
   2  -1  -8  334.82   13.54
  -2   1   8  358.54   14.90
  -2   1   8  354.93   14.25
   0   0  -9  221.52    9.25
   0   0   9  227.85    9.22
   0   0   9  210.38    9.48
   0   0  -9  210.82    9.44
   0   0   9  213.68    9.64
   0   0  -9  228.02    9.42
  -4  -4  -7  276.73   11.49
   4   4   7  265.05   12.23
   4   4   7  253.02   10.69
   4   4   7  247.82   10.94
   4   4   7  258.56   10.34
  -4  -4  -7  266.43   11.23
   4   4   7  258.68   11.01
  -4  -4  -7  259.59   11.53
   4   4   7  273.81   10.89
  -5  -1  -6   12.37    3.61
  -5  -1  -6   14.15    1.90
  -5  -1  -6   14.29    2.21
   5   1   6   14.99    2.92
   5   1   6   15.40    3.83
   5   1   6   18.17    3.69
   4  -2   6   90.63    5.61
  -4   2  -6   88.67    3.96
  -4   2  -6   91.85    5.76
   4  -2   6   86.96    4.99
   4  -2   6   98.22    5.66
   4  -2  -5  253.09    8.06
  -4   2   5  261.84   10.61
   4  -2  -5  271.42    9.29
  -4   2   5  260.16   11.78
   2   3   9   26.00    2.54
  -2  -3  -9   20.10    2.76
  -2  -3  -9   22.70    2.70
  -2  -3  -9   24.95    2.58
   2   3   9   20.51    2.27
   2   3   9   25.27    2.74
  -4  -5  -6    2.60    2.32
   4   5   6    4.00    2.62
  -4  -5  -6    1.81    2.31
   4   5   6    2.42    1.96
   4   5   6    1.16    2.16
   4   5   6    3.09    2.17
   4   5   6    1.18    2.48
   4   6   2  277.24   11.76
   4   6   2  282.84   12.58
  -4  -6  -2  264.61   11.09
  -4  -6  -2  268.34   11.53
  -4  -6  -2  255.60   11.12
   4   6   2  274.28   11.76
   4   6   2  267.12   11.29
   4   6   2  270.99   12.30
   4   6   2  268.15   11.62
  -2   0   8  207.14    8.85
  -2   0   8  212.37    8.69
  -2   0   8  203.36    9.52
   2   0  -8  195.87    8.34
   5   3  -2  212.39    8.98
   5   3  -2  192.86    7.85
  -5  -3   2  195.57    9.63
   5   3  -2  208.40    9.41
   5   3  -2  203.16    8.17
  -5  -3   2  201.63    9.47
  -3   0   7  318.10   12.94
   3   0  -7  330.61   13.56
  -3   0   7  322.91   13.83
   3   0  -7  303.13   12.70
   3   0  -7  330.44   12.96
  -2   4  -6  237.17   10.83
  -2   4  -6  260.42   10.07
  -2   4  -6  229.30   10.60
   2  -4   6  240.55   10.72
   2  -4   6  259.67   10.55
   2  -4   6  248.98   10.39
  -3   1   7  411.37   16.23
  -3   1   7  419.17   16.48
   3  -1  -7  435.69   16.92
   3  -1  -7  408.56   16.69
   3  -1  -7  439.28   17.41
  -4  -6  -3  145.09    6.90
   4   6   3  161.02    8.09
  -4  -6  -3  147.20    6.84
   4   6   3  154.98    7.34
   4   6   3  152.24    7.40
   4   6   3  150.41    7.08
   4   6   3  156.95    7.41
   3  -1   8   32.03    3.14
   3  -1   8   34.00    3.57
   3  -1   8   32.66    3.37
  -3   1  -8   29.53    2.22
  -3   1  -8   30.63    3.30
  -3   1  -8   35.70    3.59
  -3   1  -8   31.00    2.81
  -4  -2   5   87.33    5.07
   4   2  -5   96.18    5.80
  -4  -2   5   98.22    5.97
   4   2  -5   93.24    4.60
  -4  -2   5   84.94    5.62
  -2   0  -9  201.72    8.39
   2   0   9  203.76    9.29
   2   0   9  196.78    9.25
  -2   0  -9  196.66    9.03
  -5   2   2  435.09   17.36
  -5   2   2  463.32   19.17
  -5   2   2  465.43   19.15
  -5   2   2  456.29   17.97
  -2   2  -8   -0.66    1.73
   2  -2   8   -1.39    2.31
   2  -2   8   -1.65    2.33
   2  -2   8    0.83    2.28
  -2   2  -8   -1.14    2.38
   3  -4   5   75.76    4.24
  -3   4  -5   73.80    4.85
   3  -4   5   79.19    4.40
  -3   4  -5   70.62    4.59
   3  -4   5   72.93    4.43
   2   7   4    1.45    2.54
   2   7   4    1.95    2.45
  -2  -7  -4    3.41    2.13
  -1   5   7   13.39    1.98
   1  -5  -7   10.61    1.56
   1  -5  -7   15.20    2.49
   1  -5  -7   16.73    2.39
   1   5   8 1102.23   43.12
   1   5   8 1097.36   42.82
   1   5   8 1118.62   43.14
  -1  -5  -8 1153.56   43.45
  -1  -5  -8 1096.59   43.04
   1   5   8 1157.12   43.34
   5  -1  -3  275.54   11.10
  -5   1   3  274.54   11.22
  -5   1   3  285.97   12.63
   5  -1  -3  278.09   12.39
  -5   1   3  272.00   10.98
   5   4   5  122.18    6.42
   5   4   5  125.13    7.76
  -5  -4  -5  118.48    5.99
  -5  -4  -5  115.71    5.53
  -5  -4  -5  124.61    5.94
   5   4   5  121.83    6.02
  -5  -4  -5  130.61    6.05
   5   4   5  132.44    5.84
  -5   1  -5  270.05   11.27
  -5   1  -5  262.39   10.39
  -5   1  -5  263.97   11.87
   5  -1   5  263.34   12.10
   5  -1   5  262.59   11.49
  -5   1  -5  243.65    9.61
   5  -1   5  265.93   12.08
  -5   1  -5  257.91    9.89
  -4   1  -7   47.81    4.59
   4  -1   7   57.31    4.40
  -4   1  -7   49.94    2.59
   4  -1   7   46.62    3.65
  -4   1  -7   49.90    3.30
   4  -1   7   47.08    4.54
   2  -2  -8  391.83   15.84
  -2   2   8  397.70   15.96
  -2   2   8  402.69   15.95
   2  -2  -8  392.35   15.99
   2  -2  -8  413.35   16.10
   2   6  -3  162.15    7.57
  -2  -6   3  165.16    8.06
   2   6  -3  163.62    7.22
   2   6  -3  148.00    7.14
   2   6  -3  170.37    7.00
   2   6  -3  181.71    7.66
  -1  -2   8  352.75   12.53
  -1  -2   8  349.68   13.33
   1   2  -8  340.92   14.39
   1   2  -8  362.65   14.83
   1   2  -8  375.57   14.40
  -3  -6  -6  176.19    8.02
   3   6   6  190.09    7.69
   3   6   6  186.70    8.46
   3   6   6  172.62    7.67
   3   6   6  195.49    8.29
   0   3   9   24.93    2.45
   0   3   9   25.93    2.71
   0   3   9   20.68    2.40
   0  -3  -9   22.46    2.60
   0  -3  -9   22.52    2.51
   0  -3  -9   23.31    2.88
   2   7   0  310.28   13.37
   2   7   0  325.18   13.25
  -2  -7   0  310.40   13.12
   4   6   1  207.71    9.23
   4   6   1  203.23    9.33
   4   6   1  207.32    9.99
  -4  -6  -1  196.78    9.25
   4   6   1  197.34    8.65
   4   6   1  205.56    9.77
   4   6   1  213.36    9.18
   2  -6   2  411.51   16.37
  -2   6  -2  420.04   16.18
  -2   6  -2  411.27   16.78
  -2   6  -2  382.29   16.13
  -5  -3  -6  588.62   22.42
   5   3   6  572.20   22.51
  -5  -3  -6  575.43   22.65
   5   3   6  569.31   22.16
  -5  -3  -6  556.71   22.07
   5   3   6  564.84   21.76
   5   3   6  595.25   23.15
   5   3   6  542.26   23.71
  -5  -3  -6  563.88   22.86
  -3   5  -3  379.52   15.16
  -3   5  -3  394.77   15.87
  -3   5  -3  375.42   16.22
   3  -5   3  386.19   15.21
   4   5  -2  191.24    8.63
   4   5  -2  174.00    8.10
   4   5  -2  173.89    7.38
   4   5  -2  186.66    8.79
   4   5  -2  184.72    8.42
  -4  -5   2  186.64    8.81
  -4  -5   2  170.50    8.42
   4   5  -2  186.37    8.11
   2  -4  -7  134.75    6.15
   2  -4  -7  138.22    6.31
   2  -4  -7  140.86    6.33
  -2   4   7  131.64    5.87
  -2   4   7  134.90    6.05
   5   2  -3    1.53    3.35
  -5  -2   3    1.47    3.31
   5   2  -3   -0.87    1.71
  -5  -2   3   -0.16    2.98
   5   2  -3    3.55    2.52
   5   2  -3    4.47    3.10
   2   5   8  207.84    8.95
  -2  -5  -8  205.31    8.98
  -2  -5  -8  194.52    8.53
   2   5   8  186.91    8.21
   2   5   8  203.62    8.68
   2   5   8  190.60    8.58
   0   7   4  105.73    5.23
   0  -7  -4  109.14    5.57
   0   7   4   93.12    5.25
   4   2   8    9.73    2.55
   4   2   8   10.39    1.62
  -4  -2  -8   10.88    2.16
  -4  -2  -8    9.99    2.41
   4   2   8    9.25    2.11
   4   2   8    8.78    3.60
   4  -3   5  272.30   11.77
   4  -3   5  261.79   11.66
  -4   3  -5  237.95   11.15
   1  -4  -8  125.66    6.04
   1  -4  -8  128.47    5.99
  -1   4   8  129.19    5.90
   1   7  -1  242.64    8.47
   1   7  -1  155.90    7.23
  -1  -7   1  269.03   11.36
  -3  -4   5   17.92    2.93
   3   4  -5    7.70    1.06
  -4   4  -3  260.61   10.69
   4  -4   3  212.70    8.84
   4  -4   3  248.08    9.98
  -4   4  -3  239.41   10.74
  -4   4  -3  255.99   10.37
   4   6   4 1053.40   41.05
   4   6   4 1053.26   41.99
   4   6   4 1082.28   41.25
  -4  -6  -4 1032.30   40.01
  -4  -6  -4 1026.54   39.84
   4   6   4 1053.34   41.02
   4   6   4 1046.10   40.98
   5   4  -1  164.35    7.96
   5   4  -1  170.50    8.35
   5   4  -1  156.90    6.72
   5   4  -1  154.64    7.13
   5   4  -1  162.27    8.22
   5   4  -1  167.49    7.27
  -5  -4   1  167.41    8.13
   5   4  -1  146.92    7.10
  -5  -4   1  154.32    8.19
  -3   5   4  165.83    7.14
   3  -5  -4  170.29    7.30
  -3   5   4  163.96    6.86
  -2   5   6  118.18    5.23
  -2   5   6  112.68    5.42
   2  -5  -6  113.19    5.38
   2  -5  -6  116.63    5.54
  -2   6   4   34.17    2.73
  -2   6   4   41.41    2.72
   2  -6  -4   36.00    2.89
  -4   4   3  114.96    4.43
  -4   4   3  114.96    6.17
   4  -4  -3  119.67    5.19
  -4   4   3  124.17    5.08
   1   6   7  134.56    6.16
  -1  -6  -7  130.18    5.71
   1   6   7  127.82    6.29
   1   6   7  129.72    6.05
  -1  -6  -7  127.91    6.39
  -1  -6  -7  125.33    6.25
   0   7  -1   95.51    5.20
   0  -7   1  102.77    5.25
   4   1   8   80.20    5.71
  -4  -1  -8   74.27    3.56
  -4  -1  -8   74.62    4.35
  -4  -1  -8   74.42    4.37
  -4  -1  -8   76.66    3.91
   4   1   8   79.07    4.65
  -3  -6   2   40.01    4.04
   3   6  -2   48.91    3.62
   3   6  -2   44.86    3.65
  -5   0  -6  436.69   17.25
   5   0   6  443.13   18.22
  -5   0  -6  432.73   16.85
  -5   0  -6  423.64   17.91
  -5   0  -6  427.51   17.31
  -5   0  -6  431.50   18.47
   5   0   6  434.35   18.86
   5   0   6  441.83   18.69
   2   4  -6  179.54    7.52
   2   4  -6  156.61    6.98
  -2  -4   6  159.67    7.26
  -1   7   1   25.81    2.94
   1  -7  -1   28.00    2.86
  -3  -1   7   70.91    4.55
  -3  -1   7   71.55    3.91
   3   1  -7   85.22    5.32
   3   1  -7   82.97    4.34
   3  -2  -7   11.53    3.09
   3  -2  -7   13.30    2.34
   3  -2  -7   13.33    1.77
  -3   2   7   14.21    2.23
  -1   1  -9  395.83   15.76
   1  -1   9  395.64   16.56
   1  -1   9  409.83   16.39
   5  -2   4  136.22    7.31
  -5   2  -4  146.84    6.04
   5  -2   4  135.66    6.74
   5  -2   4  132.23    7.32
  -5   2  -4  137.17    4.79
  -5   2  -4  145.50    6.83
   1  -7  -2  174.09    7.78
  -1   7   2  165.12    7.44
  -3  -3   6   14.28    2.07
   3   3  -6   14.24    2.31
  -3  -3   6   16.05    3.15
  -3  -3   6   16.22    3.61
   3   2   9  178.01    7.85
   3   2   9  174.87    8.75
  -3  -2  -9  164.51    7.31
  -3  -2  -9  180.42    7.91
   3   2   9  176.69    8.33
   3   2   9  163.13    7.18
  -3  -2  -9  157.03    6.98
  -1   1   9  118.33    5.71
   1  -1  -9  126.58    6.22
  -1   1   9  121.35    6.11
   1  -1  -9  120.19    5.88
  -2  -6  -7  101.03    5.46
   2   6   7   91.62    4.88
   5   5   2    5.22    3.19
   5   5   2    4.11    2.16
   5   5   2    3.55    2.29
   5   5   2    5.45    3.48
   5   5   2    7.16    3.32
  -1  -7  -5    1.27    1.59
   1   7   5    2.23    2.29
   1   7   5    3.79    2.35
  -1  -7  -5    2.15    1.05
  -1  -7  -5    4.66    2.53
  -2  -1   8    5.34    1.69
  -2  -1   8    0.66    3.04
  -5  -5  -3    6.78    2.46
   5   5   3   11.62    3.24
   5   5   3    9.49    2.22
   5   5   3    9.53    3.67
   5   5   3    8.32    3.75
   5   5   3    8.21    2.40
   0   6  -4    0.89    2.35
   0   6  -4   -3.86    2.51
  -5   3  -1  219.69    9.83
  -5   3  -1  221.36   10.63
   5  -3   1  199.07    9.48
  -5   3  -1  218.30   10.70
  -5   3   0   90.14    4.70
  -5   3   0   94.29    5.89
   5  -3   0   82.86    5.41
  -5   3   0   91.57    3.58
  -4  -3  -8  248.00   10.60
   4   3   8  237.81    9.62
   4   3   8  238.22   11.46
   4   3   8  248.73   10.33
  -4  -3  -8  243.01   10.35
   4   3   8  233.50   10.26
  -3  -1  -9   22.35    2.73
   3   1   9   24.48    2.85
  -3  -1  -9   19.56    2.11
   3   1   9   22.86    3.23
  -3  -1  -9   23.42    3.07
   3   1   9   17.91    3.66
   3   1   9   19.85    2.15
   0   5   8  145.00    6.61
   0  -5  -8  150.76    7.07
   0  -5  -8  150.93    7.08
   0  -5  -8  151.00    6.80
   0  -1   9  470.63   19.01
   0  -1   9  485.46   19.23
   0  -1   9  480.80   19.43
   0   1  -9  473.38   19.12
   0   1  -9  497.14   19.30
   1   4   9   52.03    3.06
  -1  -4  -9   60.95    3.93
  -1  -4  -9   56.77    3.74
   1   4   9   51.67    2.99
   1   4   9   58.05    3.59
  -1   7   0   -1.70    2.45
  -1   7   0    3.97    2.18
   1  -7   0    0.64    1.38
   1  -7   0    0.93    2.32
  -3  -7  -2   69.05    4.45
  -3  -7  -2   77.28    4.68
  -3  -5   4   39.06    4.19
  -3  -5   4   44.96    3.47
   3   5  -4   42.05    2.67
   3   5  -4   39.57    3.42
   3   5  -4   32.35    2.32
   4   6   0  235.55   10.64
  -4  -6   0  234.80   10.72
   4   6   0  246.86   10.55
   4   6   0  225.32   10.05
   4   6   0  220.07    9.55
   4   6   0  234.92   10.77
   4   6   0  232.48   10.17
   4   6   0  239.06   10.24
  -2  -3   7   55.54    4.56
  -2  -3   7   52.63    3.79
  -1   2   9   21.53    2.92
  -1   2   9   17.84    2.49
   1  -2  -9   17.31    2.40
   1  -2  -9   18.12    2.39
  -6  -1  -2    6.03    2.18
   6   1   2    5.43    1.41
   6   1   2    6.42    1.43
  -6  -1  -2    8.11    1.74
   6   1   2    5.89    2.20
   6   1   2    7.73    3.59
  -6  -1  -2    7.44    3.72
   6   1   2    4.54    1.78
   2   5  -5  291.42   11.63
   2   5  -5  299.55   11.46
  -2  -5   5  246.96   10.21
  -3  -7  -3  212.50    9.55
  -3  -7  -3  220.94    9.54
   3   7   3  114.55    4.56
  -1   6   6  475.26   18.89
   1  -6  -6  496.85   19.80
  -1   6   6  477.93   18.92
  -2  -7  -5   21.98    2.38
   2   7   5   25.52    3.09
   2   7   5   29.86    3.07
  -6  -1  -1   60.07    5.21
  -6  -1  -1   62.64    3.86
   6   1   1   58.35    4.94
   6   1   1   52.48    2.41
   6   1   1   58.83    3.53
   6   1   1   60.49    2.82
   6   1   1   55.40    2.96
   1   6  -4  135.17    6.84
   1   6  -4  148.77    6.55
   5   5   1   70.50    5.01
   5   5   1   67.51    5.05
   5   5   1   60.75    4.75
   5   5   1   63.33    3.88
   5   5   1   56.53    3.94
   5   5   1   60.16    3.97
  -1   7   3    6.96    2.37
  -1   7   3    6.23    2.29
   1  -7  -3    7.37    2.37
   1   0  -9    7.92    2.15
  -1   0   9    9.78    2.14
  -1   0   9    6.55    3.01
   1   0  -9    7.54    2.26
   2   4   9  137.83    6.48
   2   4   9  141.42    6.94
  -2  -4  -9  137.91    6.65
  -2  -4  -9  133.54    6.44
   2   4   9  135.26    6.13
  -2  -4  -9  137.49    6.54
   6   2   2  118.16    6.93
   6   2   2  128.60    5.39
  -6  -2  -2  120.35    5.49
  -6  -2  -2  114.46    7.07
   6   2   2  126.40    5.78
  -6  -2  -2  118.92    5.81
   6   2   2  113.18    5.24
   6   2   2  109.45    5.31
   6   2   2  115.04    4.62
   0   4  -7    5.94    2.46
   0   4  -7    7.77    2.38
   0  -4   7    7.41    2.01
  -4   0   6    7.06    2.02
   4   0  -6    6.71    3.56
  -4   0   6    5.62    0.98
   4   0  -6    8.17    2.16
  -4   0   6    5.86    0.97
  -4   0   6    9.22    2.91
  -5   3  -2  299.27   13.10
   5  -3   2  265.36   11.52
  -5   3  -2  296.11   13.77
   5  -3   2  278.78   12.14
  -5   3  -2  327.20   13.91
  -2   5  -5  184.99    8.65
   2  -5   5  189.63    8.09
  -2   5  -5  197.53    8.89
   2  -5   5  212.24    8.57
   3   3   9  323.01   13.20
   3   3   9  354.47   14.91
   3   3   9  330.67   13.72
  -3  -3  -9  335.14   13.92
  -3  -3  -9  324.68   13.52
   3   3   9  340.82   14.24
  -5   3   1  106.92    6.52
  -5   3   1   96.75    5.23
  -5   3   1   97.05    4.36
   5   5   4   58.98    4.43
   5   5   4   51.45    5.12
   5   5   4   55.26    5.21
  -5  -5  -4   56.13    3.62
  -5  -5  -4   54.49    3.83
   5   5   4   57.70    3.80
   5   5   4   55.62    3.60
  -5  -5  -4   54.07    3.76
  -2  -7   1  380.40   16.01
   2   7  -1  402.29   13.90
   2   7  -1  416.44   13.41
  -2  -7   1  387.50   15.75
   4   6   5   90.12    5.01
   4   6   5   76.31    4.69
  -4  -6  -5   81.55    4.69
   4   6   5   91.38    4.89
   4   6   5   81.63    4.95
  -4  -6  -5   77.61    4.56
  -4  -6  -5   85.43    4.84
   4   6   5   86.17    4.18
   4   6   5   85.72    5.98
  -3  -7  -1   96.75    5.48
   3   7   1  102.77    6.03
   3   7   1  100.43    5.88
  -3  -7  -1   92.13    5.17
   2  -3  -8   39.03    3.18
   2  -3  -8   40.71    2.81
  -2   3   8   41.40    3.00
   2  -3  -8   38.44    3.18
   6   1   3   25.73    2.83
  -6  -1  -3   22.93    2.87
  -6  -1  -3   24.66    2.29
   6   1   3   24.99    1.97
   6   1   3   22.84    1.76
   6   1   3   22.87    2.05
  -6  -2  -1  322.69   13.05
  -6  -2  -1  305.66   14.25
   6   2   1  289.63   12.65
   6   2   1  312.33   14.07
   6   2   1  327.56   12.69
   6   2   1  307.16   14.51
   6   2   1  323.88   12.23
   6   2   1  320.19   12.95
   6   2   1  293.03   13.76
   6   2   1  319.54   12.65
  -6  -2  -1  318.34   14.43
   0  -6  -7    3.99    2.33
   0  -6  -7    6.56    2.53
   0   6   7    4.78    2.01
   0  -6  -7    6.10    1.90
  -5   2   3  395.95   16.00
  -5   2   3  392.35   15.54
  -5   2   3  408.64   17.21
   4   0   8  289.12   12.73
  -4   0  -8  292.31   12.73
   4   0   8  290.82   13.07
  -4   0  -8  291.52   11.77
  -4   0  -8  270.58   11.03
   5   0  -4  264.21    8.68
  -5   0   4  237.01   11.44
  -5   0   4  256.49   11.19
   5   0  -4  272.12   10.16
  -5   0   4  234.78    9.62
   6   2   3  271.35   12.55
   6   2   3  272.42   10.79
  -6  -2  -3  277.19   11.19
   6   2   3  269.14   10.96
  -6  -2  -3  263.91   11.54
  -6  -2  -3  266.92   12.64
   6   2   3  260.15   10.82
   6   2   3  276.17   11.56
  -2   1  -9   11.83    2.65
  -2   1  -9   15.76    2.04
   2  -1   9   12.22    2.94
   2  -1   9   13.62    2.76
   2  -1   9   14.72    2.60
  -4   1   6  132.90    5.78
   4  -1  -6  114.59    5.21
   4  -1  -6  131.77    5.74
  -4   1   6  115.10    7.02
   4  -1  -6  131.09    6.70
  -4   1   6  120.59    6.64
  -3   4   6  272.86   11.00
  -3   4   6  265.43   10.73
   3  -4  -6  276.55   11.99
   3  -4  -6  283.01   11.21
   3  -4  -6  277.92   11.47
   1  -4   7   57.80    3.73
  -1   4  -7   62.93    4.01
  -1   4  -7   52.69    3.94
  -1   4  -7   57.51    3.61
   1  -4   7   64.27    3.82
  -4  -4   4  402.17   17.64
   4   4  -4  454.62   18.20
  -4  -4   4  446.18   17.36
   0  -7  -5  272.79   11.52
   0   7   5  266.02   11.49
   0   7   5  275.69   11.36
  -6   0  -1    9.41    2.35
  -6   0  -1    8.84    1.60
   6   0   1   10.50    3.75
   6   0   1    6.68    3.60
   6   0   1    5.52    2.21
  -6   0  -1   12.47    3.84
   6   0   1    6.20    0.95
   5   4   6  423.07   16.72
  -5  -4  -6  426.41   16.88
   5   4   6  411.72   16.27
  -5  -4  -6  420.15   17.18
  -5  -4  -6  404.52   16.55
   5   4   6  433.85   17.09
   5   4   6  423.86   17.50
  -5  -4  -6  429.42   17.11
   4  -3  -5  278.46   11.16
   4  -3  -5  270.22   12.08
  -4   3   5  278.49   11.30
  -3  -7  -4  112.87    5.65
  -3  -7  -4  104.75    5.71
   3   7   4   75.52    3.23
  -3  -7  -4  104.74    5.51
  -6   0  -2  306.98   12.72
   6   0   2  288.38   12.25
  -6   0  -2  290.33   11.88
   6   0   2  296.16   13.49
  -6   0  -2  309.96   13.83
   0  -3   8  303.69   12.56
   0   3  -8  293.12   12.87
   0   3  -8  329.00   13.08
   0   3  -8  311.58   12.65
   6   1   0  374.05   16.52
  -6  -1   0  380.16   16.60
  -6  -1   0  356.75   16.58
  -6  -1   0  383.38   15.29
   6   1   0  371.54   15.34
   6   1   0  379.83   14.77
   6   1   0  377.55   14.84
   6   1   0  382.45   15.03
   6   1   0  401.28   14.98
  -3  -5  -8   10.57    2.51
   3   5   8    7.35    1.76
   3   5   8   11.34    1.96
   3   5   8   12.68    2.17
  -5  -1   4  132.89    7.06
  -5  -1   4  128.31    7.49
   5   1  -4  144.52    7.57
   5   1  -4  135.59    6.08
  -1   3  -8    1.38    2.62
   1  -3   8    1.80    1.50
  -1   3  -8    0.31    2.40
   1  -3   8   -0.22    2.21
   1  -3   8    3.11    2.25
  -1   3  -8    0.03    1.88
  -1   6  -4   42.10    3.56
   1  -6   4   56.65    3.26
  -1   6  -4   37.62    3.27
  -2   6  -3  347.05   14.91
  -2   6  -3  334.98   14.73
  -2   6  -3  364.15   14.26
   2  -6   3  356.15   14.66
   2  -6   3  377.37   14.70
  -5  -2  -7  133.18    6.65
  -5  -2  -7  122.27    5.44
  -5  -2  -7  133.30    5.93
   5   2   7  134.19    5.45
  -5  -2  -7  133.45    6.29
  -5  -2  -7  131.20    7.51
   5   2   7  133.80    7.06
   5   2   7  125.48    6.21
   5   2   7  141.72    7.88
   4   5   7   16.18    2.28
   4   5   7   15.51    2.53
   4   5   7   13.38    2.91
   4   5   7   16.92    2.47
   4   5   7   17.20    1.99
  -4  -5  -7   15.53    2.77
   4   5   7   12.25    2.67
  -4  -5  -7   18.19    2.71
   4   1  -6   75.98    4.02
  -4  -1   6   66.83    5.08
  -4  -1   6   66.07    4.56
  -4  -1   6   72.20    5.31
   4   1  -6   73.06    5.24
   4   3  -5  388.78   16.11
  -4  -3   5  354.26   15.74
   4   3  -5  371.90   15.08
  -4  -3   5  385.94   15.29
  -4  -3   5  362.66   16.00
   0   4   9  134.14    6.33
   0   4   9  138.19    6.23
   0   4   9  134.74    6.58
   0  -4  -9  131.53    6.46
   0  -4  -9  142.43    6.51
   0  -4  -9  131.79    6.41
   1  -7   1   27.65    2.10
  -1   7  -1   23.98    2.41
   1  -7   1   30.65    2.96
  -1   7  -1   29.75    3.29
  -1   7  -1   32.96    3.08
   5   3  -3  208.03    8.97
  -5  -3   3  201.47   10.17
  -5  -3   3  226.04    9.99
   5   3  -3  234.92   10.30
   5   3  -3  223.17    9.86
  -3   0  -9    9.68    1.81
   3   0   9    3.63    2.74
  -3   0  -9    7.97    2.35
   3   0   9    7.54    3.26
   1   7  -2  334.62   13.94
   0   5  -6    8.16    2.50
   0   5  -6    2.90    2.41
   0   5  -6    2.45    2.19
  -3   3  -7  459.66   18.34
   3  -3   7  485.30   18.83
   3  -3   7  458.49   18.83
   3  -3   7  456.06   18.59
  -3   3  -7  442.56   18.16
  -3   3  -7  430.72   17.02
   3  -3   7  444.03   18.84
   0   7  -2   60.53    4.05
   0   7  -2   58.70    4.09
   0  -7   2   64.57    4.03
   4  -4   4  926.38   36.31
  -4   4  -4  901.03   34.45
  -4   4  -4  850.54   32.98
  -5  -1  -7   92.21    4.43
   5   1   7   85.52    6.27
   5   1   7   86.84    6.10
  -5  -1  -7   88.64    6.16
   5   1   7   93.12    5.54
  -5  -1  -7   85.97    4.79
   5   5   0  109.53    6.21
   5   5   0  113.64    6.53
   5   5   0   97.41    5.30
   5   5   0   96.56    5.35
   5   5   0  101.65    6.18
   5   5   0   98.58    5.28
   3  -5   4  184.51    8.38
   3  -5   4  199.25    8.36
  -3   5  -4  179.73    8.57
  -3   5  -4  181.77    7.67
  -3   5  -4  172.05    8.65
  -3   6   1  206.90    8.35
  -3   6   1  196.75    9.12
   3  -6  -1  206.71    8.59
  -3   6   1  189.43    9.29
  -6   0   0  123.53    6.10
   6   0   0  121.29    6.79
  -6   0   0  129.17    7.42
   6   0   0  118.53    5.48
   6   0   0  111.01    4.82
  -6  -2   0  226.05    9.50
   6   2   0  230.18    9.51
   6   2   0  236.39    9.43
   6   2   0  227.45    9.10
  -6  -2   0  232.37   11.01
   6   2   0  224.41   10.85
   6   2   0  228.21    9.54
   6   2   0  221.71   11.23
  -6  -2   0  223.38   11.08
  -5   1   4  208.40    8.47
  -5   1   4  185.70   10.20
  -5   1   4  198.38    8.50
   5  -1  -4  207.28    8.79
   5  -1  -4  217.53   10.10
  -5  -4   2  498.07   19.86
  -5  -4   2  458.09   19.95
   5   4  -2  514.75   19.01
   5   4  -2  470.44   17.91
   5   4  -2  522.64   18.69
   5   4  -2  482.69   18.88
   6   0   3  183.28    8.97
  -6   0  -3  191.69    8.02
  -6   0  -3  202.77   10.03
  -6   0  -3  183.26    8.80
   6   0   3  156.25    6.60
   6   0   3  179.86    7.73
  -3   6   0  174.71    7.34
  -3   6   0  179.35    8.23
  -3   6   0  155.82    8.24
   3   2  -7   17.66    2.42
  -3  -2   7   23.55    3.84
  -3  -2   7   19.26    3.24
  -3  -2   7   19.16    2.46
  -1   3   9  106.31    5.32
   1  -3  -9  105.01    5.20
  -2   6   5   61.92    3.52
   2  -6  -5   58.15    3.72
  -4   4   4  124.81    6.70
   4  -4  -4  117.70    5.25
  -4   4   4  118.98    5.04
   3  -3  -7  181.89    7.63
   3  -3  -7  184.60    8.40
  -3   3   7  179.63    7.75
   1   4  -7  216.57    9.11
  -1  -4   7  208.59    9.81
   1   4  -7  197.06    8.86
   1  -7  -4   88.53    4.81
  -1   7   4   81.49    4.70
  -1   7   4   86.64    4.54
   3   6   7   34.47    2.45
  -3  -6  -7   33.77    3.24
   3   6   7   37.85    3.38
   3   6   7   32.88    3.05
   3   6   7   38.67    3.14
  -5   1  -6  212.48    8.76
  -5   1  -6  217.05   10.61
   5  -1   6  222.34   10.55
  -5   1  -6  216.88   10.12
  -5   1  -6  221.29    8.51
   5  -1   6  219.98   10.65
  -5   1  -6  218.27    9.27
   5  -1   6  218.94   10.01
  -6  -3  -2  126.62    5.94
   6   3   2  125.58    5.84
  -6  -3  -2  119.99    7.28
   6   3   2  126.90    6.15
   6   3   2  130.11    5.85
   6   3   2  128.37    7.09
   6   3   2  133.00    7.78
   6   3   2  127.57    7.35
   6   3   2  119.61    5.84
   4   4   8  169.59    9.16
   4   4   8  172.08    7.90
  -4  -4  -8  173.39    8.33
   4   4   8  184.53    7.90
   4   4   8  170.20    7.24
  -4  -4  -8  185.99    8.24
  -4  -4  -8  171.49    7.91
   5  -3   3  180.20    8.72
   5  -3   3  173.58    8.15
  -5   3  -3  191.30    9.03
  -5   3  -3  201.88    9.81
  -5   3  -3  186.35    9.75
  -3  -7   0   61.67    4.53
   3   7   0   79.50    4.83
   3   7   0   60.62    4.73
   6   2   4   76.41    4.70
  -6  -2  -4   74.75    4.54
   6   2   4   79.47    3.97
  -6  -2  -4   74.22    4.12
   6   2   4   74.84    3.71
  -6  -2  -4   76.20    3.89
   3  -2   8  284.95   11.91
  -3   2  -8  277.58   11.31
   3  -2   8  279.19   12.13
   3  -2   8  274.32   12.13
  -3   2  -8  278.29   12.37
  -3   2  -8  295.61   12.46
  -5   3   2    1.54    1.58
   5  -3  -2    0.68    1.07
  -5   3   2   -0.28    2.31
  -5   3   2    2.60    3.46
  -5   3   2   -0.59    3.79
   6   1   4   30.62    3.24
   6   1   4   31.90    4.48
  -6  -1  -4   31.48    2.56
  -6  -1  -4   29.06    3.18
  -6  -1  -4   30.96    2.29
  -4   5   0  217.67    8.40
  -4   5   0  188.84   10.13
  -4   5   0  205.79    9.61
  -4   5   0  205.05   10.05
  -5  -3  -7  256.27   11.28
   5   3   7  269.79   10.50
   5   3   7  267.95   11.40
   5   3   7  272.74   11.95
   5   3   7  256.06   11.26
  -5  -3  -7  244.48   10.38
  -5  -3  -7  276.68   11.14
  -5  -3  -7  262.49   10.80
   5   3   7  258.79   12.60
   5   5   5    1.08    2.30
  -5  -5  -5    3.73    2.49
   5   5   5    1.88    2.28
  -5  -5  -5    3.31    2.30
   5   5   5    4.22    3.12
   5   5   5    4.82    3.88
  -5  -5  -5    3.84    2.47
   3  -5  -5  220.40    9.23
  -3   5   5  215.54    8.88
  -3   5   5  206.59    8.53
   4   6  -1   12.47    3.00
   4   6  -1   15.05    3.46
   4   6  -1   15.49    3.37
   4   6  -1   14.56    2.98
   4   6  -1   22.92    3.83
  -4  -6   1   12.06    3.65
   6   3   3  438.76   19.05
  -6  -3  -3  423.30   17.56
   6   3   3  418.16   17.14
  -6  -3  -3  425.18   18.75
  -6  -3  -3  447.58   17.43
   6   3   3  458.47   18.88
   6   3   3  427.04   17.16
   6   3   3  447.01   17.41
   6   3   3  444.07   17.82
   4   5  -3  132.59    6.97
   4   5  -3  129.23    6.10
   4   5  -3  135.84    6.45
  -4  -5   3  127.18    7.03
  -4  -5   3  118.93    6.47
  -5   2  -5  387.26   14.80
   5  -2   5  411.61   17.37
   5  -2   5  397.78   16.92
   5  -2   5  417.01   17.42
  -5   2  -5  425.26   15.91
  -5   2  -5  421.90   16.50
   1   1  -9  197.32    8.12
   1   1  -9  184.46    8.25
  -1  -1   9  194.24    8.39
  -1  -1   9  191.51    9.04
   1   1  -9  188.42    8.73
  -4   5   1  108.07    6.71
  -4   5   1  116.72    6.85
  -4   5   1  116.79    6.06
   4  -5  -1  117.26    5.04
  -3   6   2  146.01    7.65
  -3   6   2  142.30    6.62
   3  -6  -2  146.83    6.48
  -3   6   2  155.38    6.45
   1   7   6  159.53    7.45
  -1  -7  -6  136.64    5.87
  -1  -7  -6  149.00    6.83
   1   7   6  155.15    7.24
   1  -5   6  363.28    9.05
  -1   5  -6  374.43   13.22
   1  -5   6  172.14    7.62
  -1   5  -6  327.51   13.62
   4  -2   7   69.61    4.77
   4  -2   7   61.09    4.30
  -4   2  -7   61.93    4.87
   4  -2   7   59.48    4.06
   4  -2   7   57.52    4.75
  -4   2  -7   57.86    3.58
  -4   2  -7   55.59    2.99
   6   3   1  241.64    9.77
   6   3   1  240.70    9.76
   6   3   1  236.17   11.46
   6   3   1  223.32   10.81
   6   3   1  214.27    9.65
  -6  -3  -1  229.02   11.08
  -6  -3  -1  220.68   11.22
  -6  -3  -1  236.19    9.72
   6   3   1  239.14   11.06
   6   3   1  231.59    9.84
  -4   2   6  126.55    5.61
   4  -2  -6  133.35    6.60
   4  -2  -6  132.42    5.66
  -4   2   6  109.35    7.01
  -2  -2   8  113.76    6.23
   2   2  -8  131.79    5.61
  -2  -2   8  111.81    4.70
   1   5  -6  117.09    5.71
   1   5  -6  111.95    5.57
   1   5  -6  105.94    5.45
  -1  -5   6   76.50    3.58
  -4   5  -1   80.37    5.71
  -4   5  -1   83.16    5.17
  -4   5  -1   89.07    5.65
  -4   5  -1   82.27    3.75
  -1  -2 -10  230.88   10.10
   1   2  10  226.55    9.80
  -1  -2 -10  243.05   10.15
   1   2  10  237.81    9.74
   1   2  10  232.67   10.34
  -1  -2 -10  230.36   10.15
  -1  -2 -10  225.13    9.74
  -3   4  -6   44.44    3.97
   3  -4   6   42.16    3.34
   3  -4   6   45.13    3.42
  -3   4  -6   41.79    4.01
   3  -4   6   42.32    3.56
   2   6  -4  206.81    7.39
   2   6  -4  223.69    8.01
  -2  -6   4  199.55    9.49
  -3  -7  -5   74.69    4.67
   3   7   5   82.63    4.84
  -3   6  -1  258.08   12.11
  -3   6  -1  268.81   11.77
  -3   6  -1  275.72   11.07
   3   4   9   75.72    3.84
   3   4   9   70.41    4.22
  -3  -4  -9   73.35    4.35
   3   4   9   71.45    5.53
   5   2  -4   50.54    4.79
  -5  -2   4   53.53    4.35
  -5  -2   4   49.39    4.68
   5   2  -4   47.06    3.01
  -1  -1 -10  353.60   14.96
   1   1  10  379.51   15.67
   1   1  10  370.93   15.03
  -1  -1 -10  354.58   14.51
  -1  -1 -10  380.68   14.91
  -1  -1 -10  353.15   14.85
  -3  -6   3  126.78    7.01
   3   6  -3  123.97    6.20
   3   6  -3  120.99    5.98
   2   7   6   -0.37    2.39
   6   1  -1  332.13   13.43
   6   1  -1  347.41   13.28
   6   1  -1  303.28   15.02
   6   1  -1  345.89   13.27
  -6  -1   1  338.94   13.68
   6   1  -1  333.24   14.80
   6   1  -1  335.10   13.55
  -6  -1   1  320.71   15.13
  -6  -1   1  349.09   15.14
   4  -3   6  366.42   15.88
  -4   3  -6  364.53   15.85
   4  -3   6  382.43   15.99
   4  -3   6  370.04   15.62
   4  -3   6  406.48   16.09
  -1  -3   8  179.46    7.86
  -1  -3   8  193.81    8.94
   1   3  -8  194.66    8.35
   1   3  -8  183.40    7.90
   1   3  -8  168.44    7.78
  -6   1  -1   44.69    2.36
   6  -1   1   36.66    3.13
   6  -1   1   39.11    4.58
  -6   1  -1   40.33    3.44
  -6   1  -1   42.47    4.94
   4   6   6    2.88    2.62
  -4  -6  -6    3.26    2.55
   4   6   6    2.18    2.54
  -4  -6  -6    5.17    2.57
   4   6   6    3.49    3.68
   4   6   6    2.80    2.50
  -4  -6  -6    3.74    2.44
   4   6   6    2.74    1.80
  -1   2  -9   45.25    3.61
   1  -2   9   46.72    3.32
  -1   2  -9   51.79    3.91
  -1   2  -9   53.56    3.21
   1  -2   9   49.32    3.59
   6   0  -1   77.65    3.58
  -6   0   1   82.67    5.95
  -6   0   1   81.25    4.46
   6   0  -1   74.90    3.67
   6   0  -1   77.70    5.46
   6   0  -1   78.99    4.06
  -2   3  -8   90.13    4.38
   2  -3   8   92.76    4.98
  -2   3  -8   82.58    5.14
   2  -3   8   97.53    4.89
   2  -3   8   80.02    5.10
   6  -1   2  420.18   17.30
  -6   1  -2  467.92   18.52
  -6   1  -2  468.91   19.45
  -6   1  -2  437.10   17.47
   6  -1   2  431.36   18.35
  -6  -3  -4  194.11    8.38
   6   3   4  204.43    9.27
  -6  -3  -4  196.24    8.81
  -6  -3  -4  197.36    8.59
  -6  -3  -4  192.48   10.05
   6   3   4  201.37   10.31
   6   3   4  199.24    8.61
   6   3   4  200.71    8.73
   6   3   4  200.93    8.45
  -5   0  -7  159.56    8.39
  -5   0  -7  152.95    6.58
  -5   0  -7  151.16    7.14
  -5   0  -7  154.56    7.06
   5   0   7  149.70    8.45
  -5   0  -7  147.47    7.62
  -5   0  -7  153.79    6.14
   5   0   7  160.12    8.36
  -2  -2 -10  253.19   11.57
  -2  -2 -10  282.12   11.74
  -2  -2 -10  283.29   11.69
   2   2  10  278.32   12.40
  -2  -2 -10  270.26   11.18
   2   2  10  262.95   11.12
   2   2  10  285.76   12.04
   2   7  -2   88.06    4.85
  -2  -7   2   80.27    5.21
   2   7  -2   72.75    3.74
   2   7  -2   73.80    3.66
   2   7  -2   86.75    4.85
  -4   5   2  113.47    5.75
  -4   5   2  107.58    4.81
   4  -5  -2  111.60    4.96
  -4   5   2  101.80    6.55
   1  -5  -8    4.74    2.39
  -1   5   8    4.33    1.90
   1  -5  -8    2.22    2.17
   0   2  -9  286.73   12.23
   0   2  -9  286.14   11.76
   0  -2   9  249.84   10.52
   0  -2   9  281.48   11.11
  -2   4  -7  357.84   13.96
   2  -4   7  352.52   14.11
   2  -4   7  329.62   14.28
   2  -4   7  343.41   14.01
  -2   4  -7  356.80   14.90
  -2   4  -7  329.46   14.37
   6   0   4  179.66    8.05
  -6   0  -4  166.46    6.77
  -6   0  -4  183.66    7.83
   6   0   4  166.18    9.03
   6   0   4  158.51    8.84
  -4  -2   6  115.87    7.02
   4   2  -6  130.03    6.08
   4   2  -6  136.38    7.23
  -4  -2   6  131.11    7.35
  -4  -2   6  131.13    6.48
  -2   5   7  135.22    6.14
   2  -5  -7  139.09    6.57
   2  -5  -7  141.30    6.53
  -2   5   7  132.38    6.01
   2  -5  -7  144.96    6.49
   6  -1   0   78.94    4.31
  -6   1   0   88.64    4.90
  -6   1   0   85.74    6.21
  -6   1   0   80.58    6.01
   6  -1   0   78.73    5.78
  -2  -1 -10  169.12    7.41
  -2  -1 -10  176.40    8.03
  -2  -1 -10  166.85    8.04
   2   1  10  176.66    7.63
   2   1  10  175.17    8.44
   2   1  10  175.82    8.09
   1  -7   2   22.96    2.85
   1  -7   2   25.92    2.11
  -1   7  -2   22.57    3.05
  -1   7  -2   20.68    2.94
  -6  -2   1  236.82   11.23
   6   2  -1  236.95    9.87
   6   2  -1  231.63    9.77
   6   2  -1  236.26   11.58
   6   2  -1  246.89    9.79
  -6  -2   1  231.22    9.54
  -6  -2   1  230.15   11.31
   6   2  -1  241.96   11.22
   6   2  -1  239.43    9.58
  -4   1  -8  250.17    9.92
   4  -1   8  235.81   10.75
   4  -1   8  229.06   10.40
   4  -1   8  252.90   11.12
  -4   1  -8  252.99   10.61
  -4   1  -8  222.89   11.07
  -4   1  -8  256.99   11.58
   1   6   8  464.30   18.35
   1   6   8  439.14   17.80
   1   6   8  445.66   18.12
  -1  -6  -8  434.82   17.66
  -1  -6  -8  454.34   17.79
  -1  -6  -8  420.49   17.18
   6   3   0   67.79    5.57
   6   3   0   70.89    4.01
  -6  -3   0   69.36    3.61
   6   3   0   69.47    3.35
   6   3   0   68.79    5.27
   6   3   0   66.74    5.89
  -6  -3   0   65.82    5.59
  -6  -3   0   71.15    5.35
   6   3   0   64.68    4.04
   6   3   0   68.36    3.68
   6   3   0   75.09    3.87
  -3   6   3   -0.57    1.73
  -3   6   3    1.49    3.19
   3  -6  -3   -1.41    2.00
  -3   6   3   -0.22    1.77
  -1  -5  -9  307.14   12.86
  -1  -5  -9  320.62   13.20
   1   5   9  331.20   13.68
   1   5   9  318.31   13.39
   1   5   9  322.14   13.10
   0   1  10  146.64    6.99
   0   1  10  146.77    6.69
   0  -1 -10  145.25    6.65
   0  -1 -10  145.39    7.06
   0  -1 -10  144.07    6.88
   0   1  10  144.63    7.06
   1   3  10    7.54    2.24
   1   3  10    1.43    2.11
  -1  -3 -10    4.44    2.27
  -1  -3 -10    6.19    2.51
  -1  -3 -10    5.18    2.59
  -5  -5   1  380.80   16.42
   5   5  -1  394.51   16.40
   5   5  -1  404.62   17.05
   5   5  -1  394.39   16.30
   5   5  -1  376.94   16.23
   5   5  -1  424.56   17.06
   5   5  -1  440.42   17.39
  -2   7   1   53.89    4.00
  -2   7   1   54.64    3.65
   2  -7  -1   62.52    3.73
   2   6   8  178.73    8.02
   2   6   8  194.61    8.46
  -2  -6  -8  193.72    8.62
  -2  -6  -8  179.57    7.94
  -4   5  -2   12.12    3.62
  -4   5  -2    7.81    3.53
  -4   5  -2    8.19    1.77
  -4   5  -2    6.42    2.79
   0   2  10    1.44    2.24
   0  -2 -10    1.16    2.21
   0  -2 -10    3.70    2.32
   0  -2 -10    3.43    2.33
   0   2  10    3.59    2.63
   0  -2 -10    5.27    2.63
   0   7   6  253.00   11.13
   0   7   6  269.44   11.05
   0  -7  -6  238.26    9.81
   0  -7  -6  255.57   10.57
  -5   2   4  326.55   13.53
  -5   2   4  343.83   14.84
   5  -2  -4  340.87   14.82
  -2  -5  -9  369.29   15.37
   2   5   9  401.46   16.18
   2   5   9  387.59   15.85
  -2  -5  -9  364.73   15.13
   2   5   9  378.35   15.41
  -2  -5  -9  388.91   15.55
  -6  -2  -5    5.98    2.08
   6   2   5    6.47    4.15
   6   2   5    6.40    2.87
   6   2   5    4.64    1.87
  -6  -2  -5    3.26    2.07
  -6  -2  -5    3.04    2.57
  -1   0 -10  238.17   10.63
   1   0  10  252.63   11.12
  -1   0 -10  249.36   10.31
  -1   0 -10  250.58   10.67
   1   0  10  252.34   11.13
   2  -4  -8  133.99    6.11
   2  -4  -8  122.48    5.88
  -2   4   8  125.47    5.74
  -2   4   8  116.71    5.50
   2  -4  -8  125.44    5.97
  -2   7   2   20.51    2.55
   2  -7  -2   16.36    2.48
   3  -1  -8  130.45    6.09
  -3   1   8  125.02    5.67
   3  -1  -8  143.01    6.95
   3  -1  -8  139.26    6.38
  -3   1   8  135.84    6.06
  -6   1  -3  395.68   16.18
   6  -1   3  419.81   17.14
  -6   1  -3  396.29   18.04
   6  -1   3  413.07   17.92
  -6   1  -3  442.51   18.23
   6  -1   3  413.20   18.09
  -6   1  -3  437.14   17.24
   3   7  -1  212.43   10.35
   3   7  -1  252.63   10.30
  -3  -7   1  210.09    9.83
   1  -6  -7  213.82    8.24
  -1   6   7  207.20    8.72
  -1   6   7  195.26    8.65
   1  -6  -7  211.25    8.28
   0   6  -5   13.99    2.88
   0   6  -5    5.93    1.66
   0   6  -5   11.49    2.60
   6   1   5   64.09    5.75
  -6  -1  -5   70.47    4.64
  -6  -1  -5   71.60    4.00
  -6  -1  -5   66.70    3.62
   6   1   5   69.69    5.47
   6   1   5   69.88    4.64
  -3   1  -9   21.70    2.70
   3  -1   9   17.77    3.06
   3  -1   9   22.74    3.49
   3  -1   9   17.77    2.88
  -3   1  -9   19.60    2.17
  -3   1  -9   19.35    3.10
   5  -3   4   18.49    3.55
   5  -3   4   22.12    3.05
  -5   3  -4   20.79    3.21
  -5   3  -4   10.84    1.00
  -5   3  -4   18.09    3.95
   5  -3   4   13.38    3.49
   4   2   9   56.37    4.51
   4   2   9   60.90    4.02
  -4  -2  -9   60.28    3.66
  -4  -2  -9   57.62    4.01
   4   2   9   57.32    5.16
   4   2   9   59.07    3.23
  -2  -3 -10  168.96    7.64
  -2  -3 -10  153.76    7.32
   2   3  10  153.28    7.21
   2   3  10  153.25    7.71
   2   3  10  162.47    6.95
  -2  -3 -10  151.30    7.48
  -2  -3 -10  166.38    7.14
  -1   7   5  284.61   12.05
   1  -7  -5  289.19   12.11
  -1   7   5  289.78   11.92
  -5  -4  -7  236.47   10.08
   5   4   7  236.22   10.16
  -5  -4  -7  245.94   10.43
  -5  -4  -7  242.09   10.79
  -5  -4  -7  255.90   10.73
   5   4   7  256.86   11.16
   5   4   7  240.26    9.74
   5   4   7  249.60   10.54
   5   4   7  252.15   10.54
   5   4   7  240.84   11.96
  -2   7   0  143.83    7.33
  -2   7   0  166.16    7.21
  -2   1   9  138.67    6.41
   2  -1  -9  127.11    5.99
  -2   1   9  138.61    7.17
   3  -6   2  118.04    5.54
  -3   6  -2  113.76    6.57
  -3   6  -2  110.63    6.19
  -3   6  -2  116.61    5.46
   3   0  -8  151.66    7.05
  -3   0   8  166.86    8.15
  -3   0   8  148.48    6.59
  -3   0   8  167.60    7.08
   3   0  -8  176.24    8.05
   3   0  -8  171.21    7.38
   5  -3  -3   36.94    2.29
  -5   3   3   36.93    2.53
  -5   3   3   34.88    3.02
  -5   3   3   37.42    4.45
  -5   3   3   36.99    4.74
   3   4  -6   26.22    2.70
   3   4  -6   15.75    1.25
  -3  -4   6   22.20    3.36
   5   5   6   66.13    4.18
  -5  -5  -6   59.17    3.94
   5   5   6   66.70    4.01
  -5  -5  -6   66.17    4.17
  -5  -5  -6   66.90    4.30
   5   5   6   65.99    4.64
  -2   6  -4  143.52    7.35
   2  -6   4  152.84    6.82
  -2   6  -4  150.15    7.52
  -1  -8  -2  205.22    9.20
   1   8   2  192.12    9.27
  -1  -8  -2  202.84    9.36
   1   8   2  216.78    9.38
  -1  -8  -2  224.40    9.47
   0   7  -3    4.68    2.58
   0   7  -3    5.19    2.69
   2  -2   9   59.39    4.03
   2  -2   9   63.47    4.32
   2  -2   9   69.92    4.28
  -2   2  -9   61.46    4.30
  -2   2  -9   58.84    3.47
   6   4   2  230.16   11.45
   6   4   2  225.91    9.81
   6   4   2  230.51   10.73
   6   4   2  234.21   11.22
   6   4   2  219.33    9.74
   6   4   2  234.86    9.95
   6   4   2  235.90    9.90
  -6  -4  -2  228.04   11.12
  -4  -1  -9  218.64    9.41
  -4  -1  -9  228.58    9.83
  -4  -1  -9  228.83    9.90
   4   1   9  230.27   10.15
   4   1   9  229.51   10.71
   4   1   9  227.78   11.11
  -4  -1  -9  220.58    9.09
   1   7  -3   12.60    2.59
   1   7  -3    8.63    2.86
   1  -4  -9   87.58    4.68
  -1   4   9   90.72    4.91
   1  -4  -9   85.58    4.78
  -3  -5   5   49.56    3.69
   3   5  -5   43.18    2.54
   6  -1  -1    2.28    1.04
   6  -1  -1    3.14    3.42
  -6   1   1    0.38    2.14
  -6   1   1    1.78    1.41
  -6   1   1    0.85    3.52
   6   4   3  335.03   14.02
   6   4   3  339.31   15.15
   6   4   3  331.29   15.40
  -6  -4  -3  321.43   13.37
  -6  -4  -3  328.22   14.74
   6   4   3  334.32   13.72
   6   4   3  330.46   13.61
   6   4   3  329.62   14.44
   2   0  -9    1.61    1.96
  -2   0   9    2.92    1.88
  -2   0   9   -0.48    2.35
  -2   0   9    1.56    3.20
   1   6  -5  147.66    7.39
   1   6  -5  161.29    7.23
  -1  -6   5  161.04    8.18
   0   0  10  485.26   20.43
   0   0  10  524.72   20.42
   0   0 -10  492.98   20.64
   0   0 -10  533.01   20.60
   0   0 -10  521.53   20.48
   4   7   3  192.51    9.51
  -4  -7  -3  179.12    8.38
   4   7   3  190.55    8.83
  -4  -7  -3  183.74    8.31
   4   7   3  192.36    8.75
   4   7   3  188.78    8.93
   4   7   3  185.42    8.44
  -4   4  -5  238.04   11.24
   4  -4   5  238.17   10.64
  -4  -7  -2   51.89    3.91
   4   7   2   53.08    3.49
  -4  -7  -2   50.56    4.42
   4   7   2   51.11    4.74
   4   7   2   47.40    4.14
   4   7   2   51.93    5.06
   4   7   2   55.17    4.15
   4   3   9  233.84   10.23
  -4  -3  -9  242.23   10.58
   4   3   9  231.68   10.22
  -4  -3  -9  239.93   10.28
   4   3   9  237.41   11.47
   4   3   9  235.51    9.54
  -1  -8  -3   97.15    5.07
  -1  -8  -3   97.28    5.40
   1   8   3   91.60    5.42
   1   8   3   97.07    5.41
  -2   2   9  143.87    6.51
  -2   2   9  142.20    6.53
   2  -2  -9  148.72    6.70
  -5  -6  -3    5.28    2.63
   5   6   3    1.42    2.29
   5   6   3    3.81    2.74
   5   6   3    5.03    3.49
   5   6   3    2.43    2.47
   5   6   3    4.00    3.54
   5   6   3    5.94    3.41
   6   3   5  259.40   10.98
   6   3   5  232.49    9.26
   6   3   5  258.92   10.24
  -6  -3  -5  252.32   11.08
   6   3   5  249.83    9.90
  -6  -3  -5  252.35   10.83
  -6  -3  -5  255.60   10.64
   3   7   6   99.29    5.58
   3   7   6  106.45    5.67
  -3  -7  -6  102.55    5.63
  -2   0 -10   21.35    2.43
   2   0  10   20.77    3.29
   2   0  10   22.41    3.45
  -2   0 -10   18.76    2.98
   4  -5  -3   21.55    2.11
  -4   5   3   23.55    3.99
  -4   5   3   20.60    2.83
  -4   5   3   18.11    1.63
  -4   5   3   21.38    2.32
   5   6   2    8.39    3.43
   5   6   2    9.76    2.30
   5   6   2    6.35    2.81
   5   6   2   15.73    4.11
   5   6   2    8.20    2.60
   5   6   2    4.62    3.64
   1   8   1  209.97    9.54
  -1  -8  -1  216.09    9.99
  -1  -8  -1  238.72   10.09
   4   6  -2   20.52    3.12
   4   6  -2   14.82    3.34
  -4  -6   2   15.31    3.85
   4   6  -2   17.97    3.28
   4   6  -2   20.68    3.50
  -5   4   0  357.78   15.55
  -5   4   0  342.35   14.83
  -5   4   0  358.03   15.77
   2  -7  -3   13.88    2.61
  -2   7   3   12.83    2.55
   5   0  -5  160.56    6.49
  -5   0   5  149.22    8.00
   5   0  -5  170.74    7.96
  -5   0   5  154.79    7.47
   6   1  -2  125.20    7.51
   6   1  -2  136.47    7.30
   6   1  -2  139.40    7.73
  -6  -1   2  128.93    7.81
  -6  -1   2  129.90    5.91
   6   1  -2  136.21    5.74
  -6  -1   2  144.50    7.73
   6   1  -2  129.12    5.54
   2  -5   6  249.25   10.14
  -2   5  -6  231.02   10.49
   2  -5   6  235.35    9.66
   2  -5   6  226.08   10.27
  -2   5  -6  230.33   10.20
   3  -2  -8   49.41    3.04
   3  -2  -8   52.77    3.61
   3  -2  -8   48.42    4.09
  -3   2   8   51.03    3.15
  -3   2   8   53.70    3.44
  -2  -4   7  260.79   11.38
  -2  -4   7  236.02   10.48
   2   4  -7  260.57   10.75
   2   4  -7  242.60   10.21
   0  -3 -10   28.15    2.86
   0   3  10   24.38    3.14
   0   3  10   27.43    2.87
   0  -3 -10   29.38    3.15
   0  -3 -10   25.56    2.91
   0   3  10   32.72    2.83
   5   4  -3  255.29   11.79
  -5  -4   3  220.36   10.84
  -5  -4   3  240.28   10.61
   5   4  -3  262.70   11.47
  -5   4  -1  106.36    5.91
  -5   4  -1  112.02    6.95
  -5   4  -1  114.69    7.04
   4  -4  -5  140.21    6.20
  -4   4   5  138.43    6.02
  -4   4   5  130.30    5.45
  -4   4   5  135.57    7.57
  -2   6   6  119.32    5.58
  -2   6   6  121.92    5.77
   2  -6  -6  128.31    6.17
   0  -6  -8   14.26    2.34
   0  -6  -8   13.58    2.84
   0   6   8    9.95    2.21
   0  -6  -8   11.43    2.75
   4  -3  -6  283.36   11.06
  -4   3   6  339.82   13.67
  -4  -5  -8   57.14    3.99
  -4  -5  -8   64.42    4.35
   4   5   8   59.53    4.04
   4   5   8   65.71    4.65
   4   5   8   58.08    3.76
   4   5   8   60.66    3.38
   4   5   8   58.11    3.70
   4   5   8   65.07    5.64
   6   4   1  154.64    6.82
   6   4   1  142.99    6.64
   6   4   1  130.64    6.68
   6   4   1  139.83    7.87
   6   4   1  157.72    8.47
   6   4   1  143.99    6.75
  -6  -4  -1  142.17    7.92
   6   4   1  147.44    7.89
  -6   0   2   84.16    5.89
  -6   0   2   76.93    6.14
  -6   0   2   79.32    4.33
   6   0  -2   75.24    3.70
   6   0  -2   72.70    5.65
   3  -5   5  150.81    6.65
  -3   5  -5  142.71    7.60
   3  -5   5  141.95    6.72
  -3   5  -5  151.10    7.57
   3  -5   5  135.26    6.93
   0   5   9  171.97    7.90
   0   5   9  172.85    7.64
   0   5   9  163.67    7.45
   0  -5  -9  166.07    7.68
   0  -5  -9  162.21    7.64
  -1   6  -5  334.14   13.52
   1  -6   5  378.95   15.20
  -1   6  -5  299.27   12.88
   5   3  -4  171.01    7.42
   5   3  -4  170.25    8.88
  -5  -3   4  172.51    8.40
  -5  -3   4  169.73    8.82
   2   5  -6  189.02    8.64
   2   5  -6  230.28    9.09
  -2  -5   6  195.51    8.41
  -2   7  -1   40.29    3.53
   2  -7   1   50.97    3.65
  -2   7  -1   41.23    3.46
  -2   7  -1   45.85    4.02
  -1  -2   9  636.83   22.20
   1   2  -9  667.81   25.38
  -1  -2   9  621.85   21.33
   1   2  -9  619.50   25.38
   1   2  -9  666.26   25.87
   3   3  -7   41.71    3.25
  -3  -3   7   36.97    2.61
  -3  -3   7   40.36    3.91
  -3  -3   7   44.46    4.57
  -2  -8  -2  340.13   14.60
  -2  -8  -2  366.51   14.75
   2   8   2  352.34   15.21
   2   8   2  369.70   15.18
   4   7   4  282.27   12.23
   4   7   4  288.07   12.17
   4   7   4  309.36   12.44
  -4  -7  -4  281.76   12.21
  -4  -7  -4  288.62   12.10
   4   7   4  276.01   11.45
   4   7   4  298.80   12.57
   4   7   4  306.91   13.31
  -3   4   7  204.78    8.29
   3  -4  -7  205.38    8.71
   3  -4  -7  205.94    9.17
  -3   4   7  183.14    7.92
   3  -4  -7  197.06    8.42
   5   1  -5   19.23    4.12
  -5  -1   5   18.21    3.48
  -5  -1   5   18.32    4.15
   5   1  -5   18.86    2.42
   6   0   5  517.64   21.98
  -6   0  -5  517.51   21.16
   6   0   5  516.98   21.85
   6   0   5  517.34   21.11
  -6   0  -5  527.68   21.97
  -6   0  -5  518.63   20.39
  -6   0  -5  508.69   19.86
   6   3  -1   66.67    3.54
  -6  -3   1   65.07    5.64
   6   3  -1   73.94    3.98
  -6  -3   1   78.30    5.50
   6   3  -1   71.27    5.74
   6   3  -1   66.08    5.29
   6   3  -1   76.26    3.62
   6   3  -1   71.66    4.07
  -5  -2  -8   22.31    2.85
  -5  -2  -8   18.17    2.52
   5   2   8   19.13    3.53
  -5  -2  -8   19.05    3.20
   5   2   8   22.33    2.97
   5   2   8   16.90    1.79
   5   2   8   20.86    4.42
   6   4   4  719.89   28.05
   6   4   4  730.21   29.73
   6   4   4  712.87   28.43
  -6  -4  -4  687.16   27.36
   6   4   4  699.93   28.55
  -6  -4  -4  689.99   27.18
  -6  -4  -4  699.28   27.31
   6   4   4  709.33   27.81
   6   4   4  710.54   29.42
  -6  -4  -4  691.67   28.56
   0   8   2   45.60    3.89
   0   8   2   47.88    3.76
   0  -8  -2   53.17    3.85
   5   6   4    3.26    3.80
   5   6   4    6.21    3.80
  -5  -6  -4    5.54    2.61
   5   6   4    8.39    2.60
   5   6   4    4.12    2.74
  -5  -6  -4    6.22    2.61
   5   6   4    3.70    2.69
   5   6   4    5.15    3.25
  -2  -8  -3   18.15    2.92
   2   8   3   19.81    3.11
  -2  -8  -3   14.06    3.09
   2   8   3   10.75    3.22
  -3  -1   8   20.81    1.54
  -3  -1   8   26.88    2.97
   3   1  -8   30.24    2.90
  -3  -1   8   31.03    4.10
  -5   4   1  175.39    7.40
  -5   4   1  191.09    9.40
  -5   4   1  171.07    8.31
   4   7   1   32.15    4.25
  -4  -7  -1   25.02    3.86
   4   7   1   27.77    3.56
   4   7   1   22.96    3.94
   4   7   1   29.03    3.29
   4   4  -5  175.09    7.68
  -4  -4   5  168.34    8.58
  -4  -4   5  182.85    7.98
  -5   2  -6  141.20    6.67
   5  -2   6  145.95    7.91
  -5   2  -6  144.89    7.66
  -5   2  -6  150.49    6.03
  -5   2  -6  147.68    8.29
   3   2  10  262.73   12.09
   3   2  10  270.41   10.99
   3   2  10  260.63   12.47
   3   2  10  276.87   11.59
  -3  -2 -10  273.38   11.49
  -3  -2 -10  249.84   10.95
  -3  -2 -10  260.13   10.67
  -3   6   4   10.29    1.94
   3  -6  -4   10.06    2.27
  -1  -7  -7   -0.54    2.65
   1   7   7    1.17    2.29
   1   7   7    4.57    2.45
  -1  -7  -7    4.83    2.76
  -1  -7  -7    3.11    1.72
   6  -1   4  233.40   11.03
  -6   1  -4  233.06    9.64
  -6   1  -4  232.47   11.57
   6  -1   4  225.24   10.91
  -6   1  -4  225.82   10.57
   6  -1   4  213.57   10.00
  -4   5  -3   23.90    3.83
  -4   5  -3   17.18    2.17
   4  -5   3   19.31    2.20
  -4   5  -3   19.16    4.00
  -5   1   5  276.81   13.21
  -5   1   5  296.01   11.55
   5  -1  -5  305.02   12.44
  -5   1   5  293.53   12.97
  -5   1   5  271.24   11.43
   5  -1  -5  307.56   13.63
   5   6   1    4.10    2.09
   5   6   1    3.91    2.43
   5   6   1    1.93    2.69
   5   6   1    1.80    3.28
   5   6   1    3.38    2.84
   5   6   1    4.27    3.63
   5   6   1    3.44    3.64
   0  -8  -1   38.34    3.55
   0   8   1   30.40    3.49
  -3  -6  -8   15.42    2.96
   3   6   8   11.23    1.26
   3   6   8   19.79    2.72
   3   6   8   14.87    2.64
   3   6   8   18.92    2.25
   3   6   8   14.20    2.31
  -3   5   6   38.86    2.91
  -3   5   6   32.03    2.41
   3  -5  -6   35.87    3.04
   1   8   4  167.92    8.28
  -1  -8  -4  172.82    7.67
  -1  -8  -4  182.71    8.26
   1   8   4  181.30    8.18
   2   7   7   60.23    4.05
  -2  -7  -7   63.95    4.46
   5  -1   7  231.19   11.02
   5  -1   7  220.79   10.84
  -5   1  -7  219.52    9.86
  -5   1  -7  219.92    9.34
  -5   1  -7  241.05    9.10
  -5   1  -7  226.32   11.17
  -4   0   7   10.23    2.99
   4   0  -7   13.56    2.43
   4   0  -7   12.00    3.59
   4   0  -7   12.99    1.86
  -4   0   7   15.21    3.85
  -4   0   7   12.34    1.11
   3   5   9    6.00    2.09
  -3  -5  -9    7.62    2.65
   3   5   9    8.70    2.23
  -4  -6  -7    1.52    2.61
  -4  -6  -7    0.26    2.68
   4   6   7   -0.08    2.48
   4   6   7    2.60    2.45
   4   6   7    5.70    1.96
   4   6   7   -0.14    2.81
   6   2  -2  241.73   10.50
  -6  -2   2  237.82    9.73
   6   2  -2  253.38   11.68
   6   2  -2  266.73   10.33
   6   2  -2  243.40   10.15
   6   2  -2  262.19   12.18
  -6  -2   2  250.10   11.83
  -6  -2   2  263.60   11.67
   6   2  -2  272.76   10.45
   0  -8  -3   59.92    4.10
   0   8   3   47.35    3.85
   0   8   3   51.03    3.89
  -2  -8  -1  382.48   15.89
   2   8   1  408.11   16.91
  -5   4  -2  187.90    8.85
  -5   4  -2  178.02    9.62
  -5   4  -2  195.61    9.64
  -1  -4 -10   61.45    4.03
   1   4  10   51.09    3.51
   1   4  10   63.39    3.51
   1   4  10   61.06    4.09
  -1  -4 -10   50.29    3.74
  -5  -1  -8  116.17    5.18
  -5  -1  -8  114.78    6.47
  -5  -1  -8  109.62    4.59
   5   1   8  110.28    5.95
   5   1   8  111.58    7.08
   6  -2   1  223.58    9.90
  -6   2  -1  267.26   10.51
   6  -2   1  231.40   11.01
  -6   2  -1  260.78   11.70
  -6   2  -1  237.63    9.01
   1   8   0   42.54    3.99
  -1  -8   0   55.81    4.13
  -3  -1 -10    3.12    2.53
  -3  -1 -10    0.13    1.93
   3   1  10    0.60    2.05
   3   1  10    3.60    3.44
   3   1  10    1.88    2.89
   3   1  10    0.30    2.53
  -3  -1 -10    4.45    2.79
  -4   1   7    4.57    2.93
  -4   1   7    2.70    3.57
   4  -1  -7    3.34    1.64
   4  -1  -7   -0.83    3.46
   4  -1  -7    3.81    2.28
  -4   1   7    1.07    2.08
   5   3   8  282.60   12.56
   5   3   8  290.54   11.95
   5   3   8  282.98   13.27
   5   3   8  277.37   11.01
  -5  -3  -8  282.71   12.36
  -5  -3  -8  279.13   11.75
   5   3   8  264.16   11.76
  -5  -3  -8  282.86   12.07
  -2  -4 -10   -1.16    2.50
   2   4  10   -3.04    2.92
  -2  -4 -10    0.99    2.44
   2   4  10    0.23    2.15
  -2  -4 -10    1.63    2.56
   2   4  10    1.93    2.13
  -4  -5   4   26.02    4.32
  -4  -5   4   25.93    3.53
   4   5  -4   21.87    1.32
   4   5  -4   16.16    1.38
   4   0   9  383.10   16.69
  -4   0  -9  377.16   14.99
  -4   0  -9  389.40   15.72
   4   0   9  384.09   16.37
   1  -7   3  331.15   13.18
  -1   7  -3  305.62   12.72
  -1   7  -3  298.14   13.10
   1  -7   3  327.57   13.56
  -1   1 -10  110.55    5.23
   1  -1  10  110.78    5.64
  -1   1 -10  105.73    5.70
  -1   1 -10  103.01    5.51
   1  -1  10  101.79    5.79
   2   8   4  143.66    7.18
   2   8   4  140.69    7.12
  -2  -8  -4  139.85    6.84
  -2  -8  -4  128.66    6.32
  -3  -3 -10  300.82   12.72
   3   3  10  300.15   13.50
   3   3  10  290.86   11.83
   3   3  10  286.16   12.30
   3   3  10  296.02   12.93
  -3  -3 -10  286.93   12.30
  -6   2   0  145.45    7.15
  -6   2   0  145.90    3.78
  -6   2   0  140.89    5.32
   6  -2   0  142.33    7.90
   2   3  -8  154.80    7.43
   2   3  -8  153.77    6.57
  -2  -3   8  149.76    6.31
  -2  -3   8  149.61    7.96
  -2  -1   9    2.25    3.48
  -2  -1   9   -0.27    1.72
  -6   2  -2  242.31   11.81
  -6   2  -2  233.92    9.23
   6  -2   2  233.21   11.35
   6  -2   2  236.66   10.41
  -6   2  -2  262.41   10.87
   6  -2   2  242.03   11.32
  -6   2  -2  272.45   12.02
  -6   2  -2  239.23    9.64
   6   2   6   16.46    4.33
  -6  -2  -6   14.61    2.33
  -6  -2  -6   10.49    2.96
   6   2   6   13.35    3.27
  -6  -2  -6    8.91    2.54
   6   2   6   13.49    4.42
   6   2   6   11.80    2.18
  -3   6  -3  256.38   10.45
  -3   6  -3  231.46   11.36
  -3   6  -3  250.24   10.92
   3  -6   3  260.48   10.70
   5   5  -2  854.68   32.52
  -5  -5   2  796.30   32.28
  -5  -5   2  836.59   31.97
  -5  -5   2  770.28   32.09
   5   5  -2  762.62   31.60
   5   5  -2  813.87   32.41
   5   5  -2  795.12   31.64
   5   5  -2  859.78   32.23
  -1   1  10    7.40    2.29
   1  -1 -10   10.24    2.47
  -1   1  10    3.95    3.11
   1  -1 -10   12.45    3.04
   1  -1 -10    6.20    2.48
  -4  -3   6  319.52   13.87
  -4  -3   6  313.39   12.85
  -4  -3   6  281.22   13.42
   4   3  -6  308.88   12.78
   4   3  -6  321.09   13.88
  -2  -7   3   75.79    5.32
   2   7  -3   91.08    4.94
   2   7  -3   75.82    4.38
   2   7  -3   67.78    3.80
   2   7  -3   87.15    4.89
   2   7  -3   67.86    4.26
   6   4   0   71.67    5.21
   6   4   0   75.21    5.57
  -6  -4   0   62.26    5.09
  -6  -4   0   58.53    5.33
   6   4   0   68.64    5.87
   6   4   0   64.71    4.11
   6   4   0   67.32    4.19
   6   4   0   62.98    3.75
   6   4   0   63.58    4.09
   0   4  -8    0.56    2.65
   0   4  -8    1.43    2.34
   0  -4   8    5.79    2.21
  -6   1   2   51.98    2.90
  -6   1   2   54.69    3.59
   2  -7  -4   47.65    3.45
  -2   7   4   47.64    3.18
  -2   7   4   43.13    3.38
   3   6  -4  177.94    7.98
  -3  -6   4  198.04    9.72
   3   6  -4  182.41    7.94
  -2   3   9   12.72    2.44
   2  -3  -9   12.89    2.73
  -2   3   9   10.90    2.30
   2  -3  -9   14.24    2.21
   0  -8   0    4.29    2.79
   0   8   0   -0.96    2.89
   4   4   9  319.25   13.65
  -4  -4  -9  327.79   13.64
   4   4   9  321.85   14.89
  -4  -4  -9  327.43   13.91
   4   4   9  324.43   12.98
   4   4   9  333.78   13.56
  -4  -7  -5   96.27    5.47
   4   7   5   90.88    4.32
   4   7   5  101.79    5.39
   4   7   5   92.77    6.38
   4   7   5   95.27    5.42
  -4  -7  -5   96.35    5.37
   4   7   5   92.10    5.11
  -3  -7   2  310.71   13.68
   3   7  -2  355.19   13.67
   3   7  -2  298.83   13.75
  -5   4   2  198.47    8.17
   5  -4  -2  170.97    6.87
  -5   4   2  203.68   10.17
  -5   4   2  189.42    8.93
  -6  -1  -6  540.64   21.75
  -6  -1  -6  551.40   21.37
  -6  -1  -6  549.04   23.25
   6   1   6  543.57   23.94
   6   1   6  572.14   23.83
   6   1   6  576.33   23.12
  -1   2  10    4.57    2.32
   1  -2 -10    3.90    2.33
  -1   2  10    7.25    3.06
   1  -2 -10    6.15    2.37
   1  -2 -10    9.67    2.78
   1  -4   8  165.96    7.71
  -1   4  -8  187.33    8.44
  -1   4  -8  174.45    8.52
   5   6   5  129.90    6.73
  -5  -6  -5  115.32    5.96
   5   6   5  130.66    6.62
  -5  -6  -5  120.44    6.19
   5   6   5  123.12    6.47
  -5  -6  -5  120.70    6.26
   5   6   5  128.38    6.38
   5   6   5  125.89    7.80
  -3   3  -8  214.19    9.64
   3  -3   8  201.82    9.12
  -3   3  -8  212.92    9.74
   3  -3   8  217.97    9.39
   3  -3   8  192.18    9.38
  -3   3  -8  201.28    8.56
  -3   3  -8  201.54    8.38
   3  -3   8  204.77    9.57
   4   1  -7    8.64    2.36
  -4  -1   7   12.91    3.99
  -4  -1   7    5.08    3.57
   4   1  -7    9.59    3.56
  -4  -1   7    7.65    2.94
   0   1 -10  630.11   24.38
   0  -1  10  601.48   23.88
   0   1 -10  604.53   24.18
   0  -1  10  606.27   23.61
   0  -1  10  572.18   23.37
   5  -3   5  563.56   22.78
  -5   3  -5  575.62   24.35
   5  -3   5  595.22   22.85
  -5   3  -5  588.83   23.92
   0  -5   7   11.61    1.28
   0   5  -7   19.90    3.04
   0   5  -7   23.24    3.02
   0   5  -7   29.78    3.18
   6   4   5  893.37   36.93
   6   4   5  873.46   36.72
   6   4   5  929.95   35.40
   6   4   5  900.42   35.04
  -6  -4  -5  848.95   35.54
  -6  -4  -5  897.62   34.38
  -6  -4  -5  867.42   34.45
   6   4   5  907.47   35.79
  -6  -4  -5  880.43   34.19
   4   7   0    6.62    3.41
   4   7   0    7.32    3.20
   4   7   0    7.02    2.74
   4   7   0    8.90    3.46
   4   7   0    8.89    3.22
  -4  -7   0    8.43    3.63
  -5  -2   5  115.76    7.04
   5   2  -5  106.59    6.73
  -5  -2   5  112.13    6.51
   5   2  -5  109.86    5.25
  -5   3   4   78.05    5.61
  -5   3   4   73.75    4.30
   5  -3  -4   69.03    3.49
  -5   3   4   64.49    5.83
  -1   7   6  346.56   14.94
   1  -7  -6  359.96   14.83
  -1   7   6  386.98   14.93
  -2  -6   5  386.48   16.52
   2   6  -5  429.94   15.92
   2   6  -5  397.72   15.55
   0  -8  -4    0.38    2.70
   0   8   4   -0.21    2.65
   0   8   4    0.39    2.58
   0  -8  -4    1.07    0.76
   5   6   0  110.26    6.51
   5   6   0  112.17    6.65
   5   6   0  100.33    5.69
   5   6   0  104.15    5.77
   5   6   0  109.88    6.74
   5   6   0  106.75    5.67
  -5  -6   0  101.89    6.51
   5   6   0  100.29    5.10
   2  -7   2  753.08   28.85
  -2   7  -2  778.57   27.66
  -2   7  -2  738.52   28.29
   2  -7   2  727.73   28.67
   6   3   6  379.96   15.10
   6   3   6  397.65   15.54
  -6  -3  -6  395.51   15.95
   6   3   6  418.09   16.33
  -6  -3  -6  391.48   16.49
   6   3   6  371.63   14.55
  -6  -3  -6  399.26   16.26
   4  -3   7  153.20    8.01
  -4   3  -7  160.34    8.41
  -4   3  -7  159.35    8.19
   4  -3   7  168.64    8.24
   4  -3   7  166.34    7.75
   4  -3   7  167.67    8.23
   3  -3  -8    3.45    1.85
  -3   3   8    2.55    2.17
   3  -3  -8   -0.71    2.39
   3  -3  -8    2.19    3.06
  -2  -8   0  102.21    5.99
   2   8   0  100.19    5.50
   2   8   0  102.67    5.88
  -2  -8   0  106.34    5.79
  -4   5   4    4.82    1.14
   4  -5  -4    2.31    1.92
  -4   5   4    3.34    2.06
  -4   5   4    4.03    3.63
   0  -7  -7  113.14    5.27
   0  -7  -7  119.91    6.00
   0   7   7  120.48    6.12
   0   7   7  131.22    6.14
   5   5   7  384.78   15.57
  -5  -5  -7  392.61   15.80
  -5  -5  -7  403.40   16.07
   5   5   7  407.38   16.44
  -5  -5  -7  365.70   15.47
   5   5   7  413.77   16.18
   5   5   7  394.76   16.04
   5   5   7  396.89   16.34
  -1   0  10    2.45    3.33
  -1   0  10    5.94    2.40
   1   0 -10    5.12    2.47
   1   0 -10    5.84    2.31
  -3   4  -7   62.33    4.62
  -3   4  -7   52.50    4.48
   3  -4   7   63.70    4.01
   3  -4   7   60.97    4.24
   3  -4   7   58.38    4.28
   4  -2   8  288.80   13.26
  -4   2  -8  307.66   12.89
  -4   2  -8  314.73   13.88
   4  -2   8  298.57   13.66
  -4   2  -8  313.06   12.32
   4  -2   8  314.93   13.03
  -4   2  -8  296.21   13.58
   4  -2   8  318.45   13.55
  -6   2   1   21.40    4.36
  -6   2   1   22.15    2.84
  -6   2   1   23.10    1.93
  -6   2   1   24.28    4.61
  -6   2  -3   95.63    4.36
  -6   2  -3  101.74    6.77
   6  -2   3   93.14    6.24
   6  -2   3   92.85    5.35
   6  -2   3   97.87    6.49
  -6   2  -3   98.25    4.26
  -6   2  -3   98.89    5.61
  -6   2  -3   85.75    3.56
  -4   2   7    1.49    3.64
  -4   2   7    0.54    2.08
   4  -2  -7   -1.22    3.50
   4  -2  -7    1.21    2.35
   4  -2  -7    0.71    1.46
   2  -1  10   23.21    2.98
  -2   1 -10   24.17    2.47
   2  -1  10   23.97    3.46
   2  -1  10   22.11    3.26
   1   8   5  221.20    9.51
   1   8   5  202.69    9.60
  -1  -8  -5  183.88    8.01
  -1  -8  -5  202.94    8.82
  -5   4  -3  300.21    8.30
   5  -4   3  246.71   11.11
   5  -4   3  264.21   11.58
  -5   4  -3  299.03    9.18
  -5   4  -3  282.34    9.17
   0   4  10   91.03    5.15
   0  -4 -10   95.45    5.10
   0   4  10   95.23    4.80
   0  -4 -10   84.28    5.09
   0  -4 -10   94.03    5.09
   0   4  10   87.96    4.79
  -5   2   5  404.53   15.84
  -5   2   5  414.48   17.39
   5  -2  -5  444.23   18.72
  -5   2   5  385.70   15.97
  -1   3  -9   16.30    2.45
   1  -3   9   16.73    1.91
  -1   3  -9   13.89    2.83
  -1   3  -9   19.01    3.15
   1  -3   9   14.22    2.86
   1  -5   7  352.88   11.88
   1  -5   7  364.82   11.74
  -1   5  -7  346.13   13.58
  -1   5  -7  401.63   13.04
  -5   0  -8  113.41    6.99
  -5   0  -8  109.26    5.56
  -5   0  -8  107.13    4.61
   5   0   8  115.82    6.99
  -5   0  -8  107.80    5.05
   5   0   8  103.33    7.08
  -5   0  -8  102.96    5.62
   0   3  -9  108.63    5.84
   0   3  -9  120.92    5.72
   0   3  -9  120.32    6.18
   0  -3   9  111.10    5.62
  -3   0 -10   23.22    3.27
  -3   0 -10   23.92    2.45
   3   0  10   23.15    3.95
   3   0  10   26.31    3.57
  -3   0 -10   22.20    2.97
   3   7   7   84.49    5.01
  -3  -7  -7   72.63    4.73
   3   7   7   86.79    5.21
  -2  -8  -5  169.67    7.86
  -2  -8  -5  156.59    7.17
   2   8   5  184.69    8.30
   2   8   5  166.15    8.36
  -3   2  -9  203.54    8.52
   3  -2   9  196.78    9.44
  -3   2  -9  202.26    9.60
   3  -2   9  199.81    9.13
   3  -2   9  212.77    9.50
  -1  -8   1   70.73    4.59
   1   8  -1   32.75    2.28
   1   8  -1   72.08    4.32
   6   1  -3   91.69    4.15
   6   1  -3   96.58    4.53
  -6  -1   3   97.20    6.28
   6   1  -3   90.60    6.37
  -6  -1   3   87.70    6.51
  -3  -8  -3    1.08    2.89
  -3  -8  -3    3.32    2.99
   5   4   8  657.23   26.27
   5   4   8  636.16   24.82
   5   4   8  633.17   26.92
   5   4   8  637.48   25.61
  -5  -4  -8  643.34   26.41
   5   4   8  665.97   25.58
  -5  -4  -8  675.18   26.30
  -5  -4  -8  654.47   25.98
  -6   1  -5   33.93    2.73
   6  -1   5   36.45    4.62
   6  -1   5   30.39    4.61
  -6   1  -5   38.92    4.91
   6  -1   5   34.08    3.68
  -6   1  -5   40.63    3.74
  -3  -2   8   14.96    0.98
  -3  -2   8   15.60    3.53
   3   2  -8   17.93    2.69
  -3  -2   8   19.83    2.54
  -6   0   3  166.64    9.59
   6   0  -3  176.37    9.18
  -6   0   3  185.11    9.31
  -6   0   3  178.16    7.70
   6   0  -3  173.38    7.37
  -3  -8  -2    1.07    2.92
  -3  -8  -2    3.28    3.20
   6   3  -2   56.84    5.37
   6   3  -2   61.66    3.35
   6   3  -2   53.02    4.71
   6   3  -2   53.85    2.78
   6   3  -2   57.28    3.72
   6   3  -2   67.67    3.59
  -6  -3   2   57.72    5.46
  -6  -3   2   64.86    5.18
   1   4  -8   87.93    5.04
  -1  -4   8   87.08    5.86
  -1  -4   8   85.83    4.38
   1   4  -8   84.13    4.63
   1   4  -8   86.49    4.67
  -1  -5   7  126.45    5.63
   1   5  -7  183.10    7.96
   1   5  -7  179.89    7.99
   0   7  -4  156.33    7.14
   0   7  -4  133.17    7.15
   3   4  10   59.44    3.57
   3   4  10   62.73    5.38
   3   4  10   60.36    3.97
  -3  -4 -10   58.31    4.08
   2  -6   5  315.56   12.95
  -2   6  -5  296.51   12.67
  -2   6  -5  278.34   12.36
  -1   8   2   15.05    2.88
   1  -8  -2   13.13    2.77
  -1   8   2    9.99    2.83
   1  -3 -10   15.43    2.95
   1  -3 -10   11.31    2.48
  -1   3  10   13.55    2.57
   2  -5  -8  151.49    7.01
  -2   5   8  152.85    6.82
   2  -5  -8  159.16    7.16
   2  -5  -8  164.72    7.36
  -2   5   8  145.65    6.68
  -4   5  -4  179.38    8.94
  -4   5  -4  169.78    7.35
   4  -5   4  175.82    8.24
   6   5   3   33.84    3.30
   6   5   3   38.45    5.20
   6   5   3   35.27    3.38
   6   5   3   36.98    3.19
   6   5   3   35.62    4.91
   6   5   3   38.46    4.47
  -1   8   1    4.56    2.91
  -6   0  -6   28.52    2.32
  -6   0  -6   32.48    3.63
  -6   0  -6   27.04    2.78
   6   0   6   34.80    4.64
   6   0   6   27.99    3.64
  -6   0  -6   30.92    4.69
   6   0   6   30.88    4.84
   0   8  -1    0.72    1.07
   0  -8   1    1.63    2.82
   0   8  -1    3.61    3.00
  -3   6   5   10.39    1.90
  -3   6   5   11.87    2.44
   3  -6  -5   19.76    2.64
  -4  -6   3    1.55    3.80
   4   6  -3    3.15    2.83
   4   6  -3    3.90    3.03
   4   6  -3    3.08    2.76
   6   5   2   10.60    2.89
  -6  -5  -2   12.68    3.81
   6   5   2    9.74    2.77
   6   5   2   10.59    3.91
   6   5   2   10.88    2.43
   6   5   2   10.77    4.20
   6   5   2   10.19    2.51
   6   5   2   12.08    3.93
   1   7  -4   -0.87    2.08
   1   7  -4    2.21    2.54
   1   7  -4    3.44    2.87
   1   7  -4    0.47    2.99
  -1  -6  -9  418.70   17.96
   1   6   9  454.53   18.06
   1   6   9  480.75   18.68
   1   6   9  439.13   18.35
   1   6   9  442.70   18.35
  -1  -6  -9  430.23   17.60
   2   6   9  231.86   10.23
  -2  -6  -9  223.55    9.73
   2   6   9  239.05   10.56
  -2  -6  -9  237.64   10.40
   2   6   9  233.86    9.82
   2   6   9  228.25   10.20
   6   4  -1   10.18    2.73
   6   4  -1    7.96    2.69
   6   4  -1    3.23    3.50
   6   4  -1    8.27    3.94
   6   4  -1    8.56    1.78
   6   4  -1    5.44    4.24
   6   4  -1    7.24    2.47
  -6  -4   1   11.82    4.11
  -6  -4   1   11.84    3.77
  -1   6   8   94.83    4.88
   1  -6  -8  106.93    4.72
   1  -6  -8  110.00    4.91
  -3  -8  -4    2.54    3.05
  -3  -8  -4    5.00    3.06
  -1   5   9   20.95    2.53
   1  -5  -9   25.17    3.06
   1  -5  -9   17.34    2.84
   4  -4   6  275.77   11.54
  -4   4  -6  227.73   11.15
   4  -4   6  253.71   11.15
  -4   4  -6  259.21   11.54
   4  -4   6  250.60   11.43
  -5   4   3   30.33    2.44
  -5   4   3   23.87    4.63
  -5   4   3   28.81    4.49
  -5   4   3   26.96    3.05
   5  -4  -3   28.58    2.17
   3   8   1   27.40    3.91
  -3  -8  -1   23.17    3.70
   4   7   6   15.76    2.78
  -4  -7  -6   17.27    3.22
  -4  -7  -6   17.48    3.00
   4   7   6   17.29    3.13
   4   7   6   18.20    2.00
   4   7   6   17.48    3.13
   4   7   6   19.86    4.23
  -4  -7  -6   12.65    3.08
  -1   8   3    1.86    2.57
  -1   8   3    0.70    2.64
   1  -8  -3   -0.71    2.61
   5   6   6   -3.98    3.06
  -5  -6  -6   -1.04    2.88
  -5  -6  -6    0.23    2.77
  -5  -6  -6    0.46    2.65
   5   6   6    3.09    3.23
   5   6   6   -1.24    2.50
   5   6   6   -1.55    2.08
   5   6   6    1.26    4.06
   5   6   6   -0.87    2.63
  -2   4  -8  109.04    6.42
  -2   4  -8  119.08    5.98
  -2   4  -8  121.23    5.62
   2  -4   8  112.14    6.09
   2  -4   8  116.18    5.86
  -6  -5  -4   98.85    5.38
   6   5   4   93.84    5.45
   6   5   4   92.80    5.06
   6   5   4   95.59    7.09
   6   5   4   88.24    5.02
   6   5   4   90.26    6.87
   6   5   4   97.02    6.10
   0   6  -6  142.91    4.84
   0   6  -6  130.49    4.58
  -4  -2   7   18.58    3.89
   4   2  -7   24.81    4.20
  -4  -2   7   24.27    4.57
   4   2  -7   19.61    2.67
  -4  -2   7   20.63    3.11
   0   8   5  233.62    9.93
   0  -8  -5  224.21    8.27
   0   8   5  217.62   10.04
   0  -8  -5  160.79    6.90
  -2   7   5  190.28    8.59
  -2   7   5  204.88    8.55
   2  -7  -5  206.84    9.07
   4  -4  -6  178.39    8.57
  -4   4   6  159.71    9.02
   4  -4  -6  170.42    7.54
  -4   4   6  173.00    7.45
  -4   1  -9  154.26    6.58
  -4   1  -9  153.19    7.29
  -4   1  -9  142.30    7.78
   4  -1   9  142.70    7.66
   4  -1   9  141.09    7.24
  -4   1  -9  166.73    8.32
   6   2  -3  153.69    6.84
  -6  -2   3  140.27    8.39
   6   2  -3  154.37    8.63
  -6  -2   3  158.79    8.29
   6   2  -3  165.15    8.63
   6   2  -3  160.66    6.87
   6   2  -3  156.18    8.04
  -5  -4   4  434.76   19.11
   5   4  -4  487.79   19.60
   5   4  -4  477.25   19.05
  -5  -4   4  470.61   18.85
  -1   8   0   96.36    5.31
   1  -8   0   96.22    4.28
  -1   8   0   84.17    4.75
   1  -8   0   97.24    5.36
   2  -6  -7  248.80   10.49
  -2   6   7  236.31   10.10
  -2   6   7  251.71   10.30
   2  -6  -7  239.02   10.25
  -6  -5  -1    7.83    3.56
   6   5   1    8.65    2.61
   6   5   1    8.83    2.83
   6   5   1    6.99    2.85
   6   5   1    6.54    2.30
   6   5   1    8.42    4.09
   6   5   1    3.05    3.96
   6   5   1   13.03    3.81
  -6   2   2    0.22    3.80
  -6   2   2    4.45    1.72
   6  -2  -2    3.63    1.04
  -6   2   2    2.38    2.35
  -6   2   2    3.93    4.14
  -2  -2   9   -2.67    3.87
  -2  -2   9   -2.88    1.79
  -2  -2   9    2.06    1.63
   2   2  -9    0.31    2.95
  -6  -4  -6  550.81   22.17
   6   4   6  546.87   21.07
   6   4   6  548.30   21.92
   6   4   6  534.10   21.58
   6   4   6  553.84   22.00
   6   4   6  576.61   22.63
  -6  -4  -6  561.80   21.94
  -6  -4  -6  536.52   22.26
  -6   2  -4   86.63    3.63
   6  -2   4   87.94    5.34
   6  -2   4   84.86    6.27
  -6   2  -4   97.57    5.10
   6  -2   4   92.92    6.16
  -6   2  -4   86.27    6.18
   4   7  -1    2.82    3.22
   4   7  -1    4.32    3.29
   4   7  -1    7.16    3.40
   4   7  -1    3.46    3.41
  -4  -7   1    3.67    3.79
  -6   1   3   55.57    5.38
  -6   1   3   54.79    3.61
  -6   1   3   59.34    3.23
   6  -1  -3   57.25    5.37
  -2  -8   1  233.62    9.91
   2   8  -1  222.94    9.60
   2   8  -1  194.54    8.60
  -2  -8   1  204.05   10.12
  -4   6   0  108.73    7.14
  -4   6   0  115.78    5.22
  -4   6   0  126.06    7.05
  -4   6   0  125.66    6.56
   2  -3   9   98.43    5.00
   2  -3   9   88.76    5.12
   2  -3   9   88.59    5.44
  -2   3  -9   90.36    4.63
  -2   3  -9   90.40    5.48
  -4   6   1  151.13    8.36
  -4   6   1  148.68    8.44
  -4   6   1  156.53    6.52
  -4   6   1  155.85    7.76
  -5  -6   1  285.60   13.09
   5   6  -1  275.73   11.88
   5   6  -1  330.41   13.60
   5   6  -1  293.99   12.57
   5   6  -1  307.81   13.25
   5   6  -1  303.81   12.61
   5   6  -1  287.11   12.58
   5   6  -1  295.83   13.27
  -1  -1  10   60.48    4.93
  -1  -1  10   60.12    3.83
   1   1 -10   63.59    3.96
   1   1 -10   57.82    4.54
   1   1 -10   63.47    3.69
  -3   6  -4   30.89    3.71
  -3   6  -4   34.87    3.09
   3  -6   4   28.07    2.84
  -3   6  -4   25.21    4.03
  -1  -5 -10  219.04    9.73
   1   5  10  222.49    9.48
   1   5  10  216.72    9.73
   1   5  10  228.88   10.09
  -1  -5 -10  228.79   10.08
   3  -5   6    5.51    2.63
   3  -5   6    0.70    2.39
  -3   5  -6    1.87    2.96
  -3   5  -6    7.58    3.29
   3  -5   6    4.42    2.31
   2   5  10  107.53    6.02
  -2  -5 -10  106.91    5.75
   2   5  10  103.40    5.52
  -2  -5 -10   97.79    5.51
   2   5  10  100.89    5.12
  -2  -5 -10   91.58    5.16
   1   3  -9  327.25   13.32
  -1  -3   9  323.73   13.84
  -1  -3   9  305.65   12.74
   1   3  -9  317.95   13.71
  -1  -2 -11  354.00   14.26
   1   2  11  337.73   14.44
   1   2  11  355.32   14.33
  -1  -2 -11  342.99   14.61
  -1  -2 -11  328.74   14.59
   1   2  11  372.97   15.07
  -1  -2 -11  367.67   14.65
   4   6   8   23.03    3.57
  -4  -6  -8   20.42    3.09
   4   6   8   18.95    2.50
   4   6   8   20.22    2.72
   4   6   8   20.75    2.96
   4   6   8   22.10    2.52
   1   7   8   19.04    2.87
  -1  -7  -8   22.29    2.33
   1   7   8   22.65    2.91
  -1  -7  -8   26.11    3.36
  -1  -7  -8   16.02    3.23
   1   7   8   23.23    2.95
   2   7   8  103.65    5.74
   2   7   8  111.65    5.51
  -2  -7  -8  116.29    6.31
  -2   4   9   20.10    2.73
   2  -4  -9   17.39    2.84
   2  -4  -9   20.81    2.75
   2  -4  -9   16.81    2.55
  -6  -2  -7   71.79    4.02
  -6  -2  -7   64.62    4.75
   6   2   7   65.43    4.08
   6   2   7   74.69    5.25
  -6  -2  -7   65.88    4.35
   6   2   7   67.51    6.09
   6   2   7   68.37    6.04
  -6  -2  -7   76.29    6.12
  -1   7  -4  103.71    5.83
  -1   7  -4  109.47    6.28
   1  -7   4  123.92    5.67
  -1   7  -4  122.35    5.99
   5  -2   7  146.67    7.91
  -5   2  -7  139.13    5.76
  -5   2  -7  134.39    6.52
   5  -2   7  135.73    7.02
  -5   2  -7  135.94    7.92
   5  -2   7  143.56    7.89
  -4  -5  -9   89.42    5.16
   4   5   9   91.00    4.46
   4   5   9   90.47    4.96
   4   5   9   89.81    6.68
  -5   0   6    3.47    1.00
  -5   0   6    8.85    3.46
   5   0  -6    6.99    3.99
   5   0  -6    7.85    1.50
  -5   0   6    7.39    4.16
   5   0  -6    5.45    2.33
  -3   7   1  269.25   10.58
  -3   7   1  250.08   11.34
   1   6  -6   13.88    2.65
   1   6  -6   17.92    3.18
   1   6  -6   16.88    2.71
  -2   7  -3  143.64    7.80
  -2   7  -3  158.61    8.04
  -2   7  -3  161.88    7.40
   2  -7   3  166.99    7.39
   2  -7   3  172.86    7.66
  -1  -1 -11  535.34   21.47
   1   1  11  533.34   22.70
   1   1  11  560.15   21.94
   1   1  11  569.46   22.65
  -1  -1 -11  568.91   21.87
  -1  -1 -11  543.56   21.87
  -1  -1 -11  524.86   21.92
   5  -4   4   36.81    4.16
  -5   4  -4   45.12    4.90
   5  -4   4   47.65    3.88
  -5   4  -4   44.46    4.04
  -5   4  -4   33.13    2.00
  -5  -3   5  232.82   11.21
  -5  -3   5  238.70   10.75
   5   3  -5  235.77   10.04
  -5  -3   5  231.92   11.47
   5   3  -5  247.25   11.45
  -4  -2 -10    4.20    3.01
   4   2  10    3.96    3.90
   4   2  10    4.33    2.69
   4   2  10    3.66    2.03
   4   2  10    3.49    3.12
  -4  -2 -10    1.99    2.71
  -4  -2 -10    3.10    2.38
   1  -2  10   34.19    3.44
  -1   2 -10   39.14    3.04
   1  -2  10   39.14    3.20
  -1   2 -10   33.94    3.74
   5   5  -3  407.28   13.79
   5   5  -3  420.36   13.16
   5   5  -3  415.50   13.54
   5   5  -3  368.97   12.57
  -5  -5   3  404.77   16.46
   5   5  -3  374.43   12.48
  -5  -5   3  379.26   17.09
  -5  -5   3  382.37   16.70
  -3  -5   6   99.83    5.51
   3   5  -6   81.39    3.87
  -4   6  -1   74.81    3.73
  -4   6  -1   66.07    5.34
  -4   6  -1   70.99    5.05
  -4   6  -1   70.00    5.71
   1   8   6   95.74    5.28
   1   8   6   90.43    5.33
  -1  -8  -6   93.26    4.87
  -1  -8  -6   62.44    3.29
   1  -6   6  424.30   17.01
  -1   6  -6  331.78   15.35
  -1   6  -6  380.90   16.12
   4  -3  -7   19.04    3.85
  -4   3   7   21.11    2.56
   4  -3  -7   18.77    1.81
  -2  -2 -11   84.93    4.58
  -2  -2 -11   85.60    5.05
   2   2  11   80.34    5.32
  -2  -2 -11   71.96    5.01
   2   2  11   79.64    5.86
  -2  -2 -11   91.78    5.13
   2   2  11   82.88    4.43
   3   8   5   10.00    3.07
  -3  -8  -5    9.04    3.14
  -3   7   0  238.08    9.76
  -3   7   0  217.01   10.58
  -3  -4   7  130.05    6.85
  -3  -4   7  129.12    7.66
   3   4  -7   89.33    4.03
   3   4  -7  138.85    5.41
  -2   5  -7    4.64    2.52
   2  -5   7   10.12    2.71
   2  -5   7    3.55    1.91
  -2   5  -7    2.18    2.94
  -2   5  -7    6.19    2.86
   2  -5   7    4.34    2.43
  -3   5   7  265.97   10.78
   3  -5  -7  275.96   11.31
   3  -5  -7  259.60   11.57
  -3   5   7  251.21   10.49
   2   8   6   -0.06    2.89
  -2  -8  -6   -4.59    3.11
   2   8   6    3.44    2.64
  -4   6   2  241.22   11.14
   4  -6  -2  232.29    9.55
  -4   6   2  231.88    9.60
  -4   6   2  222.45   10.41
  -3   7   2  266.43   12.33
  -3   7   2  280.48   11.60
  -3   7   2  262.38   12.07
  -3   7   2  285.17   11.36
   3  -7  -2  283.78   11.69
   6   1   7   54.19    4.74
   6   1   7   63.49    6.10
   6   1   7   63.99    5.67
  -6  -1  -7   60.10    3.96
  -6  -1  -7   62.38    5.72
  -6  -1  -7   58.09    3.55
  -3  -7   3  189.88    9.44
   3   7  -3  173.71    7.69
   3   7  -3  173.33    7.89
   3   7  -3  175.38    8.18
   0  -6  -9   98.30    5.18
   0   6   9   96.08    5.09
   0   6   9   98.58    5.15
   0  -6  -9  104.13    5.69
   0  -6  -9  106.80    5.68
  -6   3  -1  153.03    6.72
  -6   3  -1  215.93    9.75
   6  -3   1  176.48    9.18
  -6   3  -1  188.04    6.85
  -6   3  -1  185.35    9.54
  -6   3  -1  188.67    8.30
  -6   3  -1  152.90    6.81
   1  -8  -4   16.92    2.96
  -1   8   4   11.67    2.89
  -1   8   4   16.09    2.90
  -3  -8   0    7.59    3.71
   3   8   0    4.05    0.88
   3   8   0    4.41    3.31
   3   8   0    5.65    3.26
  -5   1   6   31.10    2.40
   5  -1  -6   43.39    2.99
  -5   1   6   39.27    2.92
   5  -1  -6   44.91    4.62
  -5   1   6   34.68    4.35
  -5   1   6   32.11    4.74
  -3  -6  -9   21.03    3.14
  -3  -6  -9   26.05    3.47
   3   6   9   21.19    3.01
   3   6   9   23.70    2.67
   3   6   9   24.07    2.99
   6   5   5   44.24    3.51
   6   5   5   42.73    5.44
  -6  -5  -5   49.28    3.89
   6   5   5   42.29    3.98
   6   5   5   46.97    4.70
   6   5   5   52.50    5.75
  -6  -5  -5   45.78    3.85
   6   5   5   45.81    3.60
  -5  -2  -9  349.40   14.19
   5   2   9  344.96   14.37
   5   2   9  337.22   13.41
  -5  -2  -9  343.16   14.59
   5   2   9  349.16   15.69
  -4   5   5   19.00    1.79
   4  -5  -5   23.99    2.59
  -4   5   5   17.92    4.16
  -4   5   5   21.87    2.53
   6   3   7   26.13    1.64
  -6  -3  -7   26.91    3.45
   6   3   7   24.57    4.96
  -6  -3  -7   25.24    2.96
   6   3   7   23.33    4.80
   6   3   7   29.13    3.97
  -6  -3  -7   25.49    3.07
   6   3   7   25.55    2.88
   0   2 -10  352.09   14.90
   0   2 -10  354.91   14.64
   0  -2  10  294.53   12.68
   0   2 -10  353.27   14.41
   0  -2  10  325.15   13.27
   5   1  -6    4.08    4.16
  -5  -1   6    1.11    3.96
   5   1  -6    3.59    2.36
  -5  -1   6    3.07    3.25
   4   3  10  277.19   11.66
   4   3  10  247.17   11.52
   4   3  10  275.50   10.96
   4   3  10  277.23   12.37
  -4  -3 -10  264.48   11.64
   4   3  10  268.42   12.94
  -4  -3 -10  287.76   12.04
  -6   3   0   64.72    2.54
  -6   3   0   66.04    5.59
  -6   3   0   64.79    4.02
   2   1  11  150.23    6.73
  -2  -1 -11  147.53    6.65
  -2  -1 -11  135.37    7.23
   2   1  11  154.14    7.89
   2   1  11  134.93    7.51
  -2  -1 -11  151.24    7.23
   3  -1  -9  151.13    7.07
   3  -1  -9  144.88    6.78
  -3   1   9  151.52    7.02
   3  -1  -9  160.04    7.63
   1   8  -2   29.82    3.77
   1   8  -2   35.93    3.43
   5  -3   6  145.82    7.97
  -5   3  -6  149.10    8.44
   5  -3   6  156.39    8.04
   3  -1  10   57.78    4.56
  -3   1 -10   61.92    3.61
  -3   1 -10   64.64    4.29
   3  -1  10   62.46    4.89
   3  -1  10   56.40    4.17
   2   7  -4  129.31    6.20
   2   7  -4  138.00    6.27
  -2  -7   4  117.50    6.93
   2   7  -4  108.54    5.66
   2   7  -4  116.62    5.27
   5  -1   8  103.61    6.75
  -5   1  -8  104.52    6.86
   5  -1   8   99.62    6.52
  -5   1  -8   95.40    4.81
  -5   1  -8  107.58    4.55
  -5   1  -8  101.26    5.43
   4   1  10   55.22    5.36
  -4  -1 -10   53.53    3.30
  -4  -1 -10   57.07    4.10
  -4  -1 -10   57.44    4.44
  -4  -1 -10   52.04    3.62
   4   1  10   55.98    4.10
  -4  -1 -10   58.41    4.14
   4   1  10   52.76    4.75
   1   3  11   11.97    2.63
  -1  -3 -11   13.05    3.02
   1   3  11   10.99    2.58
  -1  -3 -11   12.72    2.63
  -1  -3 -11   12.38    2.86
  -1   8  -1  253.86   10.14
   1  -8   1  295.30   11.45
  -1   8  -1  278.54    9.89
   1  -8   1  272.19   12.16
  -3   4   8   22.95    2.76
   3  -4  -8   24.94    2.83
   3  -4  -8   19.80    3.43
   3  -4  -8   21.83    2.43
  -5   3   5  128.42    5.71
  -5   3   5  124.80    7.42
   5  -3  -5  136.67    7.34
   5  -3  -5  122.77    5.67
  -5   3   5  111.98    7.70
  -5   3   5  120.16    5.93
   6   5   0    9.17    4.46
  -6  -5   0   14.55    3.91
   6   5   0    9.97    2.77
   6   5   0   12.23    4.26
   6   5   0   12.45    3.00
   6   5   0   13.79    3.95
   6   5   0   13.43    2.94
   6   5   0   12.72    2.26
   0   8  -2   41.02    3.96
   0  -8   2   41.72    3.75
   0   8  -2   40.35    3.83
  -1   7   7  323.16   13.80
   1  -7  -7  346.35   14.42
  -1   7   7  348.12   13.82
  -2  -3 -11  185.35    8.30
  -2  -3 -11  166.06    8.34
  -2  -3 -11  179.78    8.03
   2   3  11  183.97    8.13
   2   3  11  194.98    9.06
  -2  -3 -11  192.50    8.55
  -3   0   9  103.50    6.45
   3   0  -9  100.52    5.31
  -3   0   9   95.65    4.59
   3   0  -9   98.97    4.97
  -6   3  -2  174.05    7.44
  -6   3  -2  182.93    7.27
  -6   3  -2  190.46    9.96
   6  -3   2  161.89    8.71
   6  -3   2  165.68    7.81
  -6   3  -2  192.10    9.87
  -6   3  -2  182.03    8.76
   4   4  -6   24.79    2.88
  -4  -4   6   23.82    2.79
  -4  -4   6   25.27    3.86
   5   3   9   32.78    3.26
   5   3   9   33.31    4.97
   5   3   9   32.34    2.45
  -5  -3  -9   30.27    3.76
   5   3   9   35.37    3.38
  -5  -3  -9   34.53    3.26
  -5  -3  -9   35.19    3.50
   4   5  -5    0.22    0.55
  -4  -5   5    3.01    3.23
   0   2  11    2.30    2.55
   0   2  11    1.39    3.04
   0  -2 -11    0.44    2.75
   0  -2 -11    2.05    2.57
   0   2  11    0.89    2.49
   0  -2 -11   -0.18    2.50
   0  -2 -11    1.37    2.47
   1  -4 -10   22.36    3.10
   1  -4 -10   26.01    3.16
  -1   4  10   24.56    3.02
   1  -4 -10   24.51    2.95
   0   1  11   98.83    5.48
   0  -1 -11   95.28    5.00
   0  -1 -11   89.97    5.47
   0  -1 -11   93.39    5.23
   0   1  11   84.39    5.53
   0   1  11   98.81    5.09
  -5  -1  -9  114.35    5.65
  -5  -1  -9  121.23    6.24
   5   1   9  133.20    7.87
   5   1   9  125.02    6.59
  -5  -5  -8  517.71   19.86
   5   5   8  474.65   19.75
  -5  -5  -8  489.69   19.49
  -5  -5  -8  453.62   19.08
   5   5   8  490.36   20.32
   5   5   8  481.04   19.81
   5   5   8  474.47   18.96
   5   5   8  495.31   19.42
   5   5   8  508.82   19.60
  -3   7  -1   24.79    3.01
   3  -7   1   22.58    2.96
  -3   7  -1   29.17    3.70
  -3   7  -1   28.86    4.17
   5   7   3   22.61    4.24
   5   7   3   26.16    4.70
   5   7   3   19.56    3.27
   5   7   3   20.98    3.00
  -5  -7  -3   20.03    3.32
   5   7   3   17.16    3.51
  -5  -7  -3   21.64    3.27
   5   7   3   25.41    4.00
  -6   1  -6  270.94   13.08
   6  -1   6  284.83   13.15
  -6   1  -6  273.68   11.33
  -6   1  -6  278.17   11.44
  -6   1  -6  264.34   10.72
  -6   1  -6  281.64   12.36
   6  -1   6  274.32   13.14
   6  -1   6  276.69   12.39
   2   5  -7  356.34   14.01
   2   5  -7  320.14   13.59
  -2  -5   7  324.03   13.34
  -2   1  10  231.74    9.74
   2  -1 -10  217.28    9.45
  -2   1  10  233.99   10.56
  -2   1  10  216.49    9.58
  -5   5   0  221.14   10.53
  -5   5   0  232.89   11.56
  -5   5   0  242.36   11.36
   0   5  10  288.88   12.13
   0  -5 -10  277.48   11.93
   0  -5 -10  271.83   11.74
   0   5  10  281.75   11.69
   0   5  10  271.64   11.80
   0  -5 -10  281.96   11.95
   1   0  11  328.03   14.38
   1   0  11  345.48   14.45
  -1   0 -11  333.35   13.81
  -1   0 -11  337.98   14.18
  -1   0 -11  339.40   14.14
   5   7   2  136.91    6.90
   5   7   2  155.07    8.36
   5   7   2  169.89    8.84
   5   7   2  149.56    7.84
   5   7   2  146.07    7.48
   5   7   2  154.88    7.54
  -2   2 -10   58.77    4.45
   2  -2  10   67.50    4.58
   2  -2  10   60.68    4.31
   2  -2  10   62.61    4.25
  -2   2 -10   61.42    3.73
  -2   2 -10   64.61    4.64
   3  -2  -9  266.80   11.34
  -3   2   9  236.23   10.08
  -3   2   9  249.71   10.29
   3  -2  -9  257.74   10.96
   3  -2  -9  249.69   10.61
   3   5  10    3.82    2.26
   3   5  10    3.40    3.14
  -3  -5 -10    3.20    2.84
  -3  -5 -10    4.93    3.06
  -4   6  -2   25.37    4.41
  -4   6  -2   17.53    3.64
  -4   6  -2   22.06    2.42
  -4   6  -2   22.66    4.00
   4  -6   2   21.64    2.60
  -6   3   1  116.94    7.70
  -6   3   1  109.88    6.20
  -6   3   1  124.09    5.26
   3  -7  -3   69.58    4.15
  -3   7   3   73.61    4.28
  -3   7   3   68.34    5.37
  -3   7   3   74.49    4.02
   6   4  -2    1.54    2.35
   6   4  -2    5.23    3.89
   6   4  -2   -0.54    2.04
   6   4  -2    2.81    2.61
   6   4  -2    0.26    3.37
  -6  -4   2    0.81    3.86
   6   4  -2   -0.99    4.48
   6   4  -2    1.21    1.05
  -6  -4   2   -0.73    3.42
   6   3  -3   12.25    3.97
  -6  -3   3   14.57    3.84
   6   3  -3   12.80    2.32
   6   3  -3   11.94    3.31
   6   3  -3   11.36    2.20
  -6  -3   3   14.08    4.27
   3   6  -5  203.66    8.30
  -3  -6   5  191.22    9.57
  -3  -6   5  183.94    8.37
   3   6  -5  202.23    8.75
  -2  -4   8  369.35   15.62
   2   4  -8  336.93   14.04
   2   4  -8  379.83   14.77
  -2  -4   8  344.66   14.68
  -7  -1  -2   18.79    2.95
  -7  -1  -2   19.38    4.57
  -7  -1  -2   20.65    2.33
   7   1   2   17.44    2.30
   7   1   2   12.91    1.69
   7   1   2   13.41    2.81
   7   1   2   17.40    4.52
  -5   4   4   11.74    2.62
  -5   4   4   10.63    4.25
   5  -4  -4   10.24    1.96
  -5   4   4   11.70    3.93
  -5   4   4    8.60    2.17
   0  -7  -8   17.47    3.16
   0   7   8   18.84    2.69
   0  -7  -8   20.34    2.42
   0  -7  -8   22.58    3.30
   3   7   8   44.35    3.75
  -3  -7  -8   39.05    3.86
  -3  -7  -8   46.10    4.05
  -5   5  -1  202.32   10.60
  -5   5  -1  202.24    9.58
  -5   5  -1  202.01   10.24
  -5  -7  -4   55.73    4.32
   5   7   4   67.19    5.86
   5   7   4   63.14    4.58
   5   7   4   65.34    4.87
   5   7   4   51.94    5.52
  -5  -7  -4   60.51    4.24
   5   7   4   62.49    4.50
   5   7   4   57.44    4.26
   7   2   2   36.27    3.12
   7   2   2   35.04    4.85
   7   2   2   31.44    2.44
   7   2   2   26.65    2.75
   7   2   2   22.69    1.19
  -7  -2  -2   31.21    3.29
   7   2   2   33.54    2.40
  -7  -2  -2   31.21    4.80
  -6   0   4  151.01    8.15
   6   0  -4  144.65    6.51
  -6   0   4  151.75    8.65
   6   0  -4  146.75    8.25
  -6   0   4  134.97    6.16
  -5   5   1  137.45    8.27
  -5   5   1  150.00    7.41
  -5   5   1  137.62    6.28
  -5   5   1  148.44    8.30
   2  -2 -10  158.61    7.22
  -2   2  10  157.36    7.93
  -2   2  10  164.66    7.27
  -2   2  10  151.82    7.21
   4   7   7   14.76    4.30
   4   7   7   14.27    3.08
   4   7   7    7.55    3.09
   4   7   7   12.61    2.60
   4   7   7   12.97    2.14
  -4  -7  -7   14.54    3.26
   0   8   6  276.63   11.46
   0   8   6  257.53   11.54
   0  -8  -6  223.70    9.24
   0  -8  -6  223.59    9.21
  -4   6   3  247.80   11.59
  -4   6   3  239.36    9.90
   4  -6  -3  250.81   10.34
  -4   6   3  242.50   10.81
  -4   5  -5    3.26    2.28
   4  -5   5    1.57    2.37
   4  -5   5    3.23    2.88
   4  -5   5    7.49    2.78
  -4   5  -5    3.21    3.77
  -6  -1   4  203.44   10.46
   6   1  -4  217.52   10.39
  -6  -1   4  196.94   10.05
   6   1  -4  197.32    8.31
   6   1  -4  211.80    8.70
  -6   2   3    2.92    4.56
  -6   2   3    5.17    1.89
  -6   2   3    4.85    4.05
  -6   2   3    9.41    2.38
   3   3  -8    0.98    2.52
  -3  -3   8    1.07    3.13
  -3  -3   8    5.87    4.18
  -3  -3   8    1.40    1.54
   5   6   7   32.23    2.92
  -5  -6  -7   31.85    3.32
   5   6   7   36.34    3.53
  -5  -6  -7   28.51    3.45
   5   6   7   33.68    3.79
   5   6   7   36.83    4.01
   5   6   7   31.85    3.31
  -5  -6  -7   31.93    3.66
   6  -2   5    4.05    3.77
  -6   2  -5    1.55    0.61
  -6   2  -5    0.54    3.10
  -6   2  -5    1.91    4.16
  -6   2  -5    0.77    0.57
  -6   2  -5    3.98    2.05
   6  -2   5    9.75    3.88
   6  -2   5   -0.23    3.10
  -7  -1  -1    4.09    2.49
   7   1   1   -0.42    2.49
   7   1   1    2.65    3.97
   7   1   1    2.60    1.68
  -7  -1  -1   -1.72    4.21
  -7  -2  -3    5.72    4.24
   7   2   3    6.93    4.31
   7   2   3    6.61    2.27
   7   2   3    8.02    1.92
   7   2   3    6.24    1.86
  -7  -2  -3    6.77    2.77
   7   2   3    6.82    2.75
  -7  -2  -3    9.06    2.36
  -2   0  10    4.06    3.63
   2   0 -10    0.15    2.26
  -2   0  10    1.54    2.09
  -3   6   6   40.52    2.73
   3  -6  -6   45.04    3.45
  -3   6   6   41.80    3.35
  -7  -1  -3  370.60   16.87
  -7  -1  -3  364.29   15.54
   7   1   3  373.10   15.16
   7   1   3  356.23   14.26
   7   1   3  379.41   16.74
  -7  -1  -3  372.82   14.90
   7   1   3  359.45   14.04
   4   0  -8  120.11    5.76
   4   0  -8  107.08    5.26
  -4   0   8  106.53    5.72
  -4   0   8  103.68    6.32
   4   0  -8  120.71    6.76
  -6   0  -7  182.84   10.16
  -6   0  -7  188.75    9.33
  -6   0  -7  190.64    8.05
  -6   0  -7  199.24    8.67
   6   0   7  196.11    9.45
   6   0   7  195.48   10.41
   6   0   7  192.13   10.07
  -4   1   8   15.15    3.35
   4  -1  -8    7.48    2.63
   4  -1  -8    6.32    3.76
   4  -1  -8    8.28    1.92
  -4   1   8    8.78    4.12
  -4   1   8    7.34    2.53
  -4   1   8    8.20    1.72
   2   8  -2  126.77    5.92
   2   8  -2   82.01    3.90
  -2  -8   2  110.86    6.58
   7   2   1   86.01    3.93
   7   2   1   74.18    6.22
  -7  -2  -1   72.88    4.50
  -7  -2  -1   78.97    6.31
   7   2   1   79.02    6.36
  -7  -2  -1   78.79    6.54
   7   2   1   78.35    3.43
   7   2   1   72.36    6.71
   7   2   1   80.46    4.52
   7   2   1   82.44    4.08
   7   2   1   66.27    4.32
   7   2   1   77.76    4.13
  -6   3  -3   61.82    5.71
  -6   3  -3   57.15    4.58
   6  -3   3   60.94    4.38
  -6   3  -3   60.80    3.30
   6  -3   3   63.22    5.26
  -6   3  -3   68.49    6.04
   5  -2  -6    6.36    2.49
  -5   2   6    5.35    1.96
  -5   2   6   10.31    3.73
  -5   2   6    6.51    2.27
   5  -2  -6    3.61    3.99
  -2   0 -11   71.60    4.10
   2   0  11   71.28    5.05
  -2   0 -11   70.03    4.77
   2   0  11   76.48    5.31
   0   3  11   16.60    3.04
   0   3  11   17.69    2.95
   0   3  11   14.68    2.69
   0  -3 -11   21.18    3.01
   0  -3 -11   17.31    2.94
   0  -3 -11   19.81    3.16
   4   4  10  233.83    9.44
   4   4  10  232.30   11.54
   4   4  10  224.53   10.02
   4   4  10  214.61   10.06
  -4  -4 -10  232.03   10.24
   3   8   6   70.12    4.85
   3   8   6   75.90    4.87
   4   7  -2   13.95    3.56
   4   7  -2   16.05    3.54
  -4  -7   2   15.13    4.15
   4   7  -2   17.87    3.53
   5   2  -6   95.85    6.50
  -5  -2   6   88.10    5.79
  -5  -2   6   92.45    6.48
   5   2  -6   95.60    4.99
  -6  -4  -7  228.63    9.99
   6   4   7  243.79   10.63
  -6  -4  -7  243.50   10.89
  -6  -4  -7  251.56   10.48
   6   4   7  264.06   11.51
  -6  -4  -7  249.47   10.76
   6   4   7  243.73    9.69
   6   4   7  238.43   10.26
  -2   7   6  168.47    7.88
  -2   7   6  188.92    8.04
   2  -7  -6  185.43    8.42
   0   0 -11   67.75    4.41
   0   0 -11   67.62    4.27
   0   0  11   67.85    4.93
   0   0 -11   70.94    4.31
   0   0  11   67.97    4.55
   5   7   1   53.28    5.17
   5   7   1   44.30    4.23
   5   7   1   42.97    3.34
   5   7   1   46.00    3.99
   5   7   1   47.31    5.23
  -5  -7  -1   41.22    4.74
   5   7   1   46.87    4.72
  -3  -1   9   19.53    1.72
  -3  -1   9   26.18    4.38
   3   1  -9   28.10    3.06
  -3  -1   9   25.16    3.05
  -3  -2 -11   85.21    4.95
  -3  -2 -11   92.08    4.65
   3   2  11   92.64    6.44
  -3  -2 -11   85.81    5.42
   3   2  11   93.31    5.87
   3   2  11   89.62    5.22
   3   2  11   91.77    4.73
  -4  -8  -3  120.40    6.75
   4   8   3  113.52    5.85
   4   8   3  129.55    5.95
   4   8   3  105.31    5.11
   4   8   3  122.38    6.53
  -4  -8  -3  121.22    6.44
  -4  -8  -3  121.64    6.50
   5   6  -2  312.57   13.67
   5   6  -2  348.19   14.49
   5   6  -2  342.32   14.51
   5   6  -2  388.80   15.08
  -5  -6   2  358.90   15.97
   5   6  -2  371.03   15.39
   5   6  -2  395.46   15.33
   1  -8  -5   93.95    5.29
  -1   8   5   90.40    5.26
  -1   8   5   98.43    5.18
  -4   0 -10  210.54    8.87
   4   0  10  225.36   10.85
   4   0  10  216.67   10.51
  -4   0 -10  217.73    9.64
  -4  -3   7   68.18    5.54
  -4  -3   7   75.05    4.52
  -4  -3   7   77.59    6.12
   4   3  -7   73.47    4.33
  -2  -6   6  186.82    7.83
   2   6  -6  259.98   10.88
   2   6  -6  289.45   11.27
   6   5   6    8.80    4.62
  -6  -5  -6   11.82    3.02
  -6  -5  -6   10.72    2.95
   6   5   6   10.00    4.85
  -6  -5  -6   10.07    2.64
   6   5   6    9.86    2.66
   6   5   6    8.35    2.60
   6   5   6    8.24    3.84
   6   5   6   13.47    3.28
   4  -3   8   17.17    3.79
  -4   3  -8   14.16    3.92
   4  -3   8   12.21    3.30
   4  -3   8   17.50    3.72
   4  -3   8   20.18    3.06
  -4   3  -8   14.92    2.20
  -4   3  -8   14.53    3.57
  -3  -8   1   74.81    5.56
   3   8  -1   70.72    4.85
   3   8  -1   53.45    2.99
  -4  -8  -2    0.51    3.54
  -4  -8  -2    4.14    3.04
   4   8   2    8.79    3.94
   4   8   2    4.96    3.12
   4   8   2   -2.82    3.61
   4   8   2   -0.56    3.98
  -7   0  -2  240.24   10.63
  -7   0  -2  229.40    9.56
  -7   0  -2  238.96   12.02
   7   0   2  224.93   11.63
  -7   0  -2  231.19   11.98
   7   0   2  228.56   10.14
   0   7  -5  113.28    6.26
   0   7  -5   90.81    5.19
  -5  -4  -9  248.39   11.16
  -5  -4  -9  237.88   10.63
   5   4   9  233.54   10.69
   5   4   9  247.87   10.70
   5   4   9  241.58   12.36
  -5  -4  -9  251.95   11.06
   5   4   9  246.57   11.54
   5   4   9  247.00    9.93
  -5   5  -2   43.72    3.88
  -5   5  -2   42.51    4.91
  -5   5  -2   33.98    4.95
   4   6  -4   55.63    3.31
   4   6  -4   83.51    4.25
  -4  -6   4   74.36    5.19
  -4  -6   4   91.03    6.21
  -1  -2  10   19.85    1.96
  -1  -2  10   28.03    2.68
   1   2 -10   26.93    2.80
   1   2 -10   25.35    3.01
  -1  -2  10   27.16    4.29
   1   2 -10   32.10    3.59
  -1  -4 -11   25.58    3.26
   1   4  11   18.19    2.68
   1   4  11   16.71    2.12
   1   4  11   21.81    2.76
   1   4  11   22.27    3.48
  -1  -4 -11   22.33    3.12
   6  -1  -4   75.40    5.91
  -6   1   4   69.67    3.86
  -6   1   4   65.44    3.73
  -6   1   4   75.34    5.83
   6  -1  -4   62.88    3.86
   7   0   1  119.99    5.21
   7   0   1  113.31    6.69
   7   0   1  127.67    7.23
  -7   0  -1  118.96    6.30
  -7   0  -1  122.23    7.92
  -2  -4 -11   23.91    3.18
  -2  -4 -11   31.36    3.40
   2   4  11   34.76    2.94
   2   4  11   29.00    3.01
  -2  -4 -11   36.11    3.55
   5  -5  -2  126.15    5.37
  -5   5   2  143.65    7.78
  -5   5   2  143.65    5.54
  -5   5   2  141.73    6.56
   5   7   5  306.07   13.40
   5   7   5  308.50   14.69
   5   7   5  313.27   13.56
   5   7   5  305.15   13.46
  -5  -7  -5  293.92   12.86
  -5  -7  -5  301.52   12.64
   5   7   5  332.86   13.42
  -3   7  -2   33.33    4.35
  -3   7  -2   30.31    3.19
  -3   7  -2   29.94    3.78
   3  -7   2   29.51    3.11
   7   2   4   50.92    4.12
   7   2   4   53.35    3.30
  -7  -2  -4   54.78    4.23
  -7  -2  -4   52.29    5.65
   7   2   4   53.39    2.98
  -7  -2  -4   55.35    3.71
  -2   8   1  121.23    6.48
  -2   8   1  122.46    6.24
   7   1   0   68.71    5.76
   7   1   0   69.19    4.01
   7   1   0   60.71    2.96
  -7  -1   0   72.16    4.29
  -7  -1   0   63.34    6.32
   7   1   0   67.36    3.11
  -7  -1   0   71.96    6.07
   7   1   0   70.50    3.55
   4   8   4  293.92   11.77
  -4  -8  -4  293.62   12.77
   4   8   4  298.62   10.95
  -4  -8  -4  296.49   12.67
   4   8   4  284.33   10.61
   7   3   2  747.53   31.01
   7   3   2  812.20   30.01
   7   3   2  763.36   29.84
  -7  -3  -2  759.39   31.15
   7   3   2  709.31   29.80
   7   3   2  755.03   30.22
  -7  -3  -2  753.39   29.66
   7   3   2  778.33   29.26
   7   3   2  786.24   31.95
   7   3   2  790.74   31.55
   2  -6   6   26.10    2.75
  -2   6  -6   31.74    3.74
  -2   6  -6   29.07    3.59
  -1   8  -2  283.99   11.56
   1  -8   2  275.71   11.06
   1  -8   2  274.29   11.71
  -1   8  -2  239.69   11.72
  -3  -3 -11  220.82    9.80
   3   3  11  203.85    8.63
   3   3  11  199.55    9.76
   3   3  11  198.79   10.37
  -3  -3 -11  200.39    9.30
   3   3  11  200.61    9.14
  -5   4  -5   64.05    3.41
   5  -4   5   74.19    5.37
  -5   4  -5   69.77    5.16
  -2   8   2  164.42    7.37
  -2   8   2  157.71    7.52
  -2   8   2  145.34    7.72
   2  -8  -2  170.63    7.78
  -3   4  -8   42.51    4.38
  -3   4  -8   42.79    3.05
   3  -4   8   43.53    3.58
   3  -4   8   43.76    3.96
  -3   4  -8   42.09    4.34
   3  -4   8   39.63    3.93
  -5   0  -9  137.16    5.82
   5   0   9  130.33    8.11
   5   0   9  136.59    8.03
  -5   0  -9  139.31    8.06
  -5   0  -9  134.70    6.76
  -5   0  -9  135.09    6.26
  -3  -1 -11    2.45    2.24
   3   1  11    2.23    3.74
   3   1  11    5.09    3.27
  -3  -1 -11    3.62    2.96
   3   1  11    4.27    2.67
  -3   3  -9  372.49   15.31
  -3   3  -9  367.75   14.34
  -3   3  -9  358.62   15.48
  -3   3  -9  340.68   14.11
   3  -3   9  348.14   15.47
   3  -3   9  355.29   15.14
   3  -3   9  386.57   15.34
   7   3   3  155.86    6.47
   7   3   3  186.91    9.47
   7   3   3  178.05    8.04
   7   3   3  177.85    7.39
   7   3   3  168.56    7.37
  -7  -3  -3  177.29    9.73
   7   3   3  168.55    7.32
  -7  -3  -3  174.59    8.13
   7   3   3  168.79    8.83
   7   3   3  180.07    7.53
   7   3   3  175.69    9.90
   6   5  -1   63.20    5.57
  -6  -5   1   66.83    5.38
   6   5  -1   55.23    3.40
   6   5  -1   66.11    4.21
   6   5  -1   63.75    5.82
   6   5  -1   59.38    4.19
   6   5  -1   58.16    4.21
   6   5  -1   63.29    5.26
   6   2  -4   98.77    7.03
  -6  -2   4   97.52    6.85
   6   2  -4  106.82    5.11
   6   2  -4  104.71    5.00
  -6  -2   4  100.26    6.50
   6  -3  -2   40.38    1.94
  -6   3   2   62.51    5.88
  -6   3   2   63.67    3.38
  -6   3   2   61.40    4.22
  -6   3   2   61.57    6.10
   1   7  -5    2.04    1.19
   1   7  -5   -3.58    2.81
   1   7  -5   -0.04    2.25
   1   7  -5    0.48    1.13
   1   7  -5    0.66    3.15
  -1  -7   5    6.06    3.88
  -7  -1  -4  139.94    7.26
  -7  -1  -4  142.05    6.56
   7   1   4  142.51    7.25
   7   1   4  145.72    8.85
  -4  -1   8  102.05    6.84
   4   1  -8  111.08    6.76
  -4  -1   8  100.90    5.88
   4   1  -8  108.53    5.54
  -4  -1   8  102.10    6.61
  -3   6  -5   14.87    3.84
   3  -6   5   18.23    2.62
  -3   6  -5   16.14    2.84
  -3   6  -5   21.74    3.65
   4  -2   9  115.10    7.05
   4  -2   9  117.93    6.15
   4  -2   9  116.10    6.83
  -4   2  -9  127.43    6.89
  -4   2  -9  109.41    6.36
  -4   2  -9  120.93    5.69
   4  -2   9  109.30    6.46
  -4   2  -9  115.02    4.94
  -2   7  -4   53.60    4.62
   2  -7   4   59.59    3.64
  -2   7  -4   57.18    4.08
  -7   0  -3  562.27   22.32
  -7   0  -3  572.10   23.27
   7   0   3  542.18   21.40
   7   0   3  547.51   19.91
  -7   0  -3  598.10   24.51
   2   8   7   13.13    2.98
   2   8   7   19.61    3.19
  -1  -8  -7   41.99    2.60
  -1  -8  -7   48.20    4.02
   1   8   7   43.80    3.79
   1   8   7   50.03    3.88
   0   5  -8  110.49    5.69
   0   5  -8  101.57    5.66
   0   5  -8   99.40    5.73
   6   6   3    0.40    2.56
   6   6   3    2.03    3.86
   6   6   3    2.08    2.89
   6   6   3    0.50    4.09
   6   6   3   -1.51    4.24
   4  -2  -8   40.70    3.51
  -4   2   8   43.89    3.34
   4  -2  -8   41.50    4.53
  -4   2   8   43.93    5.02
   4  -2  -8   38.20    2.59
   7   2   0  234.99    9.25
   7   2   0  240.24    9.57
   7   2   0  224.39   11.44
  -7  -2   0  224.20    9.72
   7   2   0  225.38   11.89
  -7  -2   0  228.55   11.49
   7   2   0  227.57    9.83
  -7  -2   0  233.44   11.68
   7   2   0  220.84    9.66
  -3   7   4   90.00    4.70
   3  -7  -4   92.37    4.99
   2   3  -9   22.55    3.37
  -2  -3   9   20.50    4.43
  -2  -3   9   18.28    1.99
   2   3  -9   17.81    2.14
   0   4  -9   15.06    3.19
   0   4  -9   17.35    3.04
   0   4  -9   13.36    2.71
   0  -4   9   20.44    2.87
   4  -4   7  442.44   19.45
   4  -4   7  503.70   19.51
   4  -4   7  469.68   19.20
  -4   4  -7  488.58   20.31
  -4   4  -7  469.97   20.15
  -2   3  10    8.96    2.57
   2  -3 -10   10.86    2.45
  -2   3  10   11.55    2.63
   3  -3  -9   13.35    2.22
  -3   3   9    9.53    2.38
   3  -3  -9   14.69    2.97
  -3   3   9   13.59    2.67
   3  -3  -9   10.13    3.32
  -2   8   0  243.72   10.05
   2  -8   0  225.78    9.91
  -2   8   0  207.33    9.98
  -1   4  -9  108.27    6.28
   1  -4   9  123.05    6.39
  -1   4  -9  117.32    6.30
  -1   4  -9  118.87    5.75
   6   6   2   -2.27    4.05
   6   6   2    2.38    4.00
   6   6   2    1.80    2.57
   6   6   2    0.73    2.86
   6   6   2    1.33    3.94
  -4   6  -3   45.16    5.09
  -4   6  -3   50.34    4.70
   4  -6   3   49.36    3.26
  -4   6  -3   51.68    3.30
   4   8   1  163.06    8.17
   4   8   1  156.85    8.09
  -4  -8  -1  164.20    8.53
   4   8   1  158.99    8.64
   4   8   1  169.20    8.68
   7   3   1  772.60   29.79
  -7  -3  -1  771.72   31.33
   7   3   1  796.48   29.84
   7   3   1  806.08   31.95
   7   3   1  691.99   29.73
   7   3   1  765.57   31.34
   7   3   1  777.94   29.27
  -7  -3  -1  759.26   31.38
   7   3   1  763.35   29.95
  -7  -3  -1  756.32   29.70
   7   0   0    6.76    1.34
  -7   0   0    8.65    2.71
  -7   0   0    5.23    4.27
   7   0   0   11.13    2.47
  -1   5  -8  315.63   12.70
  -1   5  -8  285.76   13.21
   1  -5   8  296.06   10.61
   1  -5   8  211.12    9.64
  -6  -6  -4   22.28    3.29
   6   6   4   23.39    3.09
   6   6   4   16.84    4.66
   6   6   4   17.46    4.84
   6   6   4   21.04    4.22
   6   6   4   18.84    3.12
  -2  -1  10   30.35    4.45
  -2  -1  10   29.42    2.61
   2   1 -10   32.56    3.75
  -2   8   3   49.29    3.84
  -2   8   3   47.96    3.70
   2  -8  -3   45.24    3.65
  -6  -2  -8  120.74    6.03
   6   2   8  123.59    8.29
  -6  -2  -8  125.69    7.93
  -6  -2  -8  127.09    6.39
  -6  -2  -8  128.34    6.93
   6   2   8  125.43    8.06
   7   3   4  114.39    5.69
   7   3   4  129.07    7.85
   7   3   4  116.65    5.51
  -7  -3  -4  120.62    7.79
  -7  -3  -4  119.90    6.25
  -7  -3  -4  115.23    5.94
   7   3   4  117.85    6.45
   1   8  -3   25.74    3.34
  -1  -8   3   27.10    4.13
   1   8  -3   32.73    3.80
   4  -4  -7   19.76    4.06
  -4   4   7   26.59    2.85
   4  -4  -7   24.40    2.80
  -1   1 -11  162.23    7.94
   1  -1  11  163.66    8.10
   1  -1  11  171.27    7.95
  -1   1 -11  165.88    7.89
  -1   1 -11  171.00    7.57
   0   8  -3   77.31    5.00
   0   8  -3   65.79    4.83
  -4   6   4   31.06    4.83
  -4   6   4   36.25    2.45
  -4   6   4   40.31    3.13
   4  -6  -4   36.38    3.02
  -2   6   8  184.32    8.17
  -2   6   8  189.34    8.28
   2  -6  -8  189.66    8.40
   2  -6  -8  186.32    8.60
   2  -6  -8  188.00    8.16
  -1   6   9   49.38    3.52
   1  -6  -9   53.88    4.14
   1  -6  -9   48.01    3.93
   5   4  -5  173.74    7.79
  -5  -4   5  167.37    8.85
  -5  -4   5  171.47    8.27
   5   7   0  342.78   14.48
   5   7   0  345.36   15.17
   5   7   0  345.39   14.51
  -5  -7   0  330.66   14.77
   5   7   0  308.06   13.74
   5   7   0  340.81   14.91
   5   7   0  344.77   14.39
   2  -5  -9    2.15    2.50
  -2   5   9    6.14    2.17
  -2   5   9    5.81    2.55
   2  -5  -9    4.75    2.38
   2  -5  -9    4.45    2.75
  -1   7  -5  218.24   10.26
   1  -7   5  258.63   10.74
  -1   7  -5  239.02   10.86
  -1   7  -5  255.02   10.49
  -2  -6 -10   71.96    4.92
  -2  -6 -10   61.28    4.05
   2   6  10   68.00    4.40
   2   6  10   67.17    4.09
   2   6  10   70.15    4.90
   4   6   9    4.30    2.33
   4   6   9    9.89    2.38
   4   6   9    5.58    4.28
   4   6   9    9.49    2.41
  -4  -6  -9   10.53    3.19
  -6   3  -4   10.97    3.41
   6  -3   4   16.56    3.26
  -6   3  -4   16.05    4.60
  -6   3  -4   15.15    2.12
   6  -3   4   12.94    4.03
   1  -1 -11    1.62    2.64
  -1   1  11    5.86    3.60
   1  -1 -11    4.77    2.58
   1  -1 -11    5.66    3.03
  -1   1  11    4.92    2.53
  -4  -8  -5  201.16    9.03
   4   8   5  210.70    8.75
  -4  -8  -5  183.32    9.03
   4   8   5  198.60    9.64
   4   8   5  188.70    8.43
  -1  -9  -2    4.76    3.09
  -1  -9  -2    2.22    2.97
   1   9   2    0.52    3.41
  -1  -9  -2    6.67    3.28
   1   9   2    6.17    3.04
   1   6  10  308.12   12.85
  -1  -6 -10  267.21   11.64
  -1  -6 -10  273.65   12.13
   1   6  10  284.71   12.47
   1   6  10  291.45   12.18
  -1  -6 -10  299.81   12.29
  -5  -5   4   78.23    5.88
  -5  -5   4   88.18    5.25
   5   5  -4   79.20    5.20
  -5  -5   4   77.27    6.47
   5   5  -4   90.58    5.25
  -1  -9  -3    8.94    3.16
   1   9   3    9.29    3.18
  -1  -9  -3    6.99    3.24
  -1  -9  -3    6.04    2.94
   1   9   3    2.93    3.25
   1  -2 -11    5.95    2.48
  -1   2  11    0.58    3.33
   1  -2 -11    5.95    2.99
   1  -2 -11    3.65    2.70
   1  -2 -11    6.71    2.62
   4  -5  -6   38.05    3.20
  -4   5   6   37.20    3.05
  -4   5   6   34.13    2.30
  -4   5   6   41.03    4.93
   6   3   8   51.70    3.98
  -6  -3  -8   41.95    2.88
   6   3   8   45.33    2.51
   6   3   8   49.68    5.97
  -6  -3  -8   48.73    3.62
   6   3   8   49.33    5.71
  -6  -3  -8   43.95    4.08
   6   3   8   49.69    4.81
  -6  -3  -8   47.71    3.90
   6   3   8   46.77    3.67
   2   7   9  321.03   13.92
   2   7   9  321.74   13.50
   2   7   9  349.24   14.23
  -2  -7  -9  331.47   13.86
  -2  -7  -9  313.86   13.04
  -5   5  -3   23.75    3.49
  -5   5  -3   13.74    1.42
   5  -5   3   16.06    2.17
  -5   5  -3   21.01    4.51
   5  -5   3   20.53    3.56
  -5   5  -3   21.17    4.51
   6   6   1   27.84    4.74
   6   6   1   21.82    2.68
   6   6   1   21.49    3.18
   6   6   1   21.12    3.37
   6   6   1   22.55    3.30
   6   6   1   21.32    4.51
   6   6   1   25.47    4.47
  -3   5  -7   26.06    3.78
   3  -5   7   29.21    3.11
   3  -5   7   29.40    3.53
   3  -5   7   30.60    3.07
  -3   5  -7   22.10    3.99
  -7   0  -4  162.67    7.20
   7   0   4  149.17    7.78
   7   0   4  160.62    9.13
   7   0   4  168.09    9.26
  -7   0  -4  159.84    8.14
   6   1   8   75.58    6.20
   6   1   8   74.11    5.43
   6   1   8   70.92    6.47
  -6  -1  -8   75.72    6.36
  -6  -1  -8   69.43    4.06
  -6  -1  -8   73.36    4.55
   0   4  11   48.28    3.54
   0  -4 -11   42.45    3.68
   0  -4 -11   40.04    3.86
   0  -4 -11   47.65    3.71
   0   4  11   43.31    3.92
   3   7  -4  308.59   12.16
  -3  -7   4  336.26   14.99
   3   7  -4  286.29   12.22
   7   2   5  172.01    8.40
  -7  -2  -5  162.93    7.74
   7   2   5  170.61    7.60
  -7  -2  -5  166.34    8.25
   7   2   5  167.20    9.78
  -7  -2  -5  172.22    7.37
   1   7   9   24.84    3.10
  -1  -7  -9   23.56    3.58
  -1  -7  -9   27.92    3.63
   1   7   9   30.42    3.58
  -1  -7  -9   25.20    2.69
  -1  -5   8   38.22    3.01
   1   5  -8   40.64    3.64
  -1  -5   8   48.27    5.05
   1   5  -8   49.39    3.90
  -3   2 -10  194.03    8.12
  -3   2 -10  169.96    9.01
   3  -2  10  200.00    9.20
   3  -2  10  186.11    9.24
   3  -2  10  192.76    8.94
  -3   2 -10  191.36    8.64
   7   1  -1  160.97    8.18
   7   1  -1  152.30    6.04
   7   1  -1  154.92    5.76
  -7  -1   1  155.28    7.16
   7   1  -1  160.96    6.25
  -7  -1   1  159.63    9.07
  -7  -1   1  158.76    9.34
   7   1  -1  156.53    8.62
   5  -5  -3  138.88    6.01
  -5   5   3  133.26    7.18
  -5   5   3  134.84    5.60
  -5   5   3  143.49    4.67
  -5   2  -8   65.97    4.14
   5  -2   8   60.89    5.43
  -5   2  -8   60.34    3.22
  -5   2  -8   60.96    5.63
   5  -2   8   62.44    5.29
   5  -2   8   60.19    4.38
   3   4  11  232.62   11.49
  -3  -4 -11  230.45   10.38
  -3  -4 -11  238.78   10.64
   3   4  11  242.51   10.89
   3   4  11  215.67   10.08
   3   4  11  234.87    9.71
   1   9   1   68.78    5.03
  -1  -9  -1   69.04    4.95
  -1  -9  -1   78.31    5.03
   0   6  -7  182.11    8.29
   0   6  -7  199.13    8.44
   0  -1  11   20.31    3.17
   0  -1  11   27.16    3.16
   0  -1  11   27.49    4.14
   0   1 -11   23.12    3.06
   0   1 -11   27.05    3.04
   0   1 -11   25.54    2.99
  -2  -9  -3    1.42    3.12
  -2  -9  -3   -0.38    3.08
   2   9   3    5.37    3.18
   2   9   3   -0.07    3.33
  -5  -7  -6   38.71    3.81
   5   7   6   35.64    4.04
   5   7   6   37.07    3.77
  -5  -7  -6   38.42    3.99
   5   7   6   44.03    3.92
   5   7   6   39.66    5.46
   5   7   6   34.79    3.96
   5   7   6   43.28    2.95
  -2  -9  -2   20.46    3.42
   2   9   2   15.89    3.68
   2   9   2   15.45    3.39
  -2  -9  -2   17.49    3.54
   3   0  11   46.62    4.49
  -3   0 -11   45.36    3.99
   3   0  11   47.71    4.89
  -3   0 -11   48.18    4.27
  -3   0 -11   48.33    3.35
  -2   8  -1   44.87    4.24
  -2   8  -1   40.75    3.64
   2  -8   1   40.48    3.73
   2  -8   1   41.84    2.83
  -1   3 -10  108.54    5.42
  -1   3 -10   96.93    5.84
   1  -3  10  107.67    5.84
  -1   3 -10  110.22    6.03
   1  -3  10  101.90    4.81
   7  -1   1  138.53    6.73
  -7   1  -1  148.69    8.47
  -7   1  -1  152.86    6.90
  -7   1  -1  150.81    8.63
   7  -1   1  129.35    8.26
   7  -1   2  279.40   12.27
   7  -1   2  295.98   13.77
  -7   1  -2  299.46   12.27
  -7   1  -2  308.67   13.50
   5  -3   7    8.01    3.63
   5  -3   7    8.60    3.69
   5  -3   7    6.48    2.75
  -5   3  -7   10.55    2.40
  -5   3  -7    5.61    1.71
  -5   3  -7    7.77    4.14
   1  -5 -10   39.40    3.60
   1  -5 -10   43.45    3.80
  -1   5  10   48.15    3.82
  -1   5  10   44.48    3.35
   1  -5 -10   42.80    3.58
   7   3   0  498.44   19.46
   7   3   0  443.08   19.49
   7   3   0  489.82   19.54
   7   3   0  494.86   20.89
  -7  -3   0  485.41   19.27
  -7  -3   0  503.66   21.15
  -7  -3   0  479.90   21.16
   7   3   0  518.57   19.52
   7   3   0  482.59   21.44
   7   3   0  497.42   19.05
   7   3   0  493.93   21.07
   7   1   5  228.21   11.78
  -7  -1  -5  235.15    9.45
  -7  -1  -5  228.51    9.95
   7   1   5  240.52   11.66
  -7  -1  -5  226.05   10.62
   7   1   5  215.34   10.36
  -2   1 -11   31.31    2.99
   2  -1  11   29.41    3.68
   2  -1  11   29.58    3.37
   2  -1  11   32.01    3.87
  -2   1 -11   27.34    3.61
   6  -1   7   49.74    4.39
  -6   1  -7   47.41    3.52
   6  -1   7   52.27    5.33
   6  -1   7   47.15    5.33
  -6   1  -7   53.10    5.55
  -6   1  -7   49.26    3.46
  -6   1  -7   48.50    4.40
  -6   1  -7   46.91    2.74
  -6   1  -7   38.35    1.90
  -6  -6  -5   30.55    3.60
   6   6   5   34.47    5.34
   6   6   5   34.34    3.69
   6   6   5   32.91    3.51
   6   6   5   34.74    3.46
   6   6   5   36.58    5.58
   6   6   5   40.41    4.61
  -6  -4   3   17.89    4.37
   6   4  -3   18.98    2.95
   6   4  -3   17.15    2.56
   6   4  -3   27.78    4.30
  -6  -4   3   17.44    3.90
   6   4  -3   20.26    3.77
   6   4  -3   17.84    2.80
  -6   2   4   34.80    2.86
  -6   2   4   40.82    3.14
   6  -2  -4   30.33    4.87
  -6   2   4   39.91    5.10
   5  -4  -5    9.66    2.18
  -5   4   5   11.09    4.41
  -5   4   5   13.64    4.13
  -5   4   5   15.46    2.61
  -5   4   5   10.46    2.42
   3   8   7   20.40    3.25
   3   8   7   26.14    3.45
  -3  -2   9    4.50    3.44
   3   2  -9    1.68    2.62
  -3  -2   9    8.64    4.19
  -3  -2   9    0.84    2.32
  -3  -2   9    5.31    0.96
   0   3 -10  129.66    6.94
   0  -3  10  122.88    6.24
   0   3 -10  137.30    6.46
  -5   3   6   18.72    2.53
  -5   3   6   17.77    3.96
  -5   3   6   14.71    2.47
   5  -3  -6   15.00    4.38
   6  -2   6  208.71   10.60
  -6   2  -6  202.22    9.64
  -6   2  -6  203.69    7.48
   6  -2   6  217.33   10.63
   6  -2   6  207.08    9.97
  -6   2  -6  199.57    8.48
  -6   2  -6  216.18   10.55
   0  -8  -7  144.72    6.80
   0   8   7  150.81    6.94
   0  -8  -7  123.13    5.68
   0   8   7  134.91    6.93
   1   4  -9  134.33    6.86
   1   4  -9  157.36    6.97
  -1  -4   9  156.51    8.25
  -1  -4   9  141.41    6.57
   1   4  -9  148.12    7.27
  -1  -9  -4  141.78    6.89
   1   9   4  143.45    7.71
   1   9   4  165.19    7.78
  -1  -9  -4  152.68    7.40
   4   5  10  111.61    5.70
  -4  -5 -10  113.93    6.14
   4   5  10  108.51    7.54
   4   5  10  108.79    5.27
  -1   0  11   18.99    4.01
  -1   0  11   28.42    3.06
   1   0 -11   20.29    2.97
   1   0 -11   19.25    2.88
  -7   0   1    3.71    4.19
  -7   0   1    5.10    2.49
   7   0  -1    3.82    1.78
   7   2  -1  206.71    8.68
  -7  -2   1  192.36    8.40
   7   2  -1  189.52   10.80
   7   2  -1  205.34   10.44
  -7  -2   1  207.44   10.70
   7   2  -1  194.09    8.78
   7   2  -1  209.57    8.46
  -7  -2   1  202.76   10.51
   7   2  -1  212.19    8.56
  -4  -8   0   19.47    4.31
   4   8   0   20.90    4.04
   4   8   0   22.36    3.88
   4   8   0   16.45    3.36
   4   8   0   16.68    4.06
   1  -8  -6  104.37    5.72
  -1   8   6  111.26    5.56
  -1   8   6   99.41    5.58
  -1   7   8  144.03    6.68
   1  -7  -8   65.44    3.03
   1  -7  -8  140.68    5.36
  -1   7   8  130.38    6.52
  -5  -3   6  193.26    9.16
   5   3  -6  204.96   10.30
  -5  -3   6  195.80   10.21
   5   3  -6  203.55    8.86
  -5  -3   6  185.67    9.73
  -3   7  -3   25.06    4.26
  -3   7  -3   26.91    3.16
  -3   7  -3   25.04    4.07
   3  -7   3   27.34    3.08
   3  -7   3   28.36    2.78
  -4  -7  -8    1.49    3.02
   4   7   8    2.29    2.19
   4   7   8    0.78    3.12
   4   7   8    4.98    2.06
   0  -9  -2    3.62    3.25
   0  -9  -2    5.44    2.95
   0   9   2    7.70    2.98
   0   9   2    0.19    3.23
   6   5   7  117.53    5.28
   6   5   7  123.77    5.94
   6   5   7  128.67    6.97
  -6  -5  -7  124.17    6.47
   6   5   7  120.01    6.27
   6   5   7  125.30    6.36
  -6  -5  -7  121.77    6.21
   6   5   7  111.05    6.80
   6   5   7  121.23    8.44
  -6  -5  -7  110.88    5.83
  -3   5   8    6.55    2.56
   3  -5  -8    3.57    3.20
   3  -5  -8    6.10    2.26
  -3   5   8    1.31    1.86
   3  -5  -8    7.80    2.71
   7   4   3    1.99    4.64
   7   4   3    1.66    2.31
  -7  -4  -3    3.12    2.45
   7   4   3    1.79    4.29
   7   4   3   -0.20    2.87
   7   4   3   -1.57    2.58
  -7  -4  -3   -1.47    4.21
   7   4   3    1.78    4.13
  -2   8   4    3.88    2.57
  -2   8   4    6.98    2.71
   2  -8  -4    1.71    2.74
  -7  -3  -5  207.34    9.26
  -7  -3  -5  210.36    9.03
   7   3   5  212.42    9.78
   7   3   5  200.35    8.61
   7   3   5  206.51    8.99
  -7  -3  -5  201.05    9.54
  -7  -3  -5  212.39   11.05
   5   6   8    7.43    3.21
  -5  -6  -8    7.12    3.07
  -5  -6  -8    8.55    3.23
  -5  -6  -8    5.62    2.85
   5   6   8   10.54    2.81
   5   6   8    7.35    2.23
   5   6   8    5.52    2.81
   5   6   8    7.79    2.45
   2   7  -5  109.93    6.19
   2   7  -5  119.43    5.92
  -2  -7   5  128.23    7.55
  -5   0   7    5.75    3.63
  -5   0   7    2.37    0.78
   5   0  -7    5.75    1.68
   5   0  -7    5.47    2.59
  -5   0   7    3.49    0.76
  -5   0   7    4.84    4.14
   5   0  -7    4.55    4.22
   7   4   2   77.77    6.22
  -7  -4  -2   72.08    6.05
   7   4   2   68.81    4.53
   7   4   2   76.17    5.99
   7   4   2   63.20    4.49
   7   4   2   71.38    4.45
   7   4   2   76.33    4.34
   7   4   2   80.47    6.80
  -7  -4  -2   64.86    4.17
  -6   3   3   22.79    3.10
  -6   3   3   32.85    4.84
  -6   3   3   30.27    2.51
   6  -3  -3   25.99    1.94
  -6   3   3   26.34    5.30
  -2  -9  -4   21.35    3.51
  -2  -9  -4   18.18    3.24
   2   9   4   22.80    3.57
   2   9   4   23.78    3.75
  -2   4  -9   40.39    3.27
   2  -4   9   38.20    3.79
  -2   4  -9   41.18    4.10
   2  -4   9   41.22    3.49
  -2   4  -9   41.55    3.34
  -4   1 -10  196.56    8.71
   4  -1  10  193.11    9.52
   4  -1  10  178.06    9.16
   4  -1  10  186.16    8.78
  -4   1 -10  185.44    7.95
  -4   1 -10  174.80    9.10
  -3  -8   2   10.69    3.95
   3   8  -2    6.96    2.61
   3   8  -2   10.91    3.56
   3   8  -2    9.73    3.20
   3   8  -2    5.93    1.85
  -4  -2   8   42.20    5.17
  -4  -2   8   35.36    4.57
   4   2  -8   33.09    3.22
  -4  -2   8   35.43    3.58
   6   3  -4    3.64    2.31
   6   3  -4    4.14    4.53
  -6  -3   4    5.61    4.21
  -6  -3   4    3.42    3.66
  -5  -5  -9  176.05    8.39
   5   5   9  166.30    7.11
   5   5   9  169.47    7.77
   5   5   9  164.81    7.96
  -5  -5  -9  164.93    8.09
   5   5   9  158.57    8.59
   5   5   9  166.99    9.56
  -2  -9  -1    1.97    3.36
   2   9   1   -1.99    3.47
  -2  -9  -1    1.33    3.34
  -7   1   0  253.04   12.83
   7  -1   0  226.44    9.90
  -7   1   0  261.13   12.69
  -7   1   0  253.64   11.30
   7  -1   0  227.40   11.55
  -1   6  -7   34.84    3.80
  -1   6  -7   35.90    3.65
   2   8  -3   41.37    2.85
   2   8  -3   56.48    4.40
  -2  -8   3   51.30    5.03
   2   8  -3   40.70    3.68
   2   8  -3   51.29    3.79
   0   9   3    4.84    3.15
   0   9   3    5.75    3.07
   0  -9  -3    4.49    3.01
  -1   3  11   14.80    3.00
   1  -3 -11   19.30    2.86
   1  -3 -11   19.06    3.27
  -1   3  11   15.95    3.31
  -7   1  -3    3.65    1.87
   7  -1   3   -1.17    4.46
   7  -1   3   -1.11    2.91
   7  -1   3    0.32    4.16
  -7   1  -3    1.09    3.00
  -7   1  -3    1.28    4.78
   0  -9  -1    4.23    3.25
   0   9   1    0.32    3.27
   4  -3  -8   65.44    3.52
   4  -3  -8   69.77    5.31
  -4   3   8   72.80    4.24
   1   6  -7    1.09    2.62
   1   6  -7    4.15    3.18
   1   6  -7    0.16    2.65
   3   6  10  100.97    5.79
   3   6  10  104.31    5.28
   3   6  10  119.43    6.49
  -3  -6 -10  107.19    6.12
  -3  -6 -10  109.68    6.31
  -5   1   7   70.09    6.09
  -5   1   7   67.02    5.32
  -5   1   7   74.73    4.05
  -5   1   7   57.51    3.31
   5  -1  -7   72.87    4.08
   5  -1  -7   77.79    5.71
  -6   4  -1   45.99    5.61
  -6   4  -1   46.83    2.74
  -6   4  -1   41.95    2.45
  -6   4  -1   41.74    3.97
  -6   4  -1   50.74    5.65
  -6   4   0  210.91    7.28
  -6   4   0  205.34    8.67
  -6   4   0  223.79   10.04
   4  -5   6   60.12    4.10
   4  -5   6   63.50    4.54
   4  -5   6   61.15    4.48
  -4   5  -6   55.51    4.92
  -4   5  -6   66.53    5.49
   1  -8   3  163.97    7.36
   1  -8   3  144.40    6.51
  -1   8  -3  137.74    7.50
  -1   8  -3  142.86    7.21
   4   7  -3   10.15    3.21
   4   7  -3    5.76    3.35
  -4  -7   3    7.92    4.27
   4   7  -3    6.84    3.14
  -3   7   5    7.93    2.19
   3  -7  -5   12.22    2.76
  -3   7   5    5.62    2.71
  -2  -5 -11   14.65    3.30
   2   5  11   15.65    3.46
   2   5  11   16.97    2.76
   2   5  11   12.87    2.84
  -2  -5 -11   16.49    3.30
  -2  -5 -11   13.23    2.80
   6   0  -5    1.48    4.32
  -6   0   5   -0.83    3.79
   6   0  -5    0.62    0.85
   6   0  -5    1.90    2.36
   6   0  -5    0.75    0.66
  -6   0   5   -2.59    4.69
  -6   0   5    1.24    1.44
   7   4   4   63.79    4.13
   7   4   4   63.72    4.03
   7   4   4   60.31    5.38
  -7  -4  -4   69.27    6.10
   7   4   4   72.44    4.84
   7   4   4   66.59    6.59
  -7  -4  -4   65.38    4.34
  -7  -4  -4   65.63    4.33
  -6  -4  -8  428.04   17.10
  -6  -4  -8  422.49   17.62
   6   4   8  449.01   17.32
   6   4   8  444.80   19.94
   6   4   8  444.66   18.29
  -6  -4  -8  450.02   17.53
   6   4   8  432.34   18.26
  -6  -4  -8  396.93   16.62
   6   4   8  455.55   19.05
  -6  -5   2   14.07    4.33
   6   5  -2   17.53    4.75
   6   5  -2   12.75    1.61
   6   5  -2   17.24    4.01
   6   5  -2   19.47    2.99
   6   5  -2   17.10    3.30
   6   5  -2   19.04    4.27
  -6  -5   2   16.60    3.91
   6   5  -2   16.80    3.02
  -1  -9   0    6.05    3.32
   1   9   0    1.88    3.34
  -1  -9   0    5.59    3.50
  -5   1  -9  100.29    5.58
  -5   1  -9  110.54    7.09
   5  -1   9   89.74    6.06
  -5   1  -9  102.69    4.69
   5  -1   9  105.86    6.71
   5  -1   9  102.09    6.90
  -3  -7  -9   39.75    3.95
   3   7   9   39.34    3.76
  -3  -7  -9   37.41    4.08
   3   7   9   39.74    3.33
   4   8   6   67.63    3.55
   4   8   6   79.08    6.17
   4   8   6   85.06    5.10
  -4  -8  -6   71.00    4.80
   4   8   6   74.79    4.94
  -4  -8  -6   67.24    4.91
   3   5  -7  284.37   10.16
   3   5  -7  200.72    8.92
  -3  -5   7  271.30   11.79
   2  -5   8   66.53    4.44
  -2   5  -8   61.03    4.34
   2  -5   8   58.79    3.70
   2  -5   8   63.88    4.11
  -2   5  -8   68.86    5.03
  -2   5  -8   70.97    4.19
  -1  -5 -11  199.07    8.94
  -1  -5 -11  178.68    8.56
   1   5  11  195.56    8.34
   1   5  11  176.25    8.50
   1   5  11  185.15    8.91
   5   2  10   31.92    3.60
   5   2  10   35.73    5.23
  -5  -2 -10   33.82    3.60
  -5  -2 -10   28.58    3.12
   5   6  -3   31.80    3.91
   5   6  -3   32.88    4.23
   5   6  -3   26.71    3.56
   5   6  -3   30.94    3.85
   5   6  -3   35.10    5.01
  -5  -6   3   32.81    5.04
   5   6  -3   21.12    1.91
   2  -7  -7  110.04    5.90
  -2   7   7  112.43    5.61
  -2   7   7  100.46    5.35
   6   6   0   14.44    2.37
   6   6   0   16.68    3.28
   6   6   0   14.45    2.96
   6   6   0   10.67    4.47
   6   6   0   13.42    4.30
   6   6   0   21.57    4.70
   6   6   0   12.85    3.38
  -3   6   7   61.01    3.86
   3  -6  -7   60.91    4.02
   3  -6  -7   49.45    4.39
  -3   6   7   56.06    3.44
   0   6  10   77.57    4.60
   0   6  10   76.50    4.99
   0  -6 -10   69.11    4.86
   0   6  10   77.59    4.50
   0  -6 -10   75.31    4.86
   0  -6 -10   73.15    4.37
  -5  -1   7    3.24    4.23
   5   1  -7    1.29    4.30
  -5  -1   7    2.86    3.52
   5   1  -7    3.18    2.57
   7   4   1  176.59    8.21
   7   4   1  179.77    7.59
   7   4   1  197.16    8.33
   7   4   1  188.96    9.76
   7   4   1  181.05    8.34
  -7  -4  -1  189.96   10.19
   7   4   1  183.33    8.34
   7   4   1  182.51    9.84
   7   4   1  191.47   10.59
  -6  -1   5    6.81    4.56
   6   1  -5   10.11    2.43
   6   1  -5    8.56    4.50
  -6  -1   5   10.01    3.87
   2  -4 -10   14.95    2.97
  -2   4  10   17.52    2.87
   2  -4 -10   14.03    2.72
  -2   4  10   16.48    2.83
  -4   6  -4   89.17    4.66
  -4   6  -4   83.12    6.30
   5   7  -1   29.45    4.70
   5   7  -1   28.65    3.52
  -5  -7   1   24.08    4.66
   5   7  -1   30.51    3.87
   5   7  -1   26.93    2.62
   5   7  -1   24.89    4.54
   5   7  -1   27.00    4.29
   6   0   8   87.71    6.96
  -6   0  -8   87.55    5.12
   6   0   8   96.66    6.12
  -6   0  -8   81.50    5.60
   6   0   8   94.49    6.76
  -6   0  -8   95.63    6.88
  -6   0  -8   87.79    4.48
  -2   3 -10   64.97    4.89
   2  -3  10   66.65    4.51
   2  -3  10   75.85    4.45
  -2   3 -10   71.64    4.17
   2  -3  10   65.48    4.83
   5   3  10   41.66    3.61
   5   3  10   34.67    2.69
   5   3  10   37.77    3.50
  -5  -3 -10   39.79    3.55
  -5  -3 -10   37.58    3.84
   5   3  10   38.95    5.43
   4   2  11    2.41    3.44
  -4  -2 -11    4.05    2.64
   4   2  11    1.70    2.81
  -4  -2 -11    3.50    3.07
   4   2  11    0.79    2.25
   4   2  11    1.98    4.04
  -4  -2 -11   -2.11    2.34
  -4  -2 -11    1.87    2.92
  -4  -5   6   56.92    4.67
  -6   4  -2   22.69    3.55
   6  -4   2   25.84    4.20
  -6   4  -2   21.06    1.98
  -6   4  -2   31.16    4.97
  -6   4  -2   24.96    4.99
  -7   0  -5   38.73    3.13
  -7   0  -5   40.86    5.49
   7   0   5   36.78    5.41
   7   0   5   32.00    5.18
  -7   0  -5   41.36    4.21
   7   0   5   43.28    3.95
   0  -7  -9    3.98    2.29
   0   7   9    5.44    2.50
   0  -7  -9    5.29    2.94
   0  -7  -9    9.88    3.16
  -6   4   1  296.32   13.31
  -6   4   1  317.92   14.57
  -6   4   1  309.46   12.26
   0  -9  -4    1.87    3.02
   0   9   4    0.78    2.97
   0   9   4    4.49    3.04
   1   9   5   19.97    3.50
  -1  -9  -5   16.54    3.52
   1   9   5   17.31    3.46
  -1  -9  -5   14.80    2.68
   3  -4  -9  208.43    9.32
   3  -4  -9  222.84    9.56
   3  -4  -9  204.65    9.00
  -3   4   9  214.89    9.31
  -5   4  -6   64.59    5.83
   5  -4   6   54.12    4.99
  -3  -4   8    0.85    4.40
  -3  -4   8    2.80    3.36
   3   4  -8    1.20    2.69
   3   4  -8    1.84    0.96
  -6   3  -5    4.93    2.14
   6  -3   5    3.79    3.78
   6  -3   5    3.86    3.14
  -6   3  -5    6.29    3.37
  -6   3  -5    2.83    4.25
   6  -3   5    1.96    4.00
   2   9   5   15.06    3.45
  -2  -9  -5   14.33    2.91
  -2  -9  -5   14.22    3.51
   2   9   5   20.07    3.52
  -2  -2  10   41.83    4.97
   2   2 -10   45.37    4.16
  -2  -2  10   41.16    2.79
  -2  -2  10   31.00    2.47
   0   9   0  181.84    8.73
   0  -9   0  188.48    8.82
   4   3  11   45.44    4.61
  -4  -3 -11   47.72    4.30
   4   3  11   51.19    5.47
   4   3  11   41.26    3.20
   4   3  11   43.07    3.80
  -4  -3 -11   45.90    3.86
   6  -1  -5   25.61    2.83
   6  -1  -5   29.54    4.95
  -6   1   5   20.55    2.36
  -6   1   5   24.85    2.62
  -6   1   5   16.80    5.04
  -6   1   5   21.86    4.45
  -6  -6  -6   51.43    3.99
  -6  -6  -6   57.73    4.42
  -6  -6  -6   57.69    4.39
   6   6   6   56.16    3.98
   6   6   6   50.83    4.95
   6   6   6   56.85    6.07
   6   6   6   50.09    4.08
   6   6   6   53.71    4.53
   6   6   6   49.09    6.25
   2  -8   2  372.11   15.03
  -2   8  -2  380.26   13.18
  -2   8  -2  332.91   13.75
   2  -8   2  360.07   14.59
   5  -5   4    8.66    3.48
  -5   5  -4    7.85    1.78
  -5   5  -4   13.48    3.45
  -4   6   5   49.00    3.41
   4  -6  -5   46.59    3.49
  -4   6   5   42.81    2.64
  -4   6   5   49.86    5.20
  -5  -1 -10  153.57    7.09
   5   1  10  161.55    7.87
   5   1  10  166.77    9.19
  -5  -1 -10  158.57    7.67
   5   1  10  150.02    8.52
  -5  -1 -10  151.43    6.59
  -7  -2  -6  179.89    7.84
  -7  -2  -6  174.18    8.79
   7   2   6  176.84    9.99
   7   2   6  171.49   10.13
   7   2   6  185.54    8.93
  -7  -2  -6  179.42    8.24
   7   2   6  175.96    7.96
  -2  -8  -8   18.81    3.59
   2   8   8   19.80    3.18
   2   8   8   13.21    3.04
   3   6  -6  234.66    9.50
  -3  -6   6  198.89    8.92
   3   6  -6  219.79    9.06
  -7   1   1   70.22    6.65
   7  -1  -1   49.46    2.36
  -7   1   1   73.79    6.47
   7  -1  -1   78.74    5.85
  -7   1   1   80.40    4.89
  -4  -4   7   31.41    5.06
  -4  -4   7   24.25    4.09
  -4  -4   7   22.46    2.48
   4   4  -7   28.64    3.23
   7   3  -1  454.28   20.03
   7   3  -1  477.17   18.18
   7   3  -1  443.01   18.22
   7   3  -1  452.26   17.82
   7   3  -1  449.25   17.94
  -7  -3   1  452.83   20.00
  -7  -3   1  454.56   17.88
   7   3  -1  459.24   19.65
  -7  -3   1  462.26   19.89
  -2  -9   0    1.22    3.28
  -2  -9   0    2.72    3.57
   2   9   0    1.47    3.45
   2   9   0   -1.25    2.75
  -3  -9  -3  177.29    8.52
  -3  -9  -3  170.15    8.45
  -7  -1   2  119.31    7.78
   7   1  -2  124.42    7.13
   7   1  -2  114.49    4.28
   7   1  -2  126.48    7.16
   7   1  -2  103.11    3.74
   7   1  -2  113.50    4.47
  -7  -1   2  117.55    7.98
   7  -1   4   41.30    5.52
  -7   1  -4   47.49    4.36
   7  -1   4   43.78    5.26
  -7   1  -4   50.43    5.84
   7  -1   4   44.08    4.11
  -7   1  -4   43.47    3.07
  -1  -8  -8   55.99    4.38
   1   8   8   53.20    4.04
   1   8   8   54.77    4.10
  -1  -8  -8   47.88    3.01
  -1  -3  10    1.37    2.25
  -1  -3  10    6.28    4.20
   1   3 -10    3.52    2.41
   1   3 -10    1.51    2.56
   1   3 -10    7.75    3.18
  -5   5   4  105.15    6.97
  -5   5   4  110.97    4.66
  -5   5   4  105.32    6.84
  -5   5   4  111.65    5.44
   5  -5  -4  111.99    5.24
  -2   7  -5    9.31    3.31
   2  -7   5    7.53    2.29
  -2   7  -5    0.07    3.43
  -2   7  -5    4.34    3.06
  -3  -9  -2   28.78    4.05
   4   1  11   73.52    4.95
  -4  -1 -11   74.81    4.57
  -4  -1 -11   78.74    5.36
   4   1  11   84.81    6.30
   4   1  11   79.38    5.77
  -4  -1 -11   81.08    5.05
  -4  -1 -11   83.51    5.05
  -4  -1 -11   71.21    4.17
  -7  -4  -5    7.10    4.26
   7   4   5    9.47    5.13
   7   4   5    6.51    2.46
   7   4   5   10.38    3.28
   7   4   5    4.72    2.41
   7   4   5   12.12    4.80
   7   4   5    7.00    2.38
  -7  -4  -5    4.75    2.83
   7   4   5    4.68    4.03
  -7  -4  -5    7.49    2.87
  -7  -4  -5    8.79    2.88
   5  -2  -7  262.19    8.39
   5  -2  -7  279.43    9.82
  -5   2   7  255.43   10.21
  -5   2   7  242.80   11.58
  -5   2   7  224.66   11.98
  -5   2   7  232.23    9.96
   1   1 -11  108.88    5.20
   1   1 -11   95.28    5.40
  -1  -1  11  101.59    5.33
   1   1 -11   89.33    5.90
   1   1 -11  102.74    5.36
  -1  -1  11   95.10    6.27
   5   7   7    5.79    2.97
   5   7   7    3.54    3.35
   5   7   7    2.63    2.08
   5   7   7    4.15    3.21
   5   7   7    4.13    2.89
   5   7   7    6.25    4.56
  -5  -7  -7    0.59    3.23
  -5  -7  -7    2.95    3.15
  -5  -7  -7    2.18    3.08
  -1  -2 -12   77.52    4.96
   1   2  12   83.50    4.68
  -1  -2 -12   79.07    4.65
  -1  -2 -12   73.18    5.04
   1   2  12   83.17    5.36
  -1  -2 -12   80.74    4.94
   1   2  12   76.01    4.98
   7   0  -2    0.20    4.46
   7   0  -2    2.15    1.89
   7   0  -2    4.70    1.88
  -7   0   2    3.16    2.33
  -7   0   2    6.29    4.20
   7   1   6   18.95    4.85
  -7  -1  -6   11.25    2.71
   7   1   6   10.71    4.96
   7   1   6   15.41    3.56
  -7  -1  -6   12.03    2.30
   3   9   4  216.96   10.29
  -3  -9  -4  204.47    9.43
  -3  -9  -4  206.63    9.59
  -7  -3  -6   40.67    4.11
  -7  -3  -6   45.20    3.78
  -7  -3  -6   43.68    3.58
   7   3   6   47.12    3.51
   7   3   6   46.20    4.46
  -2   8   5    6.33    2.54
   2  -8  -5    4.63    2.86
  -2   8   5    1.60    2.60
  -4  -6   5  168.36    9.36
   4   6  -5  109.36    4.78
  -4  -6   5  175.07    8.42
   4   8  -1    0.07    3.62
   4   8  -1   -0.56    3.47
  -4  -8   1    5.01    4.04
   4   8  -1    1.45    3.57
  -3   6  -6   89.20    6.11
   3  -6   6   98.77    5.27
  -3   6  -6  104.17    6.21
   3   5  11   69.33    4.70
   3   5  11   76.18    4.28
  -3  -5 -11   77.53    5.19
  -3  -5 -11   71.69    4.96
  -6  -2   5   11.75    3.97
  -6  -2   5   16.35    4.49
   6   2  -5   12.89    4.69
   6   2  -5   10.68    2.53
  -2  -2 -12  169.51    7.58
  -2  -2 -12  150.78    7.99
  -2  -2 -12  166.45    8.05
  -2  -2 -12  169.39    8.08
   2   2  12  165.49    8.94
   2   2  12  166.83    8.53
   2   2  12  166.60    7.57
   1  -2  11   23.76    3.30
  -1   2 -11   21.90    2.91
  -1   2 -11   22.16    3.58
   1  -2  11   18.49    2.89
   7   4   0   92.41    6.76
   7   4   0   81.95    4.40
  -7  -4   0   81.89    6.34
   7   4   0   87.33    5.00
   7   4   0   83.84    4.17
  -7  -4   0   82.79    6.71
   7   4   0   88.68    7.13
   7   4   0   80.29    6.29
   7   4   0   91.15    4.86
   7   4   0   76.52    4.96
   3  -1 -10  281.33   11.48
  -3   1  10  277.57   11.73
  -3   1  10  280.47   12.74
   3  -1 -10  256.41   11.27
   0   7  -6  230.30    8.07
   0   7  -6  299.86    8.11
  -4   7   1   99.46    6.26
  -4   7   1   88.24    6.82
  -4   7   1  100.91    7.17
   2   5  -8  431.96   16.69
   2   5  -8  381.95   16.11
  -2  -5   8  427.54   17.24
  -2  -5   8  373.57   15.95
   3  -1  11  122.99    7.00
   3  -1  11  136.85    7.27
   3  -1  11  121.55    6.61
  -3   1 -11  135.09    6.28
  -3   1 -11  134.03    6.85
   0   8  -4   66.27    5.03
   0   8  -4   77.18    5.06
   1   1  12   11.56    2.84
   1   1  12   15.86    3.88
  -1  -1 -12   12.03    3.04
  -1  -1 -12   12.54    2.78
   1   1  12   14.18    3.25
   1   1  12   13.45    3.55
  -1  -1 -12   14.70    2.99
  -1  -1 -12   10.51    3.18
   7   2  -2  203.85    9.24
   7   2  -2  228.07    9.02
  -7  -2   2  217.25   11.14
   7   2  -2  218.52    9.02
   7   2  -2  218.01   11.24
   7   2  -2  212.99   10.69
  -7  -2   2  216.74   11.00
  -7  -2   2  207.15    8.65
  -1  -8   4   91.10    6.28
   1   8  -4   70.00    5.02
   1   8  -4   87.04    5.33
  -4   7   0    1.78    3.19
  -4   7   0    2.81    3.89
  -4   7   0    2.50    4.05
  -4   7   0   -1.19    2.15
   6  -4   3   32.05    3.64
   6  -4   3   28.61    4.43
  -6   4  -3   31.02    5.14
  -6   4  -3   25.13    3.78
  -6   4  -3   29.22    5.01
  -5  -4 -10   51.48    4.30
   5   4  10   41.80    3.84
   5   4  10   50.25    5.83
  -5  -4 -10   41.48    4.31
   5   4  10   51.08    3.07
   5   4  10   41.23    3.77
  -5  -4 -10   45.10    3.88
   0  -5 -11  127.52    6.57
   0   5  11  142.40    7.04
   0  -5 -11  119.96    6.36
   0  -5 -11  127.07    6.63
   0   5  11  131.98    6.60
   0   5  11  132.86    6.55
   1   9  -1    7.23    1.02
  -1  -9   1   15.85    3.85
   1   9  -1   12.97    3.70
  -1  -9   1   15.62    3.50
  -6   4   2   70.13    6.37
   6  -4  -2   29.60    1.48
  -6   4   2   68.75    3.59
   1  -4 -11   68.80    4.60
   1  -4 -11   68.39    4.43
   1  -4 -11   68.19    4.59
  -1   4  11   64.20    4.37
   5   2  -7  117.86    5.87
  -5  -2   7  114.34    6.52
  -5  -2   7  106.95    7.27
   5   2  -7  118.20    7.47
  -7   2  -1  175.70    9.16
  -7   2  -1  139.02    5.30
  -7   2  -1  115.19    5.37
  -7   2  -1  155.16    7.27
   7  -2   1  145.74    8.64
   7  -2   1  147.52    7.21
   1   3  12    9.11    2.93
  -1  -3 -12   14.31    3.00
   1   3  12   13.65    2.74
  -1  -3 -12   15.83    3.16
  -1  -3 -12   11.64    3.08
   1   3  12   16.93    3.32
  -3  -9  -1  114.17    6.73
   3   9   1  129.37    6.90
   3   9   1  110.75    6.85
  -3   0  10   52.03    3.25
  -3   0  10   57.35    5.26
   3   0 -10   47.58    3.60
   3   0 -10   53.71    4.00
   2  -6   7   39.21    3.30
  -2   6  -7   33.13    3.70
  -2   6  -7   38.10    4.21
  -1   9   2   35.22    4.00
   1  -9  -2   45.59    3.82
  -1   9   2   41.99    3.90
   2   3  12  360.20   14.60
  -2  -3 -12  350.03   14.28
  -2  -3 -12  335.36   14.65
   2   3  12  356.05   15.56
  -2  -3 -12  364.04   14.81
  -2  -3 -12  335.89   14.52
   2   3  12  359.27   15.99
  -2  -1 -12  111.13    5.64
  -2  -1 -12  111.73    6.21
   2   1  12  115.75    6.64
   2   1  12  106.23    6.86
  -2  -1 -12  105.07    6.22
  -2  -1 -12  119.02    6.26
   0   2 -11   25.62    3.13
   0  -2  11   30.33    3.22
   0   2 -11   28.80    3.73
   0   2 -11   27.08    3.26
   0  -2  11   23.69    2.45
   0  -2  11   23.32    4.40
  -7   2  -2   17.85    1.91
  -7   2  -2   19.23    5.28
  -7   2  -2   19.08    3.49
   7  -2   2   20.15    4.73
   7  -2   2   20.64    3.13
   0   9   5   32.96    3.63
   0   9   5   31.31    3.67
   0  -9  -5   17.93    1.21
   0  -9  -5   32.16    3.69
   1   7  -6   10.77    2.73
   1   7  -6   13.11    2.93
   1   7  -6   20.50    3.61
  -1  -7   6   17.35    4.38
   4  -7  -2  161.88    7.12
  -4   7   2  155.56    7.17
  -4   7   2  161.27    8.07
  -4   7   2  158.53    8.75
  -4  -4 -11  251.80   11.56
   4   4  11  253.94   11.34
   4   4  11  253.46   12.94
   4   4  11  261.97   10.77
   4   4  11  271.66   12.25
  -4  -4 -11  256.85   11.19
   4  -3   9   28.40    4.23
   4  -3   9   27.38    4.00
  -4   3  -9   23.85    3.91
  -4   3  -9   26.34    4.40
  -4   3  -9   24.58    2.58
   4  -3   9   30.36    3.37
   4  -3   9   22.31    3.80
  -3   7  -4   24.71    3.93
  -3   7  -4   18.20    3.19
   3  -7   4   18.62    2.59
  -3   7  -4   16.83    4.16
  -3   2  10  331.32   13.16
   3  -2 -10  307.93   13.15
  -3   2  10  304.17   12.94
   3  -2 -10  339.15   13.51
  -6   3   4    1.01    2.66
  -6   3   4    4.88    2.22
  -6   3   4    0.74    4.80
  -6   3   4    5.95    4.29
   6  -3  -4    5.88    1.77
   1  -9  -1   93.19    5.09
   1  -9  -1   70.94    3.35
  -1   9   1   99.00    5.87
   2   6  -7  145.60    6.86
  -2  -6   7  104.75    5.05
   2   6  -7  155.85    7.25
  -6  -2  -9    6.25    1.47
  -6  -2  -9   14.01    3.13
   6   2   9    9.54    3.83
   6   2   9    6.37    4.72
  -6  -2  -9    8.56    3.38
   6   2   9    8.44    3.01
  -6  -2  -9   10.86    2.76
   6   2   9    9.67    4.73
   6   6  -1  237.13   11.36
   6   6  -1  205.63    9.52
   6   6  -1  237.58   10.32
   6   6  -1  226.07   10.27
   6   6  -1  264.81   11.74
   6   6  -1  237.73   10.37
   6   6  -1  245.10   11.28
   5   8   3  212.15   10.94
   5   8   3  220.53   10.21
   5   8   3  221.97   10.18
   5   8   3  217.29   10.12
   5   8   3  201.82    9.58
   5   8   3  221.30   11.28
  -5  -8  -3  218.69    9.96
   3   8   8   72.71    4.99
  -3  -8  -8   71.77    5.18
   3   8   8   79.63    5.16
   2   4  -9   -0.07    3.00
  -2  -4   9   -0.83    4.28
  -2  -4   9    3.38    3.03
   0  -9   1   97.67    5.70
   0   9  -1   86.16    4.77
   0   9  -1  100.84    4.85
  -7   2   0  235.19    9.76
   7  -2   0  205.57   10.67
  -7   2   0  228.82   11.33
  -7   2   0  231.49   11.33
  -4   7  -1    3.90    3.75
  -4   7  -1    0.41    2.18
  -4   7  -1   -2.22    3.53
  -4   7  -1    2.40    4.02
  -4  -8  -7   81.37    5.31
   4   8   7   94.93    5.44
   4   8   7   88.08    5.61
   4   8   7   83.30    4.15
   4   8   7   86.72    6.72
  -4  -8  -7   76.30    5.15
  -4   1   9   60.88    5.72
  -4   1   9   57.62    3.31
   4  -1  -9   62.74    3.71
  -4   1   9   59.69    4.82
   4  -1  -9   60.69    4.29
  -4   1   9   65.56    4.05
   4  -4   8   12.29    2.88
  -4   4  -8   11.97    4.08
  -4   4  -8   16.65    3.79
   4  -4   8   13.57    3.54
   4  -4   8   12.46    3.34
  -1   9   3   59.84    4.32
   1  -9  -3   50.99    4.14
  -1   9   3   50.07    4.32
   1  -8  -7  128.48    6.70
  -1   8   7  118.24    6.07
  -5   6   0    4.50    3.41
  -5   6   0   18.25    4.64
  -5   6   0   11.74    4.48
  -3  -9  -5   23.55    3.50
   3   9   5   29.34    3.85
  -3  -9  -5   30.41    3.97
   4  -5  -7   34.09    3.22
   4  -5  -7   28.40    4.41
  -4   5   7   37.56    3.21
   7   5   3   79.19    6.04
   7   5   3   86.17    4.86
   7   5   3   78.97    4.92
   7   5   3   79.29    5.07
   7   5   3   92.62    6.93
   7   5   3   76.79    7.00
  -7  -5  -3   81.73    6.53
   6   5   8   20.53    3.18
   6   5   8   22.32    3.06
  -6  -5  -8   20.43    3.51
   6   5   8   19.16    3.88
   6   5   8   22.05    2.83
   6   5   8   20.39    2.15
  -6  -5  -8   20.36    3.44
  -6  -5  -8   18.91    2.95
  -6  -5  -8   18.20    3.29
  -4   0   9  123.94    6.39
  -4   0   9  120.98    7.09
   4   0  -9  147.56    6.94
   4   0  -9  131.46    6.46
   6   3   9    2.60    3.64
  -6  -3  -9    2.94    2.96
  -6  -3  -9    2.53    2.75
   6   3   9    5.29    2.86
   6   3   9    3.27    1.72
  -6  -3  -9    2.51    2.08
   6   3   9    2.09    4.74
   6   3   9    2.29    2.54
  -6  -3  -9    2.65    3.23
   5   8   4   35.60    4.12
   5   8   4   32.09    5.45
   5   8   4   39.72    4.46
   5   8   4   33.06    4.28
  -5  -8  -4   39.67    4.09
   5   8   4   42.75    5.06
   5   8   4   39.65    3.76
  -5  -8  -4   37.72    4.08
   5   0  10  104.48    6.58
  -5   0 -10  103.53    4.89
  -5   0 -10  116.61    6.01
   5   0  10  112.76    7.29
  -5   0 -10  105.97    5.39
   2  -2  11   79.25    4.95
   2  -2  11   76.83    4.87
  -2   2 -11   70.31    4.22
   2  -2  11   76.05    5.13
  -2   2 -11   73.97    5.12
   2   9   6    0.65    3.18
  -2  -9  -6    0.03    2.30
   2   9   6    3.22    3.06
  -2  -9  -6   -1.85    3.35
  -3  -3   9   28.24    4.84
  -3  -3   9   17.14    1.71
   3   3  -9   27.41    3.26
  -3  -3   9   26.88    4.04
   2  -1 -11  223.46   10.05
  -2   1  11  223.03    9.92
  -2   1  11  242.33   10.92
   2  -1 -11  241.36   10.61
   1   9   6    3.46    2.98
  -1  -9  -6    4.65    3.32
   1   9   6    5.34    3.12
  -1  -9  -6    4.15    2.00
  -5  -8  -2  101.55    6.68
   5   8   2  102.63    7.01
   5   8   2   99.68    5.47
   5   8   2  115.92    7.52
   5   8   2  102.93    6.33
   5   8   2  101.12    6.20
  -6   2   5    9.01    2.36
  -6   2   5    7.85    2.35
  -6   2   5    8.33    4.38
   6  -2  -5    6.25    4.45
  -1   7  -6    5.30    2.60
  -1   7  -6    9.38    3.27
   0  -2 -12   28.20    3.42
   0   2  12   24.53    3.75
   0   2  12   27.53    3.55
   0  -2 -12   34.62    3.73
   0  -2 -12   30.05    3.50
   0  -2 -12   30.15    3.39
   0   2  12   34.61    3.35
  -5   6   1    3.95    4.27
  -5   6   1    0.77    3.17
  -5   6   1    0.84    4.35
  -4  -3   8    9.42    4.05
  -4  -3   8    9.68    4.64
  -4  -3   8   10.46    2.72
   4   3  -8   11.58    2.84
  -6   2  -7    7.57    3.41
   6  -2   7   10.31    4.15
  -6   2  -7   10.04    1.77
   6  -2   7    2.78    3.49
   6  -2   7    2.21    4.11
  -6   2  -7    8.13    4.53
  -6   2  -7    8.54    1.29
  -6   2  -7   12.00    2.66
   7   5   2   41.67    3.51
   7   5   2   34.69    3.77
  -7  -5  -2   37.69    5.10
   7   5   2   42.81    5.75
   7   5   2   37.77    3.40
   7   5   2   39.71    5.18
   7   5   2   44.79    5.17
   7   5   2   33.66    3.68
   7  -1  -2   44.97    2.58
  -7   1   2   52.15    5.55
  -7   1   2   44.86    3.79
  -3  -8   3    7.70    4.23
   3   8  -3    7.40    3.01
   3   8  -3    9.01    2.04
   3   8  -3    8.24    2.71
   3   8  -3    8.66    3.72
  -3   8   1  198.56    9.87
  -3   8   1  220.11    9.06
  -3   8   1  187.97    9.77
   0  -8  -8   98.58    4.94
   0  -8  -8  117.65    6.14
   0   8   8  109.80    5.85
  -5  -5   5   71.94    5.64
   5   5  -5   75.18    4.52
   6   4  -4   88.37    4.69
  -6  -4   4   89.14    6.49
  -6  -4   4   82.90    5.92
   6   4  -4   87.55    5.63
   0   1  12  168.62    8.16
   0  -1 -12  168.62    7.60
   0   1  12  152.81    8.21
   0  -1 -12  161.33    7.82
   0  -1 -12  152.76    7.96
   0   1  12  174.61    7.71
  -5   4   6   31.05    4.64
  -5   4   6   31.21    5.19
  -5   4   6   30.04    2.96
  -5   4   6   31.45    3.22
   5  -4  -6   27.81    2.82
   5  -4  -6   27.64    4.78
   2   9  -1   44.23    4.39
   2   9  -1   36.25    2.66
  -2  -9   1   44.89    4.66
   3  -4   9   -1.26    3.08
  -3   4  -9    0.85    3.44
  -3   4  -9    0.29    3.26
  -3   4  -9    2.29    2.45
  -3   4  -9   -1.36    2.44
   3  -4   9    1.58    3.12
   3  -4   9    5.67    2.72
   4   6  10   90.70    4.41
   4   6  10   83.86    4.60
   4   6  10   90.48    6.83
  -4  -6 -10   95.65    5.68
  -3   7   6    5.59    2.67
   3  -7  -6    7.17    2.82
  -3   7   6    4.96    2.05
  -7   0  -6   33.21    5.41
  -7   0  -6   36.68    3.15
   7   0   6   34.63    4.04
  -7   0  -6   32.70    3.96
  -7   0  -6   28.89    2.29
   7   0   6   32.91    5.37
   7   0   6   34.75    5.13
  -7   2  -3   27.93    5.31
   7  -2   3   26.60    4.60
   7  -2   3   19.65    4.69
  -7   2  -3   23.52    2.26
  -7   2  -3   24.80    3.83
   7  -2   3   26.11    3.45
  -7   2  -3   30.70    5.54
  -5   6  -1   29.88    5.10
  -5   6  -1   30.19    4.01
  -5   6  -1   34.95    5.00
  -5   6  -1   26.89    1.80
   7   5   4  265.14   13.37
   7   5   4  257.66   12.13
   7   5   4  262.70   11.26
   7   5   4  265.12   13.11
   7   5   4  254.35   11.09
   7   5   4  251.36   11.58
   4  -4  -8   98.18    5.20
   4  -4  -8   91.81    4.58
  -4   4   8  101.31    5.23
  -7   1  -5   12.11    3.38
   7  -1   5    9.09    4.43
   7  -1   5    8.71    3.35
  -7   1  -5   12.38    2.39
   7  -1   5   12.72    4.60
  -4   0 -11  213.07   10.19
   4   0  11  218.30   10.87
  -4   0 -11  217.90    9.82
   4   0  11  214.84   10.51
  -4   0 -11  209.82    9.00
  -2   2  11   73.81    5.50
   2  -2 -11   75.04    4.52
   6   7   3   36.09    5.29
   6   7   3   34.55    3.76
   6   7   3   35.27    4.70
   6   7   3   28.06    4.88
   6   7   3   24.75    3.42
   6   7   3   30.48    3.84
   7   4   6  133.06    5.51
   7   4   6  152.09    7.64
   7   4   6  146.12    6.82
  -7  -4  -6  147.64    7.27
   7   4   6  142.89    6.44
  -7  -4  -6  147.72    7.13
  -7  -4  -6  140.72    8.83
  -7  -4  -6  147.03    7.49
  -6  -1  -9   52.13    4.78
   6   1   9   55.61    5.10
  -6  -1  -9   55.01    3.68
  -6  -1  -9   53.90    4.16
  -6  -1  -9   55.15    5.81
   6   1   9   60.19    6.00
   6   1   9   57.12    4.37
  -1   0 -12   10.66    2.98
   1   0  12   10.79    3.22
   1   0  12   12.94    3.53
  -1   0 -12    6.23    2.72
  -1   0 -12    9.21    3.08
  -3   8   2   87.55    6.22
  -3   8   2  102.32    5.44
  -3   8   2  101.65    5.97
   3  -8  -2  105.44    5.47
  -3   8   2   93.51    5.13
   2  -6  -9    6.81    2.35
  -2   6   9    5.18    2.35
   2  -6  -9   11.96    2.72
   2  -6  -9   11.72    3.16
  -2   6   9    6.30    2.73
  -3  -7   5  397.36   17.41
   3   7  -5  391.75   11.04
   3   7  -5  450.04   11.99
   5   4  -6   53.49    5.53
  -5  -4   6   43.09    4.89
  -5  -4   6   42.99    3.96
   5   4  -6   49.06    3.76
  -5  -4   6   44.43    5.71
  -6   1  -8   61.24    4.95
  -6   1  -8   59.06    2.74
   6  -1   8   54.75    5.70
   6  -1   8   56.77    5.61
   6  -1   8   55.66    4.94
  -6   1  -8   60.35    4.04
  -6   1  -8   57.07    5.85
  -6   1  -8   58.26    3.38
   1  -9   0   52.68    2.71
   1  -9   0   59.51    4.36
  -1   9   0   43.94    4.36
  -1   9   0   41.00    3.64
   5   7  -2    5.57    3.48
   5   7  -2    7.28    3.70
   5   7  -2    3.43    3.93
   5   7  -2   10.44    3.69
  -5  -7   2    6.29    4.53
   5   7  -2    6.02    2.00
   6   6   7  160.80    8.27
  -6  -6  -7  143.83    7.22
   6   6   7  155.29    8.15
  -6  -6  -7  169.65    7.89
   6   6   7  155.91    7.47
   6   6   7  158.45    7.85
   6   6   7  154.13    9.65
   6   6   7  167.12    7.57
  -6  -6  -7  151.08    7.60
   4   7   9    5.51    3.55
   4   7   9    7.95    2.58
   4   7   9    9.05    3.02
   4   7   9    6.13    1.82
   4   7   9    7.86    2.19
  -4  -7  -9    8.27    3.32
   1  -8   4  216.24    9.07
  -1   8  -4  206.43   10.04
  -1   8  -4  179.61    9.43
  -3   8   0   21.58    3.96
  -3   8   0   26.12    3.14
  -5  -6  -9   16.17    3.39
   5   6   9   11.73    2.74
   5   6   9   10.63    3.06
   5   6   9   12.99    2.45
   5   6   9   12.38    3.04
   5   6   9   14.90    3.31
   5   6   9   17.83    2.95
  -5  -6  -9   13.08    3.43
   6   5  -3   56.57    4.65
   6   5  -3   59.98    4.32
  -6  -5   3   67.67    5.36
   6   5  -3   69.39    5.61
   6   5  -3   69.69    5.22
  -6  -5   3   60.18    5.62
   6   5  -3   65.07    6.10
   6   7   4   36.52    3.89
   6   7   4   28.85    5.20
  -6  -7  -4   38.60    3.99
   6   7   4   35.13    3.95
   6   7   4   34.08    3.88
   6   7   4   45.37    4.87
   6   7   4   45.49    5.56
  -2   8  -3   24.93    4.16
   2  -8   3   27.97    3.48
  -2   8  -3   29.01    3.66
   2  -8   3   33.90    2.75
  -2   8  -3   25.98    4.23
  -4   2 -10   21.46    3.85
  -4   2 -10   24.95    3.22
   4  -2  10   25.19    3.23
  -4   2 -10   17.84    2.04
  -4   2 -10   22.05    2.51
   4  -2  10   21.73    4.11
   4  -2  10   16.70    3.57
   2   7  10   96.57    5.91
   2   7  10  120.46    6.48
   2   7  10  111.10    6.00
   2   7  10  112.76    5.67
  -2  -7 -10   99.91    5.30
  -2  -7 -10  111.07    6.29
  -4   7   3  151.65    7.49
   4  -7  -3  151.71    6.90
  -4   7   3  140.26    8.11
  -4   7   3  137.98    6.51
   6   7   2   51.54    5.07
   6   7   2   52.45    4.20
   6   7   2   39.52    3.67
   6   7   2   47.87    5.72
   6   7   2   44.20    4.23
   6   7   2   50.50    5.54
  -4   2   9    7.84    2.09
   4  -2  -9    6.18    2.99
  -4   2   9    9.73    2.74
   4  -2  -9   10.58    3.97
   4  -2  -9    6.61    2.00
   2   8  -4   19.02    3.23
   2   8  -4   18.85    2.46
  -2  -8   4   20.42    4.44
   2   8  -4   26.64    3.92
   2   8  -4   26.13    3.82
   2   8  -4   16.11    2.67
  -7  -3   2  331.08   15.14
  -7  -3   2  323.48   15.40
   7   3  -2  343.86   13.16
   7   3  -2  306.18   13.20
   7   3  -2  322.26   12.87
   7   3  -2  305.21   12.56
   7   3  -2  341.02   14.58
   7   3  -2  335.68   15.11
  -3  -2 -12    9.74    3.25
  -3  -2 -12   12.79    2.75
   3   2  12   11.67    4.36
   3   2  12   13.61    2.71
   3   2  12   15.50    3.12
  -3  -2 -12   12.81    2.98
   3   2  12   16.29    3.79
  -2   0  11    5.15    2.38
  -2   0  11   12.25    4.18
   2   0 -11    7.27    2.55
   3  -3  10  616.50   23.25
   3  -3  10  551.39   23.11
  -3   3 -10  538.29   23.01
  -3   3 -10  538.12   21.72
  -3   3 -10  588.07   21.94
   3  -3  10  551.97   23.46
   3   9   0  290.10   14.01
   3   9   0  319.81   14.05
  -3  -9   0  310.32   13.79
   4  -6   5    4.73    2.49
  -4   6  -5    7.29    2.64
  -4   6  -5   11.46    4.18
  -4   6  -5   12.36    3.74
  -3  -1  10    3.53    4.38
  -3  -1  10    8.43    2.72
   3   1 -10    5.12    2.83
  -3  -1  10    2.75    1.54
  -5   3  -8    1.51    2.37
  -5   3  -8    1.29    3.97
  -5   3  -8    1.14    1.85
   5  -3   8    0.84    2.64
   5  -3   8   -1.28    3.70
   5  -3   8    3.41    3.83
   5  -3   8   -4.88    3.58
   5   8   5  572.45   21.89
   5   8   5  542.96   23.05
   5   8   5  516.64   20.89
  -5  -8  -5  528.50   21.36
   5   8   5  508.98   21.74
   5   8   5  563.31   22.13
  -5  -8  -5  525.71   21.50
   5   8   5  545.53   21.70
  -7   2   1  128.76    8.12
  -7   2   1  122.94    6.57
  -7   2   1  122.45    5.35
  -7   2   1  132.59    8.45
  -1   9   4    5.91    3.09
  -1   9   4    7.91    3.02
   1  -9  -4    7.65    3.23
   0   3  12    1.51    2.67
   0  -3 -12    4.88    2.92
   0  -3 -12    4.92    3.01
   0  -3 -12    3.15    2.79
   0   3  12    1.87    2.95
   7   4  -1   85.33    4.42
   7   4  -1   93.11    6.39
  -7  -4   1   86.88    6.74
   7   4  -1   91.99    4.97
  -7  -4   1   96.03    6.99
   7   4  -1   83.49    6.91
   7   4  -1   84.66    4.22
   7   4  -1   80.28    4.99
   7   4  -1   87.27    5.10
   7   4  -1   90.01    6.82
  -5   6   2   59.79    5.90
  -5   6   2   57.43    4.73
  -5   6   2   56.45    5.90
   5  -6  -2   62.40    3.30
  -5   6   2   60.87    3.30
  -5   6   2   65.24    3.78
   1  -6 -10   33.89    3.69
  -1   6  10   36.58    3.31
   1  -6 -10   34.57    3.81
   1  -6 -10   34.92    3.40
   7   5   1   38.40    4.89
   7   5   1   35.39    3.43
  -7  -5  -1   35.41    4.84
   7   5   1   36.62    3.69
   7   5   1   32.30    3.74
   7   5   1   33.90    3.20
   7   5   1   40.38    5.18
   7   5   1   35.17    5.53
  -1  -7 -10   27.73    3.78
   1   7  10   30.01    3.68
   1   7  10   27.11    3.18
  -1  -7 -10   25.23    2.78
   1   7  10   25.47    3.27
   1   7  10   23.89    3.22
  -1  -7 -10   21.83    3.59
  -6   4  -4   44.97    5.62
   6  -4   4   39.67    3.95
   6  -4   4   34.11    4.51
  -6   4  -4   38.39    4.30
  -2  -4 -12  110.16    6.31
  -2  -4 -12  122.99    6.52
   2   4  12   88.96    4.89
   2   4  12  122.95    5.42
  -2  -4 -12  131.17    6.68
  -2   0 -12  118.63    5.93
   2   0  12  118.77    6.78
  -2   0 -12  122.52    6.57
   2   0  12  117.28    6.91
   7   2   7    4.66    5.06
  -7  -2  -7    7.24    4.77
   7   2   7    5.68    3.52
  -7  -2  -7    6.87    2.84
  -7  -2  -7    6.85    2.59
  -7  -2  -7    6.05    3.33
   7   2   7    6.95    4.77
  -5   5  -5  146.54    8.47
   5  -5   5  146.97    7.69
  -5   5  -5  139.54    6.18
   5   8   1  286.69   12.51
   5   8   1  294.46   12.56
   5   8   1  275.29   13.15
  -5  -8  -1  259.95   12.25
   5   8   1  311.76   13.43
   5   8   1  254.66   11.69
  -5   3   7   68.69    4.01
  -5   3   7   60.89    3.88
  -5   3   7   60.22    5.53
   5  -3  -7   67.31    5.73
   4   1  -9  186.41    8.48
  -4  -1   9  174.46    9.25
  -4  -1   9  162.52    8.14
  -4  -1   9  158.01    8.85
   1   4  12    8.49    2.73
   1   4  12    6.17    2.25
  -1  -4 -12    4.19    2.90
  -1  -4 -12   11.04    3.07
   6  -3   6  122.63    7.33
   6  -3   6  110.48    6.64
   6  -3   6  115.42    7.24
  -6   3  -6  115.22    6.49
  -6   3  -6  125.51    7.53
  -6   3  -6  102.01    5.00
   3   3  12  249.39   12.17
   3   3  12  246.43   11.61
  -3  -3 -12  253.26   11.30
  -3  -3 -12  238.17   10.90
  -3  -3 -12  255.97   11.29
   3   3  12  244.72   10.37
   3  -5   8    1.96    2.54
  -3   5  -8    2.91    3.36
   3  -5   8    4.17    2.69
  -3   5  -8    1.56    3.34
   3  -5   8    5.64    2.96
   0  -5   9  242.88   10.47
   0   5  -9  258.44   10.67
   0   5  -9  222.02   10.73
   0   5  -9  239.24   10.73
  -6   4   3   88.81    5.42
  -6   4   3   85.80    7.19
  -6   4   3   87.24    6.94
  -6   4   3   93.12    4.59
   6  -4  -3   74.80    3.50
  -4   7  -2    2.74    2.40
   4  -7   2    5.57    2.68
  -4   7  -2   10.62    4.27
  -4   7  -2   11.44    3.88
  -5   2  -9    4.22    4.16
  -5   2  -9    3.50    2.63
   5  -2   9    1.05    3.92
   5  -2   9   -1.44    3.32
   5  -2   9   -0.87    2.89
   5  -2   9    1.46    4.03
  -5   2  -9    4.63    3.60
  -5   2  -9    3.96    1.87
   2   6  11   11.07    2.87
   2   6  11   13.66    3.51
  -2  -6 -11    5.89    2.58
  -2  -6 -11    9.20    3.41
   2   6  11   11.56    2.75
  -7  -1   3  147.18    9.18
   7   1  -3  148.35    8.19
   7   1  -3  143.84    5.81
  -7  -1   3  163.06    9.11
   4   7  -4    5.84    3.38
  -4  -7   4    1.66    4.34
   4   7  -4    0.47    2.71
   4   7  -4    3.00    2.08
   6   3  -5    7.89    2.60
   6   3  -5    5.22    4.85
  -6  -3   5   12.03    4.37
  -6  -3   5   10.43    3.97
  -3   3  10   53.31    3.89
   3  -3 -10   49.22    3.49
  -3   3  10   53.04    3.69
   3  -3 -10   60.23    4.50
   3  -3 -10   48.74    4.10
   2  -5 -10   10.99    3.08
  -2   5  10    8.20    2.83
   2  -5 -10    6.99    2.74
  -2   5  10    6.87    2.31
   6   4   9   94.66    4.43
   6   4   9   96.60    5.53
  -6  -4  -9   97.49    5.74
  -6  -4  -9   94.46    5.43
  -6  -4  -9  103.51    5.94
   6   4   9  104.90    6.56
   6   4   9   91.04    7.45
  -6  -4  -9   83.49    4.75
   6   4   9   95.09    5.53
  -1   7   9  188.99    8.61
   1  -7  -9  210.69    9.57
  -1   7   9  191.82    8.59
   1  -7  -9  203.40    9.44
   3  -8  -3  216.85    9.50
  -3   8   3  183.36    9.92
  -3   8   3  215.33    8.86
  -3   8   3  198.67    9.05
  -5  -6   4   16.70    4.01
   5   6  -4   14.88    3.36
   5   6  -4   13.29    3.73
   5   6  -4   17.81    3.34
  -5  -6   4   17.20    5.05
   5   6  -4    6.01    1.04
  -5   6  -2   61.26    5.72
  -5   6  -2   47.45    2.69
  -5   6  -2   62.21    5.96
  -5   6  -2   62.85    4.91
   7   5   5   19.15    4.57
  -7  -5  -5   20.20    3.33
   7   5   5   22.25    5.71
   7   5   5   22.77    5.40
   7   5   5   22.61    3.63
   7   5   5   26.37    3.14
   7   5   5   24.22    3.12
  -7  -5  -5   22.06    3.34
   5  -5  -5   24.95    2.67
  -5   5   5   32.50    3.42
  -5   5   5   37.03    4.96
  -5   5   5   24.65    5.13
  -5   5   5   28.85    2.89
  -1   5  -9   12.69    3.31
   1  -5   9   13.47    2.92
  -1   5  -9   12.28    3.16
   7   0  -3   42.85    5.60
  -7   0   3   44.37    5.84
  -7   0   3   40.23    5.31
   7   0  -3   41.80    3.09
  -7   0   3   42.65    3.21
   7   3   7   81.48    6.91
  -7  -3  -7   75.34    5.26
  -7  -3  -7   75.95    4.60
   7   3   7   77.22    5.63
   7   3   7   71.66    4.54
   7   3   7   72.84    7.15
  -7  -3  -7   76.43    4.83
   4  -6  -6    8.40    2.65
  -4   6   6    3.81    2.50
  -4   6   6    6.54    1.80
   2  -8  -6   27.97    3.46
  -2   8   6   24.15    3.01
   1   6  11  143.07    7.33
   1   6  11  129.35    6.87
   1   6  11  144.13    6.65
  -1  -6 -11  132.83    6.60
  -1  -6 -11  142.88    7.21
  -1  -6 -11  129.90    7.11
   3   1  12   68.39    4.74
  -3  -1 -12   63.87    4.81
   3   1  12   72.27    5.84
  -3  -1 -12   63.10    3.95
   3   1  12   67.66    5.38
   0   0 -12  142.41    7.33
   0   0  12  140.31    7.60
   0   0  12  147.84    7.31
   0   0 -12  153.78    7.21
   0   0  12  139.53    7.32
   0   0 -12  148.67    7.11
  -4   5  -7   76.84    6.05
  -4   5  -7   72.85    5.60
   4  -5   7   79.56    5.13
   4  -5   7   79.18    4.74
   4  -5   7   74.40    5.12
   5   5  10  132.54    8.93
   5   5  10  129.71    7.95
   5   5  10  145.94    6.43
   5   5  10  140.91    7.30
  -5  -5 -10  148.63    7.85
   5   5  10  153.61    7.11
  -5  -5 -10  153.03    7.53
   6   7   5   26.73    5.34
   6   7   5   35.99    3.88
  -6  -7  -5   34.72    3.79
   6   7   5   35.49    3.81
  -6  -7  -5   31.52    3.85
   6   7   5   31.55    5.43
   6   7   5   34.94    4.59
   4   8  -2   54.64    4.40
  -4  -8   2   53.48    5.40
   4   8  -2   43.24    4.53
   4   8  -2   45.52    4.65
   2  -7  -8  259.37   10.79
   2  -7  -8  233.87   10.13
  -2   7   8  256.75   10.57
  -2   7   8  234.87   10.37
   3   9   6   11.16    3.49
  -3  -9  -6   12.79    3.50
  -3   8  -1    5.12    3.44
  -3   8  -1    4.93    3.93
  -3   8  -1    1.34    2.86
   3  -8   1    0.92    2.90
  -5  -7  -8    3.04    3.08
   5   7   8   -0.15    2.94
   5   7   8    3.13    4.96
   5   7   8    3.59    2.93
  -5  -7  -8    1.83    3.24
   5   7   8   -2.41    3.09
   5   7   8    4.56    2.13
   5   7   8    6.95    3.49
  -5  -7  -8    2.33    3.28
  -1  -9   2   23.22    4.24
   1   9  -2   16.27    3.81
   1   9  -2   19.88    3.39
   1   2 -11  174.17    8.59
  -1  -2  11  169.70    8.19
  -1  -2  11  167.62    6.71
   1   2 -11  171.10    8.04
   1   2 -11  181.67    7.93
   7   1   7  222.66   11.89
  -7  -1  -7  230.42    9.62
   7   1   7  222.70   10.72
  -7  -1  -7  232.13   10.17
  -7  -1  -7  224.00   11.96
   7   1   7  233.64   11.75
  -2  -7   6   42.67    5.13
   2   7  -6   38.33    3.44
   2   7  -6   38.22    3.46
   2   7  -6   44.29    4.34
  -1   4 -10    2.27    2.60
  -1   4 -10    3.77    3.10
  -1   4 -10    0.22    3.11
   1  -4  10    1.79    2.82
   0  -9  -6   11.28    1.44
   0  -9  -6   18.27    3.49
   0  -9  -6   16.68    2.22
   0   9   6   15.79    3.26
   0   9   6   17.90    3.26
  -2   3  11   13.78    2.97
  -2   3  11   14.91    2.89
   2  -3 -11   18.15    2.88
   6   7   1   31.20    3.68
   6   7   1   29.57    3.29
   6   7   1   39.85    5.52
   6   7   1   45.47    5.23
   6   7   1   36.31    4.84
   6   7   1   36.93    4.02
   6   7   1   35.62    4.07
   0   4 -10   54.21    3.97
   0   4 -10   60.88    4.49
   0  -4  10   53.93    3.98
   0   4 -10   48.93    4.24
   7  -2   4    3.45    3.16
  -7   2  -4    2.21    3.23
  -7   2  -4   -0.31    1.96
   7  -2   4    2.07    4.09
  -7   2  -4    8.05    4.78
   7  -2   4   -1.39    4.35
  -6   0   6  145.75    7.35
  -6   0   6  130.00    7.95
   6   0  -6  156.21    7.92
   6   0  -6  146.43    5.86
   2   3 -10   55.23    3.29
  -2  -3  10   52.43    5.56
   2   3 -10   58.04    4.55
  -2  -3  10   50.90    3.12
  -3   6   8   26.70    2.75
   3  -6  -8   37.89    3.87
   3  -6  -8   30.59    3.51
  -3   6   8   40.28    3.30
   0   6  -8  162.40    7.80
   0   6  -8  175.03    7.89
   3  -5  -9   83.42    5.24
  -3   5   9   99.20    5.32
   3  -5  -9   86.78    4.73
   3  -5  -9   89.54    5.16
  -1   9  -1  199.13    7.44
  -1   9  -1  178.64    7.73
   1  -9   1  205.63    9.06
   1  -9   1  191.82    7.94
  -4  -5 -11  300.92   13.04
   4   5  11  295.32   12.09
   4   5  11  287.61   12.49
   4   5  11  304.87   14.42
   4   5  11  293.97   13.43
   5  -4   7    5.14    3.54
  -5   4  -7    1.01    4.26
   5  -4   7   -0.82    2.63
   5  -4   7   -1.00    3.29
   7   2  -3   94.14    4.73
   7   2  -3   85.23    4.86
   7   2  -3   95.66    4.53
  -7  -2   3   97.72    6.51
  -7  -2   3   89.02    6.75
   3   7  10  121.68    6.53
  -3  -7 -10  120.85    6.80
  -3  -7 -10  130.37    7.10
   3   7  10  111.84    6.45
   3   7  10  125.76    5.98
   4   9   3   71.75    6.45
  -4  -9  -3   75.54    5.61
   4   9   3   79.36    6.09
  -4  -9  -3   80.52    5.32
  -4  -9  -3   70.46    5.26
   0   9  -2   77.13    5.39
   0  -9   2   85.48    5.32
   0   9  -2   73.93    5.27
   5   3  -7  275.54   11.72
  -5  -3   7  255.55   11.52
  -5  -3   7  267.69   12.72
   5   3  -7  284.28   13.05
  -5  -3   7  251.38   12.33
  -6  -1   6   25.13    5.30
   6   1  -6   32.30    5.13
   6   1  -6   30.46    3.16
  -6  -1   6   34.97    4.58
   2   8   9  145.86    6.98
   2   8   9  141.74    7.34
   2   8   9  144.64    7.19
  -2  -8  -9  144.16    7.61
  -6   0  -9   85.87    4.61
  -6   0  -9   78.45    5.82
  -6   0  -9   86.12    5.23
   6   0   9   84.28    7.04
   6   0   9   91.84    6.84
  -6   0  -9   94.58    6.92
  -4  -9  -4  103.76    5.87
  -4  -9  -4   92.97    5.93
  -4  -9  -4   84.71    5.78
   4   9   4  102.20    6.81
   4   9   2   91.87    6.53
   4   9   2   94.35    6.62
  -4  -9  -2   86.97    6.05
  -4  -9  -2   85.63    5.55
   4   9   2   84.62    5.90
  -5   6   3   29.15    2.89
   5  -6  -3   19.99    2.44
  -5   6   3   22.54    4.94
  -5   6   3   21.92    3.53
  -5   6   3   19.52    1.76
  -5   0   8    2.90    0.55
   5   0  -8    9.11    2.82
   5   0  -8    7.01    4.44
  -5   0   8    6.66    4.02
  -5   0   8    3.57    0.58
  -5   0   8    8.18    4.58
   5   0  -8    8.73    1.98
   6   6  -2   77.68    5.57
   6   6  -2   78.66    6.02
   6   6  -2   54.72    3.42
   6   6  -2   70.74    6.20
   6   6  -2   67.24    4.92
   6   6  -2   71.60    4.75
   6   6  -2   74.55    4.72
   5   8   6  100.75    6.00
  -5  -8  -6  109.27    6.29
   5   8   6  100.62    5.02
   5   8   6  114.23    7.80
   5   8   6  110.03    6.35
   5   8   6  111.71    6.33
  -5  -8  -6  105.06    6.07
  -6   1   6   73.77    6.00
  -6   1   6   57.61    3.55
  -6   1   6   77.98    4.12
   6  -1  -6   82.11    6.38
   6  -1  -6   75.44    4.59
  -6   1   6   66.40    6.64
   7   5   0    5.67    2.79
   7   5   0    3.75    4.80
   7   5   0    5.31    3.09
   7   5   0    1.46    4.72
   7   5   0    0.11    4.14
   7   5   0    6.85    3.07
   7   5   0    7.10    2.19
  -7  -5   0    5.38    4.25
   1   5  -9   13.34    3.12
  -1  -5   9   12.50    2.73
  -1  -5   9   19.21    4.58
   1   5  -9   17.22    3.25
   1   5  -9   12.93    2.95
   3   6  11    0.82    2.53
   3   6  11   -1.70    2.92
  -3  -6 -11    0.35    3.21
  -3  -6 -11    1.20    3.39
   3   6  11    0.26    3.41
  -1  -8  -9   16.90    2.35
   1   8   9   16.97    3.22
  -1  -8  -9   16.89    3.55
   1   8   9   19.15    3.14
  -1  -8  -9   19.06    3.67
   2   9   7   29.14    3.80
  -2  -9  -7   24.44    3.83
   2   9   7   27.15    3.70
  -4   7   4   70.38    4.19
  -4   7   4   65.35    5.87
  -4   7   4   60.86    3.70
   4  -7  -4   61.28    3.98
  -4   7   4   67.84    4.77
   3   4  12  271.80   12.22
  -3  -4 -12  272.86   11.99
   3   4  12  265.18   12.84
   3   4  12  257.38   10.99
  -3  -4 -12  263.10   11.76
  -1   6  -8   69.41    4.53
  -1   6  -8   54.79    4.80
   1  -5 -11  120.85    6.45
  -1   5  11  128.71    6.65
  -1   5  11  127.03    6.26
   1  -5 -11  126.20    6.55
   1  -5 -11  129.59    6.65
   2   1 -11   70.46    4.32
  -2  -1  11   74.57    4.15
   2   1 -11   67.84    5.09
  -2  -1  11   72.94    6.02
  -1   9   5    5.63    3.03
   1  -9  -5    3.39    3.13
  -1   9   5    5.54    2.91
   5  -1  -8   54.31    5.35
   5  -1  -8   47.00    3.80
  -5   1   8   34.98    2.37
  -5   1   8   34.42    5.30
  -5   1   8   44.48    3.40
  -5   1   8   36.00    2.32
  -5   1   8   38.48    4.64
  -7   2   2   67.76    3.58
  -7   2   2   71.96    6.83
   7  -2  -2   43.04    2.05
  -7   2   2   72.24    6.43
   7  -2  -2   43.03    2.01
  -7   2   2   66.46    4.52
   5   8   0   22.69    4.09
   5   8   0   29.32    4.86
   5   8   0   22.01    3.73
  -5  -8   0   26.75    4.83
   5   8   0   20.31    2.77
   5   8   0   22.22    4.64
   7  -1  -3    0.91    4.62
  -7   1   3    1.32    2.47
  -7   1   3    8.47    4.51
   1   9   7   81.44    5.36
  -1  -9  -7   81.52    5.40
   1   9   7   90.79    5.39
  -3   2 -11  108.34    5.37
  -3   2 -11  112.24    5.99
   3  -2  11  107.51    6.14
  -3   2 -11   93.19    6.27
   3  -2  11  107.27    6.48
   3  -2  11  121.03    6.53
   4  -3  -9  118.21    5.65
   4  -3  -9  135.51    7.09
  -4   3   9  134.91    6.47
   4  -3  -9  125.41    6.38
  -2   7  -6   88.07    5.88
  -2   7  -6   85.61    5.45
   2  -7   6   89.91    4.82
   4   8   8   41.64    4.04
   4   8   8   37.49    5.46
  -4  -8  -8   40.63    4.19
   4   8   8   38.48    4.16
   0  -4 -12   72.63    4.96
   0   4  12   72.72    5.03
   0  -4 -12   65.48    4.71
   0  -4 -12   76.10    4.81
   0   4  12   73.66    4.53
  -3   8   4  106.06    5.61
  -3   8   4  107.95    5.40
  -3   8   4  104.63    6.78
   3  -8  -4   99.74    5.51
  -2  -9   2  145.21    8.03
   2   9  -2  155.79    8.09
   5  -1  10    7.58    3.55
  -5   1 -10    9.16    3.53
   5  -1  10    8.00    4.21
  -5   1 -10    9.74    2.97
  -5   1 -10   10.48    4.24
  -5   1 -10   10.81    2.09
   5  -1  10    9.75    4.47
   7   4   7   38.43    4.48
   7   4   7   33.83    1.92
  -7  -4  -7   43.32    3.97
  -7  -4  -7   38.55    3.99
   7   4   7   34.51    3.01
  -7  -4  -7   38.86    3.78
   7   4   7   43.36    3.57
   1  -1  12   79.33    5.04
   1  -1  12   73.95    5.07
  -1   1 -12   73.60    4.88
  -1   1 -12   75.43    4.56
  -1   1 -12   75.50    4.94
   7  -1   6    0.36    4.50
   7  -1   6   -0.86    3.52
  -7   1  -6    0.90    3.29
  -7   1  -6   -3.10    4.83
  -7   1  -6    1.17    1.03
   7  -1   6    1.85    4.32
  -7   1  -6    1.37    2.35
   0  -7 -10    6.48    2.45
   0   7  10   12.65    2.98
   0  -7 -10    8.27    3.17
   0   7  10    9.90    3.16
   0  -7 -10    9.43    3.43
   0   7  10    8.81    2.76
  -3  -9   1   22.93    4.55
   3   9  -1   21.74    3.32
   3   9  -1   21.01    3.85
   3   9  -1   22.16    4.12
  -6   3   5   76.22    6.34
  -6   3   5   78.09    4.08
   6  -3  -5   72.77    6.21
   6  -3  -5   66.46    3.73
  -6   3   5   61.40    4.41
  -6   3   5   63.59    6.80
  -1  -6   8    3.16    1.23
   1   6  -8   -0.61    2.83
   1   6  -8    1.71    3.34
   1   6  -8    2.41    2.75
  -3   7  -5    4.16    3.82
  -3   7  -5    4.29    3.37
  -3   7  -5    4.48    2.96
   3  -7   5    2.79    2.20
  -6   5   0  193.15    9.32
  -6   5   0  178.52   10.57
  -6   5   0  192.23   10.39
  -6   5   0  189.77    8.00
   0   8  -5   98.13    5.89
   0   8  -5  115.60    5.85
   1  -2 -12    5.16    3.22
   1  -2 -12    3.93    2.67
  -1   2  12    2.25    2.90
  -1   2  12    4.51    2.65
   1  -2 -12    7.09    3.11
   1  -2 -12    4.38    2.75
  -1   2  12    3.67    3.57
  -7  -5  -6   49.68    4.14
   7   5   6   46.28    3.64
   7   5   6   43.35    6.26
  -7  -5  -6   47.35    4.05
   7   5   6   46.56    6.40
   7   5   6   48.45    5.18
   7   5   6   50.27    3.87
   7   5   6   47.37    4.55
  -7  -5  -6   47.45    4.11
  -1   1  12   25.86    3.40
   1  -1 -12   26.15    3.73
   1  -1 -12   22.53    3.20
   1  -1 -12   22.32    3.29
  -1   1  12   28.16    4.28
  -1   1  12   26.32    3.32
   5  -6   3  317.08   12.77
  -5   6  -3  340.20   13.50
  -5   6  -3  330.87   15.74
  -5   6  -3  333.29   15.17
  -5   6  -3  380.49   15.70
  -5  -2 -11   30.74    3.81
  -5  -2 -11   33.89    3.45
   5   2  11   33.31    4.65
   5   2  11   30.97    5.17
   5   2  11   27.29    3.58
  -6  -7  -6   51.97    4.18
   6   7   6   55.06    5.01
  -6  -7  -6   59.21    4.67
   6   7   6   56.36    6.26
   6   7   6   46.55    6.20
   6   7   6   56.73    4.44
   6   7   6   57.73    4.42
  -6   5  -1   65.89    6.37
  -6   5  -1   60.31    4.94
  -6   5  -1   74.59    6.40
   4  -1  11  152.00    7.76
  -4   1 -11  172.05    7.54
   4  -1  11  169.25    8.56
  -4   1 -11  169.28    8.27
   4  -1  11  146.78    8.18
  -4   7  -3   15.22    3.92
  -4   7  -3   13.13    2.69
   4  -7   3    8.78    2.61
  -4   7  -3    6.41    4.40
   3   0  12   50.30    5.21
  -3   0 -12   51.97    3.59
   3   0  12   50.94    4.72
  -3   0 -12   47.82    4.48
   4   9   5   54.97    5.49
   4   9   5   56.76    4.42
   4   9   5   53.77    4.91
  -4  -9  -5   54.36    4.88
  -4  -9  -5   59.07    4.69
  -2   4 -10  111.54    6.76
  -2   4 -10  117.00    5.95
   2  -4  10  109.90    6.37
  -2   4 -10  124.10    5.95
   2  -4  10  116.52    6.06
  -5  -3 -11   51.82    4.31
   5   3  11   46.08    3.91
   5   3  11   46.34    3.13
   5   3  11   38.77    5.61
  -5  -3 -11   47.24    4.02
   5   1  -8   41.96    5.14
   5   1  -8   35.54    3.55
  -5  -1   8   29.70    4.13
  -5  -1   8   27.16    4.94
   1   8  -5   71.57    4.54
   1   8  -5   62.15    4.39
   1   8  -5   29.26    2.47
   1   8  -5   30.56    2.42
   1   8  -5   43.99    4.09
  -1  -8   5   54.89    5.42
   3  -8   2   33.11    2.92
  -3   8  -2   36.58    3.62
  -3   8  -2   34.84    4.03
  -3   8  -2   29.84    4.48
   3  -8   2   30.47    3.53
  -3   8  -2   31.81    4.60
  -7   3  -1   67.84    6.46
  -7   3  -1   67.38    4.75
   7  -3   1   64.63    5.76
  -7   3  -1   64.53    2.69
  -4  -2   9   26.67    4.69
   4   2  -9   35.60    3.48
  -4  -2   9   33.03    3.56
  -4  -2   9   32.67    5.19
  -2   5  -9  190.87    8.33
   2  -5   9  175.03    7.86
   2  -5   9  165.25    8.12
   2  -5   9  159.75    7.57
  -2   5  -9  175.52    9.27
   1  -3  11    1.80    1.61
  -1   3 -11    3.16    3.20
   1  -3  11    3.14    2.89
  -1   3 -11    5.88    2.99
  -1   3 -11    5.65    2.69
   6   7   0  200.82   10.27
   6   7   0  190.71    9.91
   6   7   0  188.44    8.88
   6   7   0  188.39    9.72
   6   7   0  177.35    8.83
   6   7   0  172.11    8.77
  -4  -5   7   10.44    3.67
   4   5  -7    6.83    2.92
   4   9   1   93.89    5.70
   4   9   1   90.26    5.63
  -4  -9  -1   95.30    6.44
   4   9   1   90.36    5.09
   7   0   7  642.15   27.23
   7   0   7  627.88   26.24
  -7   0  -7  614.50   24.82
  -7   0  -7  646.92   25.92
  -7   0  -7  574.64   23.29
   7   0   7  666.36   27.12
  -7   0  -7  632.64   24.03
   0  -6 -11  137.68    7.04
   0   6  11  142.48    7.09
   0  -6 -11  123.48    6.52
   0   6  11  145.23    7.00
   0   6  11  149.08    7.49
   0  -6 -11  135.28    6.97
  -3  -2  10    0.93    2.31
  -3  -2  10    1.02    1.14
  -3  -2  10    5.89    3.81
   3   2 -10   -1.98    2.99
  -3  -2  10    1.91    4.44
  -1  -4  10   52.30    3.49
   1   4 -10   46.69    3.90
   1   4 -10   52.33    4.29
  -1  -4  10   47.77    5.46
  -3   6  -7   20.07    3.93
   3  -6   7   19.55    2.83
   3  -6   7   16.88    2.37
  -3   6  -7   14.34    3.85
  -3  -5   8   21.64    5.26
   3   5  -8   27.48    3.57
   3   5  -8   31.57    3.59
  -3  -5   8   29.24    3.76
  -6  -6  -8   78.17    5.13
   6   6   8   76.20    4.65
   6   6   8   74.65    5.10
   6   6   8   78.12    5.52
  -6  -6  -8   72.31    4.73
  -6  -6  -8   75.70    5.27
   6   6   8   80.94    5.78
   6   6   8   82.14    4.81
   6   6   8   79.87    4.08
   3   8   9   69.92    5.07
   3   8   9   80.38    4.67
  -3  -8  -9   74.73    5.40
  -6   5   1  148.58    8.58
  -6   5   1  172.66    8.36
  -6   5   1  146.17    6.79
  -6   5   1  168.97    5.37
  -6   4  -5   97.85    3.86
  -6   4  -5  109.09    5.74
   6  -4   5  110.40    6.87
  -6   4  -5  108.73    6.84
   6  -4   5  100.24    6.19
   7   4  -2   42.42    5.71
   7   4  -2   46.21    3.82
   7   4  -2   37.49    2.33
   7   4  -2   46.37    3.18
  -7  -4   2   49.14    5.31
   7   4  -2   45.28    3.88
   7   4  -2   52.49    5.69
   7   4  -2   45.76    4.96
   7   4  -2   52.61    3.73
  -7  -4   2   47.87    5.58
  -7   3  -2   26.10    5.41
   7  -3   2   23.19    4.73
  -7   3  -2   22.44    1.99
  -7   3  -2   19.45    1.50
  -7   3  -2   23.47    3.75
  -7   3  -2   25.88    5.53
   6   2  -6    1.86    4.79
  -6  -2   6   10.97    4.06
  -6  -2   6   14.40    4.67
   6   2  -6   10.00    2.68
  -7   3   0   82.91    7.01
  -7   3   0   68.49    5.04
  -7   3   0   73.14    3.51
  -1   8   8  150.59    6.97
   1  -8  -8   66.72    3.16
   1  -8  -8  149.97    5.76
  -1   8   8  130.96    6.84
  -2  -5 -12    4.36    3.28
   2   5  12    5.03    2.67
  -2  -5 -12    1.55    3.15
  -2  -5 -12    1.46    2.74
   2   5  12    1.62    2.77
   2   5  12    0.09    3.37
   2  -1  12    3.90    3.19
   2  -1  12    7.10    3.54
  -2   1 -12    2.88    3.12
  -2   1 -12    4.00    2.60
   6   5   9    6.50    1.98
  -6  -5  -9    7.80    2.83
  -6  -5  -9    8.03    3.46
   6   5   9    5.55    3.90
   6   5   9    7.80    2.80
  -6  -5  -9    6.01    3.26
   6   5   9    8.04    2.99
   6   5   9   10.33    4.97
  -6  -5  -9    8.10    3.14
  -2   9   2   61.42    5.09
  -2   9   2   78.10    4.79
  -2   9   2   71.22    4.91
   2  -9  -2   87.53    5.08
  -6   4   4  179.93   10.51
  -6   4   4  188.21    7.94
  -6   4   4  176.82    8.68
   6  -4  -4  184.19    7.69
  -6   4   4  183.94   10.28
   0  -3  11  138.37    7.62
   0  -3  11  119.16    6.53
   0   3 -11  131.56    6.50
   0   3 -11  132.72    7.08
  -2   8  -4   18.09    4.04
  -2   8  -4   16.93    4.00
  -2   8  -4   18.63    3.50
   2  -8   4   22.03    2.50
   3   6  -7  325.37   12.89
  -3  -6   7  299.55   12.69
   3   6  -7  331.89   13.21
  -2   9   1  173.88    9.09
  -2   9   1  214.48    9.05
   0  -1  12   23.18    4.35
   0   1 -12   19.26    3.19
   0  -1  12   22.26    3.25
   0   1 -12   21.07    3.27
   0   1 -12   20.87    3.10
   0  -1  12   20.32    3.30
   7  -2   5   -1.30    4.42
  -7   2  -5    1.53    4.65
  -7   2  -5    0.36    2.21
  -7   2  -5   -1.20    3.36
   7  -2   5   -2.23    4.27
   7  -2   5    2.15    3.30
  -4  -6   6  199.39    9.44
   4   6  -6   97.80    4.62
   4   6  -6  200.87    7.09
   3  -7  -7   11.29    2.94
  -3   7   7    9.73    2.12
  -3   7   7    7.53    2.77
  -5   2   8  104.71    6.85
  -5   2   8   90.93    7.44
   5  -2  -8  131.44    7.04
   5  -2  -8  122.88    5.70
  -5   2   8  100.32    5.00
   7   3  -3  212.15    9.06
   7   3  -3  212.32    8.89
  -7  -3   3  208.95   10.75
  -7  -3   3  203.34   10.98
   7   3  -3  212.92   10.32
   7   3  -3  216.86   11.03
   7   3  -3  196.47    9.14
   5   7  -3    7.14    3.42
   5   7  -3   12.36    3.75
  -5  -7   3    2.62    4.55
   5   7  -3    4.32    3.67
   5   7  -3    4.60    3.50
   5   7  -3    2.62    1.79
  -6   5  -2   47.48    5.80
  -6   5  -2   46.60    4.55
  -6   5  -2   51.03    5.85
   1   5  12   18.48    2.96
   1   5  12   22.04    3.06
   1   5  12   21.63    3.68
  -1  -5 -12   22.65    3.23
  -1  -5 -12   19.83    3.49
   3  -4 -10   65.74    4.14
   3  -4 -10   66.42    4.52
   3  -4 -10   75.04    4.77
  -3   4  10   71.52    4.40
  -3   4  10   75.05    4.49
   3   9   7   25.22    3.72
   3   9   7   18.18    3.63
   5   1  11   84.70    5.43
  -5  -1 -11   84.19    5.34
  -5  -1 -11   79.98    4.20
  -5  -1 -11   82.84    5.81
  -5  -1 -11   79.66    4.77
   5   1  11   84.99    6.06
   5   1  11   90.80    6.93
   7   6   3   54.60    4.16
   7   6   3   54.09    4.30
   7   6   3   50.85    5.30
   7   6   3   44.90    5.74
   7   6   3   51.50    6.16
   7   6   3   61.09    4.25
   3   8  -4   -2.00    3.85
   3   8  -4    0.06    2.67
   3   8  -4    3.25    2.43
  -3  -8   4    1.05    4.34
   3   8  -4    6.48    2.20
   2  -4 -11   89.95    5.12
   2  -4 -11   90.00    5.33
  -2   4  11   99.74    5.38
  -2   4  11   99.23    5.48
  -1   9  -2   43.66    4.33
  -1   9  -2   39.56    4.43
   1  -9   2   42.81    4.01
   1  -9   2   39.79    2.54
   1  -3 -12  109.91    6.05
  -1   3  12  113.36    6.32
   1  -3 -12  112.11    5.95
   1  -3 -12  108.69    6.22
   0   7  -7  283.76   11.69
   0   7  -7  243.42   11.79
   1   0 -12   54.97    4.08
  -1   0  12   58.47    4.20
  -1   0  12   51.91    5.13
   1   0 -12   51.37    4.10
   6  -2  -6  114.81    7.46
  -6   2   6  101.88    4.96
  -6   2   6   84.12    4.86
  -6   2   6  101.27    7.06
  -6   2  -8   17.46    4.09
  -6   2  -8   18.56    2.20
   6  -2   8   19.99    3.28
   6  -2   8   23.01    4.56
   6  -2   8   25.29    4.62
  -6   2  -8   23.25    3.04
  -6   2  -8   22.93    1.84
  -6   2  -8   23.96    5.10
  -4  -2 -12   32.16    3.09
   4   2  12   32.83    3.04
  -4  -2 -12   32.09    3.94
   4   2  12   31.80    5.09
  -4  -2 -12   31.95    3.54
  -4  -2 -12   34.45    4.13
   4   2  12   28.42    4.59
   4   2  12   31.69    3.70
  -4  -4   8    0.17    3.77
  -4  -4   8    4.29    4.78
   4   4  -8   -0.20    2.82
  -4  -4   8    2.26    1.67
  -2   9   3  216.41    9.29
  -2   9   3  192.86    9.43
   2  -9  -3  206.08    9.30
   7   6   4   37.31    5.85
   7   6   4   42.62    5.12
   7   6   4   38.63    5.67
   7   6   4   36.97    3.85
   7   6   4   33.48    3.66
   7   6   4   34.91    3.61
   7   6   2   43.91    3.82
   7   6   2   37.90    5.24
   7   6   2   44.21    5.77
   7   6   2   41.55    5.35
   7   6   2   42.62    3.61
   7   6   2   40.40    4.08
   7   2   8  160.59    8.81
  -7  -2  -8  157.90    7.67
  -7  -2  -8  154.96    7.26
   7   2   8  171.13   10.27
  -7  -2  -8  158.71    8.28
  -7  -2  -8  160.08    9.56
   7   2   8  169.29    9.91
  -4  -3 -12   14.39    3.58
   4   3  12   10.75    2.61
   4   3  12   15.32    4.68
  -4  -3 -12    8.60    3.13
   4   3  12   11.12    3.85
   4   3  12   11.87    3.05
  -2   9   0   12.93    3.49
   2  -9   0   20.69    3.54
  -2   9   0   20.01    3.56
  -2   9   0   22.86    4.08
   2  -9   0   14.40    2.03
  -1   8  -5   -0.09    3.50
  -1   8  -5    2.16    3.09
  -1   8  -5    2.23    3.28
   0  -8  -9  190.57    8.59
   0  -8  -9  161.76    7.53
   0   8   9  180.49    8.48
   5   4  11   -0.84    2.92
  -5  -4 -11    1.37    3.09
   5   4  11    3.90    2.78
   5   4  11    2.38    4.82
   5   4  11    2.72    2.25
  -5  -4 -11    5.51    3.25
  -5   5  -6    4.45    2.29
   5  -5   6    5.15    2.66
  -5   5  -6    4.75    4.45
   5  -5   6    1.62    3.41
   6   2  10   37.38    3.86
   6   2  10   34.37    5.52
  -6  -2 -10   27.01    2.08
  -6  -2 -10   34.15    3.35
  -6  -2 -10   31.10    4.23
  -6  -2 -10   36.28    3.73
   3   4  -9   53.39    4.20
  -3  -4   9   48.58    4.58
   3   4  -9   57.40    4.45
  -3  -4   9   49.21    5.80
   0   9   7  122.71    6.82
   0   9   7  141.39    6.81
   0  -9  -7   96.45    4.13
   0  -9  -7   74.31    3.77
  -6  -5   4  233.41   11.21
   6   5  -4  208.76    9.91
   6   5  -4  229.24    9.66
   6   5  -4  213.57   10.19
  -6  -5   4  241.51   11.72
   5  -6  -4   36.05    2.98
  -5   6   4   41.16    5.37
  -5   6   4   25.07    1.66
  -5   6   4   37.70    3.10
  -5   6   4   36.12    3.80
   4  -5  -8   50.99    3.82
  -4   5   8   52.61    3.81
   4  -5  -8   43.01    4.73
   7  -3   3    5.59    3.10
  -7   3  -3    7.02    5.01
  -7   3  -3   -0.14    4.68
  -7   3  -3    2.24    3.31
  -7   3  -3    2.95    1.82
  -7   3  -3    3.47    0.89
   7  -3   3    2.17    3.98
   5  -4  -7   42.11    3.39
  -5   4   7   46.59    3.58
   5  -4  -7   36.93    4.99
  -5   4   7   44.86    5.23
  -5   4   7   46.60    5.78
  -5   4   7   41.99    3.43
  -7   3   1   67.41    6.65
  -7   3   1   63.52    4.64
  -7   3   1   60.42    6.43
  -7   3   1   61.40    3.30
   2  -3  11   80.62    4.54
  -2   3 -11   72.45    4.25
  -2   3 -11   60.49    4.90
   2  -3  11   57.47    4.94
   7   5  -1    4.94    5.01
   7   5  -1    6.81    1.90
   7   5  -1    8.46    3.13
   7   5  -1   -0.52    4.26
   7   5  -1    7.62    2.92
  -7  -5   1    5.37    4.32
   7   5  -1    9.07    3.24
   7   5  -1    5.21    4.45
   6   4  -5   90.26    6.83
  -6  -4   5   87.94    6.02
  -6  -4   5   87.18    6.64
   6   4  -5   85.79    4.85
  -4   6  -6   16.23    3.97
  -4   6  -6   15.16    2.83
  -4   6  -6   13.53    4.43
   4  -6   6   14.38    2.79
   4  -6   6   22.50    3.06
  -6  -3 -10    3.95    2.24
   6   3  10    4.09    4.98
  -6  -3 -10    0.27    2.89
  -6  -3 -10    1.28    3.13
   6   3  10    1.88    1.83
   6   3  10    2.42    2.84
  -6  -3 -10    3.25    3.39
   6   3  10   -2.26    3.88
  -7  -1   4    2.89    4.33
   7   1  -4    2.80    4.80
  -7  -1   4    1.03    4.86
   7   1  -4    1.51    2.30
   7   1  -4    2.73    1.14
   5   8   7   66.17    4.94
   5   8   7   60.73    4.49
   5   8   7   69.05    4.87
  -5  -8  -7   62.17    4.94
  -5  -8  -7   64.45    4.78
   5   8   7   64.03    5.04
   5   8   7   69.90    6.53
   5   8   7   62.73    3.61
  -6   5   2   49.15    3.32
  -6   5   2   48.52    4.45
   7   3   8    1.77    2.65
  -7  -3  -8   -0.41    4.81
   7   3   8    5.00    4.97
   7   3   8    2.98    5.36
  -7  -3  -8    3.35    2.78
   7   3   8    0.10    3.89
  -7  -3  -8   -0.26    3.23
  -7  -3  -8    4.68    3.05
  -1  -9   3  105.17    6.74
   1   9  -3  110.16    6.39
   1   9  -3   98.73    6.10
   7   0  -4   19.29    5.10
  -7   0   4   13.54    2.23
  -7   0   4   20.10    4.65
   7   0  -4   15.15    2.62
  -7   0   4   17.58    5.11
  -2   8   7   15.12    2.71
  -2   8   7   12.05    3.13
   2  -8  -7   18.78    3.36
  -2   6  -8   -1.13    2.92
  -2   6  -8   -0.80    3.02
   2  -6   8    2.47    2.40
   2  -6   8    1.51    1.10
  -2   6  -8    3.71    3.41
   6  -3   7    5.45    4.03
  -6   3  -7    3.28    2.44
  -6   3  -7   -1.64    4.64
  -6   3  -7    2.24    3.64
  -6   3  -7    0.88    1.54
   6  -3   7    3.54    3.91
  -6   3  -7    0.32    1.55
  -4  -9  -6  129.68    7.36
   4   9   6  128.78    7.18
  -4  -9  -6  140.05    7.24
   4   9   6  146.13    7.41
  -1  -7   7   21.62    4.83
   1   7  -7   21.85    3.33
   1   7  -7   18.73    3.09
   5   8  -1    1.79    3.59
  -5  -8   1    0.90    4.42
   5   8  -1    2.11    2.33
   5   8  -1    2.45    3.10
   5   8  -1    2.45    3.69
   5   8  -1   -2.12    4.02
   5   8  -1    3.78    4.14
   5  -5  -6  104.02    5.30
  -5   5   6   97.10    7.64
  -5   5   6  105.99    5.93
  -5   5   6  118.44    5.59
   4   7  10    3.35    1.17
   4   7  10    3.14    3.00
   4   7  10    1.60    2.60
   4   7  10    5.67    4.75
  -4  -7 -10    4.93    3.44
   1  -9  -6    4.90    3.26
  -1   9   6    6.60    2.99
  -1   9   6   10.38    2.96
   4   8  -3  143.90    6.93
   4   8  -3  137.37    7.23
  -4  -8   3  131.58    8.00
   0   9  -3   83.68    5.77
   0   9  -3   92.83    5.83
   4   9   0   51.52    4.70
   4   9   0   45.44    4.78
   4   9   0   42.65    4.35
  -4  -9   0   46.68    5.17
  -4   7   5   84.20    6.46
  -4   7   5   91.76    4.88
  -4   7   5   78.79    4.19
   4  -7  -5   85.75    4.81
   3   5  12  211.75    8.90
  -3  -5 -12  200.77    9.82
   3   5  12  200.82   10.81
   3   5  12  190.95    9.37
  -3  -5 -12  220.53   10.11
   5   6  10   90.96    7.24
   5   6  10   83.53    4.34
  -5  -6 -10   81.77    5.47
  -5  -6 -10   89.98    5.87
   5   6  10   77.02    4.88
   5   6  10   73.24    5.20
   5   6  10   81.52    4.76
  -3   8   5   21.39    2.87
   3  -8  -5   22.81    3.29
   7  -2  -3  123.53    5.22
  -7   2   3  131.15    6.85
  -7   2   3  146.83    9.18
  -7   2   3  142.36    6.20
  -7   2   3  137.44    8.70
   8   2   2   22.80    2.39
   8   2   2   23.53    3.17
   8   2   2   23.04    2.25
   8   2   2   16.54    2.80
   8   2   2   19.02    5.30
  -8  -2  -2   20.89    5.13
  -8  -2  -2   21.72    3.29
  -1   7  -7   54.15    4.01
  -1   7  -7   40.55    4.21
  -2  -8   5   -6.34    4.48
   2   8  -5   -1.31    3.70
   2   8  -5   -2.64    2.94
   2   8  -5   -1.90    2.33
   2   8  -5    3.51    3.50
   2   8  -5    1.27    1.12
  -6   1  -9    9.63    2.80
  -6   1  -9   10.29    2.29
  -6   1  -9    7.81    1.60
   6  -1   9    7.62    4.43
  -6   1  -9    6.99    4.66
   6  -1   9    9.69    4.54
   4   1  12   34.31    3.72
  -4  -1 -12   36.69    3.15
  -4  -1 -12   31.61    4.17
  -4  -1 -12   41.08    4.00
   4   1  12   34.85    4.62
  -4  -1 -12   34.77    3.93
  -4  -1 -12   33.12    3.42
   4   1  12   39.53    5.24
  -8  -2  -3   -0.70    4.92
  -8  -2  -3    1.54    3.08
   8   2   3    6.51    2.89
   8   2   3    5.61    2.02
   8   2   3    2.66    2.45
   8   2   3    3.72    1.93
  -8  -1  -2  227.89   11.84
   8   1   2  190.91    7.92
   8   1   2  210.93   10.96
   8   1   2  220.08    9.28
   8   1   2  197.13    8.38
  -8  -1  -2  212.26    9.97
  -5  -2   8  144.78    8.59
  -5  -2   8  151.06    8.84
   5   2  -8  165.35    8.86
   5   2  -8  153.07    7.36
  -5  -2   8  142.61    7.67
  -7  -1  -8   79.21    7.09
   7   1   8   93.21    7.18
  -7  -1  -8   82.28    4.51
  -7  -1  -8   83.55    5.09
   7   1   8   72.64    7.24
   7   1   8   82.13    5.97
   7   6   5  212.82   11.89
   7   6   5  219.44   10.52
   7   6   5  214.64    9.70
   7   6   5  195.39    9.97
  -7  -6  -5  204.11    9.43
   7   6   5  213.22    9.51
   7   6   5  210.32   11.65
   5   5  -6    2.09    2.78
  -5  -5   6    3.62    3.78
  -1 -10  -3    5.23    3.59
   1  10   3   -1.56    3.81
  -1 -10  -3    7.00    3.49
  -1 -10  -3    6.66    3.32
   1  10   3    7.67    3.40
   4  -4   9   15.72    3.86
  -4   4  -9   13.83    4.18
  -4   4  -9   12.71    3.92
   4  -4   9   18.47    3.09
  -4   4  -9   15.34    2.52
   4  -4   9   14.61    3.67
   5   7   9   34.98    3.09
   5   7   9   31.16    3.04
  -5  -7  -9   36.69    4.31
   5   7   9   41.19    4.62
   5   7   9   40.88    3.72
  -5  -7  -9   32.36    4.05
  -1 -10  -2   72.79    5.24
  -1 -10  -2   86.27    5.54
   1  10   2   76.97    5.69
   1  10   2   82.56    5.61
  -6  -7  -7    5.96    3.41
  -6  -7  -7    9.69    3.47
   6   7   7    4.07    3.02
   6   7   7    9.04    4.96
   6   7   7    3.82    3.15
   6   7   7    5.58    2.45
  -6  -7  -7    8.89    3.24
   6   7   7    8.40    3.88
  -6   5  -3    8.02    4.84
  -6   5  -3    2.99    3.43
   6  -5   3    7.90    3.77
   6  -5   3    5.02    1.86
  -6   5  -3    7.84    4.62
   4  -6  -7   35.13    3.36
  -4   6   7   41.29    3.37
  -4   6   7   34.40    2.62
   4  -6  -7   27.23    4.45
   8   1   3  207.05   11.25
   8   1   3  197.28    9.24
   8   1   3  190.45    8.16
  -8  -1  -3  213.01    8.87
  -8  -1  -3  193.64    9.63
  -8  -1  -3  199.20   11.32
   8   1   3  193.20   10.86
   7   5   7   68.48    4.52
   7   5   7   71.57    5.48
   7   5   7   59.07    7.00
   7   5   7   69.77    4.59
  -7  -5  -7   68.06    4.84
  -7  -5  -7   66.32    4.82
  -7  -5  -7   62.03    4.58
   7   5   7   62.43    3.22
   7   5   7   67.32    4.14
   7   5   7   60.49    5.58
  -5   6  -4  470.31   20.78
  -5   6  -4  479.92   18.72
  -6  -1 -10  379.54   15.61
   6   1  10  399.04   17.38
   6   1  10  371.00   15.94
  -6  -1 -10  389.87   16.21
   6   1  10  357.78   17.44
   7   6   1    4.90    2.98
   7   6   1   14.49    4.83
   7   6   1    6.55    3.31
   7   6   1    2.71    4.76
   7   6   1    8.11    2.51
   7   6   1    8.85    3.22
   7   6   1    8.64    4.31
  -2  -2  11   69.15    3.84
  -2  -2  11   57.98    3.44
   2   2 -11   85.14    5.62
   4  -3  10    9.02    2.86
  -4   3 -10    0.24    2.20
   4  -3  10   -1.80    3.64
   4  -3  10   -1.19    3.62
  -4   3 -10    2.55    2.84
  -4   3 -10    0.55    3.87
  -4   3 -10    3.49    3.67
   4  -3  10    7.41    3.88
  -4   3 -10    2.13    1.89
  -2  -5   9    0.49    4.54
   2   5  -9    3.82    3.05
   2   5  -9    2.29    2.25
  -2  -5   9    1.12    2.97
  -3  -7   6  352.19   15.94
   3   7  -6  319.95   13.02
   3   7  -6  269.67   12.68
   4   6  11   41.56    3.37
  -4  -6 -11   44.95    4.33
   4   6  11   41.55    3.28
   4   6  11   42.16    5.78
  -2 -10  -3  209.86    9.95
   2  10   3  244.79   10.93
   2  10   3  217.65   10.87
  -2 -10  -3  226.15   10.19
  -2   9   4   56.94    4.12
   2  -9  -4   54.33    4.32
  -2   9   4   50.66    4.39
  -8  -1  -1  141.14    9.11
   8   1   1  131.52    8.54
  -8  -1  -1  130.91    6.83
   8   1   1  131.97    5.63
   8   1   1  132.60    6.63
  -3   8  -3  254.57   12.68
   3  -8   3  264.09   11.48
  -3   8  -3  253.53   12.58
  -3   8  -3  288.32   11.68
   3  -8   3  287.25   11.65
   2   6  -8  164.06    7.77
   2   6  -8  150.39    7.41
  -2  -6   8  120.96    5.77
   2   6  -8  141.71    7.05
   7   2  -4    2.92    4.97
  -7  -2   4    3.02    4.27
   7   2  -4    3.95    2.46
   7   2  -4    3.87    2.04
  -7  -2   4    6.83    4.72
   6   7  -1  463.03   19.60
   6   7  -1  465.78   19.55
   6   7  -1  463.65   19.55
   6   7  -1  521.45   20.76
   6   7  -1  488.37   20.36
   6   7  -1  470.00   20.38
   8   2   1   31.38    5.39
  -8  -2  -1   34.13    5.42
   8   2   1   23.51    3.07
   8   2   1   30.29    3.21
   8   2   1   31.44    2.33
   8   2   1   26.88    2.64
   8   2   1   26.63    5.32
   8   2   1   22.01    1.54
  -8  -2  -1   31.16    5.87
   8   2   1   24.30    5.82
  -8  -2  -1   30.03    3.31
   2   9   8    1.64    3.07
  -2  -9  -8    4.27    3.66
   2   9   8    1.88    3.16
   4   4  12  273.98   11.34
   4   4  12  269.54   13.54
   4   4  12  289.70   12.91
   4   4  12  265.07   11.90
  -4  -4 -12  264.43   11.69
   3   9  -2    7.89    3.49
   3   9  -2    8.11    2.18
  -3  -9   2    4.46    4.18
   3   9  -2    3.02    1.50
   3   9  -2    8.27    3.84
  -2 -10  -2  139.10    7.36
   2  10   2  140.20    7.72
   2  10   2  135.79    7.60
  -2 -10  -2  134.24    7.32
  -1  -3  11    2.76    4.45
   1   3 -11   -0.31    2.85
   1   3 -11   -0.25    2.50
  -1  -3  11   -0.50    2.50
   1   3 -11    5.23    3.36
   4   7  -5   38.14    2.86
   4   7  -5   39.63    2.93
   4   7  -5   54.70    4.70
   4   7  -5   54.26    4.40
  -4  -7   5   54.02    5.97
   4  -4  -9   81.42    4.68
  -4   4   9   82.78    4.77
   4  -4  -9   74.26    5.60
   4  -4  -9   71.83    4.04
   2  -9   1   20.35    3.56
  -2   9  -1   12.83    3.51
  -2   9  -1   17.97    3.07
  -2   9  -1   14.22    3.98
   2  -9   1   18.13    2.14
   0   5  12   88.21    5.59
   0   5  12   92.56    5.13
   0  -5 -12   82.61    5.28
   0  -5 -12   88.75    5.49
   0  -5 -12   80.16    5.04
  -4   7  -4    9.07    4.57
  -4   7  -4    8.93    2.82
   4  -7   4    9.07    2.49
   6   4  10  147.04    8.15
   6   4  10  137.23    9.08
   6   4  10  127.76    7.00
  -6  -4 -10  136.24    6.86
  -6  -4 -10  131.81    7.37
  -6  -4 -10  143.03    7.28
  -6  -4 -10  124.74    6.14
   6   4  10  136.47    5.97
   6   4  10  136.67    6.99
   8   2   4  142.12    9.06
   8   2   4  146.37    7.44
  -8  -2  -4  147.74    6.89
   8   2   4  143.43    6.10
  -8  -2  -4  142.44    7.54
   8   2   4  138.12    6.45
  -8  -2  -4  137.01    9.14
  -6  -6   3  290.71   13.46
  -6  -6   3  283.91   13.84
   6   6  -3  318.42   10.48
   6   6  -3  299.76   10.62
   6   6  -3  276.22    8.96
   6   6  -3  260.24    9.06
   6   6  -3  315.16    9.95
  -1 -10  -4    0.48    3.43
  -1 -10  -4    0.60    3.01
   1  10   4    1.37    3.30
  -1 -10  -4    1.70    3.51
   1  10   4   -6.07    3.79
   7  -1  -4  164.77    9.48
  -7   1   4  158.48    9.09
  -7   1   4  147.67    7.02
  -5  -6   5    2.88    4.86
  -5  -6   5    2.12    3.77
  -1 -10  -1  175.86    8.92
   1  10   1  190.18    9.41
  -1 -10  -1  193.80    8.97
  -5   0 -11  100.80    5.87
  -5   0 -11   99.21    4.78
  -5   0 -11  106.12    6.44
   5   0  11   94.30    6.36
   5   0  11  100.73    7.12
  -5   0 -11   91.42    5.22
  -2   6  10   74.36    4.49
   2  -6 -10   72.01    4.64
  -2   6  10   64.28    4.13
   2  -6 -10   67.58    4.87
  -2 -10  -4  111.78    6.25
   2  10   4  120.89    6.87
   2  10   4  111.39    6.89
  -2 -10  -4   94.10    5.81
   8   3   3  104.56    5.64
  -8  -3  -3   95.76    5.55
   8   3   3   98.92    7.05
   8   3   3   95.42    5.07
   8   3   3   95.19    7.99
   8   3   3   89.11    7.47
   8   3   3   99.05    5.00
  -8  -3  -3   94.36    7.40
   8   3   3   90.04    4.90
  -3   1  11  137.16    7.83
   3  -1 -11  134.14    6.68
   3  -1 -11  143.36    6.94
  -3   1  11  144.56    6.69
  -3   1  11  125.33    6.22
  -5   3  -9    4.49    4.27
   5  -3   9   -2.63    3.97
  -5   3  -9    3.19    2.68
  -5   3  -9    0.74    1.99
   5  -3   9    1.66    3.65
   5  -3   9    3.64    2.82
   5  -3   9   -5.47    3.62
  -5   3  -9    4.06    3.66
  -5  -4   7   62.84    4.46
   5   4  -7   63.32    4.28
  -5  -4   7   62.30    5.60
  -5  -4   7   61.03    6.35
  -7  -4  -8   95.96    5.41
   7   4   8   89.65    5.14
  -7  -4  -8   93.75    5.74
   7   4   8   88.45    7.49
   7   4   8   78.70    3.61
   7   4   8   92.90    6.17
  -7  -4  -8   87.54    5.87
  -1  -9  -8   71.59    4.93
   1   9   8   67.81    4.90
   1   9   8   79.05    5.00
  -1  -9  -8   53.01    3.11
  -3   1 -12   72.33    5.37
  -3   1 -12   71.34    4.97
   3  -1  12   73.70    5.47
   3  -1  12   73.15    4.95
   3  -1  12   80.93    5.72
  -3   1 -12   74.59    4.32
   8   3   2   16.66    5.08
  -8  -3  -2   16.47    2.98
   8   3   2   14.62    2.54
   8   3   2   16.46    2.31
   8   3   2   16.28    5.25
   8   3   2    8.38    5.76
   8   3   2    9.86    2.91
  -8  -3  -2   13.32    4.96
   8   3   2   10.92    1.15
   8   3   2   13.81    2.63
   8   3   2   17.00    2.91
  -2  -7 -11   49.44    3.66
   2   7  11   50.41    4.17
   2   7  11   48.12    3.84
  -2  -7 -11   47.46    4.68
   2   7  11   51.56    4.59
   2   9  -3   43.36    4.09
  -2  -9   3   45.25    5.11
   2   9  -3   41.57    3.88
   2   9  -3   48.50    4.68
   6   3  -6   96.90    6.99
   6   3  -6   85.82    4.93
  -6  -3   6   90.79    6.77
  -6  -3   6   92.01    6.27
   7  -1   7    8.68    4.70
  -7   1  -7    5.21    2.62
  -7   1  -7    1.86    3.61
   7  -1   7    5.16    3.58
   7  -1   7   -0.61    4.88
  -7   1  -7    9.84    4.88
  -7   1  -7    7.14    1.66
  -7   3  -4    9.46    2.23
  -7   3  -4   10.72    2.15
   7  -3   4   15.66    3.37
  -7   3  -4    7.28    3.67
  -7   3  -4    9.30    0.85
  -7   3  -4   11.08    5.04
   7  -3   4    8.24    4.31
  -7   3   2  151.12    7.63
  -7   3   2  165.51    9.56
  -7   3   2  147.17    6.49
  -7   3   2  153.16    9.39
  -5   3   8  171.63    9.85
  -5   3   8  198.43    8.47
   5  -3  -8  130.57    5.68
   5  -3  -8  218.50    8.56
   1  -4 -12   88.10    5.19
   1  -4 -12   86.39    5.38
   1  -4 -12   82.24    5.27
  -1   4  12   85.25    5.24
   1   2  13   53.95    4.62
  -1  -2 -13   45.22    4.39
   1   2  13   58.70    4.18
   1   2  13   56.16    4.78
  -1  -2 -13   60.15    4.53
  -1  -2 -13   51.41    4.04
  -1  -2 -13   53.93    4.38
   8   1   4   15.69    5.31
  -8  -1  -4   16.04    2.69
   8   1   4   14.38    3.37
  -1  -1  12  194.61    9.00
  -1  -1  12  209.55   10.13
   1   1 -12  199.70    9.35
   1   1 -12  190.65    9.73
   1   1 -12  220.62    9.28
   8   0   2  149.34    7.47
   8   0   2  142.75    8.98
  -8   0  -2  180.45   10.34
   8   0   2  155.31    9.40
  -8   0  -2  191.02   10.43
   2   2  13   13.44    3.68
   2   2  13   10.97    4.18
   2   2  13   12.20    2.95
  -2  -2 -13    9.79    3.37
  -2  -2 -13   16.20    3.35
  -2  -2 -13   12.15    3.36
  -2  -2 -13    8.77    2.96
  -2   7   9   16.31    2.75
  -2   7   9   18.44    3.08
   2  -7  -9    8.12    2.20
   2  -7  -9   19.23    3.43
  -4   1  10   82.23    5.85
  -4   1  10   95.93    5.17
  -4   1  10   87.70    6.74
   4  -1 -10  101.17    6.30
   4  -1 -10   89.75    4.90
   4  -1 -10   95.31    5.46
   1  -2  12   88.34    5.04
   1  -2  12   93.44    5.57
  -1   2 -12   85.87    4.95
  -1   2 -12   82.21    5.70
  -1   2 -12   85.59    5.43
  -1   2 -12   92.17    5.41
   4   8   9   79.32    5.55
  -4  -8  -9   74.22    5.37
   4   8   9   71.18    4.52
   4   8   9   73.25    5.25
   4   8   9   78.48    4.98
  -3   2  11  100.36    5.34
   3  -2 -11  107.42    5.91
   3  -2 -11  102.24    5.43
  -3   2  11  107.61    5.67
  -4   5  -8   35.14    4.73
   4  -5   8   35.76    3.97
   4  -5   8   30.56    3.41
   4  -5   8   37.74    3.86
  -4   5  -8   30.97    4.55
  -3   4 -10   31.92    3.14
  -3   4 -10   23.20    4.20
  -3   4 -10   34.02    3.17
   3  -4  10   30.46    4.08
   3  -4  10   27.19    4.00
   3  -4  10   31.50    3.50
  -6   5   3  175.39    7.48
  -6   5   3  166.73   10.09
  -6   5   3  164.98    8.52
   6  -5  -3  137.89    5.79
   0 -10  -2   87.58    5.62
   0  10   2  101.39    6.06
   0  10   2   88.25    5.97
  -1   7  10    2.11    2.46
   1  -7 -10    4.91    2.53
   1  -7 -10   -0.07    3.33
   1  -7 -10    3.18    3.02
  -2 -10  -1   11.33    4.02
   2  10   1    4.25    3.99
  -2 -10  -1   12.30    3.68
   2  10   1   10.65    3.75
   8   3   4  240.83   10.33
   8   3   4  251.67   11.32
  -8  -3  -4  238.26   11.17
   8   3   4  259.03   10.64
  -8  -3  -4  253.48   12.90
   8   3   4  258.14   12.94
  -8  -3  -4  256.60   10.83
   1   7  11   55.34    4.21
  -1  -7 -11   55.02    4.63
  -1  -7 -11   54.10    4.66
  -1  -7 -11   47.02    3.68
   1   7  11   54.27    4.03
   1   7  11   56.93    4.65
  -3   0  11   28.35    5.00
  -3   0  11   25.38    2.65
   3   0 -11   25.60    3.49
   3   0 -11   25.39    3.04
  -7   2  -6   71.25    5.71
  -7   2  -6   66.34    6.71
   7  -2   6   76.89    6.48
   7  -2   6   72.52    6.39
  -7   2  -6   72.12    4.24
   7  -2   6   75.69    5.51
  -7   2  -6   74.14    4.38
   8   0   1  153.64    9.14
  -8   0  -1  163.20   10.10
   8   0   1  152.06    9.54
   8   0   1  160.22    7.57
  -8   0  -1  168.15    8.29
  -8   0  -1  171.02   10.35
  -4  -3   9   -0.66    3.96
   4   3  -9    1.86    2.85
  -4  -3   9   -0.11    4.73
  -4  -3   9    1.72    2.41
   0  10   3   19.19    3.98
   0 -10  -3   24.09    3.94
   0  10   3   28.84    3.91
   0 -10  -3   27.90    3.76
   5  -4   8    4.23    2.71
  -5   4  -8    2.04    2.05
  -5   4  -8    5.23    4.38
  -5   4  -8    2.97    3.68
   5  -4   8    0.09    3.31
   5  -4   8    7.96    3.75
   4   0 -10   44.38    3.46
  -4   0  10   37.25    2.33
  -4   0  10   44.22    4.33
  -4   0  10   47.78    5.33
   4   0 -10   52.22    4.04
  -8  -1   0   15.68    5.59
   8   1   0   23.47    2.89
   8   1   0   22.11    2.28
   8   1   0   18.97    4.87
  -8  -1   0   14.50    5.20
   8   0   3   37.80    5.91
  -8   0  -3   38.35    4.13
  -8   0  -3   36.13    2.89
   8   0   3   31.92    2.55
   8   0   3   34.24    3.91
  -2  -3 -13   44.99    4.20
  -2  -3 -13   34.88    3.95
  -2  -3 -13   41.79    3.65
  -2  -3 -13   33.18    3.85
   2   3  13   39.71    3.56
   2   3  13   34.65    3.62
   2   3  13   37.30    5.10
   2   3  13   42.27    4.43
  -2  -4  10   70.69    6.18
   2   4 -10   62.11    4.93
   2   4 -10   70.60    3.91
  -2  -4  10   59.69    4.77
   1   1  13   12.08    3.69
  -1  -1 -13   13.55    3.10
   1   1  13   11.23    3.39
   1   1  13   10.34    4.13
  -1  -1 -13   12.45    3.30
  -1  -1 -13    8.56    3.36
  -1  -1 -13    9.57    2.92
  -6   4  -6   31.23    2.88
   6  -4   6   40.53    5.00
   6  -4   6   38.02    4.25
  -6   4  -6   30.11    5.35
  -6   4  -6   20.21    1.86
  -6   4  -6   30.42    4.43
   5   5  11  300.11   11.90
   5   5  11  284.50   12.52
   5   5  11  291.74   14.45
  -5  -5 -11  314.12   13.58
  -5  -5 -11  297.03   13.15
   5   5  11  278.20   12.79
  -1  -3 -13   74.62    5.03
   1   3  13   76.94    4.59
   1   3  13   62.57    4.61
   1   3  13   77.65    5.32
  -1  -3 -13   65.78    4.87
  -1  -3 -13   68.33    4.61
  -1  -3 -13   66.24    4.87
   8   3   1   45.11    6.39
   8   3   1   39.74    3.63
   8   3   1   42.55    3.47
   8   3   1   42.12    5.68
  -8  -3  -1   48.63    5.79
   8   3   1   46.85    6.09
  -8  -3  -1   44.35    3.57
  -8  -3  -1   46.22    6.25
   8   3   1   45.95    3.29
   8   3   1   43.35    3.46
   8   3   1   44.07    2.53
  -5   2 -10    4.18    3.44
   5  -2  10    2.31    2.85
   5  -2  10    3.06    3.39
  -5   2 -10   -0.93    2.08
   5  -2  10    1.64    4.31
  -5   2 -10    0.55    4.20
   5  -2  10    5.61    3.99
  -5   2 -10    3.24    2.98
   2   8  10   84.05    5.39
   2   8  10   86.61    5.14
   2   8  10   84.53    5.67
  -2  -8 -10   82.81    5.73
  -7  -6  -6  320.79   13.92
   7   6   6  325.86   14.58
   7   6   6  330.70   16.03
  -7  -6  -6  333.34   14.15
   7   6   6  331.83   13.77
   7   6   6  330.89   16.27
   7   6   6  325.97   14.07
   7   6   6  320.89   14.50
   6   8   3   13.13    4.42
   6   8   3    9.42    3.68
   6   8   3   11.93    3.52
   6   8   3   12.28    4.58
   6   8   3   10.76    2.94
   6   8   3   18.28    5.21
   7   4  -3   23.72    3.32
  -7  -4   3   28.24    5.32
   7   4  -3   28.51    5.06
   7   4  -3   26.07    2.80
  -7  -4   3   23.06    4.67
   7   4  -3   22.42    4.09
   7   4  -3   24.80    3.11
  -3   5  -9    4.29    3.45
   3  -5   9    7.59    3.28
  -3   5  -9    5.90    3.71
   3  -5   9    6.49    2.78
   3  -5   9    6.89    2.95
   8   2   0  136.41    6.20
  -8  -2   0  122.06    6.23
  -8  -2   0  132.23    8.56
  -8  -2   0  135.31    8.84
   8   2   0  132.58    8.72
   8   2   0  123.01    5.45
   8   2   0  125.77    5.95
   8   2   0  136.20    8.36
   8   2   0  121.70    5.36
  -1   9  -3    6.91    3.55
  -1   9  -3    2.66    3.70
  -6   0   7  123.77    7.70
  -6   0   7  120.66    8.43
   6   0  -7  148.80    8.11
   6   0  -7  142.31    6.25
   1  -6 -11    6.10    3.42
  -1   6  11    7.46    3.07
   1  -6 -11    2.26    3.07
  -1   6  11    7.20    2.50
   1  -6 -11    6.74    2.76
   6   8   4    5.16    3.46
  -6  -8  -4    9.63    3.51
   6   8   4   11.88    4.17
   6   8   4   11.53    4.96
   6   8   4   12.17    4.57
   6   8   4    8.99    3.62
   6   8   4    8.02    3.21
  -3   6   9   37.92    3.45
   3  -6  -9   28.77    3.72
  -3   6   9   29.27    2.84
   3  -6  -9   31.62    3.66
   6  -4  -5  191.20    8.13
  -6   4   5  189.16   10.85
  -6   4   5  194.84   11.05
  -6   4   5  211.28    8.66
  -6   4   5  189.43    9.19
   6  -3  -6   40.60    5.54
  -6   3   6   43.06    5.46
  -6   3   6   35.84    3.41
  -6   3   6   40.93    3.20
   6  -3  -6   39.75    3.11
   2   1  13   66.73    5.13
  -2  -1 -13   46.75    4.51
   2   1  13   57.40    5.37
  -2  -1 -13   54.63    4.04
  -2  -1 -13   58.22    4.60
  -2  -1 -13   65.42    4.61
   3   9   8   33.73    3.90
   3   9   8   28.47    3.90
   0 -10  -1   56.85    4.81
   0  10   1   45.11    4.74
   3   3 -10   62.77    4.40
  -3  -3  10   52.21    4.66
  -3  -3  10   62.83    5.62
   3   3 -10   64.38    4.94
   4   9   7   23.23    3.78
   4   9   7   27.29    3.91
  -4  -9  -7   23.76    3.95
  -4  -9  -7   15.29    3.85
  -4   2 -11   25.27    4.09
   4  -2  11   26.23    4.29
   4  -2  11   24.95    4.07
   4  -2  11   30.44    3.48
  -4   2 -11   28.45    3.57
  -4   2 -11   32.01    2.90
  -2 -10  -5  102.23    5.78
   2  10   5  145.26    7.37
   2  10   5  120.39    7.37
  -2 -10  -5  117.75    6.60
  -4   0 -12  124.55    7.15
  -4   0 -12  130.41    6.86
   4   0  12  122.82    7.70
   4   0  12  122.40    7.35
  -4   0 -12  118.85    5.87
   7   6   0   54.26    3.68
   7   6   0   56.14    6.19
   7   6   0   56.55    5.70
   7   6   0   43.80    5.89
   7   6   0   53.08    4.30
   7   6   0   52.14    4.43
   7   6   0   52.33    4.41
   3  -7   6   -0.95    2.27
  -3   7  -6    0.26    2.95
  -3   7  -6    1.59    3.66
  -3   7  -6    0.21    3.61
   7   0   8  172.11    9.81
  -7   0  -8  158.60    8.62
  -7   0  -8  172.52    7.94
   7   0   8  161.84    8.77
  -7   0  -8  159.10    9.84
   7   0   8  171.27    9.95
  -7   0  -8  162.40    7.19
  -1 -10  -5   64.85    5.02
   1  10   5   79.36    5.36
  -1 -10  -5   65.26    4.28
   1  10   5   72.25    5.40
   0   2 -12    3.82    3.49
   0  -2  12   11.78    2.89
   0   2 -12    6.32    3.00
   0   2 -12    9.38    2.96
   0  -2  12    8.46    4.39
   0  -2  12    7.36    2.16
   6   6   9  208.67    9.34
   6   6   9  200.82    9.77
  -6  -6  -9  221.68   10.18
   6   6   9  208.26    9.78
  -6  -6  -9  218.34    9.84
  -6  -6  -9  199.35    9.34
   6   6   9  207.08    8.71
   6   6   9  215.70   10.44
   6   6   9  213.32    9.40
   4  -2 -10   38.06    4.58
  -4   2  10   31.02    2.78
  -4   2  10   34.89    3.50
   4  -2 -10   30.49    2.80
   4  -2 -10   34.68    3.79
   2   7  -7    1.30    2.66
   2   7  -7    0.90    3.66
   2   7  -7   -0.35    2.73
  -8  -2  -5   23.58    3.13
   8   2   5   23.09    3.73
   8   2   5   21.90    5.50
  -8  -2  -5   24.56    3.81
   3   7  11    8.11    2.75
   3   7  11    6.08    3.04
  -3  -7 -11    8.06    3.53
  -3  -7 -11    8.56    3.71
   3   7  11    7.79    3.66
   1  10   0   48.63    4.75
   1  10   0   32.58    2.93
  -1 -10   0   61.16    4.86
  -1 -10   0   56.21    4.95
   4   9  -1   98.88    5.77
  -4  -9   1  105.82    7.05
   4   9  -1   87.17    5.81
   1   8  10    0.07    2.80
  -1  -8 -10    3.72    3.28
  -1  -8 -10   -0.22    2.18
  -1  -8 -10    5.58    3.55
   1   8  10    4.26    3.31
   1   8  10    0.41    2.94
   6   8   2   52.26    5.68
   6   8   2   45.99    5.13
   6   8   2   46.36    4.38
   6   8   2   38.73    3.54
   6   8   2   47.43    4.56
   6   8   2   43.09    5.74
  -5   6   5   80.53    4.29
  -5   6   5   79.32    6.65
  -5   6   5   81.38    5.01
   5  -6  -5   76.44    4.34
   2   6  12    1.93    3.53
  -2  -6 -12    1.29    2.66
  -2  -6 -12    1.72    3.53
   2   6  12    2.42    2.86
   2   6  12    2.30    2.75
  -2   2 -12  120.31    6.01
   2  -2  12  117.51    6.91
  -2   2 -12  117.36    6.87
   2  -2  12  133.09    6.72
   5   9   3   53.72    5.03
   5   9   3   54.04    5.02
   5   9   3   51.31    6.14
   5   9   3   49.34    4.07
   5   9   3   58.94    5.85
  -5  -9  -3   58.48    4.95
  -6   5  -4   16.73    5.16
   6  -5   4   11.68    3.88
  -6   5  -4   12.19    3.89
   0  10   4   12.10    3.48
   0  10   4   15.96    3.58
   0 -10  -4   13.51    3.51
  -2   9   5   70.13    4.86
  -2   9   5   80.40    4.70
   2  -9  -5   75.47    4.98
  -7  -5   2    2.17    4.55
  -7  -5   2    1.31    4.12
   7   5  -2    0.97    4.46
   7   5  -2   -3.28    2.40
   7   5  -2   -0.48    2.72
   7   5  -2   -0.71    3.90
   7   5  -2   -0.41    1.16
   7   5  -2    0.57    3.21
   7   5  -2    1.77    3.11
   7   5  -2    1.35    5.01
   3  10   3  166.45    8.76
   3  10   3  174.87    8.81
  -3 -10  -3  162.52    8.21
  -6   1   7  178.87    9.68
   6  -1  -7  192.02    5.49
  -6   1   7  180.88    7.19
   6  -1  -7  203.00    7.75
  -6   1   7  175.39    9.09
  -6   0 -10    7.59    2.54
  -6   0 -10   10.81    4.63
  -6   0 -10    9.04    1.82
  -6   0 -10    8.21    3.12
   6   0  10    9.95    4.58
   6   0  10   12.25    5.00
   6   1  -7   -0.20    4.69
   6   1  -7   -1.62    2.78
  -6  -1   7    3.22    3.96
  -6  -1   7   -1.99    4.87
  -4   8   1   15.44    2.60
  -4   8   1   18.29    4.71
  -4   8   1   21.57    3.96
  -4   8   1   13.34    4.62
   3  -3  11  102.97    5.89
   3  -3  11   96.69    6.34
   3  -3  11  107.94    6.09
  -3   3 -11  100.58    6.53
  -3   3 -11  108.79    5.41
   5   9   4   76.83    6.55
   5   9   4   69.93    4.51
   5   9   4   72.94    5.87
   5   9   4   79.12    5.25
   5   9   4   68.94    5.18
  -5  -9  -4   73.58    5.27
  -5  -9  -4   74.72    5.34
   8   0   0  223.13    8.32
   8   0   0  167.01    6.93
  -8   0   0  233.15   10.69
  -8   0   0  246.97   12.63
   2  -8   5   26.48    2.73
  -2   8  -5   16.78    4.02
  -2   8  -5   25.81    4.15
  -2   8  -5   24.51    3.66
  -5  -8  -8    4.21    3.32
   5   8   8    4.73    2.04
   5   8   8    4.21    3.26
   5   8   8    1.77    4.87
  -5  -8  -8   -2.22    3.64
  -5  -8  -8    4.73    3.54
   5   8   8    3.58    2.97
   5   8   8    1.91    3.63
  -2   1  12   19.08    4.39
   2  -1 -12   22.00    3.66
   2  -1 -12   18.02    3.11
  -2   1  12   16.80    2.86
   2  -5 -11   21.51    3.34
  -2   5  11   24.22    3.32
  -2   5  11   19.76    3.20
   2  -5 -11   26.35    3.64
  -5   7   0    3.80    4.43
  -5   7   0   -2.36    3.76
  -5   7   0    1.42    4.71
   2  -7   7    6.98    2.38
  -2   7  -7    5.89    3.54
  -2   7  -7    5.22    3.32
  -5   7   1   28.13    5.36
  -5   7   1   15.73    3.98
  -5   7   1   24.53    5.02
  -8   0  -4  158.27    8.15
   8   0   4  154.07    9.57
  -8   0  -4  150.34    7.00
   8   0   4  147.86    7.84
  -4   8   0   13.20    4.67
  -4   8   0    8.89    4.32
  -4   8   0    9.83    2.59
  -4   8   0   12.55    3.87
   7   3  -4   20.08    5.30
   7   3  -4   19.85    2.80
   7   3  -4   19.66    2.68
  -7  -3   4   15.60    5.00
  -7  -3   4   19.40    4.70
   6   8   5   13.04    3.72
  -6  -8  -5   18.25    3.75
   6   8   5   16.26    3.53
   6   8   5   17.31    4.17
  -6  -8  -5   17.86    3.62
   6   8   5   16.81    3.72
   6   8   5   16.99    5.13
   6   8   5   19.64    4.94
  -3 -10  -4   84.58    5.74
   3  10   4   80.79    5.84
   3  10   4   85.77    5.92
  -3 -10  -4   78.67    5.47
   2  -2 -12   30.81    3.85
   2  -2 -12   27.81    3.24
  -2   2  12   25.48    4.38
  -2   2  12   24.26    3.09
  -8  -1  -5  115.57    5.96
   8   1   5  103.56    7.86
   8   1   5  100.60    6.12
   8   3   5   78.54    5.34
   8   3   5   63.86    3.89
  -8  -3  -5   78.84    4.75
   8   3   5   76.36    4.35
   8   3   5   82.81    7.06
  -8  -3  -5   69.07    5.11
  -8  -3  -5   71.50    6.81
  -3 -10  -2  147.97    7.91
   3  10   2  151.23    8.20
   3  10   2  150.25    8.20
   0   8  -6   12.21    1.99
   0   8  -6   18.01    3.57
   0   8  -6   21.99    3.84
   3  -5 -10  127.36    6.43
   3  -5 -10  121.70    6.17
   3  -5 -10  127.21    6.56
  -3   5  10  130.65    6.46
   0   2  13   61.59    4.64
   0  -2 -13   64.74    4.49
   0  -2 -13   55.15    4.59
   0  -2 -13   58.98    4.38
   0   2  13   60.33    4.28
   0   2  13   54.09    4.81
   0  -2 -13   57.99    4.66
  -2   9  -2   37.43    4.61
   2  -9   2   39.60    2.80
   2  -9   2   42.20    3.96
  -2   9  -2   34.16    3.93
  -1  -6 -12   36.21    3.47
  -1  -6 -12   35.02    4.15
   1   6  12   38.05    4.31
   1   6  12   40.82    3.63
   1   6  12   36.03    3.66
  -4   8   2   29.60    4.06
  -4   8   2   27.15    3.22
  -4   8   2   27.02    2.73
  -4   8   2   23.99    4.97
  -3   8   6   12.47    3.10
  -3   8   6   12.65    2.45
   3  -8  -6   10.45    3.15
  -5  -8   2    7.39    4.87
   5   8  -2    6.03    3.61
   5   8  -2    5.18    3.89
   5   8  -2   10.11    3.94
   5   8  -2    4.59    2.13
   5   8  -2    4.03    3.73
   8   4   3   -0.45    2.47
   8   4   3    3.43    4.85
   8   4   3    1.06    5.50
  -8  -4  -3    3.30    2.77
   8   4   3    1.58    1.16
   8   4   3   -1.02    4.86
   8   4   3    0.57    2.65
   8   4   3    1.28    2.87
  -8  -4  -3   -1.68    4.78
   5   9   2   12.83    4.78
   5   9   2   14.89    4.67
   5   9   2   15.35    3.95
   5   9   2    8.02    3.96
   5   9   2   14.76    2.82
  -5  -9  -2    8.41    4.44
  -4  -1  10   30.45    3.96
  -4  -1  10   38.48    5.07
   4   1 -10   34.09    3.09
  -4  -1  10   36.65    5.42
   4   1 -10   41.35    3.79
   3   8  10  157.64    7.52
  -3  -8 -10  169.87    8.76
   3   8  10  162.52    8.10
   5   7  -4    0.94    1.44
   5   7  -4    5.55    3.22
  -5  -7   4    2.86    4.78
   5   7  -4    0.58    1.59
   5   7  -4    2.95    3.38
   0   5 -10   16.66    3.45
   0   5 -10   15.22    3.22
   0  -5  10   20.61    3.01
   0   5 -10   13.96    3.34
   1  -9  -7    3.16    3.27
  -1   9   7    6.01    2.98
  -1   9   7   -2.91    2.87
   3  -3 -11   48.83    4.15
  -3   3  11   51.24    3.80
  -3   3  11   53.87    3.96
   3  -3 -11   44.14    3.56
  -2 -10   0   41.14    4.34
   2  10   0   24.56    3.15
   2  10   0   31.46    4.42
  -2 -10   0   33.82    4.61
  -4  -5 -12  245.60   11.21
   4   5  12  247.52   12.73
   4   5  12  235.94   10.75
   4   5  12  247.29   10.31
   4   5  12  246.70   11.68
   0  -9  -8  125.74    5.95
   0   9   8  182.11    8.58
   0  -9  -8  165.81    7.48
   3   2  13   74.76    6.15
   3   2  13   67.58    5.56
  -3  -2 -13   62.08    4.71
   3   2  13   70.83    4.43
  -3  -2 -13   65.30    5.06
  -3  -2 -13   75.66    5.18
  -3  -2 -13   70.25    4.36
  -1   8   9  244.74   11.46
   1  -8  -9  225.69   10.33
  -1   8   9  288.15   11.54
   1  -8  -9  281.21   11.25
   7  -2  -4  155.12    9.22
  -7   2   4  150.26    7.19
  -7   2   4  146.32    6.66
  -7   2   4  156.22    9.24
  -1   5 -10   49.33    4.14
   1  -5  10   53.84    4.14
  -1   5 -10   52.22    3.94
  -1   5 -10   46.49    4.44
   8   4   2    2.80    2.77
  -8  -4  -2    3.84    4.76
   8   4   2   -2.82    5.20
  -8  -4  -2    5.52    2.57
   8   4   2    4.06    2.98
   8   4   2    1.57    2.45
   8   4   2    1.88    1.50
   8   4   2    3.98    5.09
   8   4   2   -1.36    6.12
   8   4   2    6.32    2.75
   0  -1 -13  158.85    7.87
   0  -1 -13  158.31    7.56
   0  -1 -13  151.04    7.94
   0   1  13  154.67    8.06
   0   1  13  156.10    7.86
  -6  -5 -10   39.63    4.34
   6   5  10   33.83    3.91
   6   5  10   40.51    4.93
   6   5  10   37.06    3.55
   6   5  10   38.06    2.84
  -6  -5 -10   33.58    3.45
  -6  -5 -10   38.84    4.10
   6   5  10   42.55    5.93
  -6  -5 -10   39.65    4.30
  -4   7   6   54.16    3.86
  -4   7   6   48.06    3.08
   4  -7  -6   50.11    3.91
  -4   7   6   54.97    5.67
   3  -7  -8   43.52    3.89
  -3   7   8   36.15    3.10
  -3   7   8   40.00    3.58
   3  -7  -8   32.87    3.99
  -2  -4 -13   80.01    5.33
   2   4  13   90.04    4.68
  -2  -4 -13   74.10    5.13
   2   4  13   83.37    5.53
  -2  -4 -13   90.42    5.53
   1   8  -6  132.59    6.75
   1   8  -6  117.65    6.60
  -1  -8   6  115.65    7.52
  -8  -3   0   64.15    3.91
   8   3   0   67.23    3.83
   8   3   0   63.90    4.13
  -8  -3   0   61.47    6.31
   8   3   0   64.27    6.41
   8   3   0   68.88    6.54
   8   3   0   66.99    4.01
   8   3   0   66.79    6.84
   8   3   0   60.61    3.35
  -8  -3   0   64.58    6.65
   8   3   0   52.81    4.24
  -5  -3   8  182.38    8.82
  -5  -3   8  182.17    9.89
   5   3  -8  201.04    9.03
  -5  -3   8  187.84   10.27
   0  10   0  253.43    9.31
   0 -10   0  261.01   11.66
   0  10   0  152.08    7.41
   6   7   8  150.70    7.82
   6   7   8  160.52    7.61
  -6  -7  -8  159.44    8.08
   6   7   8  142.61    7.13
   6   7   8  160.69    8.03
   6   7   8  162.29    9.71
  -6  -7  -8  169.22    8.37
  -6  -7  -8  150.88    7.71
  -5   7  -1   26.23    2.24
  -5   7  -1   33.40    5.06
  -5   7  -1   31.87    5.42
  -5   7  -1   20.43    4.17
   3   1 -11    4.59    2.51
  -3  -1  11    5.79    2.91
  -3  -1  11    6.00    4.52
  -3  -1  11    4.76    1.68
   3   1 -11    6.82    3.06
   3   3  13  259.70   11.11
  -3  -3 -13  256.56   11.60
   3   3  13  258.01   12.37
   3   3  13  272.07   12.97
  -3  -3 -13  258.18   11.65
  -3  -3 -13  245.86   11.30
   8   4   4   32.11    3.23
   8   4   4   33.43    5.17
   8   4   4   34.10    3.13
   8   4   4   31.23    3.16
   8   4   4   33.95    3.83
   8   4   4   29.10    6.11
   8   4   4   26.81    1.47
   8   4   4   32.88    5.66
  -8  -4  -4   34.27    3.70
  -8  -4  -4   36.91    5.66
   0   6  -9   22.05    3.50
   0   6  -9   26.04    3.91
   0   6  -9   23.68    3.78
   0  -6   9    8.58    1.06
   0  -6   9   10.30    1.11
   5   9   5  233.61   11.21
  -5  -9  -5  231.80   10.89
  -5  -9  -5  238.45   10.81
   5   9   5  227.14    9.79
   5   9   5  256.85   10.12
   5   9   5  243.56   10.22
  -1   0 -13    1.27    2.83
   1   0  13    1.27    3.85
  -1   0 -13    3.09    3.13
  -1   0 -13    2.69    2.94
   1   0  13    4.15    3.20
   1   0  13    4.46    3.55
  -7   4  -1   15.71    5.31
  -7   4  -1   12.89    4.97
  -7   4  -1   11.65    3.55
  -7   4  -1    5.80    1.32
  -7   4  -1    8.76    1.79
  -5   7   2   72.88    6.71
  -5   7   2   71.32    4.11
  -5   7   2   86.99    5.73
  -5   7   2   78.36    6.62
  -8  -1   1   12.44    5.05
   8   1  -1   17.08    5.25
  -8  -1   1   16.85    5.46
   8   1  -1   11.19    2.34
   8   1  -1   12.45    4.67
   1   4  13    8.35    2.64
  -1  -4 -13    5.84    3.09
   1   4  13    8.42    2.94
  -1  -4 -13    8.53    3.29
  -7  -5  -8    1.08    3.36
   7   5   8    2.36    3.77
  -7  -5  -8    0.97    3.26
  -7  -5  -8    3.90    3.20
   7   5   8   -0.28    2.85
   7   5   8    6.50    2.51
   7   5   8    4.36    1.69
   7  -3   5   78.94    5.46
  -7   3  -5   78.94    6.93
  -7   3  -5   79.84    5.78
  -7   3  -5   63.37    2.70
  -7   3  -5   74.81    3.95
  -7   3  -5   64.77    2.72
  -5   6  -5   21.72    2.78
  -5   6  -5   28.12    5.20
  -7   3   3   87.45    5.28
  -7   3   3   84.93    7.18
  -7   3   3   91.09    7.46
   7  -3  -3   62.13    2.88
  -7   3   3   87.13    4.41
  -1  -9   4   88.10    6.48
   1   9  -4   82.02    5.69
   1   9  -4   91.01    5.91
  -2   0  12   14.05    4.28
  -2   0  12    7.97    2.65
   2   0 -12   11.75    2.90
   6   8   1   32.81    3.48
   6   8   1   43.59    5.81
   6   8   1   44.26    5.45
   6   8   1   38.76    4.20
   6   8   1   47.29    5.16
   6   8   1   41.18    4.48
   0  -3 -13   10.63    3.16
   0  -3 -13    8.14    3.15
   0  -3 -13    7.59    3.22
   0   3  13    6.85    2.93
   0   3  13    7.91    3.31
   0   3  13    7.05    3.05
   8  -1   2   29.59    5.39
  -8   1  -2   38.69    4.12
  -8   1  -2   40.46    6.21
  -8   1  -2   28.30    2.29
   8  -1   2   38.37    3.84
   7   2   9   56.92    6.35
  -7  -2  -9   49.65    4.92
  -7  -2  -9   55.25    6.16
  -7  -2  -9   53.80    4.34
  -7  -2  -9   52.14    3.85
   7   2   9   56.13    4.42
   7   2   9   48.85    6.47
   7   2   9   48.56    5.19
  -7   4   0   70.04    3.65
  -7   4   0   72.92    5.19
  -7   4   0   72.90    6.99
  -3  -6 -12    3.97    3.54
   3   6  12    2.76    3.02
   3   6  12    2.44    3.68
  -3  -6 -12    4.18    3.58
   3   6  12    3.77    2.77
  -4   8  -1    0.12    2.63
  -4   8  -1    7.86    4.03
  -4   8  -1    2.49    4.46
   4  -8   1    1.34    2.88
   0   9  -4   71.00    5.19
   0   9  -4   52.85    5.05
   6   7  -2  355.32   15.40
   6   7  -2  353.88   15.75
   6   7  -2  335.79   14.87
  -6  -7   2  327.08   15.26
   6   7  -2  336.32   14.86
   6   7  -2  375.87   15.81
   6   7  -2  339.92   14.83
  -3   8  -4    4.35    3.23
   3  -8   4    3.59    2.16
  -3   8  -4    2.51    3.84
  -3   8  -4    6.41    4.28
   3   8  -5    6.97    2.46
   3   8  -5    0.94    1.13
  -3  -8   5    1.23    4.61
   3   8  -5   -1.25    2.91
   3   8  -5    1.94    3.96
   0   7  11   27.99    3.34
   0  -7 -11   21.48    3.86
   0   7  11   16.47    3.09
   0  -7 -11   22.61    2.94
   0   7  11   27.17    3.80
   0  -7 -11   19.94    3.67
  -8   1  -1  126.06    8.67
  -8   1  -1  117.02    6.85
   8  -1   1  127.82    8.30
   8  -1   1  116.12    6.28
  -8   1  -1  130.42    8.87
   7   3   9    2.91    3.87
   7   3   9    3.59    4.96
  -7  -3  -9    6.31    2.95
   7   3   9    2.47    5.12
  -7  -3  -9    1.86    3.14
   7   3   9    3.19    2.96
  -7  -3  -9    3.88    3.55
  -5   5  -7   32.67    5.39
   5  -5   7   26.37    4.16
   5  -5   7   29.33    3.40
   5  -5   7   36.98    4.04
   3  -6   8   23.94    2.61
  -3   6  -8   25.19    4.11
   3  -6   8   25.46    3.17
  -3   6  -8   22.20    4.28
   3  -6   8   32.92    3.77
  -5   0   9    2.16    3.85
   5   0  -9    7.88    4.56
  -5   0   9    7.57    4.75
   5   0  -9    2.81    2.97
   5   0  -9    7.20    2.11
  -3 -10  -5  117.19    6.67
   3  10   5  125.25    7.33
   3  10   5  129.42    7.25
  -3 -10  -5  112.38    6.28
   2  -8  -8   33.22    3.25
   2  -8  -8   46.26    4.07
  -2   8   8   49.77    3.96
  -2   8   8   41.43    3.52
   5  -1  -9   27.76    2.52
   5  -1  -9   40.32    5.14
  -5   1   9   30.12    5.36
  -5   1   9   31.28    4.62
  -5   1   9   35.29    3.36
  -5   1   9   23.52    1.97
  -5   1   9   24.28    2.05
   5  -1  -9   38.01    3.68
   7   0  -5   32.63    5.45
  -7   0   5   28.33    2.23
  -7   0   5   29.79    5.69
  -7   0   5   27.61    5.00
   7   0  -5   29.96    3.05
  -2   0 -13   78.49    5.29
  -2   0 -13   75.47    4.65
  -2   0 -13   79.60    5.24
   2   0  13   92.94    6.01
   2   0  13   76.55    5.76
  -1   6  -9  132.07    6.48
  -1   6  -9  103.71    6.80
   8   2  -1  294.71   12.31
   8   2  -1  275.26   11.71
   8   2  -1  309.73   14.28
   8   2  -1  306.06   12.25
   8   2  -1  321.49   14.84
  -8  -2   1  297.61   12.51
  -8  -2   1  307.43   15.01
   8   2  -1  303.96   11.91
   8   2  -1  317.46   12.02
  -8  -2   1  322.80   14.93
  -3 -10  -1   82.50    6.04
   3  10   1   97.16    6.09
   3  10   1   83.16    6.14
   7   1  -5  141.60    7.77
  -7  -1   5  125.73    8.40
   7   1  -5  135.60    5.30
   7   1  -5   83.45    3.99
  -7  -1   5  122.67    7.99
   7   1  -5  104.09    4.32
   0  10   5   26.18    3.90
   0 -10  -5   19.38    3.75
   0  10   5   28.74    3.90
   2  10   6  114.65    6.95
   2  10   6  127.97    6.90
  -2 -10  -6  110.16    6.26
  -2 -10  -6   90.98    5.13
  -7   4  -2    4.56    5.11
   7  -4   2    8.98    4.11
  -7   4  -2    5.82    3.47
  -7   4  -2    3.61    4.77
  -7   4  -2    2.98    1.60
  -7   4  -2    3.30    1.62
  -1   4 -11   37.51    4.24
  -1   4 -11   30.11    3.47
  -1   4 -11   30.88    3.98
   1  -4  11   37.79    3.88
   4  -8  -3  136.60    6.51
  -4   8   3  132.85    7.32
  -4   8   3  126.53    6.37
  -4   8   3  130.72    8.01
   3   1  13    1.76    4.03
   3   1  13    0.40    3.63
  -3  -1 -13   -1.49    2.58
  -3  -1 -13    1.99    3.34
  -6   5   4  166.01    7.08
  -6   5   4  162.80    9.79
  -6   5   4  146.84    9.37
  -6   5   4  140.94    7.84
   6  -5  -4  148.38    6.46
  -2   3  12   11.73    2.92
   2  -3 -12   19.50    3.49
   2  -3 -12   11.89    2.88
   8   4   1  182.85   10.87
   8   4   1  186.62    8.06
   8   4   1  174.40   10.16
   8   4   1  181.42    8.05
   8   4   1  158.65    8.08
   8   4   1  178.61    7.31
   8   4   1  176.47    9.80
   8   4   1  168.60    8.07
  -8  -4  -1  181.46   10.39
  -5   1 -11    4.55    3.07
  -5   1 -11    2.18    2.14
  -5   1 -11    1.10    0.97
   5  -1  11    6.92    4.17
   5  -1  11    2.71    3.53
  -5   1 -11    2.56    3.35
   5  -1  11    4.28    4.44
   6  -2  -7  120.81    6.40
  -6   2   7  116.07    7.67
   6  -2  -7  144.84    8.15
  -6   2   7   98.52    5.42
  -6   2   7  119.51    8.27
  -6   2   7  124.74    5.74
   7   6   7  107.43    6.14
  -7  -6  -7  105.93    6.19
   7   6   7  101.79    6.81
   7   6   7  104.05    8.51
  -7  -6  -7  106.80    6.34
   7   6   7  100.46    8.11
   7   6   7  104.16    5.73
   7   6   7  111.94    6.81
   8  -1   3   45.05    4.00
  -8   1  -3   48.74    4.62
   8  -1   3   41.40    5.67
  -8   1  -3   40.45    3.03
  -5  -9  -1   41.57    5.28
   5   9   1   33.18    4.35
   5   9   1   39.05    5.19
   5   9   1   29.94    4.49
   5   9   1   30.48    3.12
   4  -3 -10   82.02    5.06
  -4   3  10   82.75    4.68
   4  -3 -10   70.30    4.17
   4  -3 -10   86.50    5.65
  -4   3  10   67.28    4.20
   1  10   6    5.38    3.44
  -1 -10  -6    5.39    3.59
  -1 -10  -6    2.56    2.44
   1  10   6    4.28    3.42
  -6  -2   7   25.55    4.40
  -6  -2   7   23.07    5.21
   6   2  -7   27.48    5.38
   6   2  -7   24.04    3.22
  -1   8  -6   53.63    4.33
  -1   8  -6   60.10    5.15
   4   8  -4   37.92    3.16
   4   8  -4   42.07    3.65
   4   8  -4   43.01    4.61
  -4  -8   4   40.45    5.57
   4   8  -4   33.35    3.22
   0   4 -11  166.09    8.45
   0  -4  11  172.50    9.32
   0   4 -11  153.80    8.08
   0  -4  11  169.55    8.01
   8   0  -1   96.44    7.17
   8   0  -1   87.07    4.04
  -8   0   1   97.49    5.62
  -8   0   1  105.45    7.84
   4  -6   7  116.02    6.48
  -4   6  -7  120.18    7.57
  -4   6  -7  118.68    7.37
   4  -6   7  142.12    6.58
   6  -2   9   -2.79    4.60
  -6   2  -9    0.33    2.09
   6  -2   9    0.64    2.75
  -6   2  -9    3.90    4.66
   6  -2   9    1.98    4.23
  -6   2  -9    0.40    1.73
  -6   2  -9    1.35    2.76
   3   9  -3   49.81    4.70
   3   9  -3   34.17    3.94
   3   9  -3   45.48    3.79
  -3  -9   3   41.51    5.33
   3   9  -3   32.74    2.64
  -6  -5   5  124.47    7.92
   6   5  -5  130.37    6.47
  -6  -5   5  126.82    7.24
   6  -3   8    3.84    4.17
   6  -3   8    0.94    2.84
  -6   3  -8    2.78    4.65
  -6   3  -8    2.39    2.67
  -6   3  -8    3.60    1.72
   6  -3   8   10.02    4.30
   6   8   6  165.76    8.37
   6   8   6  156.36    7.20
   6   8   6  164.52    8.32
   6   8   6  157.51    8.33
   6   8   6  158.25    9.84
  -6  -8  -6  157.54    8.08
  -6  -8  -6  157.78    7.80
   6   8   6  159.04    9.89
   6   8   6  166.68    8.16
  -4   7  -5   52.91    4.00
  -4   7  -5   50.95    5.49
  -4   7  -5   50.17    5.10
   4  -7   5   44.48    3.53
  -5   5   7   -1.15    2.60
   5  -5  -7    0.18    2.57
  -5   5   7    1.72    4.64
   5  -5  -7   -2.66    4.41
   8   2   6    5.85    3.42
   8   2   6    4.21    5.12
  -8  -2  -6    6.37    2.44
  -8  -2  -6    3.29    3.51
  -8  -2  -6    4.48    2.87
  -1 -10   1  246.75   10.44
  -1 -10   1  198.95   10.56
   1  10  -1  236.52   11.11
   7   7   3    1.09    2.93
   7   7   3    0.21    2.74
   7   7   3    4.13    4.64
   7   7   3    2.40    4.44
   7   7   3    2.96    3.26
   7   7   3    1.29    4.44
   8   0   5   23.10    5.36
  -8   0  -5   26.00    3.00
   8   0   5   21.74    5.35
  -8   0  -5   24.57    5.66
  -8   0  -5   24.59    3.93
   8   0   5   20.22    3.85
   8   4   5   28.79    6.22
  -8  -4  -5   17.79    5.40
   8   4   5   17.34    3.76
  -8  -4  -5   23.21    3.39
   8   4   5   19.92    5.40
  -8  -4  -5   24.41    3.55
   8   4   5   19.73    4.69
   8   4   5   17.95    2.81
   8   4   5   20.85    2.79
  -1  10   2  114.50    6.52
   1 -10  -2  102.01    5.11
   1 -10  -2   47.36    2.26
  -1  10   2  102.57    6.41
  -7   4   1   44.76    4.27
  -7   4   1   48.50    6.28
  -7   4   1   43.72    2.95
   1  -5 -12   77.82    5.04
   1  -5 -12   81.58    5.34
   1  -5 -12   85.81    5.22
  -1   5  12   83.35    5.30
   2   3 -11   80.83    5.67
  -2  -3  11   80.02    4.27
   2   3 -11   87.43    4.41
  -2  -3  11   88.54    6.55
   0   8  10   61.68    4.38
   0  -8 -10   72.88    5.16
   0  -8 -10   63.11    4.85
   7   6  -1    5.14    4.94
   7   6  -1    7.89    3.37
   7   6  -1    9.55    4.63
   7   6  -1    9.14    4.18
   7   6  -1   11.40    3.12
   7   6  -1    4.37    3.50
   7   6  -1    6.55    2.18
   5  -7   2   29.98    3.19
  -5   7  -2   34.88    2.64
  -5   7  -2   40.43    4.69
  -5   7  -2   26.06    5.31
  -5   7  -2   36.99    5.20
  -8   1   0   91.18    7.50
   8  -1   0   86.78    7.03
  -8   1   0   94.24    7.79
  -8   1   0   85.36    5.55
  -5  -2 -12   60.38    5.09
  -5  -2 -12   62.45    4.90
   5   2  12   58.08    4.58
   5   2  12   65.88    6.54
  -5  -2 -12   59.86    4.29
   5   2  12   62.29    5.56
   7   7   4   66.13    6.77
   7   7   4   63.42    4.74
   7   7   4   65.17    6.80
   7   7   4   70.83    4.81
   7   7   4   65.44    5.87
   7   7   4   56.31    4.57
   5   3  12    4.68    3.90
   5   3  12    5.85    5.04
  -5  -3 -12   10.57    3.49
  -5  -3 -12    9.63    3.24
  -5  -3 -12   11.88    3.73
   5   3  12   10.11    3.20
   5   3  12    7.61    2.44
  -7  -1  -9  287.99   13.21
   7   1   9  272.47   12.44
  -7  -1  -9  284.85   14.29
  -7  -1  -9  296.46   12.60
   7   1   9  270.31   12.94
   7   1   9  293.21   13.95
   7   1   9  284.27   14.26
  -7  -1  -9  282.34   11.95
   1   6  -9   52.75    4.24
  -1  -6   9   31.71    2.46
   1   6  -9   43.67    4.12
  -1  -6   9   52.94    5.57
   1   6  -9   58.28    4.72
  -1  -2  12  101.35    6.46
   1   2 -12   94.08    6.13
   1   2 -12  100.96    5.37
   1   2 -12  106.42    5.67
  -1  -2  12   96.08    4.74
   1   5 -10  155.48    8.07
  -1  -5  10  127.35    6.71
  -1  -5  10  173.24    8.80
   1   5 -10  150.55    7.72
   0   0  13   57.49    5.29
   0   0  13   59.83    4.84
   0   0 -13   60.74    4.49
   0   0  13   60.76    4.65
   0   0 -13   66.30    4.70
   3   4  13  395.52   16.72
  -3  -4 -13  382.08   16.35
  -3  -4 -13  382.00   16.15
   3   4  13  371.22   15.31
   3   4  13  366.78   17.14
   2   9   9   25.85    3.63
   2   9   9   18.75    3.62
  -2  -9  -9   22.44    3.95
  -4  -6   7   44.33    4.51
   4   6  -7   46.68    4.62
  -4  -5   8   40.23    4.70
   4   5  -8   44.75    3.94
  -4  -5   8   47.50    5.81
  -3   9   1   -3.68    2.99
  -3   9   1    0.82    3.91
  -5  -7 -10   18.16    4.05
   5   7  10   22.65    2.81
   5   7  10   22.71    2.87
  -5  -7 -10   21.28    3.93
   5   7  10   16.32    3.04
   5   7  10   20.92    3.74
   8   3   6  171.20    7.81
  -8  -3  -6  176.43    8.09
  -8  -3  -6  168.70    7.65
  -8  -3  -6  154.63    8.39
   8   3   6  163.23    8.71
   5  -4  -8   85.82    4.97
   5  -4  -8   97.94    6.40
  -5   4   8   96.46    5.23
  -1  10   3  190.91    9.10
   1 -10  -3  179.83    5.96
   1 -10  -3   67.83    3.23
  -3   9   2   55.69    4.31
  -3   9   2   48.73    4.78
  -3   9   2   49.89    3.93
  -3   9   2   51.83    5.22
   5   1  -9   37.23    5.22
  -5  -1   9   24.68    4.09
  -5  -1   9   23.99    5.11
   5   1  -9   28.36    2.69
   5   1  -9   37.90    3.65
   6   4  -6  189.65   10.06
   6   4  -6  178.76    8.23
  -6  -4   6  168.70    8.77
  -6  -4   6  170.30    9.49
  -1  10   1   36.92    4.51
  -1  10   1   40.30    3.83
   1 -10  -1   49.50    4.25
   1 -10  -1   19.88    1.36
  -5  -9  -6   68.94    5.30
   5   9   6   70.75    5.37
   5   9   6   80.00    5.31
   5   9   6   80.32    5.22
   5   9   6   60.42    3.37
  -5  -9  -6   76.66    5.31
   5   9   6   78.52    6.61
  -7   1   5   13.46    5.32
  -7   1   5   14.00    2.48
  -7   1   5    9.63    4.78
   7  -1  -5   17.89    5.22
   7  -1  -5   12.97    2.74
  -5   7   3   12.01    2.16
   5  -7  -3   17.59    2.50
  -5   7   3   18.72    2.89
  -5   7   3   16.45    3.73
  -5   7   3   16.15    4.81
  -5   7   3    9.66    4.95
   7   4   9  185.52    7.72
   7   4   9  205.44   10.15
   7   4   9  199.23    9.05
   7   4   9  196.74    9.15
  -7  -4  -9  203.54    9.62
  -7  -4  -9  197.79    9.14
  -7  -4  -9  198.45    9.80
   7   4   9  195.40   11.32
   7   4   9  203.68   11.27
   7   7   2   -2.30    4.59
   7   7   2    2.32    4.54
   7   7   2   -0.07    2.52
   7   7   2   -1.98    3.25
   7   7   2    1.00    2.96
   7   7   2    2.08    4.53
   5  -2  -9  110.13    6.93
  -5   2   9   93.01    7.38
  -5   2   9   97.68    4.82
   5  -2  -9  118.03    5.94
  -5   2   9   90.87    6.72
   5  -2  -9   97.63    4.78
  -2   5 -10   18.82    3.13
  -2   5 -10   19.53    3.91
   2  -5  10   21.99    3.13
   2  -5  10   23.18    3.54
   2  -5  10   20.41    3.21
  -2   5 -10   18.50    3.31
   8   1   6   85.33    5.84
   8   1   6   79.36    7.15
   8   1   6   90.34    7.41
  -8  -1  -6   87.09    7.43
  -8  -1  -6   89.35    5.09
  -6   6   0   -1.09    4.78
  -6   6   0    4.56    5.00
  -6   6   0    1.17    3.47
   0   6  12  102.36    5.73
   0  -6 -12  101.09    6.13
   0  -6 -12  103.85    6.03
   0   6  12  106.97    5.73
   0  -6 -12   90.08    5.42
   0   6  12  104.68    6.25
  -4   6   8    2.66    2.76
  -4   6   8    3.15    1.87
   4  -6  -8    4.17    3.00
   4  -6  -8   -2.76    3.91
   2  -9  -6    0.37    3.16
  -2   9   6    0.19    2.82
  -2   9   6    2.55    2.74
  -7  -2   5   46.63    5.85
   7   2  -5   47.82    3.16
   7   2  -5   39.36    5.69
   7   2  -5   47.49    3.62
  -7  -2   5   42.33    5.46
   4  -5  -9  143.22    7.11
   4  -5  -9  145.78    7.72
  -4   5   9  139.82    6.77
  -4  -9  -8  114.76    6.77
   4   9   8  117.56    6.93
   4   9   8  123.17    7.01
   4   9   8  129.87    6.88
   3  -2  12   64.21    4.56
   3  -2  12   66.89    5.20
   3  -2  12   60.79    4.99
  -3   2 -12   65.30    4.12
  -3   2 -12   67.45    4.82
   6   6  -4   57.63    4.80
   6   6  -4   50.33    4.71
  -6  -6   4   53.63    5.32
   6   6  -4   61.76    6.10
   6   6  -4   48.72    4.39
  -6  -6   4   39.96    5.89
  -3  -6   8   17.93    3.26
   3   6  -8   20.88    3.49
   3   6  -8   16.03    2.27
   3   6  -8   19.29    3.26
   3   6  -8   18.82    4.01
  -7   4  -3   12.81    5.30
  -7   4  -3   12.72    5.04
  -7   4  -3   10.81    1.98
  -7   4  -3    9.72    1.61
  -7   4  -3    9.84    3.79
  -7   2  -7   -1.32    3.68
   7  -2   7   -2.01    4.45
  -7   2  -7    1.25    1.23
   7  -2   7   -4.25    3.71
  -7   2  -7    2.03    2.51
  -7   2  -7    3.37    4.86
  -7   2  -7    1.03    2.53
   0 -10   1   95.89    5.93
   0  10  -1   89.82    6.23
   0  10  -1   98.14    6.20
   2   9  -4  177.06    8.32
  -2  -9   4  193.59   10.11
   2   9  -4  210.07    8.82
   0   7  -8   39.01    4.37
   0   7  -8   55.45    4.61
  -1  -9  -9   10.40    2.02
  -1  -9  -9   14.66    3.73
   1   9   9   15.94    3.30
   1   9   9   16.30    3.37
   1   9   9   18.78    3.38
   7  -1   8    2.46    4.67
   7  -1   8    1.47    3.59
   7  -1   8   -1.39    4.84
  -7   1  -8    0.70    4.94
  -7   1  -8   -0.32    3.58
  -7   1  -8    1.01    2.78
  -7   1  -8    0.41    2.03
  -6  -3 -11   66.87    4.76
  -6  -3 -11   63.84    5.36
   6   3  11   67.60    3.69
   6   3  11   68.62    6.95
   6   3  11   70.04    4.86
  -6  -3 -11   76.05    5.18
   6   2  11   81.00    5.39
  -6  -2 -11   92.47    5.53
   6   2  11   91.50    7.59
  -6  -2 -11   94.51    5.12
  -4  -7 -11   30.19    4.40
  -4  -7 -11   31.49    4.18
   4   7  11   28.19    3.13
   4   7  11   26.60    5.37
   4  -1  12   63.06    5.53
   4  -1  12   56.85    5.05
  -4   1 -12   64.48    4.74
  -4   1 -12   59.43    3.89
   4  -1  12   54.41    4.48
  -4   8  -2   22.36    4.35
  -4   8  -2   24.68    3.12
  -4   8  -2   26.98    5.11
   4  -8   2   18.89    3.17
  -6   5  -5  135.02    7.76
  -6   5  -5  136.60    6.78
   6  -5   5  131.94    7.43
   6  -5   5  121.06    6.97
  -3   9   0    0.91    2.96
  -3   9   0    2.43    3.66
   3  -9   0    3.57    3.10
  -5  -6 -11   35.04    4.25
   5   6  11   33.36    5.85
   5   6  11   32.93    3.00
   5   6  11   29.97    3.33
   5   6  11   29.72    3.59
  -5  -6 -11   36.08    4.51
   5   6  11   32.38    4.01
  -3  -5   9   98.30    7.20
  -3  -5   9   89.56    5.87
   3   5  -9  105.88    5.35
   3   5  -9   94.18    5.41
   2  10  -1    2.70    1.33
   2  10  -1    5.92    3.88
  -2 -10   1    4.19    4.15
  -6   6  -1    4.10    4.74
  -6   6  -1    5.82    3.57
  -6   6  -1    0.84    4.91
   2   8  -6    2.34    2.84
  -2  -8   6    2.14    4.63
   2   8  -6    0.71    3.46
   2   8  -6   -0.07    3.78
   2   8  -6    1.80    2.55
   8   3  -1  134.03    8.82
   8   3  -1  133.60    5.89
   8   3  -1  113.86    6.37
  -8  -3   1  127.53    8.35
  -8  -3   1  121.32    5.64
   8   3  -1  127.28    5.73
  -8  -3   1  126.61    8.70
   8   3  -1  129.94    8.12
   8   3  -1  119.23    6.33
   8   3  -1  130.26    5.99
  -8   1  -4   76.39    5.52
   8  -1   4   74.22    6.56
   8  -1   4   71.42    5.17
  -8   1  -4   64.18    3.99
   8  -1   4   66.94    6.77
  -8   1  -4   80.64    7.31
  -4  -9   2   64.53    6.09
   4   9  -2   75.05    4.73
   4   9  -2   71.25    5.16
   7   7   5  104.03    8.00
  -7  -7  -5   95.55    5.87
   7   7   5   86.34    5.83
   7   7   5   94.43    6.58
   7   7   5   95.50    8.02
   7   7   5   98.21    5.89
   7   7   5   95.73    5.67
  -6   6   1    6.68    1.71
  -6   6   1    3.59    3.70
  -6   6   1    9.64    5.03
  -6   6   1   11.14    2.46
  -6   6   1   14.17    4.98
   3  10   6  183.00    8.85
   3  10   6  168.39    8.92
  -3 -10  -6  166.65    8.45
   6   8   0  176.70    8.82
   6   8   0  211.71    9.74
   6   8   0  213.95   10.42
   6   8   0  194.50    9.66
   6   8   0  208.80    9.79
   6   8   0  230.35   11.00
   6   8   0  219.59   10.70
   0  -4 -13   34.68    3.86
   0  -4 -13   37.58    4.17
   0  -4 -13   40.20    3.88
   0   4  13   37.55    3.59
  -2   4 -11   60.37    4.09
  -2   4 -11   55.24    4.94
   2  -4  11   52.10    4.64
  -2   4 -11   53.98    4.18
  -1   9  -4   -1.92    3.61
  -1   9  -4   -0.79    3.92
  -1   9  -4    0.66    3.47
  -4  -2  10    0.22    4.61
  -4  -2  10    4.79    2.94
   4   2 -10    4.05    2.99
  -4  -2  10    1.32    4.20
  -3 -10   0  124.13    7.42
   3  10   0  120.69    7.48
   3  10   0  140.53    7.00
   3  10   0  139.88    7.68
   3  -9  -3  135.84    6.74
  -3   9   3  130.19    7.75
  -3   9   3  132.66    6.45
  -3   9   3  127.85    6.73
   2  -9   3   47.50    3.08
   2  -9   3   46.68    4.18
  -2   9  -3   36.09    4.88
  -2   9  -3   37.21    4.64
  -2   9  -3   43.18    4.25
   2   1 -12   75.97    5.47
   2   1 -12   80.54    4.90
  -2  -1  12   81.27    4.61
  -2  -1  12   90.28    6.57
   6  -1  10   29.04    5.43
  -6   1 -10   23.09    2.15
  -6   1 -10   25.86    3.44
   6  -1  10   18.35    4.99
  -6   1 -10   19.73    2.72
   5   1  12  134.27    7.33
  -5  -1 -12  129.11    6.14
  -5  -1 -12  144.35    7.71
   5   1  12  144.31    8.19
  -5  -1 -12  146.01    7.38
  -5  -1 -12  127.80    6.66
   5   1  12  148.51    8.89
   8   4   0  121.17    5.75
   8   4   0  113.45    5.08
  -8  -4   0  111.97    7.88
   8   4   0  113.14    5.47
   8   4   0  108.67    8.23
   8   4   0  105.80    5.90
  -8  -4   0  108.97    8.11
   8   4   0  106.20    7.87
   8   4   0   96.76    5.89
   8   4   0  114.69    7.85
  -5  -4 -12   43.47    4.26
   5   4  12   48.55    3.35
   5   4  12   43.45    5.10
   5   4  12   51.08    6.24
   5   4  12   44.34    4.06
  -5  -4 -12   52.89    4.62
  -1  10   4   42.13    4.25
   1 -10  -4   37.69    4.09
  -1  10   4   40.32    4.25
   4  -8  -4   91.29    5.10
  -4   8   4   97.43    5.90
  -4   8   4   84.84    6.82
  -4   8   4   82.37    4.71
  -6   4  -7    3.97    4.85
   6  -4   7    5.61    4.28
  -6   4  -7    8.66    2.61
   6  -4   7    7.72    3.04
  -3   4  11    7.80    2.92
   3  -4 -11    4.45    3.10
   3  -4 -11    5.32    2.65
  -3   4  11    8.96    2.69
   2   5  13   12.82    2.98
  -2  -5 -13   14.21    3.70
   2   5  13    4.49    1.17
  -2  -5 -13   13.94    3.62
  -2  -5 -13    7.98    2.96
   2   5  13   13.30    2.91
   3   9   9   64.98    5.03
   3   9   9   75.34    5.37
  -1  10   0    4.40    3.98
  -1  10   0    5.65    2.77
   1 -10   0   17.36    3.75
   1 -10   0   12.86    1.24
   8   1  -2    4.43    5.20
  -8  -1   2   -2.39    4.85
   8   1  -2    0.36    2.12
  -8  -1   2    4.37    5.19
   8   1  -2    9.61    4.85
   8   1  -2    0.54    2.30
   4   8  10   63.82    5.27
  -4  -8 -10   60.91    5.22
   4   8  10   57.68    4.17
   4   8  10   60.83    4.76
   4   8  10   58.68    4.51
  -4  -8 -10   63.41    5.28
  -5   6   6  149.96    7.13
  -5   6   6  149.37    6.54
  -5   6   6  148.14    8.81
   5  -6  -6  143.35    6.76
   7   4  -4   18.00    2.90
   7   4  -4   16.60    3.17
  -7  -4   4   15.79    4.37
   7   4  -4   13.58    2.76
  -7  -4   4    8.30    5.08
  -1   7  -8   98.88    5.64
  -1   7  -8   83.57    5.99
   3   0  13   41.86    4.64
   3   0  13   42.56    5.11
  -3   0 -13   41.89    3.54
  -3   0 -13   43.81    4.55
   5   9   0   42.12    4.45
  -5  -9   0   46.37    5.46
   5   9   0   36.41    3.24
   5   9   0   44.72    4.78
   5   9   0   42.92    5.16
   5   9   0   36.40    5.13
  -7   4   2   39.43    2.86
  -7   4   2   38.47    4.08
  -7   4   2   30.80    5.79
   8   5   3  216.53    9.85
  -8  -5  -3  208.41   11.48
   8   5   3  220.16   10.22
   8   5   3  228.89   12.04
   8   5   3  237.14   12.48
   8   5   3  221.88   10.02
   8   5   3  230.82   11.30
  -2   6  -9  100.14    6.59
   2  -6   9  102.10    5.10
   2  -6   9  107.48    5.51
  -2   6  -9   88.73    5.14
   8  -1  -1  166.81    9.82
  -8   1   1  149.59    7.78
  -8   1   1  166.18   10.10
  -8   1   1  161.35    9.83
   6  -4  -6   24.74    5.14
  -6   4   6   23.43    5.52
   6  -4  -6   30.13    2.91
  -6   4   6   19.70    4.97
  -6   4   6   30.77    2.98
  -6   4   6   24.09    3.33
   7   5  -3   11.96    4.67
   7   5  -3    4.49    3.12
   7   5  -3    1.87    2.56
  -7  -5   3    3.69    4.14
   7   5  -3    1.32    3.35
   7   5  -3    3.28    2.85
   7   5  -3    1.28    5.07
  -7  -5   3    2.30    4.72
   7   5  -3    1.32    3.72
   0  10   6   -3.55    3.32
   0  10   6    0.26    3.35
   0 -10  -6    5.04    2.37
   0 -10  -6    0.28    3.59
   0 -10  -6    0.55    0.68
   1   7  -8   41.16    4.11
   1   7  -8   39.99    3.81
   1   7  -8   47.80    4.62
   1   4 -11   48.79    4.02
   1   4 -11   42.65    4.37
  -1  -4  11   49.35    3.55
  -1  -4  11   51.04    5.61
  -3  -2  11   21.66    2.77
  -3  -2  11   32.53    5.27
  -3  -2  11   22.03    1.86
  -3  -2  11   35.49    4.66
   3   2 -11   28.42    4.09
   3   2 -11   32.33    3.62
  -1   1 -13   37.88    4.02
   1  -1  13   44.64    4.19
  -1   1 -13   44.48    4.12
  -1   1 -13   42.36    3.83
   1  -1  13   38.42    5.02
   1  -1  13   40.46    4.10
  -4  -7   6  116.59    7.91
   4   7  -6  116.82    5.62
   4   7  -6  132.58    6.47
   5   5  -7   -1.16    3.02
  -5  -5   7    2.96    5.30
  -5  -5   7    3.86    3.99
   1  -2 -13   12.02    3.37
   1  -2 -13   15.62    3.50
   1  -2 -13   17.41    3.25
  -1   2  13   16.84    3.26
  -1   2  13   16.73    3.21
  -1   2  13   15.24    3.98
  -4  -4   9    2.69    4.83
  -4  -4   9    1.38    4.09
   4   4  -9   -0.81    2.96
  -4 -10  -3  122.77    6.93
  -4 -10  -3  118.94    7.16
   4  10   3  121.38    7.69
   4  10   3  109.11    7.49
   7   7   1   11.32    4.62
   7   7   1    1.01    3.27
   7   7   1    1.10    4.85
   7   7   1    2.11    2.48
   7   7   1    2.55    3.48
   7   7   1    3.93    4.74
   7   7   1    2.81    3.12
   1  -3  12   63.75    4.63
  -1   3 -12   74.11    4.66
   1  -3  12   54.01    3.07
  -1   3 -12   70.88    5.29
   5   8   9   22.07    3.07
   5   8   9   19.95    5.58
   5   8   9   23.36    3.01
  -5  -8  -9   20.44    3.71
  -5  -8  -9   19.77    4.09
  -5  -8  -9   22.97    4.03
   5   8   9   22.75    2.60
   5   8   9   18.40    4.08
   5   8   9   27.49    3.65
   8   4   6  136.07    6.51
   8   4   6  146.94    7.00
   8   4   6  140.20    9.36
   8   4   6  143.02    7.88
  -8  -4  -6  144.75    7.00
  -8  -4  -6  138.64    7.55
  -8  -4  -6  148.88    7.32
  -8  -4  -6  140.41    9.19
   1   5  13   26.33    3.23
   1   5  13   18.93    4.00
  -1  -5 -13   23.96    3.37
  -1  -5 -13   28.50    3.95
  -6   6  -2   18.49    5.16
  -6   6  -2   29.90    4.35
  -6   6  -2   21.83    5.50
   6   4  11    1.74    5.05
  -6  -4 -11    4.04    3.56
   6   4  11    1.39    2.98
  -6  -4 -11   -0.06    3.15
   6   4  11    2.87    2.16
   6   4  11    5.91    4.17
   6   4  11    0.08    2.84
  -6  -4 -11   -1.77    3.49
  -8  -5  -4    5.35    4.85
   8   5   4    5.80    5.29
   8   5   4    5.81    5.05
   8   5   4    4.41    3.30
   8   5   4    7.08    4.63
   8   5   4    3.43    2.81
   8   5   4    1.78    2.70
  -4 -10  -4  128.43    6.99
   4  10   4  115.05    7.49
  -4 -10  -4  117.15    7.04
  -5  -6   6   35.47    4.69
   5   6  -6   30.75    3.59
   6   1  11  123.72    6.96
  -6  -1 -11  124.89    4.70
   6   1  11  135.91    8.67
   6   1  11  121.96    8.85
  -6  -1 -11  122.28    5.49
   1  -1 -13   67.49    4.70
   1  -1 -13   68.23    5.15
  -1   1  13   73.37    4.85
  -1   1  13   74.27    5.73
   1  -1 -13   65.12    4.77
   3   7  -7  293.00   12.38
   3   7  -7  260.10   11.94
   8   5   2  139.48    9.22
   8   5   2  126.82    6.62
  -8  -5  -2  142.83    9.15
   8   5   2  135.71    6.57
   8   5   2  128.33    8.53
   8   5   2  129.02    8.10
   8   5   2  123.51    6.58
   8   5   2  117.63    6.57
   6   8   7    0.14    4.79
   6   8   7    0.20    3.37
  -6  -8  -7    0.75    3.61
   6   8   7    0.34    3.29
  -6  -8  -7    1.44    3.40
   6   8   7   -4.92    3.78
   6   8   7    2.06    2.08
   6   8   7    5.98    3.88
  -2 -10  -7  197.14    9.60
   2  10   7  225.22   10.21
   2  10   7  208.32   10.36
   2  -4 -12   26.52    3.69
  -2   4  12   30.26    3.46
   2  -4 -12   26.52    3.28
   2  -4 -12   32.49    3.83
  -2   4  12   30.09    3.44
   8   2  -2  321.48   14.56
  -8  -2   2  305.91   14.29
   8   2  -2  308.10   13.98
   8   2  -2  287.21   11.71
   8   2  -2  289.34   12.13
  -8  -2   2  308.11   14.47
   8   2  -2  290.38   11.83
  -8  -2   2  274.57   11.52
  -6   6   2    2.17    0.97
  -6   6   2    9.79    2.46
  -6   6   2    5.71    5.04
  -6   6   2    5.92    5.03
  -6   6   2    9.10    3.67
  -5   7  -3   66.56    5.66
  -5   7  -3   70.71    3.94
  -5   7  -3   82.24    6.28
  -5   7  -3   68.06    6.56
   5  -7   3   62.09    3.89
  -8   0   2   78.88    7.07
  -8   0   2   67.81    4.55
   8   0  -2   75.80    6.71
   8   0  -2   67.41    3.69
  -3   9  -1    6.30    3.59
   3  -9   1    4.91    3.23
  -3   9  -1    3.97    3.13
  -3   9  -1    5.08    4.36
  -3   8   7    3.68    2.95
   3  -8  -7    3.14    3.16
  -3   8   7    1.11    2.21
  -7   3  -6  182.83   10.22
  -7   3  -6  155.23    6.23
  -7   3  -6  169.29    7.38
   7  -3   6  173.05    8.91
   7  -3   6  177.72    9.84
  -7   3  -6  176.23    8.95
   7  -3   6  175.43    9.72
  -4   4 -10   18.88    4.58
   4  -4  10   26.51    4.24
   4  -4  10   23.82    4.05
  -4   4 -10   26.98    2.94
  -4   4 -10   23.87    4.32
   4  -4  10   22.36    3.27
  -7   3   4  160.37    9.79
  -7   3   4  162.95    7.11
   7  -3  -4  146.86    6.30
  -7   3   4  155.34    7.76
   7  -3  -4  155.77    9.14
  -7   3   4  166.19   10.07
  -4  -6 -12  120.99    7.20
  -4  -6 -12  121.92    6.93
   4   6  12  130.88    5.27
   4   6  12  121.58    7.88
  -4  -2 -13    5.86    3.14
  -4  -2 -13    8.73    3.57
   4   2  13   12.85    4.78
   4   2  13    7.53    4.08
   4   2  13    6.84    3.06
  -4  -2 -13    6.33    2.67
   4   3  13    6.20    2.62
   4   3  13    6.87    3.02
   4   3  13    5.76    4.95
  -4  -3 -13    9.26    3.44
   4   3  13    7.44    4.02
  -4  -3 -13    7.09    3.45
  -6  -6 -10   74.91    5.25
  -6  -6 -10   72.67    4.77
   6   6  10   74.91    4.70
   6   6  10   73.41    5.86
   6   6  10   72.56    5.17
  -6  -6 -10   80.81    5.71
   6   6  10   74.48    7.16
   6   6  10   76.92    4.07
   6   6  10   66.34    5.19
  -5  -8   3   22.64    5.22
   5   8  -3   17.82    2.34
   5   8  -3   24.72    4.04
   5   8  -3   23.18    2.71
   5   8  -3   30.16    4.27
   5   8  -3   25.72    4.00
  -4 -10  -2   88.71    6.37
   4  10   2   81.15    6.29
   4  10   2   76.87    6.22
  -4 -10  -2   89.39    5.87
  -7   0  -9   20.60    3.42
   7   0   9   16.37    3.95
  -7   0  -9   13.72    3.86
  -7   0  -9   18.70    5.34
  -7   0  -9   15.92    2.64
   7   0   9   17.70    5.18
   7   0   9   19.66    5.55
  -2   1 -13  145.24    6.99
   2  -1  13  133.71    7.74
   2  -1  13  155.53    7.86
  -2   1 -13  140.98    7.58
  -1 -10  -7   51.62    4.46
   1  10   7   49.11    4.71
   1  10   7   63.24    4.74
  -1 -10  -7   26.00    2.08
   0   3 -12   61.66    4.40
   0  -3  12   58.68    4.39
   0  -3  12   59.23    5.90
   0   3 -12   57.69    4.40
   0   3 -12   62.99    4.98
   7   7   6  137.68    7.59
   7   7   6  160.24    9.75
   7   7   6  147.05    9.76
   7   7   6  143.05    7.86
  -7  -7  -6  143.26    7.50
   7   7   6  144.04    8.12
   7   7   6  145.77    7.37
   8   0   6   92.58    7.47
  -8   0  -6   81.17    5.91
  -8   0  -6   82.21    4.82
   8   0   6   80.67    7.26
  -8   0  -6   89.77    7.51
   8   0   6   85.59    5.96
   1  -9  -8   79.83    4.89
  -1   9   8   85.21    5.14
  -1   9   8   74.61    4.95
   1  -9  -8   60.92    3.21
   6  -3  -7   84.49    6.65
  -6   3   7   86.11    4.67
  -6   3   7   73.90    4.66
  -6   3   7   86.64    6.92
  -6  -7  -9  244.62   11.03
   6   7   9  236.29    9.91
  -6  -7  -9  222.28   10.29
   6   7   9  225.55   10.28
   6   7   9  233.98   10.66
   6   7   9  242.17   11.06
  -6  -7  -9  230.45   10.73
   6   7   9  245.97   10.57
  -6  -3   7  187.56    9.50
   6   3  -7  195.52   10.41
  -6  -3   7  181.19   10.24
   6   3  -7  195.16    8.79
  -3  -4  10  112.14    6.95
   3   4 -10  121.53    6.50
   3   4 -10  125.45    6.90
  -3  -4  10  130.98    8.12
  -7   4  -4   43.58    4.93
   7  -4   4   38.61    5.25
  -7   4  -4   46.68    3.17
  -7   4  -4   48.24    6.15
   7  -4   4   49.75    4.36
   5  -7  -4   47.70    3.48
  -5   7   4   55.32    3.80
  -5   7   4   56.94    6.17
  -5   7   4   51.26    4.60
   2  -7 -10  151.12    7.71
  -2   7  10  159.87    7.42
   2  -7 -10  148.63    7.43
  -2   7  10  151.06    7.32
  -5  -2   9   79.84    6.62
  -5  -2   9   69.84    5.47
   5   2  -9   96.95    6.88
  -5  -2   9   84.14    6.79
   5   2  -9   87.73    5.26
   8  -2   1   28.89    5.18
  -8   2  -1   25.09    4.03
  -8   2  -1   25.52    6.04
   8  -2   2   11.99    3.25
  -8   2  -2    7.78    5.45
  -8   2  -2    4.25    3.48
   8  -2   2    6.07    4.76
  -8   2  -2    4.28    1.55
  -7   2   5    2.22    2.36
   7  -2  -5    2.27    5.08
  -7   2   5    6.13    2.62
  -7   2   5   -1.21    4.76
  -5   3 -10   21.92    4.35
   5  -3  10   12.95    3.97
   5  -3  10   18.66    3.25
   5  -3  10   23.27    4.30
  -5   3 -10   20.69    4.80
  -5   3 -10   24.84    3.45
   5  -3  10   23.83    4.64
  -5   3 -10   18.41    2.56
  -3   9   4  184.25    8.93
  -3   9   4  208.56    8.68
  -3   9   4  177.55    9.78
   3  -9  -4  203.66    9.22
  -5  -9  -7   22.93    4.11
  -5  -9  -7   27.63    4.11
   5   9   7   27.30    5.45
   5   9   7   27.22    2.29
   5   9   7   25.93    3.95
   5   9   7   28.59    4.07
   1  10  -2  136.02    7.79
  -1 -10   2  146.14    8.19
   1  10  -2  163.07    8.21
   3   5  13  215.55   10.34
   3   5  13  209.84    7.93
   3   5  13  224.77    9.38
  -3  -5 -13  220.47   10.32
   3   5  13  200.52    8.40
  -3  -5 -13  205.34   10.06
  -8  -2  -7   74.47    4.36
   8   2   7   69.06    5.56
  -8  -2  -7   79.92    5.00
   8   2   7   69.52    7.11
  -8  -2  -7   68.31    7.04
  -8  -2  -7   73.90    5.60
   8   2   7   79.80    6.89
   3  -7   7   79.94    4.69
  -3   7  -7   72.25    5.90
  -3   7  -7   83.74    6.12
   1  -3 -13    9.39    3.08
   1  -3 -13    8.85    3.26
  -1   3  13    7.19    3.69
   1  -3 -13    9.41    3.36
  -1   3  13    7.98    3.01
   7   6   8   35.92    3.88
   7   6   8   38.92    6.35
  -7  -6  -8   35.05    4.03
   7   6   8   34.26    4.68
   7   6   8   31.81    2.57
  -7  -6  -8   32.30    4.03
   7   6   8   32.53    4.56
  -7  -6  -8   28.89    3.49
   7   6   8   29.49    3.39
   7   6   8   30.49    3.83
   7   6   8   32.65    3.46
  -4   7   7   58.18    3.55
  -4   7   7   65.33    4.23
  -4   7   7   63.52    6.17
   4  -7  -7   63.03    4.39
   4  10   5    5.23    3.24
   4  10   5    5.40    4.06
  -4 -10  -5    2.76    3.69
  -5   4  -9   80.80    6.64
  -5   4  -9   89.05    4.55
   5  -4   9   81.31    5.90
  -5   4  -9   86.09    6.34
   5  -4   9   80.36    5.25
  -2   8  -6    8.81    3.67
  -2   8  -6    9.29    3.89
   2  -8   6   13.19    2.42
  -2   8  -6   13.16    3.46
   4  -4 -10   72.99    4.71
   4  -4 -10   76.43    5.35
   4  -4 -10   67.37    4.12
  -4   4  10   75.36    4.65
   0  -1  13   51.47    4.28
   0   1 -13   50.19    4.44
   0   1 -13   61.99    4.36
   0   1 -13   64.09    4.31
   0  -1  13   58.67    4.32
   0  -1  13   58.61    5.48
  -8   1  -5   15.28    5.48
   8  -1   5   13.05    3.75
  -8   1  -5   14.15    4.05
  -8   1  -5   20.31    2.73
   8  -1   5   15.16    5.13
   8  -1   5   18.37    5.36
   8   5   5    2.33    3.48
   8   5   5    2.69    2.62
   8   5   5    0.16    5.38
   8   5   5    1.32    4.99
   8   5   5   -0.30    4.41
   8   5   5   -1.44    2.70
   5  -3  -9   43.82    2.75
   5  -3  -9   64.83    5.41
  -5   3   9   60.89    4.24
  -5   3   9   63.24    6.31
  -5   3   9   60.43    5.72
  -6   5   5  216.74   10.30
   6  -5  -5  203.71    8.63
  -6   5   5  212.79   11.77
  -6   5   5  233.03    9.59
  -6   5   5  214.02   11.93
  -4   3 -11   45.37    3.32
  -4   3 -11   42.65    3.92
  -4   3 -11   35.38    2.93
  -4   3 -11   46.79    4.86
   4  -3  11   43.91    4.05
   4  -3  11   33.41    4.59
   4  -3  11   45.91    4.73
   4  -3  11   48.09    5.15
   4  -5   9  207.07    9.72
  -4   5  -9  199.51   10.32
  -4   5  -9  194.87   10.13
   4  -5   9  196.27   10.08
  -7  -5  -9   33.70    3.42
   7   5   9   42.80    3.86
   7   5   9   47.30    6.46
  -7  -5  -9   40.82    4.39
   7   5   9   44.13    2.72
   7   5   9   39.85    3.97
  -7  -5  -9   42.33    4.12
   7   5   9   41.41    4.95
  -7  -5  -9   40.20    4.48
   2   8  11   51.48    4.57
   2   8  11   60.99    5.00
   2   8  11   57.39    4.57
   2   8  11   63.65    4.25
  -2  -8 -11   51.81    4.85
  -2  -8 -11   48.07    3.56
  -8  -3  -7   93.35    5.24
   8   3   7   93.39    7.97
   8   3   7   96.67    6.40
  -8  -3  -7   94.88    5.67
   8   3   7   92.84    5.24
  -8  -3  -7   94.81    6.12
  -5   6  -6  165.78    9.35
   5  -6   6  152.28    7.77
   5  -6   6  169.30    8.12
  -5   6  -6  150.98    7.03
  -7  -3   5   46.00    5.86
   7   3  -5   42.09    3.37
   7   3  -5   34.14    5.65
  -7  -3   5   38.72    5.18
   7   3  -5   43.22    3.49
   1 -10  -5   53.76    4.67
  -1  10   5   54.09    4.50
  -1  10   5   53.24    4.58
   2   7  12   42.79    3.65
   2   7  12   40.59    3.97
   2   7  12   43.48    4.61
  -2  -7 -12   31.81    3.33
  -2  -7 -12   38.32    4.39
  -2   6  11   53.27    4.05
   2  -6 -11   53.71    4.60
  -2   6  11   54.21    4.27
   2  -6 -11   50.60    4.16
  -2   3 -12   20.54    3.77
   2  -3  12   23.10    3.08
   2  -3  12   18.62    3.85
  -2   3 -12   20.65    3.15
   0   9   9   59.95    4.50
   0  -9  -9   61.37    3.71
   0  -9  -9   79.65    5.27
   6   7  -3   19.64    1.77
   6   7  -3   28.41    3.93
  -6  -7   3   25.25    5.53
   6   7  -3   11.44    1.76
   6   7  -3   23.71    4.28
   6   7  -3   23.52    4.10
   6   7  -3   26.23    4.54
  -5  -4   8   51.98    5.40
  -5  -4   8   44.03    6.02
   5   4  -8   52.69    4.10
  -5  -4   8   43.68    3.75
   3  -8   5    2.70    2.27
  -3   8  -5    1.45    4.04
  -3   8  -5   -0.11    3.18
  -3   8  -5    4.76    3.82
   8   5   1   71.71    4.33
   8   5   1   77.45    6.61
   8   5   1   68.05    3.71
   8   5   1   65.92    4.81
   8   5   1   59.69    6.59
   8   5   1   72.13    4.61
   8   5   1   70.73    7.24
  -8  -5  -1   71.32    6.66
   8   5   1   63.87    4.65
  -4   8  -3   92.75    5.09
   4  -8   3   80.92    4.66
  -4   8  -3   82.89    6.98
   4  -8   3   72.96    4.46
   2   6  -9   11.99    3.84
  -2  -6   9    8.04    2.63
   2   6  -9    8.26    2.74
   2   6  -9    8.86    3.15
  -2  -6   9   10.95    5.12
   7   6  -2    7.11    4.92
   7   6  -2   10.05    3.17
   7   6  -2    7.01    1.53
   7   6  -2   14.03    3.59
   7   6  -2   13.52    3.41
   7   6  -2   14.88    4.29
   7   6  -2   12.23    4.74
   1   0 -13  150.89    7.31
   1   0 -13  140.44    7.41
  -1   0  13  141.45    7.97
  -1   0  13  134.29    7.00
  -1  10  -1  141.78    6.59
   1 -10   1  181.95    8.74
  -1  10  -1  177.54    6.51
  -1   7  11   15.68    3.50
   1  -7 -11    9.27    2.75
  -1   7  11    7.33    2.77
   1  -7 -11   11.04    3.63
   1  -7 -11   11.88    3.30
  -8   2   0    7.55    5.63
  -8   2   0   12.46    5.37
   8  -2   0   16.58    4.77
  -8   2   0    5.91    3.37
  -4  -1 -13   70.59    5.53
  -4  -1 -13   75.90    4.96
  -4  -1 -13   85.70    5.57
   4   1  13   85.96    6.72
  -4  -1 -13   76.56    5.44
   4   1  13   69.50    5.05
  -4  -1 -13   82.86    4.59
   4   1  13   80.25    6.11
   0  10  -2   54.19    5.02
   0  10  -2   53.06    4.97
   0 -10   2   54.82    4.75
  -8   2  -3    0.88    1.92
  -8   2  -3    1.05    5.29
  -8   2  -3    7.04    5.49
   8  -2   3    4.22    3.19
  -8   2  -3   -0.20    3.50
   8  -2   3    0.51    4.59
   3  10   7    6.13    3.68
   3  10   7    5.02    3.64
  -4  -4 -13   49.51    4.56
   4   4  13   46.15    4.07
   4   4  13   47.33    6.21
   4   4  13   48.10    3.66
   4   4  13   51.55    5.16
  -5   0 -12   77.69    4.82
  -5   0 -12   79.39    5.86
  -5   0 -12   81.06    4.31
   5   0  12   80.47    6.57
   5   0  12   78.12    5.92
  -5   0 -12   83.11    5.41
   4  10   1   93.47    6.26
   4  10   1   84.42    6.58
  -4 -10  -1   99.94    6.85
   4  10   1  105.21    6.71
   3  -6 -10   81.46    4.97
   3  -6 -10   84.92    4.90
   3  -6 -10   86.21    5.44
  -3   6  10   93.94    5.38
  -6   6  -3  148.28    8.65
   6  -6   3  114.04    5.34
  -6   6  -3  131.01    8.67
  -2  -5  10    1.50    4.77
  -2  -5  10    2.63    3.16
   2   5 -10   -0.08    3.17
  -5  -5 -12   27.14    4.13
   5   5  12   31.35    2.97
   5   5  12   22.59    3.35
   5   5  12   25.61    5.63
   5   5  12   28.67    3.87
  -5  -5 -12   34.07    4.32
   3  10  -1   53.69    3.91
   3  10  -1   56.49    5.09
   3  10  -1   64.57    5.32
  -3 -10   1   59.45    5.61
  -8  -4   1   56.66    6.51
   8   4  -1   54.37    4.26
   8   4  -1   52.80    3.35
  -8  -4   1   57.59    6.19
   8   4  -1   63.92    6.28
   8   4  -1   61.48    3.96
   8   4  -1   59.35    3.49
   8   4  -1   61.03    6.14
   8   4  -1   60.47    6.70
   8   4  -1   52.44    4.40
  -6   0   8   60.50    6.51
   6   0  -8   74.85    6.41
   6   0  -8   73.61    4.52
  -6   0   8   57.81    5.63
   6   0  -8   62.70    3.52
  -8  -1  -7   39.23    6.00
   8   1   7   40.82    6.08
   8   1   7   36.25    5.85
   8   1   7   35.95    4.44
  -8  -1  -7   38.21    3.00
  -8  -1  -7   36.41    3.63
   5   7  -5   49.91    4.23
   5   7  -5   51.17    3.40
  -5  -7   5   50.73    6.03
  -1  -8 -11    2.94    2.37
   1   8  11    5.37    2.97
   1   8  11    4.50    2.93
  -1  -8 -11   -0.94    3.58
   1   8  11    5.44    3.48
  -1  -8 -11    2.79    3.56
   6   8  -1  136.01    7.27
   6   8  -1  142.53    7.42
   6   8  -1  135.65    7.42
   6   8  -1  156.87    8.55
  -6  -8   1  132.31    8.50
   6   8  -1  137.26    8.15
   1   7  12   19.90    3.25
  -1  -7 -12   26.76    4.16
  -1  -7 -12   18.89    2.96
   1   7  12   22.85    3.88
  -1  -7 -12   18.82    4.01
   1   7  12   23.11    3.30
   7   7   0   36.68    4.31
   7   7   0   39.50    5.75
   7   7   0   41.28    4.10
   7   7   0   38.66    4.24
   7   7   0   37.75    3.34
   7   7   0   41.48    5.33
   7   7   0   45.27    5.59
   0   9  -5   16.42    3.90
   0   9  -5    9.34    3.07
   0   9  -5    5.71    3.79
   8   3  -2  271.32   11.10
   8   3  -2  262.01   10.95
  -8  -3   2  262.87   13.48
  -8  -3   2  259.07   13.20
   8   3  -2  254.38   11.37
   8   3  -2  276.69   13.00
   8   3  -2  293.97   13.62
  -1  -9   5   60.76    5.92
   1   9  -5   38.46    4.45
   1   9  -5   30.94    2.85
   2  10  -2   71.49    5.65
  -2 -10   2   65.27    5.86
   2  10  -2   66.82    5.06
   8  -1  -2   78.49    3.72
  -8   1   2  116.53    6.42
   8  -1  -2  113.66    7.43
  -8   1   2  129.79    8.61
  -4   8   5  122.58    6.16
   4  -8  -5  141.07    6.88
  -4   8   5  147.22    6.76
  -4   8   5  133.63    8.32
  -6   6   3    2.53    5.43
  -6   6   3   11.93    2.56
  -6   6   3   10.38    3.62
  -7   4   3   62.21    6.80
   7  -4  -3   25.43    1.42
  -7   4   3   62.69    6.66
  -7   4   3   63.78    4.71
  -7   4   3   57.52    3.60
  -3   7   9   19.34    2.79
   3  -7  -9   25.03    3.49
   3  -7  -9   24.12    3.62
  -3   7   9   25.52    3.31
  -6   1   8   91.26    6.57
  -6   1   8   84.84    7.00
  -6   1   8   64.76    3.38
   6  -1  -8  107.67    6.78
   6  -1  -8   99.50    4.83
  -6   1   8   67.52    3.27
   5  -2  11    0.46    4.40
  -5   2 -11    5.59    3.05
  -5   2 -11    0.83    2.27
  -5   2 -11    1.83    3.59
   5  -2  11    1.30    2.92
   5  -2  11    1.62    3.57
   5  -2  11    1.30    4.05
   3   8  11   62.82    4.78
   3   8  11   61.86    5.30
  -3  -8 -11   66.00    5.32
   3   8  11   54.84    4.67
   3   8  11   64.06    4.27
  -2   9   7    3.75    3.10
   2  -9  -7    7.03    3.30
  -2   9   7    3.97    2.67
   4  -7   6   45.70    3.68
  -4   7  -6   51.62    4.09
  -4   7  -6   42.17    5.47
  -4   7  -6   56.76    5.22
  -3   9  -2   15.22    4.34
  -3   9  -2   17.99    4.74
  -3   9  -2   11.11    3.38
  -3   9  -2   17.40    3.45
   3  -9   2   17.42    3.30
   3  -9   2   15.92    2.36
   0   5  13  116.15    6.85
   0  -5 -13  105.67    6.29
   0  -5 -13  120.59    6.68
   0   5  13  119.85    6.16
   0  -5 -13  121.95    6.62
   0   8  -7  105.40    5.88
   0   8  -7   75.92    5.84
   1  -8 -10    6.60    2.47
  -1   8  10    2.31    2.72
   1  -8 -10    6.55    3.58
   3   7  12    1.25    3.67
  -3  -7 -12   -3.01    3.87
   3   7  12   -3.95    3.19
  -3  -7 -12   -1.27    3.57
   3   7  12   -0.05    2.80
   3   9  -4   23.19    4.30
   3   9  -4   20.53    4.06
   3   9  -4   13.39    2.93
   3   9  -4   12.27    2.41
   3   9  -4   18.32    3.34
  -3  -9   4   14.23    4.95
   6   5  11   76.18    4.11
  -6  -5 -11   84.24    5.83
   6   5  11   78.15    5.20
   6   5  11   79.47    7.21
  -6  -5 -11   81.14    5.43
   6   5  11   69.11    4.82
   6   5  11   78.61    6.24
  -2   7  -8    1.18    2.97
  -2   7  -8    0.21    3.74
   2  -7   8    0.59    2.35
  -7  -3 -10   39.75    4.61
   7   3  10   41.05    4.99
  -7  -3 -10   48.03    4.35
  -7  -3 -10   33.65    3.73
   7   3  10   30.45    3.66
   7   3  10   38.33    6.00
   7   3  10   27.84    6.05
   5   9  -1   33.43    3.14
   5   9  -1   32.00    4.47
   5   9  -1   34.62    4.25
   5   9  -1   42.15    4.99
   5   9  -1   34.00    4.83
  -5  -9   1   42.12    5.70
  -6   0 -11   29.23    3.68
   6   0  11   27.39    4.43
   6   0  11   18.05    5.49
  -6   0 -11   26.18    3.07
   6   0  11   26.79    5.34
  -6   0 -11   24.56    3.59
  -6   0 -11   23.51    2.39
  -3   5 -10   16.61    3.03
  -3   5 -10   22.88    4.22
  -3   5 -10   15.91    3.02
   3  -5  10   15.74    3.67
   3  -5  10   18.63    3.50
   3  -5  10   16.66    3.05
   7   2  10  131.18    7.18
   7   2  10  150.15    9.22
   7   2  10  133.46    8.02
  -7  -2 -10  127.29    7.55
  -7  -2 -10  134.01    6.56
  -7  -2 -10  133.59    7.12
   7   2  10  131.77    9.21
  -2   8   9    1.51    2.43
  -2   8   9   -5.72    2.85
  -2   8   9   -2.04    2.97
   2  -8  -9   -3.87    1.91
   2  -8  -9    1.56    3.32
  -4 -10  -6    3.73    3.80
   4  10   6    3.39    3.24
   6   1  -8    5.89    1.92
   6   1  -8    5.60    2.97
  -6  -1   8    0.39    5.03
   6   1  -8    6.29    4.89
  -6  -1   8    8.91    4.08
  -7   0   6   58.26    6.36
  -7   0   6   49.10    5.54
   7   0  -6   50.10    3.83
   7   0  -6   64.42    6.31
  -3   4 -11   23.97    3.09
  -3   4 -11   23.96    3.13
   3  -4  11   19.03    4.28
   3  -4  11   19.48    3.93
  -3   4 -11   20.48    4.32
   3  -4  11   26.74    3.36
   2   7  -8    1.75    2.80
   2   7  -8    8.29    3.93
   2   7  -8    2.85    2.78
   8   4   7   80.12    5.07
  -8  -4  -7   80.90    5.56
   8   4   7   85.96    6.15
  -8  -4  -7   78.69    5.27
  -8  -4  -7   76.15    4.87
  -6   5  -6    0.59    4.10
  -6   5  -6    5.11    1.74
   6  -5   6    6.27    3.96
   5  -5   8    8.96    4.02
   5  -5   8   17.10    3.73
  -5   5  -8   13.08    4.78
  -5   5  -8   14.84    4.36
   5  -5   8    8.96    2.88
   4   9   9   64.21    4.89
   4   9   9   63.38    5.05
  -4  -9  -9   69.53    5.39
   4   9   9   65.06    5.16
  -2  -2  12   75.24    4.16
  -2  -2  12   77.72    4.13
   2   2 -12  119.15    6.86
  -2  -2  12  113.47    4.87
  -2  -2  12  118.80    7.15
   8   5   6    1.45    4.63
   8   5   6    5.56    2.57
  -8  -5  -6    2.08    3.21
   8   5   6    2.72    3.64
  -8  -5  -6    4.94    3.14
  -8  -5  -6    4.18    3.14
   8   5   6    3.96    2.83
   8   5   6    5.47    5.19
   8   5   6    8.75    5.89
   8   5   6    1.82    1.19
   8   5   6    2.03    2.86
   0  10   7   10.70    3.40
   0 -10  -7    7.06    1.28
   0 -10  -7    8.33    1.79
   0  10   7   12.84    3.46
   7   1  -6   75.65    3.73
   7   1  -6   86.10    3.99
  -7  -1   6   98.45    7.87
  -7  -1   6  108.84    7.41
   7   1  -6  111.59    7.43
   7   1  -6  108.74    5.01
  -4   1  11  204.56    9.21
   4  -1 -11  253.80   10.69
  -4   1  11  214.55   10.61
   4  -1 -11  227.82   10.26
   1  -6 -12   40.30    4.19
   1  -6 -12   49.15    4.46
  -1   6  12   45.26    4.38
  -1   6  12   47.34    3.65
   1  -6 -12   43.09    3.85
  -8   2   1   21.60    5.94
  -8   2   1   25.61    5.57
  -8   2   1   22.98    3.76
   7   7   7  106.40    8.32
   7   7   7  104.93    6.75
   7   7   7  107.41    6.01
   7   7   7   94.53    8.39
   7   7   7  100.32    6.62
  -7  -7  -7  100.40    6.07
   7   7   7  111.84    6.36
  -1  -8   7   70.80    6.23
   1   8  -7   60.48    4.86
   1   8  -7   60.03    4.29
  -2   9  -4   21.42    3.85
   2  -9   4   20.13    2.42
  -2   9  -4   17.81    4.32
  -2   9  -4   11.94    4.20
  -3   1  12  149.97    8.54
  -3   1  12  138.14    6.86
   3  -1 -12  161.39    7.69
   3  -1 -12  149.78    7.43
  -3   1  12  159.83    7.29
  -8   2  -4  142.08    6.66
  -8   2  -4  153.62    8.38
   8  -2   4  147.62    8.98
   8  -2   4  141.74    9.05
   8  -2   4  144.17    7.68
  -8   2  -4  161.34    9.87
   8   1  -3   56.73    3.70
   8   1  -3   60.73    3.86
  -8  -1   3   66.33    6.71
  -8  -1   3   64.49    6.89
   1   3 -12    2.00    3.39
  -1  -3  12    4.58    4.65
   1   3 -12   -2.71    3.11
  -1  -3  12   -2.92    2.64
   1   3 -12    4.05    2.62
   4   8  -5   31.87    2.62
   4   8  -5   33.49    3.23
  -4  -8   5   51.09    6.10
   4   9  -3  116.63    5.83
  -4  -9   3  148.02    8.79
   4   9  -3  122.13    6.43
   4   9  -3  127.89    7.02
  -3   1 -13   20.52    3.09
  -3   1 -13   20.25    3.70
   3  -1  13   19.49    3.32
   3  -1  13   18.23    4.30
  -3   1 -13   14.51    3.95
   3  -1  13   20.00    3.96
  -4  -3  10    3.87    4.16
  -4  -3  10    3.61    2.25
  -4  -3  10    5.64    4.96
   4   3 -10    1.68    3.09
  -5   7  -4  252.32   12.80
  -5   7  -4  254.78   10.56
   3   8  -6   12.24    2.72
   3   8  -6   19.70    3.95
  -3  -8   6   14.37    4.90
   3   8  -6   10.51    2.78
   3   8  -6   10.45    4.13
  -3   9   5   67.04    4.51
   3  -9  -5   72.53    4.87
   1  -4 -13   27.01    3.52
   1  -4 -13   27.57    3.62
   1  -4 -13   21.59    3.75
  -1   4  13   20.79    3.49
  -2  10   2    4.29    3.66
  -2  10   2    3.95    3.46
  -2  10   2    1.21    3.24
   8   5   0  151.09    6.57
   8   5   0  132.41    9.02
   8   5   0  150.03    9.71
  -8  -5   0  153.66    9.40
   8   5   0  155.60    9.11
   8   5   0  131.84    7.32
   8   5   0  142.16    6.76
   8   5   0  158.38    7.31
   8   5   0  156.53    7.43
   6   8   8   12.33    5.23
   6   8   8    9.13    3.89
  -6  -8  -8    8.83    3.80
  -6  -8  -8    9.14    3.51
   6   8   8   13.29    3.58
   6   8   8   11.65    3.44
  -6  -8  -8   11.27    3.83
   6   8   8    7.82    3.71
   6   8   8   10.66    2.39
   2   9  10   32.80    4.26
  -2  -9 -10   32.86    4.45
   2   9  10   27.94    3.67
  -2  -9 -10   36.99    4.47
   2   9  10   25.43    3.72
  -7   2  -8   35.91    1.73
  -7   2  -8   41.81    2.60
   7  -2   8   49.68    5.02
  -7   2  -8   45.85    4.95
  -7   2  -8   46.44    3.78
  -7   2  -8   49.37    3.70
   7  -2   8   46.89    5.93
   7  -2   8   56.65    6.01
  -7   2  -8   46.72    6.18
   4   0 -11  265.70   10.99
   4   0 -11  234.10   10.65
  -4   0  11  227.20   10.64
  -4   0  11  209.88    9.54
   3  -2 -12  276.25   11.53
   3  -2 -12  245.56   11.12
  -3   2  12  271.24   11.69
   2 -10  -1   -0.55    1.54
  -2  10   1    7.39    3.84
  -2  10   1   -0.74    3.26
   2 -10  -1    1.09    3.44
  -2  10   1    2.60    3.48
  -5   5   8   27.84    5.31
  -5   5   8   23.57    3.24
   5  -5  -8   18.14    4.51
   5  -5  -8   20.63    3.12
  -7   4  -5   41.28    6.11
   7  -4   5   40.44    4.25
  -7   4  -5   37.67    4.90
  -7   4  -5   32.96    3.06
   7  -4   5   32.17    5.16
   6  -3   9   90.73    5.74
  -6   3  -9  111.54    6.02
  -6   3  -9  104.11    7.80
  -6   3  -9  109.01    4.97
   6  -3   9  107.37    7.05
   6  -3   9  102.78    6.99
   4  -2  12   57.51    4.56
   4  -2  12   59.51    5.18
   4  -2  12   62.03    5.33
  -4   2 -12   57.38    5.22
  -4   2 -12   65.20    4.74
  -4   2 -12   58.67    3.91
  -8   0   3  144.24    9.47
   8   0  -3  140.80    8.82
   8   0  -3  132.85    6.07
  -8   0   3  158.91    9.47
  -8   0   3  139.74    6.83
  -4   6  -8  150.82    8.74
  -4   6  -8  157.97    8.89
   4  -6   8  156.11    8.14
   4  -6   8  143.31    7.69
   2   6  13    0.75    3.61
   2   6  13    4.60    2.80
   2   6  13    5.96    3.00
  -2  -6 -13    1.49    2.76
  -2  -6 -13    5.39    3.53
  -7   1   6   56.55    3.59
   7  -1  -6   61.38    4.27
  -7   1   6   73.44    7.12
   7  -1  -6   82.00    6.77
  -7   1   6   60.95    6.37
   4  -2 -11  101.13    5.34
  -4   2  11  113.10    5.70
   4  -2 -11  112.67    6.16
  -4   2  11   92.48    5.06
  -1   8  -7   42.79    4.55
  -1   8  -7   25.76    2.98
  -2 -10  -8  140.63    7.70
   2  10   8  131.81    7.49
   2  10   8  144.24    7.44
   7   4  10   65.07    7.24
   7   4  10   70.24    4.89
   7   4  10   70.52    3.49
   7   4  10   73.07    6.08
  -7  -4 -10   59.73    3.89
  -7  -4 -10   75.60    5.25
   7   4  10   69.69    7.15
  -7  -4 -10   73.70    5.46
   7   4  10   66.73    4.81
  -7  -4 -10   76.26    4.91
  -3   5  11   92.46    5.30
  -3   5  11   94.51    5.38
   3  -5 -11   85.89    5.10
   3  -5 -11   89.03    5.52
  -2  10   3   41.79    4.35
   2 -10  -3   50.22    4.22
  -2  10   3   42.91    4.78
  -2  10   3   52.56    4.20
  -6  -5   6   93.76    5.96
   6   5  -6  101.41    7.37
   6   5  -6   93.03    5.44
  -6  -5   6   90.81    6.80
   1 -10  -6   23.83    3.87
  -1  10   6   28.20    3.85
  -1  10   6   24.45    3.75
   6   9   4  147.84    9.33
   6   9   4  142.25    8.83
   6   9   4  128.51    7.12
   6   9   4  133.23    7.63
   6   9   4  142.42    7.78
   6   9   4  139.50    7.76
   7   1  10   28.83    4.59
   7   1  10   28.43    5.99
   7   1  10   25.14    3.70
  -7  -1 -10   26.83    3.77
   7   1  10   34.30    5.69
  -7  -1 -10   23.28    3.10
  -7  -1 -10   33.33    5.60
  -7  -1 -10   24.60    4.35
  -5   7   5  137.99    6.49
   5  -7  -5  126.38    6.20
  -5   7   5  128.31    8.49
  -5   7   5  122.86    7.18
   6   9   3  156.43    9.49
   6   9   3  149.83    8.03
   6   9   3  152.14    8.09
   6   9   3  152.34    9.17
   6   9   3  130.35    7.20
   4  10   0   29.71    4.36
   4  10   0   23.41    4.25
  -4 -10   0   20.69    4.77
   4  10   0   22.33    4.58
  -2  -2 -14    7.21    3.44
   2   2  14    6.64    3.81
   2   2  14   10.60    4.42
   2   2  14    6.75    3.00
  -2  -2 -14    2.95    3.11
  -2  -2 -14    6.53    3.45
   2   2  14    7.85    3.60
  -2  -4  11   45.11    5.71
   2   4 -11   38.35    3.06
   2   4 -11   39.94    4.24
  -2  -4  11   31.21    4.22
  -1   9  -5    1.96    3.48
  -1   9  -5    3.03    3.75
  -1   9  -5   -1.32    3.99
  -8  -2   3   31.38    5.41
  -8  -2   3   28.92    5.85
   8   2  -3   27.72    2.82
   8   2  -3   23.00    2.16
   8   2  -3   34.03    5.64
   8   2  -3   29.07    3.14
  -8  -2   3   24.12    1.84
  -8   1  -6   34.99    3.27
  -8   1  -6   30.34    5.87
  -8   1  -6   35.65    4.66
   8  -1   6   37.70    5.90
   8  -1   6   29.96    5.47
   8  -1   6   26.79    4.21
   3   0 -12   49.14    4.01
   3   0 -12   60.86    4.45
  -3   0  12   59.70    5.96
  -3   0  12   51.82    3.47
   1   2  14   86.47    6.40
  -1  -2 -14   78.34    5.52
  -1  -2 -14   92.82    5.66
  -1  -2 -14   86.64    5.29
   1   2  14   85.73    5.87
   1   2  14   91.10    5.17
   1   2  14   87.14    5.70
  -6   2   8  137.48    6.20
   6  -2  -8  152.37    8.74
   6  -2  -8  143.74    7.19
  -6   2   8  124.98    8.08
  -6   2   8  106.37    5.66
  -6   2   8  123.28    8.57
  -7   5  -1   15.95    5.36
  -7   5  -1   15.71    5.70
  -7   5  -1   10.71    1.56
  -7   5  -1   14.04    2.15
  -7   5  -1   14.99    3.81
   5   9   8   89.79    5.65
  -5  -9  -8   78.34    5.74
   5   9   8   91.09    5.88
   5   9   8   83.96    7.21
  -5  -9  -8   80.10    5.58
   5   9   8   76.51    4.12
   4   0  13   64.44    5.89
  -4   0 -13   52.99    3.83
   4   0  13   56.95    5.42
  -4   0 -13   54.07    4.72
  -4   0 -13   61.44    5.14
   5   7  11   45.48    3.67
   5   7  11   49.69    6.33
   5   7  11   57.57    4.70
  -5  -7 -11   54.11    4.95
   5   7  11   53.77    3.58
  -7   5   0   28.81    4.16
  -7   5   0   39.70    6.08
  -7   5   0   14.17    1.08
  -7   5   0   13.78    1.12
  -7   5   0   33.78    2.42
  -7   5   0   31.83    5.89
  -7   5   0   12.73    1.24
   2   9  -5  127.73    5.60
   2   9  -5  143.67    6.65
  -2  -9   5  162.83    9.16
  -3   6  -9   50.63    4.78
   3  -6   9   52.29    3.69
  -3   6  -9   53.04    5.21
   3  -6   9   56.12    4.28
  -7   1  -9   56.12    4.37
  -7   1  -9   53.61    5.17
  -7   1  -9   48.21    6.37
  -7   1  -9   54.59    3.51
   7  -1   9   63.58    6.41
   7  -1   9   48.03    6.32
   7  -1   9   60.81    5.28
  -8   0  -7   19.70    4.02
  -8   0  -7   22.11    3.07
  -8   0  -7   16.29    1.85
   8   0   7   10.40    5.37
   8   0   7   18.83    3.92
   8   0   7   21.75    5.53
  -8   0  -7   21.67    5.56
  -2   5  12   27.73    3.42
   2  -5 -12   19.76    3.32
   2  -5 -12   28.72    3.86
  -2   5  12   26.38    3.53
  -6   2 -10   95.85    5.56
   6  -2  10   92.29    7.20
  -6   2 -10   83.97    7.27
   6  -2  10   87.07    6.36
   6  -2  10   91.38    5.66
  -6   2 -10   82.33    4.66
  -6   2 -10   92.79    4.32
   6  -2  10   94.56    7.07
  -1   2 -13   50.59    4.38
   1  -2  13   46.93    3.68
  -1   2 -13   48.36    4.04
  -1   2 -13   52.73    4.36
  -1   2 -13   45.86    4.60
   1  -2  13   50.16    4.32
   2   3  14   69.00    4.44
   2   3  14   57.03    4.55
   2   3  14   70.54    6.26
  -2  -3 -14   70.61    5.18
   2   3  14   70.21    5.52
  -2  -3 -14   69.38    4.59
  -2  -3 -14   64.38    5.02
  -2  -3 -14   57.98    4.80
  -1  -1  13   87.05    6.49
   1   1 -13   87.74    5.50
   1   1 -13   95.11    5.50
  -1  -1  13   72.42    4.92
   1   1 -13   85.32    5.91
  -1  -1  13   87.51    5.04
   1   9  10    3.17    3.15
   1   9  10   -0.93    3.01
  -1  -9 -10   -1.02    2.06
  -1  -9 -10   -0.80    3.64
   1   9  10    2.67    3.40
  -1  10  -2    3.23    3.83
   1 -10   2    6.33    3.55
  -1  10  -2    2.65    3.92
   6   6  -5   12.98    3.48
   6   6  -5    9.06    3.21
  -6  -6   5   16.50    5.64
  -6  -6   5   13.57    4.42
   6   6  -5   18.12    3.85
  -3  -3  11   54.41    5.98
   3   3 -11   57.64    4.76
  -3  -3  11   53.85    5.17
   3   3 -11   48.79    4.30
  -4  -5 -13  130.24    7.26
   4   5  13  135.61    8.92
   4   5  13  129.82    6.26
   4   5  13  122.22    7.70
   1  10   8   23.35    3.72
  -1 -10  -8   21.49    4.11
   1  10   8   21.66    3.75
   1   6  13   45.27    3.79
  -1  -6 -13   41.60    4.45
  -1  -6 -13   37.83    3.70
   1   6  13   39.80    3.79
   1   6  13   41.81    4.58
   8   6   3  122.30    6.60
   8   6   3  117.07    6.46
   8   6   3  123.48    8.98
   8   6   3  118.62    8.45
   8   6   3  121.74    6.49
   8   6   3  118.37    7.68
  -5   6   7   37.27    3.63
  -5   6   7   43.08    5.91
   5  -6  -7   34.12    5.01
   5  -6  -7   40.12    3.56
  -7  -2   6   59.31    6.40
   7   2  -6   51.20    3.50
   7   2  -6   61.98    4.09
  -7  -2   6   49.93    5.61
   7   2  -6   55.05    6.32
  -6   6  -4   23.25    5.61
  -6   6  -4   33.34    4.58
  -5  -3   9   77.19    6.51
  -5  -3   9   74.17    5.14
   5   3  -9   85.98    5.17
  -5  -3   9   86.01    7.24
   1   3  14   40.93    3.75
  -1  -3 -14   36.63    3.98
  -1  -3 -14   35.86    3.91
  -1  -3 -14   36.50    4.09
  -1  -3 -14   37.71    4.10
   1   3  14   40.23    4.39
  -7   3  -7    5.98    2.60
  -7   3  -7    1.60    5.18
  -7   3  -7    3.18    1.01
  -7   3  -7    6.32    4.14
   7  -3   7    1.25    3.66
   7  -3   7    0.69    4.46
   7  -3   7   -1.55    4.81
  -7   3  -7    1.68    0.92
  -7   3  -7    2.15    0.87
  -3   3 -12  138.78    6.41
   3  -3  12  116.77    6.63
  -3   3 -12  124.86    6.89
   3  -3  12  132.54    6.82
  -3   3 -12  113.12    7.33
   3  -3  12  121.84    7.24
  -2  10   0   18.42    3.63
  -2  10   0   24.91    4.44
   2 -10   0   21.57    3.82
   2 -10   0   16.76    1.97
  -2  10   0   21.74    3.78
  -7   3   5   38.90    6.02
   7  -3  -5   40.38    5.94
   7  -3  -5   37.75    2.89
  -7   3   5   38.29    6.43
  -7   3   5   44.77    3.26
  -7   3   5   37.57    3.64
  -7  -5   4    0.12    4.70
  -7  -5   4    3.67    4.07
   7   5  -4    5.10    3.55
   7   5  -4    4.49    2.85
   7   5  -4   -0.09    3.71
   7   5  -4   -1.59    2.78
   7   5  -4    4.26    3.13
   8   6   4   74.76    5.20
   8   6   4   79.28    7.58
   8   6   4   77.02    4.93
   8   6   4   70.27    4.90
   8   6   4   76.53    6.31
   8   6   4   87.86    7.33
   0   8  11   -0.14    2.91
   0   8  11    2.50    3.06
   0   8  11    6.27    3.38
   0  -8 -11   -2.97    3.59
   0  -8 -11    0.39    3.61
   0  -8 -11    6.19    2.43
   6   9   5  204.28   10.20
  -6  -9  -5  224.72   10.52
  -6  -9  -5  227.49   10.68
   6   9   5  257.25   12.22
   6   9   5  230.07   11.77
   6   9   5  231.58   10.47
   6   9   5  243.08   10.50
   6   9   5  229.90   10.64
   6   9   5  195.05    9.02
   3   9  10  112.42    6.76
   3   9  10  119.26    6.20
  -3  -9 -10  117.86    7.07
   0  -7 -12   48.61    4.77
   0   7  12   55.78    4.34
   0   7  12   53.73    4.24
   0   7  12   52.36    4.72
   0  -7 -12   48.54    3.82
   0  -7 -12   49.39    4.75
   6   9   2   95.36    5.70
   6   9   2  115.79    7.74
   6   9   2  122.23    7.98
   6   9   2  107.30    6.64
   6   9   2  107.46    6.67
  -6   4  -8  118.31    5.30
   6  -4   8  112.63    6.51
   6  -4   8  130.33    7.64
  -6   4  -8  109.81    6.08
  -6   4  -8  115.55    8.17
  -4   8  -4   18.31    4.87
  -4   8  -4   16.00    3.29
   4  -8   4   13.79    2.62
  -4   8  -4   15.24    4.29
  -1 -10   3   64.47    5.80
   1  10  -3   59.73    5.25
   1  10  -3   49.36    4.91
  -6  -2   8   28.88    4.59
   6   2  -8   28.38    5.56
   6   2  -8   38.52    3.70
  -6  -2   8   23.43    5.50
  -7   5  -2   21.09    4.03
  -7   5  -2   15.89    2.17
  -7   5  -2   14.51    2.03
  -7   5  -2   18.67    5.72
  -7   5  -2   17.39    5.48
  -4   6   9   21.31    3.32
   4  -6  -9   22.14    4.08
   4  -6  -9   15.13    3.32
   1   1  14   64.93    5.18
   1   1  14   64.69    5.58
  -1  -1 -14   65.59    4.42
  -1  -1 -14   57.31    4.81
  -1  -1 -14   54.85    4.83
   1   1  14   65.40    5.29
   8   2   8  220.30   12.56
   8   2   8  230.57   12.33
  -8  -2  -8  219.46   10.18
  -8  -2  -8  220.83    9.64
   8   2   8  233.76   11.23
  -8  -2  -8  227.22   10.95
  -8  -2  -8  229.40   12.28
  -7   5   1   12.13    5.37
  -7   5   1    8.15    2.18
  -7   5   1    6.10    3.42
  -5  -8 -10    2.62    3.67
   5   8  10   -0.65    3.11
   5   8  10   -0.60    3.90
   5   8  10    5.29    2.29
   5   8  10    3.33    2.74
   5   8  10    1.31    2.20
  -6   6   4   18.35    5.65
   6  -6  -4   15.75    2.37
  -6   6   4   25.52    3.89
  -6   6   4   19.58    2.82
  -2  -1 -14   47.17    4.68
  -2  -1 -14   50.65    4.17
   2   1  14   58.76    5.32
   2   1  14   57.88    5.51
  -2  -1 -14   54.78    4.69
  -2  -1 -14   59.86    4.78
   8   3   8  182.06    9.65
  -8  -3  -8  186.48    8.37
  -8  -3  -8  175.90   10.69
  -8  -3  -8  182.47    8.83
   8   3   8  198.55   11.07
   8   3   8  177.83   11.22
  -8  -3  -8  178.17    9.25
   3   6  13   51.21    3.94
  -3  -6 -13   50.95    4.81
   3   6  13   50.65    4.33
  -3  -6 -13   44.27    4.81
   7   7  -1   15.11    2.53
   7   7  -1   15.34    5.12
   7   7  -1   15.21    3.64
   7   7  -1   16.26    3.48
   7   7  -1   18.04    4.78
   7   7  -1   18.40    5.32
   7   7  -1   15.69    3.96
   5  -4  -9  106.43    7.03
   5  -4  -9  111.07    5.81
  -5   4   9  114.79    5.91
   0   6 -10   46.93    4.35
   0   6 -10   45.01    4.45
   0  -6  10   26.89    2.03
   0   6 -10   53.75    4.61
   0   6 -10   49.28    4.27
  -7  -6  -9   58.84    4.89
  -7  -6  -9   61.75    4.32
   7   6   9   64.77    4.47
   7   6   9   66.08    7.46
   7   6   9   66.51    5.68
  -7  -6  -9   69.55    5.18
   7   6   9   66.90    3.55
   7   6   9   63.81    4.76
   7   6   9   62.00    5.49
   7   6   9   60.69    4.32
  -2  10   4   90.47    5.28
  -2  10   4   79.98    5.51
   2 -10  -4   85.58    5.43
  -7  -4   5    9.83    4.35
  -7  -4   5    7.06    5.10
   7   4  -5    4.00    2.81
   7   4  -5   -0.78    5.10
   8   6   2  163.71    8.21
   8   6   2  155.16    8.05
   8   6   2  175.11   10.03
   8   6   2  170.74    9.57
   8   6   2  179.79    8.26
   8   6   2  162.19    8.16
  -6   4   7    0.93    4.59
   6  -4  -7    7.69    2.62
  -6   4   7    3.56    5.20
   6  -4  -7    0.10    4.74
  -6   4   7    1.24    2.59
  -6   4   7    2.99    2.66
   3  10   8    5.87    3.48
   3  10   8    6.00    3.49
   3  10   8    2.82    3.58
  -2   2 -13  259.08   10.80
   2  -2  13  251.26   11.91
  -2   2 -13  228.30   11.44
  -2   2 -13  251.77   11.52
   2  -2  13  266.14   11.45
  -6  -4   7  151.35    8.08
   6   4  -7  179.24    9.61
   6   4  -7  157.75    7.71
  -6  -4   7  155.98    9.01
  -6  -4   7  147.43    9.41
   4  10   7   15.59    3.86
  -4 -10  -7    6.50    3.98
  -4 -10  -7    9.91    4.05
   4  10   7   10.54    3.53
   3  -8  -8    9.81    3.53
  -3   8   8    8.85    3.11
   3  -8  -8    9.07    3.39
  -3   8   8    8.50    2.38
   3  -3 -12  127.24    6.53
  -3   3  12  141.01    6.73
   3  -3 -12  136.86    7.03
  -3   3  12  122.23    6.47
   1  -5  11   54.06    4.35
  -1   5 -11   45.92    4.62
  -1   5 -11   49.19    4.06
  -1   5 -11   47.28    4.36
   8   4  -2   46.60    4.34
   8   4  -2   55.58    3.85
   8   4  -2   50.60    4.15
  -8  -4   2   57.38    6.43
   8   4  -2   53.82    6.49
   8   4  -2   52.04    5.57
  -8  -4   2   45.21    6.04
   8   4  -2   55.15    3.55
   5  -1 -10   10.54    4.63
  -5   1  10   10.72    1.59
  -5   1  10   12.01    4.29
   5  -1 -10    7.31    3.19
   5  -1 -10   10.72    2.22
  -5   1  10   12.37    5.00
   0  -5  11   60.78    4.24
   0  -5  11   62.33    6.06
   0   5 -11   53.66    4.67
   0   5 -11   51.96    4.41
   0   5 -11   59.61    4.42
  -4  -1  11   46.60    5.65
   4   1 -11   47.12    3.80
   4   1 -11   53.37    4.29
  -4  -1  11   49.91    5.97
  -4  -1  11   39.14    4.42
   0   2 -13   21.51    3.43
   0   2 -13   26.13    3.59
   0   2 -13   19.16    3.91
   0  -2  13   25.83    3.30
   0   2 -13   23.16    3.38
   0  -2  13   28.80    5.03
   0  10  -3   32.13    4.49
   0  10  -3   27.26    4.41
   5   0 -10   76.95    4.42
  -5   0  10   64.64    6.43
  -5   0  10   70.13    5.72
   5   0 -10   78.41    5.04
   5   0 -10   88.44    6.57
   3  10  -2    4.99    3.99
  -3 -10   2    7.44    4.65
   3  10  -2    5.81    3.70
  -8   2   2   79.63    7.26
  -8   2   2   72.97    5.20
  -8   2   2   75.68    7.44
  -1   6 -10   59.11    5.16
   1  -6  10   28.19    1.98
  -1   6 -10   63.55    4.78
   7   8   4   11.60    3.48
   7   8   4   15.65    5.44
   7   8   4    3.32    4.90
   7   8   4   10.89    3.65
   7   8   4   12.35    4.59
   3  -9   3   28.11    3.61
  -3   9  -3   30.71    3.74
   3  -9   3   30.24    2.72
  -3   9  -3   18.21    4.73
  -3   9  -3   20.56    4.49
   8  -1  -3  210.46    8.76
  -8   1   3  248.11   12.37
  -8   1   3  213.44    9.94
   8  -1  -3  239.76   11.71
   7   8   3   12.72    3.81
   7   8   3   19.17    4.88
   7   8   3   13.97    3.59
   7   8   3   20.39    5.58
   7   8   3   14.34    5.07
   5   8  -4   36.29    3.04
  -5  -8   4   51.55    6.12
   5   8  -4   54.72    4.68
   5   8  -4   34.98    2.68
   5   8  -4   48.78    4.16
  -7   4   4  105.52    5.15
  -7   4   4  112.86    8.40
  -7   4   4  104.93    8.12
  -7   4   4   95.19    5.91
   8  -2   5   90.76    7.67
  -8   2  -5   99.37    5.23
  -8   2  -5  101.93    6.86
  -8   2  -5  106.56    8.38
   8  -2   5   93.37    6.12
   8  -2   5   98.68    7.33
  -4  -8 -11   77.75    5.85
   4   8  11   72.40    4.70
  -4  -8 -11   74.81    5.65
   4   8  11   74.26    6.89
   4   8  11   76.02    5.34
   8   6   5   58.74    4.93
   8   6   5   65.15    7.05
   8   6   5   55.54    6.00
   8   6   5   57.84    4.34
   8   6   5   62.30    7.22
   8   6   5   64.36    4.52
   8   5   7    3.92    5.41
  -8  -5  -7    1.70    3.14
  -8  -5  -7   -0.75    3.22
  -8  -5  -7   -0.46    3.35
   8   5   7    5.79    6.07
   8   5   7    0.33    2.44
   8   5   7   -1.98    4.39
   8   5   7    1.68    1.17
   8   5   7    0.62    2.85
   8   5   7    2.49    3.93
   5  -1  12   77.71    5.97
  -5   1 -12   78.02    4.25
  -5   1 -12   73.18    5.24
   5  -1  12   76.98    6.30
   6  -5  -6  111.37    7.61
  -6   5   6  107.19    8.34
   6  -5  -6  114.07    5.66
  -6   5   6  108.50    8.07
  -6   5   6  105.18    6.31
  -6   5   6  127.88    5.85
  -1 -11  -3    4.58    3.54
  -1 -11  -3   -0.32    3.45
   1  11   3   -2.74    4.01
   1  11   3    2.75    3.67
  -1 -11  -3    1.82    3.83
  -2   1  13   58.80    5.62
   2  -1 -13   55.11    4.25
  -2   1  13   47.73    3.96
   2  -1 -13   48.98    4.62
   2  -2 -13   59.98    4.34
  -2   2  13   57.16    5.42
  -2   2  13   55.84    4.13
   2  -2 -13   58.65    4.79
  -4  -7 -12   -0.67    3.83
   4   7  12    2.35    2.67
  -4  -7 -12    3.71    3.80
   4   7  12   -3.91    4.13
   4   7  12    7.12    4.95
   6   8  -2    2.27    3.59
   6   8  -2    5.48    4.25
   6   8  -2    2.69    2.28
   6   8  -2    4.43    3.91
  -6  -8   2   -2.82    5.34
   6   8  -2    2.71    3.23
   6   8  -2   12.65    4.24
   6   7  10   98.72    5.56
  -6  -7 -10  109.21    6.59
   6   7  10  109.04    6.96
   6   7  10  103.03    6.28
  -6  -7 -10   92.57    5.78
  -6  -7 -10  103.63    6.31
   6   7  10  112.17    5.22
   6   7  10   93.99    5.97
   5   6  12    6.27    2.77
   5   6  12    7.13    5.11
   5   6  12    6.57    3.38
  -5  -6 -12    5.28    3.72
   5   6  12    6.92    2.67
  -2  -8   7    4.80    4.78
   2   8  -7    2.92    3.94
   2   8  -7    4.56    2.97
   2   8  -7    3.58    2.70
   2  11   3   34.41    4.72
  -2 -11  -3   33.66    4.41
  -2 -11  -3   29.16    4.20
   2  11   3   33.93    4.49
   4   6  -8  178.77    9.00
  -4  -6   8  170.85    8.65
   4   6  -8  171.25    8.65
   4   6  -8  192.77    8.69
  -4   8   6   93.27    5.16
   4  -8  -6   92.71    5.33
  -4   8   6   74.10    4.38
  -4   8   6   91.17    6.94
  -2  -4 -14   30.67    3.82
   2   4  14   24.98    3.29
   2   4  14   34.18    4.43
   2   4  14   32.98    3.48
  -2  -4 -14   34.27    4.23
  -2  -4 -14   36.62    4.20
   1  -9  -9   53.00    3.62
  -1   9   9   76.30    4.92
  -1   9   9   64.09    4.64
   1  -9  -9   74.90    5.21
   4  -5 -10   55.64    4.47
  -4   5  10   65.26    4.40
   4  -5 -10   59.58    3.76
   4  -5 -10   56.98    5.01
   8  -3   1   17.03    4.80
  -8   3  -1    5.25    1.23
  -8   3  -1    6.91    5.59
  -8   3  -1    6.13    3.65
  -7  -6   3   36.67    5.44
   7   6  -3   35.24    4.30
   7   6  -3   38.88    3.90
   7   6  -3   33.80    5.71
   7   6  -3   36.05    3.50
   7   6  -3   39.35    4.03
   7   6  -3   44.05    5.47
   7   6  -3   39.85    4.89
  -1 -11  -2    7.04    3.79
   1  11   2    3.63    3.73
  -1 -11  -2    1.01    3.74
   1  11   2   -0.64    4.05
   4  -3 -11   14.31    4.02
   4  -3 -11    6.54    2.43
  -4   3  11    7.68    2.53
  -4   3  11    5.52    3.00
   4  -3 -11    4.99    3.36
  -3  -2 -14   60.84    4.34
  -3  -2 -14   65.49    5.03
   3   2  14   64.49    5.70
  -3  -2 -14   58.23    4.70
  -3  -2 -14   58.56    4.95
   3   2  14   64.85    6.14
   3   3  14    4.86    4.63
   3   3  14    1.87    3.00
   3   3  14    3.79    3.80
  -3  -3 -14    1.30    3.35
  -3  -3 -14    6.36    3.59
   6   3  12    6.65    5.43
  -6  -3 -12    9.28    3.36
   6   3  12    8.04    3.11
  -6  -3 -12    9.39    3.61
   8  -3   2   -1.35    4.45
  -8   3  -2   -0.09    1.40
  -8   3  -2    9.60    5.74
  -8   3  -2    2.26    5.41
  -8   3  -2    0.62    3.72
  -8  -1  -8  113.13    8.35
   8   1   8   96.25    8.10
  -8  -1  -8  108.29    5.93
   8   1   8  103.94    6.69
  -8  -1  -8  100.63    5.20
   8   1   8  110.85    8.15
  -7   2   6    7.52    4.99
  -7   2   6    9.10    2.59
   7  -2  -6   10.89    5.19
  -7   2   6   13.29    2.67
   8   3  -3   27.14    2.92
  -8  -3   3   37.69    6.03
   8   3  -3   30.23    2.89
  -8  -3   3   22.36    5.44
   8   3  -3   27.95    3.35
   5  10   4   93.44    5.99
  -5 -10  -4  113.97    6.76
   5  10   4  104.61    7.54
   5  10   4  105.52    6.77
   5  10   4  111.89    6.70
  -5 -10  -4  111.77    6.78
   5  10   4   94.74    7.73
  -5 -10  -3    2.48    4.39
   5  10   3    4.02    3.98
   5  10   3    3.81    4.88
   5  10   3    3.91    4.19
   5  10   3   12.47    4.90
   5  10   3    9.61    3.11
  -5 -10  -3    5.48    3.85
   0  -2 -14  138.80    7.04
   0   2  14  138.34    7.34
   0  -2 -14  125.95    7.27
   0   2  14  135.21    6.83
   0   2  14  127.29    7.32
   0  -2 -14  137.38    7.17
  -2 -11  -4   38.64    4.39
   2  11   4   35.83    4.65
   2  11   4   41.17    4.70
  -2 -11  -4   22.98    3.93
   8   5  -1   89.06    5.15
   8   5  -1   74.45    4.17
   8   5  -1   96.31    6.98
   8   5  -1   82.59    5.46
   8   5  -1   87.77    5.35
   8   5  -1   91.64    4.55
  -8  -5   1   85.01    7.07
   8   5  -1   93.00    7.64
   8   5  -1   84.92    7.19
   2  11   2   26.77    4.35
   2  11   2   23.84    4.59
  -2 -11  -2   32.41    4.31
  -2 -11  -2   22.45    4.37
   7   8   5    3.72    5.09
  -7  -8  -5    9.19    3.72
   7   8   5    7.65    3.53
   7   8   5   10.70    4.41
   7   8   5    7.63    3.55
   7   8   5    1.33    4.98
   6   2  12  208.15   11.33
  -6  -2 -12  199.34    9.26
  -6  -2 -12  204.78    9.81
   6   2  12  189.23    9.38
   3   1 -12    2.26    2.71
   3   1 -12    2.96    3.48
  -3  -1  12    1.55    4.77
  -3  -1  12    6.02    3.11
   3   1 -12   -0.42    3.32
  -3  -1  12    2.39    1.69
   6   9   6  273.14   13.41
  -6  -9  -6  248.62   11.43
   6   9   6  278.57   11.91
   6   9   6  288.37   11.67
   6   9   6  219.33   10.26
   6   9   6  252.09   11.41
  -6  -9  -6  256.88   11.67
   6   9   6  280.05   13.28
   6   9   6  242.72   11.56
  -1 -11  -4   -0.86    3.29
   1  11   4   -0.10    3.58
  -1 -11  -4    1.70    3.53
  -1 -11  -4    0.58    3.71
   1  11   4   -5.93    3.96
  -5  -3 -13    5.58    3.33
   5   3  13    5.57    5.18
   5   3  13   -0.12    4.09
  -5  -3 -13    4.29    3.72
  -5  -3 -13    5.73    3.48
   5   3  13    5.45    2.51
   5   3  13    6.48    3.01
   7   8   2  107.78    6.63
   7   8   2  106.99    7.51
   7   8   2  107.96    6.71
   7   8   2  138.98    8.67
   7   8   2  131.81    8.34
   2  10  -3  110.89    6.54
  -2 -10   3  117.75    7.54
   2  10  -3   95.09    6.16
  -4   7   8   -0.27    2.12
  -4   7   8    2.43    2.82
   4  -7  -8    4.30    3.06
   4  -7  -8    3.54    3.93
   6   9   1  271.34   12.17
   6   9   1  277.88   12.11
   6   9   1  266.61   13.05
   6   9   1  309.68   13.33
  -5  -9   2   32.07    5.47
   5   9  -2   26.13    4.48
   5   9  -2   25.84    4.33
   5   9  -2   31.66    4.42
   5   9  -2   19.38    2.72
  -1  -4 -14   27.91    3.71
   1   4  14   34.81    4.30
  -1  -4 -14   32.60    4.05
   1   4  14   33.61    3.49
  -5   8   1    3.98    2.73
  -5   8   1   -3.51    4.01
  -5   8   1    5.52    5.01
  -5   8   1   -3.89    4.87
  -7  -5 -10   -0.35    3.58
   7   5  10   -1.24    3.20
   7   5  10    2.55    5.52
  -7  -5 -10    7.22    3.79
   7   5  10    3.45    1.96
  -7  -5 -10    3.31    3.37
   7   5  10   -0.08    2.91
  -7  -5 -10   -0.19    2.73
   7   5  10   -0.12    3.96
   7   7   8  153.82    8.32
   7   7   8  157.33    7.66
   7   7   8  152.57    6.84
  -7  -7  -8  159.60    8.19
   7   7   8  165.13    8.14
   7   7   8  156.02    8.57
  -7  -7  -8  153.15    7.97
   7   7   8  156.01   10.05
   7   7   8  143.27    7.37
   7   7   8  161.35   10.51
  -7  -7  -8  144.82    7.42
   7  -5   3   24.90    2.09
  -7   5  -3   41.62    6.20
  -7   5  -3   30.52    2.67
  -7   5  -3   38.21    6.14
  -7   5  -3   34.66    4.73
   6   6  11   19.65    5.58
  -6  -6 -11   19.67    3.38
   6   6  11   18.84    4.43
  -6  -6 -11   20.65    4.23
  -6  -6 -11   21.65    3.95
   6   6  11   19.56    3.75
   6   6  11   18.22    3.84
   6   6  11   22.30    3.12
   6   6  11   20.84    2.71
   8   4   8   48.20    5.15
   8   4   8   54.88    4.21
  -8  -4  -8   51.30    4.60
  -8  -4  -8   46.43    4.65
  -8  -4  -8   49.33    4.20
  -2  10  -1   48.18    3.88
   2 -10   1   71.94    3.68
   2 -10   1   68.56    5.07
  -2  10  -1   63.07    5.52
  -4  -5   9   81.60    7.01
  -4  -5   9   74.94    5.73
   4   5  -9   79.98    5.14
   4   5  -9   73.90    5.36
  -5   6  -7  298.00   14.25
   5  -6   7  279.98   12.96
   5  -6   7  324.62   13.25
  -5   6  -7  291.33   12.22
  -5   6  -7  299.18   14.03
   6   7  -4   15.40    4.02
   6   7  -4   19.82    3.78
   6   7  -4   17.70    3.90
  -6  -7   4   11.58    5.31
   5   2  13  119.10    7.01
  -5  -2 -13  132.56    7.44
  -5  -2 -13  141.81    7.67
   5   2  13  138.49    9.01
  -5  -2 -13  127.16    6.95
   5   2  13  140.45    8.14
  -8   3   0    4.00    5.51
  -8   3   0   -0.94    3.47
  -8   3   0    3.00    1.59
  -5   8   0   -4.37    2.21
  -5   8   0    5.24    4.64
  -5   8   0   -0.66    4.14
  -5   8   0    9.05    5.21
  -5   2  10   36.48    5.70
  -5   2  10   42.29    3.70
   5  -2 -10   42.85    5.16
   5  -2 -10   35.38    2.81
  -5   2  10   33.78    5.00
  -5   2  10   31.82    2.76
   5  -2 -10   45.02    4.07
  -6   1 -11   41.40    4.10
  -6   1 -11   39.50    2.83
   6  -1  11   32.89    5.90
   6  -1  11   40.66    4.76
  -6   1 -11   44.53    5.81
   6  -1  11   46.08    5.67
  -6   1 -11   37.74    3.36
  -3   8  -6   69.91    4.75
  -3   8  -6   61.75    5.70
   3  -8   6   61.63    4.01
  -3   8  -6   52.38    5.54
  -3   9   6   37.14    3.55
  -3   9   6   46.48    4.04
   3  -9  -6   43.62    4.14
  -7   5   2    1.40    2.22
  -7   5   2    3.54    3.28
  -7   5   2    7.28    5.23
   7   0  10   11.72    5.45
   7   0  10   11.64    3.23
   7   0  10   11.03    4.01
  -7   0 -10   11.27    5.34
  -7   0 -10   12.87    2.78
   7   0  10    7.98    5.05
  -7   0 -10   12.80    3.39
   0   7  -9  100.83    6.60
   0   7  -9  125.25    6.71
   8   6   1   45.84    5.94
   8   6   1   41.20    3.64
   8   6   1   45.50    4.36
   8   6   1   52.35    4.22
   8   6   1   40.18    6.64
   8   6   1   51.87    6.03
   8   6   1   47.53    4.27
   1   6 -10  144.36    6.95
  -1  -6  10  145.74    7.83
   1   6 -10  142.12    7.30
   1   6 -10  126.85    7.04
  -1  -6  10   88.04    4.84
   0  -1 -14   99.76    5.77
   0   1  14  106.49    6.08
   0   1  14   87.34    6.36
   0  -1 -14   96.37    5.99
   0  -1 -14   94.98    6.09
  -1   4 -12   50.05    4.64
  -1   4 -12   54.41    4.20
  -1   4 -12   50.03    4.56
   1  -4  12   45.60    4.27
  -5  -1  10   97.27    6.40
   5   1 -10  100.16    5.42
   5   1 -10  120.85    6.12
  -5  -1  10   99.11    7.39
   0   3  14   53.26    4.75
   0   3  14   61.78    4.80
   0  -3 -14   57.16    4.73
   0  -3 -14   65.81    4.90
   0  -3 -14   65.59    4.83
   0   3  14   66.35    4.51
  -3  -6   9   38.72    5.90
  -3  -6   9   34.48    3.88
   3   6  -9   37.69    4.05
   3   6  -9   42.22    4.63
  -5 -10  -5  138.75    7.76
   5  10   5  123.14    7.21
   5  10   5  133.64    7.89
  -5 -10  -5  144.70    7.73
   5  10   5  151.40    9.14
   5  10   5  145.09    7.76
   5  10   5  136.11    8.56
   1  11   1  129.51    7.37
  -1 -11  -1  125.53    7.06
   1  11   1  113.18    7.17
  -1 -11  -1  112.48    6.98
   4   7  -7    4.77    1.64
   4   7  -7    8.41    4.01
   4   7  -7    6.58    2.92
  -4  -7   7    7.35    3.46
  -5 -10  -2   83.89    6.57
   5  10   2   82.23    6.03
   5  10   2   70.98    4.79
   5  10   2   74.51    6.51
   5  10   2   77.92    6.00
   4  10  -1  117.38    5.32
  -4 -10   1   98.33    7.10
   4  10  -1   85.48    5.66
  -2   0  13   19.50    4.85
  -2   0  13   18.10    2.97
   2   0 -13   20.58    3.43
   1   0  14    2.27    3.65
   1   0  14    5.31    3.41
   1   0  14    4.67    4.19
  -1   0 -14    2.63    3.32
  -1   0 -14    3.37    3.09
  -1   0 -14    7.17    3.27
  -1   5  13   60.17    4.79
   1  -5 -13   58.93    4.66
   1  -5 -13   61.02    4.96
   1  -5 -13   67.98    4.84
   2  -3 -13   88.54    5.75
   2  -3 -13   88.49    5.30
   2  -9  -8    6.27    3.52
  -2   9   8    2.22    2.62
  -2   9   8    3.82    3.24
  -5   8   2    2.46    2.51
  -5   8   2    5.35    3.93
  -5   8   2    5.96    4.93
  -5   8   2   -0.48    5.01
  -8   3  -3   14.91    5.84
   8  -3   3   10.82    4.87
  -8   3  -3   13.17    5.55
  -8   3  -3    6.02    3.81
  -8   3  -3    9.84    2.01
   8  -3   3   12.99    3.46
   0  10   8   23.24    3.78
   0 -10  -8   32.90    4.20
   0 -10  -8   16.05    1.91
   0  10   8   36.11    3.85
   0   9  10   87.94    5.48
   0  -9 -10   98.93    5.95
   0  -9 -10   73.59    4.33
   5  -7   5   52.53    4.05
  -5   7  -5   64.38    4.08
  -5   7  -5   61.02    6.39
   6   4  12    4.38    2.41
  -6  -4 -12    8.81    3.71
  -6  -4 -12    3.53    3.47
   6   4  12    5.39    3.06
   6   4  12   10.57    5.53
  -3  -1 -14  182.03    8.47
   3   1  14  191.73   10.15
   3   1  14  188.30    9.89
  -3  -1 -14  183.79    9.24
  -3  -1 -14  189.86    9.26
   5   6  -7   -4.24    3.22
  -5  -6   7   -1.28    4.03
   6  -3  -8   91.49    6.90
  -6   3   8   78.43    6.81
  -6   3   8   72.79    4.68
  -6   3   8   89.76    4.88
  -2   8  -7   12.15    4.05
  -2   8  -7   11.74    3.69
   2  -8   7    9.97    2.50
  -2   8  -7   13.40    3.65
  -4   9   1   -1.39    3.82
  -4   9   1    3.22    4.47
  -4   9   1   -2.05    2.60
  -4   9   1    2.34    4.81
   0  -6 -13  149.89    7.67
   0   6  13  164.33    7.65
   0  -6 -13  128.76    7.02
   0   6  13  145.75    7.64
   0   6  13  170.04    8.39
   0  -6 -13  141.83    7.59
  -2   5 -11   13.56    3.23
   2  -5  11   10.61    3.32
  -2   5 -11    5.97    3.90
   2  -5  11   12.97    3.54
  -2   5 -11    8.08    3.11
   0  -4  12   49.97    4.12
   0   4 -12   60.53    4.46
   0   4 -12   57.93    4.83
   0  -4  12   61.97    5.95
  -2  10   5   50.78    4.47
  -2  10   5   53.85    4.24
   2 -10  -5   47.34    4.45
  -2   0 -14   59.10    4.35
   2   0  14   75.78    5.67
   2   0  14   52.75    5.29
  -2   0 -14   60.17    4.97
  -2   0 -14   62.82    4.94
   8   6   6   38.95    4.54
  -8  -6  -6   40.04    4.11
   8   6   6   45.06    4.15
   8   6   6   44.41    5.57
   8   6   6   40.53    3.66
   8   6   6   41.19    6.90
   8   6   6   50.17    6.59
   2  11   5   87.02    6.01
  -2 -11  -5   79.82    5.57
   2  11   5   82.90    6.04
  -2 -11  -5   66.95    4.94
  -7   4  -6  230.19   10.20
   7  -4   6  242.34   11.83
  -7   4  -6  244.44   12.86
  -7   4  -6  241.41   11.89
   7  -4   6  228.09   11.07
  -1   7  -9   87.71    5.50
  -1   7  -9   73.35    5.96
   3   4  14   15.36    4.11
  -3  -4 -14   18.51    3.92
  -3  -4 -14   16.25    3.79
   3   4  14   16.13    3.19
   3   4  14   17.34    5.29
  -1  -5  11  107.76    7.25
  -1  -5  11   72.60    4.97
   1   5 -11  101.27    5.68
   1   5 -11   84.68    5.83
  -5   8  -1   46.56    5.59
  -5   8  -1   36.92    2.98
  -5   8  -1   46.67    5.18
  -5   8  -1   38.02    6.06
   2  11   1   -3.12    4.11
   2  11   1    2.54    3.31
  -2 -11  -1   -3.84    4.18
   2  11   1   -2.63    3.73
  -2 -11  -1    0.73    3.73
  -5  -4 -13    6.73    3.67
   5   4  13    9.09    2.62
   5   4  13    7.36    5.26
   5   4  13    3.33    4.04
   5   4  13    3.28    2.90
  -5  -4 -13    5.00    3.57
  -5  -4 -13   11.39    3.79
  -7  -3   6    6.12    4.35
  -7  -3   6   12.01    5.15
   7   3  -6    2.74    2.90
   7   3  -6    6.50    5.16
  -1  10   7   -2.42    3.20
  -1  10   7   -0.15    3.04
   1 -10  -7    4.48    1.72
   1 -10  -7    0.86    3.59
  -4   9   2    1.54    3.80
  -4   9   2   -2.00    4.57
  -4   9   2   -0.13    2.99
  -4   9   2   -1.97    2.53
   3  -7   8  126.10    6.45
  -3   7  -8  135.65    7.95
  -3   7  -8  125.31    7.49
   6   8   9   15.76    2.62
   6   8   9   16.23    3.91
   6   8   9   15.39    3.70
   6   8   9   21.21    2.91
  -6  -8  -9   26.13    4.30
   6   8   9   24.24    3.63
  -6  -8  -9   16.93    3.84
   6   8   9   22.35    5.71
  -6  -8  -9   21.03    4.16
   5   5  -8   14.88    3.34
  -5  -5   8   18.76    4.50
  -5  -5   8   12.29    5.43
   0 -11  -3   99.51    6.01
   0 -11  -3   89.65    6.09
   0  11   3   93.59    6.31
   0  11   3   99.53    6.36
   0 -11  -2  110.88    6.68
   0  11   2  107.70    6.77
   0  11   2  109.57    6.80
   1  11   5   22.49    4.16
  -1 -11  -5   25.39    4.10
   1  11   5   21.34    4.21
  -1 -11  -5   21.96    4.09
  -1 -11  -5   17.93    3.38
  -4   9   0    4.70    2.72
  -4   9   0    5.30    4.40
  -4   9   0    2.78    4.08
  -4   9   0    2.69    4.75
  -8  -1   4   27.52    2.11
  -8  -1   4   45.37    6.02
   8   1  -4   48.21    6.27
   8   1  -4   42.31    3.41
  -8  -1   4   44.22    6.24
  -6   5  -7   24.22    5.58
   6  -5   7   19.85    4.38
   6  -5   7   25.69    3.41
  -6   5  -7   25.59    2.58
   3   5 -10   72.89    3.59
  -3  -5  10   80.50    5.92
  -3  -5  10   98.33    7.39
   3   5 -10   90.23    5.52
   6   1  12   64.03    5.76
  -6  -1 -12   66.50    5.03
   6   1  12   59.99    4.76
   6   1  12   68.60    6.80
  -6  -1 -12   58.49    4.38
   7   8   6    5.45    5.36
  -7  -8  -6    5.57    3.67
   7   8   6    3.50    5.51
   7   8   6    4.44    3.43
   7   8   6    5.10    3.48
   7   8   6    6.04    4.33
   8  -1   7  110.02    8.19
  -8   1  -7  115.63    8.54
   8  -1   7  113.98    8.20
   8  -1   7  104.18    6.89
  -8   1  -7  111.35    7.19
  -8   1  -7  103.25    5.76
   3   7  -8    3.71    2.97
   3   7  -8    6.29    4.02
  -3  -7   8    2.53    2.46
   3   7  -8   -0.19    2.40
   2  -6  10    2.10    1.67
   2  -6  10    9.37    3.30
  -2   6 -10    2.96    3.73
  -2   6 -10    0.39    3.14
   1   7  -9   12.68    4.17
   1   7  -9   10.15    3.20
   1   7  -9   14.67    3.52
  -8   3   1    4.75    5.09
  -8   3   1    2.13    3.39
  -8   3   1    2.90    1.86
  -8   3   1   -3.08    5.53
   2   3 -12   33.26    4.30
  -2  -3  12   27.85    5.41
  -2  -3  12   30.29    2.75
  -1  10  -3   -0.67    3.82
  -1  10  -3   -4.07    4.05
  -5  -1 -13  109.68    6.48
  -5  -1 -13   98.10    5.81
   5   1  13  104.12    7.02
  -5  -1 -13   99.84    5.24
  -5  -1 -13  106.68    6.73
   5   1  13  110.14    7.76
   5   1  13   95.57    6.09
   7   8   1  152.94    9.13
   7   8   1  138.05    7.74
   7   8   1  135.78    7.69
   7   8   1  167.53    9.61
   7   8   1  150.67    8.69
   3  11   3   58.71    5.60
   3  11   3   67.23    5.46
  -3 -11  -3   66.97    5.47
   4   9  10   71.51    4.66
  -4  -9 -10   70.32    5.50
   4   9  10   70.98    5.16
   4   9  10   67.59    5.59
   4   9  10   69.27    5.22
  -4  -9 -10   68.52    5.67
  -2   9  -5   -0.11    4.02
   2  -9   5    4.54    2.14
  -2   9  -5    2.86    3.99
  -2   9  -5    2.11    3.52
  -5   7   6  130.56    6.94
  -5   7   6  137.68    6.28
   5  -7  -6  120.85    6.12
  -5   7   6  128.66    8.53
  -5   7   6  110.08    5.38
  -8   0   4    3.84    2.24
   8   0  -4    1.40    2.53
  -8   0   4    4.64    4.98
  -8   0   4    4.97    5.35
   8   0  -4    2.01    5.26
  -4   1 -13   49.94    4.58
   4  -1  13   46.94    4.28
  -4   1 -13   45.82    4.87
   4  -1  13   49.39    4.95
   4  -1  13   53.60    5.42
  -4   1 -13   48.56    3.66
   0   9  -6    5.62    2.17
   0   9  -6    8.96    3.83
   0   9  -6    5.18    3.67
   4  -7   7   79.55    4.87
  -4   7  -7   97.52    5.51
  -4   7  -7   90.88    6.95
  -4   7  -7  100.29    6.95
  -6   6  -5  110.55    6.79
  -6   6  -5  116.81    8.03
   2  -7 -11  133.63    7.35
  -2   7  11  137.55    6.68
   2  -7 -11  139.28    7.07
  -2   7  11  121.10    6.44
  -3 -11  -4   63.58    5.17
   3  11   4   63.79    5.53
   3  11   4   67.80    5.76
  -3 -11  -4   60.83    5.15
  -3   2 -13   48.41    3.97
   3  -2  13   50.34    4.30
   3  -2  13   51.55    4.73
   3  -2  13   51.85    4.87
  -3   2 -13   55.41    4.56
  -6   7   0  175.50   10.50
  -6   7   0  179.12    9.98
  -6   7   0  152.89    8.98
   5  -4  10   72.46    5.71
  -5   4 -10   68.58    6.00
  -5   4 -10   62.76    6.39
  -5   4 -10   75.14    4.25
  -5   4 -10   79.98    5.06
   5  -4  10   80.13    5.90
   5  -4  10   70.18    4.94
   5   9   9   48.76    4.97
   5   9   9   45.61    6.44
  -5  -9  -9   41.98    4.64
   5   9   9   50.07    4.57
  -5  -9  -9   49.24    4.97
   3   9  -5   15.80    4.23
   3   9  -5    8.14    2.45
   3   9  -5    3.82    1.33
   3   9  -5   20.33    4.06
   3   9  -5    6.30    3.18
  -3  -9   5   13.41    5.12
  -3   4  12   11.66    3.13
   3  -4 -12   11.88    3.37
   3  -4 -12    8.40    2.84
  -3   4  12   10.33    2.92
  -1  -9   6   95.82    7.19
   1   9  -6   91.81    6.13
   1   9  -6  108.13    6.45
  -6  -3   8   97.05    7.43
   6   3  -8  110.29    7.73
   6   3  -8  104.16    5.78
  -6  -3   8   94.67    6.36
  -4  -6 -13  145.62    8.04
   4   6  13  150.51    7.36
   4   6  13  140.20    5.63
  -4  -6 -13  157.27    8.39
   2  10   9   62.08    4.83
  -2 -10  -9   55.44    5.16
   2  10   9   51.02    4.76
   0 -11  -4  144.21    7.49
   0  11   4  140.49    7.93
   0  11   4  148.29    7.80
   0 -11  -4  138.87    7.55
   0 -11  -4  133.10    7.04
  -2  -8 -12   45.92    4.68
  -2  -8 -12   29.61    3.25
   2   8  12   42.65    4.61
   2   8  12   39.13    3.76
   2   8  12   35.52    3.98
   4   9  -4  140.02    6.83
  -4  -9   4  174.43    9.89
   4   9  -4  141.94    7.30
   4   9  -4  148.88    7.26
   2  -4  12   40.63    4.45
  -2   4 -12   36.16    4.55
  -2   4 -12   48.91    3.87
   1   2 -13   50.39    4.12
   1   2 -13   36.06    4.47
  -1  -2  13   41.14    3.54
   1   2 -13   47.02    3.69
  -1  -2  13   46.22    5.57
   1   2 -13   37.83    4.03
   0  11   1   60.23    5.20
   0 -11  -1   59.86    5.06
   0  11   1   52.40    5.32
   4   2 -11   10.33    3.21
  -4  -2  11   13.42    4.75
  -4  -2  11   11.04    3.15
  -4  -2  11   12.29    5.30
  -6   7   1   10.83    4.18
  -6   7   1   16.37    2.85
  -6   7   1   19.77    5.66
  -6   7   1   23.30    5.53
  -6   7   1   16.39    2.37
  -5  -7   6    1.35    5.12
  -5  -7   6   -0.17    3.85
  -5 -10  -6  119.71    7.24
   5  10   6  111.83    8.17
  -5 -10  -6  129.85    7.19
   5  10   6  117.02    6.96
  -4   4 -11   33.11    3.28
  -4   4 -11   28.13    4.71
   4  -4  11   32.05    4.73
   4  -4  11   35.25    3.66
   4  -4  11   28.44    4.38
   3  11   2  108.93    6.67
   3  11   2   99.38    6.73
  -3 -11  -2   88.88    6.22
   5  10   1    9.66    1.08
   5  10   1   26.90    4.83
   5  10   1   21.74    4.18
   5  10   1   20.04    4.45
   5  10   1   23.79    2.88
  -5 -10  -1   17.94    4.99
   5  10   1   22.65    4.95
  -5   8   3   10.48    3.00
   5  -8  -3   11.53    2.53
  -5   8   3    7.72    2.42
  -5   8   3    2.34    5.07
  -5   8   3   10.81    5.13
  -5   8   3   11.69    3.99
  -8   2   3  189.41   11.06
  -8   2   3  173.46    8.65
   8  -2  -3  120.96    5.26
   8  -2  -3  128.26    5.22
  -8   2   3  192.01   10.91
  -8   0  -8   18.44    2.35
  -8   0  -8   16.36    4.08
   8   0   8   10.48    5.55
   8   0   8   22.73    4.19
  -8   0  -8   22.03    5.76
   8   0   8   25.68    5.68
  -8   0  -8   21.15    3.25
  -4 -10  -8   24.10    4.34
   4  10   8   31.79    4.21
  -4 -10  -8   32.77    4.62
   4  10   8   31.82    4.23
   4  -9  -3   26.20    3.24
  -4   9   3   27.58    3.40
  -4   9   3   30.59    4.39
  -4   9   3   20.56    5.09
  -6   6   5    9.34    5.63
   6  -6  -5    8.14    2.46
  -6   6   5   16.08    5.19
  -6   6   5   13.18    2.79
  -6   6   5   13.89    3.63
  -6  -9  -7  128.22    7.33
   6   9   7  138.54    8.88
  -6  -9  -7  125.42    7.06
   6   9   7  135.98    7.10
   6   9   7  127.54    7.30
   6   9   7  128.88    6.91
   6   9   7  113.53    5.70
   6   9   7  119.06    7.19
   0   0  14   24.86    4.06
   0   0 -14   24.65    3.61
   0   0  14   27.37    4.80
   0   0  14   23.68    3.62
   0   0 -14   24.45    3.72
   8   2  -4  192.50    8.56
   8   2  -4  178.37    7.92
   8   2  -4  211.39   10.89
  -8  -2   4  196.12   11.54
  -8  -2   4  208.55   11.35
   8   2  -4  211.30    8.47
  -5   3 -11   79.14    6.86
  -5   3 -11   86.70    4.63
   5  -3  11   80.87    6.04
  -5   3 -11   78.21    6.35
   5  -3  11   70.63    5.88
  -5   3 -11   94.51    5.58
   5  -3  11   80.15    6.49
   5  -3  11   77.03    5.19
  -6   7  -1  222.67   11.40
  -6   7  -1  196.76   10.40
  -6   7  -1  199.80   11.61
  -1 -11   0  129.43    7.65
   1  11   0   58.06    3.53
  -1 -11   0  135.68    7.44
   1  11   0  141.29    6.47
  -9  -2  -3   81.77    5.43
   9   2   3   67.03    5.12
   9   2   3   74.93    7.26
   9   2   3   70.59    4.32
   9   2   3   76.07    3.68
  -9  -2  -3   79.08    7.59
  -6  -9   0   23.29    5.39
   6   9   0   30.39    4.15
   6   9   0   20.22    3.07
   6   9   0   30.47    5.49
   6   9   0   27.65    4.33
   6   9   0   25.97    5.20
   7  -5   4   59.45    5.74
  -7   5  -4   61.86    6.95
  -7   5  -4   56.34    3.69
  -7   5  -4   60.95    5.58
   8  -2   6  212.43   10.67
  -8   2  -6  232.23   12.47
  -8   2  -6  226.50   11.14
   8  -2   6  224.10   11.71
  -8   2  -6  213.01    9.63
   8  -2   6  229.13   12.04
   2   5  14   54.30    3.69
   2   5  14   51.24    4.70
  -2  -5 -14   52.18    4.81
  -2  -5 -14   52.71    4.79
  -2  -5 -14   43.74    4.17
  -4   5 -10  279.19   11.23
   4  -5  10  240.54   11.44
   4  -5  10  257.38   11.20
   4  -5  10  232.20   10.91
  -4   5 -10  251.37   12.73
  -4   5 -10  246.23   12.44
  -4  -4  10   27.05    5.63
   4   4 -10   21.82    3.63
  -4  -4  10   24.27    4.75
   7   7  -2   23.83    5.20
   7   7  -2   24.33    3.76
   7   7  -2   30.12    5.61
   7   7  -2   17.43    3.77
   7   7  -2   23.44    4.15
   7   7  -2   15.32    2.04
   7   7  -2   30.08    4.86
   9   2   2   61.53    6.61
   9   2   2   51.57    3.94
  -9  -2  -2   56.63    6.84
   9   2   2   53.74    6.31
   9   2   2   56.28    3.25
  -9  -2  -2   59.44    4.60
   9   2   2   51.86    4.30
   8   6   0   48.62    4.30
   8   6   0   44.08    5.98
   8   6   0   48.18    4.11
   8   6   0   33.14    5.57
  -8  -6   0   37.81    5.60
   8   6   0   38.80    3.30
   8   6   0   42.94    6.47
   8   6   0   43.06    4.36
  -8   3  -4  134.22    9.34
   8  -3   4  122.29    8.19
  -8   3  -4  126.18    7.66
  -8   3  -4  119.58    5.80
   8  -3   4  117.87    6.85
   0  -4 -14    3.20    3.54
   0  -4 -14    1.64    3.25
   0   4  14    2.60    3.02
   0  -4 -14    1.69    3.02
  -4   9  -1   25.31    3.33
  -4   9  -1   19.31    5.23
   4  -9   1   24.45    3.56
  -4   9  -1   25.67    4.60
  -7  -3 -11  138.21    8.02
  -7  -3 -11  135.14    7.12
   7   3  11  125.44    9.45
   7   3  11  129.24    9.25
   7   3  11  136.62    8.26
  -7  -3 -11  151.81    7.74
   7   3  11  129.39    7.07
  -7   5   3   36.71    3.09
  -7   5   3   37.48    6.30
  -7   5   3   37.99    4.21
  -7   5   3   30.89    6.27
  -5   3  10   97.83    5.09
  -5   3  10  102.95    7.78
   5  -3 -10  123.03    6.90
   5  -3 -10   91.34    4.71
  -5   3  10  114.37    5.71
  -5   3  10   85.92    7.11
  -2  10  -2    4.76    4.17
  -2  10  -2    2.82    3.61
   2 -10   2    3.92    1.76
  -2  10  -2    1.23    3.99
   2 -10   2    1.99    3.44
  -5   8  -2  120.75    7.81
   5  -8   2  118.08    6.02
  -5   8  -2  130.25    5.96
  -5   8  -2  114.85    8.75
  -5   8  -2  137.44    8.15
   4  -8   5   47.67    3.65
  -4   8  -5   48.17    4.10
  -4   8  -5   44.56    5.72
  -4   8  -5   47.07    5.34
   2  -8 -10   66.80    5.13
  -2   8  10   59.04    4.33
  -2   8  10   68.11    4.58
  -3 -11  -5   58.96    5.02
   3  11   5   74.57    5.79
   3  11   5   69.09    5.69
  -3 -11  -5   78.17    5.69
  -3 -11  -5   70.47    5.51
  -3   7  10  125.63    6.33
   3  -7 -10  126.42    6.70
   3  -7 -10  109.55    5.96
  -3   7  10  113.48    5.88
   8   5   8   24.93    4.50
   8   5   8   19.56    4.77
  -8  -5  -8   23.96    3.94
   8   5   8   20.13    1.58
  -8  -5  -8   24.95    3.77
  -8  -5  -8   28.10    4.06
   8   5   8   23.82    3.61
   1  10   9   36.46    4.15
   1  10   9   34.99    4.05
  -1 -10  -9   45.12    4.82
   1  10   9   38.74    4.23
  -9  -1  -2   76.77    7.50
   9   1   2   66.51    4.69
   9   1   2   63.74    6.69
   9   1   2   59.40    3.90
   7   2  11   61.15    6.74
  -7  -2 -11   58.69    4.75
   7   2  11   49.13    5.40
  -7  -2 -11   47.23    5.18
  -7  -2 -11   55.11    4.21
   7   2  11   46.30    4.40
   7   2  11   53.42    6.87
  -7   0   7   61.68    7.07
   7   0  -7   68.64    6.27
  -7   0   7   67.12    6.44
   7   0  -7   70.76    3.82
   9   1   3   26.45    6.19
  -9  -1  -3   29.22    6.25
   9   1   3   25.61    2.84
   9   1   3   27.14    3.84
   9   1   3   21.12    5.55
  -7   2  -9   96.92    7.75
   7  -2   9   86.77    7.47
   7  -2   9   92.29    5.83
   7  -2   9   88.81    6.56
  -7   2  -9   92.21    5.30
  -7   2  -9   99.08    6.72
  -7   2  -9   84.47    4.31
   7  -2   9  104.56    7.60
  -7   2  -9   80.61    3.59
  -3   9  -4    6.29    4.14
  -3   9  -4   10.18    4.53
   3  -9   4   12.07    2.39
  -3   9  -4    8.12    3.47
  -4   4  11   69.52    4.57
  -4   4  11   64.60    4.27
   4  -4 -11   62.57    4.11
   4  -4 -11   59.95    4.73
  -2 -11  -6   39.72    4.60
   2  11   6   48.23    4.83
  -2 -11  -6   31.32    3.63
   2  11   6   37.68    4.66
   1   8  12   33.71    3.75
  -1  -8 -12   32.34    4.54
   1   8  12   42.83    4.47
  -1  -8 -12   28.30    3.22
   1   8  12   34.20    3.93
   2  11   0   16.16    4.34
   2  11   0    9.63    2.28
  -2 -11   0   13.32    4.46
  -2 -11   0   20.41    4.19
   9   2   4   87.03    7.87
   9   2   4   85.96    5.63
  -9  -2  -4   86.17    5.89
  -9  -2  -4   86.90    7.91
   3   8  12   36.33    4.62
  -3  -8 -12   30.89    4.58
   3   8  12   24.23    3.86
  -3  -8 -12   34.33    4.60
   3   8  12   35.19    3.52
   2   7  13    7.47    3.91
   2   7  13   10.18    3.13
  -2  -7 -13    5.34    2.81
  -2  -7 -13    8.40    3.90
   2   7  13    7.94    3.17
   1   5  14   16.10    3.19
  -1  -5 -14   13.46    3.73
  -1  -5 -14   14.81    3.23
   1  -8 -11   42.33    4.23
   1  -8 -11   42.60    4.61
   1  -8 -11   35.14    3.40
  -1   8  11   39.25    3.76
  -5   5  -9   64.22    5.95
  -5   5  -9   60.07    6.23
   5  -5   9   59.96    4.58
  -5   5  -9   65.79    4.00
   5  -5   9   62.77    5.34
  -6   7   2   81.94    7.43
  -6   7   2   88.17    7.25
  -6   7   2   69.73    5.77
  -6   7   2   65.55    3.64
  -6   7   2   92.26    4.56
   3  10   9   23.36    3.96
   3  10   9   22.92    3.88
   3  10   9   18.17    3.95
   1  -7 -12   -3.16    3.79
  -1   7  12    4.61    2.82
  -1   7  12   -0.81    3.42
   1  -7 -12    0.97    3.26
   1  -7 -12    1.95    2.82
  -8  -4   3   10.83    5.45
   8   4  -3   10.01    2.80
   8   4  -3    8.85    2.57
   8   4  -3   15.29    4.32
   8   4  -3    7.04    5.04
  -8  -4   3    8.79    4.85
   8   4  -3    8.90    3.14
   9   3   3  132.19    8.46
   9   3   3  132.75    6.83
   9   3   3  128.70    6.05
   9   3   3  128.92    9.09
   9   3   3  128.42    5.99
   9   3   3  125.66    9.63
  -9  -3  -3  133.01    6.93
   9   3   3  120.05    6.28
  -9  -3  -3  125.63    9.07
  -5  -2  10  167.98    8.86
  -5  -2  10  182.45   10.13
  -5  -2  10  198.30   10.50
   5   2 -10  205.07    9.37
   6   5  12   96.39    4.96
   6   5  12   96.20    5.79
  -6  -5 -12  107.23    6.73
  -6  -5 -12  101.85    6.23
   6   5  12  103.50    8.33
   6   5  12  100.83    6.11
   2   1 -13  155.50    8.37
   2   1 -13  157.97    7.85
  -2  -1  13  160.99    7.44
  -2  -1  13  164.63    9.25
   8  -1  -4   49.77    6.45
  -8   1   4   47.76    6.13
  -8   1   4   36.53    3.53
  -2   6  12    0.95    3.11
   2  -6 -12    0.81    3.14
   2  -6 -12    2.53    3.46
  -2   6  12    3.97    2.99
   2  -6 -12    6.33    3.11
  -1 -10   4   36.47    5.31
   1  10  -4   23.13    4.29
   1  10  -4   39.11    4.72
   3  -6 -11   58.04    4.81
  -3   6  11   63.42    4.51
   3  -6 -11   61.55    4.27
   3  -6 -11   55.16    4.13
  -2   4  13   99.31    5.82
   2  -4 -13  105.01    6.17
   2  -4 -13  101.91    5.84
   2  -4 -13  101.55    6.09
  -7  -1   7  130.69    8.97
  -7  -1   7  128.59    8.28
   7   1  -7  127.73    6.01
   7   1  -7  140.38    8.29
   8   3   9  114.25    8.82
  -8  -3  -9  106.01    5.79
  -8  -3  -9  107.96    6.35
   8   3   9  106.76    8.32
  -8  -3  -9  102.79    6.75
   8   3   9   99.72    7.04
   3   0  14  169.58    9.21
   3   0  14  169.84    9.14
  -3   0 -14  167.16    7.90
  -3   0 -14  167.33    8.71
   5   4  -9   -1.49    3.18
  -5  -4   9    0.99    4.36
  -5  -4   9    1.33    2.44
  -5  -4   9    0.25    5.38
   7  -3   8  111.93    7.20
   7  -3   8  113.21    6.59
  -7   3  -8  118.04    7.40
   7  -3   8  110.89    7.95
  -7   3  -8  122.96    8.64
  -7   3  -8  119.47    4.59
  -7   3  -8  116.53    5.92
   4   3  14   37.67    3.93
  -4  -3 -14   37.65    4.17
  -4  -3 -14   40.64    4.52
   4   3  14   39.01    3.47
   4   3  14   33.03    4.91
   4   3  14   36.55    5.89
  -8  -2  -9   97.19    7.95
   8   2   9   94.76    8.34
   8   2   9  102.75    6.82
  -8  -2  -9  104.87    6.69
   8   2   9   98.75    8.07
  -8  -2  -9   99.30    5.43
  -8  -2  -9   98.81    6.07
  -1  -4  12   92.07    5.10
   1   4 -12   88.31    5.92
   1   4 -12   92.90    5.55
   1   4 -12   88.33    5.22
  -1  -4  12   94.48    7.21
   6   0  -9   17.23    3.31
  -6   0   9   17.08    5.45
   6   0  -9   22.76    5.30
  -6   0   9   14.44    4.41
   6   0  -9   16.69    2.27
  -7   4   5  127.11    5.83
   7  -4  -5  119.87    5.56
   7  -4  -5  126.01    8.38
  -7   4   5  104.85    6.39
  -7   4   5  127.66    8.92
  -7   4   5  114.42    8.93
   9   2   1   63.84    4.47
   9   2   1   77.38    4.76
  -9  -2  -1   80.36    7.37
  -9  -2  -1   75.56    4.96
   9   2   1   70.39    7.71
   9   2   1   78.34    6.96
  -9  -2  -1   80.29    7.70
   9   2   1   76.67    6.96
   9   2   1   74.93    3.96
  -7   3   6    8.45    2.63
  -7   3   6   10.25    2.71
  -7   3   6    9.06    5.18
   7  -3  -6    6.80    2.39
   7  -3  -6    7.56    5.39
  -3  -2  12   27.07    2.80
  -3  -2  12   35.03    4.85
  -3  -2  12   29.44    2.17
   3   2 -12   31.02    4.24
  -3  -2  12   35.87    5.67
   3   2 -12   35.92    4.01
  -4  -8   6  140.40    8.94
   4   8  -6  133.96    6.43
   4   8  -6  160.06    7.59
  -1 -11  -6   73.74    5.33
   1  11   6   70.10    5.30
  -1 -11  -6   49.66    3.97
   1  11   6   59.81    5.35
   2   9  11   34.80    4.34
   2   9  11   29.17    3.66
  -2  -9 -11   27.67    4.41
  -2  -9 -11   30.14    4.52
   2   9  11   22.80    3.75
  -1   9  -6   18.87    4.17
  -1   9  -6   15.68    3.59
  -1   9  -6   23.79    4.14
   3  10  -3   -0.34    3.92
   3  10  -3    2.61    3.11
  -3 -10   3   -2.97    4.77
   3  10  -3    2.20    3.53
  -9  -3  -2   35.21    3.65
   9   3   2   31.99    3.54
   9   3   2   22.97    3.53
   9   3   2   38.73    2.91
   9   3   2   29.74    6.66
   9   3   2   32.30    5.82
   9   3   2   34.49    5.87
  -9  -3  -2   35.40    6.06
   9   3   2   32.66    3.09
   8   5  -2   14.27    2.64
  -8  -5   2    7.25    4.81
   8   5  -2   13.38    3.40
   8   5  -2   16.56    5.42
   8   5  -2   14.73    3.51
   8   5  -2   10.56    1.20
   8   5  -2    9.48    4.39
  -8  -5   2   15.95    5.48
   8   5  -2   11.63    3.06
   8   5  -2   13.52    5.56
   0   8  -8   22.06    4.09
   0   8  -8   28.31    4.29
  -4  -2 -14    3.28    3.64
   4   2  14    1.51    2.95
   4   2  14    6.22    4.86
  -4  -2 -14    4.86    3.27
   4   2  14    0.58    4.01
  -4  -2 -14   -0.81    2.78
   8   6   7   -0.02    1.81
   8   6   7    1.14    3.88
   8   6   7   -2.39    3.13
   8   6   7    3.29    5.78
   8   6   7   -1.98    2.77
  -8  -6  -7   -2.73    3.54
   8   6   7    0.38    4.49
  -8  -6  -7   -0.13    3.40
   8   6   7   -3.80    3.32
   8   6   7    1.29    5.42
   5   5  13    6.05    3.00
   5   5  13    9.26    4.24
   5   5  13    9.16    2.70
  -5  -5 -13    8.22    3.77
   5   5  13   10.61    3.40
   5   5  13    8.24    5.50
   9   1   1   28.90    3.34
   9   1   1   24.58    5.44
   9   1   1   18.16    1.65
   9   1   1   15.58    2.95
  -9  -1  -1   19.55    5.87
   0  11   5   75.12    5.45
   0 -11  -5   62.81    4.48
   0 -11  -5   67.43    5.18
   0  11   5   72.91    5.57
   3  11   1   46.85    4.78
   3  11   1   42.34    5.18
  -3 -11  -1   37.90    5.08
   0  10  -4   19.24    3.58
   0  10  -4   24.24    4.40
   0  10  -4   16.14    4.29
   4  -3  12   -0.97    3.70
  -4   3 -12    1.09    3.85
   4  -3  12    3.16    4.42
  -4   3 -12    0.78    3.17
  -4   3 -12    2.21    2.39
   4  -3  12   -5.95    3.96
   4  -3  12    2.73    2.94
  -4   3 -12   -2.31    2.77
   6  -1  -9   98.16    5.16
  -6   1   9   47.98    2.64
  -6   1   9   82.34    6.33
   6  -1  -9  108.72    7.01
  -6   1   9   51.05    2.59
  -6   1   9   83.88    7.03
  -8   3   2   17.70    3.64
  -8   3   2   26.60    5.80
  -8   3   2   25.88    6.15
  -8   3   2   18.04    2.30
  -6   7  -2  144.27    8.44
  -6   7  -2  128.80    9.38
   6  -7   2  121.15    5.95
  -6   7  -2  161.28    9.33
   0  11   0  115.55    6.08
   0  11   0  105.54    5.98
   0 -11   0  117.82    6.82
   9   3   4   89.64    4.81
   9   3   4   94.16    5.72
   9   3   4   83.83    7.73
   9   3   4   88.81    7.12
   9   3   4   88.81    4.59
  -9  -3  -4   89.43    7.83
  -9  -3  -4   87.49    5.62
  -7  -4 -11  174.81    8.10
  -7  -4 -11  169.13    8.81
   7   4  11  156.06    8.26
   7   4  11  174.67   10.80
   7   4  11  167.49    7.06
   7   4  11  184.32    9.72
  -7  -4 -11  174.21    8.57
  -7  -4 -11  147.42    7.05
   7   4  11  168.37    8.30
   7   4  11  161.80   10.65
  -3  -5 -14   68.92    5.31
   3   5  14   66.33    5.42
   3   5  14   73.19    6.61
   3   5  14   73.36    4.28
  -3  -5 -14   67.84    5.47
  -7   1   7   41.24    6.51
  -7   1   7   43.31    5.98
  -7   1   7   33.46    2.58
   7  -1  -7   52.08    4.10
   7  -1  -7   54.40    6.27
   9   1   4   75.87    7.64
  -9  -1  -4   85.61    4.74
   9   1   4   77.10    5.48
  -9  -1  -4   71.97    7.63
  -1   3 -13   91.05    6.24
   1  -3  13   62.36    3.22
   1  -3  13   90.08    5.33
  -1   3 -13  110.35    5.79
  -1   3 -13   97.77    6.14
   7   8   7    4.81    5.44
   7   8   7   12.25    3.95
   7   8   7   12.00    2.62
   7   8   7   13.59    3.56
   7   8   7    5.56    5.63
   7   8   7   15.70    4.45
  -7  -8  -7   16.16    4.00
  -7  -8  -7   13.56    3.77
   7   8   7   17.26    3.67
  -2   7  -9    1.36    2.45
  -2   7  -9    3.43    3.94
  -2  10   6   39.11    3.83
   2 -10  -6   33.98    4.16
  -2  10   6   32.72    3.87
   7   6  10   54.64    3.29
   7   6  10   50.32    6.97
   7   6  10   47.73    4.57
  -7  -6 -10   49.70    4.99
   7   6  10   47.48    5.06
  -7  -6 -10   53.32    4.81
   7   6  10   58.19    5.58
  -7  -6 -10   50.46    4.02
   7   6  10   49.84    4.13
  -4   8   7  143.35    6.92
  -4   8   7  127.86    8.65
   4  -8  -7  136.33    6.94
  -1   2  14   15.53    3.35
  -1   2  14   14.57    4.37
  -1   2  14   17.72    3.43
   1  -2 -14   18.47    3.41
   1  -2 -14   13.36    3.63
   1  -2 -14   16.51    3.72
  -3  -4  11   80.92    6.12
   3   4 -11   87.16    5.76
  -3  -4  11  104.04    7.51
  -6  -8   3    3.21    5.41
   6   8  -3    5.35    1.96
   6   8  -3   10.87    4.29
   6   8  -3    6.09    4.08
   6   8  -3    7.68    3.79
   6   8  -3    5.51    4.14
   7   8   0  198.18    9.40
   7   8   0  192.46    9.37
   7   8   0  202.80   10.46
   7   8   0  203.91    9.51
   7   8   0  228.54   11.20
   7   8   0  221.52   10.80
  -5   5   9   19.50    3.19
   5  -5  -9   18.20    4.60
   5  -5  -9   19.38    3.25
  -5   5   9   20.90    5.37
   5  -6  -8   -1.88    3.00
   5  -6  -8    1.92    4.48
  -5   6   8    0.15    3.01
  -5   6   8   -0.53    4.96
  -1  -7 -13   29.48    4.58
   1   7  13   34.47    4.35
   1   7  13   31.75    3.68
  -1  -7 -13   30.56    3.52
   1   7  13   29.28    3.74
  -1  -7 -13   38.10    4.51
   1  -1  14   32.44    4.16
   1  -1  14   36.65    5.18
  -1   1 -14   44.48    3.97
   1  -1  14   35.85    4.10
  -1   1 -14   40.16    4.28
  -1   1 -14   40.06    4.17
   2   6 -10    8.65    2.73
   2   6 -10    8.60    3.41
  -2  -6  10    8.34    2.99
   2   6 -10   11.77    3.96
  -2  -6  10   11.07    4.98
  -3  -8   7   -0.70    4.95
   3   8  -7    6.41    2.82
   3   8  -7   -0.23    2.74
   3   8  -7   10.04    4.26
  -7  -5   5   35.59    5.78
   7   5  -5   31.77    3.75
   7   5  -5   34.50    3.63
  -7  -5   5   40.53    5.01
  -4   9   4   15.72    3.08
  -4   9   4   23.64    5.18
   4  -9  -4   20.33    3.24
  -4   9   4   29.77    4.23
   3   7  13    1.34    3.98
  -3  -7 -13    1.02    3.89
  -3  -7 -13    1.35    3.93
   3   7  13    3.46    2.91
   3   7  13   -2.07    3.23
   7   7   9   97.26    8.21
   7   7   9   84.18    8.11
  -7  -7  -9   88.54    5.89
   7   7   9   85.18    5.76
   7   7   9   87.69    5.39
  -7  -7  -9   82.55    5.30
   7   7   9   89.20    4.57
   7   7   9   92.25    6.21
   7   7   9   89.90    5.82
   7   7   9   84.71    5.12
   7   7   9   88.25    6.40
  -7  -7  -9   91.54    6.09
  -6   0 -12    4.10    3.39
   6   0  12    5.13    5.31
   6   0  12    4.69    3.94
  -6   0 -12    4.42    4.04
  -6   0 -12    6.54    3.34
   6   0  12    8.20    4.99
  -6   0 -12    6.97    2.89
  -6   0 -12    4.26    2.26
   2   9  -6   51.62    4.52
  -2  -9   6   55.61    6.15
   2   9  -6   62.66    5.17
   2   9  -6   70.00    5.34
   2   9  -6   44.84    3.70
  -7   1 -10  100.62    5.23
  -7   1 -10  111.54    8.35
  -7   1 -10   97.93    7.01
   7  -1  10  104.06    8.06
   7  -1  10  110.61    8.27
  -7   1 -10  110.81    6.15
   6  -3  10  105.52    7.13
   6  -3  10   94.02    6.70
  -6   3 -10   98.34    4.68
  -6   3 -10   98.48    7.74
   6  -3  10   92.98    6.96
  -6   3 -10   93.70    5.78
  -6   3 -10   82.27    6.89
   6  -3  10   87.47    5.76
  -3   9   7   63.99    4.34
  -3   9   7   72.75    4.83
   3  -9  -7   71.69    5.02
   1  -1 -14  114.32    6.87
  -1   1  14  122.14    7.50
   1  -1 -14  123.51    6.56
  -1   1  14  126.24    6.80
   1  -1 -14  120.46    6.75
   1   8  -8   39.35    3.74
   1   8  -8   50.07    4.96
  -1  -8   8   48.84    5.83
   1   8  -8   37.83    4.25
   5   0  13   24.38    4.45
   5   0  13   30.87    5.33
  -5   0 -13   22.07    3.92
  -5   0 -13   28.35    3.97
  -5   0 -13   27.18    2.92
  -5   0 -13   24.02    3.43
  -5   0 -13   24.11    4.46
  -7  -1 -11   10.58    3.40
   7   1  11   13.27    5.44
  -7  -1 -11    4.91    2.97
   7   1  11    8.67    3.24
   7   1  11   13.05    4.40
   7   1  11   10.24    5.58
  -7  -1 -11    8.80    4.11
   8   7   4  108.58    6.42
   8   7   4  115.84    6.46
   8   7   4  110.58    6.52
   8   7   4  126.07    8.97
   8   7   4  115.01    8.54
   8   7   4  113.40    7.65
  -4 -10   2   54.41    6.07
   4  10  -2   29.40    2.35
   4  10  -2   48.78    4.85
  -6  -1   9   38.44    6.00
   6   1  -9   38.63    3.86
   6   1  -9   46.10    5.78
  -6  -1   9   39.41    4.96
   6   1  -9   34.80    2.94
   9   0   2   88.11    7.60
  -9   0  -2   99.18    6.27
  -9   0  -2  108.59    8.70
  -9   0  -2  101.05    8.45
   9   0   2   90.96    5.40
   9   0   2   88.56    7.34
   9   0   2   73.90    4.30
  -4   6  -9  130.38    8.18
   4  -6   9  148.06    6.89
   4  -6   9  124.50    6.86
  -4   6  -9  129.27    7.98
   4  -6   9  130.77    7.47
   1   9  11    5.27    3.10
  -1  -9 -11    7.43    4.05
   1   9  11   -0.56    3.20
   1   9  11    8.89    3.64
  -1  -9 -11    6.34    3.77
  -1  -9 -11    2.57    2.29
   1   9  11    3.19    3.24
   8   7   3   39.75    5.54
   8   7   3   38.71    6.28
   8   7   3   39.03    4.03
   8   7   3   32.88    4.19
   8   7   3   32.49    3.80
   8   7   3   41.05    5.91
   3   9  11   66.35    4.62
  -3  -9 -11   57.33    5.37
   3   9  11   60.74    5.05
  -5   8   4    2.70    2.06
  -5   8   4    4.14    4.97
  -5   8   4    1.45    3.54
  -5   8   4    2.78    5.12
   5  -8  -4    2.38    2.72
  -5   8   4    1.59    2.97
  -3  10   2    0.61    3.33
  -3  10   2   -2.84    4.25
  -3  10   2    0.21    2.99
  -5 -10  -7   97.78    6.46
   5  10   7  105.57    6.53
   5  10   7   99.72    6.41
   5  10   7   95.45    7.75
  -5 -10  -7  102.11    6.53
   5  -2  12   -0.62    4.26
   5  -2  12    9.63    3.92
   5  -2  12   -3.12    3.15
  -5   2 -12    0.56    3.82
   5  -2  12    4.56    4.75
  -5   2 -12    2.86    2.45
  -5   2 -12    3.75    3.32
  -5   2 -12    2.08    1.18
  -5  -8 -11   31.88    4.55
   5   8  11   28.04    3.18
   5   8  11   30.08    4.85
   5   8  11   20.55    2.83
   3  11   6  232.11   10.66
   3  11   6  206.81   10.70
  -3 -11  -6  215.90   10.16
  -3 -11  -6  194.81   10.01
   9   2   5   74.33    5.49
  -9  -2  -5   78.10    4.68
  -9  -2  -5   64.40    5.49
  -9  -2  -5   66.84    7.33
   9   2   5   80.39    7.96
   4   4  14   34.75    5.02
   4   4  14   33.46    5.90
   4   4  14   29.47    3.38
  -4  -4 -14   33.09    4.28
   8   4   9  161.78    8.45
  -8  -4  -9  180.59    8.91
  -8  -4  -9  169.58    8.30
   8   4   9  174.05    8.39
   8   4   9  173.25   10.85
   8   4   9  186.88   11.30
  -8  -4  -9  174.26    9.10
   8   4   9  168.45    9.43
  -3  10   1   25.85    4.75
   3 -10  -1   26.09    3.99
  -3  10   1   29.62    3.65
  -6  -6   6    2.26    4.39
   6   6  -6   -2.67    3.22
   6   6  -6    2.56    3.87
   9   3   1    6.88    2.93
   9   3   1    9.87    5.25
   9   3   1    8.65    5.96
   9   3   1   11.55    2.70
   9   3   1   13.52    2.26
   9   3   1   13.20    3.21
   9   3   1   12.06    1.38
  -9  -3  -1   14.21    5.55
  -9  -3  -1   10.19    2.83
   9   3   1    9.84    5.50
   5  10   0   74.25    5.39
   5  10   0   62.43    3.86
   5  10   0   79.80    5.97
   5  10   0   71.61    5.92
  -5 -10   0   68.41    6.49
   5  10   0   79.78    5.61
  -5  -9   3   54.89    6.31
   5   9  -3   58.09    5.20
   5   9  -3   55.62    4.94
  -2   1 -14  108.13    6.48
  -2   1 -14   95.02    6.48
  -2   1 -14  113.34    5.95
   2  -1  14  114.20    6.67
   2  -1  14  103.23    6.76
   0  -3  13   18.22    3.38
   0   3 -13   22.66    3.58
   0  -3  13   29.23    5.34
   0   3 -13   18.70    3.84
   0   3 -13   22.21    3.44
   8   3  -4  112.03    6.18
  -8  -3   4  122.73    8.43
   8   3  -4  125.51    6.03
   8   3  -4  125.51    8.58
   8   3  -4  123.89    5.90
  -8  -3   4  128.85    8.96
  -4   9  -2   46.46    5.01
  -4   9  -2   49.33    4.03
   4  -9   2   47.59    4.03
  -4   9  -2   37.95    6.12
   5   7  12   86.19    4.85
   5   7  12   95.94    4.64
   5   7  12   99.77    7.79
  -5  -7 -12   90.64    6.23
  -1   8  -8   23.47    1.75
  -1   8  -8   72.27    5.19
  -9   0  -3   91.57    6.06
  -9   0  -3   86.06    8.19
   9   0   3   81.78    5.32
   9   0   3   68.31    3.81
   9   0   3   81.62    7.61
  -6   5   7   75.16    4.44
  -6   5   7   65.79    4.84
   6  -5  -7   66.23    4.27
  -6   5   7   57.60    6.94
   6  -5  -7   67.75    6.37
  -6   5   7   71.08    6.79
   7   6  -4   87.15    5.25
  -7  -6   4   89.33    7.06
   7   6  -4   83.49    5.52
   7   6  -4   78.32    5.80
   7   6  -4   93.93    5.55
   7   6  -4   98.80    6.28
   7   6  -4   97.44    7.57
  -3   8   9    3.77    3.06
   3  -8  -9    6.75    3.06
   3  -8  -9    6.91    3.54
  -3   8   9   -0.95    2.65
  -8  -1  -9   16.56    2.86
   8   1   9   16.39    4.22
   8   1   9   10.11    5.43
  -8  -1  -9   16.67    3.43
   8   1   9   15.71    5.60
  -8  -1  -9   18.11    4.54
  -8  -1  -9   15.55    5.68
   6   5  -7   57.64    4.39
  -6  -5   7   47.63    5.75
  -6  -5   7   53.53    4.48
  -6  -5   7   50.54    6.52
   2   7  -9   55.00    4.53
   2   7  -9   57.11    4.44
   6  -4   9   63.37    5.86
   6  -4   9   56.38    4.42
   6  -4   9   51.67    5.24
  -6   4  -9   58.69    4.38
  -6   4  -9   57.65    3.43
  -1   3  14   34.94    3.83
   1  -3 -14   33.55    4.07
   1  -3 -14   27.95    4.00
  -1   3  14   27.75    3.69
   1  -3 -14   30.83    3.85
  -1   3  14   32.63    4.32
   3  -5  11   14.64    3.05
  -3   5 -11   12.38    3.17
  -3   5 -11   12.57    3.11
  -3   5 -11   10.84    4.15
   3  -5  11   18.16    3.88
   3  -5  11   13.17    3.62
   2  -3  13   50.06    3.73
   2  -3  13   47.06    4.77
  -2   3 -13   61.63    4.40
   2  10  -4   48.72    4.62
   2  10  -4   54.34    5.15
  -2 -10   4   53.83    5.90
  -4  -1 -14   34.25    3.48
  -4  -1 -14   32.51    4.40
  -4  -1 -14   32.59    3.80
   4   1  14   34.02    5.48
   4   1  14   33.11    3.94
   4   1  14   36.36    4.86
  -4  -1 -14   30.20    4.17
   9   0   1   10.05    5.15
   9   0   1    8.39    2.98
   9   0   1    9.36    5.29
  -9   0  -1    6.91    3.32
  -9   0  -1    0.50    5.84
  -9   0  -1    5.39    5.77
  -1 -11   1   42.89    4.68
  -1 -11   1   29.94    5.07
   1  11  -1   40.66    4.54
   1  11  -1   38.74    4.91
  -1  11   2   33.72    4.09
  -1  11   2   36.92    4.45
   1 -11  -2   32.07    4.35
  -1  11   2   36.85    4.51
   9   3   5  122.18    7.05
  -9  -3  -5  114.67    6.94
  -9  -3  -5  121.80    9.17
  -9  -3  -5  128.70    6.50
   9   3   5  112.47    8.88
   9   3   5  125.12    6.06
  -6   7   3   48.34    4.85
  -6   7   3   51.16    6.45
  -6   7   3   57.82    3.56
  -6   7   3   55.69    6.69
   9   1   0    7.12    1.80
   9   1   0   20.67    5.24
   9   1   0   18.97    2.93
  -9  -1   0    7.52    5.67
  -7  -2   7   10.57    4.70
  -7  -2   7   11.62    5.35
   7   2  -7   12.64    3.25
   7   2  -7   12.80    5.39
  -9  -2   0   52.16    6.64
   9   2   0   42.00    3.82
  -9  -2   0   48.57    3.84
   9   2   0   52.66    3.46
  -9  -2   0   48.19    6.91
   9   2   0   47.69    3.75
   9   2   0   48.16    6.05
   9   2   0   52.07    6.94
  -8   3  -5  149.68    9.82
  -8   3  -5  132.42    6.55
   8  -3   5  126.27    7.46
   8  -3   5  142.66    8.84
  -8   3  -5  144.47    8.33
   2   5 -11    0.18    2.43
   2   5 -11   -3.89    3.48
  -2  -5  11   -0.27    3.37
  -2  -5  11   -3.12    5.24
   2   5 -11   -1.41    3.34
   8   7   5  291.30   14.44
   8   7   5  276.37   14.63
   8   7   5  272.69   12.32
   8   7   5  279.42   13.17
   8   7   5  265.31   12.56
   8   7   5  275.16   12.11
  -1  11   3   39.53    4.64
   1 -11  -3   30.65    4.25
  -1  11   3   42.10    4.57
   5   8  -5   41.64    2.62
  -5  -8   5   72.01    6.95
   5   8  -5   67.65    5.06
   5   8  -5   64.35    3.70
   5   8  -5   38.92    2.86
   6  -4  -8    2.63    2.72
  -6   4   8    5.06    2.82
   6  -4  -8    5.90    4.82
  -6   4   8    7.81    2.77
  -6   4   8    8.55    4.95
   5  -8   3  105.08    5.49
  -5   8  -3  113.00    5.55
  -5   8  -3  128.33    7.70
  -3  10   3    9.88    3.46
  -3  10   3    6.96    3.00
  -3  10   3    9.83    4.44
  -3  10   3   14.33    4.03
   3 -10  -3   12.19    3.25
  -7  -4   6   12.33    5.16
   7   4  -6    2.40    3.13
  -7  -4   6    6.84    4.14
   7   4  -6    4.83    5.22
  -6   2   9  150.05    7.54
  -6   2   9  177.57   10.12
   6  -2  -9  228.86    8.76
   6  -2  -9  215.93    6.92
  -6   2   9  186.21   10.70
  -6   2   9  172.67    7.44
   8   7   2    7.26    3.34
   8   7   2    8.44    3.64
   8   7   2   14.47    5.52
   8   7   2    7.37    2.90
   8   7   2   11.43    4.87
   8   7   2    7.33    4.95
   6   7  11   68.57    4.55
  -6  -7 -11   71.00    5.41
   6   7  11   69.68    5.32
   6   7  11   72.13    7.34
   6   7  11   73.50    4.18
   6   7  11   66.99    5.99
  -6  -7 -11   75.30    5.86
  -6  -7 -11   65.89    4.88
   6   7  11   63.09    4.88
   9   4   3   15.43    3.22
   9   4   3    7.64    5.31
   9   4   3   10.87    2.86
   9   4   3   13.55    2.63
  -9  -4  -3   15.41    3.16
   9   4   3   12.83    5.29
  -9  -4  -3   13.69    5.58
   9   4   3    7.94    0.66
   9   4   3    9.96    6.45
  -1  10   8   -0.87    3.30
   1 -10  -8    3.50    1.27
  -1  10   8   -2.19    3.03
   1 -10  -8    1.95    1.84
   6  -2  11  167.19    9.55
   6  -2  11  193.86   10.42
  -6   2 -11  186.66    7.69
  -6   2 -11  193.89    8.93
  -6   2 -11  164.12    9.61
  -6   2 -11  200.49   10.67
   6  -2  11  172.91    8.87
  -6   2 -11  163.28    7.96
   6  -2  11  192.83   10.28
  -3  10   0    8.34    3.97
   3 -10   0    5.20    3.48
  -3  10   0    4.73    3.24
   9   1   5   65.15    7.42
   9   1   5   69.33    5.45
  -9  -1  -5   71.73    4.50
   6   9   8   66.86    5.54
   6   9   8   61.13    4.89
   6   9   8   69.17    5.14
  -6  -9  -8   66.17    5.54
   6   9   8   66.97    7.06
   6   9   8   68.49    5.36
  -6  -9  -8   68.93    5.23
   6   9   8   62.66    3.75
   5  -7   6   31.93    3.39
  -5   7  -6   37.92    5.79
  -5   7  -6   34.35    3.51
  -5   7  -6   36.56    5.25
   0   1 -14   -4.25    3.61
   0   1 -14    0.95    3.16
   0   1 -14    1.51    2.88
   0  -1  14   -0.09    4.53
   0  -1  14    1.12    3.06
   0   1 -14   -0.06    3.24
   0  -1  14    2.39    2.99
   8   6  -1   25.61    3.89
   8   6  -1   22.86    3.58
   8   6  -1   27.12    5.79
   8   6  -1   29.13    5.66
   8   6  -1   22.58    2.87
  -8  -6   1   27.48    5.30
   8   6  -1   16.98    2.24
   8   6  -1   24.93    3.90
   8   6  -1   25.82    5.16
   7  -5   5  166.80    9.25
  -7   5  -5  147.12    7.15
  -7   5  -5  171.07    9.18
  -7   5  -5  160.82   10.25
   7  -4   7   39.48    4.63
  -7   4  -7   34.34    4.98
  -7   4  -7   38.15    3.26
  -7   4  -7   40.91    2.03
  -7   4  -7   37.96    6.13
   7  -4   7   28.81    5.33
  -1   9  10   -0.47    3.24
   1  -9 -10    4.12    2.33
   1  -9 -10    3.32    3.75
  -1   9  10    2.76    2.85
   6   9  -1    2.36    3.47
   6   9  -1    3.34    4.49
   6   9  -1    4.13    2.55
   6   9  -1    2.83    4.67
  -6  -9   1    6.36    5.14
   6   9  -1    6.70    3.96
   1 -11  -1    5.62    3.79
  -1  11   1    1.32    3.88
  -1  11   1   10.59    4.01
  -1  11   1    2.67    3.17
  -9  -4  -4    5.02    5.40
   9   4   4    2.16    2.48
   9   4   4    7.09    6.01
   9   4   4    1.84    2.67
  -9  -4  -4    7.20    3.22
   9   4   4   -2.56    5.51
   9   4   4    3.50    5.03
   9   4   4    5.51    3.28
  -3   4 -12   -1.75    2.99
   3  -4  12    2.46    2.79
   3  -4  12    2.53    3.69
  -3   4 -12    2.03    2.93
  -3   4 -12    1.71    3.81
   0 -10  -9    5.54    3.85
   0  10   9    0.31    3.29
   0 -10  -9   -2.41    1.86
   1  -6 -13   47.93    4.76
   1  -6 -13   38.54    3.98
   1  -6 -13   43.25    4.40
  -1   6  13   50.81    4.65
  -4   6  10   62.13    4.47
   4  -6 -10   48.10    4.45
   4  -6 -10   48.89    4.74
   9   0   4   31.48    6.26
  -9   0  -4   31.99    4.39
  -9   0  -4   30.48    3.03
   9   0   4   34.21    4.23
  -4 -11  -4  111.08    6.96
   4  11   4  105.29    7.44
  -4 -11  -4  118.22    7.04
  -4 -11  -3  121.18    7.50
   4  11   3  117.02    7.60
   4  11   3  112.52    7.79
  -4 -11  -3  126.51    7.30
   2  11   7   57.61    5.07
   2  11   7   60.25    5.13
  -2 -11  -7   55.76    5.30
   3  11   0   15.91    3.23
   3  11   0   13.67    4.50
   3  11   0   11.35    4.17
  -3 -11   0   13.96    4.73
   9   4   2    9.68    5.34
   9   4   2    8.07    5.24
   9   4   2   12.63    2.92
   9   4   2    9.81    1.41
   9   4   2    8.95    3.24
   9   4   2   11.17    2.59
   9   4   2   11.40    2.75
  -9  -4  -2   11.19    2.82
  -9  -4  -2   11.12    5.59
   9   4   2   15.82    3.03
   9   4   2   11.26    6.27
  -6   7  -3  192.58   10.43
  -6   7  -3  185.88   11.23
  -6   7  -3  214.32   11.02
   6  -7   3  160.76    7.16
  -7   5   4   59.83    6.98
  -7   5   4   55.67    4.94
   7  -5  -4   38.17    2.35
  -7   5   4   66.38    7.20
  -7   5   4   59.96    3.84
   2  11  -1   46.46    5.13
  -2 -11   1   37.92    5.29
   0  -5 -14   25.52    4.11
   0   5  14   31.47    3.58
   0  -5 -14   18.12    3.44
   0   5  14   17.47    3.99
   0  -5 -14   28.39    4.07
   3  -6  10   30.37    3.99
   3  -6  10   21.94    2.84
   3  -6  10   21.71    3.20
  -3   6 -10   15.50    3.91
  -3   6 -10   26.86    4.65
  -7   2   7    7.81    5.12
  -7   2   7    4.88    5.68
  -7   2   7   14.42    2.87
  -7   2   7   13.24    2.51
   7  -2  -7   14.03    5.35
   0  11   6    1.53    3.56
   0 -11  -6    3.35    2.75
   0  11   6    6.89    3.62
   0 -11  -6    5.45    3.82
  -1  10  -4   -2.15    3.99
  -1  10  -4    2.23    3.78
  -1  10  -4   -3.10    4.22
  -8   4  -1    1.79    3.69
  -8   4  -1    4.60    1.61
  -8   4  -1    4.86    5.72
  -8   4  -1    8.14    5.64
   0  -8 -12   -0.50    3.81
   0  -8 -12    2.15    2.50
   0   8  12    2.62    3.15
   0  -8 -12    1.58    3.64
   0   8  12   -1.99    3.01
   1   0 -14  136.52    7.04
   1   0 -14  128.62    7.18
  -1   0  14  133.35    7.02
  -1   0  14  138.91    8.20
   6  -6   6   48.24    4.74
   6  -6   6   32.22    3.75
  -6   6  -6   34.46    6.12
  -6   6  -6   32.63    2.60
  -8   1  -8    0.32    5.64
  -8   1  -8    1.29    4.04
   8  -1   8   -1.59    4.29
   8  -1   8   10.94    5.28
  -8   1  -8    2.23    1.45
   8  -1   8    4.75    5.16
  -8   1  -8    7.65    3.03
   6   8  10   72.71    4.83
   6   8  10   69.72    4.17
  -6  -8 -10   63.58    5.06
  -6  -8 -10   68.92    5.39
   6   8  10   66.14    5.21
   6   8  10   62.79    5.26
  -6  -8 -10   63.08    5.64
   6   8  10   57.16    4.07
   6   8  10   54.80    4.61
   6   7  -5    7.58    3.54
   6   7  -5    8.52    4.13
  -6  -7   5   -2.20    5.37
  -7  -5 -11   19.91    4.24
  -7  -5 -11   16.07    3.04
   7   5  11   21.70    4.80
  -7  -5 -11   23.92    4.30
  -7  -5 -11   23.23    3.95
   7   5  11   22.66    6.16
   7   5  11   14.90    3.51
   7   5  11   18.06    2.37
   7   5  11   19.63    3.35
   0 -11   1   24.15    4.10
   0  11  -1   16.54    4.52
   0  11  -1   21.31    4.28
   1 -11  -4   82.59    5.58
  -1  11   4   79.30    5.94
  -1  11   4   90.34    5.84
   2 -10   3   31.32    4.00
  -2  10  -3   29.24    4.24
  -2  10  -3   26.47    4.83
  -2  10  -3   26.61    4.75
   2 -10   3   31.25    2.55
   4   8  12    9.59    3.02
   4   8  12    4.99    3.48
   4   8  12   10.73    5.23
  -4  -8 -12    5.12    4.23
  -4  -8 -12    8.65    4.17
   2  -9  -9   16.38    3.86
  -2   9   9   20.01    3.11
  -2   9   9   20.87    3.60
   5  -6   8  137.88    7.03
   5  -6   8  123.00    7.31
  -5   6  -8  138.63    8.60
   5  -6   8  119.54    6.66
  -5   6  -8  121.54    8.14
   8  -2  -4   75.56    3.80
   8  -2  -4   98.58    7.53
  -8   2   4   92.90    7.83
  -8   2   4   77.24    5.08
   4  -7  -9    2.99    3.73
   4  -7  -9    0.19    3.27
  -4   7   9    5.51    3.08
  -4   7   9    3.88    2.18
  -3   8  -7   79.70    6.27
  -3   8  -7   80.63    6.54
   3  -8   7   78.46    4.69
  -3   8  -7   90.41    5.51
  -3   5  12   17.80    3.25
   3  -5 -12   17.13    3.20
   3  -5 -12   20.43    3.77
  -3   5  12   16.67    3.30
   9   0   0   83.50    7.71
  -9   0   0   77.35    5.24
  -9   0   0   90.17    7.94
   4  -1 -12  123.08    6.49
  -4   1  12  115.37    7.09
  -4   1  12  115.48    5.52
   4  -1 -12  138.97    6.95
  -8   4  -2   10.66    1.42
  -8   4  -2   14.91    5.94
  -8   4  -2    7.49    1.61
  -8   4  -2    8.87    5.78
  -8   4  -2    8.66    3.99
   1  11   7   83.26    5.64
   1  11   7   70.52    5.64
  -1 -11  -7   39.01    2.95
  -1 -11  -7   79.82    5.36
  -4 -10  -9   39.08    4.83
   4  10   9   35.04    4.48
   4  10   9   36.31    4.42
  -8   4   0   24.55    2.22
  -8   4   0   25.58    4.21
  -8   4   0   31.96    6.23
  -8   2  -7  427.30   17.73
  -8   2  -7  429.03   19.07
   8  -2   7  441.72   19.75
   8  -2   7  452.35   19.55
  -8   2  -7  453.70   20.28
   8  -2   7  411.12   18.59
   9   3   0   22.09    5.27
   9   3   0   20.41    2.91
   9   3   0   16.31    6.10
  -9  -3   0   17.42    2.76
   9   3   0   24.26    5.76
   9   3   0   20.56    2.29
   9   3   0   21.26    3.14
  -9  -3   0   24.14    5.84
  -9  -3   0   19.42    6.02
   9   3   0   22.10    2.62
   9   3   0   15.90    3.32
   9   3   0   18.85    2.09
  -5   4  10  157.64    7.55
   5  -4 -10  119.01    5.68
   5  -4 -10  139.06    6.80
  -7   6   0    6.32    3.79
  -7   6   0    6.58    1.59
  -7   6   0    7.89    1.34
  -7   6   0   10.08    2.37
  -7   6   0    6.06    5.55
  -7   6   0    2.43    5.33
  -5   7   7  117.11    5.72
  -5   7   7  101.24    7.96
  -5   7   7  102.43    6.24
   5  -7  -7  102.25    5.67
  -5   7   7   96.42    4.72
  -4  -3  11   11.26    4.58
   4   3 -11    2.48    3.34
  -4  -3  11   15.40    5.61
  -4  -3  11    6.46    1.97
  -4 -11  -5  113.60    6.96
   4  11   2  127.19    8.35
   4  11   2  150.06    8.33
  -4 -11  -2  143.44    8.39
  -4 -11  -2  151.72    8.18
  -7   6  -1    2.78    2.30
  -7   6  -1   -4.99    5.51
  -7   6  -1    2.90    3.83
  -7   6  -1    2.07    5.52
  -8  -1   5   64.67    6.97
   8   1  -5   88.57    7.17
  -8  -1   5   81.02    7.56
   8   1  -5   69.71    4.46
   2   6  14   10.26    3.10
  -2  -6 -14    3.89    3.77
  -2  -6 -14    6.81    3.12
   2   6  14   11.12    3.10
  -8   3   3   45.13    4.25
  -8   3   3   42.73    3.15
  -8   3   3   43.56    6.74
  -6   6   6   70.61    7.11
  -6   6   6   82.01    4.70
   6  -6  -6   67.30    4.29
  -6   6   6   75.37    7.40
  -6   6   6   68.20    5.30
   8   7   6  114.96    8.93
   8   7   6  114.12    7.17
   8   7   6  115.63    7.60
   8   7   6  121.56    6.45
  -8  -7  -6  118.31    6.83
   8   7   6  114.75    6.68
   8   7   6  114.48    9.26
  -6  -4   8   56.60    6.86
   6   4  -8   58.79    4.42
  -6  -4   8   58.92    4.89
  -6  -4   8   53.56    6.06
   8   0  -5   12.36    5.50
   8   0  -5    8.90    2.86
  -8   0   5   15.46    5.29
  -8   0   5   10.31    1.81
  -8   0   5   17.36    5.94
   9   4   5  209.17   11.47
   9   4   5  200.50   12.04
   9   4   5  185.96    8.35
  -9  -4  -5  186.10    9.26
  -9  -4  -5  201.46   11.50
   9   4   5  190.84    8.67
   9   4   5  182.04   10.24
   9   4   5  190.31    9.50
   3 -10  -4   80.59    5.13
  -3  10   4   71.63    4.57
  -3  10   4   66.98    5.00
  -3  10   4   64.84    6.03
   6   2  -9  234.95   10.57
  -6  -2   9  199.63   10.28
  -6  -2   9  209.02   11.34
   6   2  -9  245.27   12.18
  -9  -2  -6   46.63    3.98
  -9  -2  -6   40.09    4.78
   9   2   6   43.74    6.74
   9   2   6   42.03    4.59
   4  -2  13    7.81    3.81
  -4   2 -13    5.04    2.74
   4  -2  13    9.62    3.98
  -4   2 -13    9.12    3.57
   4  -2  13    7.38    3.12
  -8  -6  -8   20.60    3.94
  -8  -6  -8   22.69    4.06
   8   6   8   18.29    3.10
   8   6   8   16.42    3.56
   8   6   8   23.18    4.52
   8   6   8   20.12    2.08
   8   6   8   18.88    4.86
   8   6   8   22.06    6.64
  -5  -9 -10   13.66    4.03
   5   9  10   12.44    4.17
   5   9  10   17.10    3.76
  -5  -9 -10   14.72    4.15
   5   9  10   14.86    3.12
  -4   9   5   25.09    3.69
  -4   9   5   21.24    3.07
  -4   9   5   21.73    5.32
   4  -9  -5   28.18    3.60
   8   7   1    0.94    4.69
   8   7   1   -2.79    5.62
   8   7   1   -2.60    3.36
   8   7   1   -0.13    3.55
   8   7   1    1.04    3.33
   8   7   1   -1.33    4.97
   8   7   1   -3.16    2.82
   7   8   8   85.22    7.82
   7   8   8   83.50    8.23
  -7  -8  -8   85.53    5.65
   7   8   8   92.42    6.29
  -7  -8  -8   89.79    6.11
   7   8   8   91.70    5.59
   7   8   8   83.27    4.89
   7   8   8   84.09    6.16
   7   8   8   89.39    5.99
   6   6  12    1.00    2.44
   6   6  12    4.63    5.54
  -6  -6 -12    0.55    3.70
   6   6  12    0.96    2.72
  -6  -6 -12   -3.54    4.01
   6   6  12   -0.95    3.45
   4  -2 -12  105.39    6.06
   4  -2 -12   93.67    5.28
  -4   2  12  113.73    6.18
   0  -7 -13   47.29    4.04
   0  -7 -13   53.15    4.93
   0  -7 -13   53.05    5.05
   0   7  13   59.48    5.15
   0   7  13   56.07    4.40
   4   5  14  182.66   10.55
  -4  -5 -14  164.35    8.61
   4   5  14  169.65    7.83
   4   5  14  158.74    9.36
  -1  11   0    2.96    3.92
  -1  11   0    3.29    2.32
   1 -11   0    3.50    3.68
   4   0 -12  106.22    5.92
  -4   0  12   98.20    6.37
  -4   0  12   95.96    7.40
   4   0 -12  120.28    6.39
  -3  10  -1   15.59    5.11
  -3  10  -1   17.67    3.91
  -3  10  -1    9.64    4.50
   3 -10   1   16.04    3.61
   3 -10   1   13.76    2.23
  -3  10  -1   21.06    3.69
   9   4   1    5.11    5.37
  -9  -4  -1    5.87    5.27
   9   4   1    1.39    2.59
   9   4   1   -0.33    5.85
   9   4   1    5.67    5.24
   9   4   1    2.48    1.80
   9   4   1    0.35    2.81
   9   4   1    3.38    3.19
   9   4   1    3.25    2.90
   9   3   6  136.13    7.77
  -9  -3  -6  125.73    7.51
  -9  -3  -6  137.60    6.99
  -9  -3  -6  142.36    9.66
   6  -5   8   62.14    5.69
  -6   5  -8   70.67    6.97
   6  -5   8   62.58    4.64
  -3   1  13   52.54    3.91
   3  -1 -13   72.14    4.92
   3  -1 -13   63.58    5.17
   3  -1 -13   60.77    4.52
  -3   1  13   63.58    6.05
   1  -4 -14   45.51    4.32
   1  -4 -14   47.03    4.39
   1  -4 -14   50.16    4.68
  -8  -5  -9   37.16    4.53
   8   5   9   26.61    1.90
  -8  -5  -9   35.59    4.52
   8   5   9   37.99    5.01
  -8  -5  -9   38.78    4.26
   8   5   9   32.77    3.70
   8   5   9   35.86    4.01
   7   7  -3  104.91    7.41
   7   7  -3   95.29    6.12
   7   7  -3   89.44    6.34
   7   7  -3  108.12    7.79
   7   7  -3   95.63    6.08
  -7   6   1   65.21    5.65
  -7   6   1   78.79    7.36
  -7   6   1   76.10    4.09
  -7   6   1   65.93    7.49
  -3 -11  -7   88.48    6.35
  -3 -11  -7   95.05    6.33
   3  11   7   95.13    6.42
   2   2 -13  148.21    7.75
  -2  -2  13  161.92    8.31
  -2  -2  13  151.99    5.79
   2   2 -13  159.77    8.31
   3  -1  14   23.34    4.27
  -3   1 -14   22.61    3.39
   3  -1  14   22.06    4.42
  -3   1 -14   23.21    4.12
   7   8  -1  121.10    8.14
   7   8  -1  122.86    6.68
   7   8  -1  118.73    6.88
   7   8  -1  133.75    8.08
   7   8  -1  115.10    6.73
   7   8  -1  137.09    7.97
  -2  -8   8    7.71    5.25
   2   8  -8    4.70    3.20
   2   8  -8    5.42    4.13
   2   8  -8    2.04    2.78
  -7   0 -11   -0.33    2.74
  -7   0 -11    1.88    3.40
   7   0  11   -5.52    5.45
   7   0  11    0.14    5.11
  -7   0 -11   -7.30    5.43
  -2   5  13   75.92    5.17
   2  -5 -13   60.57    4.75
   2  -5 -13   59.30    4.69
   2  -5 -13   66.58    4.99
  -2   9  -6   25.10    4.65
  -2   9  -6   22.27    4.43
   2  -9   6   25.50    2.76
  -2   9  -6   32.50    4.31
   4   7  13   54.66    4.10
   4   7  13   55.25    4.80
   4   7  13   53.48    6.72
  -4  -7 -13   53.51    5.12
  -5  -3  10   98.47    5.89
  -5  -3  10   96.54    7.48
   5   3 -10  122.35    6.53
  -5  -6 -13   13.01    3.94
   5   6  13   18.85    3.15
   5   6  13   15.90    2.93
   5   6  13   17.20    5.69
   2  10  10   12.92    3.66
   2  10  10   17.69    3.62
  -2 -10 -10   19.80    4.32
  -3   2  13  172.96    8.05
   3  -2 -13  214.61    9.50
   3  -2 -13  187.48    9.08
  -9  -1   1   26.04    6.16
   9   1  -1   15.87    2.37
  -9   1  -2   30.12    6.61
  -9   1  -2   28.65    6.56
  -9   1  -2   26.87    4.33
   9  -1   2   23.62    5.82
   9  -1   2   30.07    3.84
   0   9  11    3.83    3.18
   0  -9 -11    7.02    3.94
   0  -9 -11    5.78    2.36
   8   0   9    7.23    5.44
  -8   0  -9    9.13    5.57
   8   0   9   17.38    4.23
   8   0   9   18.94    5.83
  -8   0  -9   14.11    3.32
  -8   0  -9   15.82    2.59
  -1  -3  13   22.08    5.45
   1   3 -13   13.42    3.08
   1   3 -13   10.81    3.53
  -1  -3  13   18.92    3.15
   1   3 -13   20.67    4.03
   4   9  11   98.17    6.48
   4   9  11  108.95    5.88
  -4  -9 -11  103.61    6.72
  -4   9  -3  103.38    7.71
  -4   9  -3  116.88    8.36
   4  -9   3  122.18    6.16
  -4   9  -3  126.14    6.33
   4  -9   3  110.73    5.85
  -5   8   5   28.51    3.50
  -5   8   5   17.60    2.17
  -5   8   5   19.78    5.63
  -5   8   5   30.24    4.15
   5  -8  -5   21.85    3.14
  -8   4  -3   74.66    7.60
   8  -4   3   57.83    6.19
  -8   4  -3   74.72    5.90
  -8   4  -3   71.69    7.52
  -8   4  -3   56.45    3.51
  -7   6  -2   52.97    5.39
  -7   6  -2   58.35    6.82
  -7   6  -2   51.46    6.81
   1   6  14   52.76    4.15
  -1  -6 -14   40.03    4.00
  -1  -6 -14   47.98    4.79
   1   6  14   47.21    5.05
   2 -10  -7   13.24    3.86
  -2  10   7   20.19    3.43
  -2  10   7   19.57    3.73
   9   0   5    8.69    3.78
  -9   0  -5   13.34    3.89
   9   0   5   10.79    5.78
  -9   0  -5   10.44    2.80
   9   2  -1    2.01    1.96
   9   2  -1    3.25    2.55
  -9  -2   1   -0.16    5.30
   9   2  -1    6.97    5.56
   9   2  -1    7.80    4.83
  -9  -2   1   -0.05    2.48
  -8   4   1    3.48    1.95
  -8   4   1    3.85    3.56
  -8   4   1    2.83    5.64
  -3   9  -5   40.47    5.43
   3  -9   5   42.29    3.33
  -3   9  -5   45.27    5.33
  -3   9  -5   53.66    4.60
   5  10   8  168.54   10.15
  -5 -10  -8  164.88    8.71
   5  10   8  159.10    8.59
  -5 -10  -8  173.03    8.93
  -6   7   4    3.67    5.57
  -6   7   4   15.79    2.87
  -6   7   4    8.34    1.27
   6  -7  -4   10.53    2.39
  -6   7   4   12.82    3.88
   4  -5 -11  156.29    7.79
   4  -5 -11  143.55    7.04
  -4   5  11  173.98    8.23
   4  -5 -11  158.98    7.83
  -3  -6 -14   75.10    5.84
   3   6  14   62.00    4.79
  -3  -6 -14   67.57    5.62
   3   6  14   68.11    6.71
   3   6  14   60.26    4.33
  -4   0 -14   25.62    3.24
  -4   0 -14   26.92    4.45
   4   0  14   33.84    5.35
   4   0  14   17.44    4.34
  -9   1  -1   37.63    6.65
  -9   1  -1   40.98    4.53
   9  -1   1   36.83    6.20
   5  10  -1  103.59    6.30
   5  10  -1  107.90    6.80
  -5 -10   1  106.10    7.72
  -8  -2   5  227.55   12.52
  -8  -2   5  224.54   12.14
   8   2  -5  233.18    8.91
   8   2  -5  181.83    8.21
  -4   8  -6   86.82    6.77
  -4   8  -6   89.81    5.40
  -4   8  -6   84.15    6.87
   4  -8   6   83.94    4.92
   9  -1   3   11.72    1.75
   9  -1   3   18.31    3.68
   9  -1   3   17.45    5.64
  -9   1  -3   22.64    4.20
  -9   1  -3   19.65    2.37
  -2   8  -8   53.12    5.30
  -2   8  -8   45.71    4.23
   2  -8   8   49.82    3.74
  -9  -1  -6   17.05    3.17
   9   1   6    9.89    3.99
   9   1   6   12.25    5.84
  -1  11   5   73.24    5.61
  -1  11   5   77.44    5.47
   1 -11  -5   25.61    1.35
   1 -11  -5   73.51    4.78
   2   4 -12    5.85    3.42
   2   4 -12    5.83    2.30
   2   4 -12    3.53    3.26
  -2  -4  12    2.77    5.18
  -2  -4  12    5.64    3.64
   6   3  13   88.00    7.75
  -6  -3 -13   85.69    6.07
   6   3  13   80.93    5.46
  -6  -3 -13   88.35    5.75
   8   5  -3    0.06    3.31
  -8  -5   3    0.25    4.78
   8   5  -3    2.05    3.34
   8   5  -3   11.39    5.05
   8   5  -3   -0.75    4.05
   8   5  -3    1.13    2.89
   8   5  -3   -0.09    2.61
  -8  -5   3    2.12    4.99
   6  10   4   90.90    5.43
   6  10   4  100.18    6.31
   6  10   4  107.15    6.26
   6  10   4  101.84    7.32
   6  10   4  110.17    7.80
   7   9   4   87.38    6.64
   7   9   4   88.07    7.53
   7   9   4   98.59    8.12
   7   9   4   88.69    6.14
   7   9   4   91.53    6.14
  -4  -9   5   59.26    6.43
   4   9  -5   44.81    3.95
   4   9  -5   36.97    2.70
  -5   1  11   24.53    4.70
  -5   1  11   25.14    5.58
   5  -1 -11   21.82    3.79
   5  -1 -11   24.85    5.12
   5  -1 -11   25.23    2.75
  -5   1  11   20.42    1.76
   4   6  -9  207.65   10.44
  -4  -6   9  245.63   11.94
  -4  -6   9  202.78   10.36
   4   6  -9  250.28   10.58
   4  11   6   55.29    4.77
   4  11   6   55.92    5.32
  -4 -11  -6   64.24    5.53
   3  -3  13   98.26    6.82
  -3   3 -13  116.84    6.14
   3  -3  13  110.72    6.34
   3  -3  13  120.20    6.39
   7   3  -7    1.65    3.10
  -7  -3   7    2.04    4.32
   7   3  -7    7.40    5.48
  -7  -3   7    5.89    5.08
  -4 -11  -1  142.46    8.44
   4  11   1  130.99    8.38
   4  11   1  147.25    8.00
  -6   3   9  133.10    8.76
  -6   3   9  116.01    6.33
   6  -3  -9  161.88    9.29
   0   6 -11   28.88    3.88
   0   6 -11   24.00    3.87
   0  -6  11   35.71    5.71
   0   6 -11   28.66    4.27
   0   6 -11   29.15    4.01
  -4   7  -8  137.00    8.67
  -4   7  -8  149.79    7.29
   4  -7   8  142.61    7.14
  -4   7  -8  143.10    8.65
   3   0 -13    4.41    3.02
   3   0 -13    2.58    3.35
  -3   0  13    4.46    2.29
  -3   0  13   11.61    5.08
  -8   1   5    6.45    5.22
   8  -1  -5    4.95    5.48
  -8   1   5    1.14    2.43
   6  10   3   42.01    4.94
   6  10   3   43.90    5.03
   6  10   3   43.67    6.17
   6  10   3   32.38    3.80
   6  10   3   39.44    5.95
   7   9   3   38.96    4.59
   7   9   3   34.98    6.40
   7   9   3   43.26    5.44
   7   9   3   33.91    4.68
   7   9   3   45.36    6.04
   8   4  -4    4.34    2.65
   8   4  -4    8.41    2.77
  -8  -4   4    6.26    4.80
  -8  -4   4    4.24    5.53
   8   4  -4    6.39    3.09
   3   3 -12   99.56    6.31
  -3  -3  12  101.90    7.47
  -3  -3  12   81.73    6.40
   6   2  13  112.16    8.40
  -6  -2 -13   95.65    5.88
  -6  -2 -13  105.19    6.38
   6   2  13  100.27    6.20
  -6  -2 -13   93.45    6.76
  -6   1 -12   69.76    5.13
  -6   1 -12   63.74    3.78
   6  -1  12   64.00    7.00
   6  -1  12   67.07    6.70
  -6   1 -12   65.43    4.35
   3  10  10   36.28    4.36
   3  10  10   35.18    3.94
   1  10  10   74.66    5.39
  -1 -10 -10   58.23    3.55
  -1 -10 -10   85.12    5.79
  -1   6 -11   43.62    4.74
   1  -6  11   24.26    2.30
  -1   6 -11   45.90    4.42
  -1   6 -11   40.12    4.16
   5   0 -11   86.49    4.83
   5   0 -11   84.71    5.43
  -5   0  11   75.35    6.06
  -5   0  11   77.89    6.93
  -1 -11   2   73.91    6.28
   1  11  -2   67.64    5.67
   1  11  -2   80.54    5.97
  -7   4   6   40.22    6.58
   7  -4  -6   52.71    6.49
   7  -4  -6   53.08    3.60
  -7   4   6   35.17    4.02
  -2  -2 -15    0.18    3.36
   2   2  15    0.63    3.74
  -2  -2 -15   -0.09    3.53
  -2  -2 -15   -0.06    3.23
   2   2  15    5.06    3.91
   2   2  15   10.17    4.70
   9   0  -1   99.06    4.20
  -9   0   1  159.76   10.17
  -9   0   1  144.83    7.49
   5  -1  13    1.68    3.91
   5  -1  13    2.00    4.36
  -5   1 -13   -2.15    4.23
  -5   1 -13    4.74    3.54
  -5   1 -13    3.70    2.55
  -8   3  -6  137.49    6.81
  -8   3  -6  148.43    9.93
  -8   3  -6  137.85    8.50
   8  -3   6  145.09    9.20
   8  -3   6  130.20    7.76
  -5   8  -4   78.52    7.51
   5  -8   4   71.34    4.59
  -5   8  -4   87.49    4.84
   0   9  -7   38.26    4.67
   0   9  -7   41.18    4.66
  -2  -3 -15   42.99    4.51
  -2  -3 -15   38.48    4.08
  -2  -3 -15   34.26    4.23
   2   3  15   38.85    4.80
   2   3  15   48.38    5.82
   2   3  15   32.85    4.22
   2   3  15   37.61    3.87
  -2  -3 -15   41.30    4.42
  -3  -9   6   36.93    5.94
   3   9  -6   31.50    3.24
   3   9  -6   40.78    4.96
   3   9  -6   33.09    3.76
  -7   6   2    7.81    5.62
  -7   6   2    5.34    3.67
  -7   6   2    5.15    2.41
   4   7  -8   22.78    3.90
  -4  -7   8   26.74    3.96
   4   7  -8   23.77    3.50
   6  10   5   70.56    5.42
   6  10   5   74.48    5.46
  -6 -10  -5   69.56    5.61
   6  10   5   62.86    4.82
   6  10   5   61.62    6.90
   6  10   5   72.82    6.40
  -6 -10  -5   78.53    5.84
   7   9   5   49.19    4.93
   7   9   5   60.29    6.84
   7   9   5   55.14    5.57
   7   9   5   46.79    4.86
   7   9   5   50.93    6.36
  -3   7  -9  160.93    9.13
   3  -7   9  161.75    7.81
  -3   7  -9  153.96    8.26
   3  10  -4    3.26    2.97
   3  10  -4    6.84    3.38
  -3 -10   4    2.60    5.02
   9   4   6   98.66    5.49
  -9  -4  -6   96.13    6.26
   9   4   6   95.58    5.00
   9   4   6   97.06    6.44
  -9  -4  -6  100.16    8.38
   9   4   6   92.97    7.00
  -9  -4  -6  105.41    6.01
   1   2  15   23.81    4.28
   1   2  15   22.45    4.11
   1   2  15   19.73    3.48
  -1  -2 -15   22.56    3.67
  -1  -2 -15   27.86    3.98
   1   2  15   20.78    4.73
  -1  -2 -15   14.67    3.80
  -6   7  -4  276.44   13.31
  -6   7  -4  270.61   14.04
  -9  -5  -3    2.37    5.46
   9   5   3    3.62    1.44
   9   5   3    9.23    5.09
   9   5   3    3.62    3.00
   9   5   3    5.07    3.13
   9   5   3    2.70    5.41
   9   5   3    6.32    2.90
   9   5   3    4.92    6.26
   3  11  -1    2.71    1.72
   3  11  -1   -0.37    3.95
  -3 -11   1    4.84    4.79
  -8  -3 -10  139.73    7.47
   8   3  10  137.50    8.31
   8   3  10  130.34    7.35
   8   3  10  146.11   10.11
  -8  -3 -10  128.81    7.90
  -8  -3 -10  134.10    6.83
  -1   5 -12   54.95    4.67
  -1   5 -12   60.27    4.47
   1  -5  12   55.27    4.47
   1  -2  14   42.39    5.52
  -1   2 -14   27.31    4.30
  -1   2 -14   30.03    4.05
   1  -2  14   41.32    4.25
  -1   2 -14   36.04    3.85
   5   6  -8    4.44    3.35
  -5  -6   8    6.84    4.24
   6   4  13   33.43    6.45
  -6  -4 -13   42.17    4.60
   6   4  13   38.24    3.21
   6   4  13   32.38    3.90
   3  -3 -13   89.18    5.63
   3  -3 -13   74.13    4.92
   1  10  -5   24.37    3.00
   1  10  -5   29.70    3.05
  -1 -10   5   46.25    5.84
   9  -1   0   21.64    5.59
  -9   1   0   13.99    3.69
  -9   1   0   16.11    6.10
   9   5   4   16.74    2.98
   9   5   4   16.95    3.59
   9   5   4   16.39    6.43
   9   5   4   21.54    5.83
   9   5   4   14.68    3.16
  -9  -5  -4   16.29    5.58
   9   5   4   18.52    3.17
   9   5   4   16.78    1.35
   9   5   4   23.52    5.33
  -4   3  12   15.25    2.88
  -4   3  12   21.40    3.50
   4  -3 -12   18.94    2.95
   4  -3 -12   20.01    3.78
   1   9  -7   82.65    5.77
   1   9  -7   72.14    5.55
  -1  -9   7   74.33    6.75
  -4 -10   3   45.66    5.87
   4  10  -3   33.59    3.74
   4  10  -3   26.22    2.51
   4  10  -3   32.26    4.30
   1   3  15   63.91    5.28
  -1  -3 -15   50.90    4.67
  -1  -3 -15   56.75    4.63
   1   3  15   53.98    4.85
   1   3  15   63.12    4.52
  -1  -3 -15   61.93    5.01
  -1  -3 -15   57.75    4.86
   0  -5  12   77.41    4.90
   0   5 -12   81.72    5.08
   0   5 -12   65.93    5.35
   0  -5  12   82.28    6.89
   0   5 -12   67.99    5.05
   1   1 -14   94.04    5.93
   1   1 -14  105.63    5.90
  -1  -1  14   93.95    5.50
  -1  -1  14   96.30    7.21
   1   1 -14   87.18    6.21
   0  10  -5    0.18    3.25
   0  10  -5    6.06    4.14
   0  10  -5   -3.89    4.25
   8   2  10   24.63    4.75
  -8  -2 -10   29.13    3.47
   8   2  10   35.33    6.34
   8   2  10   32.06    6.55
  -8  -2 -10   25.05    4.67
  -8  -2 -10   33.39    6.03
  -8  -2 -10   29.87    4.04
   8   2  10   29.28    3.83
   9  -1   4    4.50    5.36
  -9   1  -4    2.78    2.33
  -9   1  -4    0.98    3.80
   9  -1   4    4.59    3.43
   8   7   7  139.85    7.33
   8   7   7  146.56    8.50
  -8  -7  -7  147.02    7.82
   8   7   7  156.46    7.85
   8   7   7  141.12   10.29
   8   7   7  140.89    8.27
  -4  -1  12   25.87    4.05
   4   1 -12   26.19    3.88
   4   1 -12   28.43    3.28
  -4  -1  12   25.82    5.13
  -4  -1  12   27.74    5.77
   0  11   7    7.39    3.65
   0 -11  -7    5.65    2.12
   0 -11  -7    8.55    3.93
   0  11   7    8.38    3.66
  -3  10   5    9.48    3.35
  -3  10   5   17.50    4.76
   3 -10  -5   16.35    3.55
   5  -2 -11   14.61    2.44
   5  -2 -11   14.94    4.68
  -5   2  11   15.94    3.27
  -5   2  11    9.72    2.32
   5  -2 -11    8.84    3.45
  -5   2  11   14.71    4.56
   0  -7  10  132.03    8.68
   0   7 -10  149.65    7.56
   0   7 -10  123.41    7.62
   7   7  10   74.65    6.04
   7   7  10   67.08    3.95
  -7  -7 -10   72.68    5.60
   7   7  10   66.75    5.21
   7   7  10   71.17    4.61
   7   7  10   72.00    5.58
  -7  -7 -10   64.86    5.43
  -7  -7 -10   64.43    4.73
   9   4   0   71.96    4.28
   9   4   0   66.00    4.26
  -9  -4   0   71.89    7.14
   9   4   0   70.60    6.95
   9   4   0   67.06    4.59
   9   4   0   59.18    4.78
   9   4   0   69.92    3.68
   9   4   0   76.81    7.71
   9   3  -1   -1.42    3.25
   9   3  -1   -0.90    4.96
   9   3  -1    5.35    2.85
   9   3  -1    0.46    2.13
   9   3  -1    3.85    2.21
   9   3  -1    3.12    5.62
  -9  -3   1    0.92    5.48
   5   3  14   33.64    6.10
  -5  -3 -14   34.10    4.26
   5   3  14   31.02    3.78
  -5  -3 -14   39.46    4.77
   3  -9  -8   35.62    4.16
  -3   9   8   43.64    4.06
  -3   9   8   31.65    3.36
   6  10   2   41.78    3.85
   6  10   2   52.77    6.11
   6  10   2   42.44    6.04
   6  10   2   51.98    5.21
  -4   8   8   50.55    4.07
   4  -8  -8   42.84    4.89
   4  -8  -8   50.95    4.38
  -4   8   8   40.14    3.33
   7   9   2  134.55    9.14
   7   9   2  119.49    7.31
   7   9   2  131.53    8.00
   7   9   2  117.54    7.35
   7   9   2  136.45    8.90
   1 -11   1   48.73    4.60
  -1  11  -1   47.82    5.28
  -1  11  -1   56.95    5.20
  -7   6  -3   66.85    7.43
  -7   6  -3   78.84    7.43
   7  -6   3   49.84    3.11
  -7   6  -3   83.43    6.38
   2  11   8   75.25    5.66
  -2 -11  -8   75.48    5.91
   0  11  -2   14.13    4.24
   0  11  -2   12.97    4.46
   4   5 -10   74.36    5.38
   4   5 -10   78.32    5.32
  -4  -5  10   76.05    6.08
  -4  -5  10   91.38    7.49
   8   7   0    1.41    4.72
   8   7   0    3.47    3.68
   8   7   0    2.63    2.52
   8   7   0   -0.91    5.22
   8   7   0    2.15    3.38
   8   7   0    2.69    5.41
   8   7   0    6.77    3.54
  -7   3  -9   91.78    6.85
   7  -3   9   92.69    7.38
  -7   3  -9   95.88    5.44
  -7   3  -9   83.53    7.73
  -7   3  -9   74.41    4.21
   7  -3   9   93.85    7.23
  -7   3  -9   91.30    3.96
   8   6  -2   13.27    4.67
   8   6  -2   10.38    3.30
   8   6  -2   14.12    3.75
  -8  -6   2   19.56    5.13
   8   6  -2   22.84    5.55
   8   6  -2   14.53    2.93
   8   6  -2   15.56    3.77
  -7   3   7    3.71    2.68
   7  -3  -7    1.89    5.22
  -7   3   7   -0.15    5.16
   7  -3  -7    3.69    2.56
  -7   3   7    1.54    2.72
   6   8  -4   25.28    4.18
  -6  -8   4   17.49    5.74
   6   8  -4   20.78    4.02
   6   9   9   33.51    4.51
   6   9   9   32.67    4.79
   6   9   9   37.44    4.21
  -6  -9  -9   32.70    4.62
   6   9   9   31.03    2.91
  -6  -9  -9   29.50    4.41
   6   9   9   32.15    3.86
   9   5   2    7.06    3.41
  -9  -5  -2    6.72    5.33
   9   5   2    7.39    5.25
   9   5   2    4.95    1.82
   9   5   2    8.16    5.26
   9   5   2   10.17    2.95
   9   5   2    4.38    3.10
   9   5   2    5.86    2.81
   9   5   2   11.33    6.34
   2  11  -2   48.65    5.35
   2  11  -2   39.84    4.71
  -2 -11   2   44.78    5.56
  -7   2 -10  108.88    4.84
  -7   2 -10  112.62    5.49
   7  -2  10  127.93    8.75
  -7   2 -10  117.94    8.86
  -7   2 -10  132.21    6.52
   7  -2  10  135.39    8.85
  -7   5  -6   60.86    6.01
  -7   5  -6   63.37    7.10
  -7   5  -6   55.03    3.97
   7  -5   6   68.76    6.16
   5   2  14   86.05    7.55
  -5  -2 -14   86.30    6.27
  -5  -2 -14   81.49    5.50
   3 -10   2   46.01    4.15
   3 -10   2   35.24    2.99
  -3  10  -2   46.53    4.32
  -3  10  -2   35.22    5.58
  -3  10  -2   36.47    5.26
  -5  -7   7    7.99    4.16
   5   7  -7    8.96    3.52
  -8   4  -4   70.23    6.05
   8  -4   4   67.84    6.74
  -8   4  -4   76.42    7.65
  -8   4  -4   62.43    3.92
  -2   2 -14  121.62    6.23
   2  -2  14  119.41    7.09
  -2   2 -14  114.26    6.92
  -2   2 -14  104.15    6.86
   6   9  -2    1.27    4.27
   6   9  -2    9.60    4.35
   6   9  -2   -1.72    3.57
   6   9  -2    5.15    2.43
   6   9  -2    3.83    4.08
  -6  -9   2   -2.35    5.31
  -2  -1 -15   11.42    3.38
   2   1  15   14.92    4.36
   2   1  15   15.49    4.52
   2   1  15   17.60    4.16
  -2  -1 -15    9.74    3.57
  -2  -1 -15   17.72    3.81
  -8   4   2    3.94    2.13
  -8   4   2    6.08    3.45
  -8   4   2    5.86    5.70
  -8   4   2   -3.64    5.55
  -1   7 -10   11.64    4.25
  -1   7 -10   11.95    3.86
  -1  -1 -15   10.57    3.60
   1   1  15    9.12    4.24
  -1  -1 -15    9.35    3.65
   1   1  15   14.75    4.42
  -1  -1 -15   10.62    3.39
   1   1  15   11.73    3.90
  -3  -6  10    9.03    3.65
  -3  -6  10    0.99    5.37
   3   6 -10    1.37    3.26
   3   6 -10    7.13    1.89
   7   6  11    4.54    3.46
  -7  -6 -11    3.63    3.85
   7   6  11    4.57    4.17
   7   6  11    5.27    2.32
   7   6  11    5.51    2.80
  -7  -6 -11    4.19    3.95
  -7  -6 -11    5.21    3.04
   9   5   5   43.50    4.52
   9   5   5   48.97    5.70
   9   5   5   47.65    3.68
   9   5   5   44.53    3.52
  -9  -5  -5   46.54    6.59
   8   4  10  120.04    7.73
  -8  -4 -10  105.95    7.20
   8   4  10  111.29    6.40
  -8  -4 -10  128.97    7.20
   8   4  10  107.64    6.47
   8   4  10  117.33    9.28
  -8  -4 -10  121.34    6.54
   5   5  -9   15.05    3.50
  -5  -5   9   20.93    4.65
  -5  -5   9   12.33    5.86
  -7   5   5   57.43    6.91
   7  -5  -5   47.73    3.18
  -7   5   5   63.83    3.94
  -7   5   5   49.99    4.83
   7   3  12   85.34    5.64
   7   3  12   93.67    8.00
  -7  -3 -12   95.87    5.88
  -7  -3 -12   95.99    6.27
   7   3  12   87.00    8.23
  -7  -3 -12   97.03    5.42
   9   2   7   21.55    6.10
  -9  -2  -7   13.06    4.13
  -9  -2  -7   15.25    3.40
   9   2   7   13.33    4.01
   2   4  15  110.72    7.23
   2   4  15  112.30    8.04
  -2  -4 -15  121.59    6.98
   2   4  15   93.73    5.80
  -2  -4 -15  125.26    7.00
  -2  -4 -15  104.71    6.59
  -5  -1  11   73.44    6.79
  -5  -1  11   71.04    5.60
   5   1 -11   76.22    4.65
   5   1 -11   83.43    5.26
   9   3   7   81.38    5.92
   9   3   7   74.04    7.92
  -9  -3  -7   80.83    5.24
  -9  -3  -7   72.14    5.75
  -6  -1 -13  110.63    6.28
   6   1  13  117.94    8.62
  -6  -1 -13  122.20    7.44
   6  10   6  182.12    8.56
   6  10   6  182.29   10.53
  -6 -10  -6  193.21    9.61
   6  10   6  191.40   10.15
  -6 -10  -6  197.77    9.78
   7   9   6    6.02    5.25
   7   9   6    4.27    3.78
   7   9   6    2.33    5.34
   7   9   6   -3.86    2.24
   7   9   6   -3.14    3.73
  -7  -9  -6    4.19    3.84
   7   9   6    6.16    4.35
  -5   4 -11  155.86    9.44
  -5   4 -11  154.66    9.27
  -5   4 -11  154.97    8.12
  -5   4 -11  167.46    7.34
   5  -4  11  161.02    8.62
   5  -4  11  141.88    7.64
   5   9  -4   97.79    5.11
  -5  -9   4  119.88    8.52
   5   9  -4  103.67    5.79
   2  -8 -11   84.37    5.90
  -2   8  11   83.30    5.15
  -2   7  12   55.09    4.52
  -2   7  12   39.35    3.79
   2  -7 -12   48.74    4.33
   2  -7 -12   44.57    3.97
   2  -7 -12   45.77    4.74
   1   6 -11   79.26    5.38
   1   6 -11   89.96    5.61
   1   6 -11   81.78    5.69
  -1  -6  11   93.99    7.33
   3   3  15   25.38    3.52
  -3  -3 -15   28.25    4.21
   3   3  15   34.19    4.84
   0  -2  14   20.10    5.30
   0  -2  14   22.66    3.45
   0   2 -14   18.66    3.51
   0   2 -14   18.97    3.38
  -1   9  -7   35.30    4.34
  -1   9  -7   26.60    4.55
   3   7  -9    2.39    3.07
   3   7  -9   -0.82    4.12
   3   7  -9    5.62    2.38
   2  -2 -14   14.83    3.30
   2  -2 -14   16.29    3.79
  -2   2  14   14.53    4.66
  -2   2  14   19.86    3.28
  -5  -4 -14    0.70    3.59
  -5  -4 -14    9.49    4.08
   5   4  14    0.04    2.70
   5   4  14    2.26    5.46
   5   4  14    0.66    2.89
   2   8  13   21.16    3.43
  -2  -8 -13   21.51    4.39
  -2  -8 -13   16.13    2.91
   2   8  13   17.63    3.58
  -3  -2 -15   29.97    4.23
  -3  -2 -15   25.10    3.98
  -3  -2 -15   22.23    3.70
   3   2  15   24.56    4.72
   3   2  15   32.65    5.43
   1  11   8  123.42    6.77
   1  11   8  101.17    6.75
  -1 -11  -8  109.96    6.86
   7   0  -8  114.84    5.17
  -7   0   8   99.39    7.56
   7   0  -8  113.70    7.41
  -9   0  -6   17.00    3.06
   9   0   6   13.50    5.89
  -9   0  -6   14.87    4.14
   9   0   6    8.99    3.97
  -9   0  -6   14.94    5.90
  -2   1  14   12.43    3.09
   2  -1 -14   12.93    3.67
   2  -1 -14   19.58    3.45
  -2   1  14   16.49    4.96
  -7  -2 -12   29.97    4.18
   7   2  12   26.59    6.33
   7   2  12   38.63    6.39
  -7  -2 -12   28.44    3.72
  -7  -2 -12   31.12    4.77
   8   3  -5   86.95    4.77
  -8  -3   5   89.62    7.83
   8   3  -5   88.83    5.00
  -8  -3   5   80.57    7.03
   8   3  -5   80.26    5.09
   4  -9  -6   81.80    5.22
  -4   9   6   62.53    4.21
  -4   9   6   65.68    6.62
  -2  10  -4   45.36    5.53
  -2  10  -4   48.88    5.47
   2 -10   4   51.54    3.33
  -2  10  -4   60.60    5.16
  -6  -3   9  154.77    8.33
  -6  -3   9  155.53    9.54
   6   3  -9  177.83    8.42
  -1  11   6   75.19    5.27
   1 -11  -6   65.40    5.31
  -1  11   6   69.60    5.37
   3  -7 -11   68.06    5.33
  -3   7  11   65.19    4.19
  -8   3   4   64.19    7.37
  -8   3   4   69.52    4.00
   8  -3  -4   51.20    2.70
   8  -3  -4   71.15    6.90
  -8   3   4   66.86    4.89
  -9  -1   2   95.31    5.29
  -9  -1   2  109.97    8.60
   9   1  -2  106.22    5.28
  -3 -11  -8   53.38    5.43
   3  11   8   47.55    4.91
  -4 -11  -7    2.94    3.96
   4  11   7    3.01    3.50
   4  11   7   -1.56    3.85
  -4 -11   0   61.40    6.09
   4  11   0   53.65    5.71
   4  11   0   65.26    5.20
   4  11   0   56.95    5.51
  -1  10   9    0.07    3.11
   1 -10  -9   -0.16    2.01
   1 -10  -9    0.95    3.76
   0  -6 -14   68.54    5.25
   0   6  14   67.82    5.40
   0  -6 -14   54.69    4.61
   0  -6 -14   69.43    5.44
   1   7 -10   38.38    4.04
   1   7 -10   35.61    4.15
   1   7 -10   41.10    4.38
  -1  -7  10   58.65    6.62
   2  -6  11   29.00    3.84
  -2   6 -11   19.10    3.64
  -2   6 -11   12.52    4.18
  -2   6 -11   16.61    3.46
   2   9  12   30.69    3.80
   2   9  12   29.06    4.06
  -2  -9 -12   31.33    4.69
  -2  -9 -12   26.16    4.70
  -2   5 -12    2.41    3.12
   2  -5  12   11.19    3.45
  -2   5 -12    1.47    3.31
  -2   5 -12    9.36    3.95
   3   1 -13   14.07    3.23
  -3  -1  13    8.66    3.24
   3   1 -13    9.23    3.75
  -3  -1  13    7.40    5.23
  -8  -1 -10   16.83    3.58
  -8  -1 -10   15.66    4.30
  -8  -1 -10   16.45    2.96
  -8  -1 -10   19.91    5.77
   8   1  10   18.69    5.55
   8   1  10   10.98    5.74
  -1  -4 -15   71.31    5.23
  -1  -4 -15   51.22    4.72
   1   4  15   74.06    4.66
   1   4  15   70.63    5.42
   5  -6  -9   -1.93    4.24
   5  -6  -9   -0.83    3.19
  -5   6   9    3.97    3.06
   1  -5 -14  169.31    8.40
  -1   5  14  164.43    8.46
   1  -5 -14  167.09    8.19
   5  -5  10   55.34    4.54
  -5   5 -10   57.98    6.02
   5  -5  10   74.62    5.43
  -5   5 -10   66.62    4.09
  -5   5 -10   56.68    6.37
   2  10  -5   95.43    5.56
  -2 -10   5  122.92    8.11
   2  10  -5   49.81    3.13
  -2  11   2   -1.60    3.68
   2 -11  -2    2.64    3.62
  -2  11   2    3.69    3.88
  -2  11   2   -4.10    3.67
  -7  -4 -12  146.24    7.70
   7   4  12  125.78    6.99
  -7  -4 -12  136.84    7.14
  -7  -4 -12  133.88    7.71
   7   5  -6  114.17    6.23
  -7  -5   6  115.72    8.32
  -7  -5   6  124.69    7.48
   7   6  -5  172.67    8.62
   7   6  -5  180.30    8.43
  -7  -6   5  179.10   10.26
  -7   6   3    3.88    2.50
  -7   6   3    1.08    3.80
   7   1  -8   61.21    4.56
   7   1  -8   77.43    6.90
  -7  -1   8   58.65    6.11
  -7  -1   8   63.55    6.99
  -9   1   1   34.91    6.48
  -9   1   1   28.06    3.83
   4   6  14  231.79    7.00
   4   6  14  221.22   10.34
  -4  -6 -14  238.78   11.35
   4   6  14  208.41    7.88
  -4  -8   7    9.43    5.33
   4   8  -7    0.85    2.76
   4   8  -7    1.30    2.19
   7  -1  -8   80.16    5.27
  -7   1   8   64.29    6.71
   7  -1  -8   92.56    7.33
   9   5   1   45.76    3.03
   9   5   1   50.53    3.75
   9   5   1   48.60    3.95
   9   5   1   45.18    4.46
   9   5   1   43.53    6.41
   9   5   1   50.20    4.27
  -9  -5  -1   48.03    6.56
   9   5   1   45.82    7.16
   7   8   9  108.52    9.43
   7   8   9  111.62    6.12
  -7  -8  -9  113.15    6.58
   7   8   9  133.01    7.36
   7   8   9  124.77    5.90
  -7  -8  -9  116.83    7.06
   7   8   9  116.11    7.50
   7   8   9  117.65    7.14
   7   8   9  131.07    6.79
   9   2  -2   61.84    7.00
   9   2  -2   49.22    3.89
   9   2  -2   56.45    3.53
  -9  -2   2   54.67    6.91
  -9  -2   2   52.29    3.34
  -7   4  -8   59.42    4.21
  -7   4  -8   56.69    5.89
  -7   4  -8   58.82    2.89
  -7   4  -8   41.31    2.58
   7  -4   8   57.65    6.23
  -7   4  -8   45.18    6.90
  -6   5   8   13.15    3.17
  -6   5   8   15.57    3.11
   6  -5  -8   13.37    3.09
   6  -5  -8   12.76    5.00
  -6   5   8   15.75    5.30
   4  -5  11   36.82    4.58
  -4   5 -11   30.96    4.88
  -4   5 -11   33.05    5.15
  -4   5 -11   39.02    3.61
   4  -5  11   39.81    4.44
   4  -5  11   34.01    3.78
   8  -2  -5   47.85    6.59
  -8   2   5   46.75    6.43
  -8   2   5   37.66    3.67
  -5   7  -7   57.09    6.51
   5  -7   7   55.69    4.22
  -5   7  -7   53.13    5.88
  -5   7  -7   55.65    4.19
   1  -4  13   33.21    4.00
  -1   4 -13   40.01    3.97
  -1   4 -13   34.08    4.36
   8   6   9    3.79    6.02
  -8  -6  -9    4.93    3.77
   8   6   9    2.50    2.74
   8   6   9    3.85    1.93
   8   6   9   -2.55    4.60
   8   6   9   -0.08    3.44
   8   6   9    1.06    4.08
  -8  -6  -9    3.99    3.65
   0   2  15  100.20    6.50
   0   2  15   99.36    6.31
   0  -2 -15   97.73    6.25
   0  -2 -15   93.09    6.21
   0  -2 -15  110.97    6.20
  -3  -8 -13   42.48    5.10
   3   8  13   49.88    4.08
   3   8  13   44.26    4.57
   6  10   1   -3.92    5.06
   6  10   1   -3.59    3.88
   6  10   1    1.64    2.71
  -6 -10  -1   -6.46    5.24
   6  10   1    0.12    5.07
   1  -8 -12   56.88    4.79
   1  -8 -12   40.77    3.85
  -1   8  12   50.24    4.82
   1  -8 -12   55.01    5.13
  -1   8  12   53.55    4.34
   7   9   1  178.32   10.66
   7   9   1  196.36   10.21
   7   9   1  186.60    9.50
   7   9   1  202.47   11.07
   7   9   1  178.72    9.41
  -5   3 -12   20.34    2.89
  -5   3 -12   18.44    4.68
  -5   3 -12   26.96    3.89
   5  -3  12   17.91    4.48
   5  -3  12   20.23    5.14
  -9   1  -5   70.63    4.38
  -9   1  -5   75.06    7.84
   9  -1   5   62.93    7.32
  -9   1  -5   76.16    6.03
   9  -1   5   73.53    5.69
   6   5  13   53.14    4.84
   6   5  13   60.81    3.83
   6   5  13   53.58    4.50
  -6  -5 -13   61.93    5.10
   6   5  13   66.67    7.50
  -2  11   3   12.27    3.91
  -2  11   3    7.99    4.11
  -2  11   3   11.65    3.68
  -9  -1  -7    1.37    5.71
  -9  -1  -7    0.53    2.95
   9   1   7    5.03    5.61
   9   1   7    0.72    3.63
   6  -6   7   22.33    3.39
  -6   6  -7   26.25    6.01
   6  -6   7   33.33    4.41
  -6   7   5    1.75    5.54
  -6   7   5    0.42    2.76
   6  -7  -5    3.60    2.52
  -6   7   5    1.04    3.59
  -5  -1 -14   89.19    4.97
  -5  -1 -14   93.15    6.38
  -5  -1 -14   83.73    5.49
   5   1  14   98.46    7.78
   2 -11  -1    8.35    3.74
  -2  11   1   10.44    3.87
  -2  11   1    0.75    3.70
  -2  11   1    5.19    3.85
  -2  11   1   11.24    4.34
  -4   9  -4   49.42    6.39
  -4   9  -4   59.99    5.95
   4  -9   4   54.12    3.77
  -4   9  -4   62.86    4.56
  -8   2  -8   60.89    7.28
   8  -2   8   64.97    6.95
   8  -2   8   57.96    6.58
  -8   2  -8   58.45    4.42
  -8   2  -8   55.89    5.72
   7   8  -2  235.25   11.41
   7   8  -2  215.38   10.57
   7   8  -2  233.30   11.77
   7   8  -2  215.78   10.54
  -1  10  -5   31.87    4.59
  -1  10  -5   25.51    4.68
  -1  10  -5   19.20    4.39
   3   5 -11   48.98    4.57
  -3  -5  11   46.53    4.96
  -3  -5  11   60.00    6.74
   2  -3 -14   29.54    3.72
   2  -3 -14   25.70    3.90
  -2   3  14   27.01    3.43
   3   4  15   14.99    3.29
  -3  -4 -15   13.17    3.85
   3   4  15   16.81    5.46
   3   4  15   16.15    4.30
   3   4  15   13.74    3.34
   5   8  12   23.75    3.25
  -5  -8 -12   32.17    4.74
  -4   4 -12    0.23    2.85
   4  -4  12    8.52    3.08
   4  -4  12    8.25    4.27
   4  -4  12    5.82    3.87
  -4   4 -12    5.20    4.20
   1   5 -12   61.80    4.71
  -1  -5  12   57.51    6.45
   1   5 -12   56.31    4.92
  -1  -8 -13   25.79    4.57
   1   8  13   35.18    4.54
  -1  -8 -13   20.55    3.05
   1   8  13   27.03    3.89
  -1  -8 -13   31.33    4.68
   4  10  10   28.84    4.34
  -4 -10 -10   27.24    4.64
   4  10  10   28.86    3.82
  -9   0   2  225.73   10.33
  -9   0   2  257.48   13.15
  -9  -4  -7  105.43    6.70
   9   4   7   95.15    6.71
   9   4   7  105.39    5.76
  -9  -4  -7  105.08    8.55
  -9  -4  -7  103.33    6.20
   0 -10 -10   31.20    2.87
   0  10  10   54.95    4.71
   0 -10 -10   64.00    5.14
   3   9  12   88.83    5.36
   3   9  12   88.63    5.96
  -7   1 -11  132.09    9.42
  -7   1 -11  126.82    6.58
   7  -1  11  132.62    9.38
   7  -1  11  136.89    9.13
  -7   1 -11  127.35    7.44
   5  -3 -11   60.63    5.43
  -5   3  11   38.60    5.63
   5  -3 -11   44.05    3.33
  -5   3  11   45.68    3.44
   2   9  -7   25.65    3.87
   2   9  -7   22.92    3.18
  -2  -9   7   39.41    5.91
  -5   8   6   10.37    3.19
   5  -8  -6    9.91    3.05
  -5   8   6   16.49    3.92
  -5   8   6    6.98    5.39
  -3   8  10   21.15    3.09
   3  -8 -10   21.99    4.04
   8  -1   9   45.02    6.33
  -8   1  -9   35.55    3.80
  -8   1  -9   27.22    4.81
  -8   1  -9   31.76    6.30
  -8   1  -9   21.38    2.39
   8  -1   9   27.23    6.10
   0   3  15   55.35    5.11
   0   3  15   61.73    5.15
   0  -3 -15   54.96    4.89
   0  -3 -15   62.64    4.97
   0  -3 -15   64.34    5.06
   9   5   6   34.18    5.44
   9   5   6   40.69    3.55
   9   5   6   39.43    7.13
   9   5   6   40.04    4.71
   9   5   6   38.63    3.74
  -9  -5  -6   41.51    4.32
  -3  -1 -15   88.54    6.10
   3   1  15   90.17    6.72
   3   1  15   99.36    7.10
  -3  -1 -15   90.66    5.43
   0  -4  13   36.34    3.74
   0   4 -13   43.73    4.06
   0  -4  13   35.55    5.74
   0   4 -13   33.42    4.36
   0   4 -13   35.91    4.14
  -5   5  10   62.68    4.54
   5  -5 -10   54.85    5.38
   5  -5 -10   51.49    4.36
   9  -2   2    4.54    5.05
  -9   2  -2    3.06    3.73
  -5 -10  -9   36.68    4.76
  -5 -10  -9   45.54    5.11
   3  -4 -13   15.52    3.67
  -3   4  13   14.53    3.14
   3  -4 -13   12.17    3.16
   0   8  -9    7.47    3.83
   0   8  -9    6.66    4.05
   5  11   4   10.23    3.40
   5  11   4   13.76    5.19
  -5 -11  -4   12.54    4.32
   5  11   4   13.08    4.88
   5  11   4    6.53    4.37
  -1  -9 -12   40.10    4.82
   1   9  12   36.73    4.28
  -1  -9 -12   42.82    5.04
  -1  -9 -12   27.33    3.08
  -2   0  14   47.55    4.03
  -2   0  14   64.59    6.16
   2   0 -14   58.86    4.66
   0   1  15   95.40    6.65
   0  -1 -15  113.13    6.16
   0  -1 -15  107.82    6.49
   0   1  15  114.66    6.48
   0   1  15   99.38    6.84
   0  -1 -15   93.39    6.42
   5  10  -2   87.06    4.88
   5  10  -2  115.11    7.13
  -5 -10   2  134.87    8.78
   9  -2   1    8.02    5.19
  -9   2  -1    4.61    5.97
  -9   2  -1    3.42    3.76
  -4   1 -14   15.04    4.10
  -4   1 -14   19.89    3.14
   4  -1  14   18.66    4.21
   4  -1  14   18.97    4.53
   8   8   4   14.09    5.50
   8   8   4   11.10    3.65
   8   8   4   17.83    5.07
   8   8   4   16.02    5.65
   8   8   4   15.55    3.48
   8   8   4   10.43    3.47
  -6  -8 -11   88.42    5.93
  -6  -8 -11  102.91    6.53
   6   8  11  100.49    5.07
   6   8  11   82.68    5.12
  -7   6  -4   48.78    5.60
  -7   6  -4   48.05    6.85
   3  -6 -12   57.92    4.41
  -3   6  12   59.33    4.63
   3  -6 -12   57.51    5.01
   6  -6  -7   53.35    6.08
  -6   6   7   61.77    4.24
   6  -6  -7   54.02    4.03
  -6   6   7   52.92    6.72
  -6   6   7   52.53    4.71
  -6   4 -10   78.74    5.41
  -6   4 -10   85.04    4.37
   6  -4  10   98.02    7.08
  -6   4 -10   83.23    6.80
  -6   4 -10   71.87    7.23
   5  11   3   89.23    7.06
  -5 -11  -3   73.68    6.39
  -5 -11  -3   87.32    6.09
   5  11   3   67.50    6.63
   5  11   3   69.88    5.06
   5  11   3   88.29    6.27
   1   0  15   -2.13    4.50
  -1   0 -15    4.02    3.30
   1   0  15    4.68    3.94
  -1   0 -15    5.13    3.44
   1   0  15    3.02    3.52
  -6   3 -11  164.08    8.44
  -6   3 -11  154.68    9.42
   6  -3  11  168.29    9.76
  -6   3 -11  172.92    7.32
  -6   3 -11  158.91   10.05
   6  -3  11  169.72    9.63
   5   8  -6    2.64    1.35
   5   8  -6    6.11    2.81
  -5  -8   6   10.75    5.68
   6   6  -7    4.18    3.39
  -6  -6   7    4.53    4.50
   6   7  12   84.59    5.17
   6   7  12   81.90    5.26
  -6  -7 -12   93.87    6.33
   6   7  12   87.46    4.78
   9   4  -1   45.15    5.97
   9   4  -1   39.83    3.07
   9   4  -1   42.78    3.38
   9   4  -1   39.19    6.68
   9   4  -1   26.84    4.02
  -9  -4   1   38.42    6.31
   9   4  -1   36.41    3.84
  -7  -1 -12   12.54    3.73
   7   1  12   10.49    5.77
   7   1  12   11.19    5.43
  -7  -1 -12    4.56    3.09
   8   8   3    7.00    5.03
   8   8   3    8.43    3.50
   8   8   3   11.06    4.99
   8   8   3   10.17    3.70
   8   8   3    8.87    3.18
   8   8   3   14.80    5.66
   1  -7 -13   -6.27    3.70
   1  -7 -13    2.16    2.84
   1  -7 -13    2.19    3.95
  -1   7  13    1.28    3.48
  -1   7  13    0.20    2.81
  -5   9   1   14.16    3.17
  -5   9   1   15.32    5.23
  -5   9   1    8.14    4.37
  -5   9   1   15.31    5.66
   6   0 -10    0.24    3.32
  -6   0  10    1.66    4.41
  -6   0  10    1.56    5.29
   6   0 -10    5.13    2.26
   2 -10  -8    9.57    3.89
  -2  10   8    8.05    3.11
   5  -7  -8   64.47    5.81
  -5   7   8   75.26    4.89
   5  -7  -8   64.02    4.62
  -2   0 -15   27.38    4.23
  -2   0 -15   24.58    3.72
   2   0  15   28.96    4.45
   2   0  15   31.72    4.71
   3   8  -8   70.20    4.61
   3   8  -8   64.98    4.56
  -7  -9  -7   77.48    5.71
   7   9   7   68.16    4.20
  -7  -9  -7   72.76    5.52
   7   9   7   72.17    7.41
   7   9   7   77.67    5.72
   7   9   7   73.20    5.85
   7   9   7   77.07    5.49
  -4   4  12   26.03    3.22
   4  -4 -12   28.88    3.95
   4  -4 -12   22.76    3.18
   6  10   7  141.87    9.27
   6  10   7  117.77    7.46
  -6 -10  -7  121.77    7.55
   6  10   7  138.38    7.88
  -6 -10  -7  134.97    7.38
   6  10   7  131.87    9.10
  -2  -7 -14   16.51    4.27
  -2  -7 -14    9.30    3.02
   2   7  14   19.82    3.41
   2   7  14   13.15    3.47
   8   7   8   58.19    7.75
   8   7   8   51.58    4.19
   8   7   8   55.83    5.74
   8   7   8   58.81    4.41
   8   7   8   54.22    3.38
   8   7   8   53.84    4.76
   8   7   8   57.16    5.60
  -8  -7  -8   64.03    5.37
   8   7   8   61.46    4.92
  -8  -7  -8   58.86    5.14
   6  -1 -10   41.97    4.27
   6  -1 -10   53.02    5.93
  -6   1  10   36.58    5.59
  -3  10   6   61.19    4.65
  -3  10   6   50.98    4.32
   3 -10  -6   57.34    4.77
  -8  -5 -10   91.90    6.20
   8   5  10   80.81    5.41
  -8  -5 -10   85.08    5.70
  -8  -5 -10   82.35    6.22
   8   5  10   85.90    6.77
   8   5  10   90.46    5.68
   9  -2   3   27.86    5.90
  -9   2  -3   42.93    5.06
   9  -2   3   42.73    4.29
  -2   7 -10    5.73    4.19
  -2  11   4   38.29    4.16
   2 -11  -4   37.54    4.37
  -2  11   4   34.77    4.93
  -2  11   4   27.13    4.43
  -1  11  -2    2.29    3.99
  -1  11  -2   -1.15    4.22
   1 -11   2    5.76    3.79
   4   4 -11   43.64    4.38
  -4  -4  11   43.87    6.38
  -4  -4  11   41.74    5.39
   4   4 -11   42.22    4.57
   8  -4   5   96.96    7.49
  -8   4  -5  110.07    7.39
  -8   4  -5   97.04    5.14
  -8   4  -5  110.69    8.66
  -8   4  -5   93.04    5.19
   4  -6  10  169.68    8.81
   4  -6  10  181.20    9.43
  -4   6 -10  178.59   10.52
  -4   6 -10  179.63   10.18
  -5   9   0   35.83    5.56
  -5   9   0   29.57    5.08
  -5   9   0   42.40    6.32
  -2   4 -13    5.45    3.20
   2  -4  13    8.63    3.72
  -2   4 -13   14.84    3.90
   5  11   5    1.23    3.40
  -5 -11  -5   -0.52    3.82
  -5 -11  -5    4.97    4.06
   5  11   5    5.17    4.51
   5  11   5   -0.13    5.07
  -3   2 -14    6.85    3.92
  -3   2 -14    5.71    3.08
   3  -2  14    9.76    3.74
   3  -2  14    9.47    3.81
   5   7  13  113.27    5.94
  -5  -7 -13  109.18    6.94
   8   8   5   31.48    4.17
   8   8   5   32.49    6.40
   8   8   5   42.94    6.41
   8   8   5   43.30    5.68
   8   8   5   34.73    4.39
   8   8   5   37.67    4.29
  -4  -2  12    5.11    5.42
   4   2 -12    2.77    3.44
   4   2 -12    3.58    2.79
  -4  -2  12    2.62    2.85
  -4  -2  12    2.65    4.48
   5   5  14    2.03    5.49
  -5  -5 -14   -0.41    3.78
   5   5  14   -2.41    2.95
   5   5  14    1.14    2.67
  -6   4   9   41.72    3.80
   6  -4  -9   34.06    5.53
   6  -4  -9   37.01    3.68
  -6   4   9   40.14    5.93
  -6   4   9   38.19    3.63
  -2  -3  13   62.22    6.61
   2   3 -13   62.02    5.18
   2   3 -13   63.00    4.83
  -8   4   3    3.50    5.55
  -8   4   3    5.45    2.25
  -8   4   3    4.76    3.41
  -2  11   0   22.25    4.68
   2 -11   0   23.64    4.14
  -2  11   0   21.77    4.24
  -6   7  -5   90.59    7.90
  -2   9  10   -3.62    3.15
   2  -9 -10    7.00    3.87
   2  -6 -13    5.59    3.40
   2  -6 -13    5.67    3.78
   2  -6 -13    7.81    3.17
  -2   6  13    4.64    3.46
  -1   9  11   52.38    4.40
   1  -9 -11   33.95    3.34
   1  -9 -11   50.17    4.85
  -7  -4   7   39.71    6.01
   7   4  -7   29.94    3.89
  -7  -4   7   35.03    4.99
   7   7  -4   47.97    4.50
   7   7  -4   63.78    5.39
   7   7  -4   56.75    4.82
   7   7  -4   62.09    4.80
   8   7  -1    6.26    5.21
   8   7  -1   16.24    4.86
   8   7  -1    9.84    3.81
   8   7  -1   10.10    3.61
   8   7  -1    8.76    3.59
  -5   9   2   -1.62    5.04
  -5   9   2    2.76    2.86
  -5   9   2    5.97    5.23
  -5   9   2   -1.94    4.16
   3  11  -2    1.44    3.96
  -3 -11   2    0.32    4.77
   3  11  -2    8.21    3.60
   1  11  -3   29.57    4.79
   1  11  -3   27.01    4.65
  -1 -11   3   25.05    5.27
   5  -8   5   24.49    3.10
  -5   8  -5   38.86    6.18
   5   9  11   14.92    3.27
  -5  -9 -11   18.46    4.37
  -5  -4  10    9.04    4.87
   5   4 -10    4.41    3.34
  -5  -4  10    1.98    5.75
  -9  -3   2   -3.50    5.54
   9   3  -2    5.91    3.06
   9   3  -2    8.31    2.41
   9   3  -2   10.23    5.77
   9   3  -2    8.14    4.96
   9   3  -2    6.31    2.23
  -2  -5 -15   55.76    5.03
   2   5  15   52.93    5.30
  -2  -5 -15   44.19    4.37
   2   5  15   50.75    4.22
  -8   0   6   33.28    6.11
   8   0  -6   29.98    3.44
  -8   3  -7  162.11    7.77
  -8   3  -7  174.76   10.82
  -8   3  -7  161.86    7.90
  -8   3  -7  172.59    9.61
   8  -3   7  174.11   10.51
   8  -3   7  184.32   10.42
  -1   8  -9    3.73    3.93
   8   1  -6   29.68    3.46
  -8  -1   6   31.95    5.94
  -7  -2   8    7.29    5.43
  -7  -2   8    1.71    4.50
   7   2  -8    4.67    3.23
  -3  10  -3   13.78    5.15
   3 -10   3   15.78    2.37
  -3  10  -3   14.79    4.90
  -3  10  -3   20.73    3.80
   3 -10   3   21.03    3.75
  -9   2   0    7.54    3.68
  -9   2   0    5.16    5.90
   1   8  -9   40.27    4.56
   1   8  -9   38.41    3.92
  -6  -5   8   19.61    6.17
   6   5  -8   22.07    3.58
  -6  -5   8   20.01    4.92
  -7   2   8   54.22    3.64
   7  -2  -8   73.28    7.05
  -7   2   8   58.36    6.82
  -7   2   8   69.30    4.38
  -5  -2  11   40.54    6.32
  -5  -2  11   33.31    5.70
   5   2 -11   47.10    4.40
  -5  -2  11   32.14    4.28
  -6  -7   6    2.27    4.26
   6   7  -6   -4.60    3.43
  -6  -7   6    2.18    5.62
   5  11   2   88.06    5.50
  -5 -11  -2   98.03    7.21
   5  11   2   95.51    6.69
   5  11   2  107.35    7.27
   5  11   2   97.49    7.45
  -6   8   0   18.22    5.92
  -6   8   0   30.85    5.87
  -6   8   0   20.35    4.77
  -6   0 -13   -1.01    4.24
   6   0  13    1.45    4.93
   6   0  13   -4.30    5.65
  -6   0 -13    0.70    3.07
  -6   0 -13   -4.30    2.53
   7   5  12   71.58    5.26
  -7  -5 -12   82.07    5.94
   7   5  12   72.36    5.04
   7   5  12   74.26    4.06
  -7  -5 -12   77.69    5.49
  -7  -5 -12   63.68    4.40
   0 -11  -8   -0.91    3.91
   0  11   8    2.46    3.52
   0  11   8    2.96    3.54
   8   8   2   23.87    3.48
   8   8   2   23.65    5.45
   8   8   2   28.61    4.16
   8   8   2   27.77    6.21
   8   8   2   25.37    5.69
   8   8   2   22.99    4.02
  -6   8   1   22.27    6.17
  -6   8   1   15.81    4.57
  -6   8   1   24.04    5.86
  -6   8   1   20.68    2.87
   3   7  14    8.07    3.45
  -3  -7 -14    8.07    4.13
   3   7  14   13.04    3.32
  -3   9  -6   68.73    6.29
   3  -9   6   66.43    4.18
  -3   9  -6   76.76    5.30
  -3   9  -6   63.26    6.14
  -5   6  -9   91.93    7.26
  -5   6  -9   92.57    7.20
   5  -6   9  101.01    5.95
   5  -6   9   86.21    5.50
   3  -8   8   73.51    4.64
  -3   8  -8   82.48    6.67
  -3   8  -8   91.96    5.68
  -3   8  -8   75.58    6.18
   9   5   0   99.24    4.92
   9   5   0  105.81    8.09
   9   5   0  104.95    5.91
   9   5   0  104.92    5.62
   9   5   0   88.71    5.97
  -9  -5   0  112.18    8.71
   9   5   0  106.93    8.81
  -8  -5   4    4.22    4.65
   8   5  -4    6.78    2.98
   8   5  -4    1.67    2.77
  -8  -5   4    5.03    5.09
   8   5  -4    6.18    3.71
   8   5  -4    4.06    3.27
   4  -7 -10    3.22    3.54
  -6  -1  10   33.70    6.12
  -6  -1  10   33.52    4.98
   6   1 -10   39.49    4.05
   6   1 -10   33.70    3.10
   6   1 -10   38.13    5.87
  -1  -7 -14   32.63    4.76
  -1  -7 -14   29.18    4.67
   1   7  14   23.26    3.70
   1   7  14   34.67    4.64
  -1  -7 -14   23.28    3.33
   0  11  -3   -0.66    4.04
   0  11  -3    1.28    4.15
   0  -4 -15    8.94    3.42
   0   4  15    9.37    3.56
   0  -4 -15    4.27    3.84
   0  -4 -15    5.19    3.46
   1   2 -14   22.69    3.86
   1   2 -14   29.83    3.93
  -1  -2  14   26.20    5.65
  -1  -2  14   20.06    3.26
   4  -3  13   15.26    4.94
   4  -3  13   17.11    3.98
  -4   3 -13    8.76    4.03
  -4   3 -13    8.79    3.03
   4  -3  13    8.07    4.10
  -5   9  -1   34.51    5.34
  -5   9  -1   44.76    5.77
  -5   9  -1   47.99    6.65
   5  -9   1   38.59    3.88
  -2 -10 -11    3.00    4.08
   2  10  11    1.46    3.40
   9   6   4   31.32    3.72
   9   6   4   25.54    4.00
   9   6   4   31.49    6.72
   9   6   4   27.91    3.70
   9   6   4   24.09    5.41
  -8   0 -10   11.94    5.87
   8   0  10   10.06    5.69
   8   0  10   16.09    5.75
  -8   0 -10   16.46    3.55
  -8   0 -10   14.82    2.88
   9   6   3   74.23    5.17
   9   6   3   82.87    6.99
   9   6   3   75.90    5.25
   9   6   3   78.65    5.16
   9   6   3   82.42    8.38
   9   6   3   77.28    3.95
   9   6   3   82.07    7.47
  -2 -12  -3   -3.19    4.14
   2  12   3   -0.54    3.91
  -2 -12  -3    3.92    4.02
   1   5  15   23.07    4.20
  -1  -5 -15   16.31    4.12
  -1  -5 -15   10.65    3.32
  -9   1   2   97.35    6.03
  -9   1   2  122.33    9.10
  -6 -10   0    2.36    5.33
   6  10   0    4.46    4.93
   6  10   0    5.85    3.82
   6  10   0    8.08    4.95
   6  10   0    5.84    2.81
  -4  -3 -15   78.04    5.82
   4   3  15   73.71    7.12
   4   3  15   70.17    4.63
  -4  -3 -15   70.57    5.44
   6  -2 -10  110.88    6.49
   6  -2 -10  130.92    8.04
  -6   2  10  116.81    5.47
  -6   2  10   98.54    7.36
   6  -5   9   61.19    5.63
  -6   5  -9   65.59    6.38
  -6   5  -9   58.68    6.84
  -6   5  -9   67.30    3.90
   6  -5   9   53.08    4.43
  -6   5  -9   63.48    4.66
  -1 -12  -3   41.56    4.92
  -1 -12  -3   30.33    4.45
   1  12   3   41.96    4.91
   1  12   3   35.42    5.06
   7   9   0  243.73   11.62
   7   9   0  269.28   13.13
   7   9   0  255.45   12.70
   7   9   0  232.56   11.57
   9  -2   4   64.23    5.17
  -9   2  -4   77.48    6.19
  -9   2  -4   70.30    7.98
   9  -2   4   64.23    7.02
  -6   8  -1   50.38    6.51
  -6   8  -1   42.58    6.77
  -6   8  -1   56.68    5.64
   9   3   8   -1.11    3.87
  -9  -3  -8    0.40    3.93
  -9  -3  -8    2.20    2.89
   9   3   8    7.16    6.14
  -9  -3  -8   -0.62    3.31
   9   0   7   85.27    6.49
  -9   0  -7  101.19    5.54
  -9   0  -7   89.15    8.40
  -9   0  -7   85.11    6.58
   9   0   7   98.56    8.27
  -4   8  -7   44.94    4.17
  -4   8  -7   46.12    5.53
   4  -8   7   41.72    3.62
  -4   8  -7   32.23    5.53
   2  11   9  110.59    6.90
  -2 -11  -9  126.50    7.62
  -2   9  -7   34.31    4.47
  -2   9  -7   29.93    4.80
  -2   9  -7   22.97    4.28
   2  -4 -14   62.70    4.98
   2  -4 -14   71.13    5.23
   2  -4 -14   62.19    4.82
   4  11   8    8.06    3.98
  -4 -11  -8   16.44    4.46
  -4 -11   1   46.49    5.97
   4  11  -1   43.85    5.36
   4  11  -1   48.02    4.07
   4  11  -1   48.64    5.12
  -5 -11  -6   15.86    4.40
  -5 -11  -6   12.08    4.16
   5  11   6    6.31    4.61
   5  11   6    7.54    3.71
   8   8   6  185.77    9.23
   8   8   6  182.33    8.89
   8   8   6  172.14    9.35
   8   8   6  185.77    9.91
   8   8   6  182.75   11.46
  -2 -12  -4    5.54    3.85
  -2 -12  -4   11.46    4.29
  -2 -12  -4    4.06    3.85
   2  12   4    8.83    4.17
   3   5  15  137.84    8.64
   3   5  15  143.68    5.96
  -3  -5 -15  134.04    7.66
   4  -6 -11  105.66    6.40
  -9  -2  -8   14.97    6.13
  -9  -2  -8   15.60    2.81
  -9  -2  -8   13.38    4.32
   9   2   8   15.07    4.20
  -9  -2  -8   12.32    3.54
   9   2   8   14.97    6.13
  -6   2 -12  198.27    8.04
   6  -2  12  201.15   11.35
  -6   2 -12  167.26    8.32
  -6   2 -12  170.23    9.97
   6  -2  12  200.56   11.03
  -6   2 -12  196.92    9.31
  -1  11   7    8.27    3.54
   1 -11  -7    1.56    3.77
  -1  11   7    9.77    3.67
  -8   5  -1   19.44    6.38
  -8   5  -1   17.22    4.40
  -8   5  -1   28.23    6.48
  -7   6   4   -2.59    3.77
  -7   6   4    3.61    5.79
  -7   6   4    8.98    5.82
  -7   6   4    4.85    2.64
  -2 -11   3   70.29    6.50
   2  11  -3   52.56    4.87
   2  11  -3   62.37    5.35
   0   0  15   27.34    5.08
   0   0 -15   36.04    4.11
   0   0  15   33.83    4.02
  -5   9   3   18.46    5.67
  -5   9   3   13.13    2.90
  -5   9   3   13.15    5.48
  -5   9   3   10.65    4.35
   4   8  13    0.37    3.58
  -4  -8 -13    1.11    4.04
   4   8  13    6.86    3.07
   5  -2  13   15.64    4.66
   5  -2  13   21.67    5.49
  -5   2 -13   20.55    2.98
  -9   1  -6   93.17    8.39
   9  -1   6   92.51    6.39
  -9   1  -6   87.31    6.63
  -9   1  -6   94.88    5.23
   9  -1   6   89.45    8.22
   2   6 -11   13.59    3.84
   2   6 -11   13.49    3.51
  -2  -6  11   18.57    5.80
   2   6 -11   15.25    4.44
  -4  -2 -15   97.40    5.63
   4   2  15  105.62    7.97
  -4  -2 -15   99.88    6.51
  -4  -2 -15   97.72    6.14
  -6   8   2   31.46    6.42
  -6   8   2   38.51    6.26
  -6   8   2   30.28    4.89
  -6   8   2   30.08    2.86
  -6   8   2   39.45    3.63
  -8   1   6    2.53    2.15
  -8   1   6    4.08    5.28
   8  -1  -6    6.61    5.65
  -4  10   1    8.89    5.32
  -4  10   1    5.35    2.90
  -4  10   1    6.29    4.66
  -4  10   1   10.85    3.67
  -4  10   1    4.53    4.36
   8   6  -3    4.28    3.48
   8   6  -3    2.07    3.74
   8   6  -3    6.35    3.23
  -8  -6   3   11.21    4.78
   8   6  -3    3.51    2.90
   8   6  -3    5.85    4.30
   8   6  -3   14.30    5.23
   2   7 -10   47.55    4.17
   2   7 -10   46.83    4.37
   2   7 -10   59.26    5.30
   2   7 -10   52.57    4.76
  -2  -7  10   56.76    6.65
  -8   5   0   32.69    4.72
  -8   5   0   30.69    6.72
  -8   5   0   35.15    6.54
  -1 -12  -4    8.15    4.31
   1  12   4    4.63    4.07
  -1 -12  -4    6.70    3.63
  -1 -12  -4    4.64    3.77
  -1 -12  -2   30.38    4.72
  -1 -12  -2   41.31    4.88
   1  12   2   52.56    5.28
  -9  -5  -7   53.80    4.70
   9   5   7   50.04    5.81
   9   5   7   48.26    3.74
  -9  -5  -7   49.49    4.38
   9   5   7   54.68    5.25
   9   5   7   46.62    4.25
   9   5   7   45.62    7.51
  -9  -5  -7   52.77    4.87
   8   2  -6  100.59    5.08
  -8  -2   6  118.20    8.45
   8   2  -6  128.35    5.96
  -4  10   2   -1.98    2.71
  -4  10   2   -3.31    4.93
  -4  10   2    6.57    4.28
  -4  10   2    2.01    3.32
   8   4  -5    9.43    2.88
   8   4  -5   10.68    3.26
  -8  -4   5   10.44    4.93
  -8  -4   5    4.31    5.41
   8   4  -5    8.95    3.04
  -5   0 -14    3.67    3.14
  -5   0 -14    3.74    2.73
   5   0  14    1.98    4.80
  -5   0 -14    3.97    3.93
   6   9  10    9.83    3.03
  -6  -9 -10    0.53    4.14
   6   9  10    5.44    2.25
  -6  -9 -10    9.24    3.95
   6   9  10    2.68    3.76
  -2 -12  -2   47.98    5.29
  -2 -12  -2   61.80    5.37
   2  12   2   60.51    5.52
   7  -4  -7   11.55    5.61
  -7   4   7    5.10    3.10
  -7   4   7    6.86    5.57
   7  -4  -7    7.91    2.71
  -7   4   7   12.43    2.96
   9   6   5    2.65    3.00
   9   6   5    6.33    6.11
   9   6   5   -3.04    3.05
   9   6   5    3.34    4.72
   9   6   5    0.29    3.66
   2 -11  -5  105.81    6.40
  -2  11   5  100.23    6.59
  -2  11   5  112.31    6.25
  -7   5  -7    9.68    4.72
   7  -5   7    5.96    4.57
  -7   5  -7   12.92    2.96
  -7   5  -7   10.35    5.86
   4   9  12   58.36    5.09
   4   9  12   61.73    4.45
  -4  -9 -12   63.70    5.76
  -1  -4  13   47.22    3.77
  -1  -4  13   54.86    6.37
   1   4 -13   44.20    4.60
   1   4 -13   42.92    4.33
   1   4 -13   41.59    3.91
   3  10  11   40.88    4.66
   3   0  15  105.13    6.92
  -3   0 -15   96.75    5.61
   3   0  15   88.45    6.64
  -3   0 -15   99.32    6.44
   3   2 -13   68.62    4.80
   3   2 -13   65.60    5.44
  -3  -2  13   71.38    6.74
  -3  -2  13   56.29    5.91
  -8   5  -2   37.98    6.71
  -8   5  -2   29.87    4.88
  -8   5  -2   39.45    6.63
   9   6   2  188.87    8.90
   9   6   2  172.60    8.62
   9   6   2  179.51    7.79
   9   6   2  197.34    8.87
   9   6   2  176.70   11.68
   9   6   2  195.39   11.20
  -9  -6  -2  199.64   11.55
   9   1  -3    3.20    2.49
   9   1  -3    1.46    2.61
  -9  -1   3    6.69    5.75
  -9  -1   3    0.85    2.19
   4  10  -4   29.64    3.77
  -4 -10   4   36.51    5.99
   4  10  -4   23.31    2.69
  -3   5 -12   49.16    5.44
  -3   5 -12   59.00    4.33
  -3   5 -12   50.90    4.17
   3  -5  12   56.24    4.37
   3  -5  12   46.29    4.77
  -6  -9   3   26.17    6.11
   6   9  -3   17.72    2.78
   6   9  -3   25.05    4.58
  -3  -4  12  122.59    8.20
   3   4 -12  110.03    6.77
  -3  -4  12   92.43    6.77
  -2  11  -1   55.13    5.95
  -2  11  -1   66.14    5.37
   2 -11   1   67.91    5.23
   0  -8 -13    4.56    2.71
   0   8  13   -0.54    3.26
   0   8  13    3.27    3.77
   0  -8 -13   -5.10    4.31
   0  -8 -13    1.84    3.76
  -9   2   1    2.47    5.83
  -9   2   1    4.71    3.50
  -2  -1  14  199.13   10.71
   2   1 -14  183.93    8.73
   2   1 -14  179.07    9.27
   2   1 -14  168.09    8.67
   4   4  15   14.18    3.21
  -4  -4 -15   13.20    3.93
   4   4  15    6.31    5.46
  -4  10   0   19.35    3.24
   4 -10   0   17.46    3.84
  -4  10   0   19.76    4.76
  -4  10   0   16.84    5.43
   6   6  13   14.77    3.12
   6   6  13   13.40    2.77
  -6  -6 -13   16.34    4.18
  -3 -10   5    7.68    5.25
   3  10  -5    5.12    3.57
   3  10  -5    5.56    2.37
  -4   9   7   32.75    3.25
  -4   9   7   51.60    4.25
   4  -9  -7   47.62    4.39
  -4   9   7   42.18    6.07
  -3 -11  -9   15.98    4.46
   3  11   9   19.09    4.07
  -1 -10 -11   81.27    5.85
  -1 -10 -11   55.18    3.68
   1  10  11   66.75    5.27
  -7   5   6   92.20    8.17
   7  -5  -6   88.49    7.31
   7  -5  -6   75.91    4.38
  -7   5   6   90.76    4.86
   5  11   1   46.54    3.88
   5  11   1   47.59    5.54
   5  11   1   46.55    5.84
  -5 -11  -1   43.13    5.83
  -1 -11  -9  121.44    7.39
   1  11   9   95.36    6.33
   2  12   5   18.77    4.45
  -2 -12  -5   15.57    4.14
  -2 -12  -5   13.39    3.73
  -3   6 -11   87.52    6.94
   3  -6  11   87.97    5.57
  -3   6 -11  107.95    5.80
   3  -6  11  105.73    6.29
  -4  -9   6   67.25    6.95
   4   9  -6   50.19    3.99
   4   9  -6   57.26    3.98
   7   7  11   27.54    3.41
   7   7  11   33.33    3.03
   7   7  11   34.98    4.61
  -7  -7 -11   36.93    4.68
   7   7  11   29.81    4.38
  -7  -7 -11   29.06    3.96
   8   8   1   53.61    4.80
   8   8   1   53.87    6.84
   8   8   1   58.47    6.46
   8   8   1   49.25    4.78
   8   8   1   49.89    6.22
   8   8   1   45.15    4.09
   1  -3  14  101.07    6.49
   1  -3  14  123.75    7.90
  -1   3 -14  115.52    6.73
  -1   3 -14  120.54    6.26
   9   4   8  130.95    7.86
   9   4   8  120.46    6.58
  -9  -4  -8  132.33    6.74
  -9  -4  -8  133.51    7.24
  -9  -4  -8  123.98    7.61
  -3   9   9    2.59    2.83
   3  -9  -9    5.86    3.75
   0  -9 -12   19.27    2.88
   0  -9 -12   23.85    4.55
   0   9  12   23.24    3.78
   0  -9 -12   26.11    4.27
  -9  -2   3   21.81    6.05
   9   2  -3   21.68    2.82
   9   2  -3   21.52    3.24
  -8   3   5   88.93    4.69
   8  -3  -5   95.59    7.79
  -8   3   5   79.05    5.30
  -8   3   5   89.91    8.11
   8  -3  -5   80.50    4.15
  -4  10   3    4.60    4.89
  -4  10   3    2.74    2.58
  -4  10   3    4.54    3.26
  -4  10   3    4.26    4.04
  -8   5   1   23.82    4.26
  -8   5   1   28.21    6.45
  -7   0 -12   24.92    4.16
  -7   0 -12   23.13    3.39
   7   0  12   28.58    5.90
   7   0  12   20.79    6.13
   8   3  11    7.92    6.03
  -8  -3 -11   13.07    4.15
  -8  -3 -11   12.39    3.38
  -8  -3 -11   15.50    3.96
   5  -4 -11   60.00    4.85
   5  -4 -11   75.80    5.80
  -5   4  11   62.17    4.11
  -9   0   3   90.32    8.08
  -9   0   3   76.77    4.71
  -7  -9  -8    5.27    4.09
  -7  -9  -8    2.49    3.75
   7   9   8    0.84    2.20
   7   9   8    2.36    3.87
   7   9   8    1.21    3.65
   7   9   8    1.09    4.08
   7   9   8   -4.65    5.68
   6  10   8   47.37    5.09
   6  10   8   48.43    4.99
  -6 -10  -8   47.17    4.98
  -6 -10  -8   53.77    5.21
  -6   8  -2   67.59    6.04
  -6   8  -2   71.69    6.81
   6  -8   2   50.94    3.92
  -6   8  -2   52.91    7.04
  -7   6  -5   53.53    5.98
  -7   6  -5   69.23    7.35
  -9  -1  -8   31.84    3.85
  -9  -1  -8   29.68    4.95
  -9  -1  -8   35.85    6.78
   9   1   8   38.68    6.66
  -1 -12  -5   -0.28    3.45
   1  12   5   -0.53    3.98
  -1 -12  -5   -0.08    4.16
  -1 -12  -5    7.35    3.95
   0  10  -6    8.22    4.32
   0  10  -6    9.80    4.17
   1  12   1  116.43    7.40
  -1 -12  -1  117.89    7.60
  -1 -12  -1  134.79    7.51
  -4   8   9    6.01    2.44
   4  -8  -9   10.64    3.66
  -1 -10   6   59.37    6.45
   1  10  -6   52.46    5.14
   5  -9   2   49.59    4.11
  -5   9  -2   53.06    5.83
  -5   9  -2   39.51    5.68
  -5   9  -2   50.29    6.81
   1  -2 -15   62.36    4.98
   1  -2 -15   51.70    4.88
   1  -2 -15   61.27    4.85
  -1   2  15   58.05    5.59
  -1   2  15   51.32    4.53
  -6  -4   9   63.47    6.52
  -6  -4   9   74.25    7.48
   6   4  -9   76.99    5.16
  -6  -4   9   64.48    5.00
  -6   7   6   22.18    4.05
   6  -7  -6   18.60    3.10
  -6   7   6   26.65    6.00
  -6   7   6   22.42    3.30
  -2  10  -5   58.17    5.84
   2 -10   5   53.83    3.49
  -2  10  -5   44.13    5.46
   4  -7   9   96.31    5.63
  -4   7  -9  104.92    7.50
  -4   7  -9   91.58    6.94
  -3 -12  -3   49.15    5.18
   3  12   3   48.51    5.38
   3  12   4   30.53    4.80
  -3 -12  -4   27.85    4.49
  -8  -2 -11   11.58    3.28
  -8  -2 -11   10.08    3.71
   8   2  11   13.12    6.22
  -8  -2 -11    8.93    4.33
   1  -6 -14  127.42    7.11
   1  -6 -14  117.58    6.78
  -1   6  14  118.32    6.98
   2  12   1    7.49    3.05
   2  12   1    5.36    4.23
  -2 -12  -1   -4.86    4.59
  -2 -12  -1    6.78    4.14
  -4  -1 -15   60.41    4.55
  -4  -1 -15   63.96    4.98
   4   1  15   69.69    6.70
  -4  -1 -15   76.58    5.71
   2   5 -12   24.55    2.97
  -2  -5  12   23.78    5.92
   2   5 -12   17.55    3.77
   2   5 -12   21.10    3.95
  -6  -8   5    0.41    5.66
  -1   1 -15   64.86    4.77
   1  -1  15   55.88    4.95
   1  -1  15   52.97    5.85
  -1   1 -15   57.78    4.98
  -6   8   3   11.29    5.82
  -6   8   3   14.51    5.80
  -6   8   3    6.09    4.13
  -6   8   3   16.43    3.22
   7   8  10  146.51    6.67
   7   8  10  155.88    7.58
   7   8  10  144.31    8.06
   7   8  10  141.62    7.90
  -7  -8 -10  138.83    7.47
   7   8  10  138.19    7.04
  -7  -8 -10  142.79    8.00
   7   8  10  128.19    7.67
  -4   9  -5   24.69    4.89
  -4   9  -5   20.39    3.64
   4  -9   5   22.15    2.81
  -4   9  -5   23.66    5.29
   9   4  -2    6.26    4.74
   9   4  -2    0.21    2.50
   9   4  -2    5.56    2.50
  -9  -4   2   -2.09    5.54
   9   4  -2    3.62    3.21
   9   4  -2   10.50    5.86
   9   4  -2    2.16    3.45
  -2   8  -9   14.36    4.48
  -8   5  -3   68.44    6.26
  -8   5  -3   74.46    7.82
  -8   5  -3   73.13    8.01
  -3   4 -13    0.84    3.12
  -3   4 -13   -4.23    3.33
   3  -4  13    1.18    3.78
  -3   4 -13    1.99    3.88
   9   6   6   10.22    3.08
   9   6   6    6.19    3.13
   9   6   6   12.03    5.03
   9   6   6   12.44    4.12
   9   6   6    9.71    3.30
   9   6   6    4.59    6.45
   0 -12  -3   95.98    6.26
   0  12   3  104.61    6.80
   0  12   3  103.95    6.90
   0 -12  -3  103.73    6.61
   2   8  -9   22.77    3.44
   2   8  -9   29.46    3.85
  -6  -2  10  130.93    8.88
  -6  -2  10  120.57    7.56
   6   2 -10  151.27    7.65
  -2   3 -14   47.51    4.07
  -2   3 -14   37.85    4.81
   2  -3  14   39.36    4.59
   3  -5 -13    3.02    3.10
  -3   5  13    1.65    2.97
   3  -5 -13    3.29    3.58
  -1   1  15  142.32    8.49
  -1   1  15  147.24    7.63
   1  -1 -15  153.20    7.63
   1  -1 -15  142.89    7.73
   1  -1 -15  133.60    7.86
  -9   2  -5   67.46    7.87
   9  -2   5   51.77    4.99
   9  -2   5   45.30    6.59
  -9   2  -5   61.92    5.99
   8  -4   6   69.40    6.67
  -8   4  -6   74.81    6.42
  -8   4  -6   68.77    4.38
  -8   4  -6   80.46    8.08
   8   6  10    2.41    4.54
   8   6  10    2.13    3.49
   8   6  10    1.45    2.73
  -8  -6 -10    4.68    3.91
   3   9  -7   16.42    3.31
  -3  -9   7   18.38    5.86
   3   9  -7   12.85    2.90
   8   8   7  161.87   10.96
   8   8   7  160.83    8.90
  -8  -8  -7  156.49    8.35
   8   8   7  165.65    8.19
   8   8   7  166.95    9.22
   8   8   7  154.28    8.49
   0  -3  14   12.65    5.28
   0   3 -14   14.45    3.38
   0   3 -14    7.44    3.47
   0  -3  14    6.35    3.13
   0   3 -14   11.52    3.89
  -8  -4 -11   33.42    4.17
  -8  -4 -11   36.33    4.76
   8   4  11   27.33    3.81
   8   4  11   26.69    6.87
  -8  -4 -11   38.58    4.79
  -5 -11  -7   28.14    4.73
  -5 -11  -7   30.30    4.84
   4   7  14   31.76    4.25
  -4  -7 -14   24.16    4.72
   4   7  14   34.07    3.62
  -2   1 -15   87.34    6.04
   2  -1  15   82.96    6.02
  -2   1 -15   91.16    5.52
  -5   9   4    2.00    5.24
  -5   9   4    4.45    4.05
  -5   9   4   -5.98    5.30
  -5   9   4   -2.17    2.51
   5  -9  -4    6.05    2.80
  -5   9   4    3.75    3.21
  -5  -6 -14    7.81    4.08
   5   6  14    8.96    2.98
   0 -12  -2   12.61    4.18
   0  12   2   18.43    4.40
   0 -12  -2   14.07    4.30
   9   6   1  151.11    7.96
   9   6   1  163.08   10.59
   9   6   1  162.37    7.84
  -9  -6  -1  160.14   10.11
   9   6   1  147.42    7.90
   9   6   1  156.10    6.88
   9   6   1  148.72    9.82
  -8   4   4   53.47    4.62
  -8   4   4   45.86    7.03
  -8   4   4   52.76    3.55
   7   3  -8   46.44    4.23
  -7  -3   8   49.34    6.38
  -7  -3   8   44.97    5.40
   7   8  -3   60.44    5.73
   7   8  -3   56.26    5.98
   7   8  -3   48.25    4.70
   1  -3 -15   -5.30    3.82
   1  -3 -15    3.09    3.35
   1  -3 -15    3.27    3.30
  -1   3  15    5.27    3.22
  -1   3  15    1.22    4.02
   4 -10   1   53.95    4.61
  -4  10  -1   70.02    4.64
  -4  10  -1   58.95    7.01
  -5   8   7   43.38    3.16
  -5   8   7   51.50    4.82
   5  -8  -7   47.15    4.15
  -1  11  -3    7.43    4.06
  -1  11  -3    0.12    4.49
  -1  11  -3    6.29    4.23
  -7   3 -10   64.86    7.26
   7  -3  10   66.34    6.55
  -7   3 -10   72.76    4.91
  -7   3 -10   63.05    3.87
   7  -3  10   66.13    6.81
   0   9  -8    2.61    3.93
  -3  10   7   39.01    3.76
   3 -10  -7   45.38    4.71
   7  -3  -8   33.32    3.46
  -7   3   8   40.05    6.36
  -7   3   8   35.75    3.58
  -7   3   8   27.28    3.23
   7  -3  -8   42.44    5.99
   8   7   9   85.43    5.79
   8   7   9   77.95    5.10
   8   7   9   85.92    5.23
   8   7   9   83.44    6.60
   8   7   9   81.52    6.42
  -8  -7  -9   83.11    5.92
   8   7   9   88.05    8.66
   9   5  -1  138.06    9.57
   9   5  -1  129.42    6.06
   9   5  -1  140.37    8.78
   9   5  -1  116.59    6.94
   9   5  -1  124.21    6.86
  -9  -5   1  142.13    9.47
   9   5  -1  136.97    6.69
   5   9  -5  101.17    5.30
  -5  -9   5  133.53    9.11
   5   9  -5   86.73    4.85
   3  12   2   14.92    4.40
   3  12   2   19.78    4.38
  -3 -12  -2   24.40    4.80
   3  12   5   55.33    5.70
  -3 -12  -5   73.66    5.56
  -3 -12  -5   46.22    4.95
  -6   3  10  114.79    8.07
  -6   3  10   97.43    5.29
   6  -3 -10  149.96    8.88
   0  12   4   49.52    5.26
   0 -12  -4   53.12    4.75
   0 -12  -4   47.34    5.10
   0 -12  -4   41.92    4.45
   0  12   4   48.92    5.16
   5  10  10  130.95    6.78
  -5 -10 -10  112.24    7.06
  -5 -10 -10  127.34    7.52
   1 -10 -10    4.48    2.23
  -1  10  10    4.20    3.31
   1 -10 -10    1.84    3.98
  -7   7   0   40.97    6.73
  -7   7   0   40.60    6.92
  -7   7   0   48.44    3.53
  -7   7   0   44.52    5.28
   0  -7 -14   39.03    4.66
   0   7  14   36.84    4.62
   0  -7 -14   32.05    4.80
   0  -7 -14   32.61    3.59
   0   7  14   32.24    3.88
  -8   2   6    4.56    2.75
  -8   2   6    4.56    5.43
   8  -2  -6    2.48    5.77
   0  -5 -15   78.31    5.84
   0  -5 -15   71.27    5.31
   0  -5 -15   91.24    5.87
  -7  -6 -12   11.88    3.32
   7   6  12   13.53    3.06
  -7  -6 -12    9.68    3.95
   7   6  12   12.78    2.57
   7   6  12    7.50    3.75
   2  12   6    1.49    4.01
  -2 -12  -6    5.38    3.40
  -2 -12  -6    7.34    4.05
  -5 -10   3   86.61    7.53
   5  10  -3   55.39    3.65
   5  10  -3   63.76    4.44
   8   7  -2   18.57    3.85
   8   7  -2   18.42    5.31
   8   7  -2   11.99    3.16
   8   7  -2   15.07    4.99
   8   7  -2   12.04    3.64
  -2  -6 -15   21.15    3.58
  -4   5  12  127.73    6.60
   4  -5 -12  124.29    6.98
  -4  10   4    7.33    3.14
   4 -10  -4   13.24    3.26
  -4  10   4   11.73    5.09
  -4  10   4    9.85    4.10
  -1  -9   8   46.89    6.30
   1   9  -8   39.81    4.62
   8   3  -6  118.42    6.11
   8   3  -6  133.50    6.60
  -8  -3   6  126.00    8.50
  -8  -3   6  122.96    9.11
   8  -2   9   89.10    7.62
  -8   2  -9   75.56    6.59
  -8   2  -9   82.87    7.97
  -8   2  -9   81.84    5.29
   8  -2   9   89.18    7.65
  -3  10  -4   24.01    5.32
  -3  10  -4   28.43    5.28
   3 -10   4   30.43    2.86
  -3  10  -4   25.59    4.17
  -7   7  -1   45.78    3.47
  -7   7  -1   45.17    6.76
  -7   7  -1   44.21    5.37
  -7   7  -1   49.44    6.92
  -8   5   2   16.48    4.09
  -7   2 -11  148.17    7.14
  -7   2 -11  172.06    8.24
   7  -2  11  181.49   10.37
   7  -2  11  166.01   10.16
  -7   2 -11  160.27   10.34
  -3   7 -10   22.81    4.91
   3  -7  10   20.17    3.15
  -3   7 -10   16.01    3.84
  -4  -5 -15    8.09    4.08
   4   5  15    2.77    2.98
   9   3  -3   44.95    3.46
   9   3  -3   43.95    4.04
   9   3  -3   43.56    3.07
  -9  -3   3   45.68    6.57
   4  -1 -13   71.17    5.07
  -4   1  13   55.16    5.27
   4  -1 -13   62.97    4.41
  -6   7  -6   25.22    6.08
   6  -7   6   18.34    3.18
  -6  -3 -14   65.22    5.60
  -6  -3 -14   57.47    5.00
  -7   7   1   76.57    4.34
  -7   7   1   80.81    7.55
  -7   7   1   64.89    7.81
  -7   7   1   63.43    5.89
  -2  11   6   53.28    4.92
  -2  11   6   62.03    4.69
   2 -11  -6   57.92    5.08
   6  10  -1   12.98    4.94
   6  10  -1   18.76    4.19
   6  10  -1    9.14    4.73
   6  10  -1   11.46    2.88
  -6 -10   1   17.81    5.79
   0  12   1   15.97    4.38
   0 -12  -1   17.22    4.31
   4   3 -12   24.01    3.97
   4   3 -12   26.50    4.23
  -4  -3  12   18.01    5.06
  -4  -3  12   27.13    5.92
   7   9  -1   97.82    6.55
   7   9  -1  116.03    7.77
   7   9  -1  111.75    7.91
  -6   6  -8    2.16    5.50
   6  -6   8    0.92    3.72
  -6   6  -8    0.42    4.78
   6  -6   8   -0.33    2.71
  -7   4  -9   22.20    6.23
   7  -4   9   27.73    5.44
  -7   4  -9   31.14    3.70
  -9   2   2   10.25    5.91
  -9   2   2    4.80    3.37
  -9   1   3  159.58   10.35
  -9   1   3  143.40    7.41
   4  10  11  158.79    7.63
  -4 -10 -11  162.24    8.99
   4  10  11  139.38    8.30
   5   3 -11   52.49    4.55
  -5  -3  11   45.88    6.69
  -5  -3  11   44.59    5.95
  -3 -11   3   18.82    5.45
   3  11  -3   22.64    4.08
  -9   3  -1  166.95    9.14
  -9   3  -2   65.16    5.79
  -9   3  -2   57.59    7.97
   9  -3   2   60.82    6.57
  -4   2 -14    2.79    3.02
  -4   2 -14    4.32    4.11
  -1 -12  -6    3.01    4.18
  -1 -12  -6    6.13    3.99
   1  12   6    1.45    3.95
  -1  10  -6   32.80    4.27
  -1  10  -6   37.37    5.11
   8   1  11    1.38    5.73
  -8  -1 -11    3.31    3.55
  -8  -1 -11   -0.81    4.22
  -8  -1 -11    3.24    2.97
  -1 -12   0   35.28    5.22
   1  12   0   41.38    4.96
  -1 -12   0   41.69    4.94
  -5   7  -8   83.27    7.35
   5  -7   8   80.85    5.08
  -5   7  -8   89.61    7.18
   0  -1  15   10.90    3.28
   0  -1  15    9.31    5.09
   0   1 -15    4.81    3.79
   0   1 -15   11.14    3.55
  -2  11  -2    4.85    4.04
  -2  11  -2    7.99    4.60
  -2  11  -2   10.45    4.75
   2 -11   2    6.63    3.83
   5  11   0   67.04    5.64
  -5 -11   0   54.50    6.41
   5  11   0   48.62    5.94
   5  11   0   59.01    5.82
   6  -1  13   36.95    5.82
   6  -1  13   35.99    6.31
  -6   1 -13   34.75    3.13
  -6   1 -13   38.15    3.78
   4  -2 -13   91.73    5.93
   4  -2 -13   86.43    5.16
   2  10  -6   61.67    5.13
  -2 -10   6   71.84    6.95
   9   5   8  103.27    7.18
  -9  -5  -8  103.60    6.11
  -9  -5  -8  103.64    6.73
   9   5   8   99.98    7.44
   9   5   8  105.30    6.09
  -9  -5  -8  107.13    6.45
   4   7  -9   42.94    4.59
   4   7  -9   38.71    4.03
  -2  10   9   27.93    3.65
   2 -10  -9   29.79    4.55
   2  -5 -14   62.38    4.94
   2  -5 -14   57.80    4.86
  -2   5  14   69.12    5.16
   2  -5 -14   73.40    5.35
   8   8   0   22.57    5.54
   8   8   0   13.67    5.63
   8   8   0   17.15    3.91
   8   8   0   17.89    4.05
   5  -8   6   38.82    3.52
  -5   8  -6   38.54    5.45
  -5   8  -6   36.32    6.12
  -6   8  -3   27.80    6.37
  -6   8  -3   33.95    5.28
   6  -8   3   32.09    3.28
  -6   8  -3   38.83    5.90
  -1   9  -8    6.08    4.10
  -1   9  -8    3.42    4.01
  -6  -2 -14   59.00    4.87
  -6  -2 -14   64.38    5.72
   6   2  14   62.39    7.08
   4   6 -10  114.28    7.04
   4   6 -10  142.55    7.24
  -4  -6  10  144.35    9.59
  -9   1  -7   67.85    7.92
  -9   1  -7   65.55    4.55
   9  -1   7   65.67    7.63
  -9   1  -7   64.85    6.01
  -1 -11   4   42.09    5.90
   1  11  -4   33.35    4.94
   3   6  15   43.74    4.05
  -3  -6 -15   37.59    5.01
   7   6  -6  108.82    6.07
   7   6  -6   97.98    6.20
  -7  -6   6  104.08    7.75
   8  -3   8   25.24    5.99
   8  -3   8   30.87    5.91
  -8   3  -8   27.14    3.62
  -8   3  -8   36.25    3.62
  -8   3  -8   41.08    6.64
  -8   3  -8   29.00    5.27
  -5  -6   9   28.10    4.95
  -5  -6   9   42.41    6.68
   5   6  -9   28.07    4.07
  -7   6   5   28.31    6.32
  -7   6   5   25.76    3.23
  -7   6   5   18.51    4.13
  -8   1 -10   46.08    5.40
  -8   1 -10   44.49    4.29
  -8   1 -10   47.13    7.00
   8  -1  10   41.17    6.59
  -4 -11  -9   16.47    4.48
   4  11   9   14.80    4.13
  -4 -11   2   63.71    6.64
   4  11  -2   49.82    4.54
   6   4  14   93.02    5.05
  -6  -4 -14   91.36    6.11
  -2 -12   0   35.21    4.92
   2  12   0   39.71    5.03
  -2 -12   0   27.74    5.23
   0  12   5   31.39    4.68
   0  12   5   33.40    4.75
   0 -12  -5   35.97    4.81
   0 -12  -5   34.79    4.46
   0 -12  -5   30.20    3.87
  -1   0  15   90.47    5.66
   1   0 -15   96.85    5.90
   1   0 -15   86.59    6.01
  -1   0  15   98.31    7.17
   5   7  -8   27.39    4.15
   5   7  -8   27.65    3.66
   4   0 -13   24.93    3.93
  -4   0  13   27.25    5.54
   4   0 -13   23.19    3.39
  -4   0  13   19.00    4.23
   0  11   9   18.58    3.84
   0 -11  -9   18.47    4.45
  -1  -6 -15    3.12    4.02
  -1  -6 -15    5.11    3.16
  -3 -12  -1   -2.88    4.65
   3  12   1    4.78    3.50
   3  12   1    2.63    4.16
  -3 -12  -1    0.74    4.17
   8  -5   4   49.53    5.85
  -8   5  -4   42.82    7.01
  -8   5  -4   46.85    5.75
  -3 -12  -6   96.86    6.74
  -3 -12  -6   97.09    6.60
   3  12   6   79.17    6.27
   0 -10 -11   -0.18    4.17
   0  10  11    4.52    3.28
   0 -10 -11    0.52    2.14
  -9   0  -8  147.11   10.39
   9   0   8  165.63   10.68
  -9   0  -8  151.41    7.62
   1 -11  -8   16.55    4.24
  -1  11   8   21.39    3.82
  -6   5   9    3.88    2.96
  -6   5   9    2.65    3.05
   6  -5  -9   -0.96    4.75
   6  -5  -9    2.31    3.04
  -6   5   9    3.97    5.10
  -7  -3 -13   39.59    4.43
  -6   6   8   16.15    5.66
   6  -6  -8    9.93    3.22
  -6   6   8   15.34    3.23
  -6   6   8   11.08    3.51
   6  -6  -8    9.59    5.06
   7  -7   2   26.72    3.12
  -7   7  -2   33.26    5.12
  -7   7  -2   46.01    6.71
  -7   7  -2   40.91    6.69
  -9   3   0   56.37    5.36
  -5   9  -3   52.91    6.98
   5  -9   3   65.01    4.30
   5  -9   3   62.35    4.44
   9  -3   3  117.25    8.55
  -9   3  -3  135.94    8.40
  -9   3  -3  139.29   10.25
  -5   1  12   16.68    4.77
   5  -1 -12   22.91    3.95
   5  -6 -10   10.76    3.59
   5  -6 -10    4.97    4.37
  -6   8   4    8.02    3.04
  -6   8   4   -4.43    3.99
  -6   8   4    7.36    5.75
   6  -8  -4    6.16    2.42
  -6   8   4    8.28    5.81
   2  -8 -12   71.06    4.96
  -2   8  12   81.95    5.24
   2  -8 -12   86.25    6.01
   2  -8 -12   91.69    5.65
   9   6   7    3.21    2.88
   9   6   7   -1.94    5.08
   9   6   7    1.77    3.19
   9   6   7    6.26    4.12
   9   6   7    3.95    6.42
   1  -4 -15   40.29    4.63
   1  -4 -15   37.08    4.22
  -1   4  15   38.71    4.29
   1  -4 -15   32.16    4.11
   8   5  11   68.42    8.25
  -8  -5 -11   86.84    6.23
   8   5  11   74.51    5.23
  -8  -5 -11   75.37    5.65
   8   5  11   82.58    5.58
   0  11  -4    4.58    4.35
   0  11  -4    6.98    3.83
   0  11  -4   10.55    4.43
  -9  -3  -9  114.97    6.11
  -9  -3  -9  117.89    9.14
  -9  -3  -9  111.49    7.35
  -9  -3  -9  117.55    6.85
   9   3   9  114.48    9.41
  -7   7   2   60.65    7.67
  -7   7   2   69.15    4.18
  -7   7   2   71.12    7.53
  -7   7   2   58.23    5.71
  -7  -5   7   58.25    5.40
   7   5  -7   56.69    4.58
  -7  -5   7   58.41    6.64
   3  -1 -14   32.21    3.84
   3  -1 -14   34.77    4.44
   3  -1 -14   35.54    4.32
  -3   1  14   28.24    5.48
   7  10   4   75.82    5.47
   7  10   4   88.54    7.96
   7  10   4   81.79    6.15
   7  10   4   86.38    7.47
   3  -2 -14   96.54    6.64
   3  -2 -14  106.49    6.11
   7   0  -9   64.03    6.76
  -7   0   9   40.25    5.92
   7   0  -9   57.69    4.60
  -3   1 -15   33.96    4.63
  -3   1 -15   37.46    3.86
   3  -1  15   41.45    4.84
  -4  10  -2   58.46    6.84
   4 -10   2   75.00    4.94
   4 -10   2   60.86    3.99
  -6  -8 -12   62.43    5.18
   6   8  12   65.75    5.45
   6   8  12   64.99    4.26
   6   8  12   59.80    4.27
  -6  -8 -12   68.92    5.69
  -1   6 -12    0.61    3.75
  -1   6 -12    0.25    3.38
  -1   6 -12    3.44    3.77
   5  -1  14   28.91    5.18
  -5   1 -14   20.37    4.70
  -5   1 -14   23.37    3.16
   9   6   0   70.94    4.23
   9   6   0   71.68    6.99
   9   6   0   70.61    5.23
  -9  -6   0   74.35    7.30
   9   6   0   78.00    7.90
   9   6   0   82.45    5.13
   9   6   0   65.51    5.34
   0  -6  12   65.20    6.92
   0   6 -12   63.75    5.15
   0   6 -12   63.07    4.92
   0   6 -12   54.83    4.91
  -9  -2  -9    4.79    3.45
  -9  -2  -9    4.58    2.84
   9   2   9    6.44    6.13
  -9  -2  -9    2.87    4.09
  -9  -2  -9    2.46    5.90
  -2  -9 -13   49.79    5.52
   2   9  13   48.60    4.71
  -5   0  12   59.64    5.75
   5   0 -12   73.83    5.19
   5   0 -12   67.10    4.46
   4   0  15   43.34    5.70
  -4   0 -15   46.65    5.11
  -4   0 -15   50.00    4.08
  -7  -2 -13    0.39    3.43
   7   2  13    2.54    5.63
   7   2  13   -0.70    5.49
  -3  11   2   25.03    3.83
  -3  11   2   29.28    4.47
   3 -11  -2   29.85    4.36
   5  -7  -9   10.99    3.54
  -7  -4 -13  190.89    9.32
  -7  -4 -13  186.04    9.91
   7  10   3  129.73    8.77
   7  10   3  105.79    6.42
   7  10   3  122.77    8.96
   7  10   3  120.61    7.33
   2   2 -14   74.06    5.80
  -2  -2  14   93.06    7.59
   2   2 -14   77.21    5.49
   7  10   5   14.76    5.91
   7  10   5   10.28    4.17
   7  10   5    8.47    3.72
   7  10   5   14.22    5.36
   0   7 -11   31.83    4.47
   0  -7  11   39.83    6.22
   0   7 -11   33.29    4.28
   0   7 -11   40.71    4.72
   7   7  -5   31.71    4.06
   5   8  13   72.32    4.69
  -5  -8 -13   72.87    6.08
   7  -1  -9   95.77    6.02
  -7   1   9   86.77    7.49
   7  -1  -9  119.08    8.03
   0 -12   0  104.53    6.60
   0  12   0   87.54    6.60
  -3  11   1   52.50    4.63
  -3  11   1   56.10    5.07
   3 -11  -1   49.33    4.77
  -5   2  12    6.42    4.63
   5  -2 -12    1.56    3.68
  -2 -11 -10   76.62    6.18
   2  11  10   64.73    5.42
  -5   9   5    2.28    3.24
  -5   9   5    8.97    5.39
   5  -9  -5    3.70    2.98
  -5   9   5    0.11    3.79
   3  -3  14   11.04    4.14
  -3   3 -14   14.26    3.32
   8   8   8   58.83    4.42
   8   8   8   56.54    7.85
   8   8   8   81.89    6.18
  -8  -8  -8   64.26    5.45
   8   8   8   65.57    6.12
   8   8   8   72.54    5.09
   8   8   8   76.83    5.66
   3  -7 -12  128.12    6.63
   3  -7 -12  114.44    7.16
  -3   7  12  133.34    7.28
  -9   2  -6  114.42    9.39
  -9   2  -6  114.30    7.73
   9  -2   6  111.80    8.78
   3  -8 -11   31.13    4.48
  -3   8  11   36.09    3.45
  -7  -9  -9   72.25    5.95
  -7  -9  -9   75.98    5.53
   7   9   9   64.34    7.80
   7   9   9   68.03    5.66
   7   9   9   66.43    4.13
   5  -4  12   41.75    5.33
  -5   4 -12   35.73    5.48
  -5   4 -12   47.86    3.69
  -6 -10  -9   10.41    4.39
   6  10   9   12.72    4.23
  -6 -10  -9    7.15    4.16
  -5 -11  -8    6.74    4.44
  -5 -11  -8   11.49    4.41
   2   4 -13   -1.21    3.58
  -2  -4  13   -5.43    5.50
   2   4 -13    6.04    2.46
   2   4 -13    0.96    3.46
  -5   5 -11   33.92    5.58
  -5   5 -11   28.89    5.28
  -5   5 -11   32.93    3.39
   5  -5  11   34.03    4.60
   1   3 -14    4.49    3.73
   1   3 -14    8.92    3.00
  -1  -3  14    3.62    5.33
   1   3 -14    0.52    3.54
  -2  -8 -14    9.71    2.89
   2   8  14   14.94    3.60
   2  11  -4   39.41    4.95
  -2 -11   4   45.50    6.02
   4   8  -8    0.36    3.14
   2  -7 -13   24.35    3.87
   2  -7 -13   21.64    3.48
   2  -7 -13   28.21    4.44
  -2   7  13   26.39    4.08
   9   1  -4   22.39    3.06
  -9  -1   4   24.25    6.32
   4  -3 -13   30.84    4.38
  -3  11   3   16.05    4.83
  -3  11   3   16.15    4.05
  -3  11   3   26.51    4.78
  -3  11   3   16.41    3.52
  -7  -1   9   15.81    5.10
   7   1  -9   20.09    3.72
  -1   7 -11    1.52    3.82
  -1   7 -11   -3.11    3.52
  -1   7 -11    3.57    3.94
   3   9  13   46.38    4.76
   2  12   7   36.71    4.83
  -2 -12  -7   32.71    4.84
   5   9  12   53.94    4.23
  -5  -9 -12   51.39    5.48
   9   4   9  108.06    9.45
  -9  -4  -9  118.37    6.84
  -9  -4  -9  111.03    6.20
  -9  -4  -9  100.55    6.98
   5   3  15   34.45    6.36
  -5  -3 -15   18.21    4.14
  -5  -3 -15   34.87    4.71
  -8  -5   5    7.03    5.33
   8   5  -5    7.44    3.11
   8   5  -5    4.75    3.18
   8   5  -5    4.65    3.35
  -8  -5   5    4.78    4.64
   4  12   4   67.17    5.95
  -4 -12  -4   56.23    5.56
  -4 -12  -4   65.86    5.70
   4  12   4   55.38    6.10
   4  12   4   55.44    6.29
  -4  10   5    1.26    2.85
  -4  10   5   10.33    4.22
  -4  10   5    6.32    5.04
   4 -10  -5    3.15    3.17
  -5  -5  10   62.10    7.32
   5   5 -10   56.77    4.87
  -7   6  -6   16.99    5.11
  -7   6  -6   15.28    6.11
   7  -6   6   24.33    4.63
   3  -9   7   46.45    3.57
  -3   9  -7   40.71    5.45
  -3   9  -7   50.22    4.79
  -3   9  -7   42.45    5.58
  -3  -3  13  113.68    7.84
   3   3 -13  112.46    6.95
  -3  -3  13  149.82    9.07
   9   7   4  158.19    8.12
   9   7   4  157.26    8.12
   9   7   4  158.22    8.37
   9   7   4  160.11    9.50
   9   7   4  172.38   11.09
  -4  -5  11  152.90    9.87
   4   5 -11  126.66    7.71
   4   5 -11  156.84    7.64
   8   0  -7   88.93    5.46
  -8   0   7   82.03    7.49
   7  -1  12  147.21    9.91
   7  -1  12  151.52    9.63
  -7   1 -12  129.21    6.57
  -7   1 -12  137.07    7.46
   6   1  14   33.60    6.09
  -6  -1 -14   25.72    3.81
  -6  -1 -14   24.95    4.78
   2   9  -8   42.08    3.89
   2   9  -8   47.99    4.57
  -2  -9   8   60.60    6.94
  -8  -6   4    7.12    4.52
  -8  -6   4    4.40    5.36
   8   6  -4    2.03    3.40
   8   6  -4    5.94    3.32
   8   6  -4    6.79    3.15
   4  12   3   29.45    5.30
  -4 -12  -3   27.81    4.98
  -4 -12  -3   30.27    5.02
   4  12   3   29.48    5.44
  -1   5 -13    6.55    3.80
  -1   5 -13    8.36    3.84
   1  -5  13    5.64    3.27
  -1   5 -13    2.24    3.35
  -8   5   3    8.75    3.76
  -8   5   3   12.07    6.21
  -3  -7  10   -0.13    5.82
   3   7 -10    2.95    3.09
   3   0 -14    8.08    3.25
  -3   0  14    2.56    5.21
  -3   0  14    5.41    3.58
   6   7  13   45.76    4.05
   6   7  13   53.81    5.11
   6   7  13   58.97    3.96
  -6  -7 -13   61.01    5.53
  -9   3   1   15.34    6.26
  -9   3   1   15.86    4.14
   2  -9 -11   28.27    3.33
   2  -9 -11   47.72    4.87
  -2   9  11   30.43    3.87
   9   7   3  153.63    8.08
   9   7   3  144.20    8.01
   9   7   3  164.99    8.11
  -9   3  -4  149.17   10.59
  -9   3  -4  142.52    8.66
   9  -3   4  137.03    9.35
   5   8  -7   53.58    4.33
  -5  -8   7   64.61    7.38
  -9   0   4   61.07    7.42
   8   1  -7   51.38    4.29
  -8  -1   7   53.50    6.67
   3  -3 -14   25.92    3.57
   3  -3 -14   23.22    4.03
   3  -3 -14   27.29    4.28
  -3 -11 -10    3.34    4.42
   3  11  10    4.12    3.78
  -6  -3  10  111.31    6.81
  -6  -3  10  113.02    8.32
   6   3 -10  138.65    7.27
   3   8  14   18.35    3.95
  -3  -8 -14   15.11    4.66
   6   9  11    7.08    3.07
  -6  -9 -11   -0.64    4.24
   6   9  11    3.24    2.37
   6   9  11    8.15    4.03
  -6  -9 -11    6.33    3.99
   1  -8 -13   15.93    4.47
  -1   8  13   14.33    3.42
   1  -8 -13   19.15    4.08
   1  -8 -13   13.07    3.19
  -5  -2 -15   54.98    5.33
  -5  -2 -15   53.64    4.94
   5   2  15   51.11    6.78
  -4   9   8   81.47    4.74
   4  -9  -8   82.66    5.53
   6   5  14   39.23    3.42
   6   5  14   32.39    3.96
  -6  -5 -14   39.91    4.86
   6  11   4   11.47    5.20
   6  11   4    4.92    4.21
   6  11   4    7.70    3.47
   6  11   4    2.81    5.56
  -7   5  -8    4.29    5.76
   7  -5   8   -1.38    4.46
  -7   5  -8    4.31    2.90
  -3  -6  11   -4.88    6.03
   3   6 -11    0.97    3.36
  -3  11   0   69.61    6.78
   3 -11   0   74.60    5.50
  -3  11   0   88.61    5.68
   7  10   2   30.32    3.73
   7  10   2   36.64    4.85
   7  10   2   38.86    6.32
   7  10   2   41.77    6.45
  -1  -9 -13   18.75    2.95
   1   9  13   22.29    3.96
  -1  -9 -13   25.90    4.78
  -1  -9 -13   29.36    4.65
  -7 -10  -6   22.60    4.56
   7  10   6   18.29    4.43
   7  10   6   23.40    4.21
   4  12   5   69.96    5.97
   4  12   5   55.85    6.11
  -4 -12  -5   72.46    6.05
  -6   4 -11   36.53    5.56
  -6   4 -11   35.86    6.24
  -6   4 -11   38.62    3.18
  -6   4 -11   33.62    4.20
   6  -4  11   42.65    5.44
   9   2  -4   76.32    4.79
  -9  -2   4   77.75    7.73
   9   2  -4   80.98    4.62
  -7   7  -3   16.20    6.07
  -7   7  -3   20.76    4.89
  -7   7  -3   22.06    6.24
   0  -5  13   82.90    5.25
   0   5 -13   95.37    5.74
   0   5 -13   79.08    5.90
   0  -5  13   98.85    7.67
   2   3  16   20.44    4.44
  -2  -3 -16   19.82    4.20
   2   3  16   22.01    4.12
   2   3  16   19.12    5.32
  -2  -3 -16   14.59    3.71
  -2  -3 -16   16.99    3.74
   1 -12  -3    4.21    4.11
  -1  12   3    7.20    4.10
  -1  12   3    2.03    3.95
   0 -12  -6   28.22    4.47
   0  12   6   20.05    4.35
   9   7   5   27.36    5.52
   9   7   5   25.29    3.87
   9   7   5   22.46    3.81
   9   7   5   25.02    6.94
   9   7   5   28.98    4.39
  -1  12   2   -2.13    4.17
  -1  12   2    1.90    3.92
   1 -12  -2    3.41    4.01
   5   4  15   23.17    3.35
  -5  -4 -15   20.56    4.29
   4   1 -13    7.28    3.87
  -4  -1  13   15.03    5.12
   4   1 -13    6.72    3.56
   4   1 -13    3.90    2.97
  -4  -1  13    6.82    5.66
  -2  -2 -16   11.60    3.66
   2   2  16    6.22    4.14
  -2  -2 -16    7.96    3.72
   2   2  16   12.47    4.85
  -2  -2 -16   10.96    3.87
   2   2  16    8.62    4.22
  -6  -9   4   83.40    7.79
  -1 -12  -7    6.29    4.20
   1  12   7   10.61    4.11
   5  -5 -11   66.30    5.08
   9   5  -2    4.82    2.71
   9   5  -2    6.99    5.86
   9   5  -2    8.58    4.80
   9   5  -2    5.89    3.50
   9   5  -2    6.60    3.58
   9   5  -2    9.32    3.00
  -9  -5   2    4.98    5.54
  -1 -12   1   42.92    5.49
   1  12  -1   48.23    5.23
  -9  -1  -9    1.09    3.30
  -9  -1  -9   -1.49    4.27
   9   1   9    6.26    5.85
  -9  -1  -9   -2.68    5.96
   1  11  10  145.22    8.09
  -1 -11 -10  168.41    9.10
   9   4  -3   73.97    5.20
   9   4  -3   80.98    4.65
   9   4  -3   72.73    5.29
   9   4  -3   82.63    4.64
  -9  -4   3   79.99    7.52
   6  11   3    1.32    5.18
   6  11   3    2.75    4.21
   6  11   3    4.21    5.30
   6  11   3    1.84    3.04
   6  11   5    8.92    4.29
  -6 -11  -5   13.25    4.47
   6  11   5    7.74    5.78
   6  11   5    8.66    3.70
   6  11   5    8.51    4.87
   1  -9 -12  133.50    7.18
   1  -9 -12   93.43    5.60
  -1   9  12  127.88    6.99
  -6  -6   8   -1.00    6.15
   6   6  -8    0.38    3.47
  -4   5 -12   50.88    5.92
   4  -5  12   58.88    5.27
  -4   5 -12   58.25    4.30
  -3 -12   0   -1.95    4.87
   3  12   0   -0.88    4.26
   3  12   0    3.73    4.33
  -8   4  -7   36.33    5.43
  -8   4  -7   30.22    6.44
  -8   4  -7   28.06    3.31
   8  -4   7   34.62    5.73
  -7   7   3   63.06    4.00
  -7   7   3   65.09    7.35
  -7   7   3   41.36    5.42
  -7   7   3   46.70    7.56
   5   1 -12   41.32    3.72
   5   1 -12   41.65    4.37
  -5  -1  12   34.97    4.59
  -5  -1  12   35.82    6.02
  -7   5   7   58.82    4.97
  -7   5   7   65.38    7.41
   7  -5  -7   66.60    7.03
  -7   5   7   70.51    4.44
   7  -5  -7   68.72    4.36
  -3 -12  -7   34.23    5.18
  -3 -12  -7   28.53    4.86
   3  12   7   30.46    4.74
   8   0  11   73.97    7.78
  -8   0 -11   85.93    7.96
  -8   0 -11   80.70    5.58
  -8   0 -11   77.52    4.71
  -4   8  -8   13.28    3.56
   4  -8   8    9.64    2.68
  -4   8  -8    7.63    4.77
  -4   8  -8   11.08    5.01
   1   7 -11   40.44    4.45
   1   7 -11   52.79    4.80
  -1  -7  11   48.59    6.70
   1   7 -11   37.15    4.25
   1   7 -11   51.92    5.15
  -6   4  10   19.40    3.08
   6  -4 -10   18.44    5.21
   6  -4 -10   22.81    3.59
  -6   4  10   22.44    5.57
   1   8  14   38.78    4.26
  -1  -8 -14   39.98    4.98
  -1  -8 -14   29.12    3.47
  -1  -8 -14   42.78    5.10
  -8   3   6   49.80    6.94
  -8   3   6   44.85    4.14
   8  -3  -6   51.22    3.58
  -8   3   6   57.65    3.84
  -8   4   5   69.84    4.17
  -8   4   5   63.69    4.99
  -8   4   5   63.69    7.55
  -2 -10 -12   -0.67    4.30
   2  10  12   -4.33    3.59
   2  10  12    1.40    3.63
  -4 -12  -2   51.51    5.83
   4  12   2   52.02    6.01
   4  12   2   56.47    5.69
  -2   6 -12   24.45    4.69
  -2   6 -12   21.47    4.00
  -2   6 -12   22.10    3.86
   2  -6  12   30.28    4.07
  -7  -1 -13   16.58    3.49
   7   1  13   10.77    6.07
   7   1  13   13.04    5.61
  -3  11   4   -0.17    3.20
   3 -11  -4    1.57    3.37
  -3  11   4    3.41    3.57
  -3  11   4    8.94    4.31
  -3  11   4    1.72    4.55
  -9   2   3   36.37    6.68
  -9   2   3   27.38    3.92
  -6   7   7   28.38    3.63
   6  -7  -7   31.25    5.57
   6  -7  -7   23.34    3.42
  -6   7   7   26.83    6.22
  -6   7   7   26.26    4.17
   1   2  16   24.96    4.66
  -1  -2 -16   23.40    4.04
   1   2  16   28.03    5.05
  -1  -2 -16   27.41    4.17
   1   2  16   24.94    4.38
  -8   1   7   30.45    6.21
  -1  -6  12  101.23    8.11
   1   6 -12  102.58    6.10
   1   6 -12  101.61    6.43
   4   6  15   13.84    3.26
  -4  -6 -15    7.56    4.31
  -2  11   7   31.60    4.20
   2 -11  -7   39.19    4.67
   8   9   4    1.13    5.24
   8   9   4   -0.29    3.78
   8   9   4    0.17    5.67
   8   9   4   -1.85    3.33
   8   9   4    6.20    5.05
   1  -2  15   45.88    5.94
   1  -2  15   45.29    4.52
  -1   2 -15   48.47    4.35
  -1   2 -15   37.88    4.59
  -1   2 -15   36.22    4.73
  -6   3 -12  120.56    8.30
  -6   3 -12  134.33    6.18
  -6   3 -12  127.04    9.00
   6  -3  12  130.46    8.68
   6  -3  12  135.36    8.43
   6   7  -7   -3.56    3.55
   4  10  -5   21.14    3.69
   4  10  -5   24.89    2.89
  -4 -10   5   39.13    6.42
  -6   8  -4   23.53    5.01
  -6   8  -4   22.03    6.15
  -7  -4   8  193.02   10.07
   7   4  -8  213.46    9.80
  -7  -4   8  208.69   11.39
  -7   2   9   32.23    6.15
   7  -2  -9   51.18    6.46
  -1  -3 -16   55.37    4.93
  -1  -3 -16   64.39    5.10
   1   3  16   52.26    6.13
   1   3  16   58.70    5.04
  -1  -3 -16   61.50    5.38
   1   3  16   58.47    5.35
  -5   3 -13   42.22    5.37
  -5   3 -13   39.00    3.54
   5  -3  13   37.38    5.59
   9   7   2   88.47    5.64
   9   7   2   81.21    5.87
   9   7   2   95.05    7.70
   9   7   2   82.07    8.59
 -10  -2  -3   76.98    5.63
 -10  -2  -3   70.71    8.03
  10   2   3   74.93    5.50
  -5 -11   1   95.97    7.71
   5  11  -1   98.43    6.95
   5  11  -1  109.67    6.70
  -7  -5 -13   43.51    3.92
  -7  -5 -13   52.98    5.44
  -7  -5 -13   54.61    5.03
   7   5  13   46.09    4.32
  -1  12   4   45.59    4.89
   1 -12  -4   50.79    4.91
   1 -12  -4   47.52    5.04
  -1  12   4   51.93    5.20
   2  12  -1   50.18    5.17
  -2 -12   1   48.32    5.75
  -1  11  -4   38.10    5.20
  -1  11  -4   49.42    5.71
  -1  11  -4   57.55    5.34
  -1  12   1    7.94    4.45
  -1  12   1    5.77    4.12
  -1  12   1    3.60    4.09
   1 -12  -1    4.92    3.94
  -3   8  -9   78.07    6.73
   3  -8   9   72.07    4.60
   8   4  -6    8.49    2.90
  -8  -4   6    8.70    5.74
   8   4  -6    5.43    3.21
  -8  -4   6    8.74    4.87
   7  -4  -8   21.03    5.76
  -7   4   8   11.12    3.21
   7  -4  -8   16.07    3.12
  -7   4   8   20.14    3.30
  -7   4   8   17.17    5.88
   0   8 -10    9.76    4.29
   0   8 -10    9.07    4.17
  -5   6 -10   67.54    4.36
  -5   6 -10   58.46    6.36
  -5   6 -10   60.83    6.43
  -3  10   8   46.48    3.91
   3 -10  -8   56.83    4.96
  -8   5  -5   54.43    7.39
   8  -5   5   53.97    6.01
  -8   5  -5   47.07    5.84
   8   8  -1   67.45    7.00
   8   8  -1   62.93    5.37
   8   8  -1   65.95    5.34
   8   8  -1   79.10    6.82
   5   7  14   88.99    5.20
  -5  -7 -14   76.36    6.17
   8   7  10   50.64    4.24
  -8  -7 -10   52.65    5.22
   8   7  10   53.43    5.67
   8   7  10   55.49    4.95
   8   7  10   61.07    8.00
  -2  11  -3   21.99    4.39
  -2  11  -3   17.50    4.99
  -2  11  -3   18.71    5.01
   8   9   5    2.04    3.71
   8   9   5    0.38    3.51
   8   9   5    1.90    5.55
   8   9   5    5.46    4.89
   4  -9   6   13.61    2.68
  -4   9  -6   21.43    5.07
  -4   9  -6   17.64    5.34
 -10  -2  -2   15.19    3.64
 -10  -2  -2   16.63    6.49
  10   2   2   18.33    3.58
  -2   9  -8   50.00    5.02
  -2   9  -8   37.65    5.47
   8   9   3   13.51    3.31
   8   9   3   12.20    3.89
   8   9   3   15.02    5.53
   8   9   3   10.65    5.81
   8   9   3    8.82    4.93
   3   8  -9   33.05    3.80
   3   8  -9   30.02    3.47
  -6   5 -10    2.75    5.66
   6  -5  10    2.87    4.29
  -6   5 -10    2.24    4.65
  -6   5 -10    5.85    3.29
  -6   5 -10    6.87    2.54
   1   1 -15   51.39    4.73
   1   1 -15   51.43    5.02
  -1  -1  15   49.42    6.14
   0  -6 -15   92.37    6.08
   0   6  15   89.46    6.39
   0  -6 -15  101.03    6.40
   5  -3 -12   47.17    5.43
  -5   3  12   28.95    5.37
  -4   6 -11  107.44    7.86
  -4   6 -11  106.89    7.31
  -4   6 -11  126.21    6.27
   3  10  12   38.81    4.57
   3  10  12   35.14    4.63
  -2   5 -13   28.77    3.90
  -2   5 -13   28.81    4.62
  -2   5 -13   25.61    4.01
   2  -5  13   31.70    4.23
  -2   2 -15  117.60    7.12
  -2   2 -15  120.25    6.64
   2  -2  15  108.28    6.85
 -10  -2  -4   20.53    6.60
  10   2   4   14.34    3.86
 -10  -2  -4   18.69    4.14
   4  -7 -11   24.71    4.24
   2   4  16   80.22    7.30
  -2  -4 -16   81.64    5.94
  -2  -4 -16   64.95    5.33
  -6 -10   2   47.08    6.73
   6  10  -2   65.08    5.64
   6  10  -2   42.78    5.05
   8   2  -7   91.03    5.45
  -8  -2   7   79.95    7.34
   7   8  11   47.71    3.53
  -7  -8 -11   53.21    5.34
   7   8  11   48.43    4.92
   7   8  11   38.05    3.70
  -7  -8 -11   40.40    4.51
   4  -4  13   11.39    4.43
  -4   4 -13   10.17    4.37
  -4   4 -13    4.97    3.09
  10   3   3  120.75    6.82
 -10  -3  -3  115.33    9.49
 -10  -3  -3  124.26    6.84
  10   3   3  107.68    9.95
   7   2  -9    7.48    3.54
  -7  -2   9    6.89    4.67
   7   9  -2   34.61    5.34
   7   9  -2   27.72    4.27
   7   9  -2   38.36    5.64
   9   6   8    6.50    2.89
   9   6   8    7.33    5.14
  -9  -6  -8    9.29    3.78
   9   6   8    4.77    4.19
   9   6   8    8.16    3.44
  -9  -6  -8    7.45    3.86
   9   6   8    2.91    6.59
  -2  10  -6   93.84    7.04
  -2  10  -6  111.82    6.54
   3   3  16   -0.06    3.73
   3   3  16    0.73    3.18
  -3  -3 -16    0.17    3.80
   3   3  16    2.04    5.07
   4  12   6   85.04    6.55
  -4 -12  -6   91.45    6.65
   9   7   6  109.86    9.49
   9   7   6  103.57    7.67
   9   7   6  105.28    6.96
   9   7   6  111.63    6.47
   9   7   6  102.40    6.06
  10   1   3   28.29    6.82
  10   1   3   22.46    4.02
 -10  -1  -3   28.81    6.77
   6  11   2    9.87    5.33
   6  11   2    4.74    5.38
   6  11   2    8.28    3.08
   6  11   2    8.98    4.36
  -3   6  13   14.88    3.50
   3  -6 -13   12.18    3.93
   3  -6 -13    7.46    3.32
  -6   8   5    2.81    3.02
   6  -8  -5   -1.58    2.72
  -6   8   5   -3.05    4.12
   7   7  12    7.62    3.82
  -7  -7 -12    6.56    3.52
  -7  -7 -12    4.52    4.16
   7   7  12    3.52    2.84
  -2  -1 -16   55.89    5.26
   2   1  16   52.47    5.53
   2   1  16   58.18    5.52
  -2  -1 -16   64.04    4.85
   8   7  -3    7.46    5.12
   8   7  -3   17.43    4.78
   8   7  -3   12.54    3.80
   8   7  -3    6.57    3.22
   8   7  -3   13.69    3.60
   0  12  -1   34.11    4.98
   0 -12   1   32.46    4.59
   6  11   6  121.64    7.49
   6  11   6  144.56    9.61
   6  11   6  140.56    8.16
  -6 -11  -6  143.50    8.34
  -6 -11  -6  154.71    8.36
  -3   9  10   -4.87    2.92
   3  -9 -10   -1.02    3.83
  -4  10  -3   56.04    6.37
  -4  10  -3   62.59    7.03
   4 -10   3   67.87    4.87
  -3 -10   6   30.48    6.16
   3  10  -6   25.84    3.87
   3  10  -6   20.74    2.85
  10   1   2   13.97    3.61
 -10  -1  -2    5.53    6.34
  10   1   2   12.42    6.52
  -9   1   4  134.03    9.82
  -5   9  -4   -0.58    5.56
   5  -9   4    9.07    2.60
   1  -5 -15  116.33    6.69
   1  -5 -15  123.05    7.05
  -9  -5  -9   86.72    5.78
   9   5   9   96.59    5.81
  -9  -5  -9   95.28    6.50
   9   5   9   79.29    6.82
  -9  -5  -9   95.45    6.29
  -2   7 -11   45.72    4.39
  -2   7 -11   38.35    4.41
  -2   7 -11   42.09    5.39
 -10  -3  -4  111.09    6.67
 -10  -3  -4  107.03    9.18
  10   3   4  105.48    6.59
  -6   1  11   14.83    5.23
   6  -1 -11   25.00    5.55
   6  -1 -11   28.37    4.11
  -3  -2 -16   33.56    4.37
  -3  -2 -16   26.02    3.91
   3   2  16   32.22    5.83
  -1   8 -10    4.98    4.19
  -1   8 -10    5.71    3.95
  -5  -1 -15   26.61    4.58
   5   1  15   26.45    5.86
  -5  -1 -15   20.81    3.39
  -5  -1 -15   29.13    4.01
   5  -8  -8   72.49    5.10
   8   6  11    3.57    4.53
   8   6  11    7.75    3.72
  -8  -6 -11    7.20    3.88
   8   6  11   10.36    3.02
  -7  -8   4   23.29    6.36
   7   8  -4   29.21    4.04
   6   0 -11   -2.04    3.54
  -6   0  11    5.60    4.54
   6   0 -11    0.86    5.08
   1   1  16   12.89    4.77
  -1  -1 -16   15.90    3.78
  -1  -1 -16   11.67    3.91
   1   1  16   16.56    4.07
  -3  10  -5   27.22    5.47
  -3  10  -5   31.81    4.46
  -3  10  -5   27.70    5.17
  -6  -5   9   34.16    5.65
   6   5  -9   38.84    4.23
  -6  -5   9   36.91    6.90
   2  -2 -15    1.20    3.64
   2  -2 -15    2.77    3.28
  -2   2  15   -3.79    4.75
  -9  -6   1   68.85    7.04
   9   6  -1   62.39    5.21
   9   6  -1   73.78    7.67
   9   6  -1   67.97    4.25
   9   6  -1   67.65    6.67
   9   6  -1   69.13    5.25
   9   6  -1   69.65    4.92
  -3  11  -1  144.80    7.43
  -3  11  -1  128.51    8.70
  -3  11  -1  119.78    8.81
   3 -11   1  143.71    7.62
  -1   7  14   25.66    4.35
   1  -7 -14   21.20    4.20
   1  -7 -14   17.62    3.40
   1  -7 -14   24.73    4.64
 -10  -3  -2   95.15    8.57
 -10  -3  -2   87.68    5.50
  10   3   2   82.17    8.64
  10   3   2   83.04    5.43
   4   9  13    7.60    3.30
  -4  -9 -13    8.03    4.60
   4   9  13    0.68    3.74
  -1 -10 -12    8.26    4.57
  -1 -10 -12    4.24    2.28
   1  10  12    1.43    3.62
   7  10   1   60.53    6.87
   7  10   1   60.93    7.06
   7  10   1   56.94    5.49
  -7 -10  -7  124.32    7.55
   7  10   7  119.65    7.33
  -7 -10  -7  121.24    7.32
   7  10   7  133.67    9.26
   3   5 -12   62.26    5.16
  -3  -5  12   67.47    7.19
  -9   3   2   15.89    6.36
  -9   3   2   10.41    3.87
  -9   1  -8  170.42   11.12
  -9   1  -8  157.49    7.93
  -9   1  -8  164.07    9.31
   9  -1   8  191.40   11.49
   9   3  -4   34.56    3.83
  -9  -3   4   36.27    6.42
   9   3  -4   39.58    3.56
   0   2 -15    0.93    3.79
   0  -2  15    0.69    3.17
   0   2 -15    2.12    3.26
   0  -2  15    6.48    5.16
   0   2 -15    5.24    3.59
  -5 -10 -11   92.15    6.43
  -5 -10 -11   99.64    6.92
   5  10  11  110.17    6.02
   5  10  11   96.61    6.88
   9  -3   5   57.65    6.87
  -9   3  -5   81.33    8.63
  -9   3  -5   80.15    6.68
   1   8 -10   21.09    4.69
   1   8 -10   17.00    3.50
   1   8 -10   15.96    3.90
  10   1   4    8.10    3.70
 -10  -1  -4   17.52    6.62
  10   1   4    2.83    6.23
  -2   1  15    8.73    5.13
   2  -1 -15    2.55    3.78
   2  -1 -15    8.46    3.53
 -10  -2  -1   48.50    7.26
 -10  -2  -1   37.85    4.03
  10   2   1   34.74    7.40
  -1  -4 -16   61.32    5.08
   1   4  16   77.51    6.08
   2   7  15   18.81    3.71
  -2  -7 -15   11.80    3.11
   5   5  15   39.73    3.74
  -5  -5 -15   35.63    4.80
   3   1 -14   35.47    4.72
   3   1 -14   39.32    4.12
  -3  -1  14   40.30    6.16
   8   9   6   22.46    4.15
   8   9   6   28.72    5.33
   8   9   6   22.63    4.20
   8   9   6   16.09    6.17
  -8  -3 -12    8.49    4.36
   8   3  12    7.64    6.22
  -8  -3 -12    8.79    3.62
   8   9   2   13.30    5.66
   8   9   2    3.70    5.60
   8   9   2    7.88    3.86
   8   9   2    9.94    5.20
   5  10  -4   97.32    5.13
   5  10  -4   98.90    5.65
  -5 -10   4  133.96    9.20
  -4   8  10    0.09    2.44
   4  -8 -10    3.25    3.69
   4  -4 -13    3.80    3.71
   4  12   1   27.60    5.26
  -4 -12  -1   31.33    5.50
  -6   7  -7    3.01    5.67
   6  -7   7    4.88    2.73
   1  -4  14   52.35    4.75
  -1   4 -14   38.19    4.86
   1  -4  14   56.67    6.49
  -1   4 -14   41.87    4.78
  -1   4 -14   52.24    4.38
   0  10  -7    4.02    4.09
   1 -12  -5   64.86    5.35
  -1  12   5   65.30    5.56
  -1  12   5   67.26    5.41
   3   4  16   21.71    3.62
  -3  -4 -16   22.15    4.41
   3   4  16   23.64    5.75
  -7   6   6   69.83    7.83
  -7   6   6   74.09    4.51
  -7   6   6   56.30    5.36
   7  -6  -6   61.83    6.87
   3  -4 -14    6.98    3.18
   3  -4 -14    5.45    3.72
   3  -4 -14    8.11    3.59
  -1  -5  13   30.98    6.18
   1   5 -13   22.89    4.04
   1   5 -13   26.63    3.65
   1   5 -13   21.63    4.00
   1 -12   0   18.79    4.26
  -1  12   0   19.76    4.82
  -1  12   0   26.09    4.61
 -10  -1  -1   31.46    6.99
  10   1   1   36.60    3.89
   4   8  14   16.24    4.02
  -4  -8 -14   24.90    4.97
   4   8  14   22.31    3.53
  10   2   5   -2.29    3.84
  10   2   5   -0.93    6.56
 -10  -2  -5   -6.85    6.38
 -10  -2  -5    0.10    3.79
   9   7   1   67.05    7.20
   9   7   1   84.81    4.60
   9   7   1   76.08    5.71
   9   7   1   89.98    8.36
   9   7   1   91.10    5.71
   9   7   1   82.22    5.75
   4   9  -7    2.99    2.78
  -4  -9   7   11.52    5.89
   4  11  10   33.81    4.81
   4  11  -3   13.92    3.73
  -4 -11   3   17.49    5.72
  -1 -10   7    8.66    5.63
   1  10  -7    9.43    4.05
   2  12   8   52.12    5.29
  -2 -12  -8   47.33    5.40
  -3 -11   4   55.81    6.60
   3  11  -4   55.88    5.16
   2  -6 -14   15.15    3.85
   2  -6 -14   17.76    4.27
   2  -6 -14   16.98    3.67
  -2   6  14   15.16    3.90
  -5   9   6    5.47    3.36
  -5   9   6   -0.42    5.38
  -5   9   6    5.45    3.94
   5  -9  -6    2.86    3.17
   6   0  14    2.73    5.71
   6   0  14   12.44    5.43
  -6   0 -14   10.95    3.35
  -6   0 -14    7.56    4.43
  -6   0 -14    9.30    2.76
  -4  10   6   13.76    3.06
   4 -10  -6   15.63    3.63
  -4  10   6   23.74    5.55
   3 -11  -5    5.72    3.65
  -3  11   5    8.16    3.24
  -3  11   5    5.99    3.55
  -3  11   5   13.98    4.99
  -6  -8   6   14.58    6.31
  -4   6  12   48.56    4.30
   4  -6 -12   48.31    4.83
  -7   7  -4   28.98    5.34
  -7   7  -4   29.10    6.38
   2  -3 -15    3.03    3.49
   2  -3 -15   14.53    3.47
 -10  -3  -5   77.28    5.73
 -10  -3  -5   75.94    8.32
  10   3   5   84.63    5.99
   8   8   9  138.80    6.98
   8   8   9  129.37    7.44
   8   8   9  125.90    7.42
   8   8   9  126.54    7.76
   8   8   9  112.83    6.43
  -8  -8  -9  129.13    7.62
   8   8   9  111.58    9.89
  -5  -4  11    3.90    5.03
  -5  -4  11    0.28    5.91
   5   4 -11    3.19    3.73
  -9   2  -7   56.46    5.93
   9  -2   7   38.71    6.70
  -9   2  -7   60.65    7.73
  -5 -11  -9   30.31    4.94
  -5 -11  -9   28.44    4.94
   3   7  15   21.47    3.98
  -3  -7 -15   23.47    4.90
  -8  -2 -12   11.09    3.44
   8   2  12    5.46    5.99
  -8  -2 -12    9.91    4.63
  -4   1 -15   -3.53    4.06
  -4   1 -15   -1.55    3.02
  -6   2  11   68.43    6.81
   6  -2 -11   80.78    6.72
   6  -2 -11   70.89    5.31
   8   4  12   83.34    8.74
  -8  -4 -12   87.80    6.51
  -8  -4 -12   81.64    5.68
  -8   2   7   11.92    5.83
  -1  11   9    5.94    3.46
   1 -11  -9    9.30    4.21
  -8   5   4   12.73    6.42
  -8   5   4   13.61    3.83
   0 -12  -7    7.34    4.15
   0  12   7    4.12    3.89
  -8   6  -1   24.64    4.79
  -8   6  -1   19.71    6.69
  -8   6  -1   22.52    6.52
  -6   2 -13   35.48    3.63
   6  -2  13   39.61    6.30
   6  -2  13   39.67    5.87
  -6   2 -13   31.82    3.12
  -8   6   0   30.74    6.98
  -8   6   0   34.17    5.02
   9   0   9   11.56    6.04
  -9   0  -9   10.12    3.31
  -9   0  -9    2.16    6.18
   0  -2 -16   55.20    5.16
   0  -2 -16   68.17    5.28
   0   2  16   58.22    5.15
   0   2  16   63.14    5.72
  -4  -4  12   81.13    7.58
  -4  -4  12   58.23    6.28
   4   4 -12   73.92    5.39
   4   4 -12   66.33    5.48
  10   3   1   25.74    3.70
 -10  -3  -1   26.24    3.34
  10   3   1   23.76    7.12
 -10  -3  -1   22.14    6.61
  -6  -1  11   28.96    4.92
   6   1 -11   31.60    4.12
   0   4 -14   22.24    3.96
   0   4 -14   26.14    4.25
   0  -4  14   36.62    6.14
   0   4 -14   30.06    4.14
  -7   7   4   71.32    4.39
  -7   7   4   49.12    5.58
 -10  -4  -3   52.97    7.47
 -10  -4  -3   60.18    4.59
  10   4   3   56.41    3.91
  10   4   3   59.57    4.75
  10   4   3   61.61    8.47
   6   6  14    5.30    3.75
  -6  -6 -14    9.87    4.28
   6   6  14    4.20    2.90
   6   6  14    5.69    2.81
  -3  -1 -16   68.65    5.09
  -3  -1 -16   80.01    5.80
  -5   8  -7   -5.95    4.89
   5  -8   7    1.62    2.52
  -5   8  -7    3.94    5.16
  -1  10  11   16.54    3.72
   1 -10 -11   21.18    4.57
   1 -10 -11   10.02    2.49
  -8   2 -10   72.73    7.74
  -8   2 -10   71.14    5.20
  -8   2 -10   68.80    6.46
   8  -2  10   70.73    7.21
   5   9  -6    3.05    2.74
  -5  -9   6    6.33    6.05
  10   4   4   74.81    9.02
 -10  -4  -4   82.83    5.63
 -10  -4  -4   83.15    8.49
  10   4   4   81.72    5.62
  10   4   4   81.33    4.75
   0  -9 -13    1.80    4.45
   0  -9 -13    9.19    4.03
   0   9  13    5.28    3.37
   0  -9 -13    2.56    2.55
 -10   0  -2   -2.09    6.31
  10   0   2    6.16    5.95
  10   0   2    4.23    3.35
 -10   0  -2   -0.76    3.52
   0  -3 -16   57.99    5.06
   0  -3 -16   49.05    4.82
   0   3  16   51.08    5.26
   0   3  16   68.34    5.42
   6  11   1   11.56    5.60
   6  11   1   21.76    5.48
   6  11   1   16.05    3.12
  -6 -11  -1   12.56    5.44
   6  11   1   15.06    4.48
   0  11  10   25.97    4.09
   0 -11 -10   33.18    4.96
 -10   0  -3    4.74    6.40
  10   0   3    6.05    3.48
 -10   0  -3    9.60    3.95
  10   0   3   10.21    6.03
   1  11  -5    7.38    4.44
  -1 -11   5   12.35    5.55
   5   2 -12   10.54    3.78
   5   2 -12    9.81    3.00
  -5  -2  12   11.14    5.41
  -5  -2  12    1.19    5.73
   6  11   7   54.29    6.96
   6  11   7   53.32    5.57
  -6 -11  -7   57.55    5.61
  -6 -11  -7   57.53    5.57
  -1  -7 -15   -1.36    2.98
  -1  -7 -15    3.27    4.44
  -3 -12   1   31.24    5.63
   8  -3   9    1.97    5.20
  -8   3  -9    4.41    5.93
  -8   3  -9    9.77    3.16
  -8   3  -9    7.80    4.77
  -8   3  -9    3.89    3.12
   9   3  10   19.21    6.74
  -9  -3 -10   18.33    4.08
  -9  -3 -10   14.32    4.53
  -9  -3 -10   17.16    3.56
   9   7   7   28.85    3.97
   9   7   7   28.80    7.27
   9   7   7   37.14    5.78
   9   7   7   35.46    4.15
   9   7   7   32.58    4.89
   9   7   7   30.17    3.76
  -2   4 -14   -6.63    3.65
   2  -4  14   -1.48    3.72
  -7  -9 -10   67.59    5.58
   7   9  10   72.04    6.00
  -7  -9 -10   81.90    6.18
   7   9  10   82.15    4.80
  -4  -2  13   11.14    5.17
   4   2 -13    5.21    3.94
  -4  -2  13    4.26    5.84
   4   2 -13    8.87    3.12
   4   2 -13    5.22    3.86
 -10  -1  -5    4.18    4.05
  10   1   5   -4.51    6.28
  10   1   5    1.84    3.73
   4  12   7   47.90    5.45
  -4 -12  -7   43.13    5.47
  -3 -12  -8   72.08    6.11
  -3 -12  -8   69.04    6.14
   3  12   8   70.15    5.91
   6  10  10   26.54    3.63
  -6 -10 -10   30.53    4.75
  -6 -10 -10   24.96    4.93
  -4   7 -10   50.84    6.03
   4  -7  10   48.72    4.09
  -4   7 -10   47.54    5.55
   2 -10 -10    5.71    4.18
  -2  10  10   11.13    3.21
   2 -10 -10    8.45    2.44
  -1 -12  -8   15.75    4.51
   1  12   8    8.20    4.13
   1  12  -2   27.50    4.87
  -1 -12   2   20.31    5.29
  -8   6  -2   50.55    7.25
  -8   6  -2   39.34    7.12
  -8   6  -2   35.51    5.38
   7   0  13   64.62    7.52
  -7   0 -13   61.48    4.59
   7   0  13   72.66    7.32
   7  -3  11   39.99    5.91
  -7   3 -11   36.07    6.68
  -7   3 -11   44.04    4.40
   7  -3  11   36.38    5.70
   4  10  12   73.12    5.97
   4  10  12   87.42    6.19
  -4 -10 -12   84.50    6.59
   2   0 -15  106.50    6.42
   2   0 -15  105.06    6.50
  -2   0  15  115.05    8.14
   2   5  16   99.86    7.99
  -2  -5 -16   76.39    5.72
  -2  -5 -16  101.71    6.58
  -3   2 -15    5.25    3.33
  -3   2 -15    3.37    4.14
   3  -2  15    4.23    3.88
   7  -3  -9   26.79    3.45
  -7   3   9   29.38    6.14
  -7   3   9   19.94    3.47
   7  -3  -9   23.97    5.91
   0  11  -5   38.26    5.37
  -6   6  -9   32.72    5.65
  -6   6  -9   21.66    6.09
   6  -6   9   35.08    4.71
   0  -8 -14    7.01    2.83
   0   8  14    5.26    3.32
   0  -8 -14    2.58    4.48
   0  -8 -14    3.45    4.01
  -8   6   1   45.05    5.20
  -8   6   1   35.23    7.28
  10   4   2   30.46    4.00
  10   4   2   35.45    3.17
  10   4   2   27.47    7.41
 -10  -4  -2   34.89    6.93
 -10  -4  -2   33.60    3.66
  -9   4  -1   94.28    6.90
  -9   4  -1   96.90    9.25
  -4   3 -14   27.34    3.55
  -9  -2 -10    7.62    4.44
  -9  -2 -10    5.22    3.55
   9   2  10    7.57    6.09
  -9  -2 -10    9.20    6.28
 -10  -2   0   60.04    4.42
  10   2   0   59.53    7.73
  10   2   0   56.06    4.36
 -10  -2   0   74.44    7.94
   0  -1 -16   57.72    5.42
   0   1  16   75.15    6.28
   0   1  16   63.20    5.38
   0  -1 -16   73.94    5.32
 -10   0  -1   10.30    6.49
 -10   0  -1   16.48    3.79
  10   0   1   16.15    6.27
  -7   4 -10   52.55    6.93
  -7   4 -10   57.47    4.69
   7  -4  10   58.00    6.38
  -5   2 -14   77.54    4.73
   5  -2  14   79.71    7.29
   7   6  13   21.94    3.42
   7   6  13   21.00    4.14
  -7  -6 -13   17.83    3.57
  -7  -6 -13   25.33    4.52
   8   3  -7   47.85    4.32
  -8  -3   7   37.38    5.87
   2   7 -11   53.65    4.29
  -2  -7  11   67.95    7.33
   2   7 -11   53.78    4.65
  -1  10  -7   90.59    6.45
  -1  10  -7   80.88    6.68
  -9   4  -2   38.26    7.46
  -9   4  -2   42.31    5.49
 -10  -1   0   22.73    6.79
 -10  -1   0   25.16    3.69
  -2   0 -16   33.34    4.41
   2   0  16   35.43    5.44
  -2   0 -16   28.95    4.09
   2   0  16   34.52    4.67
  -8  -9  -7   78.80    6.09
   8   9   7   80.39    6.67
   8   9   7   80.88    8.31
   8   9   7   86.37    6.10
   8   9   7   75.04    6.06
   2   3 -14   37.68    4.62
   2   3 -14   21.90    4.15
  -2  -3  14   30.24    6.11
   3   9  -8   76.94    5.16
  -3  -9   8   93.63    8.07
   3   9  -8   69.67    4.81
   1   0  16   -0.19    4.81
   1   0  16    3.71    3.59
  -1   0 -16    2.79    3.57
   8   9   1  174.01    9.50
   8   9   1  201.77   11.53
   8   9   1  200.35   11.11
 -10  -4  -5  117.50    6.93
  10   4   5  110.73    5.95
  10   4   5  118.33    6.99
  10   4   5  121.92   10.11
 -10  -4  -5  110.74    9.55
  10   0   4    1.89    3.64
  10   0   4    1.02    6.17
 -10   0  -4   -0.96    3.74
  -7   6  -7   -2.47    4.87
  -7   6  -7   -1.50    5.67
   7  -6   7    5.33    4.08
  -7   6  -7    2.86    2.77
   9   4  10   56.67    8.17
  -9  -4 -10   59.81    5.60
  -9  -4 -10   62.01    5.37
  -9  -4 -10   52.28    4.71
  -3  11  -2   59.71    6.60
  -3  11  -2   68.11    5.50
   3 -11   2   71.67    5.35
  -3  11  -2   60.35    6.99
  -5   7  -9    5.20    5.06
  -5   7  -9    7.72    5.18
   5  -7   9    9.29    2.87
  -2   8 -10   32.94    5.38
   5  -4 -12   71.31    5.28
  -3   6 -12   45.44    5.77
  -3   6 -12   58.63    4.62
   6  -8   5    5.79    2.65
  -6   8  -5    9.79    5.84
  -9   4   0   40.04    5.12
 -10  -2  -6    4.26    4.11
  10   2   6    4.35    6.61
  10   2   6   -3.58    4.05
  -2 -12   2   21.46    5.44
   2  12  -2   22.57    4.48
  10   3   6   59.53    5.26
 -10  -3  -6   57.57    5.31
 -10  -3  -6   61.22    7.98
   0  -9   9    7.83    5.77
   0   9  -9    1.54    4.12
   2   6 -12    5.12    3.59
  -2  -6  12    7.95    6.10
   2   6 -12    7.73    3.93
  -9  -1   5   42.43    6.81
   9   1  -5   32.88    3.57
  -8   5  -6    8.99    6.14
   8  -5   6   12.71    4.97
  -8   5  -6    9.98    5.06
  -9   2   4   31.89    3.93
  -9   2   4   44.55    7.06
   3   5  16   52.69    6.93
  -3  -5 -16   46.35    5.20
   4   3  16   40.87    6.38
  -4  -3 -16   41.29    4.81
   7  10   0   61.48    5.51
   7  10   0   68.30    7.08
   7  10   0   62.86    6.87
   1 -12  -6   95.22    6.41
  -1  12   6   96.84    6.70
  -1  12   6  111.41    6.62
  -7 -10  -8    9.62    4.23
  -7 -10  -8   13.45    4.56
   7  10   8    9.17    4.23
   7  10   8    8.91    5.63
   9   5  -3   43.33    5.57
  -9  -5   3   30.79    6.02
   9   5  -3   37.85    3.63
   9   5  -3   44.59    3.94
   9   5  -3   39.63    4.31
   7   3  -9   83.76    5.50
  -7  -3   9   82.93    7.63
  -7  -3   9   75.48    6.37
  -8  -1 -12   53.83    4.28
   8   1  12   60.69    7.66
  -8  -1 -12   50.47    5.76
  -3   5 -13   73.10    5.03
  -3   5 -13   69.75    6.37
   8  -1  11   27.12    6.15
  -8   1 -11   26.81    4.09
  -8   1 -11   26.61    6.52
  -5   0 -15    6.61    3.45
  -5   0 -15   -0.62    3.12
  -5   0 -15   -2.12    4.39
   5   0  15    7.71    5.07
   2  10  -7   56.48    5.12
  -2 -10   7   75.95    7.49
  -1  12  -1   -1.02    4.28
  -1  12  -1    0.99    4.56
   1 -12   1    0.22    4.01
  -4 -12   0    6.65    5.14
   6  -6  -9   13.19    3.52
  -6   6   9    7.19    5.65
  -6   6   9   15.51    3.59
   6  -6  -9   21.78    5.29
   0  12  -2   -2.49    4.33
  -1  -5 -16   11.78    3.55
   2  11  11   13.15    4.07
  -2 -11 -11   18.41    4.89
  -8  -5 -12   79.36    6.34
  -8  -5 -12   78.63    5.75
   8   5  12   61.93    8.18
   6   4 -10   18.18    3.82
  -6  -4  10   20.69    5.55
  -6  -4  10   11.98    6.49
  -2  11   8   62.36    4.95
   2 -11  -8   74.61    5.84
   5  11  -2   52.30    5.46
   5  11  -2   48.56    4.42
  -5 -11   2   50.52    6.60
   2  -4 -15   59.43    4.83
   2  -4 -15   51.41    4.87
   2  -4 -15   61.46    5.30
  -9   0   5   35.16    6.76
   0  -4 -16   10.52    3.58
   0  -4 -16    9.03    4.17
   0   4  16   16.38    3.96
   2  11  -5   74.53    6.03
  -2 -11   5   96.68    7.82
   5  12   4   41.60    6.06
  -5 -12  -4   39.77    5.38
   5  12   4   31.06    4.13
   5  12   4   41.13    6.02
   7  -2  12   57.81    6.76
   7  -2  12   69.26    7.07
  -7   2 -12   65.46    7.38
  -7   2 -12   62.66    4.20
   9   7   0   47.03    4.54
   9   7   0   42.25    6.28
   9   7   0   47.91    3.74
   9   7   0   57.12    7.21
   9   7   0   51.75    4.82
   9  -4   3   39.36    6.25
  -9   4  -3   43.97    5.65
  -9   4  -3   50.04    7.72
 -10  -3   0   60.73    7.53
  10   3   0   46.41    4.34
  10   3   0   48.87    7.69
   8   8  -2  101.92    6.50
   8   8  -2  102.75    8.06
   8   8  -2  111.54    7.84
  -9   3   3    3.65    6.12
  -9   3   3    2.69    3.60
   4   2  16  110.28    8.33
  -4  -2 -16  115.50    7.14
  -4  -2 -16  110.46    6.13
  -4  -2 -16   99.56    6.64
   9   6   9   36.39    3.92
   9   6   9   38.42    4.27
   9   6   9   26.42    7.41
  -9  -6  -9   40.73    4.63
   9   6   9   34.40    5.69
   9  -3   6   58.91    6.82
  -9   3  -6   59.88    8.03
  -9   3  -6   71.12    6.54
  -8   6  -3    4.67    4.55
  -8   6  -3    4.59    6.18
  -8   6  -3    3.87    6.32
   0 -10 -12   18.30    4.68
   0 -10 -12    9.66    2.43
   0  10  12   11.53    3.58
  -7  -6   7   35.60    5.91
   7   6  -7   35.38    4.20
  -4  10  -4   20.81    5.16
  -4  10  -4    6.63    5.50
   2   8 -10   58.46    5.11
   2   8 -10   48.45    4.46
  10   4   1   26.71    4.08
  10   4   1   26.30    7.12
 -10  -4  -1   30.30    6.71
  -6   9   1   15.60    4.91
  -6   9   1   18.95    6.51
  -6   9   1   22.88    5.92
  -6   3  11   35.37    6.02
   6  -3 -11   65.06    6.36
  -2  11  -4   40.46    5.05
  -2  11  -4   36.24    5.60
  -2  11  -4   36.88    5.59
  -1  -9   9   12.59    5.91
   1   9  -9   14.87    4.23
   9   4  -4   74.50    4.67
  -9  -4   4   75.88    7.43
   9   4  -4   67.59    5.04
  -6   9   0   28.53    6.16
  -6   9   0   23.57    6.62
  -6   9   0   24.84    5.24
  -5  10   1   37.82    4.14
  -5  10   1   31.63    5.57
  -5  10   1   27.69    6.38
  -3 -11 -11    1.79    4.66
   3  11  11   -0.21    3.86
  -8   6   2   40.26    4.96
   5  12   3   28.67    5.17
   5  12   3   37.39    4.09
  -5 -12  -3   34.92    5.58
   5  12   3   40.34    5.98
   5  12   3   44.10    5.97
   8  -4   8    1.17    5.08
  -8   4  -8    0.87    5.84
  -8   4  -8    1.42    4.64
  -6   8   6    7.81    4.17
  -6   8   6   10.00    3.26
  -4  -4 -16    0.97    4.11
   4   4  16    3.71    3.21
   4   4  16    3.21    5.58
   4   7  15   14.50    3.42
  -4  -7 -15    8.11    4.53
   4   7  15    8.85    3.76
   5   6  15    6.30    3.14
  -5  -6 -15    4.99    4.39
  -1  -2  15   -1.04    5.41
   1   2 -15    7.36    3.87
   1   2 -15    5.90    3.86
   5  12   5   31.80    6.11
  -5 -12  -5   37.54    5.22
   3 -11  -6    5.69    3.76
  -3  11   6    2.07    3.23
  -3  11   6   11.31    4.98
 -10   0   0   19.70    3.67
 -10   0   0   15.31    6.75
  10   0   0   23.50    6.30
   9   2  -5  140.97    6.87
  -9  -2   5  128.81    9.29
  -8   4   6   19.94    6.42
  -8   4   6   27.93    3.31
  -8   4   6   22.80    3.68
  -4   9   9   31.70    3.30
   4  -9  -9   37.27    4.55
  -8  -6   5    8.39    5.45
  -8  -6   5   10.14    4.61
   8   6  -5    8.84    3.41
   8   6  -5    9.76    3.38
   3   4 -13   39.39    4.75
  -3  -4  13   47.95    6.78
  -9  -1 -10   13.42    3.76
  -9  -1 -10    9.83    4.69
   9   1  10   17.88    6.30
  -9  -1 -10    7.58    6.33
   9   6  -2   16.45    5.25
   9   6  -2   17.47    3.11
  -9  -6   2   10.17    5.43
   9   6  -2   19.29    3.54
   9   6  -2   15.63    3.95
   6   8  13   42.46    4.97
  -6  -8 -13   47.15    5.34
   6   8  13   42.80    3.76
   6   8  13   37.10    3.70
  -5  10   2   20.44    5.10
  -5  10   2   28.71    6.30
  -5  10   2   18.43    5.80
  -5  10   2   18.52    3.55
  -5   9  -5    3.39    4.74
   5  -9   5   -0.07    2.34
  -5   9  -5    3.32    5.49
   6   2 -11  105.72    6.25
  -6   5  10    8.00    5.51
   6  -5 -10    7.02    3.45
   6  -5 -10   -0.09    4.89
  -6   5  10    4.64    3.05
  -1   9  -9   13.51    4.58
 -10  -1  -6   47.81    5.36
  10   1   6   36.69    7.35
  -7  -7   6    9.10    6.43
   7   7  -6    6.16    3.75
   5  -7 -10    2.65    3.68
  10   0   5   10.47    4.02
  10   0   5    8.92    6.33
 -10   0  -5   13.26    4.25
  -9   4   1   31.73    4.65
  -5  10   0   37.73    5.67
  -5  10   0   40.29    6.83
   5 -10   0   37.24    4.34
 -10  -4  -6   58.87    5.15
  10   4   6   55.49    4.14
 -10  -4  -6   60.32    7.74
  10   4   6   59.35    5.33
  -2  12   2   13.76    4.06
  -2  12   2    5.89    4.62
  -2  12   2    4.45    4.17
   2 -12  -2    9.20    4.22
   1   4 -14   12.27    3.90
   1   4 -14   17.65    3.98
   1   4 -14   18.49    3.38
  -1  -4  14   14.28    5.83
  -3   7 -11   46.26    4.37
  -3   7 -11   37.54    5.56
  -6   9   2   38.94    7.14
  -6   9   2   45.79    5.79
  -6   9   2   50.93    4.21
  -6   9   2   45.87    6.69
   3   2 -14   96.59    6.58
  -3  -2  14   81.19    6.99
  -3  -2  14   98.43    7.92
   3   2 -14   89.73    5.83
   6   9  12   44.38    3.91
   6   9  12   43.02    5.05
  -6  -9 -12   43.23    5.38
  -6  -9 -12   38.82    4.78
  -3   0 -16   62.50    5.72
  -3   0 -16   70.66    4.91
   8   5  -6   -4.04    3.37
   8   5  -6    2.78    3.05
  -8  -5   6    0.30    5.56
  -8  -5   6    8.94    4.90
   8   5  -6    4.20    3.36
   2 -12  -3    5.90    4.01
  -2  12   3   -0.58    3.69
  -2  12   3    0.29    3.93
   6  11   0   43.25    5.93
  -6 -11   0   34.61    6.21
   6  11   0   35.15    5.10
  -7   7  -5    6.69    6.15
  -7   7  -5    0.14    4.57
  -7   5  -9    0.65    3.13
  -7   5  -9   -2.84    5.87
   7  -5   9    4.48    4.53
  -1  11  -5   46.11    5.38
  -1  11  -5   32.71    5.43
   6  10  -3   53.79    3.91
  -6 -10   3   75.05    7.72
   6  10  -3   77.97    5.70
  -1   6  15   93.99    6.40
   1  -6 -15   77.00    5.61
   1  -6 -15   93.01    6.48
   1  -6 -15   91.69    6.15
  -6 -11  -8   22.19    4.72
  -6 -11  -8   18.70    4.74
   6  11   8   18.85    4.60
   0   0 -16   16.17    3.93
   0   0  16   17.37    5.37
   1  11  11  149.48    8.33
  -1 -11 -11  169.56    9.35
  -7  -9   3    5.76    6.20
   7   9  -3   11.26    3.88
   5  -6 -11   16.07    3.98
   3  -5 -14    8.17    3.95
   3  -5 -14   13.36    3.64
   6  -9   1   10.79    3.40
  -6   9  -1    8.54    6.13
  -6   9  -1   15.51    4.84
  -6   7   8   24.53    6.29
   6  -7  -8   18.77    3.62
  -6   7   8   19.29    3.92
  10   5   4   19.36    3.89
  10   5   4   16.67    7.53
 -10  -5  -4   20.39    6.53
  10   5   4   21.23    3.21
  -3  10   9   19.12    3.24
   3 -10  -9   26.28    4.42
   3  -9   8   51.13    3.82
  -3   9  -8   57.43    6.35
  -3   9  -8   70.39    5.41
  10   5   3    5.70    2.75
  10   5   3   -0.77    7.12
 -10  -5  -3    5.87    6.01
  -6  -9   5    8.74    6.27
   9   7   8   11.36    5.25
   9   7   8   10.04    3.29
   9   7   8    4.58    3.50
   9   7   8    9.08    6.85
  -9  -7  -8   14.04    4.02
  -8  -7 -11   22.82    3.62
   8   7  11   24.39    7.03
  -8  -7 -11   18.93    4.60
   8   7  11   14.54    4.06
   8   7  11   21.49    3.31
   9   5  10   47.21    4.46
  -9  -5 -10   52.12    4.90
  -9  -5 -10   51.31    5.45
 -10   1  -2   58.99    8.08
 -10   1  -2   64.08    5.58
  10  -1   2   63.87    7.48
  -7  -5   8   85.25    7.47
   7   5  -8   93.29    5.87
  -5  -9 -13    2.36    4.54
   5   9  13    3.05    3.14
  -4 -12  -8    7.68    4.69
   4  12   8   11.96    4.41
   4  -5 -13   72.50    5.56
  -2  12   1   38.62    4.75
   2 -12  -1   39.08    4.91
  -2  12   1   38.49    4.94
  -2  12   1   31.27    5.43
   9   8   4  111.29    6.71
   9   8   4  112.60    6.63
   9   8   4  127.38    9.56
   9   8   4  103.67    6.70
  -8   3   7   28.59    3.40
  -8   3   7   26.68    6.43
 -10  -1   1   94.65    8.88
  -9   1   5   71.87    7.96
  -5 -12  -2  102.68    7.67
   5  12   2   98.05    8.07
   5  12   2  123.19    7.67
   5  12   2   99.92    6.19
   5  12   2  128.51    7.91
 -10  -2   1  118.48    9.44
  10   2  -1  120.96    9.08
  10   2  -1   94.58    5.76
  -3   4 -14   13.04    3.57
   0  12   8    7.73    4.10
   0 -12  -8    6.70    4.40
   2   1 -15  112.85    7.40
  -2  -1  15  134.11    8.94
   2   1 -15  136.46    7.24
  -5 -12  -6    7.73    4.59
  -5 -12  -6    9.48    4.48
  10  -1   3   13.53    3.77
 -10   1  -3   11.24    4.18
  10  -1   3    9.00    5.97
  -7   5   8  100.45    5.37
  -7   5   8   79.43    5.71
   7  -5  -8   86.33    7.57
   7  -5  -8   90.23    5.27
  -7   5   8   82.64    8.26
   4 -10  -7   18.42    3.94
  -2 -12  -9   89.70    6.81
   2  12   9   91.63    6.59
   0  -7 -15   52.02    4.48
   0  -7 -15   69.50    5.70
   0  -7 -15   60.60    5.86
  -7   7   5    2.62    3.93
  -7   7   5   11.03    6.53
  -7   7   5    2.09    2.97
   5   7  -9   33.65    3.92
   5   7  -9   32.11    4.69
  -1   3 -15   19.16    4.31
  -1   3 -15   25.27    4.03
   1  -3  15   31.57    5.90
   1  -3  15   19.37    3.98
  -1   3 -15   22.41    4.19
  -7  -3 -14   65.41    5.29
  -6  -3 -15   51.88    4.93
  -6  -3 -15   55.56    5.59
  -2  -5  13   15.74    6.07
   2   5 -13   13.33    3.88
   2   5 -13   12.20    3.76
   9  -4   4   20.78    5.66
  -9   4  -4   15.97    6.82
  -9   4  -4   19.39    4.99
  -5  10   3    8.13    5.95
  -5  10   3    0.94    5.56
  -5  10   3    8.03    4.70
   8   9   8   63.51    5.50
  -8  -9  -8   59.96    5.62
   8   9   8   53.96    7.99
  -8   0   8   40.17    6.43
   8   0  -8   53.28    4.52
   8   9   0   97.04    6.57
   8   9   0  106.29    8.21
   8   9   0  110.18    8.50
   9   8   5  197.33   10.51
   9   8   5  174.87    9.47
   9   8   5  176.05    9.21
   9   8   5  184.08    9.14
   9   8   5  205.96   12.18
  -4  -1 -16   46.71    4.86
  -4  -1 -16   54.43    4.48
  -4  -1 -16   56.47    5.45
   2  -8 -13   97.42    6.55
   2  -8 -13  101.84    6.13
  -2   8  13   82.22    5.27
   9   8   3   86.39    6.17
   9   8   3   97.31    6.11
   9   8   3  108.48    8.89
  -4   9  -7   53.51    6.49
  -4   9  -7   65.78    6.68
   4  -9   7   56.44    4.00
  10  -1   1   18.37    6.03
 -10   1  -1    6.67    6.47
 -10   1  -1    5.29    3.87
   8   7  -4   46.92    4.29
   8   7  -4   42.89    4.44
  -4  -7  10   13.76    6.18
   4   7 -10   -0.37    4.13
   4   7 -10   10.47    3.37
  -5   9   7   41.61    5.01
   5  -9  -7   43.70    4.31
  10   5   5   41.70    3.88
 -10  -5  -5   47.42    7.34
  10   5   5   41.76    4.67
  10   5   5   54.24    7.89
  -2  12   4    3.16    3.94
  -2  12   4    1.27    3.61
   6  -1  14   77.13    7.09
  -6   1 -14   69.64    5.01
  -6   1 -14   73.62    4.38
  -6   1 -14   80.92    6.62
   6  -1  14   75.19    7.73
  -5  -8 -14   97.93    7.14
   5   8  14   99.88    5.76
  -8   5   5    9.51    3.65
  -8   5   5    8.25    6.34
  -5  10  -1   35.46    6.77
   5 -10   1   40.59    4.33
  -5  10  -1   35.89    5.86
   3  -8 -12   88.44    6.33
  -3   8  12   86.73    5.12
  -9   1  -9   21.04    3.58
  -9   1  -9   10.20    6.50
   9  -1   9   19.28    6.22
  -9   1  -9   17.30    4.80
  -2  -9 -14   42.47    5.64
   2   9  14   31.93    4.49
   8   8  10   52.84    7.92
  -8  -8 -10   61.57    5.00
  -8  -8 -10   61.41    5.64
   8   8  10   61.98    5.38
   8   8  10   57.04    4.27
   7   0 -10   28.48    4.05
  -7   0  10   21.12    5.37
  10   5   2   -5.65    6.93
  10   5   2    3.82    2.74
 -10  -5  -2    1.59    6.12
  10   5   2    0.64    2.91
  10   5   2    1.08    3.70
 -10  -3  -7    3.75    3.99
  10   3   7   11.62    6.62
  -3  10  -6   56.86    5.08
  -3  10  -6   45.58    5.96
  -3  10  -6   45.55    5.98
   5   6 -10   36.29    4.33
   5   6 -10   39.87    4.72
  -5  -6  10   50.24    7.26
   5  11  10   32.79    4.83
  -5 -11 -10   28.86    5.01
  -5 -11 -10   28.42    5.10
   9  -2   8   36.63    6.71
  -9   2  -8   49.82    5.82
  -9   2  -8   35.87    7.18
  -7  -4 -14   86.26    6.04
  -8  -1   8   56.37    6.79
   8   1  -8   58.24    4.65
  -6  -4 -15   85.84    6.22
  -6  -4 -15   90.27    6.66
  10   2   7    5.14    6.27
 -10  -2  -7    0.22    4.21
   3  12  -2   59.54    5.36
  -3 -12   2   57.68    6.58
   2  -9 -12   60.23    5.51
   2  -9 -12   42.37    3.87
  -2   9  12   51.31    4.44
   1  -2 -16   97.80    6.16
   1  -2 -16   78.21    5.98
  -1   2  16   87.15    6.81
  -3 -12  -9  110.70    7.31
   3  12   9   97.02    6.85
  -3 -12  -9   98.96    7.14
  -6   9   3   14.30    6.40
  -6   9   3   18.74    6.28
  -6   9   3   25.54    3.62
  -6   9   3   16.64    4.86
   7  -1 -10   82.60    5.63
  -7   1  10   63.37    6.80
  -7  -8 -12   74.98    5.54
  -7  -8 -12   81.78    6.23
   7   8  12   68.76    4.75
   7   8  12   75.52    6.00
  10   4   0    9.16    3.67
  10   4   0   19.88    6.94
 -10  -4   0    8.14    6.45
  -6  -2 -15   12.31    4.48
  -6  -2 -15   12.67    3.83
   6   2  15   15.78    6.01
  -8   6  -4    4.61    6.12
  -8   6  -4   -2.09    4.71
   4   5  16    6.79    3.34
  -4  -5 -16    7.81    4.37
  -2  -6 -16   37.42    4.25
  -2  -6 -16   49.89    5.56
   4  10  -6   -1.65    2.50
  -4 -10   6    2.84    5.95
   7   2  14   20.80    6.57
  -7  -2 -14   19.20    3.91
  -2   3 -15   41.74    4.38
  -2   3 -15   38.58    4.85
   2  -3  15   27.77    4.48
   3   9  14   17.85    4.26
  -7   6   7   22.14    4.20
   7  -6  -7   29.88    6.27
  -7   6   7   35.37    3.61
  -7   6   7   25.02    6.57
  10  -1   4   54.39    5.05
 -10   1  -4   47.83    5.38
  10  -1   4   49.02    7.25
  -3  11  -3   55.37    6.66
  -3  11  -3   51.06    6.41
  -4  -6  11  124.39    9.42
   4   6 -11  112.20    7.13
   4   6 -11  140.63    7.34
   8  -1  -8    7.36    3.52
  -8   1   8    5.23    5.56
  -5  -3  12    2.49    5.31
  -5  -3  12    6.42    6.17
   5   3 -12   10.56    3.92
   1 -12  -7   49.18    5.23
  -1  12   7   52.64    5.13
  -4   8  -9    5.46    4.94
   4  -8   9   11.50    2.86
  -4   8  -9   10.02    4.89
  -7   8   0   46.23    7.67
  -7   8   0   47.46    7.12
  -7   8   0   51.05    5.78
  -6  -7 -14   30.05    4.99
   6   7  14   18.12    4.21
   6   7  14   26.98    3.30
   6   7  14   24.65    3.34
   5  -8  -9   22.28    4.06
  -9  -3   5   48.84    6.52
   9   3  -5   41.66    4.18
   9   3  -5   50.34    3.99
  -8   6   3   16.98    4.15
  -2  10  -7   84.49    6.27
  -2  10  -7   82.96    6.94
 -10   0   1   17.17    6.70
   8   0  12   66.64    7.85
  -8   0 -12   58.77    6.10
   1  -1  16   75.57    6.83
   1  -1  16   75.83    5.62
  -1   1 -16   89.44    5.80
  -1   1 -16   85.03    5.90
   0  -5 -16   11.33    3.59
   0  -5 -16   20.04    4.54
   0   5  16   13.73    3.91
  10   3  -1  158.27    8.14
  10   3  -1  202.48   11.62
 -10  -3   1  170.62   11.20
   2 -12   0   34.51    4.71
  -2  12   0   29.76    4.70
  -2  12   0   32.18    5.62
   1  12   9   39.51    5.01
  -1 -12  -9   48.54    5.57
   1 -12   2   26.28    4.57
  -1  12  -2   19.72    5.14
  -6   9  -2    9.45    4.54
  -6   9  -2   -4.35    6.34
   6  -9   2    2.05    3.20
   5   8  -8   37.50    3.96
   5   8  -8   33.65    4.76
  -1 -12   3   10.95    5.38
   1  12  -3   18.57    4.80
   7   8  -5   -1.60    3.77
  -7  -8   5    2.79    6.15
   0  -3  15   35.58    6.30
   0   3 -15   32.08    4.22
   0   3 -15   25.80    3.89
   0   3 -15   22.65    4.29
   4  11  11   72.92    5.98
   1  -3 -16    4.56    3.53
   1  -3 -16    7.44    3.75
   1  -3 -16    0.90    4.05
  -4 -11   4    0.65    5.66
   4  11  -4   -2.97    3.57
   4   8  -9   12.90    3.25
   4   8  -9    1.57    4.10
  -9   4   2   17.72    4.20
  -9   4   2   23.42    6.91
  -5   5 -12    5.74    2.99
  -5   5 -12    6.41    4.90
   2  -1  16   25.65    5.60
  -2   1 -16   21.60    4.04
  -2   1 -16   28.44    4.53
   2  -1  16   25.28    4.31
   9   8   6  117.08    8.03
   9   8   6  103.73    6.49
   9   8   6  100.02    6.89
   9   8   6  100.06    9.58
   9   8   6  112.00    6.72
  -7   8   1   73.01    6.36
  -7   8   1   66.12    7.68
  -7   8   1   70.11    8.22
  -8  -6 -12   62.08    5.48
   8   6  12   66.47    5.48
   3  -7 -13  107.86    7.04
  -3   7  13  108.66    6.57
  -2 -10 -13   25.24    5.08
   2  10  13   12.92    4.13
  -4 -12   1   12.09    5.48
   4  12  -1    4.05    4.36
   7  -4  -9    2.57    5.46
   7  -4  -9    3.11    3.13
  -7   4   9    2.60    5.83
  -7   4   9    2.22    3.11
   9   8   2   24.07    3.93
   9   8   2   15.94    4.24
   7  -1  13  155.45    9.81
   7  -1  13  141.91   10.13
  -7   1 -13  126.14    6.53
   7   1 -10    3.88    3.60
  -7  -1  10   13.69    5.12
   7  10  -1    6.43    3.92
   7  10  -1    6.88    5.16
   8   4  -7    3.19    2.92
   8   4  -7    3.69    3.35
  -8  -4   7    1.85    4.69
   2   9  -9   25.39    4.14
   2   9  -9   25.05    3.62
  -2  -9   9   37.05    6.68
   1  -1 -16  101.72    6.25
   1  -1 -16   85.90    6.29
  -1   1  16   99.34    7.42
  -7 -10  -9    1.50    4.48
  -7 -10  -9   -2.09    4.12
   7  10   9   -1.83    4.09
   7  10   9   -0.36    5.56
  -4   1  14   31.51    4.83
   4  -1 -14   55.68    4.99
   4  -1 -14   49.76    5.22
  -3  -6 -16   54.09    5.62
  -4  -3  13   74.27    7.46
   4   3 -13   58.15    5.56
   4   3 -13   78.30    5.42
  -4  -3  13   50.76    6.28
  10   0   6   36.20    7.29
 -10   0  -6   38.10    7.52
  -4   2 -15   43.68    5.31
  -4   2 -15   49.88    4.22
 -10   1   0   11.14    6.47
 -10   1   0    5.68    3.73
  -6   7  -8    2.12    5.72
  -6   7  -8    7.49    5.08
  -7   8  -1   48.40    7.57
  -7   8  -1   52.57    7.29
  -7   8  -1   52.24    5.83
   5  10  12  113.03    7.25
  -5 -10 -12  112.55    7.52
  -4  11   2   23.26    4.12
  -4  11   2   25.90    5.21
  -4  11   2   27.32    6.24
  -4  11   1   33.81    4.43
   4 -11  -1   29.56    4.41
  -4  11   1   31.77    6.29
  -4  11   1   16.98    5.38
 -10  -4  -7   28.97    6.71
 -10  -4  -7   17.56    3.81
 -10  -4  -7   18.11    4.31
   9   7  -1    2.09    5.02
   9   7  -1    3.14    2.84
   9   7  -1    5.33    3.92
   9   7  -1    4.86    3.50
   2  -5 -15   50.49    4.75
  -2   5  15   49.36    4.83
   2  -5 -15   55.52    5.29
   2  -5 -15   41.25    4.55
   4  -2 -14   78.13    5.88
  -5 -10   5  145.02    9.88
   5  10  -5  109.80    5.70
  -5 -12  -1   31.13    5.92
   5  12   1   32.26    5.95
   5  12   1   30.44    5.05
   3  10  13   31.52    4.74
 -10  -5  -6  142.44   10.45
  10   5   6  156.92   10.99
 -10  -5  -6  148.47    8.00
  10   5   6  138.50    8.26
  10   5   6  146.11    7.41
  -6   4 -12   25.20    3.00
  -6   4 -12   26.66    6.02
   6  -4  12   25.46    5.12
  -6   4 -12   23.36    5.26
   1 -11 -10   16.26    4.64
  -1  11  10   18.50    3.78
   5  -4  13   20.28    4.88
  -5   4 -13   20.24    5.05
  -5   4 -13   28.61    3.34
   3  -9 -11    3.92    4.13
  -3   9  11   -4.83    3.02
   7   7  13   15.89    3.18
   7   7  13    8.52    4.23
  -7  -7 -13   15.29    4.49
  -7  -7 -13   20.04    3.84
  -5 -12  -7    2.87    4.50
  -5 -12  -7    0.57    4.31
   1  -9 -13   32.95    5.08
  -1   9  13   28.22    3.93
   1  -9 -13   21.37    3.23
   1  -9 -13   31.77    4.51
  -3 -11   5   14.61    6.08
   3  11  -5   12.96    4.14
   2   8  15   15.41    3.95
  -2  -8 -15   14.68    3.18
   5  -1 -13   29.25    4.46
  -5   1  13   20.62    5.10
  -5  10   4   19.36    5.88
  -5  10   4   15.54    6.29
  -5  10   4   25.56    4.87
   1   9  14   34.04    4.38
  -1  -9 -14   42.36    5.37
  -1  -9 -14   18.74    3.11
  -9   0 -10   29.56    7.22
   9   0  10   29.91    6.67
  -9   0 -10   35.35    4.21
 -10  -1  -7   46.36    7.71
  10   1   7   59.12    7.85
 -10  -1  -7   54.40    5.68
  -2  12   5   12.86    4.02
   2 -12  -5   21.10    4.18
  -2  12   5   22.31    3.94
   7   9  11   66.85    5.65
   7   9  11   59.74    5.70
  -7  -9 -11   69.70    6.07
  -7  -9 -11   60.93    5.36
  10   5   1    1.50    2.90
  10   5   1   -3.28    6.83
 -10  -5  -1   -2.44    6.42
  10   5   1    0.36    3.80
  -1  -6 -16    0.63    3.21
   6  10  11    7.56    3.36
  -6 -10 -11    4.74    4.59
  -6 -10 -11    7.75    4.37
   2  -7 -14   13.51    4.43
   2  -7 -14   14.49    3.92
   2  -7 -14    4.65    3.20
  -2   7  14    5.27    3.79
   6   7  -8    3.73    3.84
  -2   9  -9   37.22    4.90
  -2   9  -9   36.22    5.55
   0 -12   3    5.37    5.24
   0  12  -3    3.09    4.69
  -2 -13  -3    5.41    4.41
  -2 -13  -3   14.73    4.72
   2  13   3   15.25    4.84
  -2 -13  -4   13.66    4.36
   2  13   4   12.25    4.79
  -2 -13  -4   12.25    4.71
  -3 -10   7   25.94    6.45
   3  10  -7   20.15    3.96
   3  10  -7   19.67    3.05
  -8  -2   8   55.50    6.71
   8   2  -8   64.03    4.80
  -9   3   4    4.40    6.11
  -9   3   4    2.62    3.54
   2  12  -3    5.31    4.39
  -2 -12   3    5.63    5.45
  -6   5 -11    3.29    2.61
   6  -5  11    5.39    4.37
  -6   5 -11   -0.73    4.73
  -6   5 -11    5.10    5.48
  -4  11   3   12.18    3.79
  -4  11   3   10.48    4.63
  -7   2  10   50.81    6.82
  -8   5  -7    5.71    4.92
  -8   5  -7    5.61    6.33
   8  -5   7    7.06    4.76
   6  -8   6    1.88    2.60
  -6   8  -6    4.61    5.83
  -6   4  11   39.97    6.39
   6  -4 -11   43.68    4.34
  -7  -5 -14   55.86    5.38
   0   7 -12    9.63    4.03
   0   7 -12    6.67    4.03
   0   7 -12    9.64    4.43
   0  -7  12   13.78    6.02
  -9   3  -7   27.74    7.25
  -9   3  -7   33.37    5.52
   9  -3   7   36.98    6.36
  -7   8   2  135.34   10.42
  -7   8   2  136.63    8.54
  -3  -8 -15    8.51    4.77
   3   8  15    1.79    3.69
   1  -8 -14    8.81    4.05
   1  -8 -14    4.07    2.92
   1  -8 -14    8.49    4.67
  -1   8  14    1.11    3.18
  -5   1 -15   24.15    3.41
  -5   1 -15   27.06    5.12
   5 -10   2   22.90    3.80
  -5  10  -2   28.05    6.69
   3  -8  10   47.08    3.89
  -3   8 -10   48.23    6.09
   5  -5 -12   31.30    4.29
  -6  -5 -15   68.50    5.92
  -6  -6   9    5.26    6.33
   6   6  -9   -3.92    3.80
  -4  11   0   30.08    6.29
   4 -11   0   33.00    4.41
  -3  11   7   12.08    3.45
   3 -11  -7   15.59    4.16
  -1   6 -13    3.25    4.00
  -1   6 -13   -0.34    3.78
  -1   6 -13    5.88    4.02
  -5   6 -11    4.87    4.94
  -5   6 -11    6.08    4.94
  -5   6 -11    5.60    3.06
   1  13   3   28.18    5.09
  -1 -13  -3   22.07    4.89
  -1 -13  -3   27.71    4.65
   4   0 -14    4.92    3.87
   4   0 -14    8.30    3.23
  -1   7 -12   17.21    4.60
  -1   7 -12   24.12    4.35
  -1   7 -12   25.42    4.26
  -5   2  13   23.54    5.07
   5  -2 -13   25.63    4.44
   5   0 -13   41.01    4.77
  -5   0  13   28.41    5.01
  -9   4  -5    8.37    6.74
   9  -4   5    4.39    5.17
  -9   4  -5    4.27    4.77
  -7  -4   9   91.34    7.84
   7   4  -9  101.60    6.21
   0   6 -13   53.48    4.87
   0   6 -13   54.25    5.20
   0  -6  13   51.75    7.06
   1  13   4   44.43    5.53
  -1 -13  -4   40.78    5.36
  -9  -3 -11    2.09    4.31
  -9  -3 -11   -0.41    3.43
   9   3  11    5.29    6.69
   5   5 -11   84.70    5.71
   5   5 -11   67.13    5.67
  -5  -5  11   92.04    8.63
  -9   2   5   35.24    7.05
 -10   1  -5   48.41    5.50
  10  -1   5   48.33    7.29
 -10   1  -5   44.17    7.86
  -6  -1 -15    3.77    3.59
   6   1  15    6.36    5.63
  -6  -1 -15    0.93    4.38
   5  -8   8    8.76    2.75
  -5   8  -8    6.68    5.00
  -5   8  -8   11.32    5.54
  -7  -1 -14   10.52    4.84
   7   1  14    6.96    6.34
  -7  -1 -14   13.85    3.71
  -7   8  -2   25.18    6.68
  -7   8  -2   27.17    6.39
  -7   8  -2   16.01    4.91
  -6 -11   1   97.69    8.11
   6  11  -1   80.22    6.43
   0 -11 -11    4.19    4.55
   0  11  11    2.48    3.49
   1  10  13   -3.04    3.73
  -1 -10 -13   -0.69    2.30
  -1 -10 -13    1.02    4.62
  -3  -7  11   -6.60    6.25
   3   7 -11    3.51    3.35
  -6  -3  11   39.06    6.45
   6   3 -11   55.12    5.02
  -2 -13  -2  129.21    7.63
   2  13   2  124.71    8.02
  -2 -13  -2  106.46    7.53
   4  -7 -12   19.24    4.31
  -6 -11  -9   25.53    4.90
  -6 -11  -9   12.22    4.73
  -6   9   4   17.03    3.53
  -6   9   4   17.52    6.62
  -6   9   4    7.18    4.58
   0  -1  16   -2.86    5.55
   0   1 -16    3.99    3.67
   0   1 -16    0.87    4.00
   4  -8 -11    2.17    3.99
   2  13   5   -3.40    4.57
  -2 -13  -5    1.90    4.32
  -2 -13  -5    1.33    4.56
   5  11  -3   62.80    4.90
  -5 -11   3   85.77    7.93
   7  11   4   24.45    4.83
   7  11   4   24.77    3.92
   7  11   4   27.40    6.25
  -1 -13  -2   29.48    4.97
  -1 -13  -2   18.26    4.86
   1  13   2   26.55    5.06
  -6   3 -13   45.21    5.61
   6  -3  13   44.97    6.14
  -6   3 -13   48.60    3.73
 -10  -1   2   59.95    8.09
  -4  10  -5   15.65    5.13
  -4  10  -5   19.11    5.65
   9   6  10   46.95    4.70
  -9  -6 -10   48.52    4.96
   9   6  10   43.50    5.95
  -1   4  16    9.27    3.66
   1  -4 -16    8.82    4.19
   1  -4 -16    5.37    3.63
   1  -4 -16   12.19    3.84
   1  11  -6   23.91    4.81
  -1 -11   6   21.35    6.03
  -7   6  -8    2.34    2.91
  -7   6  -8    1.66    5.97
   7  -6   8    9.71    4.39
  -8  -3 -13    1.11    3.65
  -8  -3 -13    2.73    4.40
   8   3  13    0.39    6.31
  -2  11   9   31.46    4.08
   2 -11  -9   39.19    4.92
  -8   2   8    1.93    5.85
  -8   3 -10    8.05    4.94
  -8   3 -10    8.95    3.52
   8  -3  10   11.52    5.58
  -8   3 -10   10.60    3.35
  -8   3 -10    6.00    6.08
  -5  -3 -16   85.06    6.40
  -5  -3 -16   73.90    6.01
   5   3  16   79.61    7.88
   3  -2 -15   30.30    4.58
   3  -2 -15   23.33    4.28
   3  -2 -15   30.09    3.89
   7  11   5   55.36    5.19
   7  11   5   65.78    5.99
   7  11   5   62.86    7.53
   0  10  -8    8.81    4.30
   0 -10   8   17.95    5.91
   4  -3 -14   26.57    4.56
  -4   0 -16    5.34    3.30
  -4   0 -16   12.96    4.39
   8   8  -3   85.33    5.98
   8   8  -3   89.40    5.60
   9   8   7   99.66    7.04
   9   8   7   91.67    6.09
   9   8   7  103.02    7.63
   9   8   7  100.60    6.54
   9   8   7  106.42    9.57
 -10  -2   2   19.64    6.72
   9   5  -4   40.21    4.44
   9   5  -4   42.09    3.85
   9   5  -4   37.95    3.89
  -9  -5   4   38.27    6.13
  -4  -9 -14    5.08    4.71
   4   9  14   -0.20    3.89
   0  11  -6   45.64    5.42
   0 -11   6   39.38    6.37
   9   7   9   11.59    3.78
   9   7   9    8.85    6.64
  -9  -7  -9   13.78    4.19
   9   7   9   13.92    3.31
   9   7   9    9.36    3.00
   9   7   9    9.12    5.19
  -2  12  -1   83.04    6.10
  -2  12  -1   68.29    6.81
   2 -12   1   72.21    5.70
   9   2  11   33.54    7.27
  -9  -2 -11   30.60    5.25
  -9  -4 -11   60.88    5.88
   9   4  11   66.97    8.35
  -9  -4 -11   64.75    5.10
   5   7  15   80.18    5.05
  -5  -7 -15   71.64    6.26
   9   8   1   10.87    6.16
   9   8   1    8.12    3.79
   9   8   1   11.32    5.63
   3  -1 -15   11.26    4.01
   3  -1 -15   13.89    3.44
   4   5 -12   99.85    6.99
   4   5 -12  131.62    7.01
  -4  -5  12  122.62    9.25
   1   8  15   15.72    3.84
  -1  -8 -15    9.66    3.03
  -1  -8 -15   17.13    4.92
   4  12   9   -0.78    4.06
  -4 -12  -9    1.15    4.53
  -6   8   7   33.06    6.54
  -6   8   7   26.70    4.62
  -3   1 -16   48.99    5.28
  -3   1 -16   48.11    4.41
  -1   0  16  120.37    8.24
   1   0 -16  106.71    6.60
  -4   5 -13   38.75    5.57
  -4   5 -13   41.61    4.02
  -8   2 -11   38.30    5.46
   8  -2  11   32.26    6.32
  -8   2 -11   40.42    6.97
  -3   3 -15    2.69    4.33
  -3   3 -15    3.43    3.38
   6   8  -7   31.35    4.46
  -6  -8   7   34.23    7.01
   7  11   3   33.43    4.03
   7  11   3   38.20    5.24
   7  11   3   42.95    6.66
   7  11   3   38.87    6.64
  -7   7  -6    2.76    6.03
  -7   7  -6    2.38    4.89
  -8  -9  -9   62.11    5.82
   8   9   9   58.97    5.47
   8   9   9   43.38    7.93
   2 -10 -11    6.46    4.40
  -2  10  11    0.74    3.35
   2 -10 -11    6.53    2.49
  -6   9  -3    4.82    6.09
  -6   9  -3   16.43    4.99
 -10   1   1   10.31    6.50
 -10   1   1    5.61    3.50
  -1 -10   8    5.92    5.89
   1  10  -8   -1.57    4.15
  -8  -4 -13   37.80    5.15
   8   4  13   35.02    7.31
  -8  -4 -13   33.07    4.48
  -4   6 -12   20.74    5.16
  -4   6 -12   23.78    3.72
   1  13   5   72.46    6.41
  -1 -13  -5   71.60    6.30
  -1 -13  -5   77.62    6.06
   8   9  -1   54.27    5.07
   8   9  -1   60.73    7.01
   7   2 -10   19.24    3.96
  -7  -2  10   27.12    5.27
   9   6  -3    3.26    4.73
   9   6  -3   13.60    3.49
  -9  -6   3    3.83    5.25
   9   6  -3   12.11    3.16
   9   6  -3    9.01    3.88
   3  13   4    5.76    4.58
  -3 -13  -4    0.08    4.31
  -2  11  -5   82.48    7.09
  -2  11  -5   89.00    6.45
   3   8 -10   14.45    3.45
   8  10   4    6.61    5.25
   8  10   4    3.28    3.28
   8  10   4   10.16    4.22
   8  10   4   14.60    6.26
  10   4  -1   86.83    5.79
  10   4  -1  101.12    8.90
 -10  -4   1   95.30    8.73
   0   8 -11   -1.35    4.44
   0   8 -11   -3.23    4.05
   0   8 -11    3.90    4.03
   5   4  16   28.11    3.67
  -5  -4 -16   23.55    4.74
  -4  11   4   42.15    4.33
  -4  11   4   46.22    5.62
  -3  -6  12    1.96    6.16
   3   6 -12   -0.77    3.31
  10   6   4    0.92    3.25
  10   6   4    2.20    7.10
  10   6   4    1.51    3.17
  -8   6  -5   -2.33    4.90
  -8   6  -5   -0.19    6.28
   1 -10 -12   28.58    5.03
  -1  10  12   20.90    3.82
   1 -10 -12   17.89    2.78
  -3 -13  -3    3.29    4.62
   3  13   3    4.90    4.49
  -3 -13  -3    5.83    4.76
  -5  -2 -16   93.05    6.74
  -5  -2 -16   84.08    6.06
   5   2  16   91.43    8.12
 -10  -3  -8   25.03    4.75
  10   3   8   29.81    7.01
   8  10   5    4.16    5.73
   8  10   5    0.10    3.53
   8  10   5    3.31    5.11
   8  10   5    3.39    4.18
  -8  -2 -13   17.22    3.90
  -8  -2 -13   16.32    4.78
   8   2  13   17.62    7.00
  -5   9  -6    1.76    4.83
  -5   9  -6    5.21    5.67
   5  -9   6    4.62    2.46
   2   4 -14   -4.86    3.85
  -2  -4  14   -2.51    6.00
   2   4 -14    0.10    3.73
  -4  -9   8    6.54    6.20
   4   9  -8   -1.23    2.94
  -9  -1   6   83.90    8.11
   9   1  -6   81.05    5.18
  10   6   3   15.23    7.44
  10   6   3   12.21    3.52
  10  -2   2  127.87    9.37
 -10   2  -2  117.97    7.61
  -4  11  -1   56.36    7.22
   4 -11   1   71.57    5.38
  10   5   7   72.49    5.04
 -10  -5  -7   83.79    6.05
  10   5   7   80.36    8.90
  -1   5 -14    4.76    4.04
   1  -5  14    3.92    5.82
  -1   5 -14    3.45    3.68
   5  -3  14   26.73    5.61
  -5   3 -14   26.30    3.48
   2   2 -15  105.33    6.22
   2   2 -15   76.55    6.19
  -2  -2  15  115.48    8.58
   5   9  -7   28.19    3.60
  -5  -9   7   37.76    7.10
  -4  -6 -16    2.36    4.49
 -10   0   2   24.21    6.96
   1   7 -12   35.44    4.35
  -1  -7  12   38.50    6.72
   1   7 -12   44.62    4.80
   1   7 -12   37.76    4.29
  -4 -10 -13   31.52    5.32
   4  10  13   33.35    4.70
  -9   0   6    6.60    6.00
 -10  -2  -8   60.14    8.17
  10   2   8   81.99    8.62
 -10  -2  -8   70.75    6.18
  -7   8   3   94.00    7.26
  -7   8   3  100.11    9.20
   7  11   6   30.32    5.07
   7  11   6   32.95    6.75
  -9   4   3    0.88    3.69
  -9   4   3    3.21    6.08
  -8   6   4    8.62    3.96
  -8   6   4   12.02    6.52
  -2   6 -13   32.13    4.34
   2  -6  13   38.59    4.53
  -2   6 -13   27.43    4.95
   8  10   3   20.23    4.52
   8  10   3   27.57    6.56
   3  13   5   -0.36    4.64
  -1   8 -11    0.71    4.23
  -1   8 -11    3.90    4.09
   3   3 -14   63.09    5.57
  -3  -3  14   71.94    7.51
   3  -3 -15   12.62    3.87
   3  -3 -15   17.47    4.28
  -7   7   6   -0.10    3.99
  -7   7   6    7.73    6.23
  -7   7   6    6.86    3.16
  10   6   5   14.68    7.13
  10   6   5    3.80    3.16
  10   6   5    5.83    3.84
   0  12   9    1.61    3.71
   0 -12  -9    9.30    4.67
  -1 -13  -1   95.42    6.61
   1  13   1   92.64    6.94
  -1 -13  -1   79.14    6.70
 -10   2  -1   57.08    8.10
 -10   2  -1   42.95    5.11
   1   3 -15   -0.54    3.78
   1   3 -15   -5.32    3.96
  -1  -3  15   -0.75    5.77
  -6   6 -10   -0.29    2.69
  -6   6 -10    0.71    5.64
  -6   6 -10    0.90    4.79
  -6  -5  10    3.60    6.50
   6   5 -10    9.38    3.91
  10   5   0    2.23    3.93
  10   5   0    5.57    6.49
 -10  -5   0    7.76    6.33
  10   5   0   10.49    2.99
  -5 -12   0   24.03    5.92
   5  12   0   25.85    4.92
 -10   2  -3   40.72    5.32
  10  -2   3   49.67    7.15
  -2 -13  -1  125.10    7.43
  -2 -13  -1   95.11    7.53
   2  13   1  123.86    8.08
  -5   3  13    5.09    4.81
   5   1 -13   15.72    4.06
  -8   4  -9    0.59    4.75
  -8   4  -9   -5.41    6.35
   8  -4   9   -1.20    5.03
  -2  12   6   14.32    3.74
   2 -12  -6    4.40    4.00
  -2  12   6    4.91    3.81
  -2 -13  -6   -2.58    4.35
   2  13   6   -1.27    4.50
  -9  -4   5   25.76    5.89
   9   4  -5   23.88    3.86
   9   4  -5   23.90    3.62
  -5  10   5   16.64    4.72
  -5  10   5   16.79    6.09
   5  12   8    2.18    4.35
  -5 -12  -8    6.58    4.55
  -5 -12  -8   10.90    4.76
   0   5 -14   14.47    4.12
   0   5 -14   14.94    3.95
   0  -5  14   19.28    6.33
   0   5 -14   14.99    3.89
  -2 -11 -12    7.46    4.77
   2  11  12    0.10    3.96
 -10   0  -7   68.28    8.47
  10   0   7   81.50    8.74
  -8   4   7   63.13    7.84
   3  -6 -14    5.11    3.53
   3  -6 -14    2.69    4.17
  -2   7 -12   55.83    4.95
  -2   7 -12   44.34    5.68
   4 -10  -8   50.27    4.89
  10   3  -2   -1.19    3.62
 -10  -3   2   -2.78    6.25
   0 -13  -3    1.01    4.63
   0 -13  -3    1.33    4.16
   0  13   3    1.01    4.44
  -3   0  15    1.53    5.61
   3   0 -15    3.49    3.47
  -1  10  -8   12.29    4.84
   6  -1 -12   -1.63    3.95
  -6   1  12    2.63    5.11
  -3 -13  -2    3.82    4.61
  -3 -13  -2   10.17    4.89
   3  13   2    4.89    4.48
   4   1 -14    1.23    3.15
   4   1 -14    2.92    3.75
  -4  -1  14   -2.44    5.92
   4   1 -14   -0.36    3.79
   2  12  10   96.64    6.86
  -2 -12 -10  114.47    7.68
  -4  -8 -15   36.44    5.35
   4   8  15   29.80    4.50
 -10  -4  -8    2.43    3.71
 -10  -4  -8    6.35    4.13
   1   6 -13   33.20    4.50
  -1  -6  13   41.75    6.81
   1   6 -13   44.98    4.73
  -7   8  -3   20.24    6.42
  -7   8  -3   12.73    5.05
  -7   4 -11    9.41    5.99
  -7   4 -11    8.95    4.98
   7  -4  11   15.19    5.22
   8  10   6    6.49    5.74
   8  10   6   -0.85    4.17
   8  10   6    1.55    3.80
  -1  12   8   34.66    4.51
   1 -12  -8   29.09    4.86
   7  11   2   26.04    6.19
   7  11   2   15.50    4.75
   7  11   2   16.31    6.08
  -2 -11   6   54.88    6.91
   2  11  -6   51.99    5.25
  -9   5  -1   58.43    6.17
  -9   5  -1   73.68    8.48
  -4   4 -14   14.67    3.47
  -4   4 -14   11.19    4.59
  -6 -10   4  120.63    9.24
   6   0 -12   10.59    4.00
  -6   0  12    6.07    4.73
  10   6   2   11.64    6.92
  10   6   2   15.47    3.56
 -10  -6  -2   21.49    6.57
  -3  11  -4   37.13    5.77
  -3  11  -4   25.67    5.94
  -1  12  -3   29.32    5.67
  -1  12  -3   31.39    5.18
   3  11  12    1.36    4.00
  -7  -9   4    1.91    6.23
   7   9  -4   10.02    3.68
   0  13   2    3.86    4.54
   0 -13  -2    7.37    4.58
   0 -13  -2    9.35    4.58
   1   8 -11   12.86    3.91
   1   8 -11    5.00    4.18
  -1  -8  11   12.13    6.23
   1   8 -11    4.50    3.29
  -7   3 -12   20.03    6.13
   7  -3  12   17.32    5.31
  -7   3 -12   17.95    4.95
   7  -3  12   15.44    5.44
   0 -13  -4   13.20    4.84
   0  13   4   19.84    4.96
   9   2  -6  182.37    8.50
  -9  -2   6  183.56   11.34
   5 -10   3    6.43    3.37
  -5  10  -3   -0.94    6.10
   7  -3 -10   11.28    3.45
   7  -3 -10   20.35    5.80
  -7   3  10   11.20    5.97
  -8   5   6    8.22    3.57
  -8   5   6   -1.83    6.58
   8   3  -8   17.69    3.70
  -8  -3   8   26.56    5.53
  -2  -3 -17   18.85    4.50
  -2  -3 -17   11.11    3.89
  -2  -3 -17   17.97    4.15
  -9  -1 -11   67.25    7.94
   9   1  11   68.59    8.17
  -9  -1 -11   61.94    6.34
  -9  -5 -11   15.08    4.59
   9   5  11   12.27    6.83
  -9  -5 -11    8.23    3.97
   1  -7 -15   31.66    5.01
   1  -7 -15   31.60    4.63
   1  -7 -15   20.08    3.60
   3  12  -3   41.06    4.97
  -3 -12   3   40.29    6.49
  10  -1   6   44.42    7.41
 -10   1  -6   47.17    5.53
 -10   1  -6   35.30    7.56
   4  -6 -13   48.96    5.11
   0  -6 -16   45.45    4.51
   0  -6 -16   59.27    5.65
  -5   7 -10    0.75    4.88
  -5   7 -10   -0.61    4.94
  -9   5  -2   10.84    4.92
  -9   5  -2   12.90    6.75
   3  12  10   17.26    4.49
  -3 -12 -10   22.13    5.13
  -9   5   0   74.78    6.42
  -9   5   0   80.39    8.83
   4  12  -2    7.09    3.85
  -4 -12   2    3.23    5.61
   8   5  13   72.67    8.63
  -8  -5 -13  104.56    7.06
  -8  -5 -13   85.91    6.21
  -1 -13  -6   20.30    4.82
   1  13   6   12.31    4.70
  -1 -13  -6   17.01    4.84
  -5   9   8   72.67    5.87
   5  -9  -8   70.71    5.23
   4  -9 -10    3.79    4.03
  -1  11  -6   53.57    5.98
   7   6  14   30.47    4.47
  -7  -6 -14   40.35    5.13
  -2   5 -14   64.22    5.07
   2  -5  14   70.69    5.60
   0  -9 -14    0.92    2.71
   0  -9 -14    1.30    4.66
   0   9  14    0.77    3.42
  -2  -2 -17   -2.41    3.98
  -2  -2 -17    6.16    4.14
   2   2  17    4.63    4.44
  -2  -2 -17    0.64    3.69
  -6   6  10    7.18    3.40
  -6   6  10    4.81    5.85
   6  -6 -10    4.69    3.59
  -4   7 -11    8.63    3.42
  -4   7 -11    9.16    5.02
  -6  -6 -15    3.72    4.56
 -10   2   0   26.64    7.25
 -10   2   0   25.29    4.41
   8  -1  12   27.72    6.31
  -8   1 -12   24.84    6.62
  -5  -5 -16   71.47    6.17
   5   5  16   74.43    4.93
  -9   1   6   24.07    6.51
   8  10   2  128.04    9.20
   8  10   2  120.05    8.98
   8  10   2   97.35    7.03
  -8  -8 -11   67.76    5.21
  -8  -8 -11   77.97    6.13
   8   8  11   73.28    5.90
   8   8  11   77.15    8.57
   8   8  11   66.73    4.77
 -10   2  -4   21.71    7.23
 -10   2  -4   26.24    5.07
  10  -2   4   20.50    6.45
  -3 -13  -6   10.99    4.59
   3  13   6   -2.25    4.54
  10   6   6   30.11    3.86
  10   6   6   37.66    7.73
  10   6   6   28.76    4.70
   7  10  -2    0.61    3.95
   7  10  -2   15.38    5.03
  -7 -10 -10   13.40    4.35
  -7 -10 -10   11.71    4.78
   7  10  10   13.00    3.36
   7  10  10   12.67    4.44
   3 -10 -10   14.82    4.27
  -3  10  10   12.61    3.37
 -10  -1  -8   76.35    6.70
 -10  -1  -8   69.37    8.47
  10   1   8   95.78    9.10
   9   7  -2    0.13    4.99
   9   7  -2   -2.71    3.12
   9   7  -2    3.96    3.56
  -8  -6   6   18.21    5.87
   8   6  -6   14.86    3.72
   8   6  -6   20.31    3.74
   5  11  11   46.14    5.30
  -5 -11 -11   48.34    5.74
  -5 -11 -11   42.88    5.55
  -9   2  -9    7.99    6.44
   9  -2   9    0.33    5.90
  -9   2  -9    4.18    4.63
   6  -2 -12   24.86    5.59
   6  -2 -12   18.25    4.22
  -6   2  12    8.91    5.39
  -2  -7 -16    8.25    3.24
   8   7  12    7.24    2.97
   8   7  12    4.01    6.93
   8   7  12    6.86    4.19
  -8  -7 -12    2.79    4.31
  -5  -1 -16   -0.94    3.72
  -5  -1 -16    6.65    3.31
  -5  -1 -16    8.15    4.45
  -9   4  -6   -0.28    4.59
   9  -4   6    5.43    5.24
  -9   4  -6    1.56    6.61
   9   8   8  101.00    6.71
   9   8   8   99.35    7.55
  -9  -8  -8   99.07    6.57
   9   8   8   96.87    9.65
   9   8   8   99.53    6.50
   6  12   4    0.60    3.49
   6  12   4    1.77    4.35
   6  12   4    1.68    5.59
   7  11   7  101.36    8.61
  -7 -11  -7  100.52    6.95
  -7 -11  -7   98.59    6.99
   7  11   7   99.24    7.05
  -6   9   5    3.15    4.65
  -6   9   5    5.76    5.99
  -6   2 -14   47.30    4.24
   6  -2  14   52.96    6.77
  -8  -1 -13   61.33    6.20
  -8  -1 -13   56.18    4.67
   8   1  13   63.59    8.01
   2  10  -8   39.44    4.73
  -2 -10   8   57.15    7.07
  -6   7   9   74.82    5.63
  -6   7   9   79.61    7.99
   6  -7  -9   74.65    5.27
   4  -4 -14   12.62    4.13
  -6   0 -15   22.15    3.95
  -6   0 -15   18.84    4.91
   6   0  15   33.80    6.15
   9   8   0    1.60    3.69
   9   8   0    0.82    5.55
   9   8   0   12.18    5.56
   4 -11  -5   23.65    3.88
  -4  11   5   21.66    5.88
  -4  11   5   22.29    4.88
  -1  -3 -17   86.11    6.17
  -1  -3 -17   81.32    5.75
  -1  -2 -17    1.28    3.62
   1   2  17    9.17    4.19
  -1  -2 -17    6.35    3.89
  -1   2 -16   51.99    4.95
  -1   2 -16   43.47    5.11
  -1   2 -16   58.88    4.94
   1  -2  16   44.74    6.29
   7   0  14   -1.03    5.95
  -7   0 -14   -0.25    4.54
  -7   0 -14    4.74    3.38
  -6 -12  -5    8.10    4.62
   6  12   5    6.94    5.84
   6  12   5    3.64    4.45
   1  -5 -16   37.27    4.52
   1  -5 -16   46.09    5.27
   1  -5 -16   46.45    4.86
  -3  -9   9  100.91    8.72
   3   9  -9   73.41    5.03
   1  12  10   25.15    4.57
  -1 -12 -10   31.12    5.37
   2   4  17   70.42    7.35
  -2  -4 -17   52.72    5.07
  -2  -4 -17   66.02    5.78
  -2  12  -2   21.61    5.61
   2 -12   2   20.81    4.40
  -2  12  -2   11.88    5.20
  -2  12  -2   20.28    4.77
  -8   7   0   69.42    6.48
  -8   7   0   68.29    8.54
   1  11  12   16.36    4.14
   1  11  12   20.10    4.36
  -1 -11 -12   22.33    5.13
   9  -1  10    2.55    5.95
  -9   1 -10    4.47    6.36
  -9   1 -10    5.48    4.52
  -9   1 -10    4.66    3.47
  -1 -12   4    1.70    5.67
   1  12  -4   -0.47    4.39
  -6  -9 -13   16.59    4.45
  -6  -9 -13   16.61    5.01
   6   9  13   24.90    4.72
   6   9  13   20.43    3.54
   0 -13  -1    3.19    4.48
   0  13   1   10.41    4.78
   0  13   1    4.14    4.71
   0 -13  -1   -0.37    4.71
  -3  -7 -16   26.61    5.26
   0 -13  -5   40.02    5.08
   0 -13  -5   36.65    5.32
   0  13   5   51.75    5.80
   7  -5  10   -1.79    4.71
  -7   5 -10   -1.11    5.97
   3   3  17    0.57    5.39
  -3  -3 -17    5.88    4.16
  -8   7  -1   19.35    6.75
  -8   7  -1    8.78    4.79
  -3  -5  13   27.56    6.58
   3   5 -13   26.74    4.32
   4 -11   2   33.83    4.39
  -4  11  -2   38.00    6.67
  -4  11  -2   27.48    5.72
   0 -10 -13    5.98    2.51
   0 -10 -13    5.77    4.70
   0  10  13    1.15    3.58
   2  -6 -15    5.17    3.48
   2  -6 -15   11.46    4.55
  -2   6  15    8.08    3.89
   8   7  -5   93.00    5.74
   8   7  -5   84.98    5.92
 -10   1   2   11.11    6.67
  -9   5  -3   -3.85    5.07
  -9   5  -3   11.00    6.69
   6  12   3   10.08    5.46
   6  12   3    5.70    4.67
   6  12   3    3.87    3.22
   6  12   3    9.79    5.61
  -2   2 -16   40.24    5.01
  -2   2 -16   50.39    4.62
   2  -2  16   43.91    5.06
   2  -2  16   57.84    6.57
  -1 -13   0    9.35    4.66
   1  13   0   10.17    4.61
   1  13   0    7.74    4.58
  -1 -13   0    2.64    4.99
   3  13   1   15.99    4.73
  -3 -13  -1   14.64    5.23
  -9   5   1   31.94    5.01
  -8   3   8   15.33    3.32
  -8   3   8   11.50    6.52
   6   1 -12   31.35    4.48
   5   4 -12   10.92    4.01
   5   4 -12   14.97    4.08
  -5  -4  12   21.23    6.79
   7   7  -7   -2.21    3.88
  -8 -10  -7    2.55    4.58
   8  10   7    6.55    4.15
   8  10   7    5.54    5.94
  -6  -9   6   23.03    6.73
   6   9  -6   17.61    3.32
   7   6  -8   42.76    4.59
   1   1 -16   28.16    4.33
  -1  -1  16   26.52    5.97
   1   1 -16   23.40    4.46
   3  -4 -15   15.25    3.86
   3  -4 -15   14.09    4.32
   8   5  -7   53.07    4.67
   8   5  -7   55.66    4.48
  -3  10  -7   10.96    5.16
  -2 -13   0   58.56    6.38
   2  13   0   55.00    5.71
   2  13   0   61.37    5.95
  -7   8   4   52.95    7.97
  -7   8   4   46.74    5.65
  -3  -2 -17   35.58    4.72
  -3  -2 -17   29.35    4.25
   3   2  17   27.14    4.98
  -6   9  -4    7.46    5.95
   6  -9   4    5.15    2.64
   0   9 -10    7.11    4.55
  10   6   1   66.98    8.31
  10   6   1   57.99    5.25
 -10  -6  -1   64.10    7.51
  10   6   1   67.97    4.84
  -3  11   8    9.07    3.36
   3 -11  -8    9.21    4.23
  -2   8 -11   29.82    5.44
   4  -9   8    6.00    2.66
  -4   9  -8    4.73    5.19
   6   8  14   71.87    4.73
   6   8  14   63.95    5.72
  -6  -8 -14   61.03    6.07
  -8   7   1   40.59    5.43
  -8   7   1   46.24    7.60
   2  13   7    1.26    4.29
  -2 -13  -7   -1.99    4.45
  -9   3   5   15.68    6.55
   0  -8 -15   19.71    3.34
   0  -8 -15   18.89    4.99
   0   8  15   17.94    3.74
   5  -7 -11    4.23    3.94
   7  -5  -9   43.92    4.18
  -7   5   9   31.85    4.10
  -7   5   9   45.96    7.15
   3 -12  -2   28.20    4.67
  -3  12   2   29.46    4.70
  -7   6   8   89.24    8.28
  -7   6   8   67.98    5.56
   2   1  17   47.94    5.85
  -2  -1 -17   35.63    4.67
  -2  -1 -17   48.24    4.82
   7  11   1   12.33    4.58
   7  11   1    8.76    5.92
   0 -12   4   31.29    6.14
   0  12  -4   21.89    5.27
  -9   3  -8    7.17    6.48
  -9   3  -8    5.94    4.80
   9  -3   8    2.13    5.47
 -10  -1   3   41.57    7.69
   2  -2 -16    4.82    3.58
   2  -2 -16    2.81    3.75
   7  -2  13   67.12    7.42
   7  -2  13   76.89    7.21
  -6 -11   2  105.27    8.75
   6  11  -2  107.02    7.24
 -10  -5  -8   48.27    4.98
  10   5   8   46.22    4.33
 -10  -5  -8   56.75    5.44
  -4 -13  -4   12.34    4.98
   4  13   4    7.49    4.70
  -3  -4 -17    1.32    4.28
   3   4  17    0.90    5.71
   6  12   6   20.73    6.19
   6  12   6   21.54    4.99
  -6 -12  -6   28.29    5.08
   7   3 -10   64.23    5.20
  -6 -11 -10   31.54    5.22
  -6 -11 -10   40.44    5.53
  -1  -5  14   37.07    6.79
   1   5 -14   36.75    4.61
   1   5 -14   32.81    4.58
  -3   9  -9    6.74    5.22
  -3   9  -9   12.95    4.25
  -8   7  -2    9.66    4.78
  -8   7  -2   13.16    6.61
  -8   7  -2   22.69    6.84
   1   4  17   82.27    7.46
  -1  -4 -17   56.45    5.05
  -1  -7 -16   40.69    5.40
  -1  -7 -16   29.35    3.82
  -3  12   3    8.27    4.02
   3 -12  -3    5.65    4.28
   6  -5 -11    6.27    3.69
  -6   5  11    6.66    5.87
  -1   4 -15    3.78    3.75
  -1   4 -15   -0.09    3.98
  -1   4 -15   -2.74    3.92
   1  -4  15    3.38    5.88
  -3  12   1   24.30    4.46
   3 -12  -1   25.35    4.65
 -10  -2   3   23.57    6.68
 -10   2   1   24.13    7.03
 -10   2   1   18.36    4.13
  -1  -1 -17    7.37    3.81
  -1  -1 -17    0.88    3.64
   1   1  17   -1.40    5.01
   1   1  17    6.28    3.97
   4  11  12   23.58    4.63
  -3  -1  15   31.61    6.48
   3   1 -15   19.01    4.29
  -4  -4  13  100.81    8.78
   4   4 -13   77.80    6.30
   4   4 -13  111.33    6.42
  -4 -11   5    0.14    5.95
  -2 -12   4    8.85    6.00
   2  12  -4    6.70    4.42
  10   4  -2    6.20    6.27
 -10  -4   2    3.04    6.00
   4  13   3    1.21    5.08
   4  13   3    4.77    4.55
  -4 -13  -3    6.47    4.89
  -8   5  -8    8.32    4.98
  -8   5  -8    5.05    6.36
   8  -5   8    2.65    4.70
  -9  -3   6   55.56    6.81
   9   3  -6   60.13    4.54
   4  13   5   29.48    5.21
  -4 -13  -5   35.46    5.31
  -4   1 -16   11.31    4.73
  -4   1 -16    8.35    3.45
 -10  -5   1    5.43    6.19
  10   5  -1   10.05    6.79
   2  -1 -16   19.25    4.18
  -2   1  16   16.63    5.65
   2  -1 -16   19.12    4.33
 -10   2  -5   43.02    5.63
 -10   2  -5   30.80    7.51
  10  -2   5   38.02    6.87
  -5  -9 -14   28.35    5.27
  -8   6  -6   13.32    5.22
  -8   6  -6   18.70    6.85
   5  -4 -13    9.11    3.93
  -6   8  -7    7.38    5.26
  -6   8  -7   14.38    6.15
   7   8  13   65.89    4.65
  -7  -8 -13   74.19    6.48
   7   8  13   63.87    5.66
  -7  -8 -13   73.17    5.56
   5   2 -13   12.65    4.04
  -5  -2  13    2.91    6.25
  -7   8  -4   12.21    6.60
  -7   8  -4   -1.62    4.82
   9   7  10   -0.21    6.76
  -9  -7 -10    3.70    4.18
   9   7  10   -2.53    3.83
   9   7  10   -0.09    2.81
   0  -2  16   18.18    5.94
   0   2 -16   18.14    4.22
   0   2 -16   17.90    4.17
   0   2 -16   21.35    3.84
   8  10   1  113.17    8.70
   8  10   1  121.88    8.97
  10   6   7   28.00    7.52
  10   6   7   18.16    3.71
  -2  12   7    9.03    3.89
   2 -12  -7   12.17    4.36
  -1   9 -10   29.52    5.33
  -3 -13  -7    5.09    4.73
  -3 -13  -7    5.43    4.67
   3  13   7    4.01    4.49
   1   9 -10   -1.73    4.05
   6  12   2    8.79    5.31
   6  12   2    4.14    4.51
   6  12   2    6.48    5.63
   2  -3 -16   11.55    3.91
   2  -3 -16   15.55    3.73
  -8  -9 -10   69.88    6.17
   8   9  10   72.58    6.01
   8   9  10   67.52    8.45
   8   9  10   69.06    5.89
  -8  -9 -10   70.70    5.51
  -9   4   4    3.55    3.64
  -9   4   4    3.80    6.24
  -2  -7  12   30.06    6.81
   2   7 -12   22.57    4.55
   2   7 -12   24.13    3.95
  -4 -12 -10    3.66    4.55
   4  12  10    1.69    4.25
   5  -8 -10   32.15    4.48
  -5 -12   1   14.93    5.88
   5  12  -1   18.33    4.79
   8   9  -2   55.80    6.72
   8   9  -2   53.88    5.14
  -1 -13  -7    0.54    4.59
  -1 -13  -7    8.06    4.63
   1  13   7    4.01    4.51
 -10   0   3   26.07    7.24
  -3   6 -13   69.17    5.13
  -3   6 -13   61.20    6.42
  -5   2 -15   66.36    6.46
   5  -2  15   60.52    6.99
  -5   2 -15   67.63    4.63
  -5  10   6    3.49    4.35
  -7  -9 -12   60.66    6.03
  -7  -9 -12   58.34    5.36
   7   9  12   60.39    5.69
  10   3   9   16.74    6.85
 -10  -3  -9   23.75    6.83
 -10  -3  -9   13.25    4.83
  -6 -10 -12    0.72    4.77
   6  10  12   -0.49    3.29
  -6 -10 -12    7.29    4.45
   6  10  12    8.06    4.34
   9   9   4    9.73    3.74
   9   9   4   19.83    6.32
  -6   3  12    5.99    5.42
   6   4 -11    3.27    3.89
  -6  -4  11    4.78    6.44
  -8   6   5    4.15    3.81
  -8   6   5   -2.67    6.37
  -5 -12  -9   14.47    4.90
   5  12   9   17.80    4.54
  -5 -12  -9   19.78    4.98
  -1  11  11    0.16    3.37
   1 -11 -11   -3.86    4.79
   0 -13   0   16.93    4.67
   0  13   0   10.47    4.73
   0  13   0   17.06    4.91
   0 -13   0   12.33    5.15
   7   8  -6   -0.48    3.98
  -7  -8   6   -3.53    6.56
   8   0  -9   32.12    4.17
  -8   0   9   35.29    6.42
  -4   3 -15   80.80    7.12
  -4   3 -15   95.83    5.59
   0 -13  -6   46.75    5.41
   0 -13  -6   42.62    5.52
   0  13   6   45.87    5.42
  -6   7  -9    1.26    5.11
  -6   7  -9    7.67    5.72
   9   9   5   17.12    4.08
   9   9   5   18.42    6.75
  -8   7   2   42.37    7.55
  -8   7   2   46.78    5.48
  -2  10  -8   90.65    7.50
   5  -6 -12   22.47    4.32
  -9   2   6   58.62    7.92
  -2   4 -15    1.16    3.73
  -2   4 -15    3.60    4.24
  -4 -10   7   14.87    6.30
   4  10  -7   13.75    2.92
  -4  10  -6    2.66    4.89
  -4  10  -6    6.16    5.40
   0   4 -15   54.03    5.31
   0   4 -15   67.48    5.17
   0   4 -15   58.54    5.02
   0  -4  15   67.46    7.46
   4   2 -14    1.78    3.96
  -4  -2  14    8.20    6.25
   4   2 -14    7.55    3.45
   4   2 -14    4.38    3.88
  -9   5  -4    3.43    4.93
  -9   5  -4   10.80    6.87
  -9   0 -11   20.59    6.60
   9   0  11   14.24    6.67
  -9   0 -11    7.56    5.07
  -9  -6 -11   57.31    5.34
   9   6  11   53.85    5.03
  -8  -6 -13   31.03    4.80
   8   6  13   32.42    7.41
   8   6  13   28.81    4.47
  -3  12   4    4.43    3.95
  -3  12   4    7.10    4.70
  -7 -11  -8   19.51    4.76
   7  11   8   23.60    4.75
   7  11   8   22.26    6.13
  -7 -11  -8   23.14    5.01
   2   8 -11   51.41    4.68
   2   8 -11   68.98    5.56
  -2  -8  11   71.88    7.88
   7   5  -9   32.90    4.47
  -5 -10 -13   16.22    5.08
 -10  -2  -9  153.01    9.17
 -10  -2  -9  153.40   11.08
  10   2   9  149.91   10.99
  -9   5   2   29.78    4.78
   3   1  17   42.03    5.61
  -3  -1 -17   40.45    5.05
  -3  -1 -17   45.08    4.52
  -2  -5 -17   65.15    5.45
  -2  -5 -17   82.03    6.38
  -7   7  -7    2.60    6.17
  -3  12   0   42.74    5.97
   3 -12   0   42.91    4.98
  -3  12   0   42.64    6.58
  -5 -11   4   49.19    7.10
  -4 -13  -2    1.25    5.00
 -10   0  -8   51.70    8.05
  10   0   8   60.10    8.06
 -10   1  -7   24.31    5.14
 -10   1  -7   22.72    7.23
  10  -1   7   11.45    6.68
   9   9   3    5.69    5.94
   9   9   3   -0.39    3.58
  -3 -11   6   21.24    6.38
   3  11  -6   15.79    4.05
  -5 -10   6   10.33    6.42
  -5  10  -4    7.26    5.18
  -5  10  -4    2.79    6.04
   0  -2 -17  110.88    6.54
   0  -2 -17   81.84    6.26
  -4  -7 -16   17.53    5.00
  -4 -13  -6   15.08    4.94
   4  13   6    9.89    4.73
  -4 -13  -6   20.48    5.13
  -5  -6 -16   24.51    5.06
   5   6  16   27.91    3.76
  -3   5 -14  156.68    7.70
  -3   5 -14  135.09    8.75
  -8  -1   9   52.05    6.80
   8   1  -9   48.33    4.57
  -3   7 -12   28.69    5.47
  -3   7 -12   22.25    4.13
  -3   2 -16   -2.33    4.21
  -3   2 -16    0.99    3.53
  10   4   9    4.47    6.51
 -10  -4  -9    1.10    4.42
   8   8  -4   85.23    5.68
   8   8  -4   87.08    5.97
   0  -3 -17   71.23    5.58
   0  -3 -17   59.74    5.36
  -2  11  10   18.51    3.61
   2 -11 -10   23.96    4.84
  -8   1   9   13.66    6.00
   8  -1  -9    4.22    3.63
   6  12   7   23.42    5.06
  -6 -12  -7   24.84    5.00
  -6 -12  -7   23.68    5.04
   6  12   7   27.31    6.37
  -6   8   8   24.76    6.32
  -6   8   8   21.17    4.31
  -8   7  -3    6.97    6.32
  -8   7  -3   15.55    6.73
  -8   7  -3    7.31    4.82
   1 -13  -3    1.25    4.43
  -1  13   3   -3.41    4.51
  -2  -6  13   28.02    6.70
   2   6 -13   20.31    4.08
   2   6 -13   20.68    4.39
  -3 -13   0   33.07    5.87
   3  13   0   39.86    5.44
  -4   8 -10   -2.55    5.11
 -10  -3   3   -7.23    6.35
  -5   0 -16   27.10    3.81
  -5   0 -16   31.71    4.33
  -5   0 -16   32.20    5.20
   4 -11  -6   18.90    4.01
  -4  11   6   18.34    4.71
   9   6  -4    5.51    3.24
   9   6  -4    5.66    3.44
  -9  -6   4    2.11    5.21
   2  -9 -13   45.49    4.12
   2  -9 -13   72.47    6.11
  -2   9  13   62.10    4.77
  -8 -10  -8    6.78    4.77
   8  10   8   -5.50    6.28
   8  10   8   -0.44    4.19
   1 -13  -2   -2.46    4.47
  -1  13   2    1.23    4.46
  -1  13   2    3.07    4.65
  -5  -8 -15  115.45    7.79
   3  -8 -13   86.22    6.52
   9   9   6   27.58    4.73
   9   9   6   34.10    4.75
   9   9   6   39.91    7.28
   9   9   6   41.58    6.19
  -3  -5 -17   15.38    4.75
   7  -4 -10    6.78    3.42
  -7   4  10    2.82    5.87
  10   7   4   70.44    5.31
  10   7   4   79.62    8.85
   8   0  13   39.72    7.15
   9   5  -5   36.09    4.43
  -9  -5   5   36.92    5.93
   9   5  -5   43.97    4.11
  -9  -3 -12   12.75    4.88
   9   3  12    2.81    6.57
 -10  -6   0   73.02    7.79
  10   6   0   77.29    8.75
  10   6   0   81.18    5.28
   6   2 -12   60.42    5.20
   2   0 -16   19.12    4.32
  -2   0  16   22.48    5.93
  -1 -13   1    2.28    5.08
   1  13  -1    4.90    4.67
  -9  -8  -9   62.86    5.62
   9   8   9   66.48    8.38
   9   8   9   59.24    5.40
  -7  -3 -15    3.51    4.06
   4   3  17   35.29    6.70
  -4  -3 -17   34.78    5.00
  -7   7   7    0.50    4.03
  -7   7   7   10.54    6.48
   8   4  -8    5.95    3.64
  -7   6  -9    8.84    6.11
   1 -12  -9   19.49    4.93
  -1  12   9   22.37    4.19
  -2  11  -6   41.07    5.95
   2   3 -15   -1.27    3.98
  -2  -3  15    9.22    6.28
   2   3 -15    8.06    3.90
  -1  13   4    6.89    4.49
   1 -13  -4    8.88    4.55
   9   8  -1    2.23    5.51
   9   8  -1    1.25    3.72
   9   8  -1    5.79    3.21
  -4  11  -3    2.80    5.24
   4 -11   3    9.04    3.85
  -4  11  -3    5.12    5.86
   5   7 -10   52.67    4.88
   5   7 -10   66.88    5.53
  -5  -7  10   72.69    8.11
   0  12  10   16.77    4.26
   0 -12 -10   16.88    4.96
   2  -8 -14   22.38    3.59
   2  -8 -14   36.05    5.22
  -5   9  -7    7.02    5.74
  -5   9  -7   13.48    5.44
   2  10  14   16.06    4.28
  -2 -10 -14   21.31    5.40
 -10   3  -2   58.67    5.90
   2   9  15   44.03    4.86
  -2  -9 -15   39.40    5.70
  10   7   5   74.19    5.33
  10   7   5   82.11    8.96
  10   7   5   75.45    5.45
  10   7   3  126.82   10.67
  10   7   3  125.87    7.08
  -1  12  -4   17.97    5.51
  -6   9   6    3.67    4.47
   3  -9 -12   16.66    4.69
  -3   9  12   14.23    3.26
  -7  -4 -15   72.53    5.84
   7   7  14   -0.81    4.02
  -7  -7 -14    3.02    4.58
  -7  -7 -14    5.32    3.79
   0  11  12   17.87    4.15
   0 -11 -12   18.20    5.15
  -1  -5 -17   10.14    3.68
  -2   0 -17   21.28    4.32
   2   0  17   20.21    5.39
  -2   0 -17   15.16    4.11
   9   4  12   20.37    6.96
  -9  -4 -12   21.48    4.87
  -9  -4 -12   17.25    4.15
 -10   3  -1  102.47    7.25
   0  -1 -17   36.07    4.48
   0  -1 -17   22.71    4.22
   0   1  17   32.05    5.66
  -2 -13   1   47.37    6.31
   2  13  -1   47.52    5.53
   2  -4 -16   24.79    4.60
   2  -4 -16   16.75    3.96
  -5   8  -9   -2.17    5.15
   3  10  14   20.82    4.44
  -7   0  11    3.61    4.94
   7   0 -11   -1.09    3.87
   7  11   0    2.33    4.27
   7  11   0   10.52    5.44
   6   7  15    1.80    3.86
  -6  -7 -15   13.22    4.95
   3   9  15   26.09    4.50
  -6 -12  -1   22.88    6.08
   6  12   1   17.34    4.84
  -9   4  -7    0.58    6.58
   9  -4   7    3.23    5.21
  -9   4  -7    2.36    4.76
  -2  12  -3   35.05    5.06
  -2  12  -3   26.23    5.84
  -2  12  -3   21.30    5.68
  -3  11  -5   27.89    5.53
   2  13   8   11.78    4.71
  -2 -13  -8   13.41    4.86
  -7   1  11    5.42    5.40
   7  -1 -11   15.37    4.15
   9   9   2    2.66    5.91
   9   9   2    5.81    3.83
  -4  -4 -17   -4.55    4.38
  -1   0 -17    8.79    3.94
   1   0  17   14.43    5.45
  -4  -2 -17   75.80    6.01
  -4  -2 -17   72.23    5.32
  -4  -2 -17   85.81    6.43
   4  -5 -14    0.84    4.05
 -10   2   2   18.97    6.96
 -10   1   3   40.89    7.47
   1 -13  -1   23.93    4.96
  -1  13   1   19.41    5.18
  -1  13   1   19.25    4.91
  -7   8   5   27.89    5.07
   5   8  -9   22.49    3.71
   5   8  -9   24.00    4.70
  -9  -2 -12   99.26    7.41
   9   2  12   85.57    9.10
  -4 -12   3   13.95    6.04
   4  12  -3    6.31    4.01
 -10   3  -3   34.73    7.83
 -10   3  -3   35.53    5.34
  10  -3   3   48.21    6.92
   4 -10  -9   41.97    4.87
   0 -11   7   26.42    6.31
   0  11  -7   15.83    4.77
 -10  -1  -9  160.70    9.51
  10   1   9  174.31   11.70
 -10  -1  -9  164.41   11.71
  -1 -11   7   -2.81    5.74
   1  11  -7    3.96    4.36
   0  -4 -17   25.19    4.76
   0   4  17   23.18    4.59
   0  -4 -17   13.64    3.77
   8  -3  11   13.61    5.67
  -8   3 -11   14.18    6.44
  -7  -2 -15    5.76    4.66
   7   2  15   -0.76    6.51
  -7  -2 -15    3.66    3.95
 -10   2  -6    7.30    7.05
  10  -2   6   24.68    6.48
 -10   2  -6   15.95    5.08
   3 -12  -5    4.45    3.81
  -3  12   5   15.50    4.75
  -3  12   5    6.44    3.85
  -3 -10   8   42.95    7.21
   3  10  -8   30.82    3.55
  -6  -3 -16    7.35    4.28
  -6  -3 -16   14.68    4.59
   4   7 -11    7.05    4.33
   4   7 -11   14.66    3.63
  -4  -7  11   17.07    6.74
  -2 -12 -11   79.07    6.69
   2  12  11   77.89    6.23
   3  -5 -15   11.93    3.83
   3  -5 -15   14.52    4.52
  -8   7   3   41.55    5.29
  -4 -13  -1    7.81    5.40
  -3  12  -1   32.76    6.44
  -3  12  -1   40.35    6.16
   3 -12   1   41.07    4.83
   1  -6 -16   39.04    4.51
   1  -6 -16   53.20    5.56
  -6   1 -15   43.70    4.49
  -6   1 -15   57.23    6.07
   6  -1  15   44.64    6.97
  10   6   8   55.03    4.83
  10   6   8   55.07    8.30
   8  10   0   68.67    7.59
   8  10   0   72.64    5.92
   9   7  -3    2.75    3.23
   9   7  -3    4.00    3.59
   5   6 -11   79.56    5.82
   5   6 -11   64.13    5.50
  -5  -6  11   78.55    8.31
   3  12  -4   78.56    6.23
  -3 -12   4   87.85    7.93
   8   2  -9   31.81    4.17
  -8  -2   9   24.69    5.76
  -3  -4  14   74.17    7.86
   3   4 -14   52.13    5.07
  -4 -13  -7   46.59    5.63
   4  13   7   46.45    5.64
  -4 -13  -7   40.31    5.61
  -7 -10   3   25.63    6.85
   7  10  -3   26.88    4.65
   7  -1  14   25.63    6.49
  -7   1 -14   22.69    3.69
  -7   1 -14   25.13    5.26
  -2   9 -10   10.79    5.16
   3  13   8   14.25    4.69
  -3 -13  -8   19.76    5.08
  -3 -13  -8   23.57    5.11
   7  10  11   22.97    4.71
   7  10  11   23.20    4.68
  -7 -10 -11   25.90    4.73
  -7 -10 -11   27.08    5.18
  -6  -4 -16   30.97    4.97
   0  -7 -16   33.29    4.05
   0  -7 -16   44.19    5.52
  -6   9  -5   20.55    6.56
   2   9 -10   17.55    3.59
 -10   3   0   88.58    6.63
 -10   3   0   83.45    9.14
  -3 -12 -11    3.18    4.82
   3  12  11    7.83    4.20
   4   8 -10    3.95    4.40
   4   8 -10    8.28    3.38
  10   7   6    6.96    6.93
  10   7   6    3.31    3.43
  10   7   6    1.64    3.43
  -8   5   7   73.30    5.44
  -8   5   7   74.13    8.45
  -8   2   9    7.84    6.00
   9   0  -7   -1.78    3.43
  -9   0   7   14.43    6.18
  10   5   9    8.08    3.42
 -10  -5  -9   10.76    4.46
  -1  13   5   23.47    4.90
   1 -13  -5   23.34    4.61
   1 -13  -5   20.06    4.95
  10   7   2  200.74    9.67
  10   7   2  194.42   12.98
   0 -13   1    2.77    4.58
   0 -13   1    3.87    5.07
   0  13  -1    3.45    4.88
  -9  -1   7   61.39    7.55
   9   1  -7   66.86    4.92
  -6   5 -12    4.90    5.50
  -6   5 -12    9.50    5.15
   1  -9 -14   34.93    5.35
   1  -9 -14   29.15    3.44
  -1   9  14   31.92    4.08
  -5   5 -13    1.00    4.77
  -5   5 -13    5.60    3.07
   0  13   7   28.76    4.89
   0 -13  -7   26.17    5.03
   9   9   7   30.62    4.80
   9   9   7   26.42    7.15
   7   1 -11    0.88    3.86
  -6   4 -13    2.16    4.90
  -8   4 -10   10.87    5.36
   8  -4  10    8.97    5.45
  -8   4 -10   10.55    6.32
   6   7  -9   19.19    4.41
  -6  -7   9   19.19    7.08
   6   7  -9   19.33    3.76
  -9   5  -5   18.29    7.21
   9  -5   5   20.08    5.39
  -9   5  -5   15.52    5.27
  -2  10  12   -0.38    3.42
   2 -10 -12    6.33    2.60
   2 -10 -12    4.17    4.65
   3  -7 -14   68.39    5.89
   3  -7 -14   48.95    4.61
   4  -8 -12    8.53    4.32
  -9  -4   6   17.21    5.69
   9   4  -6   14.85    3.73
   1  13   8    1.21    4.37
  -1 -13  -8    7.97    4.72
  -9   5   3    9.57    4.18
  -9   5   3   21.87    7.02
  -8   4   8   45.62    7.52
   8  -2  12   14.39    5.91
  -8   2 -12    4.31    6.16
  -3   4 -15   33.04    4.20
  -6  -2 -16    4.66    4.06
  -6  -2 -16    9.40    4.68
   1   2 -16   11.59    4.04
   1   2 -16    5.46    3.97
  -1  -2  16    0.12    5.94
  -7   8  -5   19.58    5.57
  -7   8  -5   25.97    6.98
   5  -9  -9   24.87    4.31
   1   4 -15   33.50    4.50
  -1  -4  15   25.19    6.78
   1   4 -15   17.57    4.29
  -7  -5 -15   44.11    5.19
  -1 -10 -14    2.79    4.95
   1  10  14   -3.63    4.05
  -3   8 -11    7.72    5.14
  -1  -9 -15   25.99    5.29
  -1  -9 -15   13.22    2.99
   1   9  15   17.01    4.21
  -7   2  11    0.60    5.54
   3   2 -15   14.84    4.23
  -3  -2  15   17.30    6.35
  -6 -10   5   16.36    6.80
  -8   7  -4   24.25    5.55
  -8   7  -4   41.33    7.48
  -6 -12  -8   32.03    5.26
   6  12   8   29.06    6.55
  -6 -12  -8   35.98    5.37
  -5   6 -12    2.86    3.11
  -5   6 -12    5.36    4.94
  10   5  -2   57.47    7.89
 -10  -5   2   56.09    7.49
  -7  -9   5    6.31    6.70
  -3   0 -17   29.20    4.11
  -3   0 -17   25.08    4.67
  -8  -3 -14    7.70    3.96
  -8  -3 -14   13.46    4.76
   8   3  14    4.99    6.68
  -9  -5 -12   43.60    5.53
   9   5  12   30.32    7.66
  -9  -5 -12   32.27    4.72
   0  10  -9    5.20    4.56
   0 -10   9    6.14    6.13
  -8  -8 -12   18.85    3.97
   8   8  12   17.26    4.45
   8   8  12   26.23    7.26
  -8  -8 -12   20.94    4.86
  10  -3   4   14.61    5.92
 -10   3  -4    6.30    4.85
 -10   3  -4    4.42    6.96
  -6   4  12    8.43    5.54
   6  -4 -12    2.44    3.66
   4   6 -12   81.88    5.85
  -4  -6  12   99.36    8.78
   4   6 -12   63.28    5.59
  -5 -11 -12   43.76    5.80
  -5 -11 -12   42.17    5.62
   5  11  12   42.64    5.23
  -6  10   1    6.61    6.72
  -6  10   1   -2.67    5.14
  -2  -5  14   29.25    6.83
   2   5 -14   19.92    4.12
   2   5 -14   25.23    4.49
   7  11   9    9.19    4.37
  -7 -11  -9    6.97    4.80
  -7 -11  -9    8.99    4.66
   7  11   9    7.64    6.03
 -10  -1   4   19.51    7.06
   9  -2  10   10.10    6.12
  -9   2 -10    2.46    6.73
  -9   2 -10    7.01    4.82
  -2  12   8   26.63    4.11
   2 -12  -8   27.52    4.86
   8   4  14   10.21    6.65
  -8  -4 -14    8.90    4.17
  -8  -4 -14    7.80    4.56
   1 -13   0   20.01    4.76
  -1  13   0   21.75    5.05
  -1  13   0   21.41    5.30
   6   8  -8   27.32    3.91
   6   8  -8   33.78    4.74
  -4  -5 -17    1.59    4.58
   1 -10 -13   22.37    5.31
  -1  10  13   19.87    3.96
   6   6 -10    3.81    4.08
  -6  -6  10    9.46    6.72
   7   4 -10   66.80    5.48
  -1 -12 -11   44.83    5.78
   1  12  11   38.83    5.04
 -10  -4   3   49.80    7.31
  -2 -11 -13    9.53    5.09
   2  11  13    8.81    4.21
  -4  -1 -17   42.54    5.27
  -4  -1 -17   37.83    4.94
  -4  -1 -17   46.58    4.43
   3 -11  -9   35.23    4.98
  -6  10   0   14.60    5.44
   6 -10   0   16.91    3.93
  -6  10   0   21.85    7.17
  -4 -10 -14   49.36    6.02
   4  10  14   42.65    5.22
  -1 -12   5   -4.12    5.93
   1  12  -5   -2.66    4.86
  -5   4 -14   22.45    5.13
  -5   4 -14   10.64    3.31
   6  11  -3   76.51    6.25
  -6 -11   3   67.07    7.87
  -2  -6 -17   35.94    4.39
  -2  -6 -17   44.10    5.65
   2   8  16    7.13    3.76
  -2  -8 -16    4.79    3.08
   5  -5 -13    8.47    4.00
   4  -7 -13   24.48    4.71
   9   9   1   -5.55    3.99
   9   9   1    1.88    5.85
  -4  -9 -15    8.61    5.10
   4   9  15    2.08    4.08
  -9   1   7   17.91    6.58
   5  12  -2   38.67    5.38
  -5 -12   2   39.28    6.79
   5   3 -13    0.22    4.05
   5   3 -13    2.87    3.80
  -5  -3  13   -0.73    6.48
   1  10  -9    3.38    4.27
  -1 -10   9    5.16    6.13
  -5  10   7    2.87    4.39
  -9  -2   7   99.64    8.56
   9   2  -7   93.54    5.71
   3  11  13    2.54    3.97
   3  11  13   -4.14    4.17
  -1  11  -7   23.05    5.52
   0   0 -17    4.81    3.97
   0   0  17    2.58    5.43
  -8   6  -7   41.78    6.21
   8  -6   7   52.27    5.86
  -8   6  -7   51.38    7.87
  -6 -11 -11   15.78    4.86
  -6 -11 -11   14.85    5.24
  -3 -13   1   18.68    5.83
   3  13  -1   25.24    4.98
   3  13  -1   22.07    4.68
   9   1  12   30.46    7.34
  -9  -1 -12   28.72    5.45
  -6  10   2   26.47    6.96
  -6  10   2   20.10    5.42
  -2 -11   7   24.23    6.43
   2  11  -7   21.77    4.49
  -9   3   6   87.99    8.68
  -9   4   5    8.06    6.47
 -10  -2   4   13.92    6.56
   1  -8 -15    6.71    4.83
   1  -8 -15    3.26    3.05
  -1   3 -16   35.47    4.47
   1  -3  16   33.06    6.53
  -1   3 -16   25.20    4.40
  -1   3 -16   32.16    4.57
  -3  -8 -16   -0.21    4.89
   3   8  16    0.58    3.68
  -5 -12 -10   16.35    5.16
   5  12  10   12.34    4.52
  -5 -12 -10   20.95    5.24
  -6  -5 -16   32.39    5.22
  -9   3  -9    4.03    4.79
  -9   3  -9    3.25    6.73
   9  -3   9   -1.70    5.64
  -8 -10  -9    6.86    4.72
   8  10   9    3.10    6.40
   8  10   9   11.60    4.47
  -5  -9   8   31.66    7.11
   5   9  -8   27.74    4.82
   5   9  -8   28.01    3.72
   2  -7 -15    4.16    4.64
   2  -7 -15   -2.45    3.30
   2   1 -16   22.17    4.30
  -2  -1  16   25.17    6.21
   2   1 -16   20.72    4.24
  -6   6 -11    2.01    5.04
  -6   6 -11    4.33    5.68
 -10   3   1   65.74    8.52
 -10   3   1   53.61    5.55
 -10   0   4   34.98    7.33
  -8  -2 -14   76.54    5.51
   8   2  14   70.75    8.71
  -5 -13  -4   20.47    5.17
  -7  -1 -15    7.21    3.82
  -7  -1 -15   10.39    4.81
   7   1  15   12.69    6.88
  -3  -6 -17   52.89    5.85
   0 -12   5   28.88    6.30
   0  12  -5   13.37    5.10
  -3  10  11   -1.15    3.08
   3 -10 -11    6.73    4.45
   4  -9 -11   10.11    4.33
 -10  -6   1   18.84    6.29
  10   6  -1   15.93    7.05
  10   7   7    3.93    6.90
  10   7   7    0.59    3.48
 -10   1  -8   12.26    6.94
 -10   1  -8   22.02    4.97
  10  -1   8   21.00    6.89
   8   7  13    5.05    4.01
  -8  -7 -13   10.02    4.68
   5  13   5    5.36    5.51
  -5 -13  -5    2.70    4.83
  -6 -12   0    5.77    5.86
   6  12   0    4.79    4.42
  -8   6   6    5.62    3.85
  -8   6   6   -1.56    6.60
   8   9  11  101.61    9.53
  -8  -9 -11   88.51    6.84
  -8  -9 -11   82.29    5.96
   8   9  11  104.70    7.07
  10   7   1  175.18    8.90
  10   7   1  191.62   12.22
  -9   1 -11    5.85    6.51
   9  -1  11    8.83    6.35
   4   9  -9   15.74    3.43
   4   9  -9   19.01    4.72
  -4  -9   9   23.56    6.91
   6  -3  14   30.96    5.92
  -9  -7 -11   37.38    5.00
   9   7  11   31.67    7.76
   9   7  11   29.11    4.62
   4 -11  -7    1.34    3.87
   5 -11  -1   16.89    4.16
  -5  11   1   10.75    5.19
  -5  11   1    9.34    6.47
  -2   3 -16    7.02    4.25
  -2   3 -16    3.85    3.87
   2  -3  16   -2.33    5.89
  -1  10  -9   61.17    6.46
   8   9  -3   62.73    5.48
 -10  -3 -10    8.91    4.79
  10   3  10   17.85    7.00
   0  -5 -17    3.65    4.53
   0  -5 -17    4.68    3.53
  -1  13   6   66.77    5.91
   1 -13  -6   66.06    5.84
  -3  12   6    1.16    3.52
   3 -12  -6    3.10    3.86
  -5  10  -5   10.00    5.31
  -5  10  -5   14.29    6.10
   1  13  -2    3.09    4.85
  -1 -13   2    3.48    5.39
  -5  11   2   25.22    5.58
  -5  11   2   22.46    6.76
  -5 -13  -3    5.27    5.21
  -6  10  -1    4.55    6.71
  -6  10  -1    8.62    5.00
   4  12  11    7.09    4.40
  -4 -12 -11    7.00    4.92
  -4   2 -16   26.87    5.14
  -4   2 -16   29.26    3.93
  -5  -7 -16    6.07    4.92
   5  -1 -14   43.90    5.01
   2  -5 -16   35.81    5.04
   2  -5 -16   27.61    4.27
  -7   4 -12    6.65    5.06
  -7   4 -12   10.69    6.18
   7  -4  12   10.71    5.18
  -4 -13   0    7.50    5.53
   4   3 -14   19.87    4.40
  -4  -3  14   16.78    6.89
   4   3 -14   14.79    4.16
  -6   7  10   39.57    4.52
   6  -7 -10   34.01    4.49
  -6   7  10   37.22    6.92
   4  -1 -15   23.87    4.52
   4  -1 -15   19.06    4.17
  -3  12  -2   51.83    7.06
   3 -12   2   64.39    5.41
  -3  12  -2   53.51    6.69
  -1   7 -13   35.91    5.12
  -1   7 -13   38.15    4.79
   1  -7  13   41.69    6.93
   0   7 -13   25.15    4.46
   0  -7  13   33.92    6.95
   0   7 -13   21.65    4.39
   1  -2 -17   31.25    4.65
   1  -2 -17   23.49    4.27
   4  -2 -15   37.61    4.82
   4  -2 -15   41.40    5.06
 -10   0  -9   90.13    9.34
  10   0   9   92.45    9.02
  -7   9   0   11.63    4.81
  -7   9   0   -3.43    6.90
   8   6  -7   99.97    6.17
   8   6  -7   98.67    6.17
   4  13   8   14.86    4.78
  -4 -13  -8   16.16    5.18
  -7   9   1   37.86    5.57
  -7   9   1   26.37    7.47
  -8   7   4   43.53    5.28
   5   5 -12   89.93    6.71
   5   5 -12  121.38    6.84
  -5  -5  12  116.10    9.53
   7   2 -11   39.97    4.68
   8   5  14   42.93    7.85
  -8  -5 -14   52.59    5.34
  -8  -5 -14   52.10    6.00
  -6  -1 -16    4.40    3.90
  -6  -1 -16    7.27    4.59
   8   7  -6   45.06    4.67
   8   7  -6   36.11    4.52
   2  12  -5   13.25    4.64
  -2 -12   5   22.05    6.35
   6   3 -12   26.12    4.46
  -4  11  -4   -7.98    5.92
  -4  11  -4    2.86    4.98
   9   9   8   46.25    5.21
  -9  -9  -8   51.36    5.44
   9   9   8   47.28    7.82
  -8   5  -9    2.70    6.36
   8  -5   9   -0.49    4.91
  -8   5  -9    7.83    5.14
   7  11  -1    8.18    4.47
  -6  10   3   66.81    6.56
  -6  10   3   60.47    8.12
 -10   2   3   12.72    6.76
  -1  -6 -17   -0.19    3.38
   5 -11   0   25.27    4.29
  -5  11   0   18.35    5.65
  -5  11   0   26.08    6.82
  -5   2  14   17.76    5.32
   5  -2 -14   21.74    4.59
  10   4  10    6.86    6.75
 -10  -4 -10    3.47    4.61
   3   7 -12    4.42    3.46
  -3  -7  12   -4.62    6.65
  -5   1 -16   47.39    5.81
  -5   1 -16   45.31    4.22
   9   8  10    8.80    7.15
   9   8  10    6.64    4.25
  -9  -8 -10    8.32    4.46
  -4   6 -13   12.37    3.59
  -4   6 -13    9.80    5.23
 -10  -2 -10   17.66    6.94
  10   2  10   19.31    6.88
 -10  -2 -10   18.79    5.09
   6  -6 -11   10.63    3.93
  -6   6  11    6.10    5.91
   1  -3 -17   16.26    4.51
   1  -3 -17   17.34    3.88
   1  -3 -17   11.68    4.36
   2  13  -2   63.26    6.02
  -2 -13   2   64.91    7.04
 -11  -2  -3    3.80    3.82
 -11  -2  -3    0.20    6.69
  -5   7 -11    0.16    3.13
  -5   7 -11    3.70    5.20
   0   3 -16   22.45    4.29
   0   3 -16   15.98    4.11
   0  -3  16   22.94    6.44
  10  -3   5   12.96    5.94
 -10   3  -5    7.14    7.03
 -10   3  -5    5.58    4.77
  -1 -11 -13   42.47    5.78
   1  11  13   30.53    4.79
  -5 -13  -6    7.70    4.95
   5  13   6   11.16    5.72
  -6   8  -8    7.41    6.05
  -6   8  -8    6.60    5.42
   1  -6  14   14.12    6.36
  -1   6 -14   11.65    4.16
  -3  10  -8    4.61    5.16
  -7   6   9   54.18    7.63
  -7   6   9   46.33    4.74
  -1  -8 -16   42.69    5.79
  -1  -8 -16   28.99    3.79
   3   8 -11   20.62    3.77
  -3  -8  11   10.33    6.69
   8   3  -9    8.91    3.79
   9   8  -2   15.12    3.57
   9   8  -2   25.92    5.94
   9   8  -2   14.02    4.11
 -10   2  -7    3.78    4.83
 -10   2  -7   -6.72    7.13
  10  -2   7    3.87    6.08
   2  13   9   14.46    4.69
  -2 -13  -9   18.41    5.14
  -2   1 -17   42.30    5.07
  -2   1 -17   43.93    4.65
   2  -1  17   41.93    6.29
  -1   1 -17   40.24    4.59
  -1   1 -17   35.15    4.59
   1  -1  17   45.12    6.44
  -1   1 -17   24.44    4.73
   8  -1  13   22.81    6.45
   5   0 -14   21.86    4.43
  -6  -9 -14   48.09    5.93
   6   9  14   46.55    5.39
  -5  11   3   46.88    7.36
  -5  11   3   40.12    6.04
  -7   9  -1    4.17    4.90
  -7   9  -1   -5.47    6.83
   7  -3  13    8.70    5.38
  -7   3 -13    6.23    4.88
  11   2   4    3.35    6.88
 -11  -2  -4    3.11    3.92
 -11  -2  -4    5.32    6.70
  -7   5 -11    9.59    5.43
  -7   5 -11   14.05    6.40
  -9   6  -1   11.37    4.93
  -9   6  -1   22.84    7.16
   0   8 -12   -3.25    4.20
   0  -8  12    4.38    6.22
   0   8 -12    1.41    4.23
  -4   5 -14   20.70    5.24
  -4   5 -14   23.35    3.79
  -7   3  11    4.34    5.93
   7  -3 -11    3.87    3.52
 -11  -3  -3   -1.41    6.62
  11   3   3   -2.97    7.24
  -8   3   9    1.03    6.12
   0   6 -14   -2.36    3.88
   0   6 -14   -0.37    3.99
   0  -6  14    3.06    6.20
 -10  -3   4    6.14    6.06
 -11  -2  -2    5.89    6.74
   1  -1 -17   12.35    4.04
  -1   1  17   18.76    5.64
   1  -1 -17   18.13    4.34
 -11  -3  -4    5.73    3.83
 -11  -3  -4   -1.63    6.79
  10   6   9   38.98    7.96
  10   6   9   33.68    4.29
  -7  -6 -15   37.91    5.33
  -9   6   0   39.69    7.66
  -9   6   0   34.67    5.47
  -6   9   7   -0.11    4.28
  -7   8   6   13.21    4.71
  -7   7  -8   18.72    6.87
   8  10  -1   45.65    5.19
   8  10  -1   49.11    6.73
  -7   9   2    4.84    5.01
  -7   9   2   12.33    7.06
  -4   9  -9    4.51    5.20
   6   9  -7   67.04    5.44
  -6  -9   7   74.20    8.43
   6   9  -7   45.09    4.28
   0 -13   2    2.86    5.44
   0  13  -2    3.32    5.14
  -1  13  -1   13.49    5.36
   1 -13   1   12.21    4.65
   4  11  13   53.21    5.61
   4  11  13   56.36    5.60
  -5 -13  -2   -0.80    5.25
   5  13   2    0.12    4.67
  -2  12  -4    6.67    5.27
  -4  10  -7    3.85    5.11
  -4 -11   6    7.23    6.37
  -3 -13  -9   43.41    5.78
  -3 -13  -9   38.47    5.72
   3  13   9   37.81    5.24
   0  13   8    8.12    4.29
   0 -13  -8   -0.56    4.62
   4   0 -15   10.08    4.21
  -1   8 -12   29.21    4.65
  -1   8 -12   29.04    5.23
  -5  -3 -17   58.74    5.88
  -5  -3 -17   82.00    6.39
 -10   1   4   35.81    7.58
  -9   5  -6   14.23    5.25
  -9   5  -6    2.84    6.81
   9  -5   6   11.25    5.25
  -6  -5  11   -1.10    6.75
   6   5 -11   -0.36    3.97
   9   6  12    9.04    4.03
  -9  -6 -12    7.92    4.30
  -9   6  -2   14.86    7.02
  -9   6  -2    4.37    4.92
  -4  -8 -16   25.96    5.49
   4   8  16   24.05    4.42
  11   1   3   35.99    7.38
 -11  -1  -3   37.83    4.86
 -11  -1  -3   44.98    7.69
   4  -3 -15   30.45    4.48
   4  -3 -15   27.08    4.79
  -8   7  -5   16.98    7.11
  -8   7  -5   18.44    5.57
  -9   2   7   33.74    7.11
   4   5 -13   61.33    5.32
  -4  -5  13   60.94    7.95
   4   5 -13   38.44    4.93
  -7   5  10   14.93    6.34
   8  11   4   24.86    6.85
   8  11   4   27.29    4.93
  -2 -10   9   10.97    6.47
   8  11   5   10.40    6.35
   8  11   5    4.91    4.26
   8   1  14   36.87    7.47
  -9   5   4    8.33    6.78
  -9   5   4    1.55    3.87
   7   9  13   39.34    5.15
  -7  -9 -13   50.80    5.93
  -7  -9 -13   42.90    5.09
  -9   4  -8    9.34    6.91
  -9   4  -8   16.39    5.42
   9  -4   8    7.54    5.44
  11   3   2   44.67    8.02
 -11  -3  -2   43.91    7.78
  -6 -12  -9   19.78    5.13
  -6 -12  -9   23.04    5.24
  -9  -3   7   38.09    6.36
   9   3  -7   33.35    4.07
  -6 -10 -13   11.19    5.07
  -6 -10 -13    6.59    4.56
  -5  -4 -17   51.62    5.75
  -5   3 -15   26.01    3.76
  -1  12  10   22.22    4.23
   1 -12 -10   31.11    5.35
  -4   7 -12    4.41    3.59
  -4   7 -12    4.87    5.10
  -6  10  -2   31.98    5.74
  -6  10  -2   25.67    7.10
 -11  -1  -2   14.63    7.14
  11   1   2   17.09    6.94
   8   5  -8   81.61    5.64
  -5 -11   5   44.77    7.35
   7   7  -8    2.04    4.04
  -5  11  -1    3.99    6.66
   5 -11   1    0.24    3.79
 -10   3   2   26.94    7.35
 -10   3   2   23.51    4.52
   9   9   0    4.04    5.76
   9   9   0    4.09    4.04
  -4  -6 -17    2.09    4.73
   0   9  15   -1.48    3.66
   0  -9 -15    0.85    4.86
   0  -9 -15    2.78    2.81
   0  10  14    3.63    3.89
   0 -10 -14    8.97    5.08
 -11  -2  -5    7.25    6.88
 -11  -2  -5    5.06    4.19
  11   2   5   10.30    7.11
 -11  -1  -4    5.22    6.79
 -11  -1  -4    3.97    4.15
  11   1   4    0.19    6.56
  -3  -6  13    1.94    6.58
   3   6 -13    1.14    3.60
 -11  -3  -5    0.66    3.81
 -11  -3  -5   -0.82    6.70
  -1  12  -5   20.97    5.42
  -2  13   3   10.47    4.54
   2 -13  -3    6.38    4.47
  -2  13   3   15.16    5.18
   2 -13  -2   19.78    4.81
  -2  13   2   19.14    4.86
  -2  13   2   22.82    5.31
  -6   8   9   72.35    5.88
  -6   8   9   83.78    8.34
  -2   7 -13   50.19    6.05
  -2   7 -13   61.88    5.30
   1   7 -13    5.51    3.68
  -1  -7  13    8.91    6.47
   1   7 -13    4.00    4.28
  -4   0 -17   -3.89    3.59
  -4   0 -17    4.37    4.50
  -9   6   1   50.23    8.05
  -9   6   1   44.53    5.75
   8   8  -5   62.01    5.32
   8   8  -5   71.53    5.52
  -1  11  12    1.32    3.72
   1 -11 -12    0.30    4.89
  -7   7   8    2.17    3.95
  -7   7   8    8.15    6.57
   1  13   9    0.65    4.25
  -1 -13  -9    4.43    4.87
   1  -4 -17    1.71    3.55
   1  -4 -17    2.19    4.41
  -5   3  14    9.66    5.16
  -6  -6 -16   -3.64    4.77
  -5  -2 -17   40.69    5.29
  -5  -2 -17   30.07    4.80
  -2   6 -14   82.85    5.70
  -2   6 -14   66.58    6.45
   9   6  -5    6.35    3.46
  -7  -8 -14   25.16    5.21
  -7  -8 -14   17.51    4.31
   7   8  14   20.89    4.63
   3  -2 -16   23.25    4.30
   3  -6 -15   10.44    3.70
   3  -6 -15   11.85    4.68
   6  -1 -13    3.03    4.10
  10   7   8    5.48    6.83
  10   7   8    0.09    3.65
   4  -6 -14    8.93    4.42
   2 -11 -11   14.84    4.88
  -2  11  11    8.22    3.66
 -11  -2  -1   35.14    7.59
  -7   9  -2   -7.51    7.12
  -7   9  -2    7.73    5.10
   8  11   3   90.99    8.49
   8  11   3   77.61    6.44
 -10  -5 -10   77.22    6.47
  -3   3 -16    4.34    4.50
  -3   3 -16   -2.28    3.72
  -6   9  -6   10.52    6.43
   5  -7 -12    5.15    4.12
   7  12   4    1.19    4.48
   7  12   4    8.03    6.06
   7  12   5   12.02    4.64
   7  12   5    9.29    6.33
   5  -8 -11    4.09    4.11
   8  11   6   17.33    6.56
   8  11   6   10.37    4.49
  -5 -13  -7    4.02    4.90
   5  13   7    0.87    4.52
  -6  -8 -15   44.03    5.84
   6   8  15   35.98    5.07
   0  12  11   -0.19    3.92
   0 -12 -11    2.03    4.91
 -10  -1 -10   12.63    6.99
 -10  -1 -10   14.15    5.01
  10   1  10   18.11    6.98
  -6  10   4   46.67    5.98
  -6  10   4   40.71    7.61
  -3  11  -6   15.40    5.41
  10   7   0  122.54    7.05
  10   7   0  131.30   10.08
   9   0  12   21.46    6.82
  -9   0 -12   12.95    5.24
  -9   0 -12   22.16    6.90
   1   8 -12   -1.44    4.43
  -1  -8  12    6.94    6.38
   1   8 -12    4.53    3.37
  -3   9 -10    2.10    5.14
  -7   8  -6   60.60    8.13
  -7   8  -6   66.39    7.14
  -5  11   4   25.88    6.90
  -5  11   4   31.22    5.66
   7   6  -9   15.21    4.27
   3   9 -10   72.02    5.16
  11   4   4   54.39    8.72
 -11  -4  -4   66.30    8.44
   3  -1 -16    5.99    3.90
  -6   7 -10   11.93    5.63
  11   4   3   49.10    8.22
 -11  -4  -3   45.92    8.10
  -4 -12   4   10.93    6.22
  -3   1 -17   -1.41    3.69
  -3   1 -17    5.82    4.36
   6   0 -13    3.61    4.02
   7  11  10    7.29    4.57
  -7 -11 -10    8.06    4.64
  -7 -11 -10   10.07    4.92
   7  11  10    2.05    5.93
   0  -1  17   -3.41    5.87
   0   1 -17   -1.29    3.95
   0   1 -17    6.02    3.95
  -9   6  -3    1.32    4.90
  -9   6  -3   -2.91    6.79
   1 -13  -7   11.22    4.67
  -1  13   7   15.77    4.48
  -7   9   3   26.93    5.76
  -7   9   3   36.29    7.75
  -2  13   4    8.34    4.51
   2 -13  -4    3.78    4.64
  -2  13   1   30.56    5.87
   2 -13  -1   39.44    5.24
  -2  13   1   37.28    5.32
  -7  -8   7    3.05    6.83
   7   8  -7    4.78    4.09
  -1   5 -15   17.19    4.59
   1  -5  15   25.59    6.58
  -1   5 -15   23.93    4.43
 -11  -1  -1    5.14    6.92
  -7   0 -15   11.33    5.06
  -7   0 -15   12.68    3.81
   7   0  15   10.40    6.50
   5   1 -14    7.84    4.21
   5   1 -14   13.12    4.23
  10   8   4   45.02    4.69
  10   8   4   45.85    8.06
  -5   9  -8    1.60    5.31
  -2  11  -7   48.39    6.34
   9   5  -6   -3.37    3.55
   1  -7 -16   32.85    5.39
   1  -7 -16   29.17    4.02
  -4   4 -15    8.55    3.55
  11   3   1   42.09    7.76
 -11  -3  -1   50.23    8.05
 -10  -5   3   44.52    7.08
   5  10  14   -0.22    4.30
  -5 -10 -14    8.41    5.07
  -3 -11   7   37.94    7.12
   6  -2 -13   13.77    4.29
  -6   2  13    7.27    5.50
   7  12   3    7.78    5.90
   7  12   3   -4.92    4.52
  -2  -4  15    4.08    6.56
   2   4 -15    5.90    4.05
   2   4 -15    5.10    3.70
   9   7  -4   15.22    3.95
   9   7  -4    9.55    3.56
  10   8   5   34.07    7.47
  10   8   5   27.64    4.26
  -2  10  -9   13.38    5.30
   3  13  -2   27.11    4.96
  -3 -13   2   25.36    6.22
   5   9  15   33.68    5.11
  -5  -9 -15   28.40    5.66
  -8  -6 -14   15.23    4.66
   8   6  14    5.01    6.81
   7  12   6   68.77    6.28
   7  12   6   50.25    7.63
 -11  -1  -5   41.38    5.35
  11   1   5   45.72    8.01
 -11  -1  -5   53.34    8.37
   3  -3 -16   12.18    3.87
   3  -3 -16    5.87    4.49
  -1   0  17    9.67    5.74
   1   0 -17    3.57    3.98
 -11  -4  -5   33.25    4.48
 -11  -4  -5   35.51    7.51
  11   4   5   41.68    8.65
  -6   2 -15   29.71    5.66
   6  -2  15   34.81    6.37
  -6   2 -15   29.04    3.99
  -6 -12   1    9.83    6.34
   6  12  -1   15.18    4.75
  -5 -10   7    6.27    6.52
   3 -12  -7    5.29    4.14
  -5 -13  -1   12.05    5.80
   5  13   1    7.55    4.76
   7  10  -4    9.26    4.03
  -7 -10   4   10.95    6.78
  -6   5  12   15.59    6.02
   6  -5 -12    4.89    3.84
   8  10  10   25.57    7.16
  -8 -10 -10   30.06    5.38
  -8 -10 -10   31.61    4.88
   8  10  10   31.08    4.95
  -7 -10 -12   17.37    4.71
   7  10  12   21.78    4.88
  -7 -10 -12   26.89    5.49
   0   9 -11   12.94    4.68
 -10   4  -1   60.20    6.20
 -10   4  -2   20.16    5.14
 -10   4  -2   19.11    7.52
  -5  -5 -17   62.15    6.09
   1   6 -14   56.62    5.28
  -1  -6  14   74.26    8.08
   1   6 -14   73.25    5.70
   7  -2  14   20.48    6.19
  -7   6 -10   -4.66    5.35
  -7   6 -10    9.33    6.25
   4 -10 -10   22.30    4.61
  11   4   2   41.27    8.03
 -11  -4  -2   43.24    7.82
   2 -12  -9   28.62    5.05
  -2  12   9   25.62    4.12
  -4 -13   1   22.02    6.16
   4  13  -1   14.10    4.33
   3   3 -15    9.66    3.98
  -3  -3  15    5.08    6.24
  -4 -10   8   21.61    6.95
 -10   3  -6    8.81    7.11
 -10   3  -6    6.42    5.19
  10  -3   6    5.74    5.95
  10   8   3   27.84    8.03
  10   8   3   35.83    4.40
  -4  12   2   66.97    5.61
  -4  12   2   60.61    7.69
  -4  12   2   52.71    6.50
   4 -12  -2   60.52    5.55
   9   9   9    2.97    4.18
   9   9   9    6.16    4.10
   9   9   9    6.81    7.00
  -9  -9  -9    6.77    4.58
 -11  -3  -6    4.77    4.19
  11   3   6    5.47    7.39
 -11  -3  -6   -1.46    6.76
  -3  12  -3   11.50    5.90
  -3  12  -3    6.50    5.52
   0  -5  15   36.48    6.98
   0   5 -15   34.96    4.62
   0   5 -15   26.26    4.48
  -2 -12 -12   86.89    7.18
   2  12  12   76.32    6.31
 -11   0  -3   93.00    9.48
  11   0   3   76.75    8.52
  10   6  -2   73.72    8.33
 -10  -6   2   64.09    7.47
  -2   8 -12   50.31    5.12
  -2   8 -12   44.02    6.09
  -9  -3 -13   40.92    5.76
   9   3  13   29.86    7.76
   2   2 -16    8.65    4.13
   2   2 -16    7.81    4.01
  -2  -2  16   10.67    6.18
  -3 -12   5   89.37    8.36
  -6   0 -16   18.80    4.09
  -6   0 -16   23.51    5.26
  11   0   2   29.54    7.06
 -11   0  -2   16.92    7.16
  11   2   6    3.07    6.89
 -11  -2  -6    5.06    4.36
 -11  -2  -6   -0.42    7.25
  -4  -1  15   -2.70    6.27
   4   1 -15   -0.70    3.86
   4   1 -15   -0.15    4.08
  -4  12   1   29.96    4.75
   4 -12  -1   22.73    4.60
  -4  12   1   29.86    6.91
   4  13   9   17.84    4.82
  -4 -13  -9   19.35    5.27
  -2  -7 -17    7.33    3.47
  -3 -12 -12    7.28    5.14
   3  12  12    2.70    4.16
   8  11   2   62.96    6.07
   8  11   2   70.09    7.93
   0  -6 -17   20.16    5.14
   0  -6 -17   14.61    3.65
  -9   6   2   14.83    4.76
   8   0 -10   12.53    4.00
  -8   0  10   12.39    5.77
  -9  -4 -13    2.11    4.50
   9   4  13    0.21    6.96
  -1  -3  16    3.74    6.26
   1   3 -16    2.46    4.11
   1   3 -16   -0.12    3.80
   8  11   7   12.33    6.36
   8  11   7    3.67    4.30
  -5  10   8   18.08    4.68
   7   3 -11   57.61    5.25
  -5 -12   3   15.41    6.48
   5  12  -3   17.78    4.77
  -8   7   5   11.22    4.38
  -8   7   5   13.98    6.96
  -2   5 -15   21.49    4.32
  -5  11  -2    0.34    6.44
  10   8   6   -0.83    6.84
  10   8   6    2.92    3.63
  -3  -7 -17   61.97    6.42
  -8   5   8   45.73    7.86
  -4  12   3   28.24    5.60
   4  -4 -15    7.16    3.72
   4  -4 -15    1.99    4.06
 -10  -4   4   40.64    7.07
  -3   0  16   31.80    6.53
 -10   4   0   89.26    7.07
 -10   4  -3    8.71    4.82
 -10   4  -3    8.82    7.22
  -1   9 -11   53.98    6.20
 -10  -1   5    4.26    6.52
  -5 -12 -11   14.48    5.24
   5  12  11   11.52    4.63
  -5 -12 -11    8.00    4.99
  11   0   4   20.24    7.08
  -8   8   0    8.94    4.82
  -8   8   0  -15.41    7.39
   0  -8 -16   32.30    5.49
   0  -8 -16   17.56    3.45
  -2  13   5    6.21    4.36
  -5  -1 -17    4.58    4.13
  -5  -1 -17   -2.78    3.49
  -5  -1 -17    1.41    4.51
   0 -11 -13   90.75    7.18
   0  11  13   83.14    6.12
   1  13  -3    2.43    4.97
  -1 -13   3   11.22    5.87
  11   2   0   88.16    8.97
 -11  -2   0   69.51    8.59
  -6  10  -3    9.71    5.27
  -6  10  -3   14.13    6.67
   4 -11  -8   -3.77    4.14
  -2  13   0   54.46    5.94
  -2  13   0   51.31    6.60
   2 -13   0   57.40    5.66
  -9   4   6   32.95    7.38
   6   1 -13   35.98    4.70
  -8   1  10   10.17    5.74
   8  -1 -10    2.01    3.84
   9  10   4   -3.90    6.34
   9  10   4   -0.11    4.04
  -8   6  -8   31.16    6.18
  -8   6  -8   30.41    7.47
   9  10   5    2.27    5.96
   9  10   5    5.78    4.13
 -10   1  -9   12.21    6.87
  10  -1   9    6.06    6.69
  -1  13  -2   11.38    5.27
  -7   9  -3   22.14    7.05
  -7   9  -3   28.98    5.85
  -5   8 -10    1.63    5.26
   1   9 -11   -1.82    4.45
   2  -6 -16   23.22    4.13
   2  -6 -16   35.68    5.22
   7  12   2    3.74    4.61
 -10   2   4    5.06    6.79
  -8   8  -1   18.54    7.19
  -8   8  -1    4.60    4.88
   9   2  13   71.57    8.73
  -9  -2 -13   67.48    6.62
  11   0   1   21.26    6.76
 -11   0  -1    1.48    6.89
   8   1 -10    5.16    3.85
  -2  -3 -18   17.83    4.70
  -2  -3 -18    7.78    3.88
   5  -6 -13    2.31    4.15
 -11  -1   0    3.50    6.91
  -4   8 -11   10.52    5.56
  -4   8 -11    3.01    3.59
 -10   0   5   30.68    7.23
  -6 -11   4   91.73    8.78
 -11  -4  -6    6.36    6.79
 -11  -4  -6    9.43    4.19
   5   4 -13    5.73    4.13
   5   4 -13   10.54    3.89
  -5  -4  13   14.52    7.06
   7  12   7   75.24    8.13
  -7 -12  -7   77.59    6.58
   7  12   7   62.77    6.24
  -8   8   1    6.64    7.38
  -8   8   1   16.09    5.13
  -4  12   0    9.18    6.27
  -4  12   0   13.21    4.37
   4 -12   0   14.54    4.34
   7  11  -2    8.51    4.45
  -7 -11   2   13.72    6.90
   3 -11 -10   36.26    5.15
  -9   6  -4    2.28    4.99
  -9   6  -4    2.71    6.93
   5  -9 -10   86.11    6.20
   7  -4 -11    9.54    3.75
  -7   4  11    5.92    6.08
   0  11  -8    7.17    4.83
   0 -11   8    1.80    6.18
  10   8   2   77.87    8.99
  10   8   2   78.47    5.72
   7   5 -10    8.86    4.11
 -10  -2   5   23.95    6.80
  -6 -11 -12   11.69    4.88
  -6 -11 -12   13.85    5.26
   5  13   8   13.88    4.90
  -5 -13  -8    5.57    4.95
  -5  11   5   22.64    5.29
  -5  11   5   20.39    6.83
  -5  10  -6   13.54    5.43
  -5  10  -6    8.26    6.16
 -10   2  -8    4.58    4.71
 -10   2  -8    5.97    6.66
  10  -2   8    2.07    6.30
  -4  11  -5   12.09    5.45
  11   4   1   61.62    8.48
 -11  -4  -1   55.55    8.37
   8   4  -9   20.22    4.16
   1  -5 -17   18.84    4.03
   1  -5 -17   31.40    5.16
  -1 -11   8   13.01    6.42
   1  11  -8    4.89    4.44
  -8   6   7   37.91    4.79
  -8   6   7   47.58    7.94
   8  -3  12    2.70    5.44
  -8   3 -12   11.62    6.43
   8   0  14   40.91    7.53
 -10   3   3    8.93    6.98
  -2  -2 -18   -0.69    3.76
  -2  -2 -18    1.10    4.04
  -2  -2 -18    4.05    4.32
  -2 -14  -4   24.52    5.32
   2  14   4   21.98    5.40
  -3  -5  14   17.69    6.95
   3   5 -14   13.22    3.93
  -2 -13   3   15.17    6.02
   2  13  -3   20.92    5.12
  -5   4  14   23.36    5.98
   5  -4 -14   27.82    4.61
  -6   3  13   32.24    6.22
  -7   9   4   23.60    7.20
  -7   9   4    5.97    4.89
   8   8  13    8.95    6.81
  -8  -8 -13    5.45    4.81
   8   8  13    2.99    4.24
   2  -9 -14   42.53    5.56
  -2   9  14   36.94    4.11
   2  -9 -14   30.75    3.69
   3  -9 -13    9.49    4.76
   3  -9 -13   11.25    3.06
 -11  -1  -6   59.12    6.10
  11   1   6   51.86    8.34
   9  10   3    9.93    4.20
   9  10   3    9.69    6.55
   9   0  -8    0.06    3.57
  -9   0   8    8.34    6.19
  -8   4 -11    1.25    6.29
   8  -4  11   -5.70    5.49
  11   3   0  124.02   10.18
 -11  -3   0  112.16   10.25
   9  10   6   24.91    4.77
   9  10   6   32.62    7.00
  -6  10   5   18.11    6.88
  -6  10   5   11.38    5.14
  -7  -7 -15   10.41    4.99
   7   7  15    2.78    4.07
  -2 -14  -3   24.81    5.27
   2  14   3   29.08    5.52
  11   5   4   71.71    9.30
 -11  -5  -4   66.60    8.43
  -9   3   7   34.59    7.30
  -2 -13 -10   18.00    5.40
   2  13  10   18.73    4.91
   5  11  13   33.00    5.00
  -5 -11 -13   32.83    5.77
   5  11  13   22.25    4.88
   1  12  12    5.62    4.12
  -1 -12 -12    7.42    5.14
  -4  12   4   38.11    5.84
  -6 -10   6   60.49    8.19
   9   1  -8   44.45    4.50
  -9  -1   8   42.20    7.02
   3  -4 -16   15.38    4.53
   3  -4 -16   13.62    3.90
   9  -2  11    8.93    6.21
  -9   2 -11    3.86    6.58
  -9   2 -11    4.30    4.94
  -1  -7 -17    8.44    4.94
  -1  -7 -17    0.19    3.30
  -8   4   9   22.26    6.89
   9   4  -7   19.11    3.89
   0 -13   3   28.84    6.21
   0  13  -3   23.48    5.55
   9  -3  10   -0.63    5.89
  -9   3 -10   -1.38    4.89
  -9   3 -10   -2.89    6.65
  -1 -12   6    0.82    6.11
   1  12  -6    8.80    4.77
   9   8  11    2.34    6.89
  -9  -8 -11    4.70    4.58
   9   8  11   -0.62    4.21
  10   6  10   32.58    4.40
   8   9  12   43.11    5.37
   8   9  12   48.24    7.90
  -8  -9 -12   40.95    5.60
  -8  -9 -12   43.36    4.88
   9   5  13    4.67    6.72
  -9  -5 -13   12.34    4.95
  -9  -5 -13    6.24    4.20
  -8   7  -6    4.09    6.72
  -8   7  -6    9.87    5.66
  -7  -9   6   18.34    7.11
   7   9  -6   15.77    4.40
  -2  -4 -18    9.02    3.76
  -2  -4 -18   10.76    4.83
 -11  -5  -3   31.66    7.50
  11   5   3   30.30    8.12
   0  13   9    0.93    4.13
   0 -13  -9    4.35    4.92
   2  10  15   31.22    4.78
  -2 -10 -15   30.84    5.90
 -10  -3 -11   24.94    5.25
  10   3  11   20.20    7.34
   9   9  -1   34.15    6.59
   9   9  -1   33.37    4.79
   8  10  -2   16.02    4.28
   3  10  15   30.23    4.87
   8   9  -4   17.52    4.30
   8   9  -4   27.28    4.51
  -3  -3 -18    6.41    4.61
   9  -5   7   20.73    5.56
  -9   5  -7    8.53    7.04
  -9   5  -7   14.96    5.51
   3  -8 -14   56.66    5.81
   3  -8 -14   42.76    4.39
 -10   0 -10    8.16    6.84
  10   0  10    1.91    6.64
 -10   0 -10    5.65    5.13
  -5  -8 -16   41.35    5.86
   5   8  16   37.89    5.02
  -6  -4  12    7.03    6.92
   6   4 -12    3.97    4.13
 -10   4   1   65.44    8.60
 -10   4   1   53.91    5.82
  10   7   9    2.36    7.08
  10   7   9    1.38    3.81
 -10  -7  -9    5.02    4.24
  -6 -12 -10   22.61    5.43
  -6 -12 -10   17.61    5.24
 -10   4  -4   -0.29    4.57
 -10   4  -4   -0.22    7.11
  10  -4   4    7.42    5.74
  -8   8  -2    5.40    6.76
  -8   8  -2    4.91    4.94
   9   8  -3   44.80    4.91
   9   8  -3   37.87    4.26
   9   7  12    8.22    4.24
  -9  -7 -12    7.83    4.56
  11   0   5   26.30    7.34
  -1  -3 -18   28.13    5.05
  -1  -3 -18   28.47    4.62
  -1  -3 -18   19.10    4.14
  -2 -14  -5   18.56    5.27
   2  14   5   14.17    5.12
  -3   6 -14   17.05    5.20
  -3   6 -14   21.85    4.12
   3  13  10   35.98    5.27
  -3 -13 -10   33.69    5.69
  -3 -13 -10   34.94    5.69
  -1 -14  -3   20.22    5.29
   1  14   3   27.43    5.44
  10   8   7   11.95    7.33
  10   8   7   13.78    3.96
  10   8   7    5.87    3.82
  -1 -14  -4   78.87    6.73
   1  14   4   74.67    6.84
 -11  -5  -5   65.80    8.32
  11   5   5   50.32    8.82
   0 -12   6   67.53    7.49
   0  12  -6   53.17    6.27
  -9   5   5    1.20    6.86
   1  -2  17   60.25    7.26
  -1   2 -17   58.99    5.66
  -1   2 -17   67.00    5.53
  -1   2 -17   67.62    5.41
  10   7  -1   39.41    7.29
  -1  -2 -18   12.41    4.32
  -1  -2 -18    8.05    3.85
  10   4  11    3.41    6.86
 -10  -4 -11   18.32    5.11
   4  12  12    5.96    4.50
  -8   8   2   36.72    5.46
  -8   8   2   30.64    7.81
  -3   7 -13   28.88    5.66
  -3   7 -13   21.41    4.18
  -2  -8  12   12.10    6.76
   2   8 -12    5.11    3.46
   2   8 -12    6.22    4.51
  -2  -7  13   52.09    7.77
   2   7 -13   52.53    5.30
   2   7 -13   36.29    4.64
  -7   8   7    6.58    4.43
  -7   8   7   26.19    7.17
 -11  -3  -7   28.87    5.04
  11   3   7   21.82    7.58
 -11  -3  -7   35.36    7.93
  -2   2 -17   47.32    4.79
   2  -2  17   45.27    6.77
  -2   2 -17   36.39    5.08
  -3 -10   9   55.97    7.91
   8  11   1   34.28    5.25
   8  11   1   51.87    7.21
   4   4 -14   11.03    3.98
   4   4 -14   12.83    4.38
  -4  -4  14   15.41    7.05
   2 -10 -13   19.48    5.23
  -2  10  13   10.94    3.65
  -5 -13   0    9.33    6.16
   5  13   0   15.57    5.04
  -8   2  10   -0.66    6.25
  -2 -14  -2   43.02    5.89
   2  14   2   47.43    5.97
  -3  -4 -18    7.34    4.67
   5  -2  16   77.46    7.73
  -5   2 -16   86.32    5.36
  -5   2 -16   78.62    6.97
  -3  -2 -18   19.62    4.28
  -3  -2 -18   25.44    4.82
  -5  -2  14   -1.89    6.53
   5   2 -14    3.74    3.93
   5   2 -14    8.06    4.21
  -9   1   8    9.19    6.33
   8  11   8   20.14    6.71
   8  11   8   32.32    5.01
  -8 -11  -8   30.45    5.37
  -5  -6 -17   17.12    5.08
  -4  -7 -17    8.61    5.07
 -11   0   0    5.11    6.92
  -6  -7 -16   35.77    5.65
  -1  -5  15   46.09    7.56
   1   5 -15   42.09    4.90
   1   5 -15   29.32    4.53
  10   2  11   38.58    7.88
 -10  -2 -11   38.05    5.67
  11   2   7   16.85    7.59
 -11  -2  -7   17.23    4.93
  -7  -3 -16    8.26    4.82
  -7  -3 -16    1.88    4.25
  -3 -14  -4    9.43    5.21
   3  14   4    6.38    4.96
  -9   6   3   23.30    4.78
  -6   9   8   12.18    6.55
  -6   9   8    4.11    4.26
  -1  13   8   16.22    4.39
   1 -13  -8   22.75    5.00
  -2  12  -5   69.55    7.00
 -10   1   5   84.27    9.21
  -2  -9 -16   27.23    5.86
   2   9  16   25.56    4.49
  -1 -14  -2    8.68    5.07
   1  14   2   15.47    5.22
 -11  -5  -2   22.71    7.58
  11   5   2   27.67    7.73
  -4  12  -1   21.04    6.64
   4 -12   1   16.38    4.28
  -4  12  -1   12.31    5.71
  -7  -4 -16   30.28    5.35
  -7  -4 -16   16.71    4.83
  -4   1 -17    7.59    4.56
  -4   1 -17    4.42    3.64
   3   9  16   33.28    4.85
   2  -8 -15    7.52    3.30
   2  -8 -15   15.19    5.02
  -1 -14  -5   32.80    5.70
   1  14   5   30.80    5.69
   2 -13  -6    4.68    4.28
  -2  13   6    1.87    4.09
  -1  11  -8   83.97    7.51
   8  -2  13   12.72    6.19
   2 -13   1    9.64    4.60
  -2  13  -1    6.38    5.49
  -2  13  -1   16.11    5.92
   2  -2 -17   24.48    4.80
   2  -2 -17   28.71    4.43
  -1  -1  17   14.04    6.13
   1   1 -17    9.45    4.13
   1   1 -17   10.67    4.24
   5   7 -11   11.08    4.53
   5   7 -11   17.45    3.94
  -5  -7  11   16.57    7.27
   5   8 -10   29.06    4.95
   5   8 -10   20.12    3.94
   8   2 -10    4.48    3.90
  -1   4 -16    1.66    3.99
   1  -4  16    7.11    6.30
  -1   4 -16    6.86    4.01
  -1   4 -16    1.67    4.16
   9  10   2   14.07    6.48
   9  10   2    7.76    4.15
  -3 -14  -3   48.16    6.00
   3  14   3   45.94    6.01
   6  13   4   32.05    5.52
  -1  -4 -18   61.98    5.37
   6  13   5    9.57    4.86
   9  10   7   31.99    7.14
   9  10   7   41.54    5.23
   3  14   5   -1.93    4.91
  -2  -1 -18   36.54    4.70
  -2  -1 -18   24.21    4.42
  -4   3 -16   59.51    6.25
  -4   3 -16   59.77    4.89
   7  -1 -12   28.84    4.69
  -7   1  12   24.76    6.03
   7  12   1    3.37    4.54
  -9  -2   8   66.90    7.60
   9   2  -8   82.47    5.53
   9   1  13   34.03    7.71
  -9  -1 -13   37.59    5.88
 -10  -3   5   24.25    6.63
  -2   9 -11   10.47    5.40
   7   0 -12    2.88    4.08
   2  11  14    6.63    4.36
  -2 -11 -14    4.38    5.31
  -5  11  -3    2.51    6.28
   3  11  14   29.32    4.97
 -11  -4  -7    7.01    4.30
 -11  -4  -7   10.68    6.90
   1  13  10    3.69    4.34
  -1 -13 -10    9.85    5.02
  -3  -1  16   40.30    7.09
   3   1 -16   34.20    4.85
  10   8   1   47.65    4.78
  10   8   1   38.73    7.53
   4  -8 -13   13.45    4.72
  11  -1   2   56.41    7.79
 -11   1  -2   45.95    5.35
 -11   1  -2   60.68    8.66
  -2 -12   6   -1.96    6.23
   2  12  -6    7.38    4.44
  -8   5 -10    6.16    6.39
  11  -1   3   52.38    7.84
 -11   1  -3   51.51    5.61
  -9   1 -12   23.17    7.17
   9  -1  12   28.19    7.05
  -7 -12  -8   28.84    5.41
   7  12   8   24.38    4.93
  -7 -12  -8   25.14    5.25
   7  12   8   22.99    6.69
   2  14   6    8.62    4.93
  -2 -14  -6    8.84    5.26
  -2 -14  -6   11.18    4.73
  11   5   6   55.27    8.94
 -11  -5  -6   53.27    8.08
 -11  -2   1   49.61    8.44
  -3   5 -15   48.48    4.78
   3 -10 -12    6.93    4.69
  -6   5 -13    1.54    4.99
 -10   3  -7    5.39    5.05
  10  -3   7    7.57    5.95
 -10   3  -7    6.07    6.89
  -9   4  -9   14.59    5.53
  -9   4  -9    9.22    6.80
   9  -4   9   10.48    5.71
  -2 -11   8   22.94    6.74
   2  -3 -17    1.49    4.37
   2  -3 -17    6.03    3.85
  -8  -7 -14   11.88    4.84
   8   7  14   12.50    4.26
 -11  -1   1    4.54    6.99
   6   2 -13   50.55    5.17
   2  -1 -17   22.38    4.60
   2  -1 -17   20.95    4.25
  11   4   0  116.34   10.07
 -11  -4   0  101.99    9.57
  -1  -1 -18    5.08    3.85
  -1  -1 -18    4.06    4.14
  -1 -10 -15    7.47    5.41
   1  10  15   -3.74    4.09
  -6   8  -9    2.52    5.51
   6  13   3   35.71    5.71
  -4  12   5   48.38    6.06
  -7  -2 -16    8.52    4.19
  -7  -2 -16   19.09    5.09
   2  -4  16   75.72    7.71
  -2   4 -16   59.37    6.05
  -2   4 -16   76.68    5.52
   4   2 -15   19.06    4.37
   4   2 -15   23.73    4.57
  -4  -2  15   27.62    6.92
  -7   9  -4   22.39    5.83
  -7   9  -4   16.98    6.91
   0  10 -10   25.66    5.20
   0 -10  10   19.60    6.70
   3 -12  -8    9.45    4.43
  -7 -11 -11    2.14    4.86
  -7 -11 -11    6.16    4.71
   7  11  11   -2.51    4.45
   1  -9 -15   10.49    3.02
  -1   9  15   10.05    3.70
   1  -9 -15   12.49    5.20
   4  -9 -12    1.15    4.49
  -8   8  -3    6.31    5.14
  -8   8  -3    5.85    7.16
  -8  -3 -15   19.11    4.38
   8   3  15   25.08    7.57
   4  10  15   29.56    5.06
  -4 -10 -15   36.56    6.00
  -1  10  14   48.71    4.87
   1 -10 -14   51.93    6.19
   6  13   6    7.47    4.87
   6  13   6    8.29    6.07
  -6 -13  -6   12.45    5.14
   7  -1  15   15.02    6.73
  -7   1 -15   18.81    5.41
  -7   7  -9   21.22    6.67
  -7   7  -9   20.83    6.11
  -2  -5 -18   73.70    6.33
  -2  -5 -18   52.57    5.29
  -6  -7  10   21.34    7.52
   6   7 -10   23.14    4.69
   6   7 -10   19.68    4.02
  -7   8  -7   21.69    7.24
  -9  -9 -10    4.37    4.66
   9   9  10    1.68    4.26
   9   9  10   -3.18    6.96
   0   2 -17    6.43    4.15
   0   2 -17    6.22    4.01
   0  -2  17   11.33    6.43
  10   5  11   62.59    8.86
 -10  -5 -11   69.04    6.45
  -9   6  -5   11.56    5.51
  -9   6  -5   20.23    7.55
  -6 -12   2    3.49    6.42
   6  12  -2    5.98    4.48
  -6  10  -4   15.64    6.74
   2   9 -11   17.75    3.69
   2   9 -11   20.80    4.85
   4  13  -2   11.61    4.38
   4  13  -2   18.11    5.14
  -4 -13   2   21.42    6.35
   8   4  15   13.69    7.24
  -8  -4 -15   11.67    4.93
  -8  -4 -15   10.37    4.43
   2   6 -14   17.91    4.17
   2   6 -14   24.51    4.70
  -2  -6  14   19.78    6.99
 -11   1  -1   38.59    8.20
  -5   0 -17   28.00    4.52
  -5   0 -17   25.18    5.24
  -5   0 -17   27.68    4.01
  -6   9  -7    6.62    6.30
  -6   9  -7    6.11    5.50
   6   8  -9   37.52    5.12
   6   8  -9   31.83    4.15
  -3 -14  -2   39.64    5.83
   3  14   2   26.33    5.32
  -3  12  -4    4.93    5.40
 -11   0  -6   34.68    8.04
  11   0   6   24.94    7.38
   0   4 -16   37.17    4.72
   0  -4  16   36.51    7.07
   0   4 -16   23.55    4.43
  11  -1   4   43.27    7.58
 -11   1  -4   35.20    5.34
  -1  12  11   11.20    3.91
   1 -12 -11   11.93    5.05
  -2 -14  -1   17.38    5.66
   2  14   1   23.94    5.44
  -2 -14  -1   15.49    5.23
   4   8 -11   21.55    3.83
   4   8 -11   19.56    4.83
  -4  -8  11   25.42    7.41
  -6   4 -14    0.29    4.87
  -3 -13   3   56.90    7.33
   3  13  -3   57.12    5.95
  -3   8 -12   -6.50    4.03
  -3   8 -12   -0.59    5.00
  11   1   7   82.45    9.38
 -11  -1  -7   84.13    7.14
 -11  -1  -7   98.23    9.95
  -7  -5 -16   56.25    5.75
  -8   8   3   14.54    4.79
  -8   8   3   12.18    7.35
   4  -5 -15    2.14    3.56
   4  -5 -15   11.24    4.49
 -10   4   2   57.12    5.88
 -10   4   2   77.54    9.16
   3  14   6    6.10    4.83
 -10   4  -5    3.11    5.03
  10  -4   5    8.65    5.73
 -10   4  -5    2.84    7.18
  -1 -14  -1   70.34    6.85
  -1 -14  -1   87.14    6.68
   1  14   1   77.86    6.82
   1  14   1   69.16    6.77
   4  13  10    6.39    4.57
  -4 -13 -10    5.04    5.08
  -6   7  11   11.75    6.37
   8   7  -7   54.25    5.02
   8   7  -7   55.83    5.06
  -4  10  -8   -5.61    5.49
  -7   2  12   29.48    6.32
  -4  -7  12    9.50    7.06
   4   7 -12    4.27    3.61
   4   7 -12   -0.89    4.47
  -5   6 -13   10.28    5.32
  -6   6 -12   14.30    5.69
  -3  -5 -18   14.17    4.99
  -3  -1 -18   51.63    5.02
  -3  -1 -18   49.02    5.36
  -5   5 -14    6.53    5.06
  -1 -14  -6   42.18    5.58
  -1 -14  -6   41.44    5.97
   1  14   6   36.65    5.74
  -5  11   6   17.81    5.06
   8  10  11   32.88    7.46
   8  10  11   31.18    4.91
  -8 -10 -11   30.73    4.91
   8  10  11   26.90    5.03
  -8 -10 -11   26.61    5.51
  -1  12  -6   21.14    5.50
  -3   2 -17   22.67    4.99
  -3   2 -17   23.36    4.18
 -11  -3   1   41.85    7.92
  11   3  -1   56.13    8.10
  -7   6  10   52.24    7.63
   7   1 -12    6.23    4.08
   5  13   9    4.80    4.64
  -5 -13  -9    4.70    5.06
   0 -14  -3    2.71    4.85
   0  14   3    4.18    4.93
  10   8   8   11.09    7.30
  10   8   8    7.01    4.10
  -6  -3 -17   22.67    5.13
  -6  -3 -17   14.08    4.63
  -1 -10  10   11.95    6.70
  -9  -6 -13   51.89    5.44
   9   6  13   51.68    8.58
  11   5   1   20.52    7.40
 -11  -5  -1   15.14    7.21
  -7   9   5   23.18    5.25
  -7   9   5   29.25    7.65
  -5  -6  12  114.08    9.70
   5   6 -12   76.61    6.16
   5   6 -12  110.18    6.65
   5   9  -9    6.94    3.17
   5   9  -9   -2.49    4.59
  -3  10  -9   -3.72    5.35
  -1  -9 -16   30.73    3.65
  -1  -9 -16   39.96    5.97
   1   9  16   45.86    4.98
   0  14   4    8.35    4.97
   0 -14  -4    4.98    4.81
   3  -7 -15    8.77    4.79
   3  -7 -15    3.15    3.41
  -6   1 -16   40.02    4.60
  -6   1 -16   43.41    5.94
   6  -1  16   40.49    7.12
 -10  -1 -11    1.81    6.66
 -10  -1 -11    5.48    5.08
  10   1  11    2.39    6.66
  -4  -3 -18   44.48    5.47
  -8   7   6   15.50    7.24
  -8   7   6   12.41    4.52
  -6  -4 -17   82.59    6.54
   8   6  -8   56.71    5.06
   6  -4 -13   28.27    4.55
  -6   4  13   30.23    6.49
  -1  13  -3   18.14    5.95
  -4  -9 -16   11.82    5.51
   4   9  16    9.70    4.43
  -9   2   8   23.39    6.78
   8   2  15    3.64    6.80
   0  -3 -18   17.28    4.54
   0  -3 -18   16.60    4.05
  -1  10 -10   56.81    6.60
   0  -2 -18   10.05    4.39
   0  -2 -18    3.04    3.77
  -7   7   9   12.41    6.76
  -7   7   9    7.56    4.11
 -11   0   1   22.86    7.62
   0  14   2    0.50    5.00
   0  14   2   17.59    5.26
   0 -14  -2   11.28    4.94
  -6  10   6    9.64    6.64
  -6  10   6    9.20    4.77
  -3  11  -7    2.64    5.27
   4  -7 -14    6.07    4.57
  -1 -11 -14   27.53    5.68
   1  11  14   27.58    4.81
  -4  -4 -18   22.83    5.14
   3  -5 -16   11.78    3.78
   3  -5 -16   15.55    4.79
  -5 -11   6    0.15    6.62
   7   4 -11   35.89    4.80
   4  11  14   29.48    5.14
  -4 -11 -14   38.94    6.19
  -4 -11   7   50.03    7.73
   6  13   2   38.30    5.68
  -4 -12   5   30.38    7.02
   9  10   1   19.47    6.45
   9  10   1    5.81    4.17
   2 -12 -10   29.75    5.27
  -7   4 -13    2.30    5.18
  -1  -5 -18   39.19    4.67
  -6   8  10   47.95    7.59
  -6   8  10   41.85    4.98
   4 -12   2    5.20    4.08
  -4  12  -2   -1.26    5.71
  -4  12  -2    1.96    6.29
   2  -4 -17   15.69    4.68
   2  -4 -17   17.31    3.97
   0  -7 -17   32.81    5.60
   0  -7 -17   20.82    3.75
  -8  -5 -15   77.93    6.34
   8   5  15   66.23    8.75
   7   9  14   48.44    5.57
  -7  -9 -14   46.31    6.11
   6   6 -11   12.99    4.48
  -6  -6  11   19.31    7.52
   6   6 -11   14.75    4.07
   0  12  12    8.39    4.41
   0 -12 -12   17.25    5.47
   0  12  12   13.20    4.17
   9  10   8   31.67    7.44
   9  10   8   33.51    5.07
 -10   3   4   14.60    7.15
  -6 -10 -14   17.72    4.88
  -6 -10 -14   20.14    5.50
 -11  -5  -7   37.94    4.95
  11   5   7   43.47    8.37
   8  11   0    8.90    4.37
  -6 -13  -7    6.81    4.90
  -6 -13  -7    3.03    4.95
   6  13   7    6.60    5.95
   9   6  -6    2.67    3.69
 -11   1   0   26.82    7.92
 -11  -3  -8   85.47    6.80
  11   3   8  105.15   10.00
   1  -6 -17   43.98    5.64
   1  -6 -17   26.30    4.18
  -8   3  10   11.69    6.45
   2  14   7    5.58    4.84
  -2 -14  -7   11.66    4.95
   2   3 -16   25.39    4.52
  -2  -3  16   32.43    6.85
   2   3 -16   28.73    4.79
   8   8  -6   37.36    4.64
   8   8  -6   34.18    4.68
  -6  -9 -15   72.06    6.71
  11   6   4   -6.89    7.88
  -7   5 -12   31.81    6.16
  -7   5 -12   31.07    6.90
  -4   9 -10    0.97    5.51
  -4  -2 -18   29.68    5.11
   2   0 -17   28.06    4.70
  -2   0  17   26.96    6.51
  -6  -2 -17   10.87    4.75
  -6  -2 -17   10.79    4.42
   8  11   9    9.28    4.54
  -8 -11  -9    9.12    5.15
   8  11   9   -3.11    6.15
   4   9 -10   13.14    4.79
   4   9 -10   11.24    3.41
   5  -5 -14   34.41    4.89
  -6   6  12   15.41    6.28
   6  -6 -12    9.15    4.08
   0 -14  -5   23.66    5.44
   0  14   5   21.35    5.31
 -11   1  -5   28.80    5.22
 -11   1  -5   29.22    8.10
  11  -1   5   28.56    7.15
   9   7  -5   12.43    3.79
   1  13  -4   12.19    5.22
  -1 -13   4   23.80    6.37
  -2  11  12   -0.82    3.55
   2 -11 -12   -1.77    4.80
 -10   2   5   33.69    7.55
   4  14   4    8.72    5.11
   9   3  -8   25.83    4.03
  11   6   5    3.08    7.78
  -5  10   9   10.62    4.50
   4 -11  -9   14.18    4.56
  -2  13   7    7.26    4.09
   2 -13  -7    6.24    4.47
  11   6   3    2.54    7.48
  -6  -9   8   45.97    8.06
   6   9  -8   40.25    4.15
   6   9  -8   50.59    5.42
  -9   6   4   17.63    4.67
  -9   6   4   13.50    7.37
   3  14   1   23.52    5.39
  11   2   8   57.95    8.74
 -11  -2  -8   53.90    6.05
 -11  -2  -8   55.87    8.80
  -5 -12   4    6.22    6.61
  -2  13  -2    8.51    5.61
  -5   7 -12    0.32    5.05
  -2   0 -18   31.98    4.60
   2   0  18   34.75    6.20
  -5 -13   1    5.67    6.06
   5  13  -1    7.08    4.90
   4  14   5    6.94    5.13
   8  -1  14   16.78    6.70
   7   1  16   26.60    7.28
  -7  -1 -16   28.65    5.45
  -2  -8 -17    2.19    3.22
   7  10  -5   66.44    5.68
  -7 -10   5   46.19    7.97
  10   7  10   32.41    8.09
  10   7  10   25.82    4.55
  10   8   0   36.33    7.13
  10   8   0   35.23    4.53
   7  12   0    7.77    4.70
   1  -8 -16   -1.53    3.18
   1  -8 -16    0.22    4.96
   7  10  13   28.89    5.06
  -7 -10 -13   18.75    4.97
  -7 -10 -13   28.84    5.66
   0  -4 -18    7.84    3.85
   0  -4 -18   13.38    4.94
  -6  -5 -17  114.10    7.68
  -3  -8 -17    7.26    5.24
  -3 -14  -7   -0.31    4.88
   3  14   7    0.25    4.78
   9   9  -2   36.99    4.95
   9   9  -2   33.11    6.54
   9   9  -2   39.48    4.40
  -3  -4  15   12.38    6.79
   3   4 -15    8.65    4.00
  -3  13   2   15.44    4.70
   3 -13  -2   16.74    4.80
   7  11  -3   34.40    5.08
  -7 -11   3   36.12    7.43
 -11  -4  -8   13.44    4.60
 -11  -4  -8   14.52    7.26
   4   6 -13   42.17    5.14
   4   6 -13   34.90    4.57
  -4  -6  13   37.37    7.52
  -1  11  13    6.55    4.00
   1 -11 -13   11.77    5.32
   8   3 -10    1.85    3.89
   0  -1 -18   -0.72    4.30
   0  -1 -18    0.48    3.79
 -10   2  -9   -1.19    4.83
 -10   2  -9    1.66    6.92
  10  -2   9    2.11    6.33
  -7   5  11   37.98    7.33
  -5 -12 -12   37.61    6.00
   5  12  12   30.38    5.22
  -5 -12 -12   25.39    5.64
  10  -1  10   -0.19    6.46
 -10   1 -10    0.21    7.19
   0  14   1   20.71    5.49
   0  14   1   12.67    5.31
   0 -14  -1    7.72    4.84
   4  14   3    9.64    5.07
  -5   9  -9   28.42    6.26
   3 -13  -3    9.72    4.69
  -3  13   3    6.26    4.35
  -8   8  -4   40.91    7.91
  -8   8  -4   43.66    6.38
  -1   0 -18    8.10    4.23
  10   7  -2   53.18    7.48
   7  12   9   21.06    5.10
   7  12   9   21.74    6.56
  -7 -12  -9   19.76    5.18
  -7 -12  -9   16.78    5.25
  -3   4 -16    6.59    4.85
  -3   4 -16   12.09    3.91
  -8   7  -7   47.45    6.94
  -8   7  -7   51.48    8.29
   1  14   0    6.13    4.97
  -1 -14   0   14.93    5.59
   1  14   0    7.93    5.02
  -2  11  -8   12.29    5.44
  -4  12   6   46.57    6.07
  -9   4   7   12.16    7.08
   2  14   0   30.98    5.43
  -2 -14   0   20.64    5.82
   2  14   0   34.67    5.69
   2  -7 -16    5.28    3.39
   2  -7 -16   12.54    4.98
   9   0  13    9.07    6.63
  -9   0 -13   11.97    5.49
 -10  -1   6    2.03    6.31
  -4  11  -6    3.86    5.38
   0 -13   4   28.60    6.41
   0  13  -4   19.90    5.62
   4 -10 -11   29.79    4.94
  -1 -14  -7   32.70    5.44
   1  14   7   32.20    5.46
   2  13  -4   -5.49    5.06
  -2 -13   4   -0.81    6.24
  -5  -7 -17    8.49    5.05
  -6 -12 -11   19.05    5.58
  -6 -12 -11   26.95    5.39
   0  13  10    0.93    4.11
   0 -13 -10    0.10    5.06
  -7   3  12   29.29    6.79
   7  -3 -12   32.36    4.38
 -11  -4   1   11.92    7.13
  11   4  -1   32.43    7.61
   9   5  -7    2.98    3.72
  -3  13   1   15.62    6.18
  -3  13   1    5.68    5.57
   3 -13  -1   11.31    4.64
  -3  13   1   13.72    4.77
  -8   6  -9   23.24    7.19
  -9   5  -8   45.14    7.98
  -9   5  -8   32.80    6.24
   9  -5   8   28.07    5.97
  -3 -12   6   53.74    7.57
  -4  -5 -18    1.37    4.71
  10   6  11   38.81    4.69
  -5  11  -4   19.92    6.72
  -5  11  -4   11.43    5.62
  -7  -6 -16   54.49    5.94
 -11  -2   2   40.46    7.92
   7   8  15    7.22    4.34
  -7  -8 -15   16.42    5.27
 -11  -1   2   17.79    7.43
   8   5  -9   64.74    5.31
  -8   8   4   38.33    5.41
   2  12  13    5.07    4.43
  -2 -12 -13   13.09    5.48
   2  12  13    2.71    4.19
   3  12  13   -2.27    4.42
   3  12  13    2.94    4.24
   8  10  -3   36.43    4.85
   5  -8 -12   11.11    4.46
  11   6   6   11.58    7.51
  -6   7 -11   44.34    6.75
  -2 -13 -11   29.43    5.79
   2  13  11   31.66    5.18
 -10   0   6   22.32    7.12
   7   2 -12   40.59    4.83
  -5  10  -7    1.16    5.51
  11   0   7   18.75    7.32
 -11   0  -7   16.24    7.73
   4  14   6   -2.46    4.93
   1 -13  -9   34.46    5.46
  -1  13   9   24.39    4.57
  11   5   0   76.50    9.03
 -11  -5   0   57.28    8.22
  -9   5   6   -6.69    7.04
  -5  -3  14    2.92    6.79
   5   3 -14   -1.60    4.40
   5   3 -14    5.05    4.05
 -11  -6  -2   10.70    6.94
  11   6   2    8.82    7.53
   7   7  -9    2.01    4.21
   3  13  11   27.55    5.05
  -3 -13 -11   31.04    5.87
  10   9   4   55.65    8.16
  10   9   4   41.24    4.82
  10   9   5   30.73    4.58
  10   9   5   21.89    7.12
  -2  -6 -18   54.35    5.04
  -1  -4  16   13.29    6.67
   1   4 -16   18.09    4.51
   1   4 -16    8.78    4.04
   2   5 -15    7.39    3.94
  -2  -5  15    5.54    6.94
 -10   4   3   37.76    8.00
 -10   4  -6   36.17    5.98
  10  -4   6   51.28    7.10
 -10   4  -6   41.20    8.35
   8   1  15    1.57    6.87
   3 -13  -4   16.85    4.89
  -3  -2  16   30.13    7.08
   3   2 -16   24.87    4.49
  -9   7  -1   14.86    5.32
  -9   7  -1   22.05    7.55
   0 -14  -6   22.73    5.52
   0 -14  -6   26.36    5.10
   0  14   6   18.94    5.16
  -4   6 -14   75.31    5.28
  -4   6 -14   69.84    6.92
  -9   7   0   -0.14    4.86
  -9   7   0   16.00    7.39
  -8   5   9   18.68    7.28
   9   8  12    6.06    4.45
  -9  -8 -12    4.81    4.72
   9   8  12   -3.70    7.36
  -6 -13  -1   28.77    6.62
   6  13   1   39.66    5.73
  -6 -11   5   22.64    7.20
  -7   9  -5    9.48    6.83
  -8   6   8   -3.00    6.91
  -9   6  -6    6.74    7.35
  -9   6  -6    7.25    5.61
  -3  -6 -18   42.78    6.04
   0  10  15   -3.45    4.11
   0 -10 -15    5.17    5.30
  -3   0 -18   19.28    4.19
   3   0  18   24.76    5.91
  -3   0 -18   24.80    4.85
   7   8  -8    7.12    4.36
 -10   5  -1   -2.08    4.88
 -10  -2   6   17.07    6.70
  -3 -11   8   10.41    6.84
   1   2 -17    9.28    4.05
   1   2 -17    9.69    4.36
  -1  -2  17   11.68    6.53
  -4  -1 -18    1.12    3.90
  -4  -1 -18    6.31    4.46
  -4  -1 -18    9.84    4.56
  -6 -11 -13   16.00    5.06
  -6 -11 -13   10.97    5.41
 -11   1   1   12.08    7.56
   9   8  -4   40.35    4.80
   9   8  -4   35.64    4.46
   3   8 -12   27.63    4.26
 -10   5  -2    5.58    7.40
 -10   5  -2    5.49    5.04
   3 -11 -11   10.50    4.85
  11   1   8   27.26    7.96
 -11  -1  -8   31.49    5.62
  -5 -10 -15    5.15    5.22
   6  13   8    4.69    6.25
  -6 -13  -8    6.55    5.14
 -11   2  -2   32.79    5.24
  10   8   9   23.15    7.83
  10   8   9   21.48    4.49
  -1   7 -14   18.30    4.67
  -1   7 -14   21.38    4.89
   1  -7  14   35.38    7.28
  -3   9 -11    0.47    5.38
   6   3 -13   13.85    4.39
 -10   3  -8   10.54    7.43
  10  -3   8   12.80    6.37
 -10   3  -8    6.76    5.16
   5  -7 -13    3.29    4.45
  -7   8   8    3.83    4.36
  10   9   3   26.60    4.40
  10   9   3   12.34    7.23
  -6  -1 -17   14.47    5.07
  -6  -1 -17    9.47    4.31
   5   5 -13   22.46    4.50
   5   5 -13   37.68    5.00
  -5  -5  13   35.06    7.77
  10   9   6    9.05    4.12
  10   9   6   21.48    7.27
  -1  -8 -17   32.18    3.93
   0   7 -14    3.81    4.32
   0  -7  14   11.88    6.92
 -11   2  -3   19.74    5.10
  11  -2   3   19.13    6.55
  -8  -6 -15   37.33    5.37
  -6  -8 -16   89.45    7.33
  -6  10  -5   52.39    7.95
  -2  10 -10    5.26    5.44
   9   3  14   45.41    8.39
 -10   0 -11   51.12    8.31
  10   0  11   54.10    8.13
 -10   0 -11   51.72    6.60
 -11   1  -6   27.22    5.26
  11  -1   6   29.10    7.31
  -4   7 -13    7.53    5.26
  -4   7 -13    1.72    3.76
  -3  -7  13   10.55    7.21
   3   7 -13    6.99    3.68
  -9   7  -2    7.37    5.38
  -9   7  -2    9.03    7.35
   5  -1 -15   43.00    5.29
 -10   5   0   18.12    5.14
  -3  13   0   23.52    5.19
   3 -13   0   18.58    4.80
  -3  13   0   24.28    6.59
 -11  -3   2   35.66    7.69
   9   4  14    6.49    7.29
   0   8 -13    7.38    4.54
 -11   0   2   15.67    7.54
  10   3  12   43.77    8.26
 -10  -3 -12   60.59    6.41
 -11  -5  -8   27.12    4.87
   8   9  13   -1.90    7.00
   8   9  13    6.41    4.44
  -8  -9 -13    3.63    4.92
  -9   7   1   14.66    4.94
   9  10   0   49.87    5.35
   9  10   0   49.42    7.30
   8   9  -5    9.10    4.17
   8   9  -5   14.83    4.27
  -1   8 -13   32.51    5.41
  -1   8 -13   30.22    5.02
  -5  11   7   17.07    5.09
   2  14   8    1.97    4.65
  -2 -14  -8    3.82    4.85
   5  -2 -15   18.74    4.74
   2  -5 -17   21.07    4.96
   2  -5 -17   12.05    3.97
   7   6 -10   -0.15    4.21
   9  10   9   22.09    7.50
  -9 -10  -9   25.31    5.19
   9  10   9   25.19    4.88
  -9   3   8   35.15    7.50
   0  14   0    0.13    4.92
   0 -14   0    5.11    4.92
   0  14   0    6.35    5.17
   0 -14   0    5.66    5.36
  -4   5 -15    3.75    4.76
  -4   5 -15    1.72    3.63
 -10  -4 -12   32.61    5.40
   0  -9 -16   14.69    5.44
   0  -9 -16    5.96    3.00
  -6  -5  12    3.45    7.15
   6   5 -12   -0.08    4.21
   6   5 -12    1.00    3.85
  -1   3 -17   26.70    4.69
   1  -3  17   30.85    6.76
  -1   3 -17   19.34    4.44
  -7   9   6    0.25    4.76
  -4   2 -17   18.25    3.97
  -4   2 -17   13.87    5.07
  -5 -13 -10    6.26    5.19
  -4  12  -3   14.58    6.65
  -3 -14   0   48.28    6.68
   3  14   0   51.91    5.95
  -9  -7 -13   13.66    4.94
   9   7  13    8.08    4.32
  -9   3 -11   18.20    7.25
   9  -3  11   13.79    6.49
  -5   1 -17   85.40    7.09
  -5   1 -17   79.62    5.99
 -10   1   6   66.51    8.56
 -10   5  -3   13.36    7.72
 -10   5  -3   10.26    5.26
  -9  -9 -11    3.75    4.80
   9   9  11    3.65    7.14
   9   9  11   -2.49    4.48
  -2  12  -6   26.62    5.87
   0  -5 -18   -2.74    3.66
  -6   9   9   16.92    4.64
   3 -12  -9   22.41    4.99
  -4  -3  15   35.91    7.43
   4   3 -15   20.57    4.43
  -1 -13 -11   12.97    5.38
   1  13  11   12.68    4.51
   0   0 -18   25.10    4.70
  -5  -9 -16   21.89    5.77
  -2  -1  17   17.48    6.65
  -1  -6 -18    7.93    3.65
   1 -14  -3    8.53    5.03
  -1  14   3    7.83    5.12
  -2   3 -17    2.88    4.45
  -2   3 -17    5.00    4.11
   2  -3  17    9.41    6.21
  -4 -13   3   61.94    7.64
   8   8  14    5.69    4.38
  -8  -8 -14    9.02    4.97
  -1   6 -15   65.34    5.71
   1  -6  15   70.90    8.02
  -6  -6 -17   28.54    5.50
   3  14   8   -0.76    4.59
  -1 -12 -13   61.86    6.62
   1  12  13   39.32    5.23
   4  12  13    7.17    4.45
   0  11  14   50.41    5.34
   0 -11 -14   61.60    6.70
  11  -2   4   -1.40    6.21
 -11   2  -4    2.12    4.51
   3   9 -11   25.05    3.80
   1  12  -7    7.38    4.82
  -1 -12   7    9.92    6.56
  11   6   1   26.11    7.63
 -11  -6  -1    6.96    6.78
   6  12  -3   16.58    4.84
  -6 -12   3    7.33    6.97
  -3  12  -5    3.47    5.24
   9  -2  12    7.71    6.25
  -9   2 -12    2.32    6.76
   0 -12   7   17.64    6.52
   0  12  -7    6.80    5.14
   9   2  14   35.44    7.96
 -10  -2 -12   26.02    5.63
  10   2  12   18.12    7.43
   8  11  -1    9.08    4.33
  -6  11   1    1.37    7.14
   1 -14  -2   19.87    5.11
  -1  14   2   17.51    5.18
  -1  14   2   24.71    5.87
   1 -14  -4    6.15    4.98
  -1  14   4    6.45    4.99
   4  13  11    9.65    4.70
  -4 -13 -11    5.80    5.24
  -5   8 -11   15.06    5.85
   4  -6 -15   25.82    4.17
   4  -6 -15   30.22    5.01
  -7 -11 -12    7.98    5.25
  -7 -11 -12    8.08    4.91
  -6  10   7    9.34    4.72
 -11  -3  -9  114.04    7.91
  -6   5  13   15.34    6.24
   6  -5 -13   12.74    4.36
  10   9   2   10.99    6.84
  10   9   2   15.15    4.22
   0   6 -15    2.20    3.83
   0  -6  15   -0.15    6.69
   0   6 -15    1.73    4.28
  -8 -11 -10    5.41    4.67
  -8 -11 -10    3.02    5.08
   8  11  10    5.63    4.59
   8  11  10    1.60    6.22
  -5   3 -16    7.55    5.39
 -10   5   1    6.91    4.77
  10   9   7   65.28    8.92
  10   9   7   77.32    6.00
  -8   4 -12   33.47    7.49
  -5  -3 -18   28.74    5.16
  -6  11   2    5.41    5.67
  -6  11   2   12.98    7.19
  -2   7 -14   26.31    4.58
  -2   7 -14   25.08    5.51
   0  11  -9   18.92    5.34
   1  14  -1    1.42    4.77
   1  14  -1    1.06    4.91
  -1 -14   1   -3.75    5.68
  -1  13  -4   47.00    6.66
  -9   7  -3   25.90    7.81
  -9   7  -3   23.17    5.83
   7   9  -7   23.01    4.72
  -9   0   9    4.42    6.29
   9   0  -9    7.79    3.89
  -6  11   0   -1.76    6.93
   8   0 -11   41.40    4.88
  -3 -13   4   30.17    6.94
   7   0  16   14.92    6.96
  -7   8  -8   43.10    7.88
  -4 -14  -1   24.27    6.17
 -10  -3   6   50.07    7.38
   2 -13  -8   20.04    4.95
   9  -4  10   18.70    6.31
  -9   4 -10   26.67    7.53
  -5  -4 -18   36.10    5.56
  -4  -5  14   12.23    7.15
   4   5 -14    2.30    3.92
  -8   4  10   33.18    7.25
  -8   8  -5   32.06    7.97
  10   8  -1   13.50    6.40
   6  -1 -14   10.24    4.59
   1  14   8   25.28    5.20
  -1 -14  -8   27.38    5.42
  -7  10   1    7.92    5.27
  -7  10   1    6.36    7.24
   7  -2  15    4.58    5.98
   2  14  -1    3.38    4.87
  -2 -14   1    0.12    5.75
  -2  13  -3    5.43    5.69
   9   4  -8    2.82    3.89
  -9   7   2    9.47    4.73
   8  12   5   45.00    5.67
   8  12   5   42.16    7.68
   3  -6 -16    1.48    4.79
   3  -6 -16    0.42    3.56
  -7  10   0    9.15    5.26
  -7  10   0    1.21    7.10
   0  14   7   77.03    6.68
   0 -14  -7   74.89    6.48
   1   8 -13    3.34    3.61
   7  12  -1   16.43    4.88
  -8   3 -13   15.56    6.89
   8  -3  13   24.71    6.25
 -10  -5 -12   19.40    5.09
   8  10  12   13.29    4.71
   8  10  12    3.97    6.91
  -8 -10 -12    9.96    4.52
  -8 -10 -12   19.72    5.43
 -11  -4  -9    5.59    4.68
   9   1  -9    6.47    4.03
   8  12   4   51.58    7.48
   8  12   4   42.26    5.66
   8  -1 -11   24.65    4.45
  -8   1  11   28.81    6.49
   0   9 -12   70.28    6.09
   0   3 -17   30.12    4.84
   0  -3  17   35.66    7.12
 -11  -2  -9   52.43    6.15
   1   7 -14   23.37    4.30
 -10   3   5    9.44    7.29
  -4  12   7   28.12    5.50
  -3  -6  14   15.09    7.32
   3   6 -14    1.35    3.68
  -2   1 -18   21.19    4.36
  -2   1 -18   22.37    4.79
   2  -1  18   21.12    6.36
  -2   6 -15   42.84    4.92
  -3  13  -1    0.94    6.18
   3 -13   1    0.52    4.38
   7  12  10   18.90    6.30
  -7 -12 -10   29.12    5.42
 -10   5  -4    0.15    4.94
  -1  14   1   16.81    5.25
   1 -14  -1   17.71    5.04
  -1  14   1   18.12    5.72
  11   5  -1    5.18    6.88
 -11  -5   1    1.71    6.53
   6   0 -14   21.82    4.61
  -5 -13   2   13.67    6.55
  -4   8 -12    6.19    5.43
  -4   8 -12    1.85    3.85
   1  -1  18   41.15    6.80
  -1   1 -18   43.50    5.06
  -1  14   5    3.49    4.72
   1 -14  -5    3.35    4.91
   6  -2 -14    2.92    4.50
   8  12   6   19.29    4.95
   8  12   6   23.36    7.24
  -6 -13   0   32.92    6.81
  -8   8   5   36.85    5.50
  -7  10   2    6.22    7.41
  -7  10   2   -8.95    5.61
  -7   4  12    3.80    6.37
  -9   1   9   21.84    6.67
  -2   8 -13    4.80    4.35
  -2   8 -13   11.44    5.39
  -5  -2 -18   31.04    5.27
  -5  -2 -18   24.44    4.90
   8   1 -11   17.87    4.32
  -1   9 -12   25.03    5.50
  -1   9 -12   20.97    4.95
  -6  11   3   11.95    5.73
  -6  11   3   19.10    7.36
  -6   2 -16   27.82    5.82
 -11  -4   2    9.49    6.69
 -11   1   2    4.17    7.16
  11  -2   5    4.83    6.46
 -11   2  -5    0.41    4.63
  -8   5 -11   -1.63    6.95
  -7  10  -1    1.99    6.98
   3  -9 -14   14.24    3.46
   3  -9 -14   19.16    5.14
  11   7   4    1.74    7.80
 -11   0  -8    1.72    5.21
  11   0   8   11.63    7.27
   8   4 -10   40.33    4.81
  -7  -7 -16    7.93    5.09
  -6 -13  -9   10.14    5.23
   1  -7 -17   19.88    3.79
   7   3 -12   21.14    4.52
  -6  11  -1    2.70    6.87
  11   7   5   28.01    8.40
   8  12   3   27.12    5.25
   8   0  15   21.40    7.26
   1 -12 -12   -2.21    5.05
  -1  12  12    2.94    4.12
  -4   0 -18   10.88    4.45
  -4   0 -18    4.94    3.96
  -4   0 -18   12.54    4.77
 -11  -1   3   13.41    7.37
  10   7  11   16.69    4.41
  -4   4 -16   12.42    5.32
  -4   4 -16   15.30    3.98
  -1  11  -9   34.34    6.11
 -10   4  -7   12.89    5.50
 -10   4  -7   15.33    7.59
  10  -4   7    9.19    6.03
   5  -6 -14   24.22    4.91
  11  -1   7   10.41    6.93
 -11  -2   3   43.63    7.83
  -3   3 -17   45.34    5.75
  -3   3 -17   45.34    4.85
  -5  -5 -18   49.19    6.09
   9  11   5   -4.95    4.45
   9  11   5   -0.76    6.46
   0  14  -1   15.31    5.67
   0  14  -1   26.82    5.50
   0 -14   1   21.08    5.95
   1  -4 -18    6.92    3.77
  -1  12  -7   25.11    5.73
   2  -9 -15   30.38    3.94
   2  -9 -15   47.77    5.92
   7   5 -11   10.91    4.44
  11   7   3    3.41    7.53
   9   9  -3   70.20    6.04
   9   9  -3   72.22    5.41
   2 -10 -14   25.06    5.54
   5 -12  -2   16.02    4.63
  -5  12   2   13.03    6.87
   9  -1  13    7.26    6.55
   9  11   4   13.84    4.55
   9  11   4   25.90    7.18
  -5  12   1   12.48    6.87
   5 -12  -1    6.37    4.31
  10   1  12   16.84    7.37
   2  10  16   11.43    4.61
 -10   2   6   38.77    7.92
  -6   0 -17   40.21    4.88
   2 -12 -11   26.83    5.39
 -10   5   2   27.88    5.23
  -8   2  11    2.17    6.02
   9   1  14   60.78    8.67
   9   2  -9   47.02    4.79
  -1   5 -16   -3.64    4.34
   1  -5  16    1.58    6.78
  -1 -13   5   14.25    6.65
   1  13  -5    4.78    5.11
  10   9   1    8.46    6.54
  10   9   1    8.71    4.13
   3 -10 -13    4.20    4.84
  11   6   0   16.65    7.36
 -11  -6   0    3.71    6.42
  10   8  10   34.94    4.94
 -10  -8 -10   39.43    5.31
   0  -8 -17    6.20    3.26
  10   9   8    4.66    4.20
  10   9   8    3.23    7.31
  10   9   8    3.90    4.03
 -11  -5  -9   24.86    5.00
  -4  10  -9   12.02    5.86
  -9   7  -4   18.72    7.89
  -9   7  -4   24.09    6.07
  -2  -7 -18    5.88    3.41
   9  11   6   -1.62    4.45
   9  11   6    8.48    6.33
   8  12   7   21.88    7.13
  -9   6  -7    4.01    7.29
  -8  -7 -15   11.93    5.10
  -7  10   3   -0.87    5.45
   3  -1  18    3.43    6.00
  -3   1 -18   -2.43    4.57
  -3   1 -18   -1.51    4.03
  -8   7  -8    7.03    7.23
   2  11  15    2.39    4.50
  -1  -6  15   41.58    7.78
   1   6 -15   29.09    4.53
  -7   9  -6   32.48    7.68
   3  14  -1   17.80    4.99
  -3 -14   1   14.30    6.08
  10  -2  10    3.42    6.63
 -10   2 -10    3.57    7.34
 -11  -1  -9   25.34    5.66
   2  14   9    0.49    4.68
   8  -2  14    6.98    6.23
   9  10  -1   47.92    5.32
   3  -8 -15   15.95    5.07
   3  -8 -15    4.96    3.31
  -5  12   3   23.55    7.19
   7  11  -4    1.11    4.01
 -11   0   3   11.79    7.65
  -9  -6 -14   47.35    5.56
  -9   7   3   28.45    5.29
  -3  11  -8    9.85    5.77
  -1  13  10    8.87    4.28
   1 -13 -10    7.82    5.01
  -5  12   0    0.56    6.75
   4  -4 -16   15.02    4.62
   9  10  10   76.36    9.32
   9  10  10   72.17    6.46
  -9 -10 -10   74.50    6.57
   9  10  10   80.58    6.53
   1 -14   0   54.72    5.87
  -1  14   0   51.31    6.22
   2   4 -16   19.69    4.41
  -2  -4  16   32.20    7.33
  -6 -12 -12   17.07    5.37
   9  11   3   23.19    7.35
   9  11   3   20.25    4.64
  -6   3  14   29.97    6.55
  -1  14   6   -0.68    4.62
   1 -14  -6    4.79    4.58
  -7  10  -2   17.66    7.42
   0  13  -5   34.13    5.89
   0 -13   5   31.33    6.85
   0  -6 -18    6.20    3.53
  -5 -12   5    3.27    6.80
  -6  11   4   42.53    6.34
   0  13  11    6.17    4.31
   0 -13 -11    4.74    5.28
   4  -9 -13    5.91    4.80
  -9   5  -9    5.65    7.09
  -4 -14   0   43.73    6.78
   0  -1  18   28.17    6.81
   8  12   2    7.05    4.78
   0  -5  16   10.39    6.93
   0   5 -16   11.12    4.11
 -11  -3   3   16.61    7.00
  -2   5 -16   79.58    5.90
  -2   5 -16   77.36    6.81
   2  -5  16   88.72    8.68
  -9   2   9   38.11    7.32
 -10   1 -11    0.84    7.31
  10  -1  11    7.63    6.73
  -3  -3  16   11.35    6.94
  11   7   2   17.13    7.69
  -7   6  11   44.08    7.86
  -5   4  15    8.41    5.74
   5  -4 -15    5.99    4.27
   8   7  -8   23.78    4.52
   2  -6 -17   17.58    3.91
   0  12  13   51.65    5.54
   0 -12 -13   65.45    6.89
  -4  -1  16    9.03    6.70
   8   2 -11   -0.64    3.96
  -5 -12 -13   32.95    5.68
   9   7  -6   51.00    4.88
 -10   5  -5   -1.10    5.35
  -2 -13   5    7.86    6.62
   2  13  -5   -2.09    5.18
  -6  11  -2   14.17    7.32
  -6  -7 -17   11.32    5.36
  -5  -1 -18    4.76    4.79
  -5  -1 -18    2.92    4.35
   8  10  -4   17.83    4.36
  -8   9   0   16.49    5.56
   4  -8 -14   -1.15    4.71
  -5  -4  14   24.32    7.75
   5   4 -14   20.74    4.57
  -6   7  12   27.36    7.19
 -10   3  -9   12.97    7.83
  10  -3   9   16.70    6.54
  -5  11   8   14.38    4.99
  -3  10 -10   -2.27    5.64
   9   6  -7    6.52    3.96
   3  13  12   17.18    4.95
   3 -13   2    2.36    4.39
  -2   9 -12   29.50    4.87
  -2   9 -12   23.74    5.66
   0 -14  -8   60.16    6.15
   0  14   8   43.09    5.58
  -8   9   1    5.29    5.18
  -7   9   7   -0.49    4.76
   9  11   7    4.57    6.31
   9  11   7    1.53    4.37
  -3   7 -14   -0.77    3.99
  -3   7 -14    3.42    4.95
  11  -2   6    0.18    6.45
 -11   2  -6    2.98    4.83
  -2  -2  17   12.17    6.70
  -9   4   8   22.44    7.69
  -6  -4  13    2.78    7.14
   6   4 -13    4.38    4.03
   5   8 -11   21.78    3.98
  -1  10  15   26.94    4.36
   1 -10 -15   29.48    6.03
   8   8  -7   11.61    4.24
   8   8  -7   27.00    4.61
   7  10  -6   50.37    5.42
  -1 -14   2    5.87    5.95
   1  14  -2   -0.83    5.14
  -8   9  -1   13.84    7.59
  -7  -4 -17    4.95    4.58
  -7 -10 -14   20.46    5.05
   2   9  17   56.18    5.59
  -7  -3 -17    5.76    4.55
 -11   3  -2   14.41    4.98
  -7  -9 -15   37.65    6.02
  -1  -3  17   27.27    7.17
  -3   6 -15   22.41    5.41
  -3   6 -15   31.04    4.47
   1  10  16   10.82    4.35
   2   8 -13    9.63    3.73
  -8  -4 -16    2.50    4.54
  -8   6 -10   37.76    7.74
   8   3  16    2.58    7.29
   2  -8 -16   -0.67    3.15
   2  -8 -16    2.27    5.20
  -1 -14  -9    6.10    5.22
   1  14   9    6.55    4.66
 -10  -1   7   -2.39    6.43
  -1  -7 -18    0.30    3.20
   8  11  -2    1.69    4.27
   7  -1 -13   23.78    4.77
   2 -11 -13    3.65    4.93
   2  14  -2    9.02    5.00
  -2 -14   2    0.26    6.10
  -5  12  -1   19.16    7.44
   8   6  -9   30.79    4.63
 -10   0   7   14.88    7.00
   6   8 -10   46.79    4.71
 -11   3  -1   19.27    5.13
   5   7 -12    9.20    3.84
  -8   8  -6   34.98    8.14
  -3  -5  15   10.75    7.30
   3   5 -15   12.84    4.19
 -11   3  -3   10.69    4.95
   9   8  13   12.58    4.70
  -9  -8 -13   22.83    5.21
   8  12   8   22.87    6.78
   7   0 -13    3.47    4.33
   1  -5 -18    7.45    3.82
   9  11   2   87.33    9.05
   9  11   2   85.36    6.60
   1  11  15   -0.31    4.26
  -8 -11 -11    6.39    4.84
   8  11  11    9.68    6.80
  -8 -11 -11   12.89    5.37
 -11  -3 -10  145.07    9.09
   7  13   7   33.41    7.42
  -7  10   4   -0.85    5.23
  10   8  -2   25.98    6.52
   2   7 -14   19.92    4.14
   9   9  12   -0.56    4.67
  -9  -9 -12    4.11    4.98
   9   8  -5   28.61    4.44
  -8   9   2   12.44    5.06
   6   7 -11   27.57    4.24
   1  -9 -16    7.37    3.17
  -6 -13   1    1.74    6.47
  -7   8   9    0.21    4.30
   2 -13  -9   18.72    5.14
  -2  13  -4   -2.06    5.62
   3 -12 -10   36.60    5.40
  -4   9 -11   10.04    5.80
 -11  -5   2    4.29    6.71
  -8   3  11    1.94    6.52
  -6  10   8   10.96    4.81
   4 -10 -12   16.39    4.91
   7  12  -2   54.56    5.96
  -7 -12   2   61.81    8.14
 -11  -4 -10   64.68    6.49
  -5   2 -17   55.95    6.45
   9   3  -9    1.58    3.87
  -1  10 -11   68.17    7.08
  -4 -13   4   29.12    7.09
   7  -1  16   18.63    6.92
  -3   8 -13   55.99    5.15
  -3   8 -13   40.29    6.34
  -2  11  -9    5.92    5.56
  -8   9  -2   19.96    7.88
  -7  -5 -17    7.15    4.81
   2   9 -12    0.10    3.52
  -7  -2 -17    4.28    4.42
  -7  10  -3   40.17    7.96
  -8   8   6   18.54    5.09
  -2  -2 -19    2.67    4.30
   1 -11 -14   19.89    5.73
  -1  11  14   17.62    4.28
  10   9   0   -0.69    4.13
  10   9   0    9.47    6.32
   2  12  14   -5.83    4.81
  -5   6 -14   13.14    5.62
  -8  -5 -16   15.34    4.89
  11   7   1   28.04    7.74
  -9   7  -5  107.05   10.46
  10   9   9   12.20    4.54
   0  14  -2   11.47    5.64
   0 -14   2   11.04    5.94
  -7 -12 -11    7.48    4.98
  -6 -11 -14    2.38    4.87
 -11  -2 -10   80.52    7.07
  -4  -4  15   25.95    7.59
  10   0  12   43.57    8.02
 -10   0 -12   45.38    8.29
  -1  14   7    5.23    4.64
   1 -14  -7    6.44    4.66
  11  -1   8   49.06    8.20
   8  12   1   10.00    4.87
   9   5  -8    3.98    3.94
  11  -3   4   12.97    6.51
 -11   3  -4    5.46    4.86
   1  13  12    0.44    4.29
   4   8 -12   16.99    3.88
  -1  13  -5   38.08    6.26
   3 -11 -12   25.60    5.24
   2 -14  -3   24.49    5.35
  -2  14   3   21.06    5.27
 -11   0  -9   -4.01    5.49
 -11  -6   1   72.98    8.44
  11   6  -1   87.54    9.21
  -6   6  13    7.64    6.21
 -10   1   7   69.69    8.80
  -9   7   4   19.57    4.98
   9   0  14   17.71    7.06
  -8   5  10   42.74    8.03
 -11  -4   3    2.06    6.83
   9  11   8   34.10    7.40
  -2  14   2   22.89    5.41
   2 -14  -2   17.46    5.06
  -2  12  -7    1.57    5.49
  -5   5 -15    6.58    5.15
  -4   3 -17   31.62    5.74
  -4   3 -17   25.12    4.25
  -6   9  10   22.68    4.74
   7   1 -13   17.50    4.57
  -8  -9 -14    4.63    5.16
  -7   5  12    9.83    6.66
  -6   4  14   25.55    6.57
   6  -4 -14   33.93    4.91
  -5 -13   3   17.94    6.99
  -1  -5  16   33.28    7.74
  -3   5 -16   39.12    4.61
  -3   5 -16   30.86    5.74
  -6  11  -3   11.04    7.13
   8   9  -6    1.18    4.00
   8   9  -6   -5.51    4.29
  -4   1 -18  101.00    7.64
  -4   1 -18  108.47    6.48
  -7 -11 -13   15.39    5.08
  -2   2 -18    8.60    4.17
   2  -2  18    8.91    6.42
  -2   2 -18    4.43    4.47
   1  -2  18   33.69    7.05
   4  -7 -15   26.06    5.23
   4  -7 -15   12.55    3.72
 -10   4  -8   31.39    8.48
  10  -4   8   28.51    6.74
  -3  -2 -19   36.36    4.87
  -2  14   4   21.45    5.16
   2 -14  -4   22.04    5.33
   3  -7 -16    6.21    4.91
   3  -7 -16    4.21    3.48
   8  -1  15   -4.58    6.69
   4   7 -13    8.19    3.70
 -11  -1   4   21.69    7.64
   4  -5 -16   10.74    4.60
  -9  -7 -14   26.35    5.29
   4 -13  -2   10.51    4.71
  -4  13   2   14.74    6.65
  -8   9   3    8.97    4.87
  -7  -8 -16   11.87    5.44
   5  -8 -13    9.27    4.73
  -9   3   9   53.33    8.03
   1  -4  17    3.70    6.62
  -4 -14   1   44.03    7.01
  -5  12  -2    3.46    6.85
   5   6 -13   17.05    4.15
 -11  -5 -10   11.14    4.84
   3  14  -2   13.71    5.05
  -3 -14   2   15.21    6.44
  10  10   5   26.24    4.65
  10  10   5   25.41    7.10
   7  13   8   23.68    6.99
   8   3 -11   17.46    4.34
 -11  -2   4   36.58    7.72
  -9   3 -12    7.70    7.19
   9  -3  12   10.10    6.56
  -6  -3 -18    1.46    4.71
  -8 -10 -13   13.97    5.49
   6   6 -12    6.34    3.76
  -6  -4 -18   28.70    5.35
  -2  14   1   48.94    6.10
   2 -14  -1   41.02    5.59
  -6   1 -17   26.59    4.56
   4 -13  -3   14.86    4.87
  -4  13   3   20.66    6.94
  10  10   4   -7.77    6.98
  10  10   4    3.65    3.94
  -5   0 -18   30.12    4.90
  -4  13   1   17.41    6.90
   4 -13  -1   17.35    4.79
   2   6 -15   18.86    4.10
   9  11   1   55.77    5.64
   2  14  10    7.15    4.80
  10   8  11   38.59    5.14
 -11   2  -7   22.03    5.47
   8   5 -10   53.18    5.23
  -3  -1  17   36.91    7.26
  -2  -1 -19   23.66    4.69
  -8   9  -3   13.34    7.72
   9  10  -2   35.06    5.10
   2  -4  17   53.91    7.62
  -2   4 -17   47.52    5.12
 -10   6  -1    0.15    5.09
  -4  -2  16   40.00    7.73
   7   8  -9   13.25    3.64
   5  -5 -15   50.96    5.55
  10   7  12   12.62    4.27
  -9   4 -11   11.77    7.44
  10  10   6   46.83    7.90
  10  10   6   52.12    5.42
 -11   0   4   47.54    8.52
  -9 -10 -11   17.88    5.28
   8  12   9   13.37    6.52
   1  12  14   36.07    5.22
  -9   6  -8   16.49    7.47
 -11   3  -5    0.60    5.02
   0  12  -8   39.10    6.20
 -10   6  -2    3.83    5.30
  -8  -8 -15   12.16    5.40
  -7   3  13   41.57    7.37
 -10   6   0   -1.72    5.01
  -7  10   5   10.73    5.35
  -2  14   5    7.31    4.74
  -7  -6 -17   19.78    5.43
   0 -14  -9   24.66    5.49
   0  14   9   16.54    4.85
   7   1  17   22.11    7.48
  -7   9  -7   29.95    7.78
  11   8   5   -1.63    3.85
   9   9  -4   64.08    5.35
   9   9  -4   60.10    5.67
  -8  -6 -16   30.35    5.46
  10  10   3   -5.73    6.84
  10  10   3    0.64    4.02
   9  -2  13   19.45    6.74
  -9   2 -13    3.28    6.97
   0  -4  17   13.76    7.03
   0  -7 -18    8.85    3.46
  -2  10 -11    1.09    5.50
   8   1  16   10.33    7.21
  -6  -2 -18   10.88    4.66
   1  -8 -17   13.47    3.54
  -6  -5 -18   76.47    6.82
  -4  13   0    1.78    6.65
   3  -2  18   24.24    6.66
  -3   2 -18   18.02    4.29
  -3   2 -18   16.62    5.04
   0  10  16   -2.83    4.06
   0  -2  18   48.75    7.58
  -3   9 -12    1.73    4.24
  -3   9 -12    6.19    5.53
  -2  -8 -18    3.25    3.27
  11   7   0   16.65    7.53
  -3  -1 -19   26.32    4.63
 -11  -3   4    8.21    6.87
  -7  10  -4   18.06    7.52
   5  -7 -14    7.12    4.79
   1  14  -3   -4.81    5.47
  -1 -14   3    0.13    6.15
   1  -6 -18   22.35    4.12
 -10   2   7   42.86    8.16
   2 -14   0   42.98    5.54
  -2  14   0   40.96    5.89
   0  11  15   31.56    4.91
   1 -13 -11    2.65    5.14
  10  10   7   38.27    5.22
  -8   7  -9   17.88    7.38
  -9 -11  -9   20.36    5.37
   9  11   9   11.37    7.00
   1  14  10    7.59    4.63
 -10   6   1    6.18    5.00
   4   6 -14    5.58    3.84
   1  13  -6   16.21    5.33
   2  -7 -17    9.21    3.57
  -5 -14   0   13.21    6.43
  -1  14   8   11.99    4.60
   1 -14  -8   21.99    5.17
  10  -2  11   24.85    7.43
  -2 -14   3   10.59    6.50
   2  14  -3    3.18    5.16
   9   0 -10    8.27    4.16
  -8   4  11    3.58    6.61
  -5  11   9    7.16    4.79
   2 -12 -12   11.04    5.14
  -9   7  -6   25.81    8.30
  -8   9   4   34.40    5.65
  10   9  -1   15.58    6.38
   1 -12 -13    6.07    5.39
  -1  12  13    7.30    4.15
  -7   9   8    1.81    4.51
  -6 -12 -13   50.35    6.22
  10   9  10    3.11    4.48
 -10  -9 -10    6.48    4.76
   9   4  -9   -2.95    4.04
   7  11  -5    8.42    4.26
  -8   8  -7   31.04    8.07
  -6 -13   2    1.68    6.79
  -4   6 -15    0.92    3.86
  -4   6 -15    8.92    5.16
  -4   7 -14   29.67    5.82
  -4   7 -14   26.69    4.32
   0  13  -6   19.64    5.67
  10  -3  10   15.94    6.73
  -1  12  -8   -1.36    5.30
   0  13  12    1.35    4.17
  -2  -3  17   18.64    7.18
  -9   5 -10   21.30    7.66
  10  10   2    5.97    4.13
  10  10   2    1.72    6.56
  -6  11  -4   10.04    7.05
   8  11  -3    5.41    4.32
   9   1 -10   37.51    4.78
   7  13   9   21.31    6.95
  -3   4 -17   16.71    5.27
  -3   4 -17   26.32    4.50
   3   8 -13   15.84    3.97
  -5  12  -3    7.99    7.00
  -9   1  10    9.96    6.69
   0 -14   3   41.96    7.05
   0  14  -3   26.14    6.14
 -11  -5   3   18.64    6.99
  -3  -4  16   14.17    7.15
  -9   8   1    5.12    5.17
  -8   9  -4   72.56    9.35
  -8 -11 -12   37.58    5.40
 -11  -6   2  101.15    9.29
  -4  13  -1   -0.36    6.72
   8  10  -5    3.55    4.26
   8  10  -5    3.70    4.20
  -5  -3  15   10.92    7.37
   2 -13 -10   44.02    5.84
   9  11   0   45.84    5.40
  11  -3   6    3.64    6.45
  -1  -8 -18    8.19    3.36
  10  -1  12   10.42    6.96
  -2  -6 -19   29.67    4.36
  -6   5  14   22.81    6.76
   6  -5 -14   26.63    4.83
   8   0 -12   34.19    4.97
  -6  -1 -18   19.19    4.71
  10  -5   7   26.90    6.31
   8  -1 -12   26.02    4.75
  -1  11 -10   13.82    5.75
   3   7 -14   10.46    3.83
 -10   6   2   33.51    5.63
   9  -1  14   19.37    7.01
  -7 -12 -12    3.55    5.06
  -6  10   9    1.83    4.62
  -4 -14   2   31.98    7.01
 -11   4  -2    8.48    4.97
  -9  -9 -13   13.95    5.34
   2 -14   1   41.54    5.50
  -2  14  -1   42.75    6.05
   8  12  10   -4.24    6.37
  -8 -12 -10    5.00    5.05
  -4   8 -13    9.88    4.18
  -7   4  13   24.05    7.06
   9   7  -7   43.11    4.95
 -11   4  -1   -1.63    4.69
 -11  -4   4   10.84    6.91
  -1  -4  17   42.50    7.83
  -9   8   2   10.95    5.19
   3  -9 -15    9.32    5.11
   3  -9 -15    5.38    3.19
  -7  10   6    6.18    5.22
  -3  -2  17   39.03    7.60
   3 -10 -14    6.76    5.19
   4  -6 -16    5.88    4.79
  -4  -1 -19    5.97    4.12
  -4  -1 -19   18.25    5.10
   3 -12 -11   24.68    5.38
   9   2 -10   53.27    5.20
   8   4 -11   39.53    5.03
   0  12  14   38.56    5.24
   7   0  17    6.38    6.87
  -8  -7 -16   24.77    5.42
   8   1 -12    9.65    4.36
  10  -4   9   74.28    8.01
  -3 -14   3   -1.56    6.58
 -11   4  -3   13.95    5.28
  -3   0 -19   13.72    4.79
  -3   0 -19   15.08    4.39
  -9  -8 -14   17.61    5.33
  -9   2  10    5.37    6.63
  -5   1 -18   27.69    4.73
   8   0  16   25.66    7.42
 -10   0   8   27.76    7.47
  -1  13  -6   50.50    6.67
   9   8  -6   76.47    5.88
  10  10   1    3.81    6.41
  10  10   1    6.61    4.26
  -4   2 -18   46.33    5.93
  -1  -2  18   22.37    6.87
   9   6  -8   17.95    4.33
 -11  -1   5   17.29    7.44
  -7  10  -5   46.72    8.32
  -4  -3  16   29.51    7.62
  -2   8 -14   11.08    5.29
  -8   9   5   29.61    5.64
   4  -9 -14    8.85    3.31
   4  -9 -14    4.28    4.91
   0  14  10   15.94    4.81
   9  10  -3   29.71    4.57
   9  10  -3   22.47    4.76
   5  -6 -15   45.11    5.59
 -11  -2   5   13.73    7.03
   2 -14  -7    5.23    4.65
   1  13  13   16.57    4.74
  -5 -14   1    7.03    6.51
   1  -3  18    4.77    6.55
  -9 -10 -12   18.55    5.51
  -3  10 -11    4.22    5.81
   2  -3  18    7.23    6.66
 -11   4  -4    6.56    5.35
 -12  -1  -6   13.17    5.08
   1 -14   3   12.57    6.26
   1   7 -15    9.82    4.01
 -10   1   8   91.54    9.58
   1 -14  -9   20.75    5.32
  -7 -11 -14    8.33    5.02
   7  13  10    4.99    6.38
  -9   6  -9    5.19    7.27
  -9   8   3   26.20    5.52
  -6 -11 -15    5.72    5.01
  -8   9  -5   18.56    7.84
   4 -10 -13   12.06    5.13
   9  12   5   15.97    7.23
   3  -8 -16   12.06    3.56
  -9   7  -7   32.98    8.48
   1  -7 -18   13.71    3.76
   1  14  -4    2.15    5.47
  11   7  10   27.11    4.65
 -10  -9 -11    8.85    4.96
 -12  -2  -7   47.23    5.89
   3 -11 -13    9.36    5.17
   4  -8 -15   21.87    5.37
   4  -8 -15   15.95    3.67
   9  12   6    1.73    6.94
   3  15   1   32.92    5.59
  -2  11 -10    6.34    5.77
   3 -14  -2    5.00    4.92
   8   9  -7    3.68    4.10
   9  11  -1   29.95    5.00
  -4   4 -17   11.77    5.53
   0  -8 -18   12.65    3.51
  -6   0 -18   24.79    4.75
  -2   9 -13   -0.30    5.20
   0  -3  18   40.86    7.59
   9   9  -5   32.43    4.81
   9   3 -10   12.30    4.26
   6  -3 -15   12.22    4.54
  -4   9 -12    8.87    4.24
   9   5  -9    3.65    4.18
  -8   3  12    3.92    6.52
  -9  -7 -15   34.89    5.63
   3 -14  -1    3.77    4.78
  -3  14   1    5.19    6.62
  -2  -7 -19   19.49    3.94
   6   8 -11   31.40    4.32
   5   8 -12    5.35    3.57
  -8   8  -8   16.58    7.77
  -9   3  10   23.05    7.38
   3  -3  18   13.93    6.68
  -3   3 -18    8.95    4.94
  -3   3 -18    5.65    4.18
   9  12   7   16.42    7.26
  -9   4 -12   -0.60    7.38
  -9   3 -13   15.46    7.31
   9   0  15    0.60    6.95
  10  10   0    0.32    4.28
  -7  -4 -18    3.93    4.85
  11   9   5   15.85    4.31
  -1  13  12    1.74    4.34
  11   8   9   18.71    4.60
  -7  -3 -18   13.69    4.85
  -8 -12 -11   10.42    5.14
  -3   7 -15    1.84    4.13
  -3   7 -15    7.20    5.20
 -12  -1  -7    5.81    5.09
  -8  -5 -17    7.38    4.92
   2  -8 -17    4.69    3.27
   6   7 -12    9.64    3.96
 -12   0  -6   -3.08    5.04
  11   9   6    9.51    4.19
   5   7 -13    8.57    3.92
  10  -3  11   20.59    7.10
   2   8 -14    5.54    3.76
  -3   1 -19   -2.74    4.63
 -12  -3  -8   89.67    7.07
   2 -14  -8    4.31    4.82
   2 -13 -11   26.65    5.67
   3 -14   0   12.90    4.84
  -3   8 -14    3.23    5.41
  10  -2  12   38.68    7.85
  -9   8   4   26.60    5.40
  -3   6 -16   29.40    4.64
  -8   9   6   12.74    5.28
   0  13  -7   50.78    6.63
  -9   5 -11   25.63    7.84
   3  15   0   14.58    5.26
   0  13  13   -0.65    4.55
 -12  -2  -8   46.03    6.00
  10  11   5   46.78    8.12
   8  13   8   20.31    7.24
   7   8 -10   21.21    3.99
  11   9   7   38.10    5.00
   4   8 -13   21.09    4.13
 -10 -10 -10    6.93    4.92
  10  11   4   22.23    7.49
  -6  10  10    4.81    4.69
   6  -4 -15   37.88    5.23
   8  10  -6    7.33    4.31
  -8   9  -6   37.27    8.50
  -8  -6 -17   11.31    5.32
  -1  12  -9    3.13    5.64
   0  14  11   31.79    5.19
  -2  10 -12   25.63    6.04
 -11  -1   6   12.31    7.45
  10  11   3    5.06    7.04
  -1  15   5   11.38    5.25
  11   7  11   55.90    5.46
  -3  14  -1    9.31    5.28
   9  10  -4   23.14    4.64
   3 -12 -12   34.35    5.87
   9   4 -10   -4.02    4.20
   5  -7 -15   10.54    5.13
  11   8  10   60.12    5.83
 -11   5  -1    4.82    5.18
   9   1 -11   34.26    4.99
  -9   6 -10   17.08    8.10
  -1  15   6    0.73    4.94
   9  -1  15    9.38    7.10
  -5  13  -1   25.83    8.00
;
_shelx_hkl_checksum              14434
_platon_squeeze_void_probe_radius 1.20
loop_
_space_group_symop_id
_space_group_symop_operation_xyz
1 +X,+Y,+Z
2 -X,-Y,-Z
loop_
_atom_site_label
_atom_site_type_symbol
_atom_site_fract_x
_atom_site_fract_y
_atom_site_fract_z
_atom_site_U_iso_or_equiv
_atom_site_adp_type
_atom_site_occupancy
_atom_site_site_symmetry_order
_atom_site_calc_flag
_atom_site_refinement_flags_posn
_atom_site_refinement_flags_adp
_atom_site_refinement_flags_occupancy
_atom_site_disorder_assembly
_atom_site_disorder_group
Zn1 Zn 0.11684(3) 0.90289(3) 0.54444(2) 0.01806(10) Uani 1 1 d . U . . .
O1 O -0.0083(2) 0.7744(2) 0.52132(18) 0.0315(5) Uani 1 1 d . U . . .
O2 O -0.1805(3) 0.9255(2) 0.45628(17) 0.0324(5) Uani 1 1 d . U . . .
O3 O 0.0590(2) 1.0659(2) 0.34274(15) 0.0304(5) Uani 1 1 d . U . . .
O4 O 0.2316(3) 0.9138(2) 0.40621(15) 0.0322(5) Uani 1 1 d . U . . .
C1 C 0.1816(3) 0.9916(3) 0.3365(2) 0.0223(5) Uani 1 1 d . U . . .
C2 C 0.2781(3) 0.9958(3) 0.2371(2) 0.0224(5) Uani 1 1 d . U . . .
C3 C 0.4110(3) 0.9113(3) 0.2224(2) 0.0281(6) Uani 1 1 d . U . . .
H3 H 0.4434 0.8516 0.2759 0.034 Uiso 1 1 calc R U . . .
C4 C 0.4971(4) 0.9133(3) 0.1304(2) 0.0300(7) Uani 1 1 d . U . . .
H4 H 0.5877 0.8544 0.1218 0.036 Uiso 1 1 calc R U . . .
C5 C 0.4536(3) 1.0002(3) 0.04960(19) 0.0244(6) Uani 1 1 d . U . . .
C6 C 0.3207(4) 1.0855(3) 0.0654(2) 0.0326(7) Uani 1 1 d . U . . .
H6 H 0.2887 1.1459 0.0122 0.039 Uiso 1 1 calc R U . . .
C7 C 0.2341(4) 1.0836(3) 0.1578(2) 0.0307(7) Uani 1 1 d . U . . .
H7 H 0.1441 1.1429 0.1670 0.037 Uiso 1 1 calc R U . . .
C8 C -0.1335(3) 0.8137(3) 0.4880(2) 0.0237(6) Uani 1 1 d . U . . .
C9 C -0.2381(3) 0.7189(3) 0.4873(2) 0.0268(6) Uani 1 1 d . U . . .
C10 C -0.2006(5) 0.5957(4) 0.5242(5) 0.0742(15) Uani 1 1 d . U . . .
H10 H -0.1045 0.5684 0.5481 0.089 Uiso 1 1 calc R U . . .
C11 C -0.3009(6) 0.5091(4) 0.5275(5) 0.0857(16) Uani 1 1 d . U . . .
H11 H -0.2707 0.4233 0.5520 0.103 Uiso 1 1 calc R U . . .
C12 C -0.4445(4) 0.5456(3) 0.4956(3) 0.0403(8) Uani 1 1 d . U . . .
C13 C -0.4769(3) 0.6684(3) 0.4542(2) 0.0271(6) Uani 1 1 d . U . . .
H13 H -0.5709 0.6955 0.4277 0.032 Uiso 1 1 calc R U . . .
C14 C -0.3762(4) 0.7543(3) 0.4499(2) 0.0295(6) Uani 1 1 d . U . . .
H14 H -0.4025 0.8390 0.4207 0.035 Uiso 1 1 calc R U . . .
N1 N 0.2704(13) 0.7951(8) 0.6271(8) 0.0236(14) Uani 0.651(4) 1 d D U P A 1
C15 C 0.3947(10) 0.8399(9) 0.6431(5) 0.0303(17) Uani 0.636(15) 1 d D U . A 1
H15 H 0.4130 0.9220 0.6112 0.036 Uiso 0.29(8) 1 calc R U . A 1
C16 C 0.4965(9) 0.7726(6) 0.7033(5) 0.0396(15) Uani 0.651(4) 1 d D U P A 1
H16 H 0.5791 0.8103 0.7152 0.047 Uiso 0.651(4) 1 calc R U P A 1
C17 C 0.4792(7) 0.6510(5) 0.7463(4) 0.0397(11) Uani 0.651(4) 1 d D U P A 1
C18 C 0.3571(7) 0.6016(6) 0.7251(5) 0.0442(13) Uani 0.651(4) 1 d D U P A 1
H18 H 0.3414 0.5176 0.7524 0.053 Uiso 0.651(4) 1 calc R U P A 1
C19 C 0.2583(8) 0.6744(7) 0.6644(5) 0.0363(15) Uani 0.651(4) 1 d D U P A 1
H19 H 0.1784 0.6374 0.6484 0.044 Uiso 0.651(4) 1 calc R U P A 1
C20 C 0.5819(7) 0.5858(6) 0.8180(5) 0.0481(13) Uani 0.651(4) 1 d D U P A 1
H20 H 0.6670 0.6254 0.8237 0.058 Uiso 0.651(4) 1 calc R U P A 1
C21 C 0.5635(8) 0.4781(7) 0.8738(5) 0.0585(15) Uani 0.651(4) 1 d D U P A 1
H21 H 0.4793 0.4395 0.8653 0.070 Uiso 0.651(4) 1 calc R U P A 1
C22 C 0.6541(10) 0.4110(7) 0.9458(6) 0.0616(17) Uani 0.651(4) 1 d D U P A 1
C23 C 0.7831(10) 0.4590(9) 0.9563(7) 0.068(2) Uani 0.651(4) 1 d D U P A 1
H23 H 0.7901 0.5462 0.9422 0.081 Uiso 0.651(4) 1 calc R U P A 1
C24 C 0.9009(9) 0.3721(7) 0.9886(6) 0.0640(16) Uani 0.651(4) 1 d D U P A 1
H24 H 0.9979 0.3979 0.9905 0.077 Uiso 0.651(4) 1 calc R U P A 1
C25 C 0.8809(8) 0.2489(6) 1.0180(6) 0.0571(15) Uani 0.651(4) 1 d D U P A 1
H25 H 0.9673 0.1906 1.0361 0.069 Uiso 0.651(4) 1 calc R U P A 1
C26 C 0.7466(9) 0.2067(9) 1.0226(7) 0.0612(19) Uani 0.651(4) 1 d D U P A 1
H26 H 0.7267 0.1252 1.0553 0.073 Uiso 0.651(4) 1 calc R U P A 1
C27 C 0.6417(10) 0.2886(6) 0.9772(6) 0.0609(16) Uani 0.651(4) 1 d D U P A 1
H27 H 0.5524 0.2584 0.9665 0.073 Uiso 0.651(4) 1 calc R U P A 1
N2 N 0.262(3) 0.8024(16) 0.6337(15) 0.027(2) Uani 0.349(4) 1 d D U P A 2
C28 C 0.2247(14) 0.6938(12) 0.6909(8) 0.028(2) Uani 0.349(4) 1 d D U P A 2
H28 H 0.1408 0.6577 0.6789 0.034 Uiso 0.349(4) 1 calc R U P A 2
C29 C 0.3047(12) 0.6341(10) 0.7661(8) 0.0367(18) Uani 0.349(4) 1 d D U P A 2
H29 H 0.2777 0.5565 0.8033 0.044 Uiso 0.349(4) 1 calc R U P A 2
C30 C 0.4246(12) 0.6862(8) 0.7883(7) 0.0376(17) Uani 0.349(4) 1 d D U P A 2
C31 C 0.4651(17) 0.7950(10) 0.7283(9) 0.035(2) Uani 0.349(4) 1 d D U P A 2
H31 H 0.5551 0.8279 0.7347 0.042 Uiso 0.349(4) 1 calc R U P A 2
C32 C 0.374(2) 0.8556(18) 0.6593(12) 0.034(2) Uani 0.349(4) 1 d D U P A 2
H32 H 0.3900 0.9384 0.6280 0.041 Uiso 0.349(4) 1 calc R U P A 2
C33 C 0.5020(13) 0.6442(7) 0.8793(7) 0.0435(19) Uani 0.349(4) 1 d D U P A 2
H33 H 0.6141 0.6567 0.8669 0.052 Uiso 0.349(4) 1 calc R U P A 2
C34 C 0.4740(10) 0.5089(7) 0.9368(5) 0.051(2) Uani 0.349(4) 1 d D U P A 2
H34 H 0.4211 0.4598 0.9033 0.061 Uiso 0.349(4) 1 calc R U P A 2
C35 C 0.6301(11) 0.4392(9) 0.9727(10) 0.053(2) Uani 0.349(4) 1 d D U P A 2
C36 C 0.5902(15) 0.3051(10) 1.0264(9) 0.049(2) Uani 0.349(4) 1 d D U P A 2
H36 H 0.5223 0.2701 0.9921 0.059 Uiso 0.349(4) 1 calc R U P A 2
C37 C 0.7277(18) 0.2147(17) 1.0519(13) 0.060(3) Uani 0.349(4) 1 d D U P A 2
H37 H 0.7343 0.1294 1.0463 0.072 Uiso 0.349(4) 1 calc R U P A 2
C38 C 0.8462(16) 0.2564(12) 1.0841(11) 0.064(2) Uani 0.349(4) 1 d D U P A 2
H38 H 0.9140 0.2022 1.1240 0.077 Uiso 0.349(4) 1 calc R U P A 2
C39 C 0.8588(17) 0.3834(12) 1.0537(12) 0.068(2) Uani 0.349(4) 1 d D U P A 2
H39 H 0.9341 0.4167 1.0777 0.081 Uiso 0.349(4) 1 calc R U P A 2
C40 C 0.767(2) 0.4661(18) 0.9895(12) 0.061(3) Uani 0.349(4) 1 d D U P A 2
H40 H 0.8021 0.5431 0.9569 0.073 Uiso 0.349(4) 1 calc R U P A 2
O5 O 0.7640(4) 0.6797(3) 0.1666(3) 0.0787(12) Uani 1 1 d . U . . .
N3 N 0.9569(4) 0.7386(3) 0.2282(3) 0.0433(7) Uani 1 1 d . U . . .
C41 C 0.8763(5) 0.6568(4) 0.2097(4) 0.0589(12) Uani 1 1 d . U . . .
H41 H 0.9095 0.5710 0.2325 0.071 Uiso 1 1 calc R U . . .
C42 C 1.0964(5) 0.6995(4) 0.2719(3) 0.0485(10) Uani 1 1 d . U . . .
H42A H 1.1850 0.7303 0.2262 0.073 Uiso 1 1 calc R U . . .
H42B H 1.1142 0.6079 0.2874 0.073 Uiso 1 1 calc R U . . .
H42C H 1.0848 0.7337 0.3319 0.073 Uiso 1 1 calc R U . . .
C43 C 0.9103(6) 0.8719(4) 0.2008(4) 0.0581(12) Uani 1 1 d . U . . .
H43A H 0.9145 0.9137 0.2549 0.087 Uiso 1 1 calc R U . . .
H43B H 0.8040 0.8864 0.1856 0.087 Uiso 1 1 calc R U . . .
H43C H 0.9810 0.9056 0.1433 0.087 Uiso 1 1 calc R U . . .
loop_
_atom_site_aniso_label
_atom_site_aniso_U_11
_atom_site_aniso_U_22
_atom_site_aniso_U_33
_atom_site_aniso_U_23
_atom_site_aniso_U_13
_atom_site_aniso_U_12
Zn1 0.01439(15) 0.02344(17) 0.01771(15) -0.00326(11) -0.00246(10) -0.00692(11)
O1 0.0205(10) 0.0321(12) 0.0473(13) -0.0116(10) -0.0085(9) -0.0096(9)
O2 0.0388(12) 0.0299(12) 0.0338(12) -0.0002(9) -0.0146(10) -0.0167(10)
O3 0.0239(11) 0.0421(13) 0.0218(10) -0.0061(9) 0.0007(8) 0.0013(9)
O4 0.0281(11) 0.0436(13) 0.0198(10) -0.0008(9) 0.0003(8) -0.0003(10)
C1 0.0201(13) 0.0287(14) 0.0200(12) -0.0057(11) -0.0016(10) -0.0088(11)
C2 0.0176(12) 0.0325(15) 0.0175(12) -0.0043(11) -0.0015(10) -0.0059(11)
C3 0.0242(14) 0.0374(17) 0.0196(13) -0.0007(12) -0.0036(11) -0.0003(12)
C4 0.0234(14) 0.0403(17) 0.0220(13) -0.0027(12) -0.0017(11) 0.0033(12)
C5 0.0193(13) 0.0351(16) 0.0172(13) -0.0025(11) -0.0010(10) -0.0037(11)
C6 0.0296(15) 0.0423(18) 0.0205(13) 0.0005(12) -0.0034(12) 0.0033(13)
C7 0.0246(14) 0.0402(18) 0.0230(14) -0.0041(13) -0.0013(11) 0.0039(13)
C8 0.0222(13) 0.0296(15) 0.0219(13) -0.0058(11) -0.0013(10) -0.0116(11)
C9 0.0213(13) 0.0276(15) 0.0352(15) -0.0040(12) -0.0092(11) -0.0108(11)
C10 0.048(2) 0.040(2) 0.145(4) 0.016(2) -0.066(3) -0.0188(18)
C11 0.061(3) 0.038(2) 0.167(4) 0.025(3) -0.077(3) -0.0229(19)
C12 0.0294(16) 0.0276(16) 0.070(2) 0.0032(16) -0.0290(16) -0.0127(13)
C13 0.0235(14) 0.0284(15) 0.0322(15) 0.0002(12) -0.0131(12) -0.0092(11)
C14 0.0290(15) 0.0255(15) 0.0359(16) 0.0035(12) -0.0132(13) -0.0112(12)
N1 0.020(2) 0.030(2) 0.023(2) -0.0071(19) -0.002(2) -0.005(2)
C15 0.023(3) 0.035(3) 0.037(3) -0.013(2) -0.009(2) -0.004(2)
C16 0.033(3) 0.049(3) 0.042(3) -0.013(2) -0.014(2) -0.006(2)
C17 0.034(2) 0.053(3) 0.034(2) -0.008(2) -0.012(2) -0.002(2)
C18 0.042(3) 0.042(3) 0.044(3) 0.005(2) -0.009(2) -0.007(2)
C19 0.032(3) 0.039(3) 0.037(3) 0.000(2) -0.007(2) -0.008(2)
C20 0.045(3) 0.053(3) 0.051(3) -0.001(2) -0.019(2) -0.015(2)
C21 0.059(3) 0.061(3) 0.061(3) 0.009(3) -0.030(3) -0.023(3)
C22 0.072(3) 0.067(3) 0.055(3) 0.002(3) -0.035(3) -0.023(3)
C23 0.066(3) 0.070(3) 0.069(4) 0.004(3) -0.028(3) -0.018(3)
C24 0.056(3) 0.069(3) 0.073(3) -0.016(3) -0.023(3) -0.008(3)
C25 0.060(3) 0.055(3) 0.058(3) -0.016(3) -0.024(3) 0.010(3)
C26 0.072(3) 0.051(3) 0.068(4) -0.016(3) -0.029(3) 0.000(3)
C27 0.073(3) 0.056(3) 0.061(3) -0.012(3) -0.031(3) -0.005(3)
N2 0.026(4) 0.032(4) 0.025(4) -0.005(3) -0.006(3) -0.008(3)
C28 0.028(4) 0.031(4) 0.030(4) -0.004(3) -0.008(3) -0.013(3)
C29 0.035(4) 0.039(4) 0.038(4) 0.003(3) -0.014(3) -0.014(3)
C30 0.036(3) 0.042(3) 0.040(3) -0.004(3) -0.019(3) -0.011(3)
C31 0.033(4) 0.041(4) 0.038(4) -0.007(3) -0.014(3) -0.011(3)
C32 0.029(4) 0.039(4) 0.039(4) -0.009(4) -0.011(3) -0.005(3)
C33 0.043(4) 0.047(4) 0.042(4) 0.000(3) -0.017(3) -0.010(3)
C34 0.057(4) 0.049(4) 0.051(4) 0.002(3) -0.027(3) -0.017(3)
C35 0.065(4) 0.054(4) 0.048(4) -0.001(3) -0.032(3) -0.018(3)
C36 0.061(4) 0.049(4) 0.048(4) -0.006(3) -0.034(3) -0.011(3)
C37 0.072(4) 0.052(4) 0.063(5) -0.020(4) -0.025(4) -0.001(4)
C38 0.061(4) 0.068(4) 0.064(4) -0.008(4) -0.023(4) 0.001(4)
C39 0.061(4) 0.073(4) 0.070(4) -0.006(4) -0.020(4) -0.012(4)
C40 0.061(4) 0.063(4) 0.060(5) -0.002(4) -0.022(4) -0.013(4)
O5 0.063(2) 0.0407(17) 0.148(4) -0.008(2) -0.072(2) -0.0040(15)
N3 0.0375(16) 0.0410(17) 0.0560(19) -0.0072(14) -0.0191(14) -0.0067(13)
C41 0.051(2) 0.039(2) 0.093(3) -0.003(2) -0.037(2) -0.0068(18)
C42 0.042(2) 0.059(3) 0.051(2) -0.0135(19) -0.0200(18) -0.0061(18)
C43 0.066(3) 0.043(2) 0.075(3) -0.010(2) -0.033(2) -0.012(2)
loop_
_atom_type_symbol
_atom_type_description
_atom_type_scat_dispersion_real
_atom_type_scat_dispersion_imag
_atom_type_scat_source
C C 0.0033 0.0016
;
International Tables for Crystallography
(Vol. C, Tables 4.2.6.8 and 6.1.1.4)
;
H H 0.0000 0.0000
;
International Tables for Crystallography
(Vol. C, Table 6.1.1.4)
;
N N 0.0061 0.0033
;
International Tables for Crystallography
(Vol. C, Tables 4.2.6.8 and 6.1.1.4)
;
O O 0.0106 0.0060
;
International Tables for Crystallography
(Vol. C, Tables 4.2.6.8 and 6.1.1.4)
;
Zn Zn 0.2839 1.4301
;
International Tables for Crystallography
(Vol. C, Tables 4.2.6.8 and 6.1.1.4)
;
loop_
_geom_angle_atom_site_label_1
_geom_angle_atom_site_label_2
_geom_angle_atom_site_label_3
_geom_angle
_geom_angle_site_symmetry_1
_geom_angle_site_symmetry_3
N2 Zn1 O4 107.5(6) . .
N1 Zn1 O4 104.1(3) . .
N2 Zn1 O1 103.8(5) . .
N1 Zn1 O1 102.2(3) . .
O4 Zn1 O1 90.19(10) . .
N2 Zn1 O2 96.7(5) . 2_576
N1 Zn1 O2 98.5(3) . 2_576
O4 Zn1 O2 87.47(10) . 2_576
O1 Zn1 O2 159.10(9) . 2_576
N2 Zn1 O3 93.5(6) . 2_576
N1 Zn1 O3 96.9(3) . 2_576
O4 Zn1 O3 159.00(9) . 2_576
O1 Zn1 O3 86.07(9) . 2_576
O2 Zn1 O3 88.71(10) 2_576 2_576
N2 Zn1 Zn1 163.6(6) . 2_576
N1 Zn1 Zn1 167.4(3) . 2_576
O4 Zn1 Zn1 84.62(7) . 2_576
O1 Zn1 Zn1 86.72(7) . 2_576
O2 Zn1 Zn1 72.39(6) 2_576 2_576
O3 Zn1 Zn1 74.55(6) 2_576 2_576
C8 O1 Zn1 118.1(2) . .
C8 O2 Zn1 136.41(19) . 2_576
C1 O3 Zn1 133.6(2) . 2_576
C1 O4 Zn1 121.4(2) . .
O3 C1 O4 125.7(3) . .
O3 C1 C2 116.8(3) . .
O4 C1 C2 117.5(3) . .
C3 C2 C7 118.7(3) . .
C3 C2 C1 120.7(3) . .
C7 C2 C1 120.6(3) . .
C4 C3 C2 120.5(3) . .
C4 C3 H3 119.8 . .
C2 C3 H3 119.8 . .
C3 C4 C5 121.5(3) . .
C3 C4 H4 119.2 . .
C5 C4 H4 119.2 . .
C6 C5 C4 117.5(3) . .
C6 C5 C5 121.6(3) . 2_675
C4 C5 C5 120.9(3) . 2_675
C7 C6 C5 121.0(3) . .
C7 C6 H6 119.5 . .
C5 C6 H6 119.5 . .
C6 C7 C2 120.7(3) . .
C6 C7 H7 119.6 . .
C2 C7 H7 119.6 . .
O2 C8 O1 125.8(3) . .
O2 C8 C9 116.6(3) . .
O1 C8 C9 117.6(3) . .
C10 C9 C14 117.8(3) . .
C10 C9 C8 121.1(3) . .
C14 C9 C8 121.1(3) . .
C9 C10 C11 121.0(3) . .
C9 C10 H10 119.5 . .
C11 C10 H10 119.5 . .
C10 C11 C12 121.4(4) . .
C10 C11 H11 119.3 . .
C12 C11 H11 119.3 . .
C13 C12 C11 116.8(3) . .
C13 C12 C12 121.7(4) . 2_466
C11 C12 C12 121.4(4) . 2_466
C12 C13 C14 121.6(3) . .
C12 C13 H13 119.2 . .
C14 C13 H13 119.2 . .
C9 C14 C13 121.1(3) . .
C9 C14 H14 119.4 . .
C13 C14 H14 119.4 . .
C19 N1 C15 116.6(9) . .
C19 N1 Zn1 122.1(7) . .
C15 N1 Zn1 121.3(6) . .
N1 C15 C16 123.1(9) . .
N1 C15 H15 118.4 . .
C16 C15 H15 118.4 . .
C15 C16 C17 120.2(7) . .
C15 C16 H16 119.9 . .
C17 C16 H16 119.9 . .
C16 C17 C18 116.9(5) . .
C16 C17 C20 118.5(5) . .
C18 C17 C20 124.4(5) . .
C19 C18 C17 120.1(6) . .
C19 C18 H18 120.0 . .
C17 C18 H18 120.0 . .
N1 C19 C18 122.7(8) . .
N1 C19 H19 118.6 . .
C18 C19 H19 118.6 . .
C21 C20 C17 124.5(6) . .
C21 C20 H20 117.7 . .
C17 C20 H20 117.7 . .
C20 C21 C22 128.0(6) . .
C20 C21 H21 116.0 . .
C22 C21 H21 116.0 . .
C27 C22 C23 120.3(7) . .
C27 C22 C21 118.0(6) . .
C23 C22 C21 118.1(7) . .
C24 C23 C22 115.2(8) . .
C24 C23 H23 122.4 . .
C22 C23 H23 122.4 . .
C25 C24 C23 120.8(7) . .
C25 C24 H24 119.6 . .
C23 C24 H24 119.6 . .
C26 C25 C24 123.2(7) . .
C26 C25 H25 118.4 . .
C24 C25 H25 118.4 . .
C25 C26 C27 114.3(8) . .
C25 C26 H26 122.9 . .
C27 C26 H26 122.9 . .
C26 C27 C22 124.4(7) . .
C26 C27 H27 117.8 . .
C22 C27 H27 117.8 . .
C28 N2 C32 116.6(17) . .
C28 N2 Zn1 120.0(13) . .
C32 N2 Zn1 120.8(11) . .
N2 C28 C29 121.9(13) . .
N2 C28 H28 119.0 . .
C29 C28 H28 119.0 . .
C28 C29 C30 120.8(9) . .
C28 C29 H29 119.6 . .
C30 C29 H29 119.6 . .
C31 C30 C29 117.1(9) . .
C31 C30 C33 116.3(8) . .
C29 C30 C33 126.2(6) . .
C32 C31 C30 119.5(12) . .
C32 C31 H31 120.3 . .
C30 C31 H31 120.3 . .
N2 C32 C31 123.0(17) . .
N2 C32 H32 118.5 . .
C31 C32 H32 118.5 . .
C30 C33 C34 114.6(6) . .
C30 C33 C36 115.2(9) . 2_667
C34 C33 C36 86.8(7) . 2_667
C30 C33 H33 112.6 . .
C34 C33 H33 112.6 . .
C36 C33 H33 112.6 2_667 .
C35 C34 C33 109.1(7) . .
C35 C34 C35 106.6(8) . 2_667
C33 C34 C35 93.1(7) . 2_667
C35 C34 H34 115.3 . .
C33 C34 H34 115.3 . .
C35 C34 H34 115.3 2_667 .
C40 C35 C34 139.5(11) . .
C40 C35 C36 113.7(9) . .
C34 C35 C36 104.8(7) . .
C40 C35 C34 95.9(12) . 2_667
C34 C35 C34 73.4(8) . 2_667
C36 C35 C34 86.8(9) . 2_667
C37 C36 C35 114.2(11) . .
C37 C36 C33 110.0(10) . 2_667
C35 C36 C33 93.0(9) . 2_667
C37 C36 H36 112.7 . .
C35 C36 H36 112.7 . .
C33 C36 H36 112.7 2_667 .
C38 C37 C36 119.2(14) . .
C38 C37 H37 120.4 . .
C36 C37 H37 120.4 . .
C37 C38 C39 115.3(14) . .
C37 C38 H38 122.4 . .
C39 C38 H38 122.4 . .
C38 C39 C40 124.4(15) . .
C38 C39 H39 117.8 . .
C40 C39 H39 117.8 . .
C35 C40 C39 122.3(16) . .
C35 C40 H40 118.9 . .
C39 C40 H40 118.9 . .
C41 N3 C42 121.8(4) . .
C41 N3 C43 120.5(3) . .
C42 N3 C43 117.6(3) . .
O5 C41 N3 127.1(4) . .
O5 C41 H41 116.4 . .
N3 C41 H41 116.4 . .
N3 C42 H42A 109.5 . .
N3 C42 H42B 109.5 . .
H42A C42 H42B 109.5 . .
N3 C42 H42C 109.5 . .
H42A C42 H42C 109.5 . .
H42B C42 H42C 109.5 . .
N3 C43 H43A 109.5 . .
N3 C43 H43B 109.5 . .
H43A C43 H43B 109.5 . .
N3 C43 H43C 109.5 . .
H43A C43 H43C 109.5 . .
H43B C43 H43C 109.5 . .
loop_
_geom_bond_atom_site_label_1
_geom_bond_atom_site_label_2
_geom_bond_distance
_geom_bond_site_symmetry_2
Zn1 N2 2.01(2) .
Zn1 N1 2.025(11) .
Zn1 O4 2.027(2) .
Zn1 O1 2.038(2) .
Zn1 O2 2.054(2) 2_576
Zn1 O3 2.059(2) 2_576
Zn1 Zn1 2.9689(7) 2_576
O1 C8 1.256(4) .
O2 C8 1.252(4) .
O2 Zn1 2.054(2) 2_576
O3 C1 1.247(4) .
O3 Zn1 2.059(2) 2_576
O4 C1 1.262(4) .
C1 C2 1.506(4) .
C2 C3 1.386(4) .
C2 C7 1.394(4) .
C3 C4 1.384(4) .
C3 H3 0.9500 .
C4 C5 1.403(4) .
C4 H4 0.9500 .
C5 C6 1.393(4) .
C5 C5 1.495(5) 2_675
C6 C7 1.391(4) .
C6 H6 0.9500 .
C7 H7 0.9500 .
C8 C9 1.503(4) .
C9 C10 1.360(5) .
C9 C14 1.382(4) .
C10 C11 1.391(5) .
C10 H10 0.9500 .
C11 C12 1.391(5) .
C11 H11 0.9500 .
C12 C13 1.366(5) .
C12 C12 1.485(6) 2_466
C13 C14 1.384(4) .
C13 H13 0.9500 .
C14 H14 0.9500 .
N1 C19 1.341(7) .
N1 C15 1.344(6) .
C15 C16 1.372(7) .
C15 H15 0.9500 .
C16 C17 1.374(7) .
C16 H16 0.9500 .
C17 C18 1.385(6) .
C17 C20 1.480(7) .
C18 C19 1.380(7) .
C18 H18 0.9500 .
C19 H19 0.9500 .
C20 C21 1.301(8) .
C20 H20 0.9500 .
C21 C22 1.422(8) .
C21 H21 0.9500 .
C22 C27 1.346(7) .
C22 C23 1.372(8) .
C23 C24 1.369(8) .
C23 H23 0.9500 .
C24 C25 1.366(7) .
C24 H24 0.9500 .
C25 C26 1.327(8) .
C25 H25 0.9500 .
C26 C27 1.338(8) .
C26 H26 0.9500 .
C27 H27 0.9500 .
N2 C28 1.354(9) .
N2 C32 1.361(9) .
C28 C29 1.379(9) .
C28 H28 0.9500 .
C29 C30 1.391(8) .
C29 H29 0.9500 .
C30 C31 1.379(9) .
C30 C33 1.522(10) .
C31 C32 1.375(9) .
C31 H31 0.9500 .
C32 H32 0.9500 .
C33 C34 1.5798(10) .
C33 C36 1.589(19) 2_667
C33 H33 1.0000 .
C34 C35 1.5794(10) .
C34 C35 1.588(17) 2_667
C34 H34 1.0000 .
C35 C40 1.36(2) .
C35 C36 1.5798(10) .
C35 C34 1.588(17) 2_667
C36 C37 1.487(15) .
C36 C33 1.589(19) 2_667
C36 H36 1.0000 .
C37 C38 1.386(9) .
C37 H37 0.9500 .
C38 C39 1.393(9) .
C38 H38 0.9500 .
C39 C40 1.416(9) .
C39 H39 0.9500 .
C40 H40 0.9500 .
O5 C41 1.222(5) .
N3 C41 1.325(5) .
N3 C42 1.442(5) .
N3 C43 1.450(5) .
C41 H41 0.9500 .
C42 H42A 0.9800 .
C42 H42B 0.9800 .
C42 H42C 0.9800 .
C43 H43A 0.9800 .
C43 H43B 0.9800 .
C43 H43C 0.9800 .
loop_
_platon_squeeze_void_nr
_platon_squeeze_void_average_x
_platon_squeeze_void_average_y
_platon_squeeze_void_average_z
_platon_squeeze_void_volume
_platon_squeeze_void_count_electrons
_platon_squeeze_void_content
1 0.115 0.367 0.242 35 1 ' '
2 0.437 0.633 0.243 10 0 ' '
3 0.562 0.367 0.757 10 0 ' '
4 0.885 0.633 0.758 35 1 ' '
