#------------------------------------------------------------------------------
#$Date: 2019-11-03 12:50:46 +0200 (Sun, 03 Nov 2019) $
#$Revision: 221446 $
#$URL: file:///home/coder/svn-repositories/cod/cif/4/12/83/4128323.cif $
#------------------------------------------------------------------------------
#
# This file is available in the Crystallography Open Database (COD),
# http://www.crystallography.net/
#
# All data on this site have been placed in the public domain by the
# contributors.
#
data_4128323
loop_
_publ_author_name
'Kusaka, Shinpei'
'Kiyose, Atsushi'
'Sato, Hiroshi'
'Hijikata, Yuh'
'Hori, Akihiro'
'Ma, Yunsheng'
'Matsuda, Ryotaro'
_publ_section_title
;
 Dynamic Topochemical Reaction Tuned by Guest Molecules in the Nanospace
 of a Metal-Organic Framework.
;
_journal_issue                   40
_journal_name_full               'Journal of the American Chemical Society'
_journal_page_first              15742
_journal_page_last               15746
_journal_paper_doi               10.1021/jacs.9b07682
_journal_volume                  141
_journal_year                    2019
_chemical_formula_moiety         'C32 H30 N2 O5 Zn'
_chemical_formula_sum            'C32 H30 N2 O5 Zn'
_chemical_formula_weight         587.98
_space_group_crystal_system      triclinic
_space_group_IT_number           2
_space_group_name_Hall           '-P 1'
_space_group_name_H-M_alt        'P -1'
_symmetry_space_group_name_Hall  '-P 1'
_symmetry_space_group_name_H-M   'P -1'
_atom_sites_solution_hydrogens   geom
_atom_sites_solution_primary     direct
_atom_sites_solution_secondary   difmap
_cell_angle_alpha                67.390(4)
_cell_angle_beta                 72.490(4)
_cell_angle_gamma                89.005(4)
_cell_formula_units_Z            2
_cell_length_a                   9.0380(4)
_cell_length_b                   12.0885(5)
_cell_length_c                   14.9988(7)
_cell_measurement_reflns_used    9286
_cell_measurement_temperature    93
_cell_measurement_theta_max      28.82
_cell_measurement_theta_min      2.35
_cell_volume                     1433.64(13)
_computing_cell_refinement       'CrysAlisPro 1.171.39.9b (Rigaku OD, 2015)'
_computing_data_collection       'CrysAlisPro 1.171.39.9b (Rigaku OD, 2015)'
_computing_data_reduction        'CrysAlisPro 1.171.39.9b (Rigaku OD, 2015)'
_computing_molecular_graphics    'CrystalStructure 4.2.2'
_computing_publication_material  'CrystalStructure 4.2.2 (Rigaku, 2016)'
_computing_structure_refinement  'SHELXL Version 2014/7 (Sheldrick, 2008)'
_computing_structure_solution    'SHELXT Version 2014/5 (Sheldrick, 2014)'
_diffrn_ambient_temperature      93
_diffrn_detector_area_resol_mean 5.811
_diffrn_measured_fraction_theta_full 0.999
_diffrn_measured_fraction_theta_max 0.849
_diffrn_measurement_device_type  'Rigaku XtaLAB P200'
_diffrn_measurement_method       \w
_diffrn_radiation_type           'Mo K\a'
_diffrn_radiation_wavelength     0.71075
_diffrn_reflns_av_R_equivalents  0.0739
_diffrn_reflns_Laue_measured_fraction_full 0.999
_diffrn_reflns_Laue_measured_fraction_max 0.849
_diffrn_reflns_limit_h_max       11
_diffrn_reflns_limit_h_min       -11
_diffrn_reflns_limit_k_max       16
_diffrn_reflns_limit_k_min       -16
_diffrn_reflns_limit_l_max       19
_diffrn_reflns_limit_l_min       -20
_diffrn_reflns_number            24489
_diffrn_reflns_point_group_measured_fraction_full 0.999
_diffrn_reflns_point_group_measured_fraction_max 0.849
_diffrn_reflns_theta_full        25.242
_diffrn_reflns_theta_max         29.365
_diffrn_reflns_theta_min         2.378
_diffrn_standards_number         0
_exptl_absorpt_coefficient_mu    0.900
_exptl_absorpt_correction_T_max  1.000
_exptl_absorpt_correction_T_min  0.312
_exptl_absorpt_correction_type   multi-scan
_exptl_absorpt_process_details
;
CrysAlisPro 1.171.39.9b (Rigaku Oxford Diffraction, 2015)
Empirical absorption correction using spherical harmonics,
 implemented in SCALE3 ABSPACK scaling algorithm.
;
_exptl_crystal_colour            nONE
_exptl_crystal_density_diffrn    1.362
_exptl_crystal_density_method    'not measured'
_exptl_crystal_description       nONE
_exptl_crystal_F_000             612.00
_refine_diff_density_max         1.90
_refine_diff_density_min         -1.47
_refine_ls_extinction_method     none
_refine_ls_goodness_of_fit_ref   1.155
_refine_ls_hydrogen_treatment    constr
_refine_ls_number_parameters     363
_refine_ls_number_reflns         6703
_refine_ls_number_restraints     74
_refine_ls_R_factor_all          0.0983
_refine_ls_R_factor_gt           0.0796
_refine_ls_shift/su_max          0.000
_refine_ls_structure_factor_coef Fsqd
_refine_ls_weighting_details
'w = 1/[\s^2^(Fo^2^)+(0.1253P)^2^+2.7630P] where P=(Fo^2^+2Fc^2^)/3'
_refine_ls_weighting_scheme      calc
_refine_ls_wR_factor_gt          0.2170
_refine_ls_wR_factor_ref         0.2317
_reflns_Friedel_coverage         0.000
_reflns_number_gt                5537
_reflns_number_total             6703
_reflns_threshold_expression     F^2^>2.0\s(F^2^)
_cod_data_source_file            ja9b07682_si_004.cif
_cod_data_source_block           xcalibur
_cod_database_code               4128323
_shelx_res_file
;

    shelxl.res created by SHELXL-2014/7

TITL xcalibur
CELL  0.71075 9.03800 12.08850 14.99880 67.39000 72.49000 89.00500
ZERR  2 0.00040 0.00050 0.00070 0.00400 0.00400 0.00400
LATT 1
SFAC C H N O ZN
UNIT 64 60 4 10 2
L.S. 20
FMAP 2
PLAN 25
WPDB -2
HTAB
BOND $H
CONF
LIST 4
TEMP -180.0
ACTA
DFIX 1.4830 0.0200 C24 C30
DFIX 1.4830 0.0200 C35 C25
SIMU 0.0100 0.0800 C8 C14 C13 C17 C37 C32
ISOR 0.0050 0.2000 C8 C14 C13 C17 C37 C32
WGHT    0.125300    2.763000
FVAR       0.38645
ZN41  5    0.142206    0.460536    0.444810    11.00000    0.02810    0.03005 =
         0.01836   -0.00838   -0.00326   -0.01608
O1    4    0.202270    0.604116    0.474509    11.00000    0.04533    0.02715 =
         0.03656   -0.00959   -0.01738   -0.01484
O2    4   -0.117612    0.648285    0.408201    11.00000    0.05051    0.02991 =
         0.02178   -0.00091    0.00279   -0.00640
O4    4    0.088881    0.582713    0.323764    11.00000    0.03488    0.06472 =
         0.02366   -0.01158   -0.01276    0.00356
O5    4   -0.004303    0.668406    0.558454    11.00000    0.04917    0.07230 =
         0.06143   -0.04631    0.00656   -0.03951
O6    4    0.604687    1.120778    0.174450    11.00000    0.03908    0.09174 =
         0.08437   -0.04659   -0.01906    0.00250
N3    3    0.372001    1.015413    0.216107    11.00000    0.05395    0.05411 =
         0.08455   -0.02325   -0.02220    0.00531
N12   3    0.361206    0.438125    0.371380    11.00000    0.02925    0.03411 =
         0.02702   -0.00214   -0.00803   -0.00870
C7    1   -0.013770    0.653340    0.328176    11.00000    0.03350    0.03451 =
         0.02215   -0.00820   -0.00584   -0.01636
C8    1    0.246339    0.769886    0.512470    11.00000    0.04597    0.04613 =
         0.03790   -0.02215   -0.00638   -0.02356
C9    1   -0.014372    0.752087    0.230319    11.00000    0.02942    0.03653 =
         0.02481   -0.00850   -0.00464   -0.01114
C10   1    0.139426    0.672877    0.515395    11.00000    0.04698    0.04007 =
         0.02317   -0.00869   -0.00819   -0.02464
C11   1   -0.004091    0.947071    0.048186    11.00000    0.02976    0.04082 =
         0.02179   -0.00500   -0.00155   -0.01143
C13   1    0.503871    0.868292    0.464170    11.00000    0.04112    0.03739 =
         0.05132   -0.01446   -0.01375   -0.01314
AFIX  43
H13   2    0.613193    0.872305    0.433209    11.00000   -1.20000
AFIX   0
C14   1    0.404644    0.778280    0.468741    11.00000    0.04464    0.03299 =
         0.05471   -0.01623   -0.01760   -0.01198
AFIX  43
H14   2    0.447321    0.721647    0.441082    11.00000   -1.20000
AFIX   0
C15   1    1.360887    0.343583    0.005547    11.00000    0.03911    0.12498 =
         0.07802   -0.06841   -0.00460    0.00846
AFIX  43
H15   2    1.462849    0.331350   -0.028555    11.00000   -1.20000
AFIX   0
C16   1    0.098203    0.860638    0.048738    11.00000    0.04850    0.04845 =
         0.02011   -0.00800   -0.00241   -0.00182
AFIX  43
H16   2    0.172964    0.866818   -0.013518    11.00000   -1.20000
AFIX   0
C17   1    0.446878    0.951091    0.503437    11.00000    0.05066    0.05838 =
         0.04527   -0.03374    0.00018   -0.02906
C18   1    0.393109    0.360501    0.327608    11.00000    0.04359    0.06024 =
         0.03976   -0.02397   -0.00784    0.00414
AFIX  43
H18   2    0.309626    0.309387    0.332671    11.00000   -1.20000
AFIX   0
C19   1    0.482510    0.507258    0.365523    11.00000    0.02945    0.04487 =
         0.07859   -0.01051   -0.01767   -0.01059
AFIX  43
H19   2    0.461890    0.562605    0.397571    11.00000   -1.20000
AFIX   0
C20   1   -0.120469    0.835569    0.228758    11.00000    0.06160    0.06165 =
         0.02744    0.00581    0.01505    0.01099
AFIX  43
H20   2   -0.198951    0.826945    0.290394    11.00000   -1.20000
AFIX   0
C21   1    0.633464    0.500532    0.315306    11.00000    0.02814    0.05477 =
         0.13832    0.00079   -0.01132   -0.00443
AFIX  43
H21   2    0.715048    0.550378    0.313821    11.00000   -1.20000
AFIX   0
C22   1   -0.115143    0.931712    0.139320    11.00000    0.06612    0.06157 =
         0.03020    0.00497    0.01123    0.01824
AFIX  43
H22   2   -0.189423    0.988085    0.140853    11.00000   -1.20000
AFIX   0
C23   1    1.187204    0.406166    0.128887    11.00000    0.09320    0.05180 =
         0.04699   -0.02266   -0.00146    0.02091
AFIX  43
H23   2    1.172559    0.440000    0.178154    11.00000   -1.20000
AFIX   0
C24   1    1.058705    0.372801    0.109566    11.00000    0.05466    0.06718 =
         0.04016   -0.00614   -0.01208    0.02888
C25   1    0.669580    0.422737    0.266746    11.00000    0.03530    0.07216 =
         0.07455    0.03057    0.00624    0.00605
C26   1    1.337226    0.391506    0.078125    11.00000    0.06137    0.09117 =
         0.07009   -0.04888   -0.00998   -0.00171
AFIX  43
H26   2    1.423710    0.414435    0.093289    11.00000   -1.20000
AFIX   0
C28   1    1.086299    0.328773    0.034843    11.00000    0.04549    0.09850 =
         0.04185   -0.01587   -0.01556    0.02080
AFIX  43
H28   2    1.000158    0.308003    0.018252    11.00000   -1.20000
AFIX   0
C29   1    0.544565    0.351029    0.274413    11.00000    0.07592    0.08155 =
         0.04478   -0.01955   -0.00948    0.03225
AFIX  43
H29   2    0.562547    0.294953    0.243054    11.00000   -1.20000
AFIX   0
C30   1    0.872436    0.370786    0.164777    11.00000    0.19632    0.04008 =
         0.06731   -0.00562   -0.08387   -0.00803
AFIX  43
H30   2    0.792231    0.330456    0.155817    11.00000   -1.20000
AFIX   0
C31   1    1.232537    0.313742   -0.016415    11.00000    0.05369    0.10476 =
         0.06081   -0.04935   -0.01684    0.01919
AFIX  43
H31   2    1.246503    0.282685   -0.067393    11.00000   -1.20000
AFIX   0
C32   1    0.192471    0.841221    0.561725    11.00000    0.06796    0.08903 =
         0.09602   -0.06699    0.00814   -0.03083
AFIX  43
H32   2    0.085164    0.830617    0.600451    11.00000   -1.20000
AFIX   0
C33   1    0.472629    1.089277    0.226083    11.00000    0.08881    0.05775 =
         0.10457   -0.04018   -0.04067    0.01834
AFIX  43
H33   2    0.433647    1.117751    0.278689    11.00000   -1.20000
AFIX   0
C34   1    0.411602    0.970772    0.144130    11.00000    0.08585    0.10716 =
         0.10693   -0.06656   -0.01614   -0.00123
AFIX  23
H34A  2    0.500389    1.025444    0.087380    11.00000   -1.20000
H34B  2    0.322794    0.975621    0.117521    11.00000   -1.20000
AFIX   0
C35   1    0.849918    0.424338    0.216077    11.00000    0.21520    0.03909 =
         0.15885   -0.01350   -0.15147   -0.00637
AFIX  43
H35   2    0.929398    0.463914    0.226267    11.00000   -1.20000
AFIX   0
C36   1    0.454670    0.848486    0.169203    11.00000    0.09068    0.09010 =
         0.15483   -0.06775   -0.06500    0.03152
AFIX 137
H36A  2    0.434937    0.816843    0.122205    11.00000   -1.20000
H36B  2    0.392326    0.797176    0.239226    11.00000   -1.20000
H36C  2    0.565744    0.849110    0.163060    11.00000   -1.20000
AFIX   0
C37   1    0.293762    0.931595    0.556426    11.00000    0.07635    0.09324 =
         0.10125   -0.07437    0.00641   -0.02763
AFIX  43
H37   2    0.252411    0.981350    0.591868    11.00000   -1.20000
AFIX   0
C38   1    0.208392    0.980482    0.290716    11.00000    0.10366    0.07237 =
         0.10481   -0.03714    0.01475   -0.00949
AFIX  23
H38A  2    0.174144    0.896409    0.304768    11.00000   -1.20000
H38B  2    0.209963    0.982926    0.355651    11.00000   -1.20000
AFIX   0
C40   1    0.100748    1.054016    0.256950    11.00000    0.05688    0.08169 =
         0.18709   -0.04883    0.00463    0.00313
AFIX 137
H40A  2    0.111286    1.063749    0.187295    11.00000   -1.20000
H40B  2    0.119640    1.133104    0.257853    11.00000   -1.20000
H40C  2   -0.004943    1.017289    0.301782    11.00000   -1.20000
AFIX   0
C42   1    0.093594    0.764850    0.138779    11.00000    0.04639    0.04513 =
         0.02693   -0.01100   -0.00734    0.00245
AFIX  43
H42   2    0.166093    0.707240    0.137161    11.00000   -1.20000
AFIX   0
HKLF 4

REM  xcalibur
REM R1 =  0.0796 for    5537 Fo > 4sig(Fo)  and  0.0983 for all    6703 data
REM    363 parameters refined using     74 restraints

END

WGHT      0.1295      3.5164

REM Instructions for potential hydrogen bonds
HTAB C19 O1
EQIV $1 x, y-1, z
HTAB C29 O6_$1

REM Highest difference peak  1.897,  deepest hole -1.471,  1-sigma level  0.159
Q1    1   0.1724  0.8891  0.5151  11.00000  0.05    1.90
Q2    1   0.2656  0.9813  0.5118  11.00000  0.05    1.87
Q3    1   0.9524  0.4235  0.1682  11.00000  0.05    1.44
Q4    1   0.2227  1.0433  0.1801  11.00000  0.05    1.38
Q5    1   0.4144  0.9073  0.2226  11.00000  0.05    1.30
Q6    1   0.7751  0.3785  0.1832  11.00000  0.05    1.26
Q7    1   0.2050  0.8020  0.5881  11.00000  0.05    0.87
Q8    1   0.6431  0.3842  0.2435  11.00000  0.05    0.87
Q9    1   0.4854  1.1176  0.1536  11.00000  0.05    0.80
Q10   1   0.6307  0.4618  0.2811  11.00000  0.05    0.78
Q11   1   0.3024  0.8937  0.5874  11.00000  0.05    0.74
Q12   1   0.0629  0.5064  0.5019  11.00000  0.05    0.70
Q13   1   0.5006  0.9009  0.4213  11.00000  0.05    0.65
Q14   1   0.1187  0.5392  0.4891  11.00000  0.05    0.65
Q15   1   0.0199  0.4627  0.5276  11.00000  0.05    0.63
Q16   1   0.5539  1.0012  0.2159  11.00000  0.05    0.62
Q17   1  -0.0620  0.8558  0.2411  11.00000  0.05    0.53
Q18   1   0.3389  0.4247  0.3264  11.00000  0.05    0.51
Q19   1   0.4485  0.7780  0.1546  11.00000  0.05    0.51
Q20   1  -0.0401  0.9642  0.1435  11.00000  0.05    0.48
Q21   1   0.4646  0.8752  0.5016  11.00000  0.05    0.47
Q22   1   0.2006  1.0781  0.2422  11.00000  0.05    0.47
Q23   1   0.0779  0.4956  0.5597  11.00000  0.05    0.46
Q24   1   1.1102  0.4117  0.0989  11.00000  0.05    0.46
Q25   1   0.3680  0.7784  0.5158  11.00000  0.05    0.45
;
_shelx_res_checksum              71029
_shelx_hkl_file
;
  -1   0   0  391.13   23.14
  -1   0  -1  136.77    8.20
  -1  -1  -1  349.39   20.68
   1   1   1  370.71   21.93
   0  -1   1 1232.39   72.75
   0   1  -1 1044.96   61.72
  -1   1   0  928.54   52.94
  -1   1   0  856.02   52.96
   0  -1  -2  331.36   18.09
   0   1   2  276.54   18.33
   0   1   2  350.52   18.37
   0  -1  -2  281.35   18.05
   0   0  -2  315.13   18.64
   0   0   2  303.98   18.16
   0   0   2  315.38   18.27
   1   1   0  573.47   32.69
   1   1   0  532.04   32.69
  -1  -1   0  502.40   29.72
   1  -1   1  377.60   22.40
  -1   1  -1  385.48   22.13
  -1   1  -1  365.00   22.08
  -1  -1  -2  696.00   42.03
   1   1   2  732.60   43.42
  -1  -1  -2  712.70   41.86
   1   0  -1   70.50    4.35
  -1   0   1   68.96    4.29
  -1   1   1 3096.61  168.13
  -1   1   1 2691.92  168.12
  -1   1   1 2744.34  168.20
   1  -1  -1 2416.16  147.95
   1  -1  -1 2629.95  148.03
   1   0   2  475.55   29.77
  -1   0  -2  453.73   26.45
  -1   0  -2  435.42   26.53
   1   0   2  521.32   29.73
   0  -2  -1   25.59    1.58
   0   2   1   23.25    1.45
   0   2   0  956.98   56.50
   0  -2   0 1140.78   67.52
   0  -2  -2  163.84   10.21
   0   2   2  167.98    6.79
   0   2   2   61.74    6.76
   0  -2  -2  179.83   10.27
   1   2   1  267.14   15.82
  -1  -2  -2 5486.82  323.48
   1   2   2 5432.48  320.27
  -1  -1   1   91.17    5.54
   1   1  -1   85.17    5.17
   1  -2   0  712.72   42.41
   1  -2   0  724.09   42.44
  -1   2   0  721.61   30.66
  -1   2   0  756.87   30.61
  -1   2   1   11.07    0.92
   1  -2  -1   11.62    0.86
   1  -2  -1   11.28    0.85
   1  -2  -1   11.00    0.83
  -1   2   1   13.81    0.92
   1  -1   2  579.36   35.60
   1  -1   2  632.58   35.64
  -1   1  -2  578.29   34.31
   0   1  -2  394.01   23.36
   0  -1   2  330.66   19.60
  -1  -1  -3 1119.79   68.11
   1   1   3 1197.84   69.99
   1   1   3 1166.86   69.72
   1   1   3 1217.29   69.90
  -1  -1  -3 1173.11   68.04
  -1   1   2    7.04    1.05
  -1   1   2    4.43    0.45
   1  -1  -2    6.51    0.55
   1  -1  -2    6.74    1.06
   0   1   3  676.98   41.36
   0  -1  -3  709.07   39.48
   0  -1  -3  656.66   39.30
   0   1   3  672.09   41.20
  -1   0   2  162.67    9.71
  -1   0   2  160.24    9.84
   1   0  -2  160.20   10.06
   1   0  -2  175.11   10.07
  -1   0  -3  504.25   28.19
   1   0   3  357.46   25.72
   1   0   3  489.58   25.68
  -1   0  -3  434.59   28.25
   2   0   1   44.24    2.77
   2   0   1   41.90    2.72
  -2   0  -1   43.60    2.77
  -2   0  -1   42.67    2.78
   2   0   1   42.49    2.75
   0   2  -1 1493.14   88.23
   0  -2   1 1614.98   95.40
  -1  -2   0  253.23   15.04
   1   2   0   -0.11    0.32
   1   2   0  250.30    1.76
   0   2   3  182.31   10.96
   0   2   3  207.95   11.07
   0  -2  -3  157.85   10.38
   0   2   3  171.87   10.82
   0  -2  -3  190.09   10.49
   0  -2  -3  172.65   10.27
   0   0  -3  979.01   57.80
   0   0   3  943.38    3.44
   0   0   3  971.98    3.75
  -1   2  -1  265.35   15.29
   1  -2   1  259.02   15.76
   1  -2   1  268.49   15.76
  -1   2  -1  258.73   15.19
  -1   2  -1  241.11   15.29
  -1  -2  -3   20.71    1.79
   1   2   3    0.21    0.47
   1  -2  -2   12.24    0.96
   1  -2  -2   13.84    1.38
   1  -2  -2   14.32    1.02
  -1   2   2   14.43    0.68
   1  -2  -2   15.38    1.04
  -1   2   2   -0.28    0.66
  -2   0   0  334.55   19.88
   2   0   0  313.35   18.22
   2   0   0  296.88   18.29
  -2   0  -2   35.79    2.41
   2   0   2   30.16    2.07
   2   0   2   37.25    2.26
   2   1   1 1082.12   63.96
  -2  -1  -1 1064.52   62.93
   2   1   2   79.29    5.29
   2   1   2   86.31    5.12
  -2  -1  -2   83.04    5.18
  -2  -1  -2   89.09    5.36
  -2   1  -1   29.53    1.92
   2  -1   1   31.33    2.05
  -2   1   0  318.45    2.83
   2  -1   0  292.31   17.66
  -2   1   0  265.40    1.93
   2  -1   0  298.20   17.57
   0  -3  -1   96.41    5.85
   0   3   1    5.44    0.47
   0  -3  -1  101.47    6.21
   0  -3  -2   41.46    2.48
   0  -3  -2   37.61    2.69
   0   3   2   42.45    0.90
   0   3   2   -0.22    0.69
  -2  -1   0   19.21    1.42
   2   1   0   18.07    1.31
  -2  -1   0   19.31    1.40
  -2  -1  -3   14.50    1.32
  -2  -1  -3   14.32    1.06
  -2  -1  -3   15.73    1.19
   2   1   3   14.83    1.00
   2   1   3   12.09    1.22
   2  -1   2    0.88    0.58
  -2   1  -2    0.21    0.42
  -1  -1   2    0.40    0.39
   1   1  -2    0.61    0.42
   2  -1  -1    1.80    0.44
   2  -1  -1    0.69    0.72
  -2   1   1   -0.07    0.29
   1  -1   3 9916.98  585.47
  -1   1  -3 9881.94  587.30
  -1   1  -3 9999.00  587.17
   1  -1   3 9941.91  585.47
  -2   0   1   76.63    4.61
   2   0  -1   70.16    4.36
  -2   0   1   74.33    4.78
  -1   1   3   42.32    1.25
  -1   1   3   -0.72    1.07
   1  -1  -3   42.53    2.69
   1  -1  -3   40.72    3.00
   1   1   4   22.49    1.75
   1   1   4   22.35    1.42
   1   1   4   21.30    1.98
  -1  -1  -4   23.81    1.79
  -1  -1  -4   20.68    1.37
  -2   0  -3   33.53    2.31
   2   0   3   33.33    2.15
   2   0   3   35.84    2.42
   2   0   3   33.66    2.15
   1   3   2  439.22   26.00
   0  -3   0  126.34    7.06
   0  -3   0  107.31    6.68
   0   3   0    0.31    0.22
   0  -3   0  110.45    6.84
   1   2  -1  103.99    6.07
   1   2  -1   94.42    5.91
  -1  -2   1  101.89    6.17
  -1   3   1    0.38    0.32
  -1   3   1   -0.02    0.24
   1  -3  -1    0.55    0.28
   1  -3  -1    0.37    0.30
  -1   3   1    0.69    0.29
   1  -3  -1    0.57    0.34
   2   2   2 2649.11  156.29
  -2  -2  -2 2779.58  164.01
   1  -2   2  529.58   30.89
   1  -2   2  510.89   30.82
  -1   2  -2  554.22   33.43
  -1   2  -2  575.70   33.51
   0   3   3    0.04    0.69
   0  -3  -3  119.22    7.01
   0  -3  -3  113.32    6.80
   0  -3  -3  116.01    7.08
   0  -3  -3  116.39    7.22
   0   3   3    0.35    0.85
   0   1  -3  219.28   12.18
   0   1  -3  190.78   12.15
   0  -1   3  185.31    1.77
   0  -1   3   -0.14    0.54
  -1  -2  -4   67.07    4.42
  -1  -2  -4   67.18    4.55
   1   2   4   63.28    2.59
   1   2   4   55.73    1.42
   1   3   1   -0.19    0.18
   1   3   1    3.50    0.96
   0   2  -2  514.46   30.56
   2  -2   0   15.31    1.24
   2  -2   0   14.49    1.13
  -2   2   0    0.04    0.33
  -2   2   0    0.16    0.30
   2  -2   0   15.06    1.01
   1  -2  -3  142.93    8.37
   1  -2  -3  125.92    8.75
  -1   2   3    8.11    1.26
  -1   2   3    0.21    0.76
   0  -1  -4  264.64   16.06
   0  -1  -4  296.68   16.30
   0   1   4  311.77    2.93
   0   1   4  287.72    2.05
  -1   3   0  497.25    2.85
   1  -3   0  480.36   29.15
  -1   3   0  415.84    2.15
   1  -3   0  512.82   29.20
  -1  -3  -3  650.64   38.40
   1   3   3  669.95   39.58
   2   2   1   87.04    5.32
  -2  -2  -1   91.24    5.56
   1  -3  -2  181.23   11.71
  -1   3   2  173.50   10.40
   1  -3  -2  210.21   11.61
   1  -3  -2  193.70   11.60
   1  -3  -2  188.57   11.57
   0   2   4    0.05    0.98
   0  -2  -4   75.49    5.57
   0   2   4   41.90    1.65
   0  -2  -4   89.68    5.23
   0  -2  -4   86.43    5.40
  -2  -2  -3  293.09   17.58
  -2  -2  -3  279.17   17.63
  -2  -2  -3  296.34   17.37
   2   2   3  319.50   18.94
   1   0  -3  254.98   15.29
  -1   0   3   -0.39    0.58
  -1   0   3    0.15    0.28
   2  -2   1   23.97    1.62
  -2   2  -1    0.06    0.28
  -2   2  -1   25.62    0.83
   2  -2   1   23.65    1.62
   1   0   4    7.10    0.48
  -1   0  -4    6.69    0.59
   1   0   4    8.00    0.91
  -1   0  -4    6.36    0.75
   1   0   4    0.31    0.35
  -2   2   1    0.29    0.35
   2  -2  -1  388.98   22.99
   2  -2  -1  388.77   22.86
   2  -2  -1  375.99   22.88
  -2   2   1   -0.04    0.30
  -2   2   1   -0.37    0.48
  -2  -1   1   46.01    2.98
   2   1  -1   45.30    2.93
   2  -1   3  336.56    2.94
  -2   1  -3  339.56   19.01
   2  -1   3  359.19    3.73
  -2   1  -3  302.13   18.91
   0   0   4  324.83   19.10
   0   0  -4  303.19   19.02
   0   0  -4  321.97   18.80
   0   0   4  340.90   19.13
   0   0   4  281.76   19.26
   2  -1  -2   68.55    4.53
  -2   1   2   -0.08    1.39
   2  -1  -2   68.73    4.18
  -2   1   2   71.93    1.61
  -2  -1  -4  177.01    9.96
  -2  -1  -4  169.63    9.82
  -2  -1  -4  144.84    9.95
   2   1   4  162.01    9.98
  -2  -1  -4  157.58   10.07
   1   3   0    2.47    0.87
   1   3   0    0.02    0.21
  -1  -3   0    1.06    0.29
   0   3  -1 1775.61    7.97
   0   3  -1    0.21    0.27
   0  -3   1 1829.36  112.34
   0  -3   1 2012.96  112.49
  -1   3  -1    0.03    0.26
   1  -3   1  194.80   12.26
  -1   3  -1   -0.11    0.18
   1  -3   1  211.01   12.26
  -2  -2   0  305.01   18.19
   2   2   0  285.09   17.02
   1   3   4    1.49    0.76
   1   3   4   -0.07    0.32
  -1  -3  -4    2.82    0.82
  -1  -3  -4    3.12    1.07
   1  -3  -3  534.72   32.74
   1  -3  -3  577.98   32.72
   1  -3  -3  487.89   32.99
   1  -3  -3  563.66   32.72
   1  -3  -3  557.65   32.79
   2  -2   2  172.89   10.28
  -2   2  -2  165.75    9.99
  -2   2  -2  166.22   10.06
   2  -2   2  167.75   10.15
  -2  -2  -4   11.95    0.86
  -2  -2  -4   10.10    1.24
   2   2   4    9.54    1.28
  -2   0   2    0.46    0.58
  -2   0   2   -0.38    0.75
   2   0  -2  421.41   25.11
   0   3   4    0.22    0.46
   0   3   4   -0.10    0.29
   0  -3  -4  852.90   54.44
   0  -3  -4  897.24   54.32
   0   3   4   -0.15    0.68
   2  -2  -2 1111.13   62.88
   2  -2  -2 1034.16   63.16
   2  -2  -2 1029.03   62.87
  -2   2   2  492.69    4.12
  -2   2   2   -0.07    0.68
   2   0   4   41.85    1.66
  -2   0  -4   45.40    3.05
  -2   0  -4   46.11    3.08
   2   0   4   45.03    1.22
  -1  -2   2    0.22    0.41
   1   2  -2    0.22    0.38
   1   2  -2    1.12    0.61
   1  -2   3  916.26   53.04
  -1   2  -3  928.23   55.49
   1  -2   3  924.28   52.99
   1  -2   3  818.02   53.13
  -1   2  -3  951.69   55.62
   2   3   2  117.60    7.08
  -2  -3  -2  108.73    6.56
   0   4   2    0.12    0.18
   0   4   2   -0.05    0.38
   0  -4  -2   14.45    1.00
   1   1  -3   12.51    0.96
   1   1  -3   13.26    1.09
   1   1  -3   12.46    1.16
  -1  -1   3   12.37    1.12
  -2  -3  -3 2542.86  150.04
   2   3   3 2705.29  159.56
   3   0   1  207.56   12.54
  -3   0  -1  205.44   12.35
  -3   0  -1  203.76   12.36
   1  -1   4 1553.62    5.52
  -1   1  -4 1570.83   92.78
   1  -1   4 1518.14    5.63
   3   0   2  130.49    8.00
  -3   0  -2  118.17    7.84
  -3   0  -2  137.07    7.87
   3   0   2  132.57    8.10
  -1  -2  -5    0.64    0.58
   1   2   5    1.05    1.23
   1   2   5    0.38    0.19
   1   2   5   -0.35    0.59
  -1  -2  -5   -0.37    0.82
   1   2   5    0.62    0.78
  -1  -2  -5    0.10    0.88
   1  -1  -4  495.28   31.83
  -1   1   4  488.69    6.11
   1  -1  -4  568.57   31.55
   1  -1  -4  506.46   31.59
  -1   1   4   -0.04    0.31
  -1   2   4    0.04    0.31
   1  -2  -4  196.69   11.85
  -1   2   4   52.13    2.36
   1  -2  -4  198.60   12.31
  -1  -1  -5  217.26   13.13
   1   1   5  223.56    2.15
  -1  -1  -5  213.85   13.50
   1   1   5  225.79    3.80
   1   1   5  238.20    4.40
  -1  -1  -5  230.99   13.27
   2  -3   0  145.13    8.65
  -2   3   0    0.05    0.20
  -2   3   0    0.32    0.30
   2  -3   0  143.14    8.63
   2  -3   0  141.33    8.68
   0   4   1  112.83    1.06
   0  -4  -1  146.65    8.42
   0  -4  -1  128.29    7.91
   0   4   1   -0.12    0.34
   2  -3  -1  378.74   22.92
  -2   3   1   -0.13    0.25
   2  -3  -1  379.78   23.10
   2  -3  -1  407.68   22.88
  -2   3   1    0.04    0.34
   2  -3  -1  386.06   22.79
   2  -3  -1  363.53   22.92
  -3  -1  -2   14.87    1.25
   3   1   2   16.27    1.25
  -3  -1  -2   17.02    1.42
   0  -4  -3  359.74   20.03
   0   4   3  345.82   20.48
   0  -4  -3  328.43   19.76
   0  -4  -3  332.53   19.76
   0   4   3  340.60   20.26
   0   2  -3  265.68   15.91
   0  -2   3  233.12   13.92
   3  -1   1  373.62   22.81
   3  -1   1  395.59   22.90
  -3   1  -1  379.75   23.41
  -3   1  -1  411.52   23.45
  -2  -3  -1   85.18    5.21
   2   3   1   83.03    5.07
  -3  -1  -1    5.40    0.74
   3   1   1    3.89    0.62
   1   4   2    0.15    0.18
   1   4   2    0.16    0.43
   1   3  -1   30.08    2.09
   1   3  -1   24.46    1.69
   3   0   0  443.66   26.46
  -3   0   0  494.23   28.61
  -3   0   0  469.48   28.58
   3   1   3  406.26   23.35
   3   1   3  397.72   23.11
  -3  -1  -3  391.75   23.12
  -3  -1  -3  397.68   23.21
  -3  -1  -3  369.27   23.29
   3   1   3  372.83   23.08
   1   4   3  150.53    2.52
   1   4   3    0.11    0.15
   0  -1   4   13.65    0.69
   0  -1   4    0.35    0.53
   0   1  -4   14.19    1.09
   0   1  -4   15.35    1.09
   0   2   5   13.50    0.93
   0  -2  -5  145.09    8.06
   0  -2  -5  128.24    8.00
   0   2   5    0.05    0.45
   0  -2  -5  140.48    8.32
   3  -1   0  117.56    6.99
  -3   1   0    3.80    0.88
   3  -1   0  109.59    7.01
  -3   1   0  124.03    1.85
  -2  -3  -4   10.00    1.26
  -2  -3  -4    9.53    0.73
  -3   1  -2  176.64   10.68
   3  -1   2  185.86   10.75
   3  -1   2  167.22   10.77
   3   0   3  130.36    8.06
   3   0   3  129.13    7.86
  -3   0  -3  132.57    8.14
  -3   0  -3  130.55    8.15
  -1   4   1    6.82    1.28
   1  -4  -1  945.68   57.59
   1  -4  -1  998.64   57.68
  -1   4   1  288.78    2.68
   1  -4  -1 1004.68   57.63
   2   1  -2  271.83   16.31
  -2  -1   2  314.82   18.86
   1  -3   2   49.23    3.31
  -1   3  -2   50.47    3.32
  -1   3  -2   50.59    3.36
   1  -3   2   51.54    3.36
  -2   3  -1   -0.04    0.34
  -2   3  -1    1.10    0.46
   2  -3   1    0.42    0.48
  -2   3  -1    0.54    0.36
   2  -3   1    0.56    0.33
   2  -3   1    0.76    0.58
  -2  -2   1   50.84    3.26
   2   2  -1   53.65    3.44
  -1   4   2   -0.25    0.28
   1  -4  -2  233.93   15.87
   1  -4  -2  293.29   15.75
  -1   4   2   58.88    1.15
   1  -4  -2  248.37   15.69
   1  -4  -2  270.79   15.69
   0   1   5   12.60    0.93
   0   1   5   15.69    1.11
   0  -1  -5   13.94    1.01
   0  -1  -5   12.72    0.91
   0  -1  -5   13.51    1.19
   0   1   5   12.18    1.22
   2  -3  -2   98.18    6.11
   2  -3  -2  102.51    6.15
  -2   3   2   10.47    1.42
   2  -3  -2   97.70    6.39
  -2   3   2   89.41    2.15
   2  -1   4    5.00    0.92
   2  -1   4    8.30    0.91
  -2   1  -4    6.51    0.86
  -2   1  -4    7.44    0.78
   2  -1   4    7.61    0.75
  -2   1   3   23.54    6.93
   2  -1  -3  772.92   42.09
   2  -1  -3  670.00   41.96
  -2   1   3  717.04    7.90
   2   1   5   59.98    3.64
   2   1   5   54.28    4.00
  -2  -1  -5   57.47    3.75
   2   1   5   58.84    3.87
  -2   2  -3  363.26   20.98
   2  -2   3  309.95   19.81
  -2   2  -3  342.11   20.82
   2  -2   3  355.36   19.98
   2  -2   3  347.06   19.92
   1   3   5   26.25    1.45
  -1  -3  -5   28.38    2.00
  -1  -3  -5   21.78    2.04
  -1  -3  -5   20.68    2.14
   1   3   5   25.59    1.38
   0  -3   2   26.61    2.07
   0   3  -2   24.53    1.83
   1   0  -4    1.22    0.37
   1   0  -4    1.48    0.50
  -1   0   4    0.77    0.78
  -1   0   4    0.70    0.45
   1  -3  -4   41.79    3.78
  -1   3   4    2.99    0.73
   1  -3  -4   50.98    3.36
  -1   3   4    0.53    0.40
   1  -3  -4   58.04    3.37
   0  -4   0  225.40   14.05
   0  -4   0  248.43   14.31
   0  -4   0  230.91   13.87
   0   4   0  235.97   14.11
  -2  -2  -5   33.50    2.49
   2   2   5   37.54    2.91
  -2  -2  -5   34.31    2.64
   1   0   5   23.73    1.53
   1   0   5   20.67    0.72
   1   0   5   23.80    0.88
  -1   0  -5   23.17    1.56
  -1   0  -5   23.19    1.71
  -2   2   3  505.23   29.99
   2  -2  -3  467.86   27.51
   2  -2  -3  452.39   27.32
   2  -2  -3  485.90   27.88
  -2   2   3  511.23   30.40
   2  -2  -3  466.11   27.48
  -1  -4  -1  172.58   10.25
   1   4   1  169.62   10.42
  -1  -4  -1  169.42   10.15
   1   4   1  191.31   10.94
   1  -4   0    6.98    0.93
   1  -4   0    7.68    0.70
  -1   4   0    8.45    0.59
  -1   4   0    0.12    0.20
   0  -4  -4   19.77    1.46
   0   4   4   16.43    0.89
   0   4   4   17.85    1.69
   0  -4  -4   17.76    1.15
   0  -4  -4   21.20    1.86
   0   4   4    5.62    0.98
   0  -4  -4   20.54    1.59
  -1  -4  -4  101.89    6.51
   1   4   4  100.24    4.97
   1   4   4  112.93    5.34
   0  -3  -5  370.17   20.21
   0   3   5    5.43    0.57
   0  -3  -5  287.64   20.23
   0   3   5    0.39    0.73
   0  -3  -5  335.50   19.90
   0  -3  -5  338.40   20.09
   3   2   2  114.46    7.00
  -3  -2  -2  115.46    6.84
  -3  -2  -2  104.56    7.03
  -3  -2  -3  111.71    6.71
  -3  -2  -3  107.62    6.71
  -3  -2  -3  107.32    6.95
   3   2   3  109.78    6.68
  -3  -1   0   54.46    3.69
  -3  -1   0   58.09    3.72
  -3  -1   0   58.48    3.59
   3   1   0   57.81    3.73
   1  -4  -3  141.05    8.60
   1  -4  -3  141.22    8.50
   1  -4  -3  140.90    8.50
   1  -4  -3  145.63    8.44
   1  -4  -3  128.44    8.62
  -1   4   3  128.32    7.93
  -2   0   3    0.42    0.37
  -2   0   3  160.17    3.26
   2   0  -3  180.33   10.94
  -3   2  -1  223.46   13.52
  -3   2  -1  231.05   13.65
   3  -2   1  211.09   13.19
   3  -2   1  228.47   13.17
   3  -2   1  217.64   13.15
   3   1   4    1.31    0.79
   3   1   4    2.96    0.69
  -3  -1  -4    3.08    0.55
  -3  -1  -4    2.79    0.77
   3   1   4    2.82    0.42
  -3  -1  -4    2.76    0.54
  -3   2   0  499.86   12.44
   3  -2   0  492.64   29.09
  -3   2   0  538.12   12.89
  -3   2   0  557.25   13.02
   3  -2   0  487.09   29.26
  -3   1   1  332.42   19.94
   3  -1  -1  553.78   32.53
   3  -1  -1  538.55   32.69
  -3   1  -3   36.28    2.50
   3  -1   3   35.83    2.56
  -2  -3   0   22.06    1.55
  -2   0  -5  253.55   15.45
   2   0   5  282.19   16.62
  -2   0  -5  262.35   15.53
   2   0   5  271.60   16.47
  -2   0  -5  253.82   15.32
   2   0   5  271.61   16.33
   0   0  -5    9.41    0.98
   0   0   5    7.48    0.92
   0   0   5    7.94    0.66
   0   0   5    6.54    0.65
   0   0  -5    6.74    0.63
   0   0  -5    6.97    0.54
  -3   0   1  906.20   53.94
   3   0  -1  884.72   52.47
  -3   0   1  909.72   53.77
  -2   3  -2    6.77    0.86
  -2   3  -2    5.76    0.69
   2  -3   2    8.04    0.87
   2  -3   2    5.52    0.83
  -3  -2  -1   58.38    3.72
   3   2   1   52.24    3.38
  -3  -2  -1   58.60    3.76
   3   0   4   91.31    5.70
   3   0   4   86.38    5.39
  -3   0  -4   87.82    5.60
  -2  -3  -5    1.82    0.95
  -2  -3  -5    2.72    0.36
   3   2   4   82.01    5.40
  -3  -2  -4   83.44    5.19
  -3  -2  -4   77.56    5.34
  -3  -2  -4   81.86    5.04
   3   2   4   81.67    5.00
   2  -3  -3  496.20   27.38
   2  -3  -3  419.25   26.68
   2  -3  -3  473.28   26.87
   2  -3  -3  480.36   27.17
   2  -3  -3  485.39   26.86
  -2   3   3  464.20   27.96
   3  -2   2   59.67    3.94
  -3   2  -2   68.95    4.25
  -3   2  -2   65.06    4.20
   3  -2   2   66.42    4.02
   1   2  -3   31.07    2.00
   1   2  -3   26.42    1.90
  -1  -2   3   33.70    2.42
  -3   2   1  279.57    3.35
   3  -2  -1  257.78   16.21
   3  -2  -1  279.96   16.18
  -3   2   1  267.18    3.39
  -1  -4   0    1.38    0.30
   1   4   0    1.88    0.41
   1   4   0    1.52    0.74
  -1  -4   0    1.31    0.45
  -1  -4   0    0.39    0.75
   1   4   0    1.72    1.09
   1  -2   4 1428.80   85.79
   1  -2   4 1481.26   85.85
  -1   2  -4 1417.11   83.81
  -1   2  -4 1409.29   83.61
  -1   2  -4 1417.38   83.60
  -2  -4  -3  591.32   34.98
   2   4   3  574.88   33.97
  -1   4  -1    3.53    0.49
   1  -4   1    3.26    0.72
   1  -4   1    4.77    0.75
  -1   4  -1    4.26    0.80
   1  -4   1    3.35    0.57
  -1   4  -1   -0.02    0.18
   0  -4   1  173.58    9.40
   0  -4   1  140.07    8.91
   0  -4   1  147.59    9.10
   0   4  -1  152.43    8.88
   0   4  -1  138.85    8.53
   0   4  -1  151.31    8.68
   2   4   2  568.52   33.68
   2   4   2  569.54   33.76
   1   2   6    6.27    0.48
   1   2   6    6.15    0.99
  -1  -2  -6    5.70    0.88
   1   2   6    5.43    0.50
   1   2   6    6.22    1.47
   1   2   6    7.57    1.19
  -1  -2  -6    6.00    0.52
  -1  -2  -6    4.21    1.15
   1  -2  -5  141.08    9.20
  -1   2   5   -0.05    0.38
  -1   2   5  136.06    3.88
   1  -2  -5  151.13    8.82
   1  -2  -5  137.65    8.73
   1   4   5    0.35    0.51
   1   4   5    4.19    1.03
  -1  -4  -5    2.38    1.18
  -1  -4  -5    2.83    0.85
   1   4   5    4.59    0.91
   1   4   5    2.02    0.21
   2  -4  -1   73.78    4.25
   2  -4  -1   64.29    4.17
   2  -4  -1   65.38    4.23
  -2   4   1   53.94    1.37
  -2   4   1    0.28    0.28
   1   3  -2    6.88    0.69
  -1  -3   2    8.07    0.97
   1   1  -4   19.75    1.62
   1   1  -4   20.07    1.42
  -1  -1   4   18.52    1.53
   1  -4  -4  369.26   22.61
   1  -4  -4  376.41   22.26
   1  -4  -4  373.17   22.05
   1  -4  -4  348.72   22.23
   1  -4  -4  386.21   22.60
   1  -4  -4  381.09   22.17
  -2  -4  -4  622.24   36.80
  -1   1  -5  455.47   27.06
   1  -1   5  499.20   28.48
   1  -1   5  482.15   28.61
   1  -1   5  459.05   28.48
  -1   3  -3  153.73    8.95
   1  -3   3  148.82    9.03
   1  -3   3  145.52    9.12
  -1   3  -3  136.77    8.78
   2   2  -2   34.93    2.38
  -2  -2   2   42.02    2.79
   1  -1  -5   85.38    5.52
  -1   1   5   92.95    6.43
   1  -1  -5   94.63    5.05
   1  -1  -5   94.37    5.29
   1  -1  -5   85.07    5.09
  -1   1   5   97.16    6.01
   1  -1  -5   74.47    4.94
   2  -4   0   74.82    4.78
   2  -4   0   75.38    4.71
  -2   4   0   73.83    1.64
   2  -4   0   80.06    4.79
  -2   4   0   80.72    1.62
   0  -4  -5    6.39    0.95
   0   4   5    4.44    0.80
   0  -4  -5    6.91    0.76
   0   4   5    6.14    1.08
   0  -4  -5    5.98    1.14
   0   4   5    0.18    0.39
  -3  -1   1   33.20    1.27
   3   1  -1   27.93    2.16
   3   1  -1   34.69    2.23
  -3  -1   1   -0.05    0.42
   1   1   6    1.97    0.69
   1   1   6    1.40    0.92
   1   1   6    1.46    1.05
   1   1   6    1.42    0.34
  -1  -1  -6    1.39    0.37
  -1  -1  -6    0.77    0.63
  -1  -1  -6    0.99    0.54
   2  -4  -2  263.30   16.97
  -2   4   2    6.24    1.10
   2  -4  -2  283.55   16.80
   2  -4  -2  287.16   16.80
   2  -4  -2  294.95   16.86
  -2   4   2  289.06    3.20
   2  -4  -2  258.74   17.10
   2  -2   4  219.72   13.29
  -2   2  -4  215.30   13.36
  -2   2  -4  224.31   13.51
  -2   2  -4  225.24   13.29
   2  -2   4  220.63   13.08
   2  -2   4  213.13   13.14
   3   3   3  259.39   15.49
  -3  -3  -3  255.02   15.92
  -3  -3  -3  262.60   15.59
   0  -2   4    9.24    0.83
   0   2  -4    8.01    0.78
   0   2  -4    8.33    0.85
  -3  -2   0   12.44    1.09
   3   2   0    9.21    0.93
  -2  -1   3  180.58   11.02
   2   1  -3  181.37   11.01
  -3   1   2  651.92    3.73
   3  -1  -2  644.67   37.59
  -3   1   2   -0.51    1.30
   3  -1  -2  609.81   37.86
   3  -1   4   51.21    3.38
  -3   1  -4   52.46    3.51
   3  -1   4   52.57    3.53
   1   3   6  453.16   22.95
  -1  -3  -6  410.39   26.32
  -1  -3  -6  444.94   26.56
   1   3   6  482.11   22.57
   1   3   6  478.25   22.61
  -1  -3  -6  454.90   26.28
   3   1   5   46.48    3.27
  -3  -1  -5   46.71    3.09
  -3  -1  -5   44.24    3.31
  -3  -1  -5   48.98    3.05
   3   1   5   43.69    3.16
   1  -3  -5  233.27   13.41
   1  -3  -5  197.26   13.40
   1  -3  -5  205.42   13.96
  -1   3   5  209.16    4.84
  -1   3   5    0.05    0.39
  -2  -2  -6    0.56    0.91
   2   2   6    0.34    1.01
   2   2   6    1.04    0.32
  -2  -2  -6    0.46    0.84
   2   2   6    2.09    0.78
   0   5   2   66.05    4.12
   0  -5  -2   77.26    5.23
   0  -5  -2   75.17    4.63
   0   5   2   71.78    4.52
   0   5   2   73.41    4.24
   2  -2  -4  366.23   21.58
  -2   2   4  354.91    6.26
  -2   2   4  349.35    5.60
   2  -2  -4  350.45   22.08
  -3  -3  -2   29.99    2.07
   3   3   2   31.22    2.12
   0  -5  -3  252.73   12.12
   0   5   3    0.26    0.22
   0   5   3  260.14    3.64
   0  -5  -3  274.15   12.53
   2  -1   5  650.05   39.52
   2  -1   5  655.65   39.28
  -2   1  -5  661.60   39.65
  -2   1  -5  666.63   39.46
   2  -1   5  682.18   39.45
   2  -1   5  663.30   39.26
   2  -1  -4  477.23   27.69
   2  -1  -4  451.66   27.37
  -2   1   4    0.21    0.34
  -2   1   4  498.37    6.65
   0   3  -3  130.46    8.04
   0  -3   3  146.16    7.34
   0  -3   3  103.66    7.04
   3  -3   0  838.90   45.56
   3  -3   0  752.17   45.37
  -3   3   0  723.88   44.89
  -3   3   0  762.30   44.77
   3  -3   0  724.53   45.58
  -3   3   0  786.98   44.96
  -3  -2  -5    1.58    0.73
  -3  -2  -5    1.91    0.84
   3   2   5    0.62    0.82
   3   2   5    1.20    0.95
  -3  -2  -5    1.72    0.72
  -3  -2  -5    0.59    0.44
   3  -2   3   90.91    5.81
   3  -2   3  103.24    6.01
  -3   2  -3  105.78    6.57
  -3   2  -3  105.12    6.53
   3  -2   3   93.90    5.92
  -2  -3   1  168.90   10.21
   2   3  -1  164.57    9.96
   2   1   6  180.89   11.05
   2   1   6  189.06   11.58
  -2  -1  -6  174.06   10.64
   2   1   6  192.32   11.38
   0  -2  -6  193.09   11.96
   0   2   6  221.66    4.33
   0  -2  -6  205.48   12.29
   0   2   6  215.68    3.50
   0  -2  -6  208.70   11.96
   2   4   1  416.29   25.82
   2   4   1  436.21   25.77
   2   4   1  477.57   26.26
  -2  -4  -1  430.87   25.59
   3   3   4  202.49   12.11
  -3  -3  -4  195.19   12.56
  -3  -3  -4  216.48   12.36
  -3  -3  -4  192.47   12.69
  -3   2   2 1315.81   83.97
  -3   2   2 1493.07   83.86
   3  -2  -2 1411.69   76.76
   3  -2  -2 1250.04   76.99
   3  -2  -2 1216.37   76.73
  -3   3  -1  123.31    7.32
  -3   3  -1  114.97    7.21
   3  -3   1  121.63    7.33
   3  -3   1  118.56    7.39
   3  -3   1  118.32    7.29
   3   0  -2  390.51   23.75
  -3   0   2  428.12    3.18
  -3   0   2   -0.08    1.23
   3   0  -2  403.00   23.75
   0   1  -5   30.01    2.14
   0  -1   5   35.73    1.53
   0   1  -5   31.06    2.40
   0  -1   5   30.18    0.96
   0   1  -5   35.99    2.14
  -2   3  -3   32.90    2.38
  -2   3  -3   33.22    2.21
   2  -3   3   31.66    2.30
   2  -3   3   32.23    2.33
   3  -3  -1  266.12   15.92
  -3   3   1  249.24   14.53
   3  -3  -1  249.89   15.78
   3  -3  -1  270.06   15.73
  -3   3   1  232.30   14.55
   0   5   1    0.23    0.34
   0   5   1   -0.25    0.24
   0  -5  -1    0.11    0.95
   0  -5  -1    0.60    0.40
   1   5   3   74.50    2.09
   1   5   3    0.17    0.25
   2  -4   1  324.21   20.78
   2  -4   1  362.27   20.99
  -2   4  -1  340.00   20.61
  -2   4  -1  348.11   20.56
   2  -4   1  359.47   20.72
   2  -4   1  351.88   20.87
  -2  -4  -5   73.68    4.39
  -2  -4  -5   63.55    4.97
  -3   0  -5   66.54    4.43
   3   0   5   74.98    5.04
   3   0   5   77.71    4.74
   3   0   5   73.45    4.77
   3   0   5   78.06    4.90
   3   0   5   74.88    4.89
   0  -3  -6  260.33   14.73
   0   3   6  290.51    5.13
   0  -3  -6  282.76   14.18
   0   3   6   22.45    3.24
   0  -3  -6  221.79   14.00
   0  -3  -6  281.15   14.46
   0  -1  -6  156.93    9.13
   0   1   6  141.55    8.93
   0  -1  -6  159.78    9.37
   0   1   6  164.60    9.04
   0   1   6  144.13    9.24
   0  -1  -6  144.77    9.05
  -2  -3  -6   59.10    4.09
  -2  -3  -6   57.35    4.22
   2   3   6   57.76    4.13
   2   3   6   52.93    3.90
   1  -5  -2  120.43    7.09
  -1   5   2  123.97    2.63
  -1   5   2  124.09    1.88
   1  -5  -2  118.87    7.07
   1  -5  -2  112.61    7.13
  -1  -5  -2   68.65    4.18
  -1  -5  -2   54.76    3.61
   1   5   2   58.31    3.74
   1   5   2   70.39    4.50
  -2   3   4  216.45   13.50
   2  -3  -4  215.75   13.54
   2  -3  -4  232.87   13.39
  -2   3   4  217.16   13.02
   2  -3  -4  212.45   14.05
   2  -3  -4  220.53   13.55
   1   4  -1   69.06    4.30
  -1  -4   1   73.85    4.89
   1   4  -1   75.45    4.70
   1   4  -1   71.41    4.49
   1   4  -1   65.48    4.20
   2  -4  -3  267.31   15.33
   2  -4  -3  258.52   15.79
   2  -4  -3  252.76   15.55
   2  -4  -3  269.66   15.43
   2  -4  -3  234.75   15.38
   0  -5  -4  209.76   13.89
   0  -5  -4  220.28   13.30
   0  -5  -4  231.78   13.62
   0   5   4  229.71    3.37
   0  -5  -4  227.40   13.32
   0   5   4    0.06    0.19
   0  -5  -4  228.77   13.70
   1   0  -5   77.12    4.84
   1   0  -5   73.44    4.59
  -1   0   5   77.49    5.12
  -1   0   5   72.94    4.80
   1   0   6    6.07    0.95
   1   0   6    4.91    0.55
   1   0   6    6.22    1.14
   1   0   6    3.17    0.39
   1   0   6    6.15    0.72
  -1   0  -6    5.42    0.58
  -1   5   1    0.22    0.22
  -1   5   1    5.75    0.59
   1  -5  -1    4.50    0.55
   1  -5  -1    4.87    0.44
  -3  -3  -1   21.45    1.61
   3   3   1   22.21    1.64
   1   5   4   17.53    1.21
   1   5   4   -0.06    0.15
  -1  -5  -4   14.03    1.46
   1  -4   2   23.50    1.92
  -1   4  -2   21.17    1.65
   1  -4   2   25.57    1.92
  -1   4  -2   26.12    1.88
  -1   5   3   -0.28    0.26
   1  -5  -3   30.34    2.10
   1  -5  -3   32.50    2.42
   1  -5  -3   35.23    2.16
   1  -5  -3   34.24    2.16
  -1   5   3   31.50    1.42
  -2   0   4   25.36    1.82
  -2   0   4   20.86    2.07
   2   0  -4   23.27    1.79
  -3  -3  -5  357.40   21.33
  -3  -3  -5  341.91   21.37
  -3  -3  -5  352.82   20.94
   2   0   6  592.23   34.23
  -2   0  -6  560.20   32.70
  -2   0  -6  540.09   32.53
   2   0   6  574.48   34.44
   2   0   6  564.31   34.04
   4   0   2   64.43    4.18
  -4   0  -2   62.84    4.05
  -4   0  -2   64.59    4.03
  -4   0  -2   55.09    3.95
   3  -3   2   64.43    4.05
   3  -3   2   61.42    3.94
  -3   3  -2   58.15    4.04
  -3   3  -2   69.34    4.09
  -1  -4  -6  210.83   13.84
   1   4   6  242.80    4.19
   1   4   6  262.57    4.54
  -1  -4  -6  242.68   14.07
  -1  -4  -6  229.67   14.23
   0   4  -2   34.16    2.48
   0  -4   2   38.08    2.87
  -1   4   5   -0.35    0.41
   1  -4  -5  249.78   15.26
   1  -4  -5  275.44   15.65
   1  -4  -5  246.27   15.24
   3  -3  -2  951.19   54.28
  -3   3   2  908.12   56.02
  -3   3   2  980.16   55.85
  -3   3   2  924.09   55.86
   3  -3  -2  878.53   54.29
   4   0   1   99.33    6.26
  -4   0  -1   82.75    5.32
  -4   0  -1   82.43    5.33
  -4   0  -1   85.46    5.34
   1   5   1    3.44    1.19
  -1  -5  -1    2.25    0.32
  -1  -5  -1    4.20    1.05
   1   5   1    4.01    0.54
  -1  -5  -1    4.01    0.54
  -4   0  -3   97.42    6.30
   4   0   3   99.77    5.53
   4   0   3   87.57    5.68
  -4   0  -3   91.21    6.19
   4   0   3   83.39    5.30
  -4   0  -3  111.10    6.36
  -4  -1  -2  404.62   23.72
   4   1   2  385.58   23.10
  -4  -1  -2  389.94   23.81
  -4  -1  -2  391.44   23.71
   3   2  -1  500.93   27.78
   3   2  -1  431.54   27.76
  -3  -2   1  489.92   29.23
   0  -5   0   12.43    1.27
   0  -5   0   12.19    0.98
   0   5   0   10.36    0.92
   0  -5   0   11.99    1.51
   0   5   0   11.34    1.25
  -4  -1  -3    1.38    0.78
   4   1   3    0.81    0.50
  -4  -1  -3    0.20    0.66
  -4  -1  -3    0.28    0.56
  -2  -4   0    5.12    0.62
   2   4   0    5.41    0.65
   2   4   0    4.02    1.13
  -1   5   0    0.08    0.22
  -1   5   0   87.00    1.74
   1  -5   0   78.38    5.04
   1  -5   0   89.93    5.36
  -4   1  -1  587.61   32.07
  -4   1  -1  534.81   32.01
  -4   1  -1  503.75   31.97
   4  -1   1  540.52   32.24
   4  -1   2  541.93   32.66
  -4   1  -2  526.61   31.37
   4  -1   2  553.89   32.70
  -3  -1   2  168.03   12.59
  -3  -1   2  259.50   12.71
   3   1  -2  235.64   13.56
   3   1  -2  212.00   13.55
   0  -4  -6   89.50    5.84
   0  -4  -6   93.40    5.97
   0   4   6  101.63    2.90
   0  -4  -6   88.93    6.11
   0  -4  -6   90.19    5.63
   0   4   6   98.89    2.57
   1   5   5   31.76    2.00
  -1  -5  -5   30.54    2.45
   1   5   5   36.70    2.80
   1   5   5   33.77    2.41
   0   0   6   23.79    1.71
   0   0   6   28.42    2.05
   0   0  -6   26.98    1.73
   0   0  -6   24.18    1.61
   0   0  -6   33.18    2.15
   3  -2   4    3.85    0.84
  -3   2  -4    4.58    0.99
  -3   2  -4   30.67    1.43
   3  -2   4    3.60    0.69
   3  -2   4    4.97    0.99
   2  -4   2    0.54    0.64
  -2   4  -2    0.88    0.58
   2  -4   2    1.08    0.61
  -2   4  -2   -0.39    0.46
  -2   4  -2    0.57    0.55
   1   2  -4   34.99    2.36
   1   2  -4   36.17    2.45
  -1  -2   4   34.83    2.56
   3  -1  -3  582.16   34.85
  -3   1   3   -0.07    0.26
  -3   1   3  619.05    7.41
  -3  -2  -6  210.37   12.94
  -3  -2  -6  214.03   12.89
  -3  -2  -6  220.91   13.09
   3   2   6  212.83   13.23
  -3  -2  -6  205.95   12.66
   3  -1   5   31.02    2.39
  -3   1  -5   31.60    2.39
   3  -1   5   30.66    2.15
   3  -1   5   30.69    2.33
   1  -5  -4    1.39    0.68
   1  -5  -4    0.81    0.41
   1  -5  -4    0.49    1.12
   1  -5  -4    0.79    0.57
   1  -5  -4    0.99    0.43
   1  -5  -4    1.11    0.30
   1  -5  -4    0.45    0.98
  -1   5   4    0.76    0.68
  -3   2   3  244.92   13.44
   3  -2  -3  209.77   12.66
  -3   2   3  211.41   13.06
   3  -2  -3  230.41   13.19
   3  -2  -3  218.07   12.83
   3  -2  -3  196.83   12.82
  -3   2   3  229.32   13.61
   0  -5  -5 1007.56   53.66
   0   5   5  954.49   56.66
   0  -5  -5  997.15   53.42
   0  -5  -5  937.79   53.25
   0  -5  -5  870.45   52.91
   3   1   6    8.53    1.36
   3   1   6    8.41    0.86
  -3  -1  -6    9.93    1.21
   3   1   6    8.51    1.27
  -3  -1  -6    9.28    0.90
  -3  -1  -6   11.11    1.21
   1   3  -3   15.80    1.29
  -1  -3   3   15.09    1.45
  -1  -3   3   13.56    1.14
  -1   2  -5  904.78   52.72
   1  -2   5  987.45   56.38
   1  -2   5  922.29   56.33
  -1   2  -5  874.93   52.72
  -2  -4  -6   42.33    3.29
   2   4   6   41.97    3.16
  -2  -4  -6   38.25    3.05
   4   1   1  143.34    8.86
  -4  -1  -1  149.00    9.42
  -4  -1  -1  153.57    9.35
  -4  -1  -1  152.48    9.31
   2   2  -3   53.61    3.37
   2   2  -3   48.87    3.30
  -2  -2   3   57.05    3.84
   1  -3   4 2074.86  113.95
  -1   3  -4 1870.78  109.39
  -1   3  -4 1831.40  109.19
   1  -3   4 1875.87  113.81
   1  -3   4 1840.21  114.04
   4   1   4  122.47    7.81
  -4  -1  -4  126.21    8.08
  -4  -1  -4  133.14    8.24
  -4  -1  -4  138.41    8.35
   4   1   4  131.23    8.16
   4   1   4  133.93    7.86
  -3  -4  -3 1538.77   90.93
   3   4   3 1465.03   86.55
   2  -4  -4  148.95    9.34
   2  -4  -4  157.69    9.23
   2  -4  -4  154.29    9.47
   2  -4  -4  154.49    9.34
   2  -4  -4  147.01    9.71
   2  -4  -4  143.67    9.91
   4  -1   0  760.18   45.77
   4  -1   0  782.11   45.78
  -4   1   0  777.93   47.51
  -4   1   0  837.25   47.65
   3   3   0  103.52    6.43
  -3  -3   0  109.97    6.81
   4  -1   3   75.68    5.25
   4  -1   3   87.92    5.31
  -4   1  -3   84.90    5.40
   2   5   3  740.05   39.67
   2   5   3  833.82   40.40
  -4   0   0  718.73   39.92
  -4   0   0  637.19   39.96
   4   0   0  671.37   39.99
  -4   0   0  654.06   39.91
  -3  -4  -4 3067.96  191.14
  -3  -4  -4 3290.02  190.71
   3   4   4 3281.45  193.58
   1  -2  -6   14.46    1.05
   1  -2  -6   14.69    1.31
  -1   2   6   17.39    1.98
   1  -2  -6   13.99    1.75
  -1   2   6   13.68    1.31
   1  -2  -6   16.10    1.33
  -1  -2  -7  365.36   21.34
  -1  -2  -7  350.78   20.92
   1   2   7  398.19   22.40
   1   2   7  364.76   21.85
   1   2   7  372.77   22.46
   1   2   7  356.28   22.64
  -1  -2  -7  344.84   21.54
   2   5   4  926.05   54.77
  -2  -5  -4  953.65   56.32
  -4   0  -4  100.84    6.37
   4   0   4   99.28    6.29
  -4   0  -4  101.55    6.51
   4   0   4   96.98    5.97
   4   0   4   95.54    6.01
  -4   0  -4  103.32    6.54
   2   3  -2   36.41    2.53
  -2  -3   2   35.42    2.41
   2   3  -2   39.43    2.74
  -2   2  -5 1171.11   68.72
   2  -2   5 1116.47   66.53
   2  -2   5 1161.50   66.60
  -2   2  -5 1142.96   68.91
   2  -2   5 1106.51   66.38
   2  -2   5 1115.73   66.33
  -4  -2  -3  182.80   10.89
   4   2   3  181.01   10.98
  -4  -2  -3  171.03   11.08
  -1  -3  -7    0.42    1.16
  -1  -3  -7    2.75    1.02
   1   3   7    2.02    1.39
   1   3   7    1.33    0.21
   1   3   7    2.97    1.05
  -1  -3  -7    0.92    0.75
   1   3   7    1.72    0.39
   1   3   7    3.07    0.96
   1   3   7    1.79    0.89
   2  -5  -1   59.98    3.92
  -2   5   1   64.91    1.62
   2  -5  -1   59.63    3.94
   2  -5  -1   65.98    3.91
  -2   5   1   63.25    1.50
   1  -3  -6  162.56   12.56
   1  -3  -6  213.37   12.04
  -1   3   6  211.52   12.91
  -1   3   6  211.30   13.51
   1  -3  -6  224.29   12.33
   1  -3  -6  183.09   12.10
  -3   4   0   18.44    1.54
  -3   4   0   20.27    1.48
   3  -4   0   16.26    1.45
   3  -4   0   17.26    1.38
   3  -4   0   18.46    1.29
   2  -2  -5  754.31   46.21
  -2   2   5  800.47    8.56
  -2   2   5  822.93    9.69
   2  -2  -5  776.66   45.72
   1   1  -5  129.16    8.21
  -1  -1   5  141.91    8.85
   1   1  -5  131.85    7.96
   2   2   7   15.20    1.68
   2   2   7   17.52    1.17
   2   2   7   16.89    1.73
   2   2   7   13.65    1.92
  -2  -2  -7   17.05    1.76
  -3   3  -3    4.93    0.81
   3  -3   3   10.24    0.85
  -3   3  -3    6.15    0.81
   3  -3   3    5.40    0.91
   4   2   2   11.58    1.12
  -4  -2  -2   10.64    1.30
  -4  -2  -2   11.69    1.16
   3  -4  -1  273.16   16.23
   3  -4  -1  266.22   16.02
  -3   4   1  286.03   15.84
  -3   4   1  240.04   15.85
   3  -4  -1  283.41   16.25
   3  -4  -1  255.63   16.42
   2  -5  -2  351.70   20.64
  -2   5   2  341.57   20.41
   2  -5  -2  333.14   20.61
   2  -5  -2  354.13   20.58
   2  -5  -2  339.87   20.87
  -3  -3  -6  130.46    8.71
  -3  -3  -6  136.46    8.84
  -3  -3  -6  143.30    8.41
  -4   2  -1  389.83   24.00
  -4   2  -1  418.17   23.93
   4  -2   1  409.87   24.62
   4  -2   1  410.22   24.45
  -4   2  -1  394.18   23.79
  -3   0   3 1299.60   79.61
   3   0  -3 1358.43   80.46
  -3   0   3 1304.37   79.42
  -3   0   3 1387.49   79.31
   3   4   2  165.03    9.99
  -2   3  -4  330.44   19.46
  -2   3  -4  316.84   19.18
   2  -3   4  320.64   18.73
   2  -3   4  298.69   18.81
   2  -3   4  319.04   18.94
   1  -1   6 1057.41   62.02
  -1   1  -6 1034.13   61.20
   1  -1   6 1041.57   62.21
   1  -1   6 1042.97   62.07
   2   5   2  593.79   37.24
   2   5   2  639.07   37.15
   2   5   2  688.37   37.85
   2   1  -4  475.88   28.82
  -2  -1   4  494.58   29.49
   2   1  -4  496.14   28.93
  -2  -1   4  490.47   29.67
  -4  -2  -4   81.99    5.44
  -4  -2  -4   91.03    5.90
   4   2   4   91.76    5.69
  -4  -2  -4  103.17    5.66
   1   5   0   35.31    2.35
   1   5   0   34.45    2.68
  -1  -5   0   46.12    3.09
  -1  -5   0   36.54    2.57
   3  -3  -3   75.68    4.90
   3  -3  -3   76.20    4.93
   3  -3  -3   80.63    5.39
  -3   3   3   81.64    5.88
  -3   3   3   93.26    5.68
   3   0   6   28.55    2.33
   3   0   6   28.22    2.06
  -3   0  -6   27.68    2.25
   3   0   6   27.21    2.13
   3   0   6   27.90    1.96
  -3   0  -6   29.75    2.31
   3   0   6   28.75    2.27
  -1   1   6  221.74   13.89
   1  -1  -6  217.39   12.45
  -1   1   6  219.14   13.41
   1  -1  -6  203.97   12.67
   1  -1  -6  197.72   12.16
   1   1   7   82.66    4.91
   1   1   7   70.53    5.17
   1   1   7   69.91    4.42
  -1  -1  -7   88.25    4.84
  -1  -1  -7   74.27    4.98
  -1  -1  -7   69.90    4.60
   1   4  -2   15.95    1.18
   1   4  -2   14.08    1.41
  -4   2  -2   57.73    3.75
  -4   2  -2   60.16    3.92
   4  -2   2   61.14    4.10
   4  -2   2   60.04    3.95
   0   3  -4  278.52   16.90
   0   3  -4  286.99   17.00
   0  -3   4  282.21   17.86
   0  -3   4  326.54   18.03
  -2   1  -6 1226.59   72.97
  -2   1  -6 1244.94   73.23
   2  -1   6 1279.51   76.58
   2  -1   6 1277.11   76.57
   2  -1   6 1359.02   76.79
  -3  -4  -5  314.74   20.87
  -3  -4  -5  353.47   20.46
  -4   2   0  346.84    4.06
   4  -2   0  314.90   18.97
  -4   2   0  291.51    2.47
  -4   2   0  311.67    4.10
  -2  -3  -7    2.31    1.09
   2   3   7    6.53    1.09
   2   3   7    3.92    0.45
   2   3   7    5.34    1.44
  -2  -3  -7    6.23    1.19
  -2  -3  -7    2.98    0.87
   0   2  -5  169.66   10.40
   0   2  -5  174.12   10.40
   0  -2   5  168.33   10.32
   0  -2   5  164.17   10.02
   2  -1  -5  108.81    6.85
  -2   1   5  113.13    7.19
   2  -1  -5  111.62    7.16
  -2   1   5  123.41    7.76
   1  -5   1   88.22    5.69
   1  -5   1   85.61    5.61
   1  -5   1   88.04    5.42
  -1   5  -1   87.54    5.45
  -1   5  -1   88.56    5.33
  -1   5  -1   82.92    5.63
   2   5   5  600.45    7.61
  -2  -5  -5  653.84   38.84
  -2  -5  -5  678.04   39.46
   2   5   5    0.07    0.19
   2  -3  -5   30.62    2.26
   2  -3  -5   31.74    2.85
  -2   3   5   33.27    1.98
  -2   3   5    0.05    0.29
   2  -3  -5   32.76    2.15
   2   1   7   19.72    1.42
   2   1   7   19.43    2.09
  -2  -1  -7   16.55    1.30
   2   1   7   23.18    1.92
  -2  -1  -7   19.57    1.56
   2  -5   0   11.74    1.04
  -2   5   0   12.98    0.85
   2  -5   0   14.60    0.99
  -2   5   0   10.73    0.77
   2  -5   0   10.64    1.12
   2  -5   0   10.87    1.34
  -2   5   0    0.27    0.24
   1  -4   3   45.50    3.12
   1  -4   3   43.05    3.15
  -1   4  -3   43.67    3.05
   3  -4   1   50.05    3.49
   3  -4   1   49.05    3.23
   3  -4   1   51.16    3.27
  -3   4  -1   44.63    3.34
   3  -4   1   50.17    3.33
  -3   4  -1   56.82    3.33
  -3   4  -1   55.06    3.45
  -4  -1   0  105.09    6.27
  -4  -1   0  104.05    6.38
  -4  -1   0   98.82    6.38
   4   1   0  103.22    6.50
  -4  -1   0   95.87    6.27
   0   5  -1   44.87    2.97
   0   5  -1   65.13    3.57
   0   5  -1   62.12    3.26
   0  -5   1   57.96    3.87
   0  -5   1   73.19    4.46
   3  -4  -2   87.75    5.61
   3  -4  -2   88.74    5.56
  -3   4   2  101.34    6.31
   3  -4  -2   90.70    5.87
  -3   4   2   99.78    6.34
   2  -5  -3   12.55    1.56
   2  -5  -3   12.65    1.09
  -2   5   3   11.89    1.15
   2  -5  -3   16.46    1.41
   2  -5  -3   11.59    1.11
   2  -5  -3   13.38    1.09
   2  -5  -3   13.53    1.10
  -1  -5  -6  482.19   28.20
  -1  -5  -6  453.48   28.04
  -1  -5  -6  460.16   28.40
   1   5   6  493.50   29.95
   1   5   6  517.72   30.38
  -4   1   1  261.63   15.40
   4  -1  -1  258.02   16.55
   4  -1  -1  287.45   16.48
  -4   1   1  249.09   15.56
  -4  -1  -5   61.75    3.85
  -4  -1  -5   68.65    4.30
  -4  -1  -5   56.70    3.94
   4   1   5   61.06    4.17
   4   1   5   57.13    3.76
   4   1   5   61.35    3.95
   0   2   7   60.63    2.60
   0   2   7   57.03    2.02
   0  -2  -7   50.01    3.16
   0  -2  -7   57.36    3.57
   4  -1   4  212.40   13.06
  -4   1  -4  211.23   12.91
  -4  -2  -1  257.95   15.71
   4   2   1  253.42   15.34
  -4  -2  -1  261.22   15.69
   1  -5  -5   53.36    3.84
   1  -5  -5   54.55    4.30
   1  -5  -5   55.12    3.56
   1  -5  -5   73.82    4.50
   1  -5  -5   60.68    3.90
   1  -5  -5   66.38    3.77
   2   4  -1   17.10    1.28
   2   4  -1   15.32    1.29
   2   4  -1   16.64    1.75
  -2  -4   1   20.20    1.49
   0   3   7   13.32    1.48
   0  -3  -7   11.97    1.25
   0   3   7   13.84    1.79
   0   3   7   15.27    1.52
   0  -3  -7   12.51    0.92
   0  -3  -7   12.07    0.81
  -1  -4  -7  236.60   15.43
  -1  -4  -7  261.36   15.11
  -1  -4  -7  232.33   15.18
   1   4   7  259.40    4.53
   1   4   7  245.19    4.52
  -1   4   6   30.36    2.29
   1  -4  -6   27.63    1.94
   1  -4  -6   24.94    1.96
   1  -4  -6   28.43    2.30
   4   2   5   13.71    1.57
  -4  -2  -5   13.24    1.16
   4   2   5   12.68    1.06
  -4  -2  -5   14.63    1.22
  -4  -2  -5   14.25    1.56
  -4   0   1    9.01    0.81
  -4   0   1   -0.29    0.50
   4   0  -1    9.51    1.12
   0  -6  -3  588.22   35.92
   0  -6  -3  662.60   36.29
   0   6   3  640.65   37.81
   0   6   3  630.89   38.11
   3   4   1   98.23    6.09
  -3  -4  -1  118.95    7.33
   0   4  -3  433.34   25.98
   0  -4   3  485.40   29.17
   0  -5  -6   12.92    2.03
   0  -5  -6   17.19    1.43
   0   5   6   19.00    1.60
   0   5   6   20.44    1.79
   0  -5  -6   21.17    1.94
   0  -5  -6   15.83    1.58
   3   2  -2   13.50    1.29
  -3  -2   2   16.35    1.44
   2   5   1  988.64   59.68
  -2  -5  -1  990.75   58.60
   2   5   1 1174.60   60.38
   2   5   1  988.49   59.74
  -4   2  -3  199.78   12.06
  -4   2  -3  195.87   12.02
   4  -2   3  216.26   12.50
   4  -2   3  190.76   12.51
   4  -2  -1    2.52    1.01
  -4   2   1    2.58    0.35
  -4   2   1    3.82    0.80
  -4   2   1    3.00    0.82
  -4   2   1    3.62    0.85
   4  -2  -1    2.83    0.75
  -2   4  -3   16.04    1.26
  -2   4  -3   15.65    1.43
   2  -4   3   16.17    1.49
   2  -4   3   16.09    1.49
  -4   0  -5    1.02    0.64
   4   0   5    3.40    0.72
   4   0   5    2.48    0.58
   4   0   5    2.09    0.89
  -4   0  -5    3.12    0.83
   0  -1   6    2.69    0.77
   0   1  -6    2.44    0.46
   0  -1   6    2.04    0.52
   0  -1   6   -0.04    0.31
   0   1  -6    2.91    0.53
   0   1  -6    1.45    0.83
   0   6   2   73.95    4.05
   0  -6  -2   80.76    5.33
   0   6   2   60.03    3.86
   0  -6  -2   72.16    4.56
   0   1   7  230.09   12.17
   0  -1  -7  205.01   12.32
   0  -1  -7  225.77   12.65
   0   1   7  205.78   12.44
   0   1   7  182.15   12.06
   0  -1  -7  198.59   12.25
   0   6   4    0.11    0.25
   0   6   4  318.39    4.43
   0  -6  -4  295.34   16.41
   0  -6  -4  331.59   16.85
  -4  -3  -3  133.12    8.07
  -4  -3  -3  126.07    8.37
   4   3   3  127.04    7.80
  -2  -4  -7    4.49    1.21
   2   4   7    6.51    1.13
  -2  -4  -7    7.74    1.25
  -2  -4  -7    7.23    1.50
   2   4   7    6.70    0.56
   3  -2   5  106.73    7.12
   3  -2   5  114.74    7.16
  -3   2  -5  109.64    6.91
  -3   2  -5  109.77    7.03
  -3   2  -5  111.45    6.83
   3  -2   5  113.27    6.91
   4   3   4   16.46    1.30
  -4  -3  -4   16.52    1.76
  -4  -3  -4   16.55    1.39
  -4  -3  -4   15.42    1.41
  -2   5  -1   32.72    2.32
   2  -5   1   34.91    2.65
   2  -5   1   36.45    2.40
   2  -5   1   33.67    2.49
  -2   5  -1   37.11    2.46
   3   3  -1    4.59    0.73
  -3  -3   1    3.29    0.67
   3   3  -1    2.76    0.69
  -2   0   5  314.09   19.60
   2   0  -5  317.14   18.86
   2   0  -5  300.13   18.99
  -2   0   5  321.42   19.23
   2   0  -5  329.20   19.04
  -1   0   6  442.22   26.52
   1   0  -6  433.98   24.65
   1   0  -6  399.32   24.34
  -1   0   6  440.78   26.89
  -3  -4  -6  570.77   35.56
  -3  -4  -6  596.07   35.02
   1   6   3   55.52    4.22
  -1  -6  -3   50.08    3.22
   1   6   3   55.73    3.75
   1   6   3   51.49    3.33
  -1  -6  -3   52.24    3.86
  -3   4  -2  386.15   22.74
   3  -4   2  343.00   22.86
   3  -4   2  380.65   23.05
   3  -4   2  391.57   22.92
  -3   4  -2  372.79   22.77
   3  -4   2  408.97   22.80
   3   1  -3  204.84   12.49
  -3  -1   3  222.25   14.02
  -3  -1   3  247.05   14.11
  -3  -1   3  224.74   14.19
   3   2   7  176.04   10.67
   3   2   7  179.35   11.25
  -3  -2  -7  171.89   11.18
  -3  -2  -7  181.16   10.87
  -3  -2  -7  184.84   11.13
   3  -2  -4   14.21    1.02
   3  -2  -4   15.30    1.70
  -3   2   4   15.38    1.48
   3  -2  -4   12.08    1.35
  -3   2   4   14.62    1.66
   2   5   6    7.96    1.42
  -2  -5  -6    7.78    0.62
  -2  -5  -6    7.58    1.28
  -2  -5  -6    5.55    1.51
   2  -4  -5    1.76    0.61
  -2   4   5    1.15    1.03
   2  -4  -5    0.61    0.87
   2  -4  -5    2.03    0.64
   2  -4  -5    1.95    0.44
   2  -4  -5    1.16    0.62
  -2   4   5    0.28    0.31
   2  -4  -5    0.32    1.13
  -1   0  -7    8.53    0.79
   1   0   7    7.22    1.45
   1   0   7    7.73    0.78
   1   0   7    9.68    1.19
  -1   0  -7    6.25    1.10
   1   6   4    1.07    0.79
   1   6   4    0.73    0.31
   2   0   7  450.16   26.58
  -2   0  -7  434.31   25.88
   2   0   7  467.83   27.18
   2   0   7  439.12   26.63
  -1   6   2   99.61    2.68
   1  -6  -2  109.06    6.14
  -1   6   2  111.08    1.99
   1  -6  -2  102.71    5.12
   1  -6  -2  107.98    5.26
   0  -4  -7    5.94    0.70
   0   4   7    5.79    1.18
   0  -4  -7    5.31    0.95
   0   4   7    5.56    1.03
   0  -4  -7    5.79    1.38
   3  -4  -3   55.25    3.85
   3  -4  -3   53.70    3.48
  -3   4   3   62.55    4.12
   3  -4  -3   50.19    3.49
  -4   3  -1  157.93    9.67
  -4   3  -1  158.15    9.59
  -4   3  -1  155.17    9.47
   4  -3   1  160.51    9.71
   4  -3   1  156.45    9.76
   4  -3   1  162.73    9.82
  -3   1   4    6.15    1.35
  -3   1   4   -0.14    0.30
   3  -1  -4    3.86    0.93
  -4   3   0   83.71    5.23
   4  -3   0   76.71    4.82
   4  -3   0   83.91    5.11
  -4   3   0   81.19    5.27
  -4   3   0   81.24    4.96
   1  -6  -3  137.15    8.64
   1  -6  -3  156.13    9.05
   1  -6  -3  140.65    8.62
  -1   6   3  139.81    3.10
   1  -6  -3  147.36    8.61
  -1   6   3  150.70    2.22
   2  -5  -4  110.69    6.66
   2  -5  -4   97.07    6.66
   2  -5  -4  113.01    6.60
   2  -5  -4  107.17    6.66
   2  -5  -4  109.86    7.18
   2  -5  -4  109.33    6.86
   3  -1   6  280.47   17.17
   3  -1   6  279.28   16.86
   3  -1   6  284.04   17.06
  -3   1  -6  273.77   16.69
  -4  -3  -2    1.12    0.66
  -4  -3  -2    1.04    0.58
   4   3   2    0.72    0.59
  -3  -1  -7  311.89   18.52
   3   1   7  317.90   18.42
   3   1   7  299.38   18.63
   3   1   7  297.92   18.15
  -3  -1  -7  306.58   18.61
  -3  -1  -7  300.96   18.26
   3  -3   4    0.48    0.56
   3  -3   4    1.05    0.75
  -3   3  -4    0.37    0.67
  -3   3  -4    0.75    0.51
   3  -3   4    0.15    0.51
   0  -6  -1    6.34    1.41
   0   6   1    6.09    0.68
   0   6   1    3.60    0.45
   0  -6  -1    5.91    0.68
   1   6   2  103.54    6.39
   1   6   2  107.06    7.12
  -1  -6  -2   96.87    4.66
  -1  -6  -2  104.59    5.44
   1   5  -1  243.05   15.27
   1   5  -1  255.51   15.14
   1   5  -1  271.47   15.56
  -1  -5   1  240.41   15.16
  -1  -5   1  280.70   15.57
  -3  -3  -7   67.89    4.83
  -3  -3  -7   71.39    4.32
  -3  -3  -7   63.88    4.65
   3   3   7   72.37    5.12
   4   3   5   16.86    1.27
  -4  -3  -5   19.01    1.48
  -4  -3  -5   17.60    1.63
  -4  -3  -5   17.14    1.85
  -4  -2   0  377.79   22.69
   4   2   0  348.38   20.96
   4   1  -1  293.34   18.77
  -4  -1   1  307.39    3.32
   4   1  -1  330.51   18.79
  -4  -1   1  338.14    4.30
  -3   3   4    1.99    0.36
   3  -3  -4    1.57    0.68
   3  -3  -4    2.35    1.16
   3  -3  -4    1.75    0.64
  -3   3   4    1.09    1.03
   1  -6  -1  131.95    8.04
  -1   6   1    0.18    0.25
  -1   6   1  140.21    2.36
  -1   5  -2  274.83   16.86
  -1   5  -2  283.47   16.74
  -1   5  -2  281.76   17.04
   1  -5   2  307.00   17.13
   1  -5   2  286.84   17.07
   1  -5   2  265.25   16.82
   1   6   5  191.04    3.51
  -1  -6  -5  201.66   12.59
   1   6   5  211.01    5.04
   4  -3   2  166.79    9.72
  -4   3  -2  164.61   10.08
  -4   3  -2  166.88   10.20
   4  -3   2  152.77    9.77
   4  -3   2  158.38    9.77
   0   6   5  358.96    4.66
   0  -6  -5  344.89   21.59
   0  -6  -5  404.11   22.45
   0   6   5   -0.02    0.18
   0  -6  -5  382.25   22.11
   0  -6  -5  369.34   21.98
   0  -6  -5  382.90   21.65
  -4   1   2   97.53    2.79
   4  -1  -2  170.54   10.53
  -4   1   2    0.23    0.24
   1   3  -4   12.72    1.20
  -1  -3   4   12.07    1.30
   1   3  -4   12.74    1.12
  -1  -3   4   10.34    1.05
   1   3  -4    9.91    1.01
   4  -3  -1   43.98    3.09
  -4   3   1   41.38    3.07
  -4   3   1   46.70    3.08
  -4   3   1   45.61    3.20
   4   1   6   11.84    1.51
   4   1   6   10.02    1.31
  -4  -1  -6    9.90    1.07
  -4  -1  -6   12.54    1.37
   4  -1   5   97.56    6.51
  -4   1  -5   85.10    5.54
   4  -1   5  101.30    6.32
   1  -6  -4  119.47    6.90
   1  -6  -4  124.51    7.78
   1  -6  -4  106.90    7.18
   1  -6  -4  113.36    6.90
   1  -6  -4  108.41    7.13
   1  -6  -4  110.03    6.83
  -1   6   4  115.15    7.34
  -4  -2  -6   25.03    1.89
   4   2   6   25.05    2.11
   4   2   6   24.54    2.26
  -4  -2  -6   26.19    1.96
  -4  -2  -6   26.81    2.31
  -3  -5  -4  576.64   34.19
   3   5   4  533.01   31.56
   2   3  -3   27.68    2.03
   2   3  -3   24.18    1.91
  -2  -3   3   27.52    2.20
  -4   2  -4  105.02    6.89
  -4   2  -4  114.10    6.89
   4  -2   4  119.32    7.01
   4  -2   4  102.09    7.04
  -2  -2   4   54.55    3.75
   2   2  -4   49.78    3.47
   2   2  -4   58.80    3.46
   2   2  -4   51.59    3.56
  -4   2   2   10.65    0.73
  -4   2   2    9.18    0.78
  -4   2   2   11.50    1.32
  -4   2   2   14.57    1.25
   4  -2  -2   12.59    1.12
   4  -2  -2   11.10    1.18
   4  -2  -2   11.20    1.43
   1  -3   5  127.93    8.17
  -1   3  -5  123.79    7.90
  -1   3  -5  133.14    7.89
   1  -3   5  141.59    8.28
  -1   3  -5  126.00    8.16
   1   2  -5   56.38    4.09
   1   2  -5   61.70    3.85
  -1  -2   5   64.47    4.35
   3   5   3  523.33   31.04
  -3  -4   0    0.25    0.55
   3   4   0    0.25    0.54
   0   5  -2  577.66   35.80
   0   5  -2  555.19   35.60
   0   5  -2  629.62   35.47
   0  -5   2  649.66   36.88
   0  -5   2  585.54   36.71
  -2  -5   0  556.63   33.03
   2   5   0  606.46   32.61
   2   5   0  515.81   32.03
   1  -2   6   42.06    2.78
  -1   2  -6   45.34    2.85
   1  -2   6   41.77    2.78
  -1   2  -6   41.00    2.87
  -1  -5  -7  217.22   13.99
   1   5   7  205.32   13.24
  -1  -5  -7  234.33   14.28
   1   5   7  222.64   13.42
  -1  -5  -7  219.59   13.79
   1   5   7  212.77   12.93
  -3   0   4    8.28    0.93
  -3   0   4    7.14    1.37
   3   0  -4    6.10    0.91
   2  -3   5    9.29    1.18
   2  -3   5    7.56    0.99
  -2   3  -5    8.74    1.16
  -2   3  -5    7.50    0.95
   2  -3   5    8.00    0.92
  -2   2  -6 1820.47  106.24
  -2   2  -6 1775.72  105.97
   2  -2   6 1823.75  104.44
   2  -2   6 1771.64  104.23
   2  -2   6 1723.35  104.22
   2  -2   6 1758.80  104.53
   1  -5  -6    3.11    0.71
   1  -5  -6    3.53    0.37
   1  -5  -6    3.40    0.76
   1  -5  -6    3.56    1.22
  -1   5   6    2.83    0.76
   0   0   7  131.86    8.08
   0   0   7  124.87    7.72
   0   0  -7  123.67    6.94
   0   0  -7  125.30    7.34
   0   0  -7  108.20    6.77
  -3  -5  -5 1031.93   61.05
   3  -5  -1   22.13    1.70
  -3   5   1   23.62    1.66
   3  -5  -1   23.20    1.75
   3  -5  -1   22.58    1.58
  -3   5   1   20.96    1.73
   4   3   1   87.99    5.59
  -4  -3  -1   88.75    5.64
  -4   0   2   48.07    2.93
   4   0  -2   44.49    2.98
  -4   0   2   37.27    3.19
   4   0  -2   38.75    2.93
   1   6   1  332.25   19.86
  -1  -6  -1  358.10   20.15
  -1  -6  -1  323.90   19.36
  -1  -6  -1  326.23   19.54
   1   4  -3  273.59   16.47
  -1  -4   3  245.18   15.06
   1   4  -3  269.94   16.26
   3   0   7  505.35   29.65
  -3   0  -7  477.03   27.98
   3   0   7  483.95   29.83
  -3   0  -7  452.40   27.90
   3   0   7  492.44   29.44
   3   0   7  496.94   29.87
   1   3   8   36.10    2.26
   1   3   8   35.78    2.76
   1   3   8   39.81    2.93
   1   3   8   34.94    2.22
  -1  -3  -8   38.71    3.25
  -1  -3  -8   37.04    2.33
   1   3   8   41.10    3.15
   1   3   8   41.24    3.43
  -1  -3  -8   38.50    2.87
   2  -2  -6   10.88    1.58
   2  -2  -6   10.15    1.06
  -2   2   6   10.57    1.79
  -2   2   6    8.97    1.03
   1  -2  -7  156.19   10.04
  -1   2   7  183.60   11.32
   1  -2  -7  187.57   10.40
  -1   2   7  166.72   10.58
   1  -2  -7  168.82   10.78
   1  -2  -7  173.01   10.04
   1  -3  -7   20.33    2.29
  -1   3   7   16.99    2.28
   1  -3  -7   19.11    1.33
   1  -3  -7   19.66    1.65
  -1   3   7   19.96    1.73
   1  -3  -7   23.23    1.81
   1  -3  -7   20.58    1.46
  -2   5  -2  239.78   14.35
  -2   5  -2  236.63   14.46
   2  -5   2  235.77   14.19
   2  -5   2  224.60   13.95
   2  -5   2  238.94   14.13
  -1  -2  -8  129.29    7.72
   1   2   8  125.19    8.16
   1   2   8  122.83    7.71
   1   2   8  128.69    7.88
  -1  -2  -8  121.47    8.18
   1   2   8  115.83    7.14
  -1  -2  -8  125.41    7.51
  -1  -2  -8  115.93    7.90
  -2  -2  -8   77.50    4.83
  -2  -2  -8   62.40    4.93
   2   2   8   77.96    4.79
   2   2   8   72.43    5.58
  -2  -2  -8   82.54    5.20
   2   2   8   77.53    5.36
   2   2   8   86.03    5.43
  -3   5   0   66.40    4.29
  -3   5   0   65.85    4.17
   3  -5   0   57.39    3.87
   3  -5   0   60.92    3.89
   3  -5   0   64.79    3.97
   4   0   6   42.06    3.30
  -4   0  -6   41.39    3.13
  -4   0  -6   43.40    2.92
   4   0   6   42.63    3.17
   4   0   6   47.10    3.07
  -3   4  -3   50.75    3.66
   3  -4   3   49.42    3.46
   3  -4   3   48.52    3.36
  -3   4  -3   57.34    3.62
   2   3   8    1.11    0.31
  -2  -3  -8    0.83    1.06
   2   3   8    0.92    1.03
   2   3   8    0.81    1.46
   2   3   8    0.59    0.80
  -2  -3  -8    1.85    0.82
   2   6   4    0.09    0.35
   2   6   4    0.08    0.68
   1  -4   4 1133.78   62.65
   1  -4   4 1104.70   62.51
   1  -4   4  981.63   62.32
  -1   4  -4 1073.97   64.65
  -1   4  -4 1095.72   64.48
  -1   6   0  159.46    8.41
   1  -6   0  159.95    9.81
  -1   6   0  123.21    8.20
   1  -6   0  165.89   10.15
  -1   6   0  140.50    8.61
  -2   3   6   18.77    2.29
  -2   3   6   18.43    1.50
   2  -3  -6   16.60    2.15
   2  -3  -6   18.52    1.61
  -2   3   6   19.19    2.09
   2  -3  -6   21.73    1.55
   0   6   0   14.75    1.32
   0   6   0   14.11    0.87
   0  -6   0   13.58    1.09
   0  -6   0   14.13    1.82
   0  -6   0   12.08    1.37
   2   4  -2   35.74    2.46
   2   4  -2   36.18    2.82
   3  -5  -2    3.89    0.45
   3  -5  -2    3.62    0.66
   3  -5  -2    4.50    0.75
  -3   5   2    4.45    0.81
   3  -5  -2    4.82    1.16
   3  -5  -2    2.76    0.93
   3  -5  -2    4.34    0.75
  -3   5   2    4.56    0.74
  -3  -4  -7  324.62   19.57
  -3  -4  -7  314.88   18.91
  -3  -4  -7  318.48   19.39
  -4  -3  -6  348.72   21.61
  -4  -3  -6  340.38   21.37
  -4  -3  -6  363.37   21.16
   4   3   6  340.06   20.83
   2   5   7    2.36    0.97
   2   5   7    5.90    1.33
  -2  -5  -7    4.67    1.15
  -2  -5  -7    4.35    1.40
  -2  -5  -7    5.04    1.29
   2   5   7    3.46    0.76
   2   6   3  165.89   10.22
   2   6   3  170.75   10.55
   2   6   3  182.08   11.02
   3   5   2   25.74    2.00
   3   5   2   29.27    1.93
  -3  -5  -2   24.07    1.75
   4  -3   3  245.58   14.83
  -4   3  -3  263.34   15.32
  -4   3  -3  242.68   15.26
   4  -3   3  247.52   14.97
   0   5   7  118.86    7.54
   0  -5  -7  113.34    8.13
   0  -5  -7  122.27    7.60
   0   5   7  115.83    7.27
   0  -5  -7  131.09    7.89
   2   1  -5  327.36   20.23
   2   1  -5  356.51   20.43
  -2  -1   5  348.02   20.86
  -2  -1   5  335.66   20.57
  -3   4   4    2.26    1.11
   3  -4  -4    0.99    0.65
   3  -4  -4    0.51    0.57
   3  -4  -4   -0.78    1.16
  -1  -6  -6  390.81   23.77
   1   6   6  410.48   25.03
   1   6   6  409.31   24.64
  -4   3   2    1.55    0.97
   4  -3  -2   -0.06    0.64
   4  -3  -2   -0.59    1.00
  -4   3   2    0.62    0.65
  -4   3   2    0.83    0.64
   4  -3  -2    0.35    0.65
   2  -6  -2   28.38    1.90
   2  -6  -2   26.46    1.83
   2  -6  -2   27.61    1.92
  -2   6   2   30.09    2.07
  -2   6   2   26.76    2.00
   2  -5  -5    9.37    1.00
   2  -5  -5    8.63    0.97
   2  -5  -5    9.67    1.54
   2  -5  -5    9.88    1.76
   2  -5  -5    8.58    0.82
   2  -5  -5    9.13    0.88
   2  -5  -5    9.20    1.14
   2   6   5   31.40    2.08
  -2  -6  -5   25.28    1.62
   2   6   5   34.65    2.50
  -2  -6  -5   36.29    2.56
   1   1  -6  122.72    8.27
  -1  -1   6  131.48    2.99
   1   1  -6  134.91    8.00
  -1  -1   6  142.38    3.77
   0   3  -5   19.45    1.47
   0  -3   5   25.92    1.85
   0   3  -5   17.25    1.51
   0  -3   5   20.47    1.68
  -4  -4  -4  311.22   18.54
  -4  -4  -4  303.10   18.97
   4   4   4  295.69   17.69
   2  -4   4   31.82    2.49
  -2   4  -4   35.70    2.70
  -2   4  -4   34.54    2.36
   2  -4   4   36.71    2.63
  -2   1  -7  133.72    8.23
   2  -1   7  147.75    8.97
   2  -1   7  147.62    8.74
   2  -1   7  138.22    8.76
   1  -6  -5  346.91   20.99
   1  -6  -5  382.29   21.57
   1  -6  -5  329.53   20.63
   1  -6  -5  338.81   20.99
  -1   6   5  344.58   20.82
   1  -6  -5  389.52   20.78
   1  -6  -5  331.19   21.33
   2  -1  -6  104.13    6.58
   2  -1  -6  102.95    6.43
  -2   1   6  103.85    6.64
  -2   1   6  108.17    7.23
   2  -1  -6  107.06    6.64
   1  -1   7  142.29    9.20
  -1   1  -7  141.50    8.63
   1  -1   7  156.95    9.60
   1  -1   7  164.92    9.38
   2  -6  -1   15.99    1.26
  -2   6   1   18.57    1.08
  -2   6   1   16.26    0.91
   2  -6  -1   19.44    1.47
   2  -6  -1   18.91    1.39
  -3  -5  -6   45.36    2.85
  -3  -5  -6   41.26    3.53
   4   4   3    0.99    0.56
  -4  -4  -3    2.09    0.69
   1   4   8  308.30    5.22
   1   4   8  282.87    6.42
  -1  -4  -8  282.23   17.30
  -1  -4  -8  304.00   17.59
   1   4   8  269.80    4.84
  -1  -4  -8  259.67   17.68
   2   1   8  114.35    7.69
  -2  -1  -8  117.24    7.13
  -2  -1  -8  109.64    6.89
   2   1   8  112.58    7.42
   2   1   8  119.26    7.46
   2   1   8  112.42    6.91
   0  -6  -6  167.15    9.46
   0   6   6  159.17    9.88
   0  -6  -6  171.76    9.97
   0  -6  -6  147.63    9.03
   0  -6  -6  156.98    9.60
  -1   1   7  322.33   19.78
  -1   1   7  314.46   19.23
   1  -1  -7  318.52   19.40
   1  -1  -7  345.36   19.74
  -3  -2   3   22.98    1.78
  -3  -2   3   19.42    1.77
   3   2  -3   19.74    1.68
   1  -4  -7   76.54    4.89
   1  -4  -7   71.90    4.74
   1  -4  -7   80.55    5.14
  -1   4   7   76.59    5.06
   1   1   8   31.76    2.16
  -1  -1  -8   32.68    2.58
  -1  -1  -8   34.92    2.38
  -1  -1  -8   31.81    2.17
   1   1   8   38.28    2.73
   1   1   8   34.01    3.07
   3  -5   1  171.52   10.15
   3  -5   1  164.33   10.27
   3  -5   1  159.49   10.45
   3  -5   1  171.04   10.25
  -3   5  -1  172.82   10.68
  -3   5  -1  184.83   10.84
   2  -6  -3   19.67    1.90
   2  -6  -3   21.76    1.59
   2  -6  -3   23.51    1.60
  -2   6   3   24.38    1.82
   2  -6  -3   23.07    1.66
  -3  -3   2  191.49   11.71
   3   3  -2  188.13   11.49
   0   2  -6    7.14    0.83
   0   2  -6    6.25    1.15
   0   2  -6    9.02    0.86
   0  -2   6    7.44    0.81
   0  -2   6    9.44    1.18
   0  -2   6    7.40    0.75
  -5   0  -2  118.33    7.42
   5   0   2  116.05    7.33
  -5   0  -2  117.53    7.43
  -5   0  -2  115.10    7.39
   5   0   3   61.10    4.18
  -5   0  -3   62.65    4.35
   5   0   3   60.91    4.04
  -5   0  -3   63.62    4.45
  -5   0  -3   71.79    4.49
   4   4   5   25.26    1.75
  -4  -4  -5   23.70    2.16
  -4  -4  -5   24.54    2.35
  -4  -4  -5   27.89    1.93
   4   2  -1  215.38   14.02
  -4  -2   1  250.66   15.23
   4   2  -1  247.07   14.05
  -2  -4  -8    2.66    1.03
  -2  -4  -8    4.92    1.22
   2   4   8    3.54    1.01
  -2  -4  -8    6.15    1.44
   2   4   8    6.37    1.60
   2   4   8    4.72    0.36
   2   4   8    1.26    0.50
   2   6   2  208.83   14.35
   2   6   2  258.26   14.27
  -2  -6  -2  218.14   13.05
   2   6   2  251.37   15.11
   0   4  -4  113.54    7.16
   0  -4   4  130.70    6.93
   0  -4   4   95.20    6.56
  -4   4   0  114.25    6.74
   4  -4   0  115.19    6.82
   4  -4   0  107.21    6.58
   4  -4   0  104.55    6.84
   4  -4   0  104.85    6.87
  -4   4   0   99.97    6.79
   5   1   3  324.42   19.55
  -5  -1  -3  322.82   18.85
  -5  -1  -3  306.55   18.68
  -5  -1  -3  300.17   18.71
   2  -4  -6    0.99    0.45
   2  -4  -6    1.93    0.68
   2  -4  -6    1.33    0.59
   2  -4  -6    0.35    1.22
  -2   4   6   -0.36    0.39
  -2   4   6    1.02    1.01
   3  -5  -3   35.45    2.29
  -3   5   3   36.42    2.73
   3  -5  -3   34.28    2.28
   3  -5  -3   39.14    2.81
   3  -5  -3   33.95    2.52
  -3   5   3   40.69    2.72
   3  -5  -3   33.88    2.32
   3  -5  -3   29.59    2.02
   3  -5  -3   29.86    1.98
   0  -3  -8  219.03   13.32
   0   3   8  242.84   14.91
   0   3   8  227.65   14.56
   0   3   8  240.30   14.48
   0  -3  -8  255.88   13.84
   3  -2   6    9.17    0.95
   3  -2   6    9.12    1.21
   3  -2   6    9.77    1.08
  -3   2  -6    7.17    0.97
  -3   2  -6    7.86    1.10
  -3   2  -6    7.74    0.88
   3  -2   6    8.64    1.25
  -5   1  -2    2.43    0.71
   5  -1   2    0.74    0.73
  -5   1  -2    3.03    0.72
  -5   1  -2    3.34    0.55
  -4  -1   2   41.92    2.75
  -4  -1   2   45.48    3.02
   4   1  -2   45.67    3.18
   4   1  -2   44.51    3.17
  -4  -1   2   37.93    3.03
   4  -4   1  217.96   12.56
   4  -4   1  200.18   12.46
   4  -4   1  196.93   12.59
  -4   4  -1  220.30   12.90
  -4   4  -1  200.50   12.69
  -4   4  -1  216.99   12.77
   4  -4   1  212.83   12.65
   5   1   2   64.63    4.31
  -5  -1  -2   62.91    4.15
  -5  -1  -2   60.78    4.12
  -5  -1  -2   59.80    4.19
   3  -2  -5    5.63    0.46
  -3   2   5   -0.27    0.28
  -3   2   5    6.59    1.48
   3  -2  -5    6.73    1.25
   0  -2  -8  207.48   12.09
   0  -2  -8  195.80   11.96
   0   2   8  217.34    4.96
   0   2   8  224.00    4.09
   0  -2  -8  202.29   12.38
   3  -3   5   12.75    1.43
  -3   3  -5   14.30    1.35
   3  -3   5   11.49    1.15
   3  -3   5   13.95    1.33
  -3   3  -5   13.85    1.20
  -3   3  -5   11.67    1.38
  -4   4   1    0.14    0.67
   4  -4  -1    0.68    0.62
  -4   4   1   -0.31    0.62
   4  -4  -1    0.88    0.86
  -3  -2  -8  135.66    8.55
   3   2   8  130.30    8.53
   3   2   8  125.60    7.79
   3   2   8  134.22    8.21
   1   5  -2  530.14   30.10
   1   5  -2  510.22   30.44
   1   5  -2  472.44   30.19
  -1  -5   2  526.46   31.64
   4  -2   5   83.46    5.55
   4  -2   5   84.24    5.39
  -4   2  -5   82.91    5.27
  -4   2  -5   81.00    5.37
  -5   0  -1    2.02    0.73
  -5   0  -1    1.67    0.77
  -5   0  -1    1.48    0.76
   5   0   1    1.76    0.75
  -5  -1  -4  165.79    9.96
   5   1   4  143.80    9.72
  -5  -1  -4  156.74    9.84
  -5  -1  -4  152.05    9.73
   5   1   4  161.53    9.51
  -4  -2  -7  236.15   15.52
   4   2   7  254.44   16.00
   4   2   7  265.10   16.12
  -4  -2  -7  254.12   15.29
  -4  -2  -7  267.42   15.42
  -4  -2  -7  254.16   15.71
   2  -6   0   21.59    1.72
  -2   6   0   23.08    1.70
   2  -6   0   21.24    1.61
   2  -6   0   21.34    1.89
  -2   6   0   25.18    1.84
  -2   6   0   22.77    1.53
  -4   2   3   78.01    4.63
   4  -2  -3   69.52    4.53
   4  -2  -3   67.44    4.76
  -4   2   3   77.05    4.84
  -4   2   3   63.64    4.12
   4  -2  -3   67.69    4.29
  -4  -3   0  195.08   11.95
   4   3   0  188.45   11.54
  -2  -6  -6    5.42    0.48
  -2  -6  -6    7.12    1.26
   2   6   6    6.87    0.93
   2   6   6    6.34    1.38
   2   6   6    0.11    0.16
   4   4   2   12.68    1.19
  -4  -4  -2   10.32    1.05
  -5   1  -1   29.70    1.32
   5  -1   1   27.44    2.01
  -5   1  -1   31.89    1.51
   5  -1   1   32.65    2.25
   5   0   4   20.32    1.45
   5   0   4   19.15    1.87
  -5   0  -4   22.75    1.96
  -5   0  -4   21.21    1.98
   5   0   4   22.60    1.69
  -5   0  -4   23.61    1.89
  -1  -6   0  121.06    7.67
  -1  -6   0  135.50    8.22
   1   6   0  140.90    8.47
   1   6   0  128.36    8.10
  -3  -1   4    1.50    0.70
   3   1  -4    0.28    0.66
  -3  -1   4    0.99    0.99
   4  -1  -3    0.49    0.71
  -4   1   3   -0.73    0.99
  -4   1   3   -0.12    0.28
   5  -1   3   22.05    1.83
   5  -1   3   19.80    1.81
  -5   1  -3   19.45    1.63
  -3  -3  -8  200.59   12.11
  -3  -3  -8  214.30   12.56
   3   3   8  205.84   12.44
  -3  -3  -8  187.60   12.61
   3   3   8  214.85   13.25
  -1   5  -3   32.54    2.50
   1  -5   3   40.18    2.86
   1  -5   3   35.18    2.81
   4  -1   6    0.79    0.76
   4  -1   6    0.53    0.94
   4  -1   6   -0.15    0.44
   4  -1   6    0.18    0.66
  -4   1  -6   -0.35    0.72
   3   5   1    6.28    0.77
   3   5   1    6.66    0.84
  -3  -5  -1    5.12    0.75
   3   5   1    7.95    1.42
   3  -3  -5   48.67    3.73
  -3   3   5    0.28    0.27
  -3   3   5   48.99    2.50
   3  -3  -5   46.31    2.88
   3  -3  -5   46.37    3.14
   3  -3  -5   39.73    3.15
   4   1   7  217.51   12.78
   4   1   7  209.08   13.18
  -4  -1  -7  207.86   12.71
   4   1   7  198.80   13.04
  -4  -1  -7  213.50   12.79
  -4  -1  -7  198.98   12.42
  -1   6  -1   61.73    3.96
   1  -6   1   67.75    4.36
   1  -6   1   62.01    4.07
   1  -6   1   63.51    4.43
  -1   6  -1   66.74    4.13
  -1   6  -1   62.19    4.35
  -3  -4   1    0.65    0.54
   3   4  -1    0.20    0.59
   3   4  -1   -0.34    0.55
   2   5  -1   49.53    3.32
   2   5  -1   50.74    3.40
   2   5  -1   67.02    4.06
  -2  -5   1   59.28    3.76
   2  -6  -4    3.01    0.62
   2  -6  -4    2.85    0.64
   2  -6  -4    2.70    0.53
   2  -6  -4    2.52    1.10
   2  -6  -4    3.22    0.62
   2  -6  -4    3.03    0.89
  -3   1   5  138.70    8.94
  -3   1   5  132.63    8.30
   0   4   8   48.40    3.26
   0   4   8   34.61    3.36
   0  -4  -8   37.80    2.12
   0  -4  -8   29.39    1.89
   0  -4  -8   40.32    2.53
  -3   1  -7   88.62    5.79
  -3   1  -7   86.62    5.56
   3  -1   7   90.73    5.56
   3  -1   7   89.67    5.96
   3  -1   7   85.38    5.78
  -4  -4  -6  222.97   13.63
  -4  -4  -6  216.72   13.24
  -4  -4  -6  221.70   13.79
   3   1   8  364.24   21.12
   3   1   8  338.96   20.73
   3   1   8  354.71   21.39
  -3  -1  -8  309.76   20.78
  -3  -1  -8  372.71   20.77
  -4  -3  -7  621.87   37.92
  -4  -3  -7  660.78   37.99
   4   3   7  618.26   37.28
  -4  -3  -7  606.33   37.69
  -4  -3  -7  694.15   38.26
   4  -3   4  215.72   12.91
   4  -3   4  211.61   12.68
  -4   3  -4  217.98   13.91
   4  -3   4  202.18   12.79
  -4   3  -4  237.91   13.90
   0   1  -7   93.47    5.69
   0  -1   7  100.11    5.99
   0  -1   7   92.03    5.96
   0   1  -7  101.02    6.22
   0  -1   7   98.13    6.33
   0   1  -7   89.85    5.77
   5   2   3  110.44    6.96
  -5  -2  -3  108.97    7.08
  -5  -2  -3  107.68    6.87
   0   6  -1   66.55    4.35
   0  -6   1   59.74    4.05
   0  -6   1   66.69    4.37
   0  -6   1   72.11    4.74
   0   6  -1   70.57    4.65
   2   0  -6  465.17   27.18
   2   0  -6  446.60   26.98
  -2   0   6  417.51   26.65
   2   0  -6  450.49   27.20
  -2   0   6  446.90   26.24
   4  -4   2  160.19    9.62
  -4   4  -2  157.21    9.40
   4  -4   2  148.39    9.54
   4  -4   2  157.55    9.50
  -4   4  -2  147.96    9.46
  -5  -2  -4  173.08   10.72
  -5  -2  -4  176.14   10.44
  -5  -2  -4  158.13   10.48
   5   2   4  163.13   10.00
  -5  -1  -1  144.53    9.21
  -5  -1  -1  165.99    9.24
  -5  -1  -1  150.56    9.11
  -5  -1  -1  129.65    9.11
   5   1   1  154.48    9.62
  -4   3   3   55.67    3.60
   4  -3  -3   40.88    3.04
   4  -3  -3   45.03    3.02
   4  -3  -3   42.56    3.45
  -4   3   3   44.94    3.71
  -2   5  -3   36.50    2.42
  -2   5  -3   33.60    2.56
   2  -5   3   37.17    2.72
   2  -5   3   35.82    2.72
  -3   5  -2   29.34    2.27
   3  -5   2   29.14    2.20
  -3   5  -2   31.36    2.22
   3  -5   2   28.84    2.39
   3  -5   2   30.36    2.15
  -3  -5  -7   11.92    1.79
  -3  -5  -7   11.14    0.94
   2   0   8    6.25    0.62
   2   0   8    7.29    0.76
   2   0   8    7.09    1.36
  -2   0  -8    6.87    0.84
  -4   4   2   34.07    2.56
   4  -4  -2   36.21    2.61
  -4   4   2   36.83    2.65
   4  -4  -2   34.22    2.46
   1   6   7  248.13   15.53
   1   6   7  272.59   16.11
  -1  -6  -7  247.43   16.65
  -1  -6  -7  268.49   16.25
  -1  -6  -7  266.61   16.42
   0   7   3  218.23   13.53
   0   7   3  219.35   13.19
   0  -7  -3  201.54   12.55
   0  -7  -3  241.22   13.46
   0  -7  -3  210.81   12.44
   0  -7  -3  206.54   12.94
   0  -1  -8  141.92    8.74
   0   1   8  169.10    9.94
   0   1   8  152.49   10.27
   0  -1  -8  153.05    9.17
  -1  -5  -8  343.08   19.30
   1   5   8  290.35   18.53
   1   5   8  295.05   18.14
  -1  -5  -8  319.96   19.49
   1   5   8  333.06   18.71
   5   1   5    0.76    0.88
  -5  -1  -5    0.43    0.95
  -5  -1  -5    0.64    0.35
  -5  -1  -5    0.07    0.72
   5   1   5    0.54    0.49
  -5  -1  -5    1.79    0.89
   5   1   5    0.15    0.51
  -3   4  -4    1.87    0.65
   3  -4   4    0.72    0.73
  -3   4  -4    1.35    0.83
   3  -4   4    1.22    0.77
   2   6   1  105.73    6.84
   2   6   1  132.53    7.71
  -2  -6  -1  111.89    6.79
  -5   1   0    2.66    0.64
   5  -1   0    2.86    0.62
  -5   1   0    2.90    0.85
   0  -5   3   23.55    2.19
   0  -5   3   24.53    2.12
   0   5  -3   26.53    2.20
   0   5  -3   26.87    1.85
   1   0  -7  406.95   24.94
  -1   0   7  416.13   26.01
  -1   0   7  429.31   25.60
   1   0  -7  416.23   24.63
   1  -5  -7   11.86    1.13
   1  -5  -7   12.31    1.61
   1  -5  -7   10.64    0.79
  -1   5   7   12.01    1.29
   1  -5  -7   11.79    1.18
  -5   2  -2   11.04    1.35
   5  -2   2   10.99    1.12
   5  -2   2   10.23    1.29
  -5   2  -2   12.34    1.11
  -5   2  -2   12.48    1.20
  -5   2  -1   10.98    1.15
   5  -2   1   13.28    1.37
  -5   2  -1   12.34    1.06
  -5   2  -1   12.68    0.77
  -5   2  -1   -0.28    0.44
   0  -7  -4  384.35   21.60
   0   7   4  387.66   22.54
   0  -7  -4  347.46   21.15
   0   7   4  355.70   22.87
   4   0  -3   11.02    1.25
  -4   0   3    9.59    1.01
  -4   0   3   11.92    1.53
   4   0  -3   12.09    1.30
  -4   0   3    9.51    1.26
   5  -1   4   71.21    5.04
  -5   1  -4   77.72    5.09
   5  -1   4   81.64    5.14
   1  -6  -6  165.08    9.30
   1  -6  -6  167.14   10.02
   1  -6  -6  157.92    9.47
   1  -6  -6  125.41    9.79
   1  -6  -6  145.90    9.05
   1  -6  -6  161.33    9.51
   1   0   8   12.56    1.04
   1   0   8   11.49    1.81
  -1   0  -8   12.91    1.46
   1   0   8   11.96    1.43
  -1   0  -8   13.06    1.11
  -5   0   0    1.15    0.71
  -5   0   0    0.08    0.82
  -5   0   0    0.35    0.62
   5   0   0    0.32    0.68
  -5  -2  -2  421.87   25.37
   5   2   2  470.35   28.20
  -5  -2  -2  407.38   25.59
  -5  -2  -2  436.15   25.44
  -3  -4  -8  153.46    9.34
   3   4   8  142.39    9.28
  -3  -4  -8  165.02   10.14
  -3  -4  -8  149.97    9.86
   3  -5  -4   28.38    1.90
   3  -5  -4   36.59    2.54
   3  -5  -4   35.15    3.06
   3  -5  -4   28.69    2.60
   3  -5  -4   29.59    2.25
   3  -5  -4   33.30    2.23
  -2  -5  -8  125.46    7.76
   2   5   8   95.20    5.98
  -2  -5  -8  105.05    7.94
  -2  -5  -8  118.47    7.84
   2   5   8  117.40    6.86
   2   5   8  115.13    6.37
   2   5   8  117.43    6.92
  -4   0  -7   59.02    4.17
  -4   0  -7   60.84    3.89
   4   0   7   57.68    4.33
   4   0   7   59.88    3.95
   4   0   7   56.74    4.17
   4   0   7   63.02    3.92
  -4   0  -7   56.87    4.15
   5   0   5  219.44   12.94
  -5   0  -5  213.13   13.01
  -5   0  -5  216.84   13.21
   5   0   5  209.13   12.90
   5   0   5  210.60   13.26
  -5   0  -5  208.21   13.14
   0  -7  -2  172.27   10.69
   0   7   2  151.05    9.37
   0   7   2  175.04    9.59
   0  -7  -2  200.95   11.57
  -3   4   5   50.01    3.20
  -3   4   5   52.49    3.96
   3  -4  -5   53.02    3.49
   3  -4  -5   59.95    4.29
   3  -4  -5   49.88    3.19
   3  -4  -5   52.48    3.55
  -5  -2  -5   10.73    1.15
   5   2   5   10.75    1.04
  -5  -2  -5    8.97    1.36
  -5  -2  -5    9.84    1.26
   5   2   5   10.04    1.44
   2   3  -4  126.85    7.54
   2   3  -4  116.03    7.47
  -2  -3   4  117.95    7.58
   1   7   4  176.70   10.60
   1   7   4  173.74   11.02
  -2   6  -1   85.61    5.32
  -2   6  -1   80.68    5.00
   2  -6   1   83.27    5.32
  -2   6  -1   86.81    5.20
   2  -6   1   85.98    5.49
   2  -6   1   85.72    5.62
  -2   6  -1   78.69    5.46
  -4  -4  -1  112.94    7.08
   4   4   1  123.93    7.71
   2  -5  -6   38.65    3.57
   2  -5  -6   43.83    3.36
   2  -5  -6   40.62    2.79
   2  -5  -6   36.44    2.71
  -2   5   6   -0.41    0.38
   2  -5  -6   44.02    3.36
   2  -5  -6   39.62    2.66
   2  -5  -6   37.32    2.82
   0  -6  -7  289.20   18.22
   0  -6  -7  323.68   18.52
   0   6   7  269.68   16.37
   0  -6  -7  273.97   18.99
   0  -6  -7  325.29   18.77
  -1  -7  -3    2.42    1.15
   1   7   3    2.13    0.53
  -1  -7  -3    2.55    0.54
   1   7   3    3.16    1.06
  -1  -3   5   13.86    1.39
   1   3  -5   12.36    1.13
   1   3  -5   11.90    1.20
  -1  -3   5   10.44    1.09
   1   3  -5   11.16    1.23
  -5   2  -3  221.72   14.46
  -5   2  -3  249.50   14.38
   5  -2   3  264.14   16.24
   5  -2   3  270.18   16.33
  -5   2   0    2.10    0.42
  -5   2   0    0.88    0.81
  -5   2   0    0.95    0.72
  -5   2   0    0.51    0.68
   5  -2   0    1.53    0.78
   5  -2   0    1.82    0.76
   1  -7  -3    0.59    0.93
   1  -7  -3    0.68    0.31
   1  -7  -3    1.39    0.31
  -1   7   3    0.96    0.97
   1  -7  -3    0.95    0.45
  -1   7   3    0.26    0.24
  -1   7   3    0.25    0.53
  -2  -6  -7  149.68    9.90
  -2  -6  -7  155.41    9.18
   2   6   7  158.90    3.16
   2   6   7  160.21    4.46
  -2  -6  -7  141.58   10.12
   3   6   4  288.84   17.32
   3   6   4  315.11   18.27
   3   6   4  293.23   17.50
   0   7   5  271.24   17.46
   0  -7  -5  289.63   15.28
   0  -7  -5  226.78   14.73
   0   7   5  292.31   17.11
   0  -7  -5  263.96   14.79
   0  -7  -5  267.52   15.34
  -3   0   5   78.85    5.07
   3   0  -5   77.92    5.10
  -3   0   5   75.61    5.51
   2  -3   6  472.76   28.24
   2  -3   6  481.55   28.32
   2  -3   6  462.53   28.54
  -2   3  -6  438.69   27.30
  -2   3  -6  489.39   27.62
   2   2  -5  131.57    8.20
  -2  -2   5  135.18    8.57
   2   2  -5  135.65    8.32
  -1   3  -6  108.65    7.02
  -1   3  -6  118.10    7.06
   1  -3   6  113.89    7.04
  -1   7   2   69.72    1.81
  -1   7   2   57.79    2.32
   1  -7  -2   66.86    4.32
   1  -7  -2   79.25    5.30
  -3  -6  -5  426.08   25.29
   3   6   5  429.26   25.56
   1   7   5  353.97   21.63
   1   7   5  357.26   21.21
  -2  -4   3    0.10    0.75
   2   4  -3    0.22    0.59
   2   4  -3   -0.50    0.95
  -1  -4   4    8.94    1.21
   1   4  -4    6.83    1.07
  -1  -4   4    8.48    0.99
   0  -5  -8  220.43   13.11
   0  -5  -8  208.42   12.78
   0  -5  -8  207.61   13.45
   0   5   8  215.37   13.41
   2  -6  -5   70.00    5.32
   2  -6  -5   81.31    4.82
   2  -6  -5   70.41    4.62
   2  -6  -5   74.52    4.99
   2  -6  -5   76.30    4.73
   2  -6  -5   74.48    4.76
   3   0   8  106.83    6.66
   3   0   8   95.93    7.08
   3   0   8  121.72    7.04
   3   0   8  108.21    7.22
  -3   0  -8  117.23    7.62
   1  -7  -4  504.47   29.63
  -1   7   4  487.86   29.64
   1  -7  -4  503.16   30.07
   1  -7  -4  467.51   29.62
   1  -7  -4  525.47   29.63
  -1   7   4  494.19   29.30
  -4  -4  -7  122.73    8.31
  -4  -4  -7  124.00    8.21
  -4  -4  -7  128.13    7.75
   2  -2   7  974.23   57.30
  -2   2  -7  948.92   56.86
  -2   2  -7  955.25   56.56
   2  -2   7  949.91   57.29
   2  -2   7  983.22   57.51
  -1  -2   6  192.38   11.97
   1   2  -6  187.58   11.08
   1   2  -6  180.45   11.05
   1   2  -6  175.20   11.37
   4   2  -2    2.38    0.79
   4   2  -2    3.15    0.83
  -4  -2   2    2.28    0.81
  -4  -2   2    3.29    0.86
   4  -4   3  383.34   22.88
  -4   4  -3  417.69   23.81
  -4   4  -3  376.52   23.75
   4  -4   3  382.17   23.04
   1  -4   5   59.10    3.94
  -1   4  -5   52.93    3.67
  -1   4  -5   56.12    3.95
   1  -4   5   57.70    4.12
  -1   4  -5   54.30    3.60
   1  -4   5   58.07    3.79
   3   6   3  364.86   20.97
   3   6   3  323.60   21.10
   3   6   3  382.81   21.88
  -5  -1   0   79.89    5.78
  -5  -1   0  106.15    6.10
  -5  -1   0  102.98    6.01
   5   1   0   99.60    6.41
  -5  -1   0   91.98    5.88
   3   5   0    2.86    0.66
  -3  -5   0    3.50    0.67
   3   5   0    2.55    1.19
   3   5   0    2.92    0.68
   4   5   4  191.37   11.53
  -4  -5  -4  184.83   11.84
  -4  -5  -4  185.94   11.28
   2   3   9   62.22    3.97
  -2  -3  -9   67.32    4.82
   2   3   9   69.92    5.12
   2   3   9   68.17    4.67
   2   3   9   65.28    3.93
   2   3   9   60.67    4.67
  -2  -3  -9   62.83    4.53
   2  -3  -7  175.26   11.38
   2  -3  -7  184.60   10.71
   2  -3  -7  202.71   10.97
  -2   3   7  163.81   11.37
  -2   3   7  184.56   11.78
   2  -3  -7  149.11   10.68
  -2   3   7  181.39   10.92
   1  -2   7   33.27    2.35
   1  -2   7   34.77    2.51
  -1   2  -7   30.72    2.19
  -5  -3  -4  125.90    7.79
  -5  -3  -4  128.32    8.34
  -5  -3  -4  130.88    8.02
   5   3   4  123.84    7.69
   3  -6  -1   11.14    1.07
  -3   6   1   12.86    1.07
  -3   6   1   11.19    1.17
   3  -6  -1   11.25    1.07
   3  -6  -1   10.58    1.00
   5   2   1  319.00   19.32
  -5  -2  -1  339.05   18.73
  -5  -2  -1  287.57   18.39
  -5  -2  -1  326.15   18.67
  -4  -5  -5  392.30   23.36
   4   5   5  397.71   23.65
  -4  -5  -5  385.72   23.91
  -2   4  -5   13.98    1.39
   2  -4   5   19.54    1.79
   2  -4   5   17.83    1.64
  -2   4  -5   16.27    1.64
   2  -4   5   17.72    1.48
   1   7   2    0.84    0.52
  -1  -7  -2    0.85    0.54
  -1  -7  -2   -0.14    1.10
  -1  -7  -2    0.35    0.16
   4   3  -1  253.75   15.42
  -4  -3   1  271.47   16.47
   1   6  -1  743.49   46.00
  -1  -6   1  720.17   44.02
  -1  -6   1  790.73   44.49
   1   6  -1  841.08   46.37
   3  -6  -2   88.85    5.31
  -3   6   2   87.17    5.85
   3  -6  -2   87.35    5.62
  -3   6   2   97.93    5.84
   3  -6  -2   86.99    5.29
   3  -6  -2   76.04    5.62
   3  -6  -2   79.19    5.15
   2  -2  -7    3.59    0.76
   2  -2  -7    2.06    0.54
   2  -2  -7    2.42    0.72
   2  -2  -7    4.35    1.11
  -2   2   7    2.71    0.72
  -2   2   7    3.02    1.50
   4  -4  -3   81.43    5.64
   4  -4  -3   75.87    5.08
   4  -4  -3   77.68    5.04
  -4   4   3   82.43    6.11
  -4   4   3   96.33    5.91
   1  -3  -8    3.40    0.53
   1  -3  -8    2.56    0.38
   1  -3  -8    2.08    0.79
   1  -3  -8    1.17    1.16
  -1   3   8    3.68    1.63
  -1   3   8    2.44    0.85
  -1  -3  -9  195.12   11.64
   1   3   9  208.29   12.41
  -1  -3  -9  195.86   12.17
  -1  -3  -9  191.68   12.52
   1   3   9  208.55   12.61
   1   3   9  228.53   12.27
   1   3   9  209.35   12.95
   1   3   9  186.72   11.69
  -5   1   1   36.95    2.76
   5  -1  -1   35.42    2.49
  -5   1   1   37.68    2.56
   0   7   1   -0.09    0.15
   0   7   1    0.95    0.52
   0  -7  -1    0.29    0.48
   0  -7  -1    0.45    1.11
   2   2   9   38.33    3.18
   2   2   9   40.28    3.10
  -2  -2  -9   33.69    2.78
  -2  -2  -9   37.93    2.62
  -2  -2  -9   33.66    2.33
   2   2   9   39.04    3.43
   2   2   9   37.15    2.45
   5   1   6   78.09    5.13
  -5  -1  -6   65.66    5.19
  -5  -1  -6   83.45    5.07
   5   1   6   81.23    5.48
  -5  -1  -6   83.51    5.36
   5   1   6   78.25    4.97
  -5  -3  -3  111.86    7.47
  -5  -3  -3  114.36    7.17
   5   3   3  113.59    7.17
  -5   1  -5  154.89    9.71
   5  -1   5  145.21    9.24
  -3  -6  -6  179.02   10.76
   1  -7  -1  240.00   14.08
   1  -7  -1  213.99   13.20
  -1   7   1  229.58    3.26
  -1   7   1    1.76    0.46
   3   3  -3  200.23   11.01
  -3  -3   3  190.15   11.82
   3   3  -3  162.20   10.89
   1  -6   2    9.75    1.25
   1  -6   2    8.91    1.29
   1  -6   2    8.59    0.93
  -1   6  -2    8.63    1.31
  -1   6  -2   10.35    1.02
  -1   6  -2    8.55    0.83
  -5  -2  -6    2.85    0.93
   5   2   6    3.35    1.12
   5   2   6    3.66    0.62
  -5  -2  -6    2.58    1.02
  -5  -2  -6    4.48    0.83
  -4   2  -6    2.02    0.70
   4  -2   6    1.65    0.86
  -4   2  -6    0.76    0.72
   4  -2   6    1.31    0.71
   4  -2   6    2.27    0.99
  -5  -3  -5    2.55    0.96
  -5  -3  -5    2.14    0.76
  -5  -3  -5    1.72    0.55
   5   3   5    1.96    0.60
   4   5   3    0.98    0.51
  -1   2   8   71.52    5.71
   1  -2  -8   87.54    5.29
   1  -2  -8   77.52    5.62
   1  -2  -8   79.15    4.85
   1  -2  -8   76.39    4.82
  -1   2   8   78.41    5.10
   0   0  -8   94.74    5.82
   0   0   8   90.59    5.97
   0   0  -8   83.43    5.36
   0   0   8   88.91    5.56
  -4   2   4    0.67    0.94
  -4   2   4    0.27    0.78
  -4   2   4   -0.29    1.18
   4  -2  -4    1.28    0.95
  -4   2   4    0.17    0.21
   4  -2  -4    0.62    0.40
   1   2   9  194.55   12.05
   1   2   9  220.22   12.89
   1   2   9  198.47   13.08
   1   2   9  223.30   12.73
  -1  -2  -9  208.90   12.48
  -1  -2  -9  205.39   12.94
  -1  -2  -9  208.56   12.69
  -4  -2  -8  608.47   36.47
   4   2   8  593.87   36.77
   4   2   8  619.99   36.25
  -4  -2  -8  643.50   36.80
  -4  -2  -8  588.52   36.88
   4   2   8  596.60   36.74
   4   1  -3   95.96    5.83
  -4  -1   3   88.28    6.29
  -4  -1   3  111.15    6.27
  -4  -1   3   95.90    5.84
  -4  -1   3   87.42    6.04
   4   1  -3   83.47    5.79
  -5   3  -1  119.99    7.56
   5  -3   1  115.54    7.11
   5  -3   1  109.34    6.90
  -5   3  -1  116.32    7.24
   5  -3   1  113.07    7.20
  -5   3  -1  123.17    7.49
   5  -2   4  441.37   26.09
   5  -2   4  429.03   26.14
  -5   2  -4  420.52   25.25
   5  -2   4  427.53   26.09
  -5   2   1   -0.08    0.71
  -5   2   1    0.78    0.36
  -5   2   1    0.70    0.88
   5  -2  -1   -0.09    0.80
   5  -2  -1    0.58    0.69
  -5   2   1    0.86    0.84
  -3   6   0    0.12    0.59
   3  -6   0    0.04    0.48
  -3   6   0    0.08    0.46
   3  -6   0    0.21    0.53
   3  -6   0    0.61    0.57
   3  -6   0   -0.10    0.89
   3  -5   3  183.29   11.55
  -3   5  -3  169.17   11.22
  -3   5  -3  177.20   11.17
   3  -5   3  192.28   11.65
  -3   5  -3  194.29   11.11
  -1  -7  -6  152.19    7.78
  -1  -7  -6  111.63    6.85
   1   7   6  174.17    5.00
   1   7   6  159.27    3.46
   3   2  -4  302.43   18.17
  -3  -2   4  292.30   17.80
   3   2  -4  300.22   18.23
  -4   5   0  132.30    8.38
   4  -5   0  126.51    7.94
  -4   5   0  135.73    8.30
   4  -5   0  128.94    8.29
   4  -5   0  136.55    8.17
   4  -5   0  132.33    8.11
   2   4   9  228.31    1.66
  -2  -4  -9  234.17   15.69
   2   4   9  232.22    5.02
  -2  -4  -9  250.44   15.39
   2   4   9  224.80    5.89
  -2  -4  -9  257.00   15.53
  -5   0   1    0.47    0.52
   5   0  -1    0.41    0.73
  -5   0   1    0.18    0.60
   2   6   0  293.48   15.93
  -2  -6   0  257.22   15.38
   2   6   0  241.40   15.16
   2   6   0  246.65   15.45
   4  -5  -1   33.96    2.63
   4  -5  -1   28.89    2.02
  -4   5   1   32.80    2.48
  -4   5   1   33.85    2.43
   4  -5  -1   32.52    2.35
   4  -5  -1   37.83    2.47
   1   4   9   97.62    4.10
  -1  -4  -9  108.50    6.90
  -1  -4  -9   99.37    7.36
   1   4   9   98.80    3.20
   1   4   9   96.57    3.51
   1   4   9  103.11    3.14
   1  -4  -8   54.29    3.60
  -1   4   8   56.81    4.63
   1  -4  -8   51.95    3.22
   1  -4  -8   54.67    3.77
   1  -4  -8   53.58    3.40
  -1   4   8   54.45    3.87
   1  -4  -8   45.75    4.27
   2  -4  -7   85.19    5.81
  -2   4   7   85.35    5.62
  -2   4   7   70.77    4.87
   2  -4  -7   67.55    4.88
   2  -4  -7   77.28    4.86
   2  -4  -7   91.86    5.40
   2  -4  -7   73.67    4.91
  -4   3  -5  245.17   15.49
   4  -3   5  258.82   15.25
   4  -3   5  240.96   15.39
  -4   3  -5  260.25   15.41
   4  -3   5  250.44   15.45
  -2  -1   6  789.67   38.30
  -2  -1   6  794.32   37.88
   2   1  -6  729.24   44.79
   2   1  -6  797.70   45.01
  -4  -5  -6   24.14    1.76
  -4  -5  -6   23.60    2.36
  -4  -5  -6   21.11    2.22
   1  -7  -5   50.27    3.68
   1  -7  -5   59.25    3.43
   1  -7  -5   49.12    3.31
   1  -7  -5   51.86    3.40
   1  -7  -5   55.80    3.78
   1  -7  -5   62.10    4.36
  -1   7   5   51.79    3.70
   0   7   6    0.08    0.19
   0  -7  -6  167.81    9.87
   0   7   6  176.01    3.57
   0  -7  -6  164.48   10.22
   0  -7  -6  165.78   10.40
   0  -7  -6  161.14    9.80
   0  -7  -6  164.81   10.74
  -5   3  -2    1.85    0.53
   5  -3   2    1.36    0.69
  -5   3  -2    0.96    0.74
   5  -3   2    1.62    0.95
   5  -3   2    1.76    0.66
  -5   3  -2    1.02    0.63
   3  -6  -3    8.35    1.02
  -3   6   3    8.47    1.05
   3  -6  -3    9.02    0.97
   3  -6  -3    9.64    0.85
   3  -6  -3    8.81    1.31
   3  -6  -3   11.83    1.57
   3  -6  -3    8.70    0.76
   3  -6  -3    9.32    0.98
   3   5   8    5.32    1.25
  -3  -5  -8    5.04    1.57
  -3  -5  -8    6.16    0.66
  -3  -5  -8    4.71    1.31
  -3  -5  -8    5.37    1.26
   4   3   8  627.74   35.20
  -4  -3  -8  622.03   39.01
  -4  -3  -8  664.10   39.31
   4   3   8  539.09   35.11
  -4  -3  -8  670.02   39.12
  -4  -3  -8  656.03   38.76
  -4   1   4    1.16    1.21
  -4   1   4    0.88    0.52
   5  -3   0   15.30    1.47
   5  -3   0   15.46    1.55
  -5   3   0   12.71    1.45
  -5   3   0   16.03    1.48
  -5   3   0   15.12    1.03
  -5   0  -6    0.91    0.79
   5   0   6    0.77    0.48
   5   0   6    0.24    1.00
   5   0   6    0.56    0.71
  -5   0  -6    0.21    0.64
   1   5  -3  227.31   13.76
   1   5  -3  221.03   13.42
   3  -3   6  142.96    8.74
  -3   3  -6  132.56    8.28
  -3   3  -6  129.55    8.55
  -3   3  -6  140.95    8.43
   3  -3   6  137.53    8.69
   3  -3   6  139.34    8.51
   3  -3   6  130.00    8.40
   2   7   4   14.55    1.15
   2   7   4   12.91    1.53
   2   7   4   14.84    2.08
   0   3  -6    1.26    0.58
   0  -3   6    3.17    0.89
   0  -3   6    1.36    0.66
   0   3  -6    1.95    0.66
   0  -3   6    1.03    0.62
   4  -1   7   63.28    3.93
  -4   1  -7   56.32    3.99
   4  -1   7   54.42    4.07
   4  -1   7   60.31    3.89
   4  -1   7   55.20    4.26
   4  -3  -4   33.56    2.36
   4  -3  -4   28.88    2.33
   4  -3  -4   29.66    2.13
   4  -3  -4   31.67    2.78
  -4   3   4   37.46    2.84
  -4   3   4   37.44    3.13
   3   6   2   38.29    2.45
   3   6   2   39.73    3.32
   3   6   2   33.59    2.50
  -3  -6  -2   35.10    2.40
   0   6  -2  213.06   12.84
   0   6  -2  221.33   12.61
   0  -6   2  241.01   14.13
   0  -6   2  241.18   14.33
   0  -6   2  217.17   13.76
   0   6  -2  201.10   12.34
   2   5  -2  267.62   14.79
   2   5  -2  278.04   15.28
   3   4  -2   32.90    2.41
   3   4  -2   34.29    2.71
  -3  -4   2   33.30    2.39
   4   1   8  254.14   15.78
   4   1   8  239.83   15.69
  -4  -1  -8  268.03   15.50
  -4  -1  -8  244.79   15.53
   4   1   8  258.00   15.26
  -4  -1  -8  245.18   15.15
   2  -1   8   26.88    2.31
   2  -1   8   31.56    2.09
   2  -1   8   30.49    2.15
  -2   1  -8   27.35    2.02
   2  -1   8   36.55    2.84
  -5  -3  -2  345.07   21.27
  -5  -3  -2  363.09   21.35
   5   3   2  345.61   20.86
   3  -2   7    3.35    0.77
   3  -2   7    2.98    1.00
   3  -2   7    3.28    0.71
  -3   2  -7    3.03    0.68
  -3   2  -7    1.92    0.80
   3  -2   7    3.77    1.01
  -3   2  -7    2.53    0.85
   2   7   5    0.29    0.85
   2   7   5    0.26    0.34
  -2   1   7    9.93    1.88
  -2   1   7   10.28    1.19
   2  -1  -7    9.82    1.19
   2  -1  -7   10.14    0.97
   2  -1  -7   10.80    1.19
   3  -5  -5  131.16    7.84
   3  -5  -5  122.35    7.33
   3  -5  -5  112.90    8.31
   3  -5  -5  124.36    8.13
   3  -5  -5  116.27    7.58
   3  -5  -5  122.43    7.66
  -1  -6  -8  288.47   18.74
   1   6   8  337.29   18.80
   1   6   8  304.07   18.48
   1   6   8  283.56   18.09
  -1  -6  -8  302.32   18.49
  -1  -6  -8  294.55   18.20
   0  -4   5   13.79    1.27
   0   4  -5   13.41    1.39
   0   4  -5   14.53    1.28
   0  -4   5   15.86    1.51
   1  -5   4  174.26   10.51
  -1   5  -4  163.72   10.20
   1  -5   4  162.47   10.58
  -4   5  -1   59.00    3.96
   4  -5   1   60.31    3.99
   4  -5   1   57.15    3.76
   4  -5   1   51.10    3.59
  -4   5  -1   63.81    4.12
   4  -5   1   55.23    3.63
   2  -6   2   55.16    3.87
   2  -6   2   53.30    3.75
   2  -6   2   53.66    3.55
  -2   6  -2   56.46    3.58
  -2   6  -2   50.32    3.84
  -2   6  -2   55.63    3.70
   4   4   0  109.54    6.89
  -4  -4   0  106.82    6.74
   2   1   9    2.23    1.02
  -2  -1  -9    0.72    0.52
   2   1   9    2.08    0.51
   2   1   9    0.51    1.37
  -2  -1  -9    2.76    0.84
   2   1   9    2.26    1.09
   1   1  -7  216.38   13.46
   1   1  -7  217.28   13.11
  -1  -1   7  222.82    4.10
  -1  -1   7  230.49    5.29
   3  -2  -6  110.21    6.94
  -3   2   6  113.85    7.80
   3  -2  -6  115.65    7.48
  -3   2   6  110.52    6.96
   3   3   9  103.37    7.46
   3   3   9  113.98    7.75
  -3  -3  -9  124.76    8.21
   3   3   9  112.76    6.79
   1  -6  -7    5.03    0.91
   1  -6  -7    3.86    0.37
   1  -6  -7    4.16    1.35
   1  -6  -7    3.67    0.83
   3  -3  -6  107.20    6.58
   3  -3  -6  103.32    6.76
  -3   3   6  116.31    3.83
   3  -3  -6  112.50    7.39
  -3   3   6  108.97    4.17
  -3  -2  -9  205.50   12.71
   3   2   9  216.58   12.66
   3   2   9  199.62   12.09
   3   2   9  189.04   12.88
   4  -5  -2  118.04    8.01
   4  -5  -2  130.98    7.84
  -4   5   2  118.89    7.47
  -4   5   2  118.36    7.51
   4  -5  -2  121.50    7.79
   2   7   3    0.22    0.43
   2   7   3    0.41    0.93
   2   7   3    1.85    1.55
   1  -1   8    3.19    0.97
   1  -1   8    3.92    1.31
  -1   1  -8    3.56    0.69
   1  -1   8    3.66    0.62
   1  -1   8    3.85    0.75
  -1   1  -8    4.94    1.07
  -2   7   2   61.67    3.87
   2  -7  -2   59.47    3.69
  -2   7   2   57.69    3.95
   2  -7  -2   55.70    3.59
  -5  -3  -6   30.33    2.56
  -5  -3  -6   27.82    2.09
  -5  -3  -6   25.62    1.98
   5   3   6   25.88    1.86
  -1  -7  -1    0.98    1.16
   1   7   1    0.74    0.57
  -1  -7  -1    0.80    0.56
   2  -5   4   -0.69    0.87
   2  -5   4    0.09    0.76
  -2   5  -4    0.51    0.53
  -2   7   3    0.20    0.55
   2  -7  -3    0.16    0.41
   2  -7  -3    0.39    0.95
   2  -7  -3    0.32    0.42
   2  -7  -3   -0.16    0.49
   4   5   2    0.44    0.57
  -4  -5  -2    0.77    0.65
   1  -1  -8  452.57   26.38
   1  -1  -8  430.91   26.00
  -1   1   8  419.27   25.89
  -1   1   8  448.72   26.56
   0   2  -7   13.34    1.52
   0  -2   7   11.79    1.13
   0   2  -7   11.78    1.12
   0   2  -7   11.98    1.08
   0  -2   7   12.36    1.40
   0  -2   7   10.16    1.08
  -3  -6  -7    0.17    1.23
  -3  -6  -7    0.44    1.11
  -3  -6  -7   -0.06    0.39
  -3   4  -5   20.55    1.89
   3  -4   5   20.96    1.89
   3  -4   5   22.56    1.71
   3  -4   5   22.35    2.02
  -3   4  -5   19.21    1.60
   2   6   8  256.39   15.56
   2   6   8  302.70   16.09
  -2  -6  -8  272.97   17.93
   2   6   8  299.19   16.64
  -2  -6  -8  279.12   17.69
  -2  -6  -8  295.72   17.64
  -1  -1  -9  359.24   22.28
   1   1   9  374.92   22.61
  -1  -1  -9  421.67   22.81
   1   1   9  402.17   23.65
   1   1   9  382.84   23.14
  -3   6  -1  154.40    9.64
   3  -6   1  147.02    9.02
   3  -6   1  158.36    9.35
  -3   6  -1  161.90    9.75
  -3   6  -1  155.49    9.47
   3  -6   1  144.13    8.91
   3  -6   1  143.45    9.07
   5  -3   3  129.80    8.45
  -5   3  -3  153.49    8.81
   5  -3   3  135.34    8.64
   5  -3   3  138.84    8.38
  -5   3  -3  130.48    8.60
   3   1  -5    5.29    0.93
  -3  -1   5    7.08    1.36
   3   1  -5    7.91    0.95
  -3  -1   5    8.34    1.09
   1  -7   0  183.96   11.35
   1  -7   0  191.72   11.74
   1  -7   0  177.87   11.57
  -1   7   0  180.79   10.87
   1  -7   0  212.60   12.22
  -1   7   0  181.33   11.31
  -1   7   0  178.01   11.01
   0   3   9   74.91    5.67
   0   3   9   80.93    5.39
   0  -3  -9   71.98    4.42
   0  -3  -9   75.28    4.93
  -5   3   1    1.48    0.92
   5  -3  -1    2.52    0.86
   5  -3  -1    2.38    1.02
  -5   3   1    2.26    0.80
   5  -3  -1    2.22    0.79
  -5   3   1    1.81    0.78
  -5  -2   0    0.23    0.39
  -5  -2   0  101.47    2.63
   5   2   0   92.91    6.02
   2   7   6  159.45    9.75
   2   7   6  152.46    9.26
  -2  -7  -6  156.36   10.12
   0  -7   0    7.73    1.53
   0   7   0    6.06    1.15
   0  -7   0    6.41    0.81
   0   7   0    6.17    0.78
   0   7   0    1.43    0.36
  -2   7   1   65.75    4.18
   2  -7  -1   68.11    4.05
   2  -7  -1   60.36    4.27
  -2   7   1   64.86    4.30
   2  -7  -1   63.95    4.16
   2  -6  -6  121.39    7.29
   2  -6  -6  109.63    8.33
   2  -6  -6  117.22    7.64
   2  -6  -6  141.16    8.34
   2  -6  -6  114.85    7.46
   2  -6  -6  126.63    7.48
   2  -6  -6  114.47    8.04
   2  -6  -6  116.50    7.47
  -4   4  -4  177.87   10.54
   4  -4   4  180.36   11.18
   4  -4   4  179.57   11.23
  -4   4  -4  162.32   10.57
   5   1  -1    0.99    0.76
  -5  -1   1    0.34    0.83
  -5  -1   1   -0.33    0.52
  -5  -1   1    0.97    0.59
  -4  -4  -8  171.53   10.59
  -4  -4  -8  175.37   10.73
  -4  -4  -8  151.68   10.67
  -4  -4  -8  167.39   10.15
   3   4   9   59.14    4.40
   3   4   9   52.99    3.28
  -3  -4  -9   52.11    3.99
  -3  -4  -9   55.74    4.25
   3   4   9   44.70    3.94
   4   0  -4  186.98   12.14
   4   0  -4  207.08   12.17
  -4   0   4  205.76   13.22
  -4   0   4  194.25   12.73
  -4   0   4  238.62   13.04
   0  -6  -8   54.79    5.03
   0  -6  -8   66.90    4.50
   0   6   8   69.13    4.60
   0   6   8   62.42    4.26
   0  -6  -8   61.64    4.82
   0  -6  -8   64.72    4.18
  -1  -5  -9   24.49    2.25
  -1  -5  -9   13.25    1.65
   1   5   9   19.08    1.49
  -1  -5  -9   15.00    2.26
   1   5   9   19.75    2.02
   1   5   9   18.06    2.08
  -3   1   6   79.67    5.22
  -3   1   6   84.67    5.96
   3  -1  -6   78.74    5.16
  -4  -5  -7  201.86   12.13
  -4  -5  -7  196.68   12.71
   3  -6  -4   76.98    5.49
   3  -6  -4   73.08    4.76
   3  -6  -4   88.35    5.32
   3  -6  -4   77.36    4.90
   3  -6  -4   71.06    4.97
   3  -6  -4   80.77    4.89
  -3   1  -8  105.29    6.98
   3  -1   8  118.95    7.24
  -3   1  -8  122.51    7.34
   3  -1   8  114.20    7.70
   3  -1   8  121.03    7.51
   3  -1   8  114.48    7.23
   1  -5  -8   95.17    5.89
  -1   5   8  113.97    7.36
   1  -5  -8   93.35    5.74
   1  -5  -8  103.86    6.25
   1  -5  -8   87.95    5.43
  -2  -5  -9  102.27    7.27
   2   5   9  100.20    6.57
   2   5   9  110.26    7.11
   2   5   9  111.04    7.16
  -2  -5  -9  107.10    7.10
  -2  -5  -9  100.59    6.94
   0  -4  -9   18.27    1.63
   0   4   9   21.04    1.98
   0   4   9   16.79    2.22
   0  -4  -9   15.59    1.03
   0   2   9  251.67   15.57
   0  -2  -9  245.98   15.20
   0  -2  -9  263.06   15.34
   0   2   9  252.49   15.90
   0  -2  -9  268.86   15.69
   3  -4  -6   86.63    5.50
  -3   4   6   -0.30    0.31
   3  -4  -6   86.48    5.25
  -3   4   6   93.92    3.62
   3  -4  -6   86.67    6.19
   3  -4  -6   79.29    5.52
   2  -7  -4   -0.28    0.52
   2  -7  -4    0.49    0.90
   2  -7  -4    0.89    0.52
   2  -7  -4    0.26    0.42
   2  -7  -4    1.05    0.62
   0   5  -4  231.88   14.21
   0  -5   4  275.99   16.95
  -1  -7  -7  283.80   17.57
   1   7   7  364.06    8.93
   1   7   7  285.18    6.93
  -3  -1  -9   13.81    1.53
   3   1   9   13.32    1.91
   3   1   9   12.24    1.08
   3   1   9   14.96    1.64
   5  -1  -2   72.33    4.73
   5   2   7   48.65    3.82
  -5  -2  -7   46.40    3.30
  -5  -2  -7   49.54    3.28
   5   2   7   49.23    3.55
  -5  -2  -7   50.92    3.76
  -4   4   4  221.90   14.14
  -4   4   4  225.82   13.81
   4  -4  -4  208.69   12.85
   4  -4  -4  184.60   12.18
   4  -4  -4  206.62   12.17
  -4   5  -2  191.86   12.17
   4  -5   2  218.68   12.71
   4  -5   2  202.61   12.81
   4  -5   2  204.04   12.77
   4  -5   2  211.09   13.04
  -4   5  -2  208.13   12.25
  -2   5   7   86.82    6.21
   2  -5  -7   90.80    5.65
   2  -5  -7  102.52    6.36
   2  -5  -7   78.82    5.66
   2  -5  -7   83.54    6.53
   2  -5  -7   99.28    5.83
  -2   5   7   86.67    5.60
   5  -2   5  295.08   18.40
  -5   2  -5  260.91   15.93
   5  -2   5  305.55   18.29
  -5   2   2    1.45    0.29
   5  -2  -2    1.73    0.64
   5  -2  -2    1.63    0.81
  -5   2   2    0.68    0.72
  -5   2   2    0.92    0.94
  -5   2   2    0.94    0.38
   5  -2  -2    1.76    0.88
   4   0   8   46.21    3.05
   4   0   8   42.80    3.42
  -4   0  -8   42.68    3.22
  -4   0  -8   41.15    2.87
   4   0   8   44.85    3.35
  -4   0  -8   41.00    3.18
   4   0   8   38.62    2.87
  -5  -1  -7    5.66    1.11
  -5  -1  -7    6.26    0.91
   5   1   7    7.31    1.22
   5   1   7    6.07    1.37
   5  -1   6   53.78    4.01
   5  -1   6   55.68    3.82
  -5   1  -6   49.57    3.56
   1  -7  -6   65.38    4.72
   1  -7  -6   66.29    3.93
   1  -7  -6   63.68    4.22
   1  -7  -6   65.51    4.76
   1  -7  -6   55.96    3.72
  -1   7   6   59.68    4.14
   1  -7  -6   65.32    4.26
  -2  -7  -2   53.39    3.35
   2   7   2   66.85    4.56
   2   7   2   50.56    3.27
   2   7   2   56.39    3.49
  -5  -4  -4    0.41    0.94
   5   4   4    0.82    0.60
  -5  -4  -4    0.20    0.72
   5   3   1  186.40   11.52
  -5  -3  -1  183.69   11.33
  -3  -5   1    1.75    0.61
   3   5  -1    0.60    0.60
   3   5  -1    1.30    1.18
  -5  -4  -5   21.00    1.79
   5   4   5   19.47    1.55
  -5  -4  -5   23.71    2.25
  -5  -4  -5   20.85    1.83
  -4   5   3   47.57    3.47
   4  -5  -3   46.88    3.55
   4  -5  -3   45.44    3.22
  -4   5   3   49.88    3.43
   4  -5  -3   44.49    3.11
   3   6   1   26.09    2.48
   3   6   1   19.84    1.63
   3   6   1   21.47    1.61
  -3  -6  -1   22.57    1.68
   0  -7  -7  161.05   10.86
   0  -7  -7  169.30   10.22
   0  -7  -7  168.83   10.65
   0  -7  -7  184.34   11.25
   0   7   7  166.01   10.38
   0  -7  -7  182.95   10.44
   2   0  -7   71.18    4.72
  -2   0   7   79.35    5.79
   2   0  -7   77.98    4.97
  -2   0   7   78.12    5.22
   2   0  -7   77.91    5.04
   5   4   3   88.38    5.69
  -5  -4  -3   94.50    5.67
  -5  -4  -3   82.10    5.97
  -5  -4  -3   83.67    5.57
   2  -7   0   54.03    3.83
  -2   7   0   57.54    3.63
  -2   7   0   46.63    3.96
  -2   7   0   59.38    3.80
   2  -7   0   57.41    3.69
   2  -7   0   56.89    4.05
  -5  -3  -7    2.08    1.03
   5   3   7   -0.14    1.10
  -5  -3  -7    1.13    0.69
  -5  -3  -7    1.56    0.66
  -5  -3  -7    0.39    0.85
   1   6  -2  944.61   52.88
   1   6  -2  829.45   52.52
  -1  -6   2  892.07   50.30
   1   6  -2  899.92   52.37
  -1  -6   2  815.08   49.87
   5   0  -2   48.46    3.67
   5   0  -2   57.52    3.71
  -5   0   2   50.62    3.73
   4   3  -2  112.47    7.04
   4   3  -2  109.59    7.08
  -4  -3   2  125.65    7.95
  -4  -2   3   31.17    2.59
   4   2  -3   32.74    2.42
  -4  -2   3   35.08    2.58
  -4  -2   3   31.49    2.49
   4   2  -3   28.54    2.35
   2   0   9    1.35    0.93
   2   0   9    0.62    0.31
   2   0   9    0.55    0.52
   2   0   9    1.94    1.33
  -2   0  -9    0.46    0.55
   5  -4   1   23.37    1.92
  -5   4  -1   21.84    1.63
  -5   4  -1   24.82    2.03
   5  -4   1   21.03    2.05
   5  -4   1   24.92    1.90
   5  -4   1   23.86    1.76
  -5   4  -1   23.88    1.92
   5  -4   1   23.30    2.12
  -2  -7  -7  144.02    8.71
  -2  -7  -7  163.54    9.62
   2   7   7  180.80    5.10
   2   7   7  181.31    3.76
   0   1  -8  130.22    7.76
   0   1  -8  115.34    7.13
   0  -1   8  129.19    7.51
   0  -1   8  116.05    7.47
   0   1  -8  117.22    7.27
   0  -1   8  116.63    7.84
   5  -3   4  242.77   14.00
   5  -3   4  221.77   13.75
  -5   3  -4  236.00   13.86
  -5   3  -4  216.88   13.77
   5  -3   4  218.04   14.05
   5  -4   0  154.52    9.67
  -5   4   0  178.15   11.33
   5  -4   0  180.33   10.05
  -5   4   0  187.17   11.28
   4   5   1    6.38    0.93
  -4  -5  -1    6.20    0.98
   3  -5   4  216.99   13.26
  -3   5  -4  231.44   13.55
  -3   5  -4  209.82   13.75
   3  -5   4  212.46   13.24
   2   6  -1  330.28   18.37
   2   6  -1  289.51   18.01
   2   6  -1  284.16   17.72
  -5  -4  -6    1.30    0.99
  -5  -4  -6    2.46    0.86
   5   4   6    1.16    0.54
  -5  -4  -6    1.18    0.69
   2   3  -5   75.68    5.19
   2   3  -5   91.66    5.36
  -2  -3   5   79.49    5.38
   5  -3  -2  133.80    7.90
  -5   3   2  139.71    8.55
  -5   3   2  131.78    8.47
  -5   3   2  130.61    8.67
   5  -3  -2  124.67    8.20
   5  -3  -2  115.83    7.93
   5  -3  -2  125.42    7.85
  -1   6  -3    4.60    1.13
   1  -6   3    4.15    1.11
   1  -6   3    5.99    1.11
  -1   6  -3    5.92    0.90
  -5   0  -7   12.79    1.38
   5   0   7   11.28    1.41
   5   0   7   15.89    1.75
   5   0   7   12.84    1.39
  -5   0  -7   14.63    1.59
   0   5   9    2.46    1.00
   0  -5  -9    4.19    1.02
   0   5   9    3.56    1.38
  -3   6  -2  238.21   14.73
   3  -6   2  214.60   14.04
   3  -6   2  233.42   13.81
  -3   6  -2  243.57   14.64
   3  -6   2  230.10   13.94
   1   7   0  309.55   17.48
   1   7   0  271.46   17.04
  -1  -7   0  317.07   17.93
  -1  -7   0  276.79   17.30
   2   4  -4   10.67    1.13
   2   4  -4    9.72    1.07
  -2  -4   4    9.51    1.32
   0  -1  -9  268.38   15.17
   0  -1  -9  236.74   14.65
   0   1   9  244.92   15.18
   1   0  -8  420.52   24.31
  -1   0   8  419.73   25.32
  -1   0   8  416.24   25.87
   1   0  -8  391.73   23.88
   2  -7  -5    0.10    0.83
   2  -7  -5    0.29    0.53
   2  -7  -5    0.80    0.58
   2  -7  -5    0.31    1.12
   2  -7  -5   -0.22    0.58
   2  -7  -5    0.55    1.42
   2  -7  -5    0.38    0.42
  -3  -6  -8    2.35    1.42
  -3  -6  -8    2.48    0.51
  -3  -6  -8    3.01    1.17
   3   5   9   16.57    1.99
  -3  -5  -9   17.63    2.28
  -3  -5  -9   17.31    2.05
   3   5   9   16.10    1.18
  -3  -5  -9   18.06    1.36
  -3  -5  -9   19.47    2.07
   1   0   9   87.04    5.98
   1   0   9   91.64    6.42
   1   0   9   87.60    5.47
  -1   0  -9   85.39    5.38
  -1   0  -9   86.82    5.82
  -2   3  -7  609.84   36.06
   2  -3   7  588.37   35.25
   2  -3   7  608.93   35.34
  -2   3  -7  594.71   36.35
   2  -3   7  586.20   35.61
   2  -3   7  580.59   35.48
   3   0  -6    1.43    0.64
  -3   0   6    2.29    1.35
   3   0  -6    1.45    0.76
  -3   0   6    1.53    0.73
  -1   7  -1  103.15    6.83
  -1   7  -1  102.32    6.56
   1  -7   1  102.89    6.89
   1  -7   1  104.66    6.62
   1  -7   1  111.21    7.01
  -1   7  -1  104.82    6.39
   1  -7   1  110.36    7.36
  -4   2  -7   21.29    1.91
   4  -2   7   18.76    1.62
   4  -2   7   20.00    1.91
   4  -2   7   21.04    2.03
  -4   2  -7   18.23    1.63
  -5   4  -2   23.18    1.82
  -5   4  -2   23.29    1.99
   5  -4   2   21.65    1.73
   5  -4   2   21.67    2.00
  -5   4  -2   22.36    1.73
   5  -4   2   19.64    1.73
   5  -4   2   20.38    1.91
   5  -4   2   19.53    1.62
  -4   3  -6   53.36    3.66
  -4   3  -6   48.03    3.43
   4  -3   6   44.03    3.49
   4  -3   6   47.00    3.25
   4  -3   6   49.51    3.56
   4  -3   6   49.00    3.40
  -4  -6  -5  289.76   19.43
  -4  -6  -5  321.46   18.80
   4   6   5  305.54   18.20
  -1  -3   6   60.50    4.29
   1   3  -6   53.32    3.79
   1   3  -6   63.12    3.95
   1   3  -6   60.06    3.92
   2  -6   3   43.10    3.08
  -2   6  -3   41.68    2.85
  -2   6  -3   42.39    3.05
   2  -6   3   40.22    3.01
  -2   6  -3   36.18    2.65
   2  -6   3   38.06    2.79
  -4   2   5   21.48    1.81
  -4   2   5  106.86    4.24
   4  -2  -5  107.39    7.17
  -1  -4   5    1.55    0.89
   1   4  -5    0.38    0.66
   1   4  -5    1.40    0.64
  -1  -4   5    0.50    0.67
   1   4  -5    0.40    0.82
  -5   4   1   22.39    1.96
  -5   4   1   22.42    1.91
   5  -4  -1   18.96    1.74
   4   4  -1  141.41    8.83
  -4  -4   1  153.96    9.54
   4   2   9  500.55   29.61
  -4  -2  -9  487.77   28.96
   4   2   9  488.22   28.89
   4   2   9  459.78   29.50
  -4  -2  -9  471.30   29.07
  -4  -2  -9  478.53   28.63
   3  -5  -6  212.06   13.10
   3  -5  -6  227.08   12.41
   3  -5  -6  192.89   12.14
  -3   5   6  212.28   13.59
   3  -5  -6  197.38   11.91
   3  -5  -6  183.26   12.18
  -2   4  -6   49.46    3.72
   2  -4   6   54.58    3.89
   2  -4   6   53.69    3.55
  -2   4  -6   50.42    3.46
   2  -4   6   52.47    3.72
  -4  -3  -9  417.61   27.17
   4   3   9  435.85   27.90
  -4  -3  -9  448.17   26.69
  -4  -3  -9  450.75   27.09
  -4  -3  -9  465.30   27.05
   4   3   9  462.93   27.22
   4   6   4   99.20    6.09
   0  -8  -4  144.49    9.21
   0  -8  -4  155.96    9.13
   0   8   4  160.80   10.21
   0   8   4  161.06    9.81
   0  -8  -4  158.70    9.68
   2   2  -6  411.72   25.77
   2   2  -6  465.09   26.01
  -2  -2   6  405.40   25.43
  -2  -2   6  445.12   25.79
   3   7   5  143.28    9.14
   3   7   5  131.26    8.13
  -1   3  -7   21.94    1.63
   1  -3   7   20.57    1.62
  -1   3  -7   17.80    1.59
   3  -6  -5  139.87    9.01
   3  -6  -5  147.07    9.10
   3  -6  -5  151.29   10.00
   3  -6  -5  162.86    9.71
   3  -6  -5  140.28    8.81
   3  -6  -5  150.45    9.31
   3  -6  -5  152.09    8.97
   4  -3  -5  125.38    7.59
   4  -3  -5  134.08    8.42
   4  -3  -5  117.88    7.88
   4  -3  -5  123.90    7.88
  -4   3   5    4.63    0.60
  -4   3   5  122.31    3.94
   3   0   9  107.48    7.17
   3   0   9  106.21    6.90
  -3   0  -9   90.92    6.19
   3   0   9  107.33    6.43
   3   0   9   99.27    6.44
  -3   0  -9   92.83    5.86
  -4  -5  -8  110.70    7.19
  -4  -5  -8  102.45    6.45
  -1   4  -6   71.09    4.68
  -1   4  -6   68.93    4.70
  -1   4  -6   79.33    5.09
   1  -4   6   73.16    4.72
   4  -5   3   55.56    3.79
  -4   5  -3   52.92    3.84
   4  -5   3   46.56    3.46
   4  -5   3   53.46    3.56
  -4   5  -3   58.94    3.84
  -5  -4  -2  165.37   10.25
   5   4   2  160.83   10.00
  -6   0  -3   11.08    1.32
   6   0   3   11.39    1.25
  -6   0  -3   11.91    1.43
  -6   0  -3   11.84    1.45
   4   1  -4  109.07    6.69
   4   1  -4   98.17    6.66
  -4  -1   4  102.98    6.93
  -4  -1   4  114.48    6.76
  -4  -1   4   99.52    6.24
  -4  -1   4  105.28    6.60
   0  -8  -3   46.53    3.81
   0   8   3   41.92    3.25
   0  -8  -3   43.07    2.86
   0   8   3   41.50    2.82
  -5  -2   1  161.78    9.35
  -5  -2   1  137.91    9.21
   5   2  -1  147.82    9.28
   2   7   1  121.27    7.31
   2   7   1   97.28    6.73
   2   7   1   98.37    6.33
  -2  -7  -1   98.55    6.00
   3   7   4  114.59    6.32
   3   7   4  123.78    7.37
   3   7   4   96.65    6.05
   0  -7   1   16.86    1.70
   0  -7   1   15.17    1.34
   0  -7   1   13.69    1.98
   0   7  -1   16.09    1.42
   0   7  -1   17.73    1.82
   0  -6   3   37.56    3.17
   0  -6   3   39.15    3.02
   0   6  -3   40.12    3.03
   0   6  -3   35.35    2.73
   0   6  -3   41.40    2.56
  -4  -6  -6  473.64   28.23
   3   3  -4  221.78   13.69
   3   3  -4  209.52   13.61
  -3  -3   4  217.71   13.49
   3   3  -4  244.78   13.71
  -1  -6  -9   92.39    6.81
  -1  -6  -9   86.13    6.47
  -1  -6  -9   94.39    6.23
   1   6   9   95.95    6.21
   1   6   9   81.27    5.46
   1   6   9   85.93    5.90
   2  -3  -8   21.70    1.77
   2  -3  -8   14.25    2.01
   2  -3  -8   17.20    1.37
  -2   3   8   17.38    2.25
   2  -3  -8   21.84    1.67
  -2   3   8   21.09    1.75
  -2   3   8   15.73    2.43
   2   3  10  177.91   10.30
   2   3  10  147.77    9.37
   2   3  10  168.09   10.33
  -2  -3 -10  172.69   11.41
  -2  -3 -10  172.59   11.19
   2   3  10  166.92    9.45
  -2  -3 -10  181.40   10.95
   2   3  10  179.16   10.79
   6   0   2    4.09    0.86
  -6   0  -2    3.52    0.98
  -6   0  -2    5.20    1.01
  -6   0  -2    3.96    1.01
  -2   2  -8  167.25    9.84
   2  -2   8  161.01   10.11
  -2   2  -8  146.86   10.11
   2  -2   8  175.06   10.14
   2  -2   8  159.10   10.32
  -6  -1  -3   61.40    4.10
   6   1   3   60.99    4.14
  -6  -1  -3   56.55    4.17
  -6  -1  -3   56.83    4.07
   1  -6  -8    2.65    0.74
   1  -6  -8    2.02    0.81
   1  -6  -8    4.12    1.30
  -1   6   8    3.75    0.96
   1  -6  -8    2.43    0.26
   0  -8  -5  126.38    7.99
   0  -8  -5  123.27    7.52
   0   8   5  145.42    8.91
   0   8   5  135.40    8.43
  -6   0  -4    6.70    1.16
  -6   0  -4    6.00    1.11
  -6   0  -4    5.49    1.14
   6   0   4    6.77    1.14
   6   0   4    4.29    0.87
  -6  -1  -4  102.53    6.46
   6   1   4   96.33    6.18
  -6  -1  -4   94.74    6.53
  -6  -1  -4   98.85    6.53
  -3  -7  -6  131.00    7.84
  -3  -7  -6  127.16    8.70
   3   7   6  133.43    8.11
  -4   1   5   22.10    1.80
  -4   1   5   26.65    2.63
   1   8   4   96.70    5.94
   1   8   4   93.81    6.41
   2   6   9  143.89    9.58
  -2  -6  -9  138.58    9.38
  -2  -6  -9  135.55    8.91
  -2  -6  -9  133.41    9.06
   2   6   9  143.65    9.04
   2   6   9  147.27    9.48
   4  -5  -4   53.64    4.42
   4  -5  -4   56.94    3.80
   4  -5  -4   52.56    3.69
   1   7   8  107.36    7.23
  -1  -7  -8   90.14    6.83
   1   7   8   98.23    6.51
  -1  -7  -8   93.89    7.12
  -1  -7  -8  107.26    6.71
   5   3   0  392.54   23.68
  -5  -3   0  402.66   24.27
   2   5  -3   18.10    1.53
   2   5  -3   20.17    1.87
  -2  -5   3   18.64    1.91
  -3  -4   3   49.22    3.60
   3   4  -3   58.70    3.96
   3   4  -3   53.20    3.72
  -4   6   1   66.10    4.67
  -4   6   1   75.11    4.62
   4  -6  -1   64.69    4.35
   4  -6  -1   64.46    4.65
   4  -6  -1   71.61    4.43
   4  -6  -1   64.96    4.15
   4  -1   8   19.33    1.84
   4  -1   8   19.87    1.59
   4  -1   8   17.97    2.00
  -4   1  -8   18.12    1.83
  -6   1  -2   -0.11    0.35
   6  -1   2   -0.23    0.27
  -6   1  -2    0.07    0.67
  -6   1  -2    0.64    0.75
   6  -1   2    0.76    0.81
  -5  -4  -7   14.69    1.38
  -5  -4  -7   14.90    1.63
  -5  -4  -7   16.80    1.94
   1   8   5  222.63   14.31
   1   8   5  233.97   13.87
  -6   1  -3  141.77    8.86
   6  -1   3  142.86    8.65
   6  -1   3  131.82    8.64
   5   1  -2   10.63    1.31
  -5  -1   2   12.30    1.16
  -5  -1   2   11.03    1.42
  -5  -1   2   14.80    1.42
   5   1  -2   12.41    1.32
   1   2  -7  299.97   17.96
   1   2  -7  298.26   18.35
  -1  -2   7  314.06   19.22
   1   2  -7  297.41   17.97
   4  -4   5   72.97    4.82
  -4   4  -5   74.88    4.80
  -4   4  -5   69.27    4.90
   4  -4   5   70.62    4.82
   4  -4   5   68.49    4.60
   1  -7  -7    2.83    1.35
   1  -7  -7    5.61    1.11
   1  -7  -7    5.33    1.63
   1  -7  -7    4.43    0.81
   1  -7  -7    4.00    0.41
   1  -7  -7    5.42    1.02
   2   4  10  244.81    5.35
  -2  -4 -10  233.52   14.63
  -2  -4 -10  235.84   14.97
   2   4  10  212.47    1.63
   2   4  10  203.95    5.95
  -3   7   2  169.77   10.42
   3  -7  -2  168.89   10.45
   3  -7  -2  161.78   10.42
   3  -7  -2  155.00   10.80
   3  -7  -2  195.52   10.50
   2  -2  -8   26.98    2.55
   2  -2  -8   22.85    1.76
  -2   2   8   24.21    2.02
   2  -2  -8   22.94    2.02
   2  -2  -8   27.88    1.85
  -2   2   8   23.64    2.83
   4   1   9  122.11    7.60
  -4  -1  -9  125.20    8.20
   4   1   9  130.09    7.89
  -4  -1  -9  122.65    8.09
   4   1   9  107.82    8.16
   4   1   9  131.47    8.28
  -4  -1  -9  125.80    7.76
   2  -7   1  103.45    6.51
  -2   7  -1   90.58    5.64
  -2   7  -1  107.44    5.27
   2  -7   1   97.01    6.28
  -2   7  -1   73.09    4.92
   2  -7   1   93.97    6.08
  -2   7  -1   96.13    5.41
  -4  -6  -3   53.38    3.53
   4   6   3   50.01    3.27
   2  -4  -8  163.40    9.71
   2  -4  -8  168.29    9.71
   2  -4  -8  130.78    9.66
   2  -4  -8  168.99   10.63
  -2   4   8  172.37   10.88
   2  -4  -8  171.07   10.04
  -2   4   8  164.34   10.24
  -2   4   8  154.68   11.04
  -1   8   3   22.37    1.20
  -1   8   3   25.53    1.78
   1  -8  -3   21.66    1.63
   1  -8  -3   23.66    2.24
   1  -8  -3   23.15    2.75
   2  -6  -7   64.46    4.46
   2  -6  -7   54.95    3.43
   2  -6  -7   64.01    4.45
   2  -6  -7   56.60    3.72
   2  -6  -7   57.72    3.83
   2  -6  -7   49.79    3.57
   2  -6  -7   47.60    3.59
   2  -6  -7   55.40    4.70
   1  -3  -9    9.47    0.83
   1  -3  -9    8.50    0.76
   1  -3  -9    8.16    0.73
   1  -3  -9    7.70    1.68
  -1   3   9    9.32    2.04
  -1   3   9    9.31    1.32
   1  -3  -9    9.92    1.22
   1   5  -4   14.96    1.63
  -1  -5   4   10.40    1.49
   1   5  -4   14.51    1.27
  -1  -3 -10   29.40    2.98
   1   3  10   29.57    3.23
  -1  -3 -10   36.34    2.68
   1   3  10   30.47    2.73
  -1  -3 -10   29.71    2.06
  -1  -3 -10   34.14    2.37
   1   3  10   30.14    2.48
   1   3  10   32.41    2.98
   5   2   8   43.87    3.40
  -5  -2  -8   38.63    2.93
   5   2   8   41.86    3.51
  -5  -2  -8   48.87    3.43
  -3  -2   5   34.71    2.72
   3   2  -5   32.67    2.58
  -3  -2   5   35.61    3.00
   3   2  -5   34.16    2.38
   3   2  -5   34.92    2.45
  -5   2  -6  130.32    8.30
   5  -2   6  135.76    9.02
   5  -2   6  142.97    8.81
  -5   2   3  114.24    3.33
  -5   2   3   93.87    3.53
   5  -2  -3   91.79    6.14
   5  -2  -3   92.90    6.03
  -2  -2 -10   44.87    3.18
   2   2  10   44.81    4.04
   2   2  10   45.70    2.93
  -2  -2 -10   45.86    3.38
  -2  -2 -10   42.05    2.87
   2   2  10   46.50    3.71
   2   2  10   47.33    3.70
  -4   6   0   54.42    3.56
  -4   6   0   52.86    3.70
   4  -6   0   49.62    3.41
   4  -6   0   47.45    3.23
   4  -6   0   51.68    3.36
  -3   3  -7   10.37    1.45
   3  -3   7   11.65    1.20
  -3   3  -7   13.80    1.26
   3  -3   7   12.42    1.57
   3  -3   7   11.58    1.48
  -3   3  -7   12.44    1.36
   3  -3   7   12.72    1.28
   1  -2   8    4.19    1.16
   1  -2   8    4.11    0.72
  -1   2  -8    3.69    0.76
   1  -2   8    4.84    0.92
  -4  -4  -9  204.55   13.59
  -4  -4  -9  218.12   13.51
  -4  -4  -9  218.91   13.05
   1  -8  -4   18.28    1.28
   1  -8  -4   17.70    1.35
   1  -8  -4   17.97    1.23
  -1   8   4   18.56    1.47
  -1   8   4   14.96    1.78
   1  -8  -4   19.52    1.91
   0  -8  -2  167.28   10.24
   0   8   2  132.89    8.40
   0   8   2  167.29    8.72
   0  -8  -2  173.37   11.12
   3  -7  -1    0.46    0.56
  -3   7   1   -0.22    0.48
  -3   7   1   -0.37    0.69
   3  -7  -1    0.27    0.58
   3  -7  -1   -0.45    0.56
  -5   4  -3   16.13    1.49
   5  -4   3   15.49    1.55
   5  -4   3   19.33    1.42
   5  -4   3   14.43    1.81
  -5   4  -3   17.93    1.74
   5  -4   3   16.06    1.46
   1   8   3  123.14    7.97
  -1  -8  -3  147.58    6.14
  -1  -8  -3  124.30    4.75
   1   8   3  120.80    7.48
   3   7   3  136.67    8.42
   3   7   3  159.40    9.41
  -3  -7  -3  136.08    8.31
   3   7   3  134.48    8.24
  -6  -1  -2   49.65    3.72
   6   1   2   50.79    3.60
  -6  -1  -2   53.15    3.69
  -6  -1  -2   51.40    3.63
   4  -6  -2  175.00   10.62
  -4   6   2  194.66   11.42
   4  -6  -2  187.36   10.35
  -4   6   2  175.80   11.39
   4  -6  -2  167.20   10.65
   4  -6  -2  172.76   10.31
   4  -6  -2  157.36    9.96
   3   6   0    5.62    1.46
  -3  -6   0    4.75    0.71
   3   6   0    4.20    0.79
   3   6   0    5.06    0.82
  -5   1   3  111.71    6.71
  -5   1   3  100.34    7.23
  -1  -4 -10  182.05   11.98
   1   4  10  199.19   12.54
  -1  -4 -10  183.05   11.52
   1   4  10  188.45   12.12
   1   4  10  179.82   11.76
   1   4  10  186.44   11.89
   1  -5   5  173.01   10.21
  -1   5  -5  170.05   10.58
   1  -5   5  164.89   10.37
   1  -5   5  155.69   10.02
  -1   4   9   39.63    3.03
  -1   4   9   38.41    3.77
   1  -4  -9   39.33    2.62
   1  -4  -9   39.90    2.46
   1  -4  -9   33.13    3.57
   1  -4  -9   39.56    2.93
  -2   5  -5   12.30    1.47
   2  -5   5   11.44    1.42
   2  -5   5    8.40    1.09
   2  -5   5   11.65    1.37
   4  -4  -5  118.38    8.17
   4  -4  -5  141.90    8.23
   4  -4  -5  130.03    8.80
  -4   4   5  139.78    9.30
   5  -4  -2  112.29    7.20
  -5   4   2  106.90    7.06
   5  -4  -2  113.92    7.17
  -5   4   2  111.14    7.01
   5  -4  -2  108.18    7.56
   3  -7  -3  161.45   10.02
   3  -7  -3  160.89    9.62
   3  -7  -3  143.30   10.08
   3  -7  -3  149.81    9.53
   3  -7  -3  155.63    9.56
   3  -7  -3  171.14    9.69
  -3   7   3  177.32   10.90
   6   1   5  107.04    7.12
   6   1   5  107.48    6.79
  -6  -1  -5  100.62    7.18
  -6  -1  -5  113.81    7.10
  -6  -1  -5  116.95    7.33
  -2  -7  -8   58.73    4.93
   2   7   8   67.10    3.27
  -2  -7  -8   62.35    4.52
   2   7   8   58.40    2.23
  -2  -7  -8   59.21    3.65
  -5   1  -7   65.39    4.55
   5  -1   7   72.28    5.04
   5  -1   7   75.97    4.89
   5  -1   7   71.38    5.18
   5   1   8   83.22    6.02
  -5  -1  -8   82.76    5.88
  -5  -1  -8   83.47    5.88
  -5  -1  -8   90.41    5.60
   5   1   8   93.89    5.79
   5   1   8   88.39    6.22
  -6   1  -1  125.05    7.84
  -6   1  -1  122.54    7.90
   6  -1   1  115.95    7.54
   6  -1   1  118.43    7.13
  -6   1  -1  125.21    7.81
   1  -8  -2   78.21    5.11
  -1   8   2   82.70    2.11
  -1   8   2    0.31    0.26
   1  -8  -2   98.56    6.31
  -6   0  -1   81.35    5.63
  -6   0  -1   91.01    5.63
   6   0   1   87.64    5.80
  -6   0  -1   83.17    5.68
   3  -4   6    1.06    0.66
  -3   4  -6    0.29    0.64
  -3   4  -6    0.39    0.76
  -3   4  -6    0.44    0.75
   3  -4   6    0.08    0.79
   3  -4   6    1.17    0.97
  -5  -3  -8   40.79    3.21
  -5  -3  -8   37.14    2.80
  -5  -3  -8   35.07    2.62
   5   3   8   36.23    3.15
   6  -1   4    5.12    1.08
  -6   1  -4    7.44    1.07
   6  -1   4    4.06    0.92
  -4  -6  -7   49.12    3.12
  -4  -6  -7   39.75    3.72
  -3   3   7  207.42   13.65
  -3   3   7  209.80   13.42
   3  -3  -7  212.60   12.54
   3  -3  -7  177.18   11.84
  -3   3   7  208.21   12.71
   3  -3  -7  197.33   11.71
  -3  -3 -10   19.56    1.93
   3   3  10   23.42    2.68
   3   3  10   22.09    2.30
  -3  -3 -10   24.38    2.29
   3   3  10   20.14    1.46
   0  -7  -8   33.00    3.58
   0   7   8   35.71    2.72
   0  -7  -8   36.17    2.88
   0  -7  -8   35.68    2.66
  -3   2  -8  196.39   11.48
   3  -2   8  182.29   11.22
   3  -2   8  189.89   11.52
   3  -2   8  185.92   11.25
   3  -2   8  177.49   11.67
  -3   2  -8  172.07   11.12
   5  -3   5  255.79   14.68
   5  -3   5  228.58   14.74
  -5   3  -5  230.96   14.23
  -5   3  -5  232.33   14.21
   5  -3   5  234.55   14.46
  -1   2   9    7.60    1.92
  -1   2   9    9.30    1.26
   1  -2  -9    9.79    1.23
   1  -2  -9    6.70    0.64
   1  -2  -9    8.60    0.76
  -1   2   9    6.87    1.62
   6   2   4  168.81   10.44
  -6  -2  -4  167.62   10.68
  -6  -2  -4  162.91   10.51
  -6  -2  -4  171.07   10.46
  -1  -2 -10   59.36    3.81
   1   2  10   68.68    4.18
   1   2  10   54.43    4.87
   1   2  10   55.99    3.80
  -1  -2 -10   62.79    4.35
  -1  -2 -10   60.55    4.03
   1   2  10   71.06    4.57
   1   2  10   66.36    4.74
  -1  -8  -6  103.02    6.97
   1   8   6  112.90    7.36
   1   8   6  112.54    6.87
  -6   0  -5   84.86    5.49
  -6   0  -5   81.18    5.54
  -6   0  -5   81.23    5.62
   6   0   5   81.56    5.09
   6   0   5   70.83    4.48
   6   0   5   68.40    4.67
  -5   3   3  239.38   14.16
   5  -3  -3  201.90   13.38
   5  -3  -3  222.35   13.10
   5  -3  -3  212.93   12.96
   5  -3  -3  210.31   13.15
  -5   3   3  215.09   14.32
   0   8   6   61.58    3.89
   0  -8  -6   46.68    3.06
   0  -8  -6   59.70    4.23
   0  -8  -6   52.67    3.72
   0  -8  -6   56.57    3.63
   0   8   6   62.11    4.37
   0  -8  -6   47.08    3.02
   2  -7  -6   46.21    3.25
   2  -7  -6   46.77    3.88
   2  -7  -6   45.60    2.99
   2  -7  -6   42.45    3.12
   2  -7  -6   53.04    3.26
   2  -7  -6   47.04    3.45
   2  -7  -6   57.56    4.25
   0   6   9   30.96    2.65
   0  -6  -9   29.07    3.04
   0  -6  -9   41.54    2.78
   0  -6  -9   21.91    3.13
   3   7   7    0.22    0.39
  -3  -7  -7    0.17    0.39
  -3  -7  -7    0.32    1.07
   3   7   7   -0.53    1.61
   3   7   7    0.09    0.89
   3  -2  -7  171.62   11.17
  -3   2   7  185.83   12.14
  -3   2   7  181.45   11.23
   3  -2  -7  174.97   10.70
   4   5   0   55.46    3.92
   4   5   0   62.18    3.97
  -4  -5   0   65.08    4.28
  -6  -2  -3  195.83   12.12
   6   2   3  202.74   12.50
  -6  -2  -3  190.29   12.19
  -6  -2  -3  204.92   12.22
  -2  -1   7  266.44   16.46
   2   1  -7  258.36   15.94
  -2  -1   7  270.92   16.92
   2   1  -7  275.73   16.19
  -5  -5  -5   36.01    3.39
  -5  -5  -5   46.34    3.02
   5   5   5   38.59    2.63
   1  -8  -5   86.70    6.43
   1  -8  -5   92.34    5.93
   1  -8  -5   83.82    5.36
  -1   8   5   81.53    5.30
  -1   8   5   91.69    5.79
   1  -8  -5   85.09    5.40
   1  -8  -5   95.75    5.38
   1  -8  -5   76.23    5.74
   0   0   9  197.63   11.88
   0   0   9  183.82   11.39
   0   0  -9  181.62   11.22
   0   0  -9  194.88   11.71
   0   4  -6    8.18    1.08
   0  -4   6   11.75    1.28
   0  -4   6    8.81    1.09
   0   4  -6    9.31    1.06
   4  -6   1    1.17    0.79
   4  -6   1    0.64    0.59
   4  -6   1    1.15    0.92
   4  -6   1    2.19    0.61
  -4   6  -1    1.40    0.58
  -4   6  -1    0.93    0.75
  -3  -2 -10    7.63    1.19
   3   2  10    5.92    1.73
   3   2  10    7.11    0.75
   3   2  10    8.51    1.49
   3  -7   0   12.00    1.20
   3  -7   0   10.87    1.03
  -3   7   0   13.77    1.16
  -3   7   0    6.87    0.76
  -3   7   0    9.18    1.16
   3  -7   0   10.65    1.15
   3  -7   0   14.66    1.64
   6   2   5  219.56   13.39
  -6  -2  -5  206.12   12.78
  -6  -2  -5  215.91   12.95
  -6  -2  -5  196.62   12.61
  -6   2  -2  148.90    9.01
   6  -2   2  141.21    8.96
  -6   2  -2  139.49    8.81
   0   3  -7   21.33    1.69
   0  -3   7   19.96    1.60
   0   3  -7   21.44    1.68
   0   3  -7   19.26    2.07
   0  -3   7   21.99    2.03
   0  -3   7   20.94    1.67
   3  -6   3   35.59    3.04
   3  -6   3   42.55    2.84
  -3   6  -3   39.91    2.92
  -3   6  -3   39.73    2.83
   3  -6   3   40.13    2.98
   3   4  10    3.33    1.74
  -3  -4 -10    2.32    1.15
   3   4  10    2.63    0.46
   3   4  10    1.86    1.13
  -3  -4 -10    3.90    1.41
  -5  -5  -4    2.82    0.83
   5   5   4    2.73    0.69
  -5  -5  -4    2.93    1.24
   3   5  -2   26.55    2.50
   3   5  -2   27.94    2.06
   5   4   1  485.94   29.16
  -5  -4  -1  484.01   29.05
   3  -4  -7   79.85    4.82
   3  -4  -7   87.48    5.88
   3  -4  -7   71.51    4.99
   3  -4  -7   70.65    5.02
  -3   4   7   76.03    5.80
  -3   4   7   80.45    5.11
   2   5  10  258.76   16.62
  -2  -5 -10  264.19   16.37
  -2  -5 -10  271.01   16.83
   2   5  10  261.43   16.02
   2   5  10  287.06   16.70
  -2  -5 -10  255.05   16.50
  -2   1  -9   22.60    1.82
   2  -1   9   22.96    1.69
   2  -1   9   21.28    1.58
   2  -1   9   23.16    2.41
   2  -1   9   22.25    1.93
   4  -6  -3   99.37    7.08
  -4   6   3  115.92    7.67
   4  -6  -3  107.09    6.72
   4  -6  -3  113.59    6.81
  -4   6   3  125.18    7.66
   4  -6  -3  113.41    7.07
   4  -6  -3   98.81    6.60
   2  -1  -8    5.18    1.01
  -2   1   8    3.06    0.89
   2  -1  -8    4.84    0.96
  -2   1   8    4.83    1.67
   2  -1  -8    4.79    0.71
  -4   0   5   81.59    5.43
  -4   0   5   69.68    4.77
   4   0  -5   74.59    5.02
   1   8   2   10.36    0.75
  -1  -8  -2   19.49    1.56
  -1  -8  -2   20.97    2.35
   1   8   2   19.94    1.24
   6  -2   1  159.80    9.88
  -6   2  -1  162.78    6.60
  -6   2  -1  154.72    6.93
   6  -2   1  155.79    9.75
  -5  -5  -6    1.63    1.01
  -5  -5  -6   -0.32    1.06
   5   5   6    1.59    0.58
  -5  -5  -6    1.23    0.74
  -6   2  -3    3.82    0.77
   6  -2   3    6.11    1.03
   6  -2   3    5.30    1.18
   2  -5  -8  102.25    6.71
   2  -5  -8  102.73    6.19
   2  -5  -8   97.14    7.17
  -2   5   8  109.60    7.26
   2  -5  -8   84.31    6.14
   2  -5  -8  106.89    6.29
  -2   5   8   99.16    6.59
   5   0  -3  144.90    8.78
   5   0  -3  132.39    8.77
  -5   0   3  148.67    8.94
  -5   0   3  137.60    8.60
  -5   0   3  131.19    9.04
   1   7  -1  277.70   15.97
  -1  -7   1  267.89   15.87
  -1  -7   1  247.06   15.33
   1   7  -1  247.26   15.56
  -6  -1  -1    0.50    0.79
  -6  -1  -1    1.16    0.99
   6   1   1    0.65    0.82
  -6  -1  -1    0.52    0.85
  -6  -1  -1    0.92    0.85
  -1  -5 -10  250.81   16.41
   1   5  10  249.54    5.31
   1   5  10  254.47    5.37
  -1  -5 -10  258.28   15.83
   4   6   2   -0.11    0.59
  -4  -6  -2    1.26    0.73
   4   6   2    0.79    0.71
   3  -7  -4   54.42    3.86
   3  -7  -4   58.44    4.16
   3  -7  -4   57.23    3.73
   3  -7  -4   57.76    3.73
   3  -7  -4   51.25    4.30
   3  -7  -4   59.74    3.75
  -3  -6  -9  160.77   10.04
   3   6   9  143.35    9.72
   3   6   9  149.95    9.23
  -3  -6  -9  165.62   10.03
  -3  -6  -9  155.42   10.23
  -3  -6  -9  146.75    9.17
   2   1  10   93.87    5.79
   2   1  10   90.57    6.43
   2   1  10   89.80    6.77
  -2  -1 -10   90.06    5.84
   2   1  10   99.02    6.54
  -2  -1 -10   84.56    5.34
  -2  -1 -10   81.30    5.54
   1  -5  -9  104.50    6.34
   1  -5  -9   99.07    6.03
   1  -5  -9  109.59    6.59
  -1   5   9  114.06    7.45
  -3  -1   6   15.86    1.58
   3   1  -6   17.52    1.43
  -3  -1   6   15.20    1.99
   3   1  -6   14.12    1.59
   2   8   5  174.34   10.61
   2   8   5  173.50   11.71
   2   8   5  180.69   11.17
   0  -8  -1   68.15    5.00
   0   8   1   73.41    1.92
   0   8   1   -0.18    0.18
   0  -8  -1   64.31    4.19
   1  -8  -1  117.02    7.20
  -1   8   1  119.65    7.75
  -1   8   1  126.51    7.57
   1  -8  -1  134.39    8.32
   1  -8  -1  105.63    7.58
  -3  -7  -2   84.00    5.26
   3   7   2   82.33    5.45
   3   7   2   89.59    6.34
   3   7   2   88.36    5.36
   1  -7   2   31.39    2.45
   1  -7   2   23.89    2.02
   1  -7   2   28.57    2.36
  -1   7  -2   25.34    2.43
  -1   7  -2   27.59    1.92
   1  -7   2   32.01    2.85
  -1   7  -2   28.06    2.09
   4   0   9   50.36    3.95
   4   0   9   48.53    3.58
  -4   0  -9   48.24    3.31
   4   0   9   50.17    3.35
  -4   0  -9   48.16    3.63
   4   0   9   52.56    3.98
  -6   1   0  119.86    7.85
  -6   1   0  125.30    7.70
   6  -1   0  116.98    7.55
  -6  -2  -2  141.11    9.17
  -6  -2  -2  151.52    9.01
  -6  -2  -2  133.29    8.95
   6   2   2  157.88    9.91
  -6  -2  -2  145.42    9.05
   1   1  -8  300.54   17.02
  -1  -1   8  286.93    5.00
  -1  -1   8  280.99    6.33
   1   1  -8  266.85   17.05
   1   1  -8  278.93   17.47
  -6  -1  -6  106.59    6.76
  -6  -1  -6  101.01    6.91
   6   1   6   99.90    6.74
  -6  -1  -6  104.12    6.96
   6   1   6   99.72    6.30
   0  -5   5   62.92    4.42
   0   5  -5   66.02    4.49
   0  -5   5   77.29    4.77
   2   8   4   16.07    2.40
   2   8   4   12.73    1.13
   2   8   4   13.97    1.69
  -5   5   0   52.13    3.65
   5  -5   0   49.25    3.43
   5  -5   0   57.36    3.49
   5  -5   0   46.42    3.29
   5  -5   0   42.24    2.98
  -5   5   0   50.49    3.52
  -5   0  -8   18.79    1.96
  -5   0  -8   20.31    1.81
  -5   0  -8   20.33    2.07
   5   0   8   21.13    1.82
   5   0   8   20.16    2.27
   5   0   8   20.16    2.02
   4  -5   4   86.15    5.72
  -4   5  -4   85.57    5.58
   4  -5   4   87.30    5.83
   2   7   0  435.98   26.85
   2   7   0  476.22   27.27
   2   6  -2   28.46    2.02
   2   6  -2   28.37    2.13
   2   6  -2   28.59    2.52
   6  -1   5   75.32    5.07
  -6   1  -5   72.87    4.93
   6  -1   5   71.59    4.76
   3  -5   5   42.12    3.12
   3  -5   5   41.55    3.16
  -3   5  -5   42.22    3.22
  -3   5  -5   41.63    2.92
   3  -6  -6  384.90   22.34
   3  -6  -6  313.06   22.47
   3  -6  -6  348.14   21.63
   3  -6  -6  352.23   21.42
   3  -6  -6  379.67   21.75
   3  -6  -6  388.23   21.94
  -5  -4  -8   74.68    5.07
  -5  -4  -8   78.36    5.35
  -5  -4  -8   83.34    5.39
  -5  -4  -8   85.44    5.73
   5   4   8   80.72    5.80
   1  -1   9    0.27    0.67
   1  -1   9   -0.75    1.01
   1  -1   9    0.86    1.35
   1  -1   9    0.05    0.55
  -1   1  -9   -0.11    0.54
  -1   1  -9    0.25    0.86
   5   5   3  106.43    6.73
  -5  -5  -3   98.18    6.26
   1   6  -3  289.63   18.08
   1   6  -3  331.66   18.43
   1   6  -3  294.55   17.93
  -4  -5  -9   54.19    4.25
  -4  -5  -9   48.81    4.00
  -4  -5  -9   54.51    3.47
  -4  -3   3   63.67    4.09
   4   3  -3   46.95    3.63
  -4  -3   3   53.54    4.07
   4   3  -3   58.36    3.72
   3  -1  -7    2.06    0.87
  -3   1   7    1.84    0.69
  -3   1   7    1.92    1.54
   0   3  10  136.65    9.14
   0  -3 -10  121.13    7.60
   0   3  10  148.30    9.55
   0  -3 -10  138.81    7.81
   0  -3 -10  122.85    8.10
   5  -5   1   20.91    1.81
   5  -5   1   21.23    1.88
  -5   5  -1   20.08    1.68
  -5   5  -1   18.04    1.80
   5  -5   1   20.00    1.62
   5  -5   1   21.65    1.96
   3  -1   9  115.14    6.99
   3  -1   9  118.46    7.67
   3  -1   9  107.34    7.00
   3  -1   9  109.07    7.51
  -3   1  -9  110.61    7.26
  -3   1  -9  108.58    6.91
   3  -1   9  119.34    7.31
   6   0   0   55.88    3.96
  -6   0   0   53.05    3.76
  -6   0   0   57.53    3.96
  -6   0   0   52.69    3.79
   6   2   6  103.73    6.41
  -6  -2  -6   97.83    6.81
  -6  -2  -6   99.30    6.71
  -6  -2  -6  105.26    6.58
   6   2   6   97.56    6.87
   5  -4   4  214.50   12.94
   5  -4   4  210.12   13.14
  -5   4  -4  215.60   13.36
  -5   4  -4  219.89   13.43
  -2  -8  -6  140.37    9.24
   2   8   6  135.19    8.33
   2   8   6  146.13    8.93
   1  -1  -9   99.88    6.03
  -1   1   9   90.55    6.31
   1  -1  -9   84.80    5.52
  -1   1   9  105.34    7.14
   0  -2   8   86.89    5.69
   0   2  -8   93.54    5.81
   0   2  -8   94.80    6.28
   0  -2   8   89.44    5.72
   0   2  -8   89.84    5.72
   0  -2   8   98.69    6.16
  -1  -8  -7  178.65   11.02
   1   8   7  275.39    6.63
   1   8   7  253.19    4.56
  -1  -8  -7  266.45   12.17
   0   4  10    5.76    1.23
   0  -4 -10    5.19    0.48
   0  -4 -10    4.32    0.99
   0   4  10    5.22    1.48
   5  -5  -1  128.67    7.76
  -5   5   1  115.05    7.17
   5  -5  -1  112.00    7.73
  -5   5   1  110.21    7.23
   5  -5  -1  118.76    7.61
  -2   8   3   -0.26    0.64
   2  -8  -3   -0.05    0.50
   2  -8  -3    0.93    1.01
  -2   8   3   -0.10    0.57
   2  -8  -3    0.04    0.41
   1   1  10  108.89    7.55
  -1  -1 -10   98.58    6.41
   1   1  10   99.87    6.33
   1   1  10  109.04    6.97
  -1  -1 -10  121.40    7.02
   1  -6   4   21.04    1.89
  -1   6  -4   21.59    2.05
   1  -6   4   18.67    1.99
   3   1  10   36.08    3.07
   3   1  10   35.04    2.43
  -3  -1 -10   34.06    2.72
   3   1  10   40.40    3.50
  -6   2   0   42.49    3.12
  -6   2   0   40.58    2.69
  -6   2   0   40.36    3.06
   6  -2   0   39.66    2.83
   6  -2   0   36.18    2.73
  -4  -6  -8   29.32    2.83
  -4  -6  -8   29.13    2.06
  -6   2  -4    1.99    0.74
   6  -2   4    2.76    1.02
   6  -2   4    2.13    0.95
   6   0   6  194.34   11.37
  -6   0  -6  193.12   11.90
   6   0   6  182.84   11.75
   6   0   6  178.16   11.33
  -6   0  -6  190.68   11.77
  -6   0  -6  184.21   11.97
   5  -4  -3   62.40    4.94
   5  -4  -3   68.02    4.42
   5  -4  -3   63.25    4.51
  -5   4   3   63.41    5.06
   5  -4  -3   67.36    4.42
  -5   4   3   77.51    4.92
   2  -8  -2    6.89    0.88
  -2   8   2    6.07    0.81
   2  -8  -2    6.31    0.64
  -2   8   2    4.82    1.33
  -2   8   2    5.75    0.95
   1  -8  -6    5.52    0.72
  -1   8   6    5.12    1.20
   1  -8  -6    4.92    1.05
   1  -8  -6    5.50    1.48
   1  -8  -6    4.84    1.13
   1  -8  -6    4.77    1.56
   1  -8  -6    4.54    0.69
   1  -8  -6    4.03    0.56
   4  -5  -5  169.60   10.41
   4  -5  -5  179.65   11.19
  -4   5   5  194.16   12.50
   4  -5  -5  159.05   10.30
   4   2  -4    2.45    0.89
  -4  -2   4    2.99    1.05
  -4  -2   4    2.41    0.84
   2  -7   2  168.81   10.91
  -2   7  -2  159.64   10.90
   2  -7   2  186.46   11.11
   2  -7   2  172.76   10.70
  -2   7  -2  165.31   10.70
  -2   7  -2  187.19   10.61
  -6  -3  -4  301.83   18.24
  -6  -3  -4  296.32   18.55
   6   3   4  298.55   18.09
  -5  -5  -7   16.25    2.06
  -5  -5  -7   20.90    1.66
  -5  -5  -7   17.96    2.02
  -2   6  -4   69.04    4.99
   2  -6   4   80.49    5.41
  -2   6  -4   76.36    4.73
   2  -6   4   77.82    5.37
   4  -6   2   28.19    2.13
   4  -6   2   26.05    1.93
  -4   6  -2   30.96    2.35
   4  -6   2   24.78    2.06
  -4   6  -2   28.95    2.11
   4  -6   2   26.29    2.38
  -4  -4   2  188.00   11.61
   4   4  -2  162.22   10.54
   4   4  -2  177.57   10.52
   0  -7   2  189.61   12.01
   0  -7   2  195.09   12.37
   0  -7   2  221.37   12.70
   0   7  -2  207.69    9.30
   0   7  -2  211.26    9.70
   3   5  10  140.11    8.45
  -3  -5 -10  147.61    9.53
  -3  -5 -10  144.93    9.72
   3   5  10  147.14    9.40
  -3  -5 -10  141.68    9.48
  -5  -2   2   23.96    2.12
   5   2  -2   19.54    1.89
  -5  -2   2   24.11    2.10
   5   2  -2   24.47    1.96
   3  -7   1   13.72    1.70
   3  -7   1   15.51    1.43
  -3   7  -1   17.77    1.34
  -3   7  -1   20.70    1.23
   3  -7   1   17.67    1.53
   0  -8  -7   82.94    5.22
   0  -8  -7   92.96    6.37
   0   8   7   87.22    5.86
   0  -8  -7   89.28    5.74
   0  -8  -7   92.60    5.33
   0  -8  -7   76.29    5.82
   6   3   5  160.31    9.90
  -6  -3  -5  166.62   10.07
  -6  -3  -5  151.72   10.36
   2   8   3    9.98    2.14
   2   8   3    7.40    0.88
  -2  -8  -3    6.75    0.66
  -5  -3   1   83.88    5.54
   5   3  -1   77.36    5.14
  -3  -7  -8   70.94    5.22
  -3  -7  -8   72.32    5.49
   3   7   8   70.34    4.40
  -3  -7  -8   70.26    4.36
   3   7   8   71.83    4.86
   3   7   8   79.81    5.59
   2  -8  -4    0.79    0.53
   2  -8  -4    0.61    0.47
   2  -8  -4   -0.34    0.48
   2  -8  -4   -0.58    0.97
  -3   5   7   -0.18    0.38
  -3   5   7   53.32    2.95
   3  -5  -7   55.50    3.55
   3  -5  -7   44.17    3.36
   3  -5  -7   47.45    3.09
   3  -5  -7   50.85    4.20
   3  -5  -7   44.27    3.29
   1   7   9   50.32    3.65
  -1  -7  -9   48.90    4.56
  -1  -7  -9   52.19    3.96
   1   7   9   58.35    4.46
  -1  -7  -9   52.51    4.27
  -4   3  -7   42.10    3.22
   4  -3   7   46.68    3.26
   4  -3   7   51.33    3.69
   4  -3   7   47.34    3.58
  -4   3  -7   43.92    3.15
   4  -3   7   45.86    3.39
  -4   3  -7   50.49    3.47
   0  -2 -10  102.06    6.16
   0   2  10  101.12    6.77
   0  -2 -10  102.22    6.57
   0   2  10  100.30    7.12
   0  -2 -10   95.09    6.03
  -5   5  -2    9.38    1.02
   5  -5   2    9.09    1.08
  -5   5  -2    7.54    1.02
   5  -5   2    8.41    1.03
  -5   5  -2    7.71    1.21
   5  -5   2    8.24    1.14
   5  -5   2    9.93    1.28
   1  -7  -8   22.68    1.88
   1  -7  -8   18.47    1.25
   1  -7  -8   20.43    1.86
   1  -7  -8   24.25    1.75
   1  -7  -8   25.51    2.56
   4  -6  -4  107.68    6.62
   4  -6  -4   98.93    6.31
   4  -6  -4  110.07    6.81
   4  -6  -4   98.37    6.24
   4  -6  -4   86.02    6.15
   6   3   3  286.22   17.42
  -6  -3  -3  267.79   16.55
  -6  -3  -3  286.97   16.67
  -6  -3  -3  259.30   16.89
  -1  -8  -1   26.59    2.03
  -1  -8  -1   29.38    2.75
   1   8   1   27.25    1.25
   1   8   1   26.15    1.94
  -4  -3 -10  539.58   30.51
   4   3  10  490.97   30.15
   4   3  10  491.47   29.26
  -4  -3 -10  487.91   30.10
  -4   2  -8    5.53    1.08
   4  -2   8    5.16    1.23
   4  -2   8    6.83    1.38
  -4   2  -8    4.74    0.86
   4  -2   8    5.57    0.95
   4  -2   8    6.36    1.05
  -6   3  -2   29.85    2.15
   6  -3   2   29.55    2.46
  -6   3  -2   33.37    2.42
  -6   3  -2   28.65    2.50
   6  -3   2   32.91    2.35
   6  -3   2   31.73    2.62
   6  -3   1   26.18    2.12
  -6   3  -1   23.85    1.69
  -6   3  -1   23.18    2.18
  -6   3  -1   26.46    2.08
   6  -3   1   22.10    2.13
  -2  -7  -9  132.78    9.61
  -2  -7  -9  141.74    9.40
  -2  -7  -9  141.35    9.21
   2   7   9  157.05    9.89
   2   7   9  140.69    9.17
   4  -3  -6   84.18    6.02
  -4   3   6  104.25    3.89
  -4   3   6   -0.09    0.30
   4  -3  -6   92.77    5.60
   4  -3  -6  111.74    6.66
   4  -3  -6   88.98    6.01
   5  -5  -2  138.05    8.75
  -5   5   2  139.99    9.05
  -5   5   2  145.03    8.99
   0   5  10   37.36    3.27
   0  -5 -10   30.47    2.52
   0   5  10   30.42    2.76
   3  -7  -5  234.48   13.95
   3  -7  -5  228.05   14.68
   3  -7  -5  228.52   14.36
   3  -7  -5  232.07   13.95
   3  -7  -5  215.86   13.98
   3  -7  -5  247.80   14.13
  -2   8   1  164.98    9.96
  -2   8   1  156.79    9.77
   2  -8  -1  152.02    9.30
   2  -8  -1  150.92    9.48
  -4   2   6  250.18   14.99
   4  -2  -6  227.25   14.28
  -4   2   6  225.84   14.00
   2   8   7  106.70    6.49
   2   8   7   91.31    5.83
   2   8   7  113.34    7.17
  -2  -8  -7  102.73    7.06
  -6  -2  -1   57.11    3.80
  -6  -2  -1   61.50    4.17
  -6  -2  -1   59.84    4.09
   6   2   1   67.96    4.65
  -6  -2  -1   61.42    4.35
  -6  -2  -1   67.46    4.33
   5  -2   7  171.83   10.92
   5  -2   7  168.60   10.44
   5  -2   7  180.07   10.75
   5  -2   7  177.94   11.07
  -5   2  -7  168.74   10.64
  -5   2   4  109.59    3.73
   5  -2  -4  116.63    7.64
  -5   2   4  115.10    3.29
  -6  -3  -6   84.58    5.89
  -6  -3  -6   79.45    5.63
  -6  -3  -6   86.12    5.51
   6   3   6   80.41    5.14
  -6  -1   0  139.78    8.74
   6   1   0  137.87    8.77
  -6  -1   0  130.37    8.74
  -6  -1   0  141.28    8.65
   3   6  -1   24.60    1.91
  -3  -6   1   22.15    1.72
   3   6  -1   24.21    2.49
   5   2   9  316.01   18.63
   5   2   9  304.17   19.19
  -5  -2  -9  300.29   18.37
   5   2   9  295.73   19.06
  -5  -2  -9  312.93   18.72
  -5  -2  -9  300.47   18.79
   4   2  10   84.84    6.19
  -4  -2 -10   87.04    5.45
  -4  -2 -10   79.25    5.88
  -4  -2 -10   87.43    5.81
   4   2  10   84.67    5.32
   5   1  -3  175.77   11.61
  -5  -1   3  210.00   12.39
  -5  -1   3  232.35   12.86
   5   1  -3  198.65   11.64
  -5  -1   3  195.05   12.56
  -5  -1   3  182.52   12.81
   2   4  -5  132.73    8.21
   2   4  -5  129.90    8.17
  -2  -4   5  130.93    8.51
  -4   4  -6   34.91    2.75
  -4   4  -6   36.79    2.89
   4  -4   6   34.57    3.06
  -4   4  -6   37.11    2.70
   4  -4   6   37.33    3.05
   4  -4   6   39.73    2.76
   4  -4   6   40.77    2.95
   5   5   2  279.67   16.98
  -5  -5  -2  267.54   16.27
  -2  -6 -10   56.42    4.20
  -2  -6 -10   53.57    4.54
   2   6  10   48.02    3.40
  -2  -6 -10   52.47    4.35
   2   6  10   55.02    4.07
   2   6  10   49.93    4.06
   1  -8   0  241.48   14.75
   1  -8   0  241.00   15.02
  -1   8   0  241.28   14.51
   1  -8   0  276.40   15.82
  -1   8   0  242.49   15.04
  -1   8   0  240.78   14.69
   1  -8   0  235.69   15.16
   5  -3   6  161.99   10.54
  -5   3  -6  192.00   11.33
  -5   3  -6  171.47   11.34
   5  -3   6  135.58   10.50
   2  -7  -7  223.85   13.92
   2  -7  -7  212.96   13.69
   2  -7  -7  229.81   13.78
   2  -7  -7  237.55   14.51
   2  -7  -7  253.52   14.69
   2  -7  -7  237.03   13.79
   2  -7  -7  229.83   14.90
   2  -7  -7  218.92   13.49
  -1  -6 -10   27.73    2.90
   1   6  10   27.85    2.56
  -1  -6 -10   26.78    3.13
   1   6  10   26.16    2.72
   1   6  10   26.08    2.02
  -1  -6 -10   29.89    2.59
  -5  -3  -9  240.01   14.46
   5   3   9  214.46   13.77
   5   3   9  216.69   13.66
  -5  -3  -9  231.82   14.06
  -5  -3  -9  221.86   13.87
  -5  -3  -9  224.89   14.21
   0   6  -4  206.95   13.05
   0   6  -4  211.89   12.71
   0  -6   4  219.15   13.19
   0  -6   4  200.71   13.11
   2   0  -8    2.31    0.93
  -2   0   8    1.60    1.43
   2   0  -8    1.52    0.61
  -2   0   8    1.61    0.86
   2   0  -8    1.47    0.88
   2   3  -6   99.44    6.67
   2   3  -6  116.16    6.84
  -2  -3   6  104.89    6.94
   4   6   1    3.20    0.79
  -4  -6  -1    2.23    0.83
   4   6   1    2.77    1.45
   4   6   1    2.76    0.76
  -5  -4   0  170.22   10.59
   5   4   0  162.58   10.14
   1  -6  -9   85.97    4.64
   1  -6  -9   89.82    5.13
   1  -6  -9   66.83    3.95
   1  -6  -9   84.22    4.49
  -1   6   9   96.15    6.41
   1  -6  -9   61.22    3.94
   2  -6  -8  223.04   15.39
   2  -6  -8  324.36   16.35
   2  -6  -8  270.95   15.61
  -2   6   8  293.29   17.85
   2  -6  -8  288.04   16.77
   2  -6  -8  259.74   15.45
   2  -6  -8  241.64   15.50
  -6   1   1  172.06    9.74
   6  -1  -1  142.95    9.10
  -6   1   1  138.50    9.88
  -5   3   4   67.10    4.50
   5  -3  -4   57.63    4.27
   5  -3  -4   64.56    4.67
   5  -3  -4   60.01    4.26
   5  -3  -4   63.66    4.00
  -5   3   4   57.85    4.70
   0   8   0    0.35    1.09
   0   8   0    0.45    0.59
   0  -8   0    1.52    1.40
   0   8   0    0.43    0.44
   0  -8   0    0.95    0.72
   2  -8  -5   35.79    3.36
   2  -8  -5   42.18    2.90
   2  -8  -5   39.59    2.60
   2  -8  -5   34.56    2.63
   2  -8  -5   39.06    3.15
   2  -8  -5   46.15    3.96
   2  -8  -5   43.16    2.74
  -6   3  -3    0.06    0.61
  -6   3  -3    0.29    0.89
   6  -3   3    0.22    0.97
   6  -3   3   -0.55    0.76
   6  -3   3   -0.16    0.78
  -4  -4 -10  143.50    9.38
  -4  -4 -10  142.52    8.77
  -4  -4 -10  142.91    9.27
   4   4  10  143.98    8.76
   4   4  10  142.48    9.70
  -6  -1  -7   82.54    5.27
   6   1   7   82.31    5.89
  -6  -1  -7   79.12    5.50
  -6  -1  -7   73.95    5.46
   6   1   7   83.82    5.36
   6   1   7   85.44    5.51
   3   7   1   12.54    1.11
  -3  -7  -1   11.87    1.06
   3   7   1    9.59    1.98
   3   7   1   10.71    1.14
   6   2   7   98.98    6.59
  -6  -2  -7   87.74    6.09
  -6  -2  -7   96.30    6.36
  -6  -2  -7  102.14    6.56
   6   2   7   93.05    5.96
  -6  -2  -7   94.79    5.90
   4   1  -5   20.92    1.96
  -4  -1   5   23.98    2.50
  -4  -1   5   24.85    2.06
  -6   3   0   87.91    5.44
   6  -3   0  104.39    6.47
   6  -3   0   95.50    6.51
  -6   3   0   90.75    5.97
  -6   3   0   97.11    5.95
   6  -3   0   95.96    6.43
  -5   1   4   59.81    3.97
  -5   1   4   64.85    4.70
  -2   0 -10   59.61    3.92
   2   0  10   58.71    3.92
   2   0  10   69.27    4.57
   2   0  10   59.10    4.79
   6  -1   6   97.88    6.06
  -6   1  -6   94.62    6.27
   6  -1   6  101.69    6.38
   6  -1   6   83.87    6.38
   4   7   5   66.63    4.24
   4   7   5   63.64    4.01
   4   7   5   75.23    5.22
  -6   2   1   57.57    4.27
  -6   2   1   63.56    4.43
  -6   2   1   62.87    3.91
   6  -2  -1   59.83    4.09
  -2   4  -7  111.37    7.39
  -2   4  -7  110.00    7.03
   2  -4   7  124.69    8.08
   2  -4   7  123.63    7.70
   2  -4   7  122.94    7.86
   4   5  -1  138.95    9.24
   4   5  -1  148.82    9.26
  -4  -5   1  152.98    9.50
   4   5  -1  168.78    9.74
   0  -7  -9    9.28    1.32
   0   7   9    8.78    1.16
   0  -7  -9    8.77    2.15
   0  -7  -9    6.53    1.78
   4  -4  -6  206.59   12.71
  -4   4   6  227.48    7.72
   4  -4  -6  195.72   12.01
  -4   4   6   77.54    5.39
   4  -4  -6  186.33   12.03
   6  -2   5   33.76    2.78
   6  -2   5   28.40    2.74
  -6   2  -5   32.70    2.52
   6  -2   5   42.41    2.95
   5  -1   8    3.29    1.09
   5  -1   8    3.75    0.96
   5  -1   8    5.62    0.73
   5  -1   8    2.18    1.27
  -5   1  -8    6.10    1.19
   5  -1   8    5.62    1.22
   2  -3   8   81.54    5.23
  -2   3  -8   83.22    5.47
   2  -3   8   75.15    5.54
  -2   3  -8   87.00    5.86
   2  -3   8   80.73    5.20
   2  -3   8   86.01    5.49
   2   8   2   63.22    3.76
   2   8   2   74.51    4.96
   2   8   2   53.03    3.47
  -2  -8  -2   51.48    3.20
  -4  -7  -6  186.50   11.27
  -3   0   7    3.80    0.93
  -3   0   7    2.07    1.43
   3   0  -7    0.53    0.81
   3   0  -7    1.94    0.74
  -5  -1  -9    0.65    0.77
  -5  -1  -9    0.25    0.98
  -5  -1  -9    2.56    1.11
   5   1   9    3.00    1.37
   5   1   9   -0.28    1.26
   5   1   9    0.89    0.73
   1   4  -6   32.60    2.40
   1   4  -6   31.02    2.31
   1   4  -6   30.14    2.45
  -1  -4   6   30.34    2.56
  -1  -4   6   27.81    2.23
   0   1  -9  251.11   15.46
   0  -1   9  289.34   16.89
   0   1  -9  267.17   15.65
   0   1  -9  279.28   16.16
   0  -1   9  276.51   17.30
   0  -1   9  272.71   16.89
  -6  -3  -2  112.43    7.49
  -6  -3  -2  137.62    7.96
  -6  -3  -2  134.00    8.26
  -6  -3  -2  146.54    8.06
   6   3   2  146.49    9.26
  -2  -5   4   -0.25    0.96
   2   5  -4    0.19    0.92
   2   5  -4   -0.31    0.70
  -5  -5  -8   34.65    3.08
  -5  -5  -8   39.15    2.65
  -5  -5  -8   35.81    3.24
   3  -6   4   65.39    4.47
   3  -6   4   62.91    4.51
  -3   6  -4   60.58    4.25
  -3   6  -4   62.64    4.13
   4  -1  -6   66.21    4.53
  -4   1   6   71.89    4.54
  -4   1   6   60.38    5.20
   3   3  -5   74.32    4.61
  -3  -3   5   65.82    4.63
   3   3  -5   67.08    4.69
   3   3  -5   69.60    4.61
   1   8   8   60.14    3.01
   1   8   8   64.81    4.00
  -1  -8  -8   60.31    4.51
   3   4  -4  311.64   18.70
  -3  -4   4  314.53   19.31
   3   4  -4  334.49   18.84
   3   4  -4  289.04   18.63
   6   0  -1  121.86    7.86
  -6   0   1  121.37    7.72
   4   7   4   19.16    2.44
   4   7   4   15.42    1.32
   4   7   4   13.38    1.10
   4  -1   9    2.15    0.68
   4  -1   9    4.15    1.20
  -4   1  -9    2.62    0.99
   4  -1   9    4.33    1.11
   4  -1   9    5.61    1.38
  -1   4  -7    6.53    1.39
   1  -4   7    7.98    0.98
  -1   4  -7    8.49    1.07
  -1   4  -7    8.37    1.10
  -1  -3   7  152.48    9.80
   1   3  -7  151.83    9.31
   1   3  -7  138.87    9.15
   1   3  -7  157.53    9.25
   3   0  10    0.91    1.06
   3   0  10    2.11    1.38
   3   0  10    1.32    0.48
  -3   0 -10    1.12    0.68
   3   0  10    0.44    0.57
  -1   8   7   29.05    2.51
   1  -8  -7   30.90    2.49
   1  -8  -7   30.87    2.48
   1  -8  -7   29.23    2.97
   1  -8  -7   31.81    2.96
   1  -8  -7   27.41    1.82
   1  -8  -7   30.92    2.08
   1  -8  -7   24.13    1.99
   0   1  10  174.69   11.14
   0  -1 -10  179.78   10.65
   0  -1 -10  162.12   10.11
   5  -5   3    2.88    1.00
   5  -5   3    1.86    0.77
  -5   5  -3    2.75    1.03
   5  -5   3    1.84    0.71
  -5   5  -3    2.78    0.81
   5  -5   3    2.92    1.09
  -4  -1 -10   96.84    6.80
  -4  -1 -10  103.54    6.77
   4   1  10   98.44    6.31
   4   1  10   89.81    5.86
   4   1  10   99.48    6.63
   4   1  10   93.76    6.68
  -4  -1 -10  101.89    6.40
   1   0  -9  172.50   10.40
   1   0  -9  169.19   10.52
   1   0  -9  184.67   11.01
  -1   0   9  182.30   11.91
  -1   0   9  175.81   11.25
  -5  -4  -9   84.24    5.66
  -5  -4  -9   95.83    6.04
   5   4   9   84.66    6.10
  -5  -4  -9   86.22    5.99
  -5  -4  -9   96.49    6.37
   5  -4   5  137.60    9.15
   5  -4   5  150.11    9.10
  -5   4  -5  149.24    9.33
  -5   4  -5  146.30    9.33
  -2  -2   7  126.18    8.40
   2   2  -7  134.80    8.20
   2   2  -7  124.05    7.96
  -2  -2   7  135.73    8.84
  -4   6  -3   88.86    5.79
   4  -6   3   79.72    5.64
   4  -6   3   84.26    5.37
   4  -6   3   82.57    5.44
   6   0   7  109.87    7.52
  -6   0  -7  108.39    6.83
   6   0   7  112.68    7.01
   6   0   7  128.39    7.38
  -6   0  -7   94.02    7.00
   6   0   7  100.36    7.16
  -6   0  -7  111.46    7.02
   1  -3   8    0.06    0.62
  -1   3  -8   -0.19    0.69
   1  -3   8    0.51    0.79
   2  -8   0   65.51    4.39
   2  -8   0   60.58    4.16
  -2   8   0   68.63    4.35
  -2   8   0   61.17    4.74
   2  -8   0   69.93    4.68
  -2   8   0   68.61    4.53
   3  -7   2   19.27    1.59
   3  -7   2   16.41    1.66
  -3   7  -2   18.91    1.43
  -3   7  -2   11.14    1.02
   3  -7   2   15.99    1.86
  -3   7  -2   18.36    1.56
  -1   0 -10  185.87   11.47
   1   0  10  203.03   12.76
   1   0  10  205.45   12.31
   1   0  10  186.52   11.69
  -1   0 -10  196.15   11.98
   6   3   7   24.38    1.83
  -6  -3  -7   21.06    2.36
  -6  -3  -7   23.82    2.23
  -6  -3  -7   26.25    2.10
  -4  -6  -9   69.41    5.19
  -4  -6  -9   70.49    4.53
  -4  -6  -9   78.21    5.47
   2  -3  -9   95.49    5.87
  -2   3   9   89.61    6.07
   2  -3  -9   93.09    6.17
   2  -3  -9   98.08    6.81
  -2   3   9  101.02    7.16
   1   5  -5    4.25    1.15
  -1  -5   5    6.11    0.95
   1   5  -5    6.27    0.91
  -1  -5   5    5.26    1.24
   1   5  -5    4.29    0.86
   2   3  11  312.30   17.33
  -2  -3 -11  300.03   18.89
   2   3  11  301.07   17.80
  -2  -3 -11  317.08   18.65
  -2  -3 -11  295.09   19.09
   2   3  11  331.94   17.51
   2   3  11  258.88   16.35
  -2   5  -6    7.94    1.36
   2  -5   6   10.52    1.37
   2  -5   6    8.83    1.08
   2  -5   6   10.02    1.42
  -2   5  -6    9.05    1.17
   1   7  -2  210.41   11.79
  -1  -7   2  205.32   12.41
  -1  -7   2  197.79   12.74
   1   7  -2  180.26   11.47
   1   7  -2  217.18   12.18
  -4  -7  -7  168.50   10.22
   3   6  10  141.12    8.98
   3   6  10  139.97    8.94
  -3  -6 -10  138.61    9.15
  -3  -6 -10  139.96    8.28
  -3  -6 -10  127.08    9.25
   3   6  10  128.92    7.91
   3   6  10  137.79    8.31
  -3  -6 -10  125.08    8.98
   5  -5  -3   67.30    4.76
  -5   5   3   71.05    5.07
  -5   5   3   76.03    5.02
   5  -5  -3   71.97    4.67
   5  -5  -3   70.70    5.35
   2   4  11  260.42   15.54
   2   4  11  258.50   15.45
   2   4  11  239.48   14.50
  -2  -4 -11  263.92   15.98
   2   4  11  280.66   16.07
   2   4  11  237.23   14.47
   2   4  11  274.60   15.30
  -2  -4 -11  245.21   16.24
   4  -7  -1   50.75    3.33
   4  -7  -1   45.50    3.12
  -4   7   1   47.83    3.60
   4  -7  -1   49.15    3.27
  -4   7   1   56.70    3.55
   4  -7  -1   42.66    3.52
   3   8   5   30.56    2.55
   3   8   5   32.50    3.18
   3   8   5   25.96    1.95
   2   7  -1  150.48    9.53
   2   7  -1  161.26    9.92
  -3   3  -8   38.95    2.85
   3  -3   8   43.01    3.15
   3  -3   8   39.13    2.78
   3  -3   8   36.08    3.15
   3  -3   8   39.87    2.85
  -3   3  -8   36.68    3.07
  -2   4   9  263.56   16.13
  -2   4   9  233.23   15.02
   2  -4  -9  288.79   15.67
   2  -4  -9  315.76   16.03
   2  -4  -9  248.79   16.52
   2  -4  -9  206.04   15.62
   2  -4  -9  257.69   15.74
  -2   4   9  254.54   15.77
   2  -4  -9  257.54   15.43
   0   8   8    6.35    1.22
   0  -8  -8    5.98    1.25
   0  -8  -8    8.43    0.94
   0  -8  -8    5.99    1.59
   0  -8  -8    6.10    1.86
  -5   4   4  324.44   22.03
  -5   4   4  383.77   21.83
   5  -4  -4  340.07   19.86
   5  -4  -4  315.86   20.02
   5  -4  -4  338.02   19.98
   5  -4  -4  310.28   20.41
  -4   5  -5  225.88   13.45
  -4   5  -5  209.97   13.57
   4  -5   5  231.64   13.74
   4  -5   5  210.96   13.67
  -4   7   2  161.09    9.54
   4  -7  -2  140.62    8.48
   4  -7  -2  135.24    8.88
  -4   7   2  146.13    9.56
   4  -7  -2  145.62    8.90
   4  -7  -2  127.00    8.21
   4  -7  -2  143.30    8.48
  -6  -4  -5  304.15   18.68
  -6  -4  -5  336.50   18.98
  -6  -4  -5  295.91   19.34
   6   4   5  306.92   18.53
  -3   4  -7    5.47    0.92
   3  -4   7    6.40    0.91
   3  -4   7    4.43    1.10
  -3   4  -7    4.08    0.96
   3  -4   7    3.42    0.94
  -3   4  -7    5.21    1.22
   3  -4   7    5.19    1.23
  -3  -7  -9  175.05   10.55
  -3  -7  -9  154.42    9.57
  -3  -7  -9  156.83   10.47
  -3  -7  -9  175.97   10.90
   3   7   9  160.04    3.52
   3   7   9  188.65    5.43
   5   6   5    9.88    0.99
  -5  -6  -5   12.47    1.30
  -5  -6  -5   11.47    1.81
  -2  -8  -8  188.19    9.88
   2   8   8  198.08    4.20
   2   8   8  219.14    6.09
  -2  -8  -8  141.87    8.67
   6  -3   4    6.23    1.15
  -6   3  -4    4.89    1.13
  -6   3  -4    6.13    0.97
   6  -3   4    6.37    1.03
   6  -3   4    5.25    1.26
  -3  -8  -6   27.06    2.72
   3   8   6   23.31    1.73
   3   8   6   27.42    2.33
  -1   5  -6    9.95    1.17
  -1   5  -6    8.23    1.19
   1  -5   6   10.04    1.45
   1  -5   6    7.93    1.05
   2  -2   9   81.63    5.27
  -2   2  -9   71.89    4.70
   2  -2   9   78.80    4.97
   2  -2   9   76.99    5.03
   6  -3  -1  140.05    8.47
   6  -3  -1  135.93    8.57
  -6   3   1  141.10    9.16
   6  -3  -1  123.07    8.58
  -6   3   1  147.08    9.05
  -6   3   1  139.17    9.10
   0  -6 -10   14.24    1.55
   0  -6 -10   10.47    2.37
   0  -6 -10   13.48    2.09
   0   6  10   11.39    1.57
   1  -7   3    3.66    1.11
  -1   7  -3    2.84    0.44
  -1   7  -3    2.79    1.19
  -1   7  -3    3.03    0.79
   1  -7   3    4.09    1.58
  -1   7  -3    4.05    0.65
   1  -7   3    1.69    1.03
   1  -7   3    2.70    0.79
  -3  -2   6   13.78    1.88
  -3  -2   6   13.22    1.56
   3   2  -6   10.52    1.22
   3   2  -6   13.36    1.46
  -5  -6  -6   88.58    5.58
  -5  -6  -6   83.08    6.22
   5   6   6   82.11    5.10
   3   5  -3  100.25    6.56
  -3  -5   3  102.36    6.83
   3   5  -3  110.40    6.95
   6   4   4  247.10   15.06
  -6  -4  -4  264.90   14.86
  -6  -4  -4  229.01   14.55
  -6  -4  -4  244.15   15.24
  -5   0   4  156.16    9.07
  -5   0   4  138.45    9.24
  -5   0   4  132.19    8.69
   5   0  -4  120.04    8.31
   5   0  -4  142.53    8.40
   3  -6  -7   15.03    1.62
   3  -6  -7   18.08    2.52
   3  -6  -7   19.51    1.81
   3  -6  -7   21.46    1.95
   3  -6  -7   20.58    1.43
  -4  -5 -10   21.21    1.65
   4   5  10   18.47    2.30
  -4  -5 -10   20.35    2.46
  -4  -5 -10   23.16    2.34
   4   5  10   21.00    1.56
   4  -6  -5   44.58    3.20
   4  -6  -5   42.30    3.09
   4  -6  -5   45.73    3.45
   4  -6  -5   38.18    3.83
   3   8   4   55.16    4.12
   3   8   4   42.63    3.32
   3   8   4   38.65    2.78
   4  -7   0    9.71    1.09
  -4   7   0    9.22    1.02
   4  -7   0    9.81    1.22
  -4   7   0    9.32    1.22
   4  -7   0   10.23    1.08
  -6  -4  -6  151.62    9.27
   6   4   6  152.84    9.40
  -6  -4  -6  152.11    9.50
  -6  -4  -6  149.17    9.95
   3  -3  -8  168.97    9.53
  -3   3   8  143.83    9.78
   3  -3  -8  138.52    9.84
   3  -3  -8  141.54    9.21
  -3   3   8  135.91    9.45
  -3   3   8  139.74    8.76
  -6  -2   0   92.82    2.76
  -6  -2   0   74.03    2.22
   6   2   0   81.55    5.47
  -2   2   9   54.76    3.94
  -2   2   9   55.87    4.83
   2  -2  -9   47.66    3.18
   2  -2  -9   44.49    3.40
   2  -2  -9   55.92    3.60
   4   7   3    5.58    0.86
  -4  -7  -3    6.96    0.99
   4   7   3    8.73    1.86
   4   7   3    6.64    0.81
   2  -8  -6  128.99    8.45
   2  -8  -6  131.40    8.90
   2  -8  -6  163.42    9.48
   2  -8  -6  126.22    8.24
   2  -8  -6  117.37    8.02
   2  -8  -6  130.59    7.93
   2  -8  -6  145.30    8.16
   3   3  11   51.48    4.63
  -3  -3 -11   55.83    4.03
   3   3  11   56.14    4.23
   3   3  11   55.02    4.25
   3   3  11   53.12    3.40
  -3  -3 -11   49.60    3.74
   5   6   4    3.87    0.72
  -5  -6  -4    2.52    0.79
   1   4  11  240.76   14.75
   1   4  11  217.30   15.42
  -1  -4 -11  234.50   14.39
  -1  -4 -11  213.78   13.83
   1   4  11  244.56   15.19
   1   4  11  235.47   14.89
   1   8   0   10.27    1.13
   1   8   0   12.41    1.69
  -1  -8   0   12.76    1.93
  -1  -8   0   10.57    1.18
  -5  -5  -1  233.28   14.28
   5   5   1  254.50   15.53
   1  -4 -10   37.84    2.45
   1  -4 -10   35.75    2.35
   1  -4 -10   40.29    2.86
  -1   4  10   38.81    3.00
  -1   4  10   30.65    3.62
   1  -4 -10   35.49    3.56
   2  -7   3  207.78   12.61
   2  -7   3  191.84   12.18
  -2   7  -3  196.22   12.61
  -2   7  -3  211.83   12.26
  -2   7  -3  191.17   12.41
   2  -7   3  206.54   12.50
   1  -3 -10   32.39    2.36
   1  -3 -10   22.71    1.68
   1  -3 -10   26.84    1.76
   1  -3 -10   27.65    1.81
  -1   3  10   25.58    2.23
  -1   3  10   18.19    2.59
   1  -3 -10   27.90    2.78
  -1   3  10   22.62    3.05
   3  -7  -6  129.60    8.53
   3  -7  -6  137.63    8.43
   3  -7  -6  130.39    9.21
   3  -7  -6  154.46    8.71
   3  -7  -6  129.99    8.38
   3  -7  -6  153.87    8.94
   3  -7  -6  139.94    9.68
   1   3  11   62.42    5.04
  -1  -3 -11   57.73    4.42
  -1  -3 -11   54.19    3.69
  -1  -3 -11   57.83    4.05
  -1  -3 -11   52.13    3.41
   1   3  11   56.87    4.53
   1   3  11   56.67    4.32
   1   3  11   50.66    3.93
   2   2  11   80.55    5.48
  -2  -2 -11   70.24    5.19
  -2  -2 -11   72.74    4.70
   2   2  11   76.01    5.47
   2   2  11   72.28    4.59
   2   2  11   69.33    5.74
  -2  -2 -11   79.64    5.03
   0  -9  -4   70.73    4.53
   0   9   4   75.74    4.89
   0   9   4   77.64    5.37
   0  -9  -4   76.36    5.60
   1   2  -8  414.97   25.45
  -1  -2   8  436.23   25.79
  -1  -2   8  411.96   24.92
  -1  -2   8  418.90   25.39
   1   2  -8  419.68   25.89
   1   2  -8  437.94   25.45
   4  -5  -6    8.53    1.22
   4  -5  -6   11.90    2.04
  -4   5   6    9.90    1.83
   4  -5  -6    7.14    1.19
   5   0   9    2.20    1.17
  -5   0  -9    5.04    1.21
  -5   0  -9    2.26    0.91
   5   0   9    1.36    1.18
   5   0   9    2.15    0.86
  -3  -4 -11   30.22    3.10
   3   4  11   14.02    1.62
   3   4  11   33.17    1.66
   3   4  11   30.47    2.65
  -3  -4 -11   38.40    3.06
   3   4  11   29.16    3.05
   4  -7  -3   93.13    5.64
   4  -7  -3   99.72    5.60
  -4   7   3   98.04    6.36
   4  -7  -3   93.74    6.03
   4  -7  -3   80.19    5.29
   4  -7  -3   97.94    6.17
   4  -7  -3   81.02    5.23
   3  -8  -2   15.41    1.32
   3  -8  -2   13.98    1.25
  -3   8   2   17.69    1.55
   3  -8  -2   14.08    1.32
  -3   2  -9   86.35    5.84
   3  -2   9   78.92    5.17
   3  -2   9   89.71    5.79
   3  -2   9   80.39    5.45
   3  -2   9   80.00    5.18
  -3   2  -9   82.34    5.47
  -3   4   8   61.07    5.23
   3  -4  -8   65.07    5.16
   3  -4  -8   56.92    4.35
   3  -4  -8   64.79    4.24
   3  -4  -8   81.25    4.86
  -3   4   8   70.94    4.56
   0   9   5    2.29    1.15
   0  -9  -5    2.58    0.55
   0  -9  -5    2.62    0.45
   0   9   5    3.32    0.69
   6  -4   1   87.98    5.60
   6  -4   1   94.81    6.10
  -6   4  -1   95.09    5.90
   6  -4   1   90.22    5.91
  -6   4  -1   87.57    5.52
  -6   4  -1   89.29    5.96
  -6  -1   1   37.84    3.46
   6   1  -1   56.50    4.03
  -6  -1   1   61.06    3.58
  -6  -1   1   57.18    3.73
  -2  -5 -11  239.02   15.89
   2   5  11  226.69    6.84
   2   5  11  227.54    5.62
  -2  -5 -11  252.34   15.47
   2   5  11  254.04    5.70
  -3   8   3   41.69    2.95
   3  -8  -3   35.05    2.48
   3  -8  -3   39.11    3.05
   3  -8  -3   37.03    2.52
   3  -8  -3   32.11    2.45
  -3  -8  -7    5.57    0.45
   3   8   7    5.92    0.71
  -3  -8  -7    5.78    1.46
   3   8   7    8.92    1.44
   1  -2   9    4.87    0.83
   1  -2   9    4.96    1.14
   1  -2   9    4.99    0.95
  -1   2  -9    5.67    0.89
  -1   8  -1  151.40    9.50
  -1   8  -1  152.65    9.83
  -1   8  -1  153.83    9.33
   1  -8   1  148.02    9.41
   1  -8   1  153.05    9.75
   1  -8   1  151.16    9.82
   1  -8   1  172.86   10.45
   2   6  -3    7.97    1.54
   2   6  -3   13.36    1.22
  -2  -6   3   11.65    1.61
  -5  -6  -7    4.76    1.37
  -5  -6  -7    4.23    1.38
  -5  -6  -7    5.01    0.92
   2  -5  -9  314.90   17.83
  -2   5   9  313.14   19.94
  -2   5   9  317.27   19.28
   2  -5  -9  298.57   17.39
   2  -5  -9  319.34   17.40
   2  -5  -9  316.08   18.51
   3  -2  -8   66.17    4.55
  -3   2   8   71.44    4.79
  -3   2   8   70.31    5.70
   3  -2  -8   65.72    4.70
   3  -2  -8   85.73    4.79
   6   3   1  156.40    9.87
  -6  -3  -1  152.06    3.40
  -6  -3  -1    0.46    0.36
  -3   5  -6    2.46    0.99
  -3   5  -6    5.73    1.21
   3  -5   6    4.94    1.09
  -3   5  -6    3.22    0.83
   3  -5   6    3.39    1.03
   3  -5   6    4.17    0.88
   6   4   3  555.53   33.29
  -6  -4  -3  564.84   32.34
  -6  -4  -3  526.76   32.67
  -6  -4  -3  521.15   32.23
  -5  -3   2    7.76    1.25
   5   3  -2    5.43    1.06
   5   3  -2    6.06    1.14
  -5  -3   2    8.65    1.32
   5  -6   0   28.12    2.12
  -5   6   0   31.92    2.58
   5  -6   0   33.41    2.57
  -5   6   0   32.34    2.42
   5  -6   0   31.70    2.41
   5  -6   0   35.20    2.68
  -4   0   6  112.68    7.86
   4   0  -6  111.45    7.23
  -4   0   6  114.09    7.27
  -6   4  -2   14.48    1.30
  -6   4  -2   17.22    1.63
   6  -4   2   13.62    1.72
   6  -4   2   14.80    1.44
   6  -4   2   14.54    1.55
  -6   4  -2   15.80    1.68
   6  -4   2   19.63    1.96
   2   8   1  148.79    8.90
   2   8   1  128.81    8.33
   0  -9  -3   58.30    4.68
   0  -9  -3   56.47    3.69
   0   9   3   60.88    3.93
   0   9   3   56.34    4.38
   6   2   8    4.96    1.18
   6   2   8    3.93    1.37
  -6  -2  -8    4.89    1.02
  -6  -2  -8    5.23    1.32
   1   9   5  107.00    6.94
   1   9   5  101.41    6.39
   5  -6  -1   40.83    2.59
   5  -6  -1   37.29    2.68
  -5   6   1   35.19    2.88
  -5   6   1   40.86    2.82
   5  -6  -1   28.58    2.06
   5  -6  -1   34.78    2.78
   6  -4   0   89.65    5.89
  -6   4   0  103.74    6.26
   6  -4   0   88.12    5.97
  -6   4   0   86.28    6.21
   6  -2  -2  274.79   16.78
  -6   2   2  271.46    2.94
  -6   2   2  289.43    5.52
  -6   2   2  288.93    4.86
   3   2  11   13.85    2.34
   3   2  11   19.49    2.16
   3   2  11   17.83    2.10
  -3  -2 -11   17.62    1.82
   3   2  11   15.95    1.30
  -6   1   2   58.70    3.77
   6  -1  -2   56.59    4.05
  -6   1   2   58.11    3.89
   6  -2   6   93.48    6.77
  -6   2  -6   95.71    6.30
   6  -2   6  109.27    6.74
   0  -7   3   78.03    5.00
   0   7  -3   56.92    3.70
   0  -7   3   59.35    4.29
   0   7  -3   63.88    4.03
   0  -7   3   67.73    4.70
   0   7  -3   64.99    4.36
   3  -8  -1   18.34    1.69
   3  -8  -1   21.90    1.71
   3  -8  -1   21.05    1.56
  -3   8   1   19.38    1.65
  -4  -7  -8    4.89    1.66
  -4  -7  -8    7.22    0.89
   1   9   4   47.20    3.59
   1   9   4   44.77    3.05
  -5  -2   3  129.11    7.96
   5   2  -3  119.57    8.21
  -5  -2   3  142.89    8.44
  -5  -2   3  116.85    8.38
  -5  -2   3  132.47    8.27
   5   2  -3  138.60    8.24
   1   6  -4  142.92    8.94
   1   6  -4  152.95    9.35
   4   6   0  127.24    7.69
   4   6   0  111.08    6.98
  -4  -6   0  115.79    7.27
   4   6   0  103.09    6.93
   0  -4   7    1.65    0.78
   0  -4   7    1.75    0.73
   0   4  -7    1.81    0.82
   0  -4   7    1.57    1.06
   0   4  -7    1.89    0.70
   1   5  11  123.62    8.70
   1   5  11  150.50    8.87
   1   5  11  116.68    9.26
  -1  -5 -11  128.28    8.61
  -1  -5 -11  116.17    7.88
   6   1   8    6.94    1.56
   6   1   8    6.16    1.24
   6   1   8    7.94    1.22
  -6  -1  -8   10.01    1.46
  -6  -1  -8    7.57    1.21
   4   3  -4   80.67    5.40
  -4  -3   4   73.20    5.04
   4   3  -4   81.77    5.31
  -1   5  10  130.48    8.48
   1  -5 -10  122.87    7.04
   1  -5 -10  109.94    6.76
   1  -5 -10  114.75    7.29
   6  -1   7  103.22    6.22
   6  -1   7   89.77    6.05
  -6   1  -7   91.82    6.16
   6  -1   7   85.83    6.36
   1  -2 -10    0.44    0.92
   1  -2 -10    0.08    0.51
  -1   2  10    1.46    1.65
  -1   2  10   -0.70    0.91
  -1   2  10    1.18    1.42
  -3  -8  -3   35.57    2.42
   3   8   3   33.44    2.19
   3   8   3   35.69    2.45
   3   8   3   44.31    3.69
   1   7  10   25.11    2.83
  -1  -7 -10   26.96    2.88
  -1  -7 -10   20.18    2.79
   1   7  10   23.75    2.09
  -1  -7 -10   23.89    2.33
   1   7  10   29.59    2.62
   1  -9  -4    8.95    0.89
   1  -9  -4   12.22    1.55
   1  -9  -4    6.69    0.61
  -1   9   4    6.87    1.51
  -1   9   4    7.48    0.99
   0  -8   1   -0.17    1.36
   0  -8   1    0.46    1.01
   0  -8   1    0.18    0.66
   0   8  -1    1.30    0.53
   0   8  -1    0.28    0.69
   0   8  -1    0.35    1.12
  -2  -7 -10  131.99    8.31
   2   7  10  114.16    7.51
  -2  -7 -10  117.05    8.43
   2   7  10  127.48    8.30
  -2  -7 -10  115.42    8.67
   3   7   0  123.07    7.32
  -3  -7   0   98.27    6.13
   3   7   0   94.54    6.33
   3   7   0   99.47    6.31
  -6  -4  -7   14.59    1.88
  -6  -4  -7   12.46    1.20
   6   4   7   10.21    1.05
  -6  -4  -7   11.79    1.40
   1   2  11  131.16    9.20
  -1  -2 -11  126.11    7.94
  -1  -2 -11  138.91    8.18
  -1  -2 -11  126.60    8.47
   1   2  11  139.34    8.22
   1   2  11  133.32    8.61
   1   2  11  120.24    7.87
   1   2  11  149.21    8.95
   2  -6   5    8.49    1.35
  -2   6  -5    7.17    0.91
   2  -6   5    5.07    1.28
   4   4  -3  208.59   12.63
   4   4  -3  197.12   12.42
  -4  -4   3  186.56   11.77
  -4   0 -10   57.85    4.30
  -4   0 -10   58.51    3.91
   4   0  10   59.87    3.87
   4   0  10   55.12    4.47
   4   0  10   57.06    4.62
   4   0  10   61.95    4.28
  -5  -5  -9  100.91    6.94
   5   5   9   86.36    6.24
  -5  -5  -9   90.71    6.57
  -5  -5  -9   96.24    6.70
  -5  -5  -9  101.07    6.20
   4  -7   1    0.63    1.00
  -4   7  -1    4.29    1.01
  -4   7  -1    3.18    0.73
   4  -7   1    4.39    0.85
   4  -7   1    3.88    0.92
   4  -7   1    4.63    0.79
   0  -9  -6   54.36    3.42
   0  -9  -6   51.75    4.02
   0   9   6   60.33    3.86
   0   9   6   57.53    4.35
   1  -7  -9  101.79    6.22
   1  -7  -9   87.77    6.07
   1  -7  -9   92.16    6.66
   3  -8  -4  155.32   10.52
   3  -8  -4  158.80    9.83
   3  -8  -4  151.86    9.92
   3  -8  -4  164.40    9.86
   3  -8  -4  164.31   10.36
   3  -8  -4  172.07    9.97
   1  -9  -3   20.08    2.73
   1  -9  -3   20.78    2.20
   1  -9  -3   18.59    1.51
  -1   9   3   18.57    1.79
  -1   9   3   18.93    1.22
   5   6   3    9.94    1.15
  -5  -6  -3    9.66    1.19
  -1   6  -5   60.40    4.25
   1  -6   5   64.31    4.63
   5  -6   1   43.20    3.08
   5  -6   1   42.43    2.99
  -5   6  -1   48.31    3.65
   5  -6   1   39.65    3.22
   5  -6   1   49.00    3.28
  -5   6  -1   52.08    3.48
   5  -6   1   46.93    3.52
   1   9   6  221.16   13.21
   1   9   6  213.83   13.71
  -1  -9  -6  198.02   12.62
  -2  -1   8  127.21    8.03
   2   1  -8  117.66    7.40
   2   1  -8  120.72    7.65
  -2  -1   8  116.17    8.49
  -5  -4   1   50.40    3.56
   5   4  -1   41.28    3.08
  -5   5  -4   69.25    4.81
   5  -5   4   74.20    5.27
   5  -5   4   76.25    5.10
  -5   5  -4   73.74    4.89
  -6  -3  -8    0.96    1.08
  -6  -3  -8   -0.38    1.23
   6   3   8   -0.16    1.19
  -6  -3  -8    0.64    0.78
  -6  -3  -8    0.87    0.86
  -2   8  -1   74.85    4.86
  -2   8  -1   74.56    5.31
  -2   8  -1   76.96    5.06
   2  -8   1   67.88    4.98
   2  -8   1   77.90    5.29
   2  -8   1   76.28    4.81
   0   3  -8   26.30    1.96
   0  -3   8   20.51    1.62
   0  -3   8   23.25    1.85
   0  -3   8   22.13    2.15
   0   3  -8   22.51    1.92
   0   3  -8   26.68    2.43
   0  -3   8   24.57    1.92
  -3  -5 -11  153.68    9.70
  -3  -5 -11  146.53    9.58
   3   5  11  128.99    8.60
   3   5  11  142.21    8.35
   3   5  11  148.97    9.41
  -3  -5 -11  135.86    9.80
   0  -5   6    4.27    1.11
   0  -5   6    3.57    0.84
   0   5  -6    3.84    0.98
   0   5  -6    3.86    0.89
   2  -7  -8  102.44    6.73
   2  -7  -8  106.70    6.93
   2  -7  -8  113.83    7.63
   2  -7  -8  111.90    6.47
   2  -7  -8   91.28    6.66
   2  -7  -8  110.37    7.56
   2  -7  -8  111.75    6.85
   2  -7  -8  106.83    7.97
   5  -6  -2   11.84    1.66
  -5   6   2    8.98    1.21
   5  -6  -2    9.67    1.39
   5  -6  -2    8.24    1.23
  -5   6   2    9.60    1.38
  -6   3  -5   16.44    1.71
   6  -3   5   16.11    1.71
   6  -3   5   15.55    1.76
   6  -3   5   12.21    1.36
  -6   3  -5   13.15    1.48
   6  -3   5   14.32    1.76
  -1  -8  -9   19.79    2.18
   1   8   9   22.70    2.13
  -1  -8  -9   22.40    2.60
   1   8   9   25.52    2.83
  -1  -8  -9   18.38    2.80
   1  -9  -5    2.72    0.52
   1  -9  -5    2.99    1.23
  -1   9   5    3.23    0.74
   1  -9  -5    3.04    0.59
   1  -9  -5    2.42    0.40
  -1   9   5    2.71    1.22
   5  -3   7   42.23    3.49
   5  -3   7   48.94    3.63
  -5   3  -7   46.68    3.52
  -5   3  -7   45.46    3.36
   5  -3   7   45.81    3.26
   3   1  -7    1.32    0.69
   3   1  -7    2.01    0.95
  -3  -1   7    2.60    1.44
  -3  -1   7    2.09    0.92
   3  -5  -8  109.14    6.77
   3  -5  -8   93.37    7.05
   3  -5  -8  101.41    6.00
   3  -5  -8   81.66    6.09
  -3   5   8   90.12    6.84
   3  -5  -8  104.41    6.31
  -3   5   8   96.02    6.09
   3  -5  -8   89.37    6.20
  -2   1 -10    4.25    0.88
   2  -1  10    5.69    0.81
   2  -1  10    4.92    1.05
   2  -1  10    4.23    1.55
  -6   3   2   23.56    2.35
  -6   3   2   21.80    2.06
   6  -3  -2   23.77    1.88
   6  -3  -2   17.89    1.99
   6  -3  -2   20.20    2.12
  -6   4  -3    2.86    0.73
   6  -4   3    2.57    1.15
   6  -4   3    1.73    0.83
   6  -4   3    2.25    0.86
  -6   4  -3    2.86    1.06
  -6   4  -3    1.43    0.83
   3   6  -2    2.40    0.75
   3   6  -2    2.01    1.39
   3   6  -2    2.80    0.78
   0   0  10  198.17   12.56
   0   0 -10  206.02   12.33
   0   0 -10  189.58   11.77
   1   9   3   48.78    3.27
  -1  -9  -3   52.20    3.49
  -2   1   9    0.32    0.90
   2  -1  -9    0.11    0.83
  -2   1   9    0.23    1.62
   2  -1  -9    0.28    0.56
   2  -1  -9    0.82    0.85
   4  -7  -4   46.68    3.22
   4  -7  -4   43.17    2.73
   4  -7  -4   42.69    2.83
   4  -7  -4   37.69    2.63
   4  -7  -4   33.46    2.23
   4  -7  -4   40.22    3.29
  -5   2  -8   51.78    3.87
   5  -2   8   57.29    4.00
   5  -2   8   50.80    3.49
   5  -2   8   48.24    3.33
   5  -2   8   46.17    3.69
  -6   0   2   67.73    4.76
   6   0  -2   73.00    5.03
   5  -2  -5   66.10    4.70
  -5   2   5   65.49    4.98
  -5   2   5   62.01    4.02
   5  -5  -4   34.53    3.24
  -5   5   4   36.00    2.88
   5  -5  -4   28.63    2.46
   5  -5  -4   31.51    2.54
   5   3  10  222.73   14.08
   5   3  10  212.90   14.08
  -5  -3 -10  228.52   14.39
  -5  -3 -10  240.14   14.05
   5   3  10  221.57   13.39
  -5  -3 -10  212.31   14.48
  -6   4   1   29.76    2.36
  -6   4   1   25.87    2.45
   6  -4  -1   22.27    2.42
   6  -4  -1   25.26    2.19
   6  -4  -1   24.56    2.18
   1  -8  -8   80.48    6.02
   1  -8  -8   83.86    5.46
   1  -8  -8   73.91    5.38
   1  -8  -8   76.28    4.80
   1  -8  -8   84.08    6.04
   1  -8  -8   94.77    5.20
   4   2  -5    8.72    1.16
   4   2  -5    6.44    1.27
  -4  -2   5    6.26    1.15
  -4  -2   5    6.87    1.47
   0   9   2   82.46    5.29
   0   9   2  108.18    5.69
   0  -9  -2  113.62    7.53
   0  -9  -2  101.79    6.51
   5  -3  -5   63.52    4.75
   5  -3  -5   69.51    4.37
   5  -3  -5   76.09    5.17
   5  -3  -5   71.23    4.78
  -5   3   5   62.77    4.71
  -5   3   5   59.74    3.75
  -4  -7  -2    6.64    1.02
   4   7   2    6.66    0.93
   4   7   2    7.32    0.99
   4   7   2    7.55    2.00
   4  -3   8    0.54    0.99
   4  -3   8    0.59    1.11
  -4   3  -8    0.89    0.87
  -4   3  -8    0.71    0.71
  -4   3  -8    0.88    0.94
   4  -3   8    0.40    0.74
   4  -3   8    1.16    0.86
   5   2  10  191.21   12.67
  -5  -2 -10  179.05   11.60
  -5  -2 -10  176.13   11.11
  -5  -2 -10  190.44   11.54
   5   2  10  177.53   12.58
   5   2  10  205.74   12.00
   2   1  11   95.46    6.13
   2   1  11   80.77    5.18
  -2  -1 -11   81.50    5.60
  -2  -1 -11   78.94    5.09
   2   1  11   80.11    5.86
   2   1  11   80.71    6.30
  -3  -8  -8    2.17    0.42
   3   8   8    3.24    1.65
   3   8   8    2.31    1.15
  -3  -8  -8    1.40    1.26
   3   8   8    2.54    0.46
  -5  -6  -8   22.45    2.55
  -5  -6  -8   23.05    2.51
  -5  -6  -8   26.09    1.96
  -3   8   0    9.18    1.19
  -3   8   0    9.40    0.99
  -3   8   0   -0.06    0.22
   3  -8   0    8.61    1.08
   3  -8   0    8.68    1.49
   3  -8   0    7.75    1.08
  -2  -8  -9   94.99    6.71
  -2  -8  -9   96.01    6.60
   2   8   9   95.69    6.79
   2   8   9   90.05    5.43
  -2  -8  -9   99.89    7.16
  -2  -8  -9   91.55    5.61
   2   8   9   90.73    6.06
  -1   9   2   37.52    1.81
   1  -9  -2   39.26    2.76
   1  -9  -2   44.98    3.96
  -1   9   2    9.35    1.00
   3  -1  -8   63.89    4.53
  -3   1   8   64.72    5.58
   3  -1  -8   66.65    4.28
  -3   1   8   73.18    4.80
   4  -6   4  151.88    9.76
  -4   6  -4  161.14    9.49
   4  -6   4  152.60    9.63
  -4   6  -4  139.62    9.53
  -3   7  -3  112.21    7.59
  -3   7  -3  122.70    7.47
   3  -7   3  113.36    7.26
   3  -7   3  116.10    7.61
   3  -7   3  117.10    7.48
   6   4   2  588.46   35.30
  -6  -4  -2  557.95   33.48
   5   1  -4  220.64   12.86
   5   1  -4  193.19   12.80
  -5  -1   4  189.44   13.27
  -5  -1   4  208.08   12.96
  -5  -1   4  233.92   13.23
  -3   1 -10   31.07    2.78
  -3   1 -10   31.02    2.38
   3  -1  10   30.16    2.17
   3  -1  10   30.77    2.24
   3  -1  10   32.53    2.56
   3  -1  10   34.20    3.11
   4  -4   7    0.25    0.99
   4  -4   7    0.37    1.06
   4  -4   7    0.09    0.87
   4  -4   7    0.41    0.76
  -4   4  -7    0.12    0.92
  -4   4  -7   -0.66    0.82
  -4   4  -7    0.38    0.91
   6   0   8   19.07    1.93
  -6   0  -8   22.31    2.30
  -6   0  -8   27.26    2.20
   6   0   8   21.49    2.08
   6   0   8   21.15    2.34
  -4   3   7   77.09    5.25
   4  -3  -7   58.30    4.25
  -4   3   7   68.56    5.37
   4  -3  -7   72.31    4.86
   4  -3  -7   59.07    4.27
  -4   3   7   61.48    4.26
   4   5  -2  255.61   13.77
  -4  -5   2  224.17   13.73
   4   5  -2  196.87   13.29
  -4  -3 -11   40.27    2.78
   4   3  11   37.74    2.51
  -4  -3 -11   37.49    3.12
   4   3  11   33.72    3.57
   0   4  11    7.92    1.49
   0  -4 -11    7.51    1.28
   0  -4 -11    6.28    0.58
   0   4  11    5.34    1.78
  -2  -6 -11  202.54   14.31
   2   6  11  239.01   14.16
   2   6  11  209.97   13.99
   2   6  11  216.80   13.35
  -2  -6 -11  231.04   13.94
  -2  -6 -11  219.38   14.11
  -4  -6 -10    2.43    1.35
  -4  -6 -10    2.62    1.61
   4   6  10    4.40    1.44
  -4  -6 -10    2.86    0.72
   3   1  11    0.76    0.30
   3   1  11    1.20    0.59
   3   1  11    2.65    1.24
   3   1  11    3.15    1.73
  -5   4  -6  131.23    8.81
   5  -4   6  126.91    8.49
  -5   4  -6  144.45    8.79
   5  -4   6  116.00    8.56
   5  -4   6  136.68    8.54
   5  -4   6  141.54    8.33
   1   9   7   45.98    3.50
  -1  -9  -7   42.00    3.48
   1   9   7   44.32    2.91
   1   1  -9  347.12   21.52
   1   1  -9  354.94   21.99
  -1  -1   9  343.22   22.03
   1   1  -9  368.81   21.43
  -1  -1   9  394.20   22.73
   5  -6   2    1.71    0.81
   5  -6   2    1.05    1.13
   5  -6   2    0.77    0.69
  -5   6  -2    1.21    0.77
  -5   6  -2    0.57    1.03
   5  -6   2    1.11    0.98
   2  -8  -7   58.03    5.21
   2  -8  -7   67.97    5.18
   2  -8  -7   69.36    5.00
   2  -8  -7   55.58    3.97
   2  -8  -7   61.60    4.37
   2  -8  -7   60.04    3.80
   2  -8  -7   63.19    4.21
   2  -8  -7   62.96    4.12
   0  -3 -11   16.12    1.72
   0  -3 -11   13.79    1.28
   0   3  11   13.66    2.08
   0   3  11   10.41    1.61
   0  -3 -11   13.05    1.08
   2  -6  -9  117.81    7.28
   2  -6  -9   95.36    7.11
  -2   6   9  136.66    8.71
   2  -6  -9  131.18    8.50
   2  -6  -9  138.57    7.96
   2  -6  -9  118.29    7.21
   4  -2   9    1.96    0.88
   4  -2   9    2.00    1.22
  -4   2  -9    1.21    0.91
   4  -2   9    1.12    1.11
   4  -2   9    3.47    0.84
  -4   2  -9    1.33    0.74
  -4   2  -9    0.95    0.84
  -5  -4 -10  303.10   18.79
   5   4  10  303.74   18.09
   5   4  10  288.13   18.76
  -5  -4 -10  310.80   19.43
  -5  -4 -10  328.74   19.16
  -5  -4 -10  309.66   19.14
   0  -7 -10   25.22    3.35
   0  -7 -10   36.00    2.73
   0   7  10   30.59    2.75
   0  -7 -10   27.40    3.10
  -5   1   5  149.65    9.17
  -5   1   5  143.55    9.90
   5  -1  -5  138.12    8.83
   3  -6   5   18.83    2.02
  -3   6  -5   19.94    1.75
   3  -6   5   23.70    2.11
   0   8   9    1.33    0.94
   0  -8  -9    2.08    0.97
   0  -8  -9    2.95    1.81
   1  -1  10    1.41    1.13
   1  -1  10   -0.99    1.55
   1  -1  10    1.45    0.66
  -1   1 -10    2.89    1.18
  -1   1 -10    1.42    0.68
   2   9   5    2.02    0.58
   2   9   5    4.83    1.89
   2   9   5    2.22    1.28
   3  -8  -5  184.14   10.30
   3  -8  -5  159.91   10.13
   3  -8  -5  153.08   10.15
   3  -8  -5  170.48   10.63
   3  -8  -5  166.56   10.08
   3  -8  -5  168.11   10.92
  -4  -4 -11    2.92    1.12
  -4  -4 -11    4.26    0.83
  -4  -4 -11    3.37    1.36
   4   4  11    4.52    1.80
   4   4  11    3.78    0.66
  -3  -7 -10   82.13    5.88
   3   7  10   73.90    3.65
  -3  -7 -10   82.73    5.75
  -3  -7 -10   75.47    4.80
  -3  -7 -10   78.35    6.03
   3   7  10   75.97    2.50
  -4   2   7   94.23    6.00
  -4   2   7   90.62    6.93
   4  -2  -7   71.46    4.90
   0   9   7    3.49    0.62
   0  -9  -7    3.37    0.45
   0  -9  -7    3.69    1.21
   0  -9  -7    3.40    1.71
   0  -9  -7    3.70    0.54
   0   9   7    5.78    1.45
   1  -9  -6    1.51    0.51
   1  -9  -6    1.22    1.08
  -1   9   6   -0.49    1.22
   1  -9  -6    1.45    0.51
   1  -9  -6    1.01    0.91
   1  -9  -6   -0.21    1.66
   1  -9  -6    1.16    0.53
  -1  -6 -11   52.79    4.57
  -1  -6 -11   48.15    4.17
   1   6  11   50.42    4.09
   1   6  11   60.73    4.39
   1   6  11   49.67    3.42
  -1  -6 -11   48.31    3.75
   4  -4  -7   18.06    1.34
   4  -4  -7   18.48    2.36
   4  -4  -7   15.56    1.72
  -4   4   7   24.02    2.36
   4  -4  -7   17.87    1.80
  -4   4   7   -0.33    0.36
  -7   0  -3  171.33   10.96
  -7   0  -3  185.97   11.01
  -7   0  -3  180.46   11.06
   7   0   3  186.24   11.62
  -7   0  -3  161.99   10.84
   0   2  -9    1.73    0.73
   0   2  -9    0.98    1.08
   0   2  -9    1.60    0.62
   0  -2   9    0.90    0.76
   0  -2   9    0.39    1.02
   0  -2   9    1.67    0.73
   0  -2   9    3.35    1.56
  -3  -8  -2   16.39    1.29
   3   8   2   13.32    2.50
   3   8   2   14.98    1.38
   3   8   2   15.76    1.21
   2   9   6   74.99    4.76
  -2  -9  -6   67.64    5.07
   2   9   6   60.29    4.02
  -5   1  -9   21.00    2.09
   5  -1   9   22.56    1.81
   5  -1   9   22.52    2.29
   5  -1   9   21.43    2.42
   5  -1   9   19.91    1.80
   5  -4  -5   36.68    2.69
  -5   4   5   35.40    3.31
   5  -4  -5   28.45    2.62
   5  -4  -5   32.70    2.38
   5  -4  -5   34.04    3.15
   1  -6 -10  129.02    7.90
   1  -6 -10  122.03    8.05
  -1   6  10  136.07    8.84
  -6  -4  -8   10.07    1.12
  -6  -4  -8   11.41    1.32
  -6  -4  -8    5.38    1.45
   0   6  -5   39.35    3.15
   0  -6   5   37.53    3.12
   0   6  -5   43.29    2.89
  -5   6   3    1.20    1.09
  -5   6   3    4.52    1.02
   5  -6  -3    2.30    1.04
   5  -6  -3    2.92    0.96
  -7   0  -4   64.01    4.36
  -7   0  -4   60.04    4.19
  -7   0  -4   63.00    4.22
   7   0   4   64.26    4.42
  -7   0  -4   55.47    3.60
   1  -1 -10    8.18    0.86
   1  -1 -10    8.54    1.31
   1  -1 -10    5.83    0.49
  -1   1  10    8.93    2.13
  -1   1  10    8.79    1.48
  -4  -2 -11   62.23    4.63
   4   2  11   60.05    4.26
  -4  -2 -11   66.40    4.29
   4   2  11   54.83    3.66
   4   2  11   58.48    4.76
   6   2  -1    6.55    1.21
  -6  -2   1   10.10    1.18
  -6  -2   1    9.17    1.36
  -6  -2   1    7.63    1.32
   4  -6  -6   51.29    3.66
   4  -6  -6   43.20    4.15
   4  -6  -6   42.24    3.30
   4  -6  -6   47.84    3.42
   5   5   0  368.62   22.30
  -5  -5   0  375.12   22.67
  -6  -5  -5    7.41    1.18
  -6  -5  -5    7.82    1.14
   6   5   5    7.20    1.02
  -6  -5  -5    7.72    1.68
   5   1  10   38.02    2.68
  -5  -1 -10   41.31    3.22
  -5  -1 -10   35.15    3.10
  -5  -1 -10   38.19    2.79
   5   1  10   38.03    3.34
   5   1  10   34.47    3.33
   1   1  11  124.47    4.40
  -1  -1 -11  120.39    7.73
  -1  -1 -11  113.15    7.11
   1   1  11  119.01    5.02
   1   1  11  118.94    3.82
   1   1  11  108.20    2.12
  -4  -7  -9   42.67    3.73
  -4  -7  -9   42.94    2.83
  -4  -7  -9   39.92    3.81
  -7  -1  -4    1.25    1.03
   7   1   4    0.09    0.96
  -7  -1  -4    0.51    1.06
  -7  -1  -4    1.77    1.08
   5   6   2   40.29    2.92
  -5  -6  -2   35.27    2.65
  -4   7  -2   37.36    2.55
   4  -7   2   33.34    2.57
  -4   7  -2   35.35    2.78
   4  -7   2   37.28    2.96
   4  -7   2   32.09    2.53
   0  -5 -11    1.72    0.98
   0   5  11    1.65    1.41
   0   5  11    2.83    1.18
  -6  -5  -6   39.18    3.55
  -6  -5  -6   43.43    3.09
   6   5   6   45.35    3.06
  -6  -5  -6   42.33    3.12
   6   3   0    0.88    0.97
  -6  -3   0    3.12    0.83
  -6  -3   0    2.70    0.97
  -2  -9  -4    0.88    0.38
   2   9   4    1.29    1.65
   2   9   4    1.74    1.21
   2   9   4    0.99    0.61
  -1  -9  -2   63.77    4.70
   1   9   2   60.14    3.97
  -1  -9  -2   54.83    3.80
   3  -7  -7  101.77    6.47
   3  -7  -7   90.41    6.60
   3  -7  -7  107.66    6.53
   3  -7  -7  105.26    7.81
   3  -7  -7  117.50    7.55
   3  -7  -7  113.04    6.83
   3  -7  -7  117.21    7.74
   3  -7  -7  110.26    6.99
   1   8  -1   40.61    2.96
   1   8  -1   43.73    3.44
  -1  -8   1   43.64    3.12
  -1  -8   1   45.10    3.70
   2   7  -2   68.83    4.59
   2   7  -2   69.90    4.99
   6  -4   4    4.10    1.07
  -6   4  -4    4.88    1.02
   6  -4   4    3.97    1.20
   6  -4   4    5.08    0.96
  -6   4  -4    6.58    1.31
  -7   1  -3  132.54    7.97
  -7   1  -3  120.89    7.84
  -7   1  -3  117.38    7.99
   7  -1   3  116.02    7.48
  -7  -1  -3  127.15    8.52
  -7  -1  -3  140.56    8.63
   7   1   3  136.21    8.68
  -7  -1  -3  129.58    8.49
   2  -9  -3    0.76    0.64
  -2   9   3   -0.21    0.65
   2  -9  -3    0.12    0.43
   2  -9  -3    0.67    1.19
  -2   9   3   -0.08    0.74
   4  -5   6    1.29    0.81
  -4   5  -6    0.72    0.98
  -4   5  -6    0.72    0.92
   4  -5   6    0.83    1.01
   4  -5   6    0.35    1.03
  -2  -4   6  233.63   14.61
   2   4  -6  223.81   13.55
   2   4  -6  216.39   13.42
   7   0   2   29.09    2.47
  -7   0  -2   24.25    2.20
  -7   0  -2   26.01    2.28
  -7   0  -2   23.52    2.32
  -7  -1  -5    3.34    1.10
   7   1   5    2.25    0.89
  -7  -1  -5    3.55    1.17
  -7  -1  -5    1.63    1.06
   6  -4  -2   52.69    4.02
   6  -4  -2   59.84    3.99
  -6   4   2   56.64    4.11
  -6   4   2   59.71    4.27
   6  -4  -2   54.53    4.36
  -6  -5  -4  121.39    8.17
  -6  -5  -4  136.50    7.71
  -6  -5  -4  105.88    7.53
   6   5   4  124.44    7.83
   2  -9  -4   74.85    4.43
   2  -9  -4   66.22    4.38
   2  -9  -4   82.22    5.23
   2  -9  -4   69.54    4.50
  -3  -6 -11   60.25    4.40
   3   6  11   50.81    3.09
   3   6  11   56.89    4.37
   3   6  11   51.73    3.56
   3   6  11   47.15    4.10
  -3  -6 -11   48.87    4.57
  -3  -6 -11   55.29    4.43
   2   8   0  215.62   13.58
   2   8   0  239.11   14.10
   1   7  -3  291.28   18.35
   1   7  -3  289.03   18.04
   1   7  -3  305.45   17.84
  -1  -7   3  278.12   16.90
  -1   9   1  137.50    8.18
   1  -9  -1  143.65    9.23
  -1   9   1  125.07    7.90
   1  -9  -1  138.22    8.74
   1  -9  -1  151.81    9.85
   4   1  -6  101.59    6.52
  -4  -1   6  107.97    6.84
  -4  -1   6   98.71    7.28
   4   1  -6   96.95    6.34
  -7   1  -2   66.59    3.59
   7  -1   2   69.24    4.78
  -7   1  -2   67.18    3.77
  -7   1  -2   57.95    3.78
  -1   8  -2   52.88    4.02
  -1   8  -2   51.43    3.45
   1  -8   2   57.54    3.89
   1  -8   2   64.74    4.85
   1  -8   2   58.30    4.27
   1  -8   2   55.34    4.16
  -1   8  -2   55.30    3.70
   7   0   5   25.98    2.17
  -7   0  -5   36.71    2.65
  -7   0  -5   26.38    2.50
  -7   0  -5   25.88    2.63
   0   2  11   26.93    2.56
   0  -2 -11   23.81    1.79
   0   2  11   24.94    2.85
   0  -2 -11   28.85    2.45
   6   1  -2   76.38    5.22
  -6  -1   2   73.80    5.58
  -6  -1   2   83.90    5.32
  -6  -1   2   88.14    5.62
   0  -9  -1   71.72    4.77
   0   9   1   65.51    2.82
   0   9   1   71.73    2.08
   0  -9  -1   82.59    5.78
  -7   1  -4   76.81    5.14
   7  -1   4   82.83    5.50
  -7   1  -4   71.41    5.00
  -2  -9  -7    0.82    1.16
   2   9   7    1.75    0.52
   2   9   7    2.20    1.30
   6  -2  -3   50.93    3.76
  -6   2   3   52.46    2.73
  -6   2   3   48.03    1.36
   6  -2  -3   53.21    3.77
  -6   2   3   62.45    2.56
  -6  -2  -9    0.74    0.87
   6   2   9   -0.18    0.93
   6   2   9    2.38    1.44
   6   2   9    1.15    1.19
  -6  -2  -9    1.79    1.09
   6  -2   7   55.46    4.45
  -6   2  -7   50.70    3.74
   6  -2   7   64.17    4.32
   4  -7  -5   18.00    1.72
   4  -7  -5   18.42    2.32
   4  -7  -5   20.73    1.72
   4  -7  -5   22.33    2.20
   4  -7  -5   22.67    2.83
   4  -7  -5   19.39    1.88
  -2   9   2   22.14    1.90
  -2   9   2   20.24    1.63
   2  -9  -2   17.76    2.76
   2  -9  -2   17.71    1.71
   2  -9  -2   19.77    1.59
   3  -6  -8   67.14    4.84
   3  -6  -8   85.14    5.75
   3  -6  -8   74.69    4.67
   3  -6  -8   85.01    5.14
   3  -6  -8   66.65    4.94
   3  -6  -8   73.27    5.90
   1  -7   4    0.64    1.45
   1  -7   4    2.37    1.10
  -1   7  -4    0.66    1.17
  -1   7  -4    3.34    0.83
  -3   8  -1   52.98    2.18
   3  -8   1   53.47    3.59
   3  -8   1   47.03    3.93
   3  -8   1   54.95    3.73
  -3   8  -1   59.16    1.99
  -6  -5  -7    8.39    1.19
  -6  -5  -7    7.91    1.20
  -6  -5  -7    6.93    1.50
   6   5   7    8.41    0.95
   2   5  -5   28.08    2.29
   2   5  -5   27.52    2.26
   2   5  -5   35.35    2.60
  -2  -5   5   25.46    2.39
   2   3  -7  383.47   23.47
   2   3  -7  386.62   23.61
  -2  -3   7  398.52   24.32
   2   3  -7  402.24   23.54
   3   4  -5  117.66    7.57
  -3  -4   5  117.88    7.76
   3   4  -5  123.40    7.67
   2  -7   4   29.56    2.78
   2  -7   4   36.21    2.82
  -2   7  -4   28.69    2.69
  -2   7  -4   33.78    2.38
  -2   7  -4   34.28    2.59
  -4  -5 -11   23.99    1.92
  -4  -5 -11   25.93    2.62
  -4  -5 -11   32.76    2.96
   4   5  11   23.97    2.59
   4   5  11   22.37    1.62
   2  -4   8  104.45    6.38
  -2   4  -8  101.95    6.57
   2  -4   8  105.02    6.84
  -2   4  -8  102.26    6.97
   2  -4   8   93.92    6.44
   2  -4   8   98.22    6.63
  -4   1   7  123.41    7.70
   4  -1  -7  115.86    7.50
  -4   1   7  115.20    8.48
  -6   5  -1   52.63    3.93
   6  -5   1   66.06    4.30
  -6   5  -1   56.43    3.87
   6  -5   1   56.20    4.04
   6  -5   1   54.03    3.75
   6  -5   1   64.31    4.36
  -6   1   3   79.83    5.07
   6  -1  -3   70.45    4.92
  -6  -3  -9   14.13    1.84
  -6  -3  -9   13.08    1.46
   6   3   9   13.19    1.93
  -6  -3  -9   11.38    1.37
   3   8   9   65.73    4.57
   3   8   9   62.91    3.92
  -3  -8  -9   67.79    5.02
   3   8   9   67.30    5.26
  -3  -8  -9   64.26    4.00
  -3  -8  -9   63.08    5.31
  -6   5   0  101.32    6.26
   6  -5   0   89.49    6.12
   6  -5   0   87.55    6.29
   6  -5   0  108.16    6.48
  -6   5   0   88.63    6.30
  -7  -2  -4   70.84    5.24
  -7  -2  -4   78.30    5.16
  -7  -2  -4   74.11    5.42
  -7  -2  -4   82.26    5.30
   7   2   4   79.32    5.30
  -5  -6  -9   11.88    1.24
  -5  -6  -9   10.36    1.90
  -5  -6  -9   12.75    1.91
   4   8   6  131.61    8.20
   4   8   6  107.00    6.89
  -6   3  -6   80.15    5.61
   6  -3   6   88.01    5.63
  -6   3  -6   88.86    5.72
   6  -3   6   76.06    5.67
  -4   1 -10    5.85    1.30
   4  -1  10    5.21    0.89
   4  -1  10    5.84    1.49
   4  -1  10    7.64    0.99
   4  -1  10    6.34    1.62
   5  -5   5   85.00    5.78
  -5   5  -5   81.76    5.71
  -5   5  -5   89.19    5.73
   5  -5   5   85.90    5.90
   2  -8   2  288.64   16.61
   2  -8   2  256.12   16.07
  -2   8  -2  267.39   16.22
  -2   8  -2  275.16   16.41
   2  -8   2  263.81   16.36
  -2   8  -2  259.74   16.60
  -7  -2  -5   49.53    3.82
  -7  -2  -5   52.66    3.97
   7   2   5   49.92    3.55
  -7  -2  -5   50.09    3.72
   7   1   2    6.08    1.23
  -7  -1  -2    4.78    1.21
  -7  -1  -2    6.41    1.23
  -7  -1  -2    5.57    1.31
  -1  -9  -8   46.30    2.96
  -1  -9  -8   24.98    1.58
   1   9   8    6.00    0.70
   1   9   8   46.74    2.37
  -2  -9  -3    0.62    0.29
   2   9   3    0.64    0.62
  -4   5   7   -0.16    0.22
  -4   5   7   55.16    3.26
   4  -5  -7   43.93    3.35
   4  -5  -7   48.18    3.46
   4  -5  -7   48.62    4.19
   3   3  -6   92.77    6.15
   3   3  -6  100.97    6.31
  -3  -3   6   96.70    6.68
  -3  -3   6  104.43    7.00
  -5  -5 -10  207.75   12.70
  -5  -5 -10  208.09   13.48
  -5  -5 -10  210.77   13.22
  -5  -5 -10  207.60   13.25
   6  -3  -3  130.51    8.68
   6  -3  -3  129.31    8.40
  -6   3   3  147.04    9.31
  -6   3   3  141.21    9.52
   6  -3  -3  134.40    8.84
   6  -3  -3  149.41    8.67
   2  -9  -5   84.54    5.63
   2  -9  -5   61.18    3.90
   2  -9  -5   58.78    3.87
   2  -9  -5   66.09    3.93
   2  -9  -5   59.14    4.52
   2  -9  -5   50.28    4.14
   4   8   5   62.32    3.83
   4   8   5   62.89    4.10
   4   8   5   70.43    5.26
  -2   0   9   -0.23    1.75
  -2   0   9    0.11    0.92
   2   0  -9   -0.49    0.96
   2   0  -9    0.22    0.61
   2   0  -9    2.14    0.96
  -6  -4  -1  424.14   25.63
   6   4   1  430.21   26.01
   4   7   1    1.00    0.76
  -4  -7  -1    2.43    0.79
   4   7   1    0.93    0.72
   4   7   1   -0.54    1.48
  -5   0   5  111.46    7.14
   5   0  -5  118.67    7.24
  -5   0   5  114.11    7.81
   5   0  -5  102.56    7.18
  -6  -1  -9    3.60    1.19
  -6  -1  -9    2.94    1.01
   6   1   9    1.42    1.16
   6   1   9    2.02    1.33
   6   1   9    0.79    0.99
   6  -1   8   88.62    5.52
   6  -1   8   78.12    5.52
  -6   1  -8   77.98    5.43
   6  -1   8   75.52    5.77
   4   1  11   41.56    2.79
   4   1  11   38.72    3.32
  -4  -1 -11   36.05    3.30
  -4  -1 -11   38.39    3.41
  -4  -1 -11   50.89    3.12
   4   1  11   41.32    3.83
  -5   6  -3   14.29    1.41
   5  -6   3   14.98    1.62
   5  -6   3   18.38    1.52
   5  -6   3   16.96    1.68
   5  -6   3   16.56    1.98
  -5   6  -3   14.75    1.68
  -4  -6   1   85.46    5.54
   4   6  -1   88.92    5.76
   4   6  -1   86.87    5.74
   4   6  -1   91.55    6.33
  -2   3  -9   36.61    2.75
  -2   3  -9   37.14    3.15
   2  -3   9   39.71    2.83
   2  -3   9   41.14    3.09
   1   4  -7   11.79    1.29
   1   4  -7   13.92    1.51
   1   4  -7   13.23    1.51
  -1  -4   7   11.80    1.66
   3   0  -8    0.68    0.89
  -3   0   8    0.86    1.65
   3   0  -8    0.79    0.66
  -3   0   8    0.51    0.88
  -7  -1  -6  155.75    9.88
  -7  -1  -6  159.84    9.91
   7   1   6  157.30    9.79
  -7  -1  -6  144.48    9.67
   2  -5   7  139.54    9.53
  -2   5  -7  145.69    9.13
  -2   5  -7  143.44    9.47
   2  -5   7  148.73    9.19
   2  -5   7  153.21    9.35
   5   7   6  117.17    7.14
  -5  -7  -6  144.59    8.52
  -5  -7  -6  118.10    9.17
   1  -9  -7   19.31    1.99
   1  -9  -7   16.83    1.57
   1  -9  -7   19.15    2.45
   1  -9  -7   21.84    2.19
  -1   9   7   20.77    2.20
   1  -9  -7   20.87    1.43
   1  -9  -7   22.97    1.63
   1  -9  -7   19.18    2.66
   0   8  -2    4.12    1.27
   0  -8   2    6.34    1.32
   0  -8   2    5.56    1.03
   0   8  -2    4.40    0.91
   0  -8   2    4.80    1.52
  -7   1  -1   61.22    4.10
  -7   1  -1   59.36    4.16
  -7   1  -1   52.94    4.23
  -7   1  -1   59.28    4.00
   7  -1   1   60.65    4.30
   3   5  -4  134.68    8.45
  -3  -5   4  137.64    9.00
   3   7  -1   13.31    2.13
   3   7  -1    8.85    1.13
   3   7  -1   12.65    1.75
   2   0  11    3.20    1.24
  -2   0 -11    2.20    0.74
   2   0  11    2.30    0.67
  -2   0 -11    1.88    1.08
   2   0  11    3.49    1.69
  -6  -5  -3   33.10    2.60
   6   5   3   37.69    2.82
   7  -2   2  158.00    9.68
  -7   2  -2  190.32   11.51
  -7   2  -2  178.75   11.19
   6  -5   2   58.93    4.13
  -6   5  -2   58.57    4.47
  -6   5  -2   62.28    4.13
   6  -5   2   59.49    4.53
   6  -5   2   59.84    4.24
  -6   5  -2   69.85    4.41
   6  -5   2   74.14    4.53
   4   8   7  152.41    9.31
  -4  -8  -7  170.65   10.29
  -7   2  -3   41.11    3.19
   7  -2   3   40.97    3.23
  -7   2  -3   42.78    3.01
  -7   1  -5    0.62    0.87
   7  -1   5    0.11    0.39
   7  -1   5    0.16    0.83
   7  -1   5    0.95    1.02
  -7   1  -5   -1.28    1.12
   5   7   5   58.46    3.75
  -5  -7  -5   54.28    4.43
  -7  -2  -3   20.40    1.99
  -7  -2  -3   20.13    2.14
  -7  -2  -3   19.88    2.00
  -7  -2  -3   21.57    2.12
   7   2   3   19.53    1.91
  -7   0  -1   86.04    5.79
   7   0   1   86.88    5.87
  -7   0  -1   87.60    5.96
   0  -6 -11    5.27    2.22
   0   6  11    8.78    1.56
   0  -6 -11    9.35    1.39
  -3   4  -8   14.79    1.58
  -3   4  -8   14.13    1.39
   3  -4   8   14.86    1.86
   3  -4   8   12.81    1.40
   3  -4   8   14.56    1.56
  -3   4  -8   13.94    1.76
   3  -4   8   15.54    1.81
   3  -8  -6   13.96    1.29
   3  -8  -6   14.72    1.38
   3  -8  -6   12.33    2.04
   3  -8  -6   18.01    1.92
   3  -8  -6   12.62    1.22
   3  -8  -6   13.28    1.48
  -1   4  -8    0.86    0.85
   1  -4   8   -0.06    0.72
  -1   4  -8    1.11    0.86
  -5   5   5  171.19   11.25
   5  -5  -5  187.00   11.55
   5  -5  -5  186.34   12.26
   5  -5  -5  182.30   11.61
   1   5  -6    0.68    0.91
  -1  -5   6    1.36    1.10
  -1  -5   6    0.46    0.83
   1   5  -6   -0.48    1.00
   1   5  -6   -0.22    0.79
  -5  -3   3   48.32    3.52
  -5  -3   3   51.02    3.55
  -5  -3   3   42.11    3.56
   5   3  -3   50.81    3.37
   5   3  -3   40.32    3.32
  -6   5   1   74.74    5.41
   6  -5  -1   79.76    5.39
   6  -5  -1   80.02    5.50
  -6   5   1   83.86    5.37
   0  -9  -8    0.88    0.56
   0   9   8    0.58    1.23
   0  -9  -8    1.19    1.73
   0  -9  -8    0.82    1.16
  -5   0 -10   22.60    2.22
   5   0  10   19.26    2.29
   5   0  10   17.21    1.60
  -5   0 -10   20.44    1.88
   5   0  10   17.99    1.68
   5   0  10   16.85    2.20
  -3   0 -11   13.99    1.39
   3   0  11   18.32    2.48
   3   0  11   15.24    1.96
   3   0  11   14.96    1.36
   3   0  11   15.78    1.18
   5  -6  -4    5.46    1.13
   5  -6  -4    9.78    1.98
   5  -6  -4    5.50    1.20
  -5   6   4    7.75    1.31
  -7  -2  -6   86.75    5.93
  -7  -2  -6   90.07    6.10
  -7  -2  -6   89.15    6.22
   7   2   6   90.58    5.87
   7   0   6   52.88    3.56
   7   0   6   49.63    3.22
  -7   0  -6   53.35    4.33
  -7   0  -6   59.97    4.22
  -7   0  -6   58.98    4.19
   7   0   6   51.38    3.92
   2  -9  -1   67.93    5.01
  -2   9   1   61.80    3.98
   2  -9  -1   54.57    3.67
  -2   9   1   53.15    3.69
   2  -9  -1   53.33    3.88
   2  -9  -1   52.29    4.27
   3  -3   9  272.32   16.82
  -3   3  -9  264.14   16.46
   3  -3   9  264.36   16.29
   3  -3   9  275.23   16.36
   3  -3   9  265.38   16.60
  -3   3  -9  279.52   16.86
   1   8  10   11.94    2.24
   1   8  10   10.98    1.43
  -1  -8 -10    9.97    1.69
  -1  -8 -10   12.26    2.49
  -1  -8 -10   12.97    2.14
  -5  -7  -7  190.04   11.21
  -5  -7  -7  163.49   11.93
   4   8   4   53.26    4.14
   4   8   4   39.20    2.61
   4   8   4   42.99    2.89
  -4  -8  -4   40.90    2.87
  -2  -4 -12  174.95   10.61
   2   4  12  163.20   10.70
   2   4  12  164.46    9.90
   2   4  12  145.15    9.03
  -2  -4 -12  165.14   10.90
  -2  -4 -12  163.62   11.20
   2   4  12  160.33   10.20
   2   4  12  163.10   10.09
  -2   4  10   59.18    5.16
   2  -4 -10   49.27    3.97
  -2   4  10   55.96    4.14
   2  -4 -10   68.50    3.97
   2  -4 -10   59.93    4.84
   2  -4 -10   62.67    4.17
   2  -4 -10   58.33    3.74
   1  -5   7   22.68    2.29
  -1   5  -7   24.40    2.06
  -1   5  -7   26.06    2.18
   1  -5   7   21.54    1.81
  -5  -4   2  115.52    7.48
   5   4  -2  101.24    6.62
   1   3  -8    4.27    0.92
  -1  -3   8    3.99    1.23
   1   3  -8    2.66    0.99
   1   3  -8    2.83    0.89
  -2  -8 -10   32.91    3.35
  -2  -8 -10   34.46    3.10
  -2  -8 -10   34.49    3.69
   2   8  10   30.61    2.66
   2   8  10   36.40    3.51
   2   7  11   13.46    1.96
   2   7  11   14.76    2.30
  -2  -7 -11   13.42    1.83
  -2  -7 -11   13.86    2.19
  -2  -7 -11   12.81    2.35
   2   7  11   15.15    1.50
   2   9   8    6.02    1.36
   2   9   8    7.15    2.20
  -2  -9  -8    3.39    1.40
   2   9   8    4.91    0.62
   1  -8  -9   74.55    4.82
   1  -8  -9   68.97    4.99
   1  -8  -9   72.06    5.63
   1  -8  -9   72.49    4.96
   0  -1  10   12.26    1.71
   0   1 -10   13.61    1.72
   0   1 -10   12.04    1.25
   0  -1  10    8.73    1.13
   2  -3 -10   95.53    6.20
   2  -3 -10  100.48    7.18
  -2   3  10   86.13    6.13
  -2   3  10  108.71    7.38
   2  -3 -10  103.05    6.29
   2  -3 -10  109.62    6.64
   0   7  -4   83.39    5.62
   0  -7   4   94.84    6.36
   0   7  -4   84.86    5.88
   0  -7   4   88.98    6.39
   0   7  -4   88.59    5.37
   1   9   1   -0.05    0.14
   1   9   1    0.66    1.33
   1   9   1   -0.20    0.66
  -1  -9  -1    0.26    0.71
  -1  -9  -1   -0.18    1.34
  -4   8   2  113.30    7.24
   4  -8  -2  112.60    7.02
   4  -8  -2  108.59    7.48
   4  -8  -2   92.86    7.32
   4  -8  -2  104.97    6.86
   4  -8  -2  134.10    7.10
  -6  -4  -9   15.09    1.60
  -6  -4  -9   10.58    1.35
  -6  -4  -9    8.94    1.75
   6   4   9   10.98    1.89
  -7   2  -1   17.81    1.70
  -7   2  -1   16.18    1.82
   7  -2   1   17.54    1.45
  -7   2  -1   18.35    1.45
   3   8   1   51.85    3.52
  -3  -8  -1   54.42    3.53
   3   8   1   54.31    3.67
   3   8   1   62.19    4.85
   3   8   1   56.04    4.16
   2   6  -4    0.19    0.79
  -2  -6   4    0.82    1.05
   2   6  -4   -0.69    1.24
  -2  -3 -12  143.67    8.53
   2   3  12  145.50    8.85
   2   3  12  130.39    8.88
   2   3  12  137.23    9.37
   2   3  12  124.90    7.80
  -2  -3 -12  119.91    8.68
  -6   0   3   32.86    2.95
  -6   0   3   37.59    2.95
   6   0  -3   33.45    2.60
  -6   0   3   31.36    2.43
   6   0  -3   28.82    2.62
  -6  -5  -8    0.18    1.25
  -6  -5  -8   -0.31    0.95
  -6  -5  -8    0.24    0.81
   7  -2   4   88.67    6.19
   7  -2   4   94.35    6.10
  -7   2  -4   85.90    5.63
   2   2  -8   84.19    5.42
  -2  -2   8   76.05    2.89
   2   2  -8   76.05    5.12
  -2  -2   8   84.96    3.86
   1  -3   9    3.49    0.79
  -1   3  -9    2.62    0.86
   1  -3   9    4.19    1.26
   1  -3   9    5.17    1.10
  -5  -2   4  108.23    6.98
   5   2  -4  113.28    6.96
  -5  -2   4  103.99    6.87
  -5  -2   4  107.80    6.50
   5   2  -4   98.58    6.91
  -5  -2   4   96.61    7.13
   3  -5   7   12.72    1.36
  -3   5  -7   13.90    1.59
  -3   5  -7   14.67    1.44
   3  -5   7   13.61    1.69
  -3   5  -7   16.04    1.89
   3  -5   7   13.31    1.56
   1   7  11    0.63    0.78
   1   7  11   -0.18    1.65
  -1  -7 -11    0.26    1.75
  -1  -7 -11   -0.61    1.49
  -1  -7 -11   -0.57    1.16
   1   7  11    1.92    1.35
   5   7   4    3.72    0.74
  -5  -7  -4    3.18    0.85
  -4   8   1   85.67    6.03
   4  -8  -1   87.07    5.62
   4  -8  -1   89.09    5.70
  -4   8   1   99.58    5.94
   4  -8  -1   89.24    5.62
   2  -7  -9   15.72    2.50
   2  -7  -9   21.12    2.53
   2  -7  -9   21.98    1.94
   2  -7  -9   17.99    1.72
   2  -7  -9   22.23    1.48
   2  -7  -9   25.02    1.92
   2  -7  -9   20.77    1.95
   2  -7  -9   21.57    3.00
   5   6   1   96.34    6.27
  -5  -6  -1   96.64    6.24
   5   6   1   97.90    6.31
  -6   4  -5    2.22    1.13
   6  -4   5    5.63    1.54
   6  -4   5    4.98    1.26
   6  -4   5    5.51    0.98
  -6   4  -5    4.02    0.99
  -3  -2   7    5.29    1.24
  -3  -2   7    5.94    1.59
   3   2  -7    5.23    0.96
   3   2  -7    5.11    1.18
  -3  -2   7    3.00    0.36
   3  -7   4    2.78    1.26
   3  -7   4    3.93    1.07
   3  -7   4    1.73    0.86
  -3   7  -4    0.75    0.86
  -3   7  -4   -0.10    1.01
   4  -7   3   26.81    2.23
  -4   7  -3   27.19    2.53
   4  -7   3   27.36    2.16
  -4   7  -3   33.16    2.52
   4  -7   3   24.01    2.40
   2  -8  -8  304.59   18.12
   2  -8  -8  269.96   18.35
   2  -8  -8  313.20   18.53
   2  -8  -8  282.98   19.17
   2  -8  -8  352.11   19.58
   2  -8  -8  340.16   18.54
   2  -8  -8  288.61   19.66
   2  -8  -8  307.51   18.70
  -4   6  -5    8.51    1.31
   4  -6   5    8.99    1.45
   4  -6   5    8.71    1.42
  -4   6  -5    9.61    1.41
   1  -7 -10  116.14    7.34
   1  -7 -10  115.14    7.86
  -1   7  10  116.25    7.70
   1  -7 -10  112.01    7.39
   3  -3  -9  384.48   21.73
  -3   3   9  365.15   21.94
   3  -3  -9  354.93   22.28
   3  -3  -9  351.90   21.45
  -3   3   9  360.16   22.99
  -3   3   9  355.30   22.65
   3  -3  -9  346.31   21.64
   0  -1 -11  114.91    7.24
   0   1  11  114.38    7.69
   0  -1 -11  124.44    7.84
   3   4  12  125.27    4.37
  -3  -4 -12  126.42    8.58
   3   4  12  119.47    5.02
  -3  -4 -12  127.21    8.30
   3   4  12  116.25    1.66
  -3  -4 -12  134.19    8.82
  -1   0  10   48.20    3.77
   1   0 -10   39.72    2.62
  -1   0  10   52.70    4.58
   1   0 -10   43.13    3.34
   1   0 -10   44.94    2.87
   1  -9   0   55.84    4.22
  -1   9   0   61.62    4.22
   1  -9   0   71.31    5.18
   1  -9   0   60.45    3.96
  -1   9   0   64.34    4.01
   1  -9   0   55.79    4.39
  -1   9   0   56.72    4.58
  -3   4   9    2.35    2.01
   3  -4  -9    1.53    1.21
  -3   4   9    0.64    1.34
   3  -4  -9    2.96    1.09
  -3   4   9    3.11    0.95
   3  -4  -9    4.30    1.66
   3  -4  -9    3.43    0.87
   3   3  12   62.99    3.63
  -3  -3 -12   70.41    5.06
   3   3  12   64.15    4.64
   3   3  12   52.95    3.46
   3   3  12   62.41    5.07
   3   3  12   63.74    4.63
  -3  -3 -12   67.00    4.78
   4  -8  -3   60.61    4.99
   4  -8  -3   71.03    4.53
   4  -8  -3   71.28    5.09
   4  -8  -3   66.45    4.29
   4  -8  -3   71.94    4.56
  -4   8   3   71.38    4.83
   2  -9  -6   52.26    3.40
   2  -9  -6   47.94    4.26
   2  -9  -6   53.46    4.03
   2  -9  -6   52.48    3.50
   2  -9  -6   62.02    4.93
   2  -9  -6   49.36    3.77
   2  -9  -6   57.41    3.59
   5  -7  -1   68.14    5.09
   5  -7  -1   68.03    4.48
  -5   7   1   79.00    5.07
   5  -7  -1   80.39    4.93
  -5   7   1   74.49    5.18
   5  -7  -1   76.12    4.84
  -6   4   3   21.42    2.28
   6  -4  -3   15.46    1.86
   6  -4  -3   19.65    2.24
  -6   4   3   20.60    2.09
   6  -4  -3   22.81    1.89
  -7  -1  -1   69.93    5.24
   7   1   1   79.69    5.47
  -7  -1  -1   76.48    5.22
  -7  -1  -1   77.29    5.31
  -7  -1  -1   83.00    5.39
   2   5  12  182.02    4.86
   2   5  12  167.91    6.10
   2   5  12  148.21    4.60
  -2  -5 -12  169.86   10.77
  -2  -5 -12  160.17   11.12
  -4  -7 -10    1.12    1.38
  -4  -7 -10   -0.31    0.62
  -4  -7 -10    1.92    1.58
  -4  -7 -10    2.32    1.56
   1   0  11    1.19    0.64
   1   0  11    2.98    1.26
  -1   0 -11    1.13    0.66
  -1   0 -11    3.97    1.25
   1   0  11    2.12    1.83
  -4  -8  -8   72.58    6.13
  -4  -8  -8   88.61    5.32
   4   8   8   73.04    4.62
  -2   2 -10   46.47    3.29
   2  -2  10   48.25    4.13
   2  -2  10   50.05    3.39
   2  -2  10   49.57    3.57
   5  -3   8   15.52    1.53
  -5   3  -8   15.39    1.62
  -5   3  -8   13.65    1.73
   5  -3   8   14.84    1.89
   5  -3   8   16.61    1.93
   5  -3   8   16.91    1.75
   6   0   9   29.01    2.34
   6   0   9   24.44    2.73
  -6   0  -9   26.26    2.33
   6   0   9   27.79    2.60
  -6   0  -9   29.54    2.63
  -2   5  10   61.08    4.28
   2  -5 -10   49.05    3.90
   2  -5 -10   58.20    3.64
   2  -5 -10   66.43    4.08
   2  -5 -10   58.95    3.92
  -2   5  10   55.26    4.94
   2  -5 -10   62.81    5.03
   2  -5 -10   61.26    4.40
  -7  -3  -5  362.11   22.29
  -7  -3  -5  371.08   22.55
   7   3   5  358.56   21.70
  -7  -3  -5  363.75   22.20
   7   2   2   52.49    3.85
  -7  -2  -2   53.41    4.29
  -7  -2  -2   63.96    4.36
  -7  -2  -2   61.07    4.18
  -7  -2  -2   56.76    4.16
   6  -5   3   31.92    2.38
  -6   5  -3   27.87    2.23
  -6   5  -3   29.54    2.31
  -6   5  -3   28.30    2.46
   6  -5   3   27.56    2.13
   6  -5   3   33.22    2.66
   6  -5   3   27.76    2.29
   6  -5   3   24.48    2.58
   3   9   6   11.77    1.75
   3   9   6   12.63    1.16
  -3  -9  -6   13.15    1.96
   3   9   6   16.65    2.73
   2  -6   6    7.17    1.42
   2  -6   6    7.67    1.09
   2  -6   6   10.39    1.45
   4   4  -4  225.91   13.38
   4   4  -4  224.31   13.44
   4   4  -4  202.97   13.25
  -4  -4   4  203.90   12.83
   5  -7   0   61.58    4.59
   5  -7   0   74.49    4.53
  -5   7   0   68.25    4.72
  -5   7   0   69.24    4.57
   5  -7   0   61.42    4.19
   5  -7   0   64.55    4.35
   2   9   2   69.40    3.37
   2   9   2   74.35    3.79
   2   9   2   45.17    3.27
  -1  -6   5   27.67    2.25
   1   6  -5   28.47    2.10
   1   6  -5   26.60    2.45
   0   9   0   57.20    4.82
   0  -9   0   66.27    4.52
   0   9   0   71.25    4.25
   0   9   0   66.26    4.48
   0  -9   0   78.45    5.52
  -1   4  11   65.94    5.81
   1  -4 -11   70.76    4.29
  -1   4  11   65.12    5.50
  -1   4  11   70.94    4.94
   1  -4 -11   76.29    4.78
   1  -4 -11   62.84    4.15
   1  -4 -11   71.96    5.44
  -1  -4 -12   71.47    5.30
  -1  -4 -12   73.71    4.66
   1   4  12   88.26    5.97
  -1  -4 -12   83.97    5.06
   1   4  12   75.76    6.16
   1   4  12   71.47    6.44
  -1  -4 -12   77.89    5.80
   1   4  12   86.95    5.77
   3   9   5   24.75    2.41
   3   9   5   23.78    3.08
   3   9   5   20.75    1.68
  -7  -3  -4  136.27    8.57
  -7  -3  -4  132.74    8.93
  -7  -3  -4  133.84    8.66
  -7  -3  -4  134.05    8.65
   7   3   4  138.97    8.81
   3   6  -3   23.57    1.93
  -3  -6   3   21.68    2.23
  -5   3   6   47.94    2.96
   5  -3  -6   50.35    3.71
   5  -3  -6   40.16    3.29
  -5   3   6    0.04    0.24
   5  -3  -6   43.00    3.29
   5   3  11   83.69    5.27
  -5  -3 -11   84.44    6.00
   5   3  11   78.06    6.07
  -5  -3 -11   83.59    6.11
   5   3  11   82.82    6.17
  -5  -3 -11   88.85    5.60
   4   6  11    8.08    1.79
  -4  -6 -11    3.18    1.55
  -4  -6 -11    3.76    0.76
   4   6  11    4.00    0.62
  -4  -6 -11    4.90    1.59
  -4  -6 -11    4.57    1.55
  -7   1   0    8.37    1.39
  -7   1   0    6.63    1.37
  -7   1   0    7.02    1.56
  -7   1   0    9.30    1.16
   7  -1   0   10.18    1.49
  -4  -3   5    7.40    1.29
   4   3  -5    4.92    1.05
  -4  -3   5    3.37    1.34
   4   3  -5    5.50    1.03
   4   3  -5    4.04    1.16
  -6   5   2   18.54    1.83
  -6   5   2   16.53    1.94
   6  -5  -2   16.58    1.98
   6  -5  -2   21.55    2.50
   6  -5  -2   22.95    2.05
  -5  -7  -8    2.53    1.53
  -5  -7  -8    2.05    0.77
  -5  -7  -8    1.75    1.46
   5  -7  -2    4.12    1.10
   5  -7  -2    3.34    0.36
  -5   7   2    7.21    1.20
   5  -7  -2    7.85    1.59
   5  -7  -2    5.54    1.03
   5  -7  -2    5.95    1.49
  -5   7   2    6.09    1.28
   7   1   7  153.43    9.56
  -7  -1  -7  159.52    9.84
  -7  -1  -7  148.16   10.02
   7   1   7  154.97   10.11
  -7  -1  -7  154.28   10.01
  -3   2 -10   68.92    5.13
  -3   2 -10   72.55    4.78
   3  -2  10   76.76    4.99
   3  -2  10   74.84    5.56
   3  -2  10   80.53    4.97
   3  -2  10   73.14    5.27
   4   0  -7  107.53    7.26
  -4   0   7  102.41    7.55
  -4   0   7  106.88    6.87
   4   0  -7  114.73    7.10
  -2   2  10   83.76    6.47
   2  -2 -10   72.91    4.37
   2  -2 -10   60.77    4.61
   2  -2 -10   67.08    4.75
  -2   2  10   77.89    5.43
  -6  -3   1  138.90    8.47
  -6  -3   1  125.50    8.33
   6   3  -1  124.35    8.04
  -5   4  -7    6.24    1.26
  -5   4  -7    9.75    1.44
   5  -4   7    7.40    1.22
   5  -4   7    9.17    1.43
   5  -4   7    9.45    1.52
   5  -4   7    8.44    1.55
  -7  -3  -6  230.38   14.41
   7   3   6  237.40   14.51
  -7  -3  -6  229.02   14.62
  -7  -3  -6  231.19   14.26
   7  -1   6   16.47    1.91
  -7   1  -6   16.59    1.88
   7  -1   6   12.63    1.49
  -7   1  -6   16.02    1.77
   7  -1   6   16.03    1.37
  -5   2  -9    6.90    1.39
   5  -2   9    8.37    1.48
   5  -2   9    6.99    1.11
   5  -2   9    7.66    1.63
   5  -2   9    7.47    1.06
   4  -8   0   24.44    2.52
   4  -8   0   25.37    2.07
   4  -8   0   26.63    1.92
  -4   8   0   23.05    2.12
   4  -8   0   23.51    1.97
  -4   8   0   27.01    1.91
   3  -8   2  156.41    9.84
  -3   8  -2  162.71    3.65
   3  -8   2  148.30    9.54
   3  -8   2  149.61    9.35
  -3   8  -2  155.45    3.14
  -5   2   6   29.84    2.19
  -5   2   6   30.59    3.20
  -7  -2  -7  223.52   13.68
  -7  -2  -7  244.73   14.50
   7   2   7  241.16   14.69
  -7  -2  -7  225.10   14.29
  -7  -2  -7  227.97   14.09
   0  -8 -10   31.34    3.35
   0  -8 -10   29.12    3.67
   0   8  10   31.13    2.53
   0  -8 -10   33.41    2.84
   1  -6   6    6.90    1.42
   1  -6   6    6.81    1.53
  -1   6  -6    5.02    1.20
  -1   6  -6    5.19    1.02
   1  -6   6    5.91    0.98
   1  -3 -11   35.20    2.73
   1  -3 -11   30.08    2.15
  -1   3  11   28.22    3.55
  -1   3  11   32.81    2.82
  -1   3  11   31.65    3.33
   1  -3 -11   32.65    2.16
  -5  -5   1  499.88   30.07
   5   5  -1  472.74   27.16
   5   5  -1  429.53   27.12
   6   2  -2   94.26    6.29
  -6  -2   2  110.38    6.74
  -6  -2   2   93.52    6.64
  -6  -2   2   99.18    6.35
  -3  -7 -11   54.46    4.54
   3   7  11   57.94    4.10
  -3  -7 -11   55.14    3.56
  -3  -7 -11   52.06    4.76
  -3  -7 -11   62.97    4.56
   3   7  11   64.06    4.89
   3   7  11   53.56    4.53
  -6  -5  -2   85.00    5.66
   6   5   2   92.88    6.11
   1   3  12   42.82    4.32
   1   3  12   39.99    3.62
  -1  -3 -12   44.85    3.35
  -1  -3 -12   40.08    3.03
   1   3  12   40.82    3.86
  -1  -3 -12   40.45    2.71
   1   3  12   46.71    3.35
   3   5  12  145.57    8.80
   3   5  12  135.49    9.56
   3   5  12  140.69   10.03
  -3  -5 -12  148.28   10.04
  -3  -5 -12  147.74    9.74
   2   2  12  116.51    7.67
  -2  -2 -12  107.61    6.96
   2   2  12  115.44    8.17
  -2  -2 -12  113.90    7.54
  -2  -2 -12  119.17    7.28
   2   2  12  106.07    6.72
   2   2  12  114.99    7.74
   3   9   7   13.19    1.82
   3   9   7   10.56    1.03
  -3  -9  -7   10.70    1.86
   3  -2  -9  202.66   12.04
   3  -2  -9  205.86   12.08
   3  -2  -9  185.06   12.32
   3  -2  -9  191.42   12.28
  -3   2   9  228.64   13.92
  -3   2   9  197.74   12.75
   4  -7  -6    9.94    1.91
   4  -7  -6   12.44    1.66
   4  -7  -6    8.77    1.30
   4  -7  -6    8.57    2.10
   4  -7  -6   10.90    1.26
   4  -7  -6   11.59    1.45
   4   8   3   26.58    1.89
   4   8   3   26.36    2.08
   4   8   3   30.92    3.17
  -4  -8  -3   23.74    1.89
  -5  -2 -11  273.82   16.18
   5   2  11  272.04   16.44
  -5  -2 -11  257.82   16.22
   5   2  11  249.50   16.32
   5   2  11  253.98   15.53
  -5  -2 -11  250.32   15.68
  -7   2   0   44.70    3.15
  -7   2   0   41.62    3.12
  -7   2   0   36.41    2.61
   7  -2   0   38.71    2.70
  -7   0   0   33.68    2.61
   7   0   0   31.79    2.72
  -7   0   0   30.50    2.82
  -5  -4 -11  196.42   11.77
   5   4  11  184.96   11.14
  -5  -4 -11  180.59   11.29
  -5  -4 -11  177.47   11.92
   5   4  11  173.97   11.98
   4  -6  -7    0.73    1.10
   4  -6  -7    0.42    0.86
   4  -6  -7    0.24    1.72
   4  -6  -7    0.20    0.92
  -3   5   9    2.12    0.90
   3  -5  -9    1.32    1.38
  -3   5   9    1.32    1.52
   3  -5  -9    2.83    1.09
   3  -5  -9    1.71    0.89
   3  -5  -9    0.93    1.68
   3  -5  -9    1.15    0.70
  -7   3  -2  112.30    6.78
  -7   3  -2  100.94    7.16
   7  -3   2  108.72    6.73
  -7   3  -2  109.79    7.13
   7  -3   2   92.77    6.53
   1   5  12   54.95    4.83
   1   5  12   78.40    5.10
   1   5  12   64.66    5.63
  -1  -5 -12   65.92    5.16
  -1  -5 -12   58.91    4.48
   1   5  12   66.71    5.23
  -7   2  -5   -0.28    0.83
   7  -2   5   -1.23    1.23
   7  -2   5   -0.12    1.05
   1  -5 -11  249.24   13.78
   1  -5 -11  220.33   13.56
   1  -5 -11  216.39   14.91
  -1   5  11  237.75   15.32
  -1   5  11  264.72   16.48
   1  -5 -11  233.45   14.13
  -1  -9  -9   24.08    2.69
  -1  -9  -9   31.46    2.04
   1   9   9   26.11    2.45
  -1  -9  -9   24.17    2.95
  -1  -9  -9   28.95    3.40
  -3  -2 -12   29.39    2.56
   3   2  12   29.42    3.02
   3   2  12   28.65    3.36
  -3  -2 -12   28.93    2.75
   3   2  12   35.56    3.12
   3   2  12   30.88    2.16
  -1  -2   9   43.77    3.75
   1   2  -9   38.57    2.70
  -1  -2   9   37.39    2.68
   1   2  -9   39.29    3.23
   1   2  -9   38.24    2.77
  -1  -2   9   40.72    3.23
   4   5  -3  177.26   10.92
  -4  -5   3  167.82   10.76
   4   5  -3  175.12   11.24
  -2   9   0   40.19    3.32
   2  -9   0   43.27    2.94
   2  -9   0   36.15    3.11
   2  -9   0   47.33    4.13
  -2   9   0   41.77    3.63
  -2   9   0   52.12    3.19
   2  -9   0   41.42    3.48
   4   0  11   42.29    3.99
   4   0  11   47.20    3.06
   4   0  11   44.00    3.09
  -4   0 -11   48.63    3.30
   4   0  11   44.66    3.59
  -4   0 -11   43.86    3.70
   4   0  11   48.05    3.89
   5  -4  -6    4.35    1.21
  -5   4   6    4.30    1.60
   5  -4  -6    2.68    0.73
   5  -4  -6    2.99    1.09
   5  -4  -6    2.03    1.46
   4  -8  -4    5.85    1.60
   4  -8  -4    4.90    0.92
   4  -8  -4    3.32    0.58
   4  -8  -4    4.10    0.50
   4  -8  -4    4.29    0.92
   4  -8  -4    3.00    0.91
   4  -8  -4    5.86    1.40
   5  -7   1   72.63    4.66
   5  -7   1   65.06    4.59
  -5   7  -1   63.80    4.77
   5  -7   1   66.39    5.12
   5  -7   1   79.69    4.84
  -5   7  -1   74.84    4.64
  -3  -8 -10    2.21    1.33
  -3  -8 -10    1.99    1.81
   3   8  10    2.08    1.15
  -3  -8 -10    0.45    0.47
   3   8  10   -0.02    0.12
  -3  -8 -10    0.97    1.48
   3   8  10    1.88    1.93
   3   9   4   52.79    4.54
  -3  -9  -4   45.11    2.98
   3   9   4   51.19    3.83
   3   9   4   44.27    3.16
  -5  -6 -10  102.91    7.02
  -5  -6 -10  101.15    7.11
  -5  -6 -10  100.12    6.37
   3  -7  -8    0.27    1.75
   3  -7  -8    0.83    1.75
   3  -7  -8    1.39    0.55
   3  -7  -8    1.00    1.06
   3  -7  -8    0.48    0.61
   3  -7  -8    0.55    0.89
   3  -7  -8    2.09    0.86
   2   8  -1  145.37    9.40
   2   8  -1  142.48    8.95
   3  -9  -3   76.51    5.40
   3  -9  -3   79.38    4.83
  -3   9   3   79.78    5.19
   3  -9  -3   70.03    4.84
   3  -9  -3   74.12    4.77
  -5   6  -4   35.34    2.95
   5  -6   4   34.64    2.81
   5  -6   4   35.50    2.81
  -5   6  -4   42.90    3.10
   5  -6   4   38.51    3.15
   5   7   3   12.09    1.25
   5   7   3   12.00    1.36
  -5  -7  -3   12.56    1.38
  -7   3  -3   23.68    1.86
  -7   3  -3   20.83    2.08
   7  -3   3   25.28    2.08
  -7   3  -3   23.82    2.25
   7  -3   3   23.20    2.35
   7  -3   1   53.10    4.01
  -7   3  -1   53.45    4.10
   7  -3   1   57.30    4.01
   7  -3   1   57.27    4.09
  -7   3  -1   56.31    3.59
  -7   3  -1   59.53    4.13
   7   3   3   91.68    6.11
  -7  -3  -3   91.53    5.79
  -7  -3  -3   76.46    5.86
  -7  -3  -3   84.90    5.65
  -7  -3  -3   81.73    5.64
  -7   0  -7   76.78    5.20
   7   0   7   67.34    5.08
   7   0   7   66.45    4.54
  -7   0  -7   76.85    5.44
   7   0   7   72.85    4.62
  -7   0  -7   71.00    5.23
   1  -9  -8   99.09    5.32
   1  -9  -8   86.04    5.67
   1  -9  -8   84.07    6.36
   1  -9  -8   87.01    5.70
   1  -9  -8   82.25    6.24
   1  -9  -8   65.26    5.14
   1  -9  -8   82.89    4.98
   1  -2  10   47.72    3.38
  -1   2 -10   44.27    3.71
  -1   2 -10   47.24    3.23
   1  -2  10   44.39    3.74
   1  -2  10   48.75    3.29
  -1  -8   2  118.78    7.40
  -1  -8   2  112.14    7.75
   1   8  -2  119.73    7.81
   1   8  -2  132.77    8.28
  -5  -1   5   44.79    3.32
   5   1  -5   54.28    3.69
  -5  -1   5   45.41    3.86
   5   1  -5   43.93    3.60
   4  -4   8    0.77    1.22
  -4   4  -8    2.04    1.12
   4  -4   8    1.21    0.86
  -4   4  -8    1.29    0.89
  -4   4  -8    0.19    0.99
   4  -4   8    1.21    0.97
   4  -4   8    2.24    1.23
  -6  -6  -6    1.31    1.15
  -6  -6  -6    0.57    1.32
   6   6   6   -0.05    0.65
  -6  -6  -6    0.16    0.89
   0  -4   8   10.95    1.16
   0   4  -8   10.99    1.30
   0  -4   8   12.08    1.29
   0  -4   8   10.31    1.65
   0   4  -8   10.84    1.22
  -3   9   2   48.54    3.36
   3  -9  -2   53.19    3.39
   3  -9  -2   51.93    3.51
   3  -9  -2   49.78    3.56
   4  -3   9    0.28    0.76
   4  -3   9    1.63    1.12
   4  -3   9    0.85    1.16
  -4   3  -9    0.09    0.83
  -4   3  -9   -0.42    1.09
   4  -3   9    0.65    0.95
  -4   3  -9   -0.37    0.82
  -3   6  -6   21.40    1.83
   3  -6   6   21.07    1.81
   3  -6   6   18.93    2.08
   3  -6   6   22.04    2.17
   6   4   0   82.98    5.59
  -6  -4   0   85.02    5.72
   0  -5   7    0.08    0.74
   0   5  -7    0.92    0.85
   0  -5   7    0.43    0.93
   0   5  -7    0.96    1.01
   6   6   5   10.39    1.15
  -6  -6  -5   10.77    1.43
  -6  -6  -5   12.12    2.08
   5  -7  -3    0.73    0.92
  -5   7   3    0.61    1.05
   5  -7  -3   -0.60    1.26
   5  -7  -3   -1.03    1.12
   5  -7  -3    0.59    1.39
  -5   7   3    1.02    0.89
   0  -7 -11   74.44    6.15
   0   7  11   73.55    5.32
   0  -7 -11   79.13    5.86
   0  -7 -11   71.21    5.13
  -4  -2   6   38.21    3.00
   4   2  -6   34.70    2.38
   4   2  -6   30.78    2.53
   4   2  -6   33.51    2.70
  -4  -2   6   36.14    3.44
  -6   2   4    5.97    1.34
  -6   2   4    0.12    0.24
  -6   2   4    6.86    1.49
   2   9   9   26.64    2.83
   2   9   9   19.59    1.76
  -2  -9  -9   10.42    0.79
  -2  -9  -9   21.47    2.79
  -2  -9  -9   21.19    2.13
  -1   8  -3    3.78    0.99
  -1   8  -3    4.53    0.78
  -1   8  -3    3.32    1.37
   1  -8   3    3.82    1.21
   1  -8   3    3.67    1.72
   1  -8   3    4.16    0.96
  -6   2  -8   77.09    5.37
   6  -2   8   73.53    5.49
   6  -2   8   78.11    5.68
   6  -2   8   82.94    5.36
   2   6  12  106.22    6.87
   2   6  12   92.05    6.69
  -2  -6 -12   98.85    6.83
   2   6  12   91.80    5.93
  -2  -6 -12   99.24    7.38
   3  -9  -4   42.19    3.68
   3  -9  -4   45.16    3.08
   3  -9  -4   47.77    3.72
   3  -9  -4   45.83    3.15
  -7  -3  -7  171.30   10.56
   7   3   7  160.90    9.95
  -7  -3  -7  157.61   10.71
  -7  -3  -7  174.24   10.99
   4   7   0   -0.35    1.66
   4   7   0    1.75    0.81
   4   7   0    2.65    0.88
  -4  -7   0    1.92    0.88
   6   2  10    5.86    1.69
  -6  -2 -10    6.34    1.55
  -6  -2 -10    5.03    1.39
   6   2  10    5.66    1.13
   6   2  10    5.07    1.54
  -6  -2 -10    4.60    1.16
   6   3  10   46.17    4.09
  -6  -3 -10   45.55    3.85
  -6  -3 -10   49.22    3.43
   6   3  10   52.72    3.58
  -6  -3 -10   48.00    3.85
   6   3  10   48.21    3.95
  -6  -5  -9    7.31    1.15
  -6  -5  -9    7.91    1.39
  -6  -5  -9    4.82    1.58
  -6   3  -7  165.64    9.96
   6  -3   7  146.83   10.04
  -6   3  -7  146.94    9.95
   6  -3   7  159.79    9.80
   5  -1  -6   47.67    3.60
  -5   1   6   47.12    4.22
  -5   1   6   48.03    3.34
  -6  -1   3   74.74    5.27
  -6  -1   3   72.61    5.61
   6   1  -3   85.64    5.35
  -6  -1   3   93.27    5.72
  -6  -1   3   82.46    5.14
   6   1  -3   70.83    5.32
   3  -8  -7  104.88    8.49
   3  -8  -7  108.73    7.36
   3  -8  -7  109.38    7.25
   3  -8  -7  123.80    7.23
   3  -8  -7  118.12    8.20
   3  -8  -7  121.93    8.53
   3  -8  -7  117.64    7.74
   3  -8  -7  131.39    7.58
  -6  -6  -7   10.21    1.83
  -6  -6  -7    9.02    1.26
  -6  -6  -7    6.95    1.39
   6   6   7    8.80    0.99
   4  -3  -8   51.16    3.97
   4  -3  -8   70.54    4.70
  -4   3   8   65.69    4.37
  -4   3   8   60.02    5.12
  -4   3   8   72.28    5.58
   6  -3  -4   38.15    3.08
   6  -3  -4   35.81    3.15
  -6   3   4   41.92    3.70
  -6   3   4   44.43    3.43
   6  -3  -4   38.29    2.95
   0 -10  -5    2.30    0.67
   0  10   5    4.37    1.48
   0 -10  -5    2.20    1.79
   0  10   5    1.70    0.76
   2  -6 -10   17.31    2.66
   2  -6 -10   18.53    1.73
   2  -6 -10   18.98    1.75
  -2   6  10   17.42    1.89
   2  -6 -10   19.30    1.29
  -2   6  10   20.57    2.68
   2  -6 -10   21.79    2.29
   2  -6 -10   13.29    1.55
   5  -6  -5    0.85    0.99
   5  -6  -5    1.59    1.56
   5  -6  -5    0.87    0.99
  -1   2  11   -0.27    1.69
   1  -2 -11    0.48    0.55
  -1   2  11    1.05    1.03
   1  -2 -11   -1.23    0.98
  -1   2  11    0.65    1.51
   0  -9  -9   73.48    5.49
   0  -9  -9   82.83    5.02
   0  -9  -9   65.85    6.26
   0   9   9   68.82    4.87
  -4  -8  -9    4.31    1.51
  -4  -8  -9    6.71    0.88
  -4  -8  -9    8.00    2.00
   4   8   9    8.66    2.23
   4   8   9    8.17    1.41
   4   8   9    6.56    0.77
   4   3  12   32.77    3.62
   4   3  12   35.48    2.39
  -4  -3 -12   34.57    2.57
  -4  -3 -12   36.39    2.99
   2  -8   3   26.98    2.55
  -2   8  -3   26.09    2.30
   2  -8   3   25.93    2.14
   2  -8   3   26.77    2.44
  -2   8  -3   30.89    2.63
  -2   8  -3   25.14    2.07
  -3  -9  -8  124.56    8.56
   3   9   8  128.12    8.20
   3   9   8  121.69    7.50
   2   7  -3   20.59    2.19
  -2  -7   3   15.79    1.93
   2   7  -3   16.86    1.69
   2   7  -3   17.77    1.48
  -4  -4 -12    6.10    0.99
   4   4  12    7.86    1.77
   4   4  12    8.67    2.16
   4   4  12    7.04    0.78
  -4  -4 -12   10.88    1.61
   0  10   4   10.51    1.76
   0 -10  -4   16.31    2.44
   0  10   4   11.91    1.25
   0 -10  -4   11.24    1.15
  -1  -2 -12   34.64    2.47
   1   2  12   37.69    3.62
   1   2  12   35.85    3.96
   1   2  12   34.71    3.30
  -1  -2 -12   38.35    3.12
   1   2  12   41.39    2.90
  -5   5  -6    4.45    1.27
   5  -5   6    5.94    1.31
   5  -5   6    5.25    1.28
   5  -5   6    5.10    1.08
  -5   5  -6    6.79    1.28
   5  -5   6    3.90    1.36
  -7  -2  -1    8.16    1.49
  -7  -2  -1    7.24    1.38
   7   2   1    9.48    1.47
  -7  -2  -1    7.56    1.28
   4  -4  -8   28.36    2.30
  -4   4   8   30.37    3.20
   4  -4  -8   40.76    3.22
  -4   4   8   30.74    2.32
   4  -4  -8   28.38    2.35
   4  -4  -8   25.26    1.72
   5  -1  10    1.40    1.45
   5  -1  10    0.16    1.28
   5  -1  10    1.32    0.79
   5  -1  10    1.46    0.88
  -5   1 -10    1.13    1.08
  -2  -1   9   50.36    4.23
  -2  -1   9   42.46    3.45
   2   1  -9   40.85    3.20
   2   1  -9   42.80    2.96
  -3  -1   8   12.12    2.30
   3   1  -8   16.40    1.50
   3   1  -8   16.23    1.79
  -3  -1   8   17.82    1.81
   6  -5   4    1.59    0.62
   6  -5   4    1.61    0.90
  -6   5  -4    1.58    0.85
  -6   5  -4    2.02    1.15
   6  -5   4    2.58    0.86
   6  -5   4    2.63    1.17
   4  -8   1   60.49    4.07
  -4   8  -1   64.05    4.08
   4  -8   1   58.88    4.07
   4  -8   1   59.06    4.52
  -4   8  -1   62.54    4.37
   2  -9  -7  146.07    9.03
   2  -9  -7  162.35   10.25
   2  -9  -7  143.44    9.66
   2  -9  -7  169.02   10.62
   2  -9  -7  143.05    9.44
   2  -9  -7  172.53    9.35
   2  -9  -7  137.95    9.17
   0  -3   9   43.93    3.00
   0   3  -9   37.12    2.75
   0  -3   9   41.57    2.98
   0   3  -9   39.18    3.32
   0   3  -9   37.71    2.68
   0  -3   9   36.37    3.29
   5   1  11  147.03    9.77
   5   1  11  150.97    9.78
  -5  -1 -11  141.53    9.05
  -5  -1 -11  152.51    9.58
   5   1  11  140.35    8.88
  -5  -1 -11  144.33    9.50
   4  -5   7    1.83    1.26
  -4   5  -7    1.64    1.05
   4  -5   7    2.70    1.07
   4  -5   7    1.70    0.85
   4  -5   7    3.24    1.24
  -4   5  -7    3.87    1.04
  -4   5  -7    3.09    1.26
   7  -3   4  109.73    7.44
  -7   3  -4  107.14    6.85
  -7   3  -4  107.31    7.13
   7  -3   4  112.51    7.25
  -3   9   1   -0.41    0.82
  -3   9   1   -0.19    0.92
   3  -9  -1    0.90    0.79
   3  -9  -1    0.64    0.76
   7  -3   0   42.43    3.08
   7  -3   0   36.87    3.11
   7  -3   0   38.57    3.04
  -7   3   0   40.84    3.25
  -7   3   0   41.95    3.13
  -7   3   0   39.33    2.52
  -6   1   4   28.29    2.10
   6  -1  -4   24.88    2.37
  -5  -7  -9   84.08    6.98
  -5  -7  -9  105.31    6.31
  -7  -1   0   25.85    2.26
  -7  -1   0   24.23    2.30
   7   1   0   25.09    2.37
  -7  -1   0   20.99    2.09
   5   5  11   47.07    3.20
  -5  -5 -11   40.49    2.99
  -5  -5 -11   43.78    3.53
  -5  -5 -11   44.87    3.62
   1   9   0    8.91    1.66
  -1  -9   0    7.74    1.12
   1   9   0    9.45    1.16
   1   9   0    8.91    0.83
   6   6   4   36.57    2.69
  -6  -6  -4   40.94    3.49
  -6  -6  -4   34.67    2.78
   1  10   5   23.81    1.90
   1  10   5   27.02    2.55
   0  10   6   13.14    1.88
   0 -10  -6   13.76    1.12
   0 -10  -6   11.80    1.04
   0 -10  -6   11.61    1.65
   0  10   6   15.33    1.39
   4  -2  10   50.73    3.72
  -4   2 -10   49.12    3.93
   4  -2  10   44.37    3.86
  -4   2 -10   49.03    3.66
   4  -2  10   49.45    3.37
   4  -2  10   47.44    3.32
  -4   2 -10   53.27    3.55
   1   6  12   26.96    2.76
  -1  -6 -12   24.78    3.05
  -1  -6 -12   25.69    2.45
   1   6  12   27.50    2.95
  -6   5   3   -0.12    1.08
   6  -5  -3    0.22    1.05
   6  -5  -3    0.93    1.57
   6  -5  -3   -0.68    1.10
  -2   1 -11    3.07    0.88
   2  -1  11    2.97    0.80
   2  -1  11    1.28    1.65
   2  -1  11    3.50    1.42
  -3  -6 -12  175.65   11.88
   3   6  12  170.88   11.45
   3   6  12  188.73   11.55
  -3  -6 -12  186.57   11.81
  -3  -6 -12  181.55   12.17
   3   6  12  169.10   10.68
  -1   6  11  120.93    8.05
   1  -6 -11  136.65    6.63
   1  -6 -11   92.22    5.73
   1  -6 -11  120.10    6.20
   1   7  -4   82.96    5.55
   1   7  -4   77.25    4.99
   2  -1 -10  102.62    7.21
  -2   1  10  130.73    9.09
  -2   1  10  121.53    8.14
   2  -1 -10  108.43    7.37
   2  -1 -10  119.26    7.00
   1  10   6   12.64    1.19
   1  10   6   14.22    1.85
  -4   2   8   56.72    4.00
  -4   2   8   62.17    5.09
   3  -1  -9  138.09    8.44
   3  -1  -9  133.07    8.71
  -3   1   9  129.17    9.61
  -3   1   9  140.66    8.83
   6  -1   9    6.13    1.33
  -6   1  -9    3.25    1.21
   6  -1   9    3.53    1.45
   6  -1   9    5.14    1.13
   3   9   3   16.22    2.59
  -3  -9  -3   11.14    1.02
   3   9   3   13.37    1.32
   0  -6   6   61.05    4.26
   0   6  -6   63.11    3.96
   0   6  -6   54.06    4.00
   0  -6   6   55.75    3.95
   0   6  -6   57.28    4.16
  -6  -1 -10    6.44    1.53
  -6  -1 -10    5.54    1.42
  -6  -1 -10    4.77    1.19
   6   1  10   10.08    1.82
   6   1  10    7.50    1.58
   6   1  10    5.74    1.18
  -6   6   0   33.01    2.63
  -6   6   0   33.61    2.76
   6  -6   0   32.12    2.53
   6  -6   0   27.56    2.00
   6  -6   0   42.66    2.88
  -6  -4 -10   39.33    3.59
  -6  -4 -10   40.52    3.15
  -6  -4 -10   40.84    3.00
   6   4  10   33.04    3.22
  -3   1 -11    7.84    1.17
   3  -1  11   11.73    2.05
   3  -1  11    8.58    0.93
   3  -1  11    9.14    1.13
   3   8   0   65.53    5.11
   3   8   0   62.55    4.62
   3   8   0   64.39    4.15
   3   8   0   56.45    4.00
  -7   1   1  145.84   10.08
  -7   1   1  167.81    9.88
   7  -1  -1  163.43   10.44
  -2   7  -5    0.72    0.75
   2  -7   5    0.82    1.12
   2  -7   5    0.66    1.07
  -7  -2  -8  115.14    7.78
  -7  -2  -8  114.83    7.44
   7   2   8  114.09    7.15
   7   2   8  111.36    7.79
  -7  -2  -8  112.37    7.73
  -5   7  -2   17.90    1.88
  -5   7  -2   18.49    1.63
   5  -7   2   19.31    1.88
   5  -7   2   18.74    1.71
   5  -7   2   18.91    1.66
   5  -7   2   19.53    2.22
   1 -10  -4   -0.71    1.89
   1 -10  -4    0.14    1.31
   1 -10  -4    0.25    0.66
  -1  10   4    0.42    1.32
  -1  10   4   -0.60    0.80
   6  -4   6   52.22    4.05
   6  -4   6   56.14    3.99
  -6   4  -6   57.15    4.08
  -6   4  -6   53.92    4.00
  -1   9  -1  224.45   13.41
   1  -9   1  221.85   13.44
   1  -9   1  229.47   14.45
   1  -9   1  220.08   13.85
  -1   9  -1  211.69   13.59
   1  -9   1  211.98   13.75
  -1   9  -1  229.25   14.00
  -5   5   6   25.35    2.88
   5  -5  -6   23.44    2.79
   5  -5  -6   24.41    2.13
   5  -5  -6   20.69    2.18
   2   9   1  114.29    7.47
   2   9   1  119.46    7.27
   2   9   1  128.83    8.11
  -7  -4  -5   30.32    2.92
  -7  -4  -5   27.80    2.47
   7   4   5   25.17    2.12
   3  -6  -9   26.12    2.20
   3  -6  -9   19.98    1.95
  -3   6   9   26.20    2.14
   3  -6  -9   23.63    1.80
  -3   6   9   23.95    2.88
   3  -6  -9   21.17    2.03
   3  -6  -9   19.10    2.90
   3  -6  -9   31.71    2.90
   4   6  -2  244.12   14.12
   4   6  -2  211.91   13.56
   4   6  -2  218.75   13.61
   0  10   3   60.55    3.91
   0 -10  -3   64.34    5.06
   0 -10  -3   57.43    3.89
   0  10   3   51.55    4.37
  -7  -3  -2   24.07    2.16
   7   3   2   25.42    2.34
  -7  -3  -2   23.52    2.47
  -7  -3  -2   25.36    2.27
   2   1  12    2.95    1.50
   2   1  12    2.53    1.36
   2   1  12    1.09    0.63
   2   1  12    3.27    1.96
  -2  -1 -12    2.25    1.31
  -2  -1 -12    0.99    0.75
   1  10   4    0.82    1.29
   1  10   4    1.63    0.73
   7  -2  -1    6.49    0.97
  -7   2   1    4.17    1.29
  -7   2   1    5.45    1.19
  -7   2   1    4.35    0.66
   3  -9  -5   74.56    4.94
   3  -9  -5   88.87    5.12
   3  -9  -5   79.29    5.59
   3  -9  -5   77.63    5.77
   3  -9  -5   78.48    4.97
   3  -9  -5   70.06    5.06
   4   2  12   22.33    2.39
   4   2  12   20.91    1.66
   4   2  12   23.45    2.92
  -4  -2 -12   18.67    2.10
   0   0  11   -0.59    1.20
   0   0 -11    0.85    0.65
   0   0 -11    1.01    1.15
   7   1   8  136.32    8.96
  -7  -1  -8  139.44    9.05
  -7  -1  -8  138.65    9.33
   7   1   8  146.57    9.53
   7   1   8  147.92    8.93
  -7  -1  -8  146.77    9.31
   4  -8  -5    4.07    1.47
   4  -8  -5    3.64    0.95
   4  -8  -5    4.36    1.09
   4  -8  -5    2.62    0.37
   4  -8  -5    3.56    1.54
   4  -8  -5    2.89    0.91
  -6   6  -1   90.68    6.23
  -6   6  -1   95.29    6.11
   6  -6   1  100.14    6.16
   6  -6   1   92.45    5.95
   6  -6   1   91.51    5.97
   6  -6   1   83.20    5.68
  -1  10   5   13.75    1.45
  -1  10   5   16.32    2.06
   1 -10  -5   11.62    0.93
   1 -10  -5   10.87    1.76
   1 -10  -5   13.51    1.15
  -7  -4  -6   54.16    4.46
  -7  -4  -6   57.82    4.07
   7   4   6   56.14    3.85
  -1   7  -5   74.81    5.23
   1  -7   5   69.20    5.24
   1  -7   5   78.46    5.53
   0   4  12    2.30    1.27
   0   4  12    3.37    1.69
   0  -4 -12    2.71    0.82
   0  -4 -12    3.25    1.12
   0  -4 -12    2.76    0.46
   0  -8   3   45.90    3.37
   0   8  -3   43.92    3.24
   0  -8   3   55.66    4.15
   0   8  -3   46.54    3.58
   0  -8   3   47.73    3.80
   7  -2   6   -0.85    1.22
   7  -2   6   -0.52    1.11
  -7   2  -6    0.93    0.89
   7  -2   6   -0.26    1.18
  -5  -6   0   41.28    3.04
   5   6   0   41.08    3.12
   5   6   0   43.94    3.16
   4   8   2    6.56    2.20
   4   8   2    4.17    0.79
  -4  -8  -2    2.62    0.79
   4   8   2    2.90    0.86
   3   1  12    0.15    0.65
   3   1  12    0.36    1.31
   3   1  12    0.16    1.32
   3   1  12   -0.95    1.69
  -3  -1 -12   -0.21    0.76
   3   7  -2    0.25    1.27
   3   7  -2   -0.71    0.85
  -4  -5 -12   39.26    3.53
  -4  -5 -12   41.01    3.63
   4   5  12   39.61    3.67
   4   5  12   41.08    2.65
  -4  -5 -12   40.36    2.82
  -7   1  -7   45.65    3.41
   7  -1   7   44.43    3.50
   7  -1   7   42.40    3.16
  -7   1  -7   42.01    3.42
   7  -1   7   42.22    3.63
   7  -1   7   47.26    3.21
  -6  -6  -8   14.78    1.88
  -6  -6  -8   15.17    1.61
  -6  -6  -8   21.48    2.47
  -6   6   1   10.90    1.47
   6  -6  -1   11.59    1.50
   6  -6  -1   12.75    1.78
  -6   6   1   11.85    1.55
  -4   7  -4    1.61    0.96
  -4   7  -4    0.65    1.07
   4  -7   4    2.15    1.23
   4  -7   4    1.14    0.91
   4  -7   4    0.64    0.92
  -6   4   4   60.37    4.23
   6  -4  -4   52.21    3.90
   6  -4  -4   48.73    3.56
  -6   4   4   51.04    4.43
   6  -4  -4   55.93    3.77
   6  -4  -4   52.66    4.22
   1 -10  -3    5.90    0.93
  -1  10   3    8.79    1.11
  -1  10   3   -0.13    0.21
  -1  10   3    8.95    1.72
   1 -10  -3    8.68    2.20
   4  -5  -8    1.63    0.95
  -4   5   8    0.54    0.55
   4  -5  -8    1.46    0.46
  -4   5   8    2.85    1.72
   4  -5  -8    1.95    1.00
   4  -5  -8    3.17    1.65
   6   5   1   35.84    2.83
  -6  -5  -1   33.33    2.70
   2   8  11   16.63    1.80
  -2  -8 -11   19.26    2.66
  -2  -8 -11   21.57    2.93
   2   8  11   16.21    2.61
  -2  -8 -11   17.22    2.23
   5  -7  -4    0.10    0.93
   5  -7  -4    0.69    1.06
   5  -7  -4    1.46    0.88
   5  -7  -4    0.24    1.74
   5  -7  -4    0.59    1.29
   5  -7  -4    0.16    1.40
  -7  -4  -4   40.52    3.13
   7   4   4   39.78    3.01
  -7  -4  -4   35.96    2.94
  -7  -4  -4   37.89    3.41
   0   5  12   29.79    3.31
   0  -5 -12   29.62    2.36
   0   5  12   29.25    2.82
   0  -5 -12   22.58    1.48
   5   7   2    6.32    1.11
   5   7   2    6.02    1.05
   5   7   2    8.18    2.04
  -5  -7  -2    5.53    1.11
  -1  -8 -11   16.04    2.06
  -1  -8 -11   17.69    2.91
   1   8  11   14.51    1.61
  -1  -8 -11   20.74    2.59
   0  -3 -12    3.73    0.79
   0   3  12    4.53    1.36
   0  -3 -12    3.27    0.60
   0  -3 -12    5.17    1.21
   0   3  12    3.49    1.67
   1  10   7   11.82    1.10
   1  10   7   10.41    1.70
  -1 -10  -7   14.12    1.94
  -7  -3  -8  223.58   14.29
  -7  -3  -8  226.08   13.85
  -7  -3  -8  230.95   14.53
  -7  -3  -8  228.02   14.05
   7   3   8  223.26   13.61
  -7   0   1  144.66    9.17
   7   0  -1  151.78    9.77
   0  -9   1   85.92    5.81
   0   9  -1   86.89    5.65
   0   9  -1   91.50    6.10
   0   9  -1   85.14    5.38
   0  -9   1   80.06    5.41
   0  -9   1   89.68    6.25
   2  -9   1  113.45    7.39
  -2   9  -1  123.01    8.50
   2  -9   1  116.84    7.93
  -2   9  -1  130.00    8.26
   2  -9   1  119.89    7.67
   2  -9   1  128.15    8.61
  -2   9  -1  130.53    8.03
  -4  -7 -11   30.98    3.42
   4   7  11   34.35    2.75
  -4  -7 -11   35.85    3.42
  -4  -7 -11   35.19    2.43
  -4  -7 -11   35.78    3.31
   0  10   7    6.31    1.50
   0 -10  -7    4.65    1.29
   0  10   7    4.96    0.82
   0 -10  -7    5.10    2.18
   0 -10  -7    4.55    0.66
   1  -8 -10  113.87    7.44
   1  -8 -10  119.45    7.57
   1  -8 -10  133.40    8.34
   1  -8 -10  110.73    7.60
   1   1 -10    5.97    0.93
  -1  -1  10    9.73    2.20
  -1  -1  10    6.54    1.46
   1   1 -10    6.37    1.38
   1   1 -10    5.35    0.71
   2  -8  -9    3.67    1.71
   2  -8  -9    1.81    0.41
   2  -8  -9    0.96    0.99
   2  -8  -9    1.92    0.84
   2  -8  -9   -0.88    2.00
   2  -8  -9    0.86    1.05
   2  -8  -9    0.86    1.58
   2  -8  -9    0.55    0.76
  -4  -1   7   47.74    3.76
  -4  -1   7   61.25    4.62
   4   1  -7   51.66    3.57
   4   1  -7   50.35    3.80
  -7  -4  -7   76.14    5.66
  -7  -4  -7   78.45    5.20
   7   4   7   78.07    5.07
  -7  -4  -7   72.75    5.36
   3  -9   0    2.31    1.46
   3  -9   0    5.00    1.02
  -3   9   0    3.89    0.99
   3  -9   0    3.62    0.89
  -3   9   0    3.94    1.11
   1 -10  -6   56.59    3.35
  -1  10   6   59.81    4.52
   1 -10  -6   48.95    3.86
   1 -10  -6   57.22    4.93
   1 -10  -6   46.64    3.19
   1 -10  -6   57.29    3.37
   1 -10  -6   60.75    4.18
  -3   8  -3    0.68    0.38
  -3   8  -3    2.27    0.98
   3  -8   3    2.34    0.89
  -3   8  -3    2.29    1.09
   3  -8   3    3.23    1.36
   3  -8   3    3.26    1.09
  -3  -9  -9  238.04   12.16
  -3  -9  -9  210.38   12.49
   3   9   9  221.92   13.51
   3   9   9  241.74   14.99
   3   9   9  235.89   14.21
   6  -6   2   19.39    1.74
  -6   6  -2   13.39    1.64
   6  -6   2   17.43    1.77
   6  -6   2   18.43    2.03
   6  -6   2   21.63    1.86
  -6   6  -2   22.42    1.97
   6  -6   2   19.27    2.40
  -1   1 -11    8.53    1.69
   1  -1  11    9.62    2.07
   1  -1  11    5.93    1.42
  -1   1 -11    7.86    1.06
   1  -1  11    6.64    0.99
  -6   0   4   51.94    4.42
  -6   0   4   61.78    4.38
   6   0  -4   59.85    4.12
   6   0  -4   52.71    4.07
  -6   0   4   57.51    3.89
   7  -4   2  117.37    7.50
  -7   4  -2  117.62    7.40
  -7   4  -2  125.50    7.81
   7  -4   2  109.88    7.20
   7  -4   2  124.08    7.72
  -7   4  -2  119.45    7.88
   6   6   3  218.20   13.41
  -6  -6  -3  208.63   12.91
   5   0  -6  100.74    6.16
  -5   0   6   98.82    7.17
  -5   0   6   99.33    6.46
   5   0  -6   81.72    6.06
  -7   4  -1   14.42    1.73
   7  -4   1   13.78    1.78
  -7   4  -1   13.82    1.73
   7  -4   1   14.36    1.66
   7  -3   5    7.60    1.51
   7  -3   5    6.46    1.32
   7  -3   5    8.18    1.61
  -7   3  -5    7.10    1.35
  -7   3  -5    4.81    1.06
   2   4  -7   28.92    2.34
   2   4  -7   31.60    2.52
   2   4  -7   29.16    2.46
  -2  -4   7   27.75    2.63
  -5  -4   3    5.11    1.31
   5   4  -3    7.29    1.21
   5   4  -3    7.00    1.29
  -5  -4   3    6.50    1.18
  -7   3   1   -0.12    1.19
   7  -3  -1    0.92    1.12
   7  -3  -1    1.92    1.03
  -7   3   1    0.22    0.96
  -7   3   1    0.51    1.13
   7  -3  -1    0.42    1.02
  -5  -3   4   58.04    4.44
   5   3  -4   55.35    3.91
   5   3  -4   53.50    4.01
  -5  -3   4   58.77    4.23
   5   3  -4   57.25    3.99
   1  10   3    3.39    0.82
  -1 -10  -3    3.46    0.87
   7   0   8  112.08    8.07
  -7   0  -8  110.45    7.90
   7   0   8  112.64    7.67
   7   0   8  135.51    7.94
  -7   0  -8  128.01    7.83
  -2  -5   6    0.86    1.12
   2   5  -6    2.35    0.91
   2   5  -6    1.53    0.91
   2   5  -6    2.35    1.24
   0   2 -10   69.34    4.45
   0   2 -10   71.17    5.20
   0   2 -10   70.54    4.63
   0  -2  10   66.60    4.72
   0  -2  10   76.53    5.69
   0  -2  10   73.31    4.71
   0  -2  10   76.75    5.27
   3  -7   5    5.97    1.40
   3  -7   5    7.50    1.32
  -3   7  -5    6.83    1.10
   3   4  -6  191.42   11.51
  -3  -4   6  192.51   12.25
   3   4  -6  179.68   11.55
  -4   6  -6   49.55    3.77
   4  -6   6   45.82    3.55
   4  -6   6   46.31    3.59
  -4   6  -6   46.94    3.47
   1  -1 -11    2.86    0.75
   1  -1 -11    3.76    1.23
  -1   1  11    5.69    2.16
  -1   1  11    3.06    1.17
  -6   6   2   -0.22    1.20
   6  -6  -2   -0.61    1.02
  -6   6   2   -0.61    0.93
   6  -6  -2   -0.11    1.18
  -1  -9 -10    7.18    1.98
  -1  -9 -10    5.55    2.10
  -1  -9 -10    5.52    1.41
   1   9  10    5.79    1.35
   4  -1  -8  116.86    7.06
  -4   1   8  118.52    7.28
  -4   1   8   98.44    8.01
   4  -1  -8  102.95    7.21
   4  -7  -7  146.27   10.01
   4  -7  -7  165.75   10.22
   4  -7  -7  174.23   10.46
   4  -7  -7  167.42    9.98
   4  -7  -7  148.27   11.14
   1   1  12    0.27    1.93
   1   1  12   -0.24    0.36
  -1  -1 -12    0.50    0.68
   1   1  12    0.37    0.66
   1   1  12    2.40    1.23
   1   1  12    0.61    1.42
  -1  -1 -12    1.95    1.22
  -2  -7 -12   64.12    5.04
   2   7  12   55.79    4.84
  -2  -7 -12   62.67    4.67
  -2  -7 -12   54.35    5.25
   2   7  12   56.77    4.01
   2   7  12   69.02    4.82
   0  10   2   33.58    2.40
   0 -10  -2   82.94    6.03
   0  10   2   81.22    3.22
   0 -10  -2   73.51    4.89
   2  10   6  123.89    7.56
   2  10   6  117.43    8.18
  -3  -5   5  354.71   21.85
   3   5  -5  376.92   22.56
   3   5  -5  370.11   22.58
   1 -10  -2    4.90    2.20
   1 -10  -2    3.73    0.84
  -1  10   2    4.25    0.99
  -1  10   2    4.10    0.64
   4  -8   2   12.34    1.39
  -4   8  -2   12.59    1.15
   4  -8   2    9.05    1.79
   4  -8   2   12.80    1.48
  -4   8  -2   10.01    1.47
   1  -9  -9  109.37    6.67
   1  -9  -9  113.01    7.49
   1  -9  -9   99.23    5.89
   1  -9  -9  115.35    7.47
   1  -9  -9  118.45    6.38
   1  -9  -9  105.57    6.67
   1  -9  -9   73.08    6.09
   2  10   5  143.09    9.04
   2  10   5  157.84    9.68
   4  -1  11   82.84    5.78
   4  -1  11   76.39    5.01
   4  -1  11   75.48    5.84
   4  -1  11   75.44    4.97
   4  -1  11   83.23    5.53
  -4   1 -11   82.63    5.91
   4   8  10    5.92    1.27
  -4  -8 -10    2.00    1.59
   4   8  10    3.43    0.56
  -4  -8 -10    3.47    0.70
  -4  -8 -10    3.29    1.83
   4   8  10    2.20    2.04
  -6  -3   2   76.81    5.34
  -6  -3   2   78.44    5.39
   6   3  -2   73.38    5.09
   5  -6   5    0.46    1.06
  -5   6  -5    2.20    1.09
   5  -6   5    0.39    1.21
  -5   6  -5   -0.31    1.02
  -2  -9 -10    2.80    2.10
   2   9  10   -0.23    1.13
  -2  -9 -10   -0.72    1.29
   2   9  10    1.18    2.01
  -2  -9 -10    0.69    0.36
  -2  -9 -10    0.21    1.49
   2  -4   9   42.74    3.59
  -2   4  -9   42.90    3.63
  -2   4  -9   44.20    3.25
   2  -4   9   46.00    3.49
   2  -4   9   44.78    3.15
   7  -4   3   70.88    4.93
   7  -4   3   78.82    5.32
   7  -4   3   74.87    5.23
  -7   4  -3   73.71    4.80
  -7   4  -3   73.35    5.04
   7  -4   3   68.59    4.81
  -7   4  -3   73.97    5.20
   6   0  10    3.59    1.48
   6   0  10    4.39    1.65
   6   0  10    3.10    1.00
  -6   0 -10    4.71    1.29
  -6   0 -10    3.44    1.21
   5   0  11   23.64    2.09
   5   0  11   16.14    2.38
  -5   0 -11   22.02    1.92
   5   0  11   19.62    1.70
  -5   0 -11   21.35    2.29
   5   0  11   20.26    2.53
   7   4   3    2.03    1.08
  -7  -4  -3    1.33    1.38
  -7  -4  -3    1.43    1.05
  -2   7  10   79.06    5.41
   2  -7 -10   51.07    4.41
   2  -7 -10   79.20    6.06
   2  -7 -10   73.35    4.65
   2  -7 -10   70.58    4.72
   2  -7 -10   81.63    5.49
   2  -7 -10   69.70    4.64
   2  -7 -10   72.01    4.22
  -6  -5 -10   51.96    3.58
  -6  -5 -10   46.83    4.17
  -6  -5 -10   53.19    3.99
  -6  -5 -10   50.05    3.82
   5   8   6  143.04    8.64
   5   8   6  158.43   10.06
  -5  -8  -6  128.58    8.93
   5   8   6  139.67    8.89
  -7   4   0    7.80    1.40
   7  -4   0    8.18    1.50
   7  -4   0   11.84    1.72
   7  -4   0    9.91    1.49
  -7   4   0   10.47    1.58
  -7  -2   0    8.57    1.18
  -7  -2   0    7.08    1.38
  -7  -2   0    8.12    1.40
   7   2   0    7.75    1.40
  -7  -2   0   -0.06    0.41
   2  -5   8   88.55    5.87
   2  -5   8   96.29    6.37
  -2   5  -8   85.58    6.24
  -2   5  -8   90.86    5.89
   3  -9  -6   11.94    1.22
   3  -9  -6   16.85    1.57
   3  -9  -6   15.07    2.16
   3  -9  -6   15.62    2.74
   3  -9  -6   15.10    2.02
   3  -9  -6   13.83    1.39
   3  -9  -6   14.33    1.42
   4   1  12    9.03    2.32
   4   1  12   12.51    1.25
   4   1  12   15.88    2.06
   4   1  12   12.89    1.12
  -5  -6 -11   84.14    5.59
  -5  -6 -11   90.76    6.44
  -5  -6 -11   94.62    6.38
   3   8  11    7.57    1.44
  -3  -8 -11    4.66    1.99
  -3  -8 -11    3.79    1.68
  -3  -8 -11    6.19    1.56
  -3  -8 -11    5.78    0.72
   3   8  11    3.85    1.92
   0   7  -5  181.28   10.99
   0  -7   5  185.13   11.97
   0  -7   5  190.47   12.04
   0   7  -5  179.40   11.44
   6  -5   5   10.30    1.76
   6  -5   5    8.51    0.93
  -6   5  -5   10.85    1.63
  -6   5  -5   10.57    1.44
   6  -5   5    9.80    1.43
  -5  -8  -7  210.35   16.83
   5   8   7  252.03   15.29
  -5  -8  -7  285.19   16.09
   0  -6 -12   53.69    3.96
   0   6  12   60.80    4.65
   0  -6 -12   49.52    4.81
   2   3  -8    7.03    1.37
   2   3  -8    9.34    1.23
  -2  -3   8   10.31    2.00
  -2  -3   8    6.67    1.44
   2   3  -8    6.79    1.13
   3   3  -7   63.19    4.51
  -3  -3   7   67.02    4.95
   3   3  -7   67.02    4.39
  -3  -3   7   57.92    4.50
   3   9   2   98.31    7.00
   3   9   2  110.85    6.50
   3   9   2  123.08    7.85
   3   9   2   95.82    6.20
  -3  -9  -2  105.53    6.49
  -5  -7 -10   34.22    2.48
  -5  -7 -10   35.13    3.41
  -6  -6  -9   16.41    2.23
  -6  -6  -9   15.09    1.58
  -6  -6  -9   14.75    1.92
   2  10   7   60.94    4.35
  -2 -10  -7   46.06    3.89
   2  10   7   53.86    3.59
   0  -2 -12    1.86    0.64
   0   2  12    4.15    1.79
   0   2  12    2.60    1.38
   0  -2 -12   -0.14    1.08
   5   5  -2  280.06   17.17
  -5  -5   2  316.22   19.28
   1   7  12   -0.74    1.72
   1   7  12    0.51    1.32
  -1  -7 -12    1.15    1.10
  -1  -7 -12   -0.22    1.64
  -1  -7 -12    2.43    1.89
   4   6  12   73.11    5.76
   4   6  12   76.89    4.68
  -4  -6 -12   76.51    4.92
  -4  -6 -12   78.21    5.77
   4   6  12   74.91    5.03
  -4  -6 -12   69.44    5.83
  -4  -6 -12   84.27    5.81
  -5  -2   5   87.09    5.30
  -5  -2   5   84.41    6.23
   5   2  -5   86.63    6.06
   5   2  -5   93.15    6.09
  -5  -2   5   85.57    5.83
   3  -4   9  138.45    8.98
  -3   4  -9  129.30    8.24
   3  -4   9  131.48    8.63
  -3   4  -9  126.94    8.60
   3  -4   9  145.02    8.78
   3  -4   9  140.86    9.16
  -6  -2   3   41.23    3.52
   6   2  -3   37.41    3.23
  -6  -2   3   43.71    3.02
   6   2  -3   47.85    3.32
  -6  -2   3   46.67    3.55
  -6  -2   3   43.32    3.27
  -5   7  -3    6.10    1.36
   5  -7   3    4.19    1.03
   5  -7   3    6.68    1.14
   5  -7   3    6.64    1.56
  -5   7  -3    5.78    0.98
  -6  -4   1    2.89    1.18
  -6  -4   1    1.92    0.98
   6   4  -1    2.60    1.05
   4   9   6  123.75    8.30
   4   9   6  118.78    7.50
   4   9   6  104.70    6.86
  -1 -10  -8   15.58    2.00
   1  10   8   16.77    2.11
   1  10   8   18.25    1.41
   2  -9  -8   49.83    3.85
   2  -9  -8   65.32    4.06
   2  -9  -8   53.13    4.09
   2  -9  -8   60.64    3.65
   2  -9  -8   58.10    4.88
   2  -9  -8   61.72    5.49
   2  -9  -8   58.66    4.37
   2  -9  -8   62.22    5.19
   1  -7 -11  139.84    8.78
  -1   7  11  141.58    9.25
   1  -7 -11  140.19    8.98
   5   8   5   55.37    3.89
   5   8   5   60.60    5.04
   5   8   5   58.39    3.66
  -5  -8  -5   47.57    3.33
   7   3   1   11.72    1.58
  -7  -3  -1   12.82    1.69
  -7  -3  -1   13.21    1.52
  -7  -3  -1   11.56    1.32
  -7  -3  -1   -0.16    0.34
   2 -10  -4   10.62    0.89
   2 -10  -4    9.45    1.12
  -2  10   4    9.55    1.28
   2 -10  -4   11.89    2.02
  -2  -6   5   17.69    2.08
   2   6  -5   18.45    1.81
   2   6  -5   23.46    2.27
   5  -3   9    1.31    1.20
  -5   3  -9    3.65    1.11
   5  -3   9    3.57    1.39
  -5   3  -9    5.34    1.39
   5  -3   9    3.02    1.12
   5  -3   9    3.77    0.96
   0  -8 -11   56.14    4.60
   0  -8 -11   46.81    3.87
   0  -8 -11   54.28    4.92
  -4  -9  -7   36.52    3.60
   4   9   7   38.14    2.68
   4   9   7   39.08    3.28
   4   9   7   44.40    4.19
   7   4   8   20.80    1.73
  -7  -4  -8   22.00    2.07
  -7  -4  -8   24.81    2.41
  -7  -4  -8   21.43    2.50
   2 -10  -3    7.11    1.78
  -2  10   3    9.18    1.00
  -2  10   3    5.50    1.53
   2 -10  -3    8.81    1.10
   2 -10  -3    9.02    2.43
  -2  10   3    7.36    1.23
  -6   5   4    1.43    1.13
   6  -5  -4    1.55    1.53
   6  -5  -4    0.81    1.06
   6  -5  -4    1.62    0.99
   6  -5  -4    0.18    0.88
   3   7  12   98.61    6.63
   3   7  12  118.68    7.51
   3   7  12   98.34    7.41
  -3  -7 -12   90.30    6.83
  -3  -7 -12   96.46    7.29
  -3  -7 -12  103.82    7.10
   7   1  -1   64.45    4.66
  -7  -1   1   72.41    4.82
  -7  -1   1   63.19    4.53
  -7  -1   1   66.33    4.71
   5  -4   8   99.65    6.47
   5  -4   8   96.40    6.24
   5  -4   8   96.43    6.65
  -5   4  -8   96.86    6.30
  -5   4  -8   92.54    6.49
   5  -4   8   91.96    6.61
   2  10   4   27.69    2.76
  -2 -10  -4   17.72    1.20
   2  10   4   27.07    2.06
  -1  -5   7    5.07    1.35
   1   5  -7    3.40    1.11
   1   5  -7    2.91    0.93
   1   5  -7    3.95    1.19
   3  -8  -8   43.19    3.11
   3  -8  -8   36.53    2.66
   3  -8  -8   39.26    2.62
   3  -8  -8   34.13    2.80
   3  -8  -8   40.53    3.23
   3  -8  -8   42.03    3.75
   3  -8  -8   44.94    4.28
   3  -8  -8   38.70    4.01
   2  -3  10   31.40    2.65
   2  -3  10   29.14    2.30
  -2   3 -10   31.76    2.51
   3  -5   8    4.29    1.41
   3  -5   8    9.67    1.42
  -3   5  -8    8.47    1.14
   3  -5   8    8.10    1.53
  -3   5  -8    5.33    1.51
  -3   5  -8    6.56    1.29
   3  -5   8    7.04    1.15
   1 -10  -7   36.06    3.14
   1 -10  -7   38.75    3.03
  -1  10   7   35.58    3.09
   1 -10  -7   34.73    2.48
   1 -10  -7   39.83    2.41
   1 -10  -7   43.62    3.97
   1 -10  -7   33.64    2.36
   1 -10  -7   29.53    3.33
   1   4  -8   21.00    1.95
   1   4  -8   22.50    2.10
  -1  -4   8   22.67    2.36
   1   4  -8   24.28    1.98
   4  -6  -8   -0.99    1.74
   4  -6  -8   -0.09    0.87
   4  -6  -8    0.18    0.30
   4  -6  -8   -0.93    0.99
   4  -6  -8   -0.12    1.13
  -4   6   8   -1.96    1.52
   5  -6  -6    1.75    0.99
   5  -6  -6    1.43    1.74
   5  -6  -6    0.45    1.14
   2   8  -2   47.43    3.61
   2   8  -2   38.51    3.00
   4  -8  -6    2.86    1.64
   4  -8  -6    1.87    1.02
   4  -8  -6    1.98    0.28
   4  -8  -6    1.67    0.92
   4  -8  -6    1.59    0.30
   4  -8  -6    3.11    1.43
   4  -8  -6    2.72    1.79
   4  -8  -6    3.05    0.86
   3   0  -9   10.71    1.22
  -3   0   9   11.69    2.40
  -3   0   9   12.96    1.62
   3   0  -9   12.29    1.56
   5  -3  -7    5.19    1.46
  -5   3   7    3.09    0.71
   5  -3  -7    1.09    1.13
  -5   3   7    2.30    1.62
   5  -3  -7    3.68    1.20
   4   9   5   51.85    3.63
   4   9   5   59.99    4.26
  -4  -9  -5   50.04    3.39
   4   9   5   60.02    5.00
   6  -6   3   10.60    1.86
   6  -6   3   11.24    1.34
  -6   6  -3   11.41    1.65
   6  -6   3   12.36    1.66
   6  -6   3   10.25    1.36
   6  -6   3   13.06    2.00
   6  -6   3   12.99    1.41
  -6   6  -3   10.28    1.38
   0   9  10   12.34    1.68
   0  -9 -10   13.83    1.99
   0  -9 -10   25.03    3.33
   0  -9 -10   18.92    1.68
   0 -10  -8   32.57    3.27
   0  10   8   29.69    2.78
   0 -10  -8   23.31    1.61
   0 -10  -8   33.53    2.62
  -7  -2  -9   65.42    4.53
   7   2   9   62.07    4.87
  -7  -2  -9   62.77    4.84
  -7   2   2   68.56    2.70
  -7   2   2   59.36    2.85
   5   3  12   93.39    5.75
  -5  -3 -12   95.19    6.72
  -5  -3 -12   90.63    6.53
   5   3  12   89.52    6.88
   5   3  12   83.47    6.66
  -5  -3 -12   97.13    6.12
   2   0 -10    0.42    0.95
  -2   0  10   -1.29    1.75
   2   0 -10    0.24    0.72
  -2   0  10    0.13    1.06
   2   0 -10   -0.14    1.06
  -4  -7   1   33.61    2.50
   4   7  -1   29.51    3.18
   4   7  -1   28.90    2.40
   4   7  -1   32.00    2.43
   3  -3  10  297.43   18.87
   3  -3  10  292.25   18.29
   3  -3  10  311.76   18.33
  -3   3 -10  301.79   17.94
   3  -3  10  308.93   18.61
  -3   3 -10  281.25   18.30
   2 -10  -5   58.40    3.42
   2 -10  -5   44.73    3.36
   2 -10  -5   57.17    3.52
   2 -10  -5   65.44    4.47
  -3  -6   4  140.18    9.23
   3   6  -4  141.68    8.89
   3   6  -4  142.29    9.21
  -1   5  -8   20.74    1.93
   1  -5   8   22.03    1.99
   1  -5   8   26.49    2.28
  -1   5  -8   21.43    1.99
  -5  -8  -8   86.31    6.60
  -5  -8  -8   90.18    5.66
   1  -4   9   -0.07    0.76
   1  -4   9    0.82    0.92
   1  -4   9    0.90    1.06
  -1   4  -9   -1.37    0.99
   7  -2   7    8.26    1.59
   7  -2   7    8.16    1.76
   7  -2   7    9.53    1.57
  -7   2  -7    8.24    1.35
   3  -7  -9   15.86    1.76
   3  -7  -9   13.09    1.45
   3  -7  -9   15.00    1.29
   3  -7  -9   15.56    2.45
   3  -7  -9   14.53    1.27
   3  -7  -9   14.50    2.68
   3  -7  -9   12.32    1.61
  -7   1   2    6.95    0.88
   7  -1  -2    4.90    1.27
  -7   1   2    5.92    1.01
   5   4  12    5.79    2.05
   5   4  12    9.62    1.06
  -5  -4 -12    8.26    1.18
  -5  -4 -12   10.04    1.71
   6  -3   8    7.83    0.73
  -6   3  -8    6.66    1.36
  -6   3  -8    8.33    1.44
   6  -3   8    9.90    1.75
   6  -3   8   10.23    1.38
   6  -3   8    9.80    1.56
   5  -7  -5    0.15    1.41
   5  -7  -5   -0.45    1.07
   5  -7  -5   -0.99    1.69
   5  -7  -5    0.97    1.09
   5  -7  -5    0.49    0.87
  -2   4  11  209.70   13.27
  -2   4  11  182.58   12.03
   2  -4 -11  197.46   10.82
   2  -4 -11  180.18   10.70
   2  -4 -11  208.92   12.10
   2  -4 -11  196.55   11.22
   1  10   2    6.60    1.02
  -1 -10  -2    8.23    1.11
  -2  -4 -13  102.31    6.87
   2   4  13  109.03    7.46
  -2  -4 -13  105.78    7.58
   2   4  13  122.21    8.51
   2   4  13  106.69    7.68
   2   4  13  106.14    7.82
  -2  -4 -13  110.31    7.24
   4   8   1   30.79    3.18
   4   8   1   23.24    2.00
  -4  -8  -1   24.84    1.96
   4   8   1   23.65    1.91
   1   8  -3   55.99    3.96
   1   8  -3   44.64    3.12
  -1  -8   3   55.93    3.93
   1   8  -3   59.67    3.59
  -1  -8   3   56.04    4.30
   2  -6   7   64.28    4.45
   2  -6   7   55.99    3.92
  -2   6  -7   57.29    4.06
   2  -6   7   54.62    4.10
  -4  -4   5   40.91    3.34
   4   4  -5   42.48    3.13
   4   4  -5   36.94    2.98
   4   4  -5   44.33    3.16
   7  -4   4    2.75    1.29
  -7   4  -4    0.72    1.20
  -7   4  -4    0.72    0.85
   7  -4   4    1.36    0.96
   7  -4   4    3.25    1.09
  -7   4  -4    2.32    0.98
   5  -4  -7    0.44    0.44
  -5   4   7   -0.21    1.39
  -5   4   7   -0.13    0.24
   5  -4  -7    1.53    1.06
   5  -4  -7    0.75    1.32
  -6  -3 -11   28.64    2.51
   6   3  11   33.92    3.26
   6   3  11   34.77    3.35
  -6  -3 -11   33.75    3.10
   6   3  11   34.97    2.68
  -6  -3 -11   37.29    3.05
   1   9  -1   17.80    1.75
   1   9  -1   20.73    2.32
  -1  -9   1   22.54    2.26
  -1  -9   1   18.09    1.79
  -2   0 -12  129.38    8.30
  -2   0 -12  141.06    8.92
   2   0  12  129.81    8.40
   2   0  12  121.66    7.66
   2   0  12  120.63    8.89
   3   0  12    0.71    1.68
   3   0  12    2.70    1.60
   3   0  12    1.78    0.79
  -3   0 -12    0.85    0.89
   6  -6  -3   24.55    2.30
   6  -6  -3   25.21    2.96
  -6   6   3   26.35    2.40
   6  -3  -5    2.81    1.28
  -6   3   5    3.00    0.39
   6  -3  -5    2.13    1.16
  -6   3   5    4.29    1.23
  -6   3   5    3.59    1.56
   6  -3  -5    4.90    1.33
   2   9   0   69.65    4.66
   2   9   0   70.43    5.22
  -6   2   5    0.58    1.43
  -6   2   5   -0.05    0.52
   7  -4  -1    3.81    1.40
  -7   4   1    2.63    1.13
  -7   4   1    4.66    1.41
   7  -4  -1    2.47    1.21
   7  -4  -1    2.12    1.13
  -3   9  -1   29.54    2.25
   3  -9   1   22.57    2.17
   3  -9   1   24.90    2.63
   3  -9   1   25.14    2.00
  -3   9  -1   23.70    2.40
  -7  -3  -9  100.31    6.46
  -7  -3  -9   84.37    5.62
  -7  -3  -9   87.62    6.15
   7   3   9   87.12    6.36
  -7  -3  -9   86.04    5.86
   5  -2  10   31.22    2.35
   5  -2  10   24.98    2.15
  -5   2 -10   27.83    2.69
   5  -2  10   28.48    2.79
   5  -2  10   27.57    2.32
   5  -2  10   25.74    2.80
   5  -2  10   25.10    2.51
  -5   2   7   27.42    2.13
  -5   2   7   26.09    3.23
  -7  -1  -9  100.87    7.19
  -7  -1  -9  108.03    6.93
   7   1   9  101.16    6.91
   7   1   9   99.07    7.29
   7   1   9  110.43    6.95
   3  -4 -10   27.06    2.38
   3  -4 -10   28.24    2.05
  -3   4  10   34.63    3.82
  -3   4  10   24.85    3.13
  -3   4  10   30.31    2.54
   3  -4 -10   29.98    2.35
   3  -4 -10   28.29    2.49
   3  -4 -10   28.63    3.09
   3  -4 -10   26.64    2.26
  -3  -4 -13  147.14    9.35
  -3  -4 -13  134.70    8.97
   3   4  13  133.94    8.78
   3   4  13  136.61    9.32
   3   4  13  124.17    7.64
  -2  10   2    0.46    0.93
   2 -10  -2   -0.54    2.12
   2 -10  -2    0.68    0.96
   2 -10  -2   -0.06    0.78
  -2  10   2    0.36    0.65
   7  -1   8   53.10    4.15
   7  -1   8   53.25    3.83
  -7   1  -8   51.52    3.73
  -7   1  -8   45.57    3.73
   7  -1   8   45.87    3.63
   6  -2   9    4.62    1.61
   6  -2   9    4.25    1.10
   6  -2   9    3.77    1.33
  -6   2  -9    2.60    1.14
   5  -8  -1   52.61    3.44
  -5   8   1   61.20    3.96
   5  -8  -1   54.12    3.41
   5  -8  -1   44.20    3.67
   5  -8  -1   41.16    3.07
  -5   8   1   52.38    4.03
   6   6   2  101.54    6.64
  -6  -6  -2  101.92    6.67
  -4  -9  -8   45.66    4.07
   4   9   8   37.04    2.63
   4   9   8   47.07    3.40
   2  10   8  105.39    6.54
   2  10   8  110.09    8.02
  -2 -10  -8  106.12    7.46
   2  10   8  107.66    7.22
   6   2  11    9.01    1.99
  -6  -2 -11    9.22    1.76
  -6  -2 -11   12.52    1.53
   6   2  11    9.88    1.98
   6   2  11   12.55    1.45
  -6  -2 -11   15.29    2.06
  -5   8   2    0.42    0.92
  -5   8   2   -0.57    1.07
   5  -8  -2    0.73    1.28
   5  -8  -2   -1.40    1.42
   5  -8  -2   -0.66    1.00
   5  -8  -2    1.00    0.93
   5  -8  -2    0.76    0.39
   2  -8   4   51.80    3.57
   2  -8   4   50.38    3.99
   2  -8   4   50.44    3.91
  -2   8  -4   50.98    3.55
  -2   8  -4   58.72    3.84
  -2   8  -4   46.40    3.90
   5   8   4   35.74    2.67
  -5  -8  -4   34.11    2.62
   5   8   4   34.94    2.43
   5   8   4   39.78    3.87
   2   5  13   96.21    7.98
  -2  -5 -13  106.42    7.73
   2   5  13  104.62    7.51
  -2  -5 -13  105.30    7.25
   2   5  13  114.34    7.43
   1 -10  -1   53.91    4.17
  -1  10   1   64.68    3.89
   1 -10  -1   59.71    5.12
   1 -10  -1   62.51    4.47
  -1  10   1   52.19    4.55
   1 -10  -1   58.38    3.90
  -1  10   1   56.71    4.16
  -1  -6   6    4.60    1.10
   1   6  -6    6.43    1.45
   1   6  -6    5.33    1.13
   1   6  -6    7.34    1.11
  -1  -6   6    6.76    1.35
  -1   8  -4    3.27    0.51
   1  -8   4    6.29    1.73
  -1   8  -4    4.76    1.11
   1  -8   4    4.99    0.99
  -1   8  -4    6.14    1.55
   1  -8   4    4.26    1.30
  -1   8  -4    5.27    0.86
  -7  -5  -6  131.96    8.35
  -7  -5  -6  146.39    8.82
  -7  -5  -6  142.48    9.35
   7   5   6  141.82    8.86
   2  -3 -11   27.21    1.96
  -2   3  11   29.35    3.80
  -2   3  11   33.57    2.86
   2  -3 -11   27.80    2.47
   2  -3 -11   27.26    1.96
  -5  -7  -1   35.05    2.68
   5   7   1   38.88    2.96
   5   7   1   38.58    2.89
   5   7   1   42.50    3.82
   7  -3   6    0.48    1.24
  -7   3  -6   -0.61    1.22
  -7   3  -6    0.62    0.95
   7  -3   6    0.14    1.19
   7  -3   6   -0.80    1.18
   2  -5 -11  109.21    6.81
  -2   5  11  108.67    8.93
   2  -5 -11  115.99    7.31
  -2   5  11  128.08    8.06
   2  -5 -11  120.47    8.29
   2  -5 -11  114.37    7.04
   4   5  -4  130.31    8.31
  -4  -5   4  123.77    8.23
   4   5  -4  130.28    8.51
  -1   9  -2   43.73    3.00
   1  -9   2   40.46    3.32
   1  -9   2   39.45    2.96
  -1   9  -2   46.24    3.71
   1  -9   2   48.49    4.05
  -1   9  -2   43.56    3.25
  -5  -2 -12   40.15    3.62
  -5  -2 -12   45.16    3.21
   5   2  12   42.40    3.02
  -5  -2 -12   47.06    3.71
   5   2  12   49.38    4.06
   5   2  12   45.04    4.12
   3  -3 -10   26.53    2.25
  -3   3  10   29.56    3.63
   3  -3 -10   25.48    1.95
  -3   3  10   28.33    3.26
  -3   3  10   27.24    2.42
  -7   3   2    7.16    1.59
   7  -3  -2    4.77    1.21
   7  -3  -2    4.43    1.39
  -7   3   2    2.68    1.19
   4  -9  -2  103.18    6.56
   4  -9  -2   92.95    6.43
   4  -9  -2  115.05    6.54
  -4   9   2  106.14    6.83
  -2  -3 -13   74.72    5.44
   2   3  13   70.24    6.13
   2   3  13   82.98    5.25
  -2  -3 -13   76.16    5.18
   2   3  13   70.08    4.54
   2   3  13   74.72    5.60
   2   3  13   73.41    5.73
  -5   5  -7   36.88    2.90
  -5   5  -7   34.15    3.00
   5  -5   7   36.41    2.65
   5  -5   7   34.82    2.90
   5  -5   7   31.65    2.93
   5  -5   7   30.75    3.00
   1   3  -9  112.48    7.16
  -1  -3   9  119.61    8.07
  -1  -3   9  115.71    7.66
   1   3  -9  108.14    7.18
   1   3  -9  123.14    7.44
  -1  -3   9  110.28    7.09
  -4  -3   6    4.73    1.33
   4   3  -6    4.51    1.22
  -4  -3   6    6.83    1.74
   4   3  -6    4.47    1.12
   4   3  -6    5.70    0.93
  -6  -7  -6   50.47    3.50
   6   7   6   44.18    2.97
  -6  -7  -6   45.37    4.18
  -3  -9 -10   26.65    3.05
   3   9  10   17.74    1.32
  -3  -9 -10   30.77    3.63
   3   9  10   34.13    3.35
   3   9  10   35.01    2.52
  -3  -9 -10   31.20    2.03
  -7  -5  -5   49.48    3.80
  -7  -5  -5   58.68    4.02
  -7  -5  -5   52.03    4.33
   7   5   5   50.14    3.57
   6  -4   7    0.71    1.27
  -6   4  -7    1.21    0.98
   6  -4   7    1.35    1.09
   6  -4   7   -0.29    1.27
  -6   4  -7    1.75    1.13
   6  -4   7    0.67    1.16
   6   1  -4   90.39    6.49
   6   1  -4  104.97    6.53
  -6  -1   4   97.81    6.91
  -6  -1   4  103.83    6.78
  -6  -1   4   97.24    6.45
   3   3  13  114.61    6.90
  -3  -3 -13  120.24    7.56
   3   3  13  109.74    7.87
  -3  -3 -13  106.65    7.68
   3   3  13  102.26    8.26
   3   3  13  111.55    7.91
  -7  -4  -2  140.28    4.43
  -7  -4  -2  138.32    3.58
   7   4   2  149.02    9.55
   0  10   1   61.29    3.93
   0  10   1   50.51    3.14
   0 -10  -1   53.48    3.72
   0  10   1   37.76    2.72
   0 -10  -1   58.73    4.80
  -3  -2   8    4.64    1.19
   3   2  -8    4.26    1.21
   3   2  -8    3.54    0.93
  -3  -2   8    3.89    1.82
  -6  -5   0    1.78    1.01
   6   5   0    1.51    1.06
   4  -9  -3   11.49    1.14
  -4   9   3   11.82    1.48
   4  -9  -3   10.65    1.78
   4  -9  -3   16.94    2.10
   4  -9  -3   12.21    1.49
   4  -9  -3   14.86    1.41
   6   4  11   71.99    5.65
   6   4  11   73.51    4.86
  -6  -4 -11   68.02    4.63
  -6  -4 -11   68.92    5.08
  -6  -4 -11   70.70    5.28
   3   5  13  106.50    4.27
   3   5  13   99.90    4.96
  -3  -5 -13  106.56    7.74
   3   5  13   91.73    1.22
  -3  -5 -13  103.82    7.45
  -3  -5 -13  112.85    7.19
   3   5  13  108.94    4.15
   3   8  -1    3.51    0.95
   3   8  -1    3.82    1.50
   6   7   7   74.22    4.69
  -6  -7  -7   80.53    5.02
  -6  -7  -7   72.03    5.74
  -6  -7  -7   68.27    5.43
  -1   6  -7   89.01    5.87
  -1   6  -7   89.49    5.99
   1  -6   7   94.22    6.16
   1  -6   7   84.14    6.11
   1  -6   7   84.23    5.62
   4   9   4   62.37    4.94
  -4  -9  -4   60.74    4.02
   4   9   4   55.53    3.60
   4   9   4   63.47    4.26
   4   9   4   50.74    3.26
   5  -8   0   32.17    2.41
   5  -8   0   29.47    2.68
  -5   8   0   35.31    2.59
  -5   8   0   34.53    2.80
   5  -8   0   37.30    2.62
   5  -8   0   29.95    2.32
  -2  -2   9   45.81    3.63
   2   2  -9   44.43    3.26
   2   2  -9   38.35    2.92
   2   2  -9   39.99    2.89
  -2  -2   9   42.30    4.05
   1  -3  10    1.65    0.86
   1  -3  10    2.90    1.07
   1  -3  10    2.30    1.15
  -1   3 -10    1.63    0.95
  -3   6  -7    3.71    1.01
  -3   6  -7    3.08    1.19
   3  -6   7    3.89    1.30
  -3   6  -7    5.53    1.41
   3  -6   7    3.49    0.99
   3  -6   7    3.59    1.33
   3  -5 -10    4.39    1.08
   3  -5 -10    5.81    1.53
   3  -5 -10    5.43    1.94
   3  -5 -10    7.94    1.33
  -3   5  10    7.07    1.21
   3  -5 -10    5.91    1.02
  -3   5  10    5.53    1.86
  -7  -5  -7   59.38    4.80
   7   5   7   59.48    3.96
  -7  -5  -7   56.07    3.85
  -7  -5  -7   71.98    4.40
   2  10   3    2.55    0.79
  -2   9  -2    9.71    1.45
   2  -9   2   10.17    1.88
   2  -9   2   14.32    2.45
   2  -9   2   10.63    1.25
   2  -9   2    9.13    1.47
  -2   9  -2    9.60    1.25
  -2   9  -2   12.26    1.75
   2 -10  -6   27.28    1.95
   2 -10  -6   32.57    3.55
   2 -10  -6   23.01    2.24
   2 -10  -6   23.20    2.65
   2 -10  -6   26.39    1.91
   2 -10  -6   27.11    1.96
   2 -10  -6   29.09    2.85
  -6   4   5   12.68    1.81
  -6   4   5   13.32    2.17
   6  -4  -5   13.45    1.30
   6  -4  -5   11.11    1.71
   6  -4  -5   15.73    2.14
   6  -4  -5   12.58    1.66
   7   0  -2   89.58    6.16
  -7   0   2   90.86    5.91
  -7   0   2   95.34    6.16
  -5  -5 -12  144.62    9.36
  -5  -5 -12  138.75    8.75
   5   5  12  137.97    8.47
  -5  -5 -12  142.13    9.40
   0  -1  11  128.77    9.27
   0   1 -11  129.81    8.35
   0   1 -11  145.60    9.04
   0  -1  11  129.67    8.66
   5   6  -1   42.66    3.31
   5   6  -1   43.63    3.32
  -5  -6   1   50.44    3.66
   5   6  -1   54.25    4.02
   4   0  -8   60.08    4.49
  -4   0   8   58.86    4.46
   4   0  -8   64.85    4.25
  -4   0   8   78.83    5.56
  -4   9   1  107.90    6.96
   4  -9  -1  102.21    6.65
   4  -9  -1   96.84    6.60
   4  -9  -1  113.18    6.58
  -6  -7  -5   10.99    1.41
   6   7   5   10.63    1.16
  -6  -7  -5    9.88    1.88
   5   1  -6   76.77    5.24
  -5  -1   6   76.31    5.94
   5   1  -6   74.01    5.21
  -5  -1   6   80.06    5.36
  -6   1   5   -0.38    1.53
  -6   1   5    0.07    0.69
   6  -1  -5    0.45    1.13
   6  -1  -5    0.12    1.14
   5  -8  -3    8.54    1.86
   5  -8  -3   10.02    1.82
   5  -8  -3   10.69    1.36
   5  -8  -3    7.76    1.29
  -5   8   3    7.70    1.48
  -4   4  -9   25.22    2.35
  -4   4  -9   27.84    2.26
  -4   4  -9   26.14    2.58
   4  -4   9   29.38    2.33
   4  -4   9   25.36    2.66
   4  -4   9   31.27    2.47
   4  -4   9   29.85    2.82
  -4   7  -5   35.20    2.75
   4  -7   5   33.86    2.93
  -4   7  -5   31.55    2.82
   4  -7   5   32.29    2.80
   0  -7 -12  130.10    8.68
   0   7  12  120.99    8.20
   0  -7 -12  139.53    9.73
   2  -2  11    5.49    1.22
   2  -2  11    5.23    0.90
  -2   2 -11    4.99    1.05
   2  -2  11    3.99    1.75
  -1   4  12  152.11    9.70
   1  -4 -12  147.23    9.53
  -1   4  12  137.25   10.14
  -1   4  12  149.54   10.64
   1  -4 -12  133.70    8.27
   1  -4 -12  131.43    8.18
   1  -4 -12  147.40    8.84
  -1  -4 -13   32.98    2.89
  -1  -4 -13   33.85    2.54
   1   4  13   32.72    3.88
   1   4  13   33.26    3.32
  -1  -4 -13   32.24    3.25
  -1  -4 -13   30.86    2.14
   1   4  13   38.14    3.72
   1   4  13   37.08    3.08
   3  -2  11   46.01    3.05
   3  -2  11   49.08    4.14
   3  -2  11   45.92    3.46
  -3   2 -11   44.18    3.30
  -3   2 -11   47.57    3.79
   3  -2  11   41.54    3.12
  -5  -8  -9   44.97    4.73
  -5  -8  -9   64.21    3.95
   5  -5  -7   -0.40    0.63
   5  -5  -7    0.56    1.08
   5  -5  -7    0.10    1.06
   5  -5  -7   -1.31    1.63
  -5   5   7    2.40    1.88
   3  -9  -7   33.00    3.66
   3  -9  -7   24.22    2.06
   3  -9  -7   23.58    3.30
   3  -9  -7   24.08    2.83
   3  -9  -7   27.65    2.27
   3  -9  -7   26.64    2.06
   3  -9  -7   25.81    1.88
   3  -9  -7   24.71    2.53
   2   7  -4    2.53    1.41
   2   7  -4    2.35    0.87
  -2  -7   4    2.72    1.21
  -1 -10  -9   17.67    1.13
  -1 -10  -9   44.69    2.88
   1  10   9    0.03    0.24
   1  10   9   41.56    2.38
   7   5   4   32.04    2.57
  -7  -5  -4   30.82    3.19
  -7  -5  -4   35.98    2.82
   1   0 -11   48.50    3.18
   1   0 -11   68.52    3.64
  -1   0  11   72.62    5.33
  -1   0  11   75.60    6.17
   1   0 -11   69.04    4.32
   0  -1 -12   34.95    2.57
   0  -1 -12   43.55    3.29
   0   1  12   37.73    3.27
  -4   8  -3    5.22    1.22
  -4   8  -3    5.33    0.83
  -4   8  -3    5.87    1.38
   4  -8   3    4.74    1.48
   4  -8   3    3.95    1.16
   4  -9  -4   21.13    2.44
   4  -9  -4   18.12    1.52
   4  -9  -4   27.19    1.96
   4  -9  -4   22.98    1.81
   4  -9  -4   17.32    1.59
   4  -9  -4   23.87    2.46
  -6   1 -10    1.32    1.16
   6  -1  10    0.76    1.28
   6  -1  10    2.39    1.01
   6  -1  10    2.75    1.55
  -7  -4  -9   30.57    2.46
  -7  -4  -9   27.85    2.70
  -7  -4  -9   27.33    2.42
  -7  -4  -9   26.39    2.94
   0  -9   2    2.40    1.61
   0  -9   2    2.93    1.25
   0   9  -2    3.63    1.02
   0   9  -2    0.97    1.38
   0   9  -2    4.17    0.72
   0  -9   2    3.48    0.99
  -6  -6 -10   75.74    5.61
  -6  -6 -10   79.16    5.59
  -6  -6 -10   74.74    5.85
  -6  -6 -10   78.59    5.13
  -4   3 -10    1.33    0.85
   4  -3  10    0.79    0.85
   4  -3  10    0.24    0.91
   4  -3  10    1.49    1.21
   4  -3  10    2.60    1.53
  -4   3 -10   -0.40    1.06
  -4   3 -10    1.23    1.31
   1   5  13    5.69    1.65
  -1  -5 -13    5.31    1.92
   1   5  13    3.62    1.75
  -1  -5 -13    4.56    1.33
   1   5  13    5.68    1.67
   1   5  13    3.60    2.13
  -7   0  -9   59.59    4.49
   7   0   9   61.05    4.21
   7   0   9   52.02    4.17
  -7   0  -9   58.57    4.27
   7   0   9   58.73    4.60
  -6  -1 -11    0.09    1.15
  -6  -1 -11    1.11    1.43
   6   1  11    1.25    1.51
   6   1  11    3.06    0.95
   6   1  11    3.57    1.58
  -6  -1 -11    1.46    1.25
  -6  -7  -8    3.47    1.56
  -6  -7  -8    1.06    1.42
  -6  -7  -8   -0.15    0.94
  -1   5  12  128.28    8.53
  -1   5  12  120.54    9.09
   1  -5 -12  124.03    7.91
   1  -5 -12  120.81    7.27
  -1   5  12  136.87    9.61
   1  -5 -12  113.05    8.62
   1   0  12   84.60    6.32
  -1   0 -12   78.94    5.32
   1   0  12   80.92    5.60
   1   0  12   76.00    4.91
  -1   0 -12   93.32    6.04
   1   0  12   72.74    4.70
   5  -1  -7   27.31    2.50
  -5   1   7   29.40    2.28
  -5   1   7   23.74    3.19
   4   0  12   20.61    2.30
   4   0  12   15.85    2.46
   4   0  12   23.03    2.87
   4   0  12   19.29    1.67
  -4   0 -12   17.83    2.15
   4   0  12   19.71    1.51
   7  -5   1   48.59    3.61
  -7   5  -1   35.66    2.90
   7  -5   1   38.53    3.23
   7  -5   1   40.78    3.42
  -7   5  -1   35.97    3.00
   3  -2 -10   45.04    3.22
   3  -2 -10   48.34    3.57
  -3   2  10   57.37    5.01
   3  -2 -10   49.63    3.57
  -3   2  10   48.29    3.76
  -3   2  10   51.68    4.67
   2   6  13   51.06    3.50
  -2  -6 -13   76.21    5.30
  -2  -6 -13   63.04    5.63
   2   6  13   69.00    4.76
   2   6  13   69.93    4.82
   1 -10  -8   61.42    4.55
   1 -10  -8   79.12    5.99
   1 -10  -8   74.54    5.15
   1 -10  -8   69.42    5.07
   1 -10  -8   71.61    4.39
   1 -10  -8   78.92    5.74
   1 -10  -8   77.58    4.61
  -4   5  -8    5.47    1.29
   4  -5   8    8.10    1.15
   4  -5   8    8.14    1.66
   4  -5   8    6.56    1.50
  -4   5  -8    5.78    1.49
  -4   5  -8    7.92    1.23
   4  -5   8    7.24    1.43
  -2  10   1   14.31    1.38
  -2  10   1   14.06    1.63
   2 -10  -1   17.75    3.00
   2 -10  -1   16.41    1.77
   2 -10  -1   13.82    2.16
   2 -10  -1   16.42    1.55
  -8   0  -4   78.31    4.78
  -8   0  -4   59.58    4.11
  -8   0  -4   71.95    4.82
  -8   0  -4   73.62    4.79
   8   0   4   68.53    4.82
   3   9   1   80.04    5.28
   3   9   1   65.18    4.38
   3   9   1   70.26    4.60
  -2   2  11   53.90    4.15
   2  -2 -11   59.40    4.22
   2  -2 -11   50.95    3.97
   2  -2 -11   58.40    3.72
  -2   2  11   58.26    5.23
   4   9   9   11.42    2.53
   4   9   9    7.81    1.63
  -4  -9  -9    4.39    1.63
   4   9   9    4.99    0.73
  -4  -9  -9    6.48    0.68
  -4  -9  -9    5.51    2.10
   3  10   6   21.20    1.72
   3  10   6   22.42    2.45
   3  10   6   22.44    3.36
   2  -6 -11   48.19    3.19
   2  -6 -11   45.63    2.76
   2  -6 -11   48.88    3.27
   2  -6 -11   32.48    3.02
  -2   6  11   40.61    4.15
  -2   6  11   44.74    3.43
   2  -6 -11   49.55    4.52
   4   8  11   88.24    5.88
   4   8  11   84.28    5.22
   4   8  11   93.45    6.75
  -4  -8 -11   96.06    6.47
  -4  -8 -11   83.17    6.54
  -4  -8 -11   80.53    5.24
  -4  -8 -11   88.25    6.30
   4   6  -3  332.08   17.88
   4   6  -3  264.32   17.22
  -4  -6   3  315.94   19.59
   3  -8   4    5.45    1.11
  -3   8  -4    7.23    1.29
   3  -8   4    8.60    1.45
  -3   8  -4    8.92    1.41
   3  -8   4    4.64    1.55
  -6   6  -4    1.70    1.01
   6  -6   4    2.83    1.42
   6  -6   4   -0.15    1.45
   6  -6   4    0.71    0.92
   6  -6   4    0.21    1.08
   6  -6   4   -0.47    0.76
  -6   6  -4    1.56    0.95
  -6   6  -4    2.39    1.34
  -1   3  12  124.80    8.16
  -1   3  12  120.21    9.07
   1  -3 -12  104.92    6.68
  -1   3  12  115.80    8.61
   1  -3 -12  120.93    7.34
   4   7  12   77.13    4.84
  -4  -7 -12   79.13    5.19
  -4  -7 -12   89.56    6.25
   4   7  12   79.01    5.33
  -4  -7 -12   88.06    6.21
   4   7  12   93.87    6.21
   4   7  12   86.60    6.22
   3   2  13   12.17    2.13
  -3  -2 -13   11.04    1.81
  -3  -2 -13   13.43    1.70
   3   2  13    9.55    2.46
   3   2  13   12.98    2.05
   3   2  13   12.57    1.18
   7  -5   2   24.27    2.06
  -7   5  -2   29.34    2.19
  -7   5  -2   29.36    2.70
  -7   5  -2   33.81    2.63
   7  -5   2   29.57    2.72
   7  -5   2   29.43    2.40
  -2  -8 -12    3.00    1.51
  -2  -8 -12    6.46    2.00
   2   8  12    3.90    2.13
   2   8  12    4.46    1.09
  -2  -8 -12    6.68    2.35
   5  -1  11   11.91    2.08
   5  -1  11   14.56    1.51
   5  -1  11   12.52    1.63
   5  -1  11   12.78    1.38
   5  -1  11   13.97    2.22
  -5   1 -11   14.06    1.95
   4   4  13   80.27    6.28
   4   4  13   86.13    6.71
  -4  -4 -13   96.93    6.27
  -4  -4 -13   83.31    6.40
   4   4  13   84.66    5.23
   2   2  13    9.64    2.10
   2   2  13    8.71    1.86
   2   2  13   11.71    2.60
  -2  -2 -13    8.58    1.61
  -2  -2 -13    7.97    1.02
   2   2  13    8.73    0.96
  -7   4  -5   32.34    2.72
   7  -4   5   28.70    2.76
   7  -4   5   28.86    2.58
   7  -4   5   30.50    2.39
  -7   4  -5   27.60    2.38
   0   8  -4   26.25    2.12
   0  -8   4   26.55    2.24
   0   8  -4   22.67    1.68
   0  -8   4   24.99    2.59
   0   8  -4   24.58    2.46
   0  -8   4   26.58    2.78
  -1  -3 -13    4.09    1.04
   1   3  13    5.62    1.98
   1   3  13    5.43    1.29
   1   3  13    3.05    1.49
   1   3  13    3.01    2.28
  -1  -3 -13    5.17    0.78
  -1  -3 -13    7.06    1.51
   4  -4  -9   20.21    2.25
   4  -4  -9   15.19    1.76
   4  -4  -9   16.67    2.41
  -4   4   9   18.92    1.72
  -4   4   9   14.46    2.49
   4  -4  -9   16.67    1.79
  -5   8  -1   35.21    3.03
   5  -8   1   39.08    2.97
   5  -8   1   39.46    3.40
   5  -8   1   34.15    2.79
  -5   8  -1   40.98    2.80
   5  -8   1   42.72    2.83
  -8   0  -3   26.24    2.49
  -8   0  -3   27.31    2.41
  -8   0  -3   23.48    1.98
  -8   0  -3   24.75    2.38
   8   0   3   25.53    2.33
   3   7  -3   64.37    4.39
   3   7  -3   60.00    4.20
  -3  -7   3   72.22    5.30
   3   7  -3   74.15    4.84
  -8  -1  -4    7.63    1.54
  -8  -1  -4    4.95    1.39
   8   1   4    3.50    1.25
  -8  -1  -4    2.58    1.26
  -7  -5  -8   25.90    2.92
  -7  -5  -8   27.94    2.05
  -7  -5  -8   28.47    2.45
   7   5   8   30.26    2.26
  -7   5   0    7.63    1.52
   7  -5   0    8.85    1.42
  -7   5   0    7.26    1.38
   7  -5   0    9.53    1.60
   3  10   7   92.15    6.04
  -3 -10  -7   92.62    6.79
   3  10   7   89.88    6.84
   3  10   7   79.82    5.24
   4   2  -7   67.85    4.78
  -4  -2   7   74.86    5.97
  -4  -2   7   80.99    5.48
   4   2  -7   68.38    4.60
  -5   7  -4   65.12    4.64
   5  -7   4   64.66    4.31
   5  -7   4   57.21    4.33
   5  -7   4   63.38    4.70
  -7  -2   1   25.31    2.19
   7   2  -1   24.62    2.42
  -7  -2   1   26.51    2.38
  -7  -2   1   25.39    2.29
  -4   3   9   28.22    2.32
  -4   3   9   28.83    3.51
   4  -3  -9   34.73    2.76
   4  -3  -9   26.35    2.94
  -4   3   9   28.91    3.19
  -8  -1  -5   71.51    5.03
  -8  -1  -5   75.41    5.23
  -8  -1  -5   66.48    5.13
   8   1   5   68.71    4.81
   6  -7   0    0.69    0.52
   6  -7   0    2.12    1.16
  -6   7   0    1.39    0.97
   6  -7   0    0.73    1.20
  -6   7   0    2.27    1.18
   6  -7   0    1.35    0.98
  -7  -3   0    2.25    0.88
  -7  -3   0    3.18    1.25
   7   3   0    1.49    1.13
  -7  -3   0    2.69    1.01
   2  -7   6    4.59    1.36
   2  -7   6    4.20    1.29
  -2   7  -6    6.00    1.03
   8   0   5    9.48    1.42
  -8   0  -5    9.69    1.53
  -8   0  -5    7.00    1.52
  -5  -1 -12   77.04    5.54
   5   1  12   69.51    4.66
   5   1  12   75.91    5.59
   5   1  12   71.79    5.08
   5   1  12   72.50    5.71
  -5  -1 -12   74.77    5.02
  -2 -10  -9  150.27   10.08
   2  10   9  164.26   10.55
   2  10   9  149.25    8.95
   2  10   9  135.99    9.59
   7  -4  -2    5.05    1.32
   7  -4  -2    3.45    1.42
   7  -4  -2    4.97    1.19
  -7   4   2    3.92    1.38
  -7   4   2    5.43    1.33
   5   8   3   15.49    2.65
   5   8   3   15.13    1.56
   5   8   3   16.81    1.46
  -5  -8  -3   14.97    1.51
  -5  -7 -11   43.64    2.86
  -5  -7 -11   41.06    3.75
  -5  -7 -11   30.94    3.61
   3   6  13  124.69    7.96
   3   6  13  136.24    8.95
   3   6  13  134.26    8.93
  -3  -6 -13  127.69    9.01
  -3  -6 -13  126.13    8.56
   0 -10  -9   34.63    4.09
   0  10   9   35.40    3.09
   0 -10  -9   38.15    2.56
   0 -10  -9   38.40    3.30
  -6  -7  -4   60.46    4.24
   6   7   4   60.64    4.06
   6  -7  -1   -0.42    1.13
  -6   7   1    1.06    1.05
   6  -7  -1   -1.41    1.09
   6  -7  -1    0.79    1.23
  -6   7   1   -0.36    0.91
   4  -9   0   13.70    1.53
   4  -9   0   14.54    2.03
   4  -9   0   15.47    1.53
  -4   9   0   14.34    1.68
  -4   9   0   16.35    1.36
   6   5  11   99.09    7.21
  -6  -5 -11   88.38    6.80
  -6  -5 -11   94.45    6.14
  -6  -5 -11  101.43    6.51
  -6  -5 -11   94.30    6.53
  -2  -9 -11   14.21    2.63
   2   9  11   12.24    1.67
   2   9  11    9.18    2.52
  -2  -9 -11   10.02    1.91
  -2  -9 -11   14.79    2.45
   6  -5   6   49.41    3.55
   6  -5   6   51.66    3.83
  -6   5  -6   42.08    3.53
  -6   5  -6   51.67    3.67
   6  -5   6   39.24    3.59
  -1  -9 -11   19.66    2.93
  -1  -9 -11   24.03    3.30
  -1  -9 -11   24.71    2.55
   1   9  11   20.17    2.08
   4   3  13    8.74    2.37
   4   3  13   10.19    1.02
   4   3  13   10.68    1.92
  -4  -3 -13   10.91    1.76
   3  10   5    7.21    1.72
   3  10   5    3.43    0.80
   3  10   5    2.39    2.19
  -3 -10  -5    5.00    0.75
   1   7  -5    1.53    0.78
   1   7  -5    0.48    1.27
   0  -5   8   -0.52    0.82
   0   5  -8    0.63    0.98
   0  -5   8    0.15    1.19
   0  -5   8    0.25    0.84
   0   5  -8   -0.83    0.88
   2  -8 -10   11.81    2.30
   2  -8 -10    9.76    1.29
   2  -8 -10   14.13    1.47
   2  -8 -10   12.88    2.75
   2  -8 -10   16.84    2.46
   2  -8 -10   14.68    1.61
   2  -8 -10   15.58    1.76
  -8   1  -3    6.69    1.42
  -8   1  -3    5.44    1.50
  -8   1  -3    6.20    1.17
   8  -1   3    6.08    1.36
   8  -1   4   83.61    5.68
  -8   1  -4   83.63    5.83
  -8   1  -4   84.84    5.69
  -8   1  -4   85.25    5.78
   1  10   1    0.23    0.82
  -1 -10  -1    0.60    0.96
   1  10   1    0.08    0.16
   3  -6 -10    6.64    0.93
   3  -6 -10    5.03    1.22
   3  -6 -10    6.39    1.63
   3  -6 -10    4.83    1.10
   3  -6 -10    5.16    1.06
  -3   6  10    6.55    1.21
   3  -6 -10    6.87    2.09
  -3   6  10    5.73    1.99
  -1  -8 -12   40.42    3.88
  -1  -8 -12   37.98    4.10
  -1  -8 -12   37.58    3.32
   1   8  12   42.02    3.65
   1   8  12   40.90    3.05
   1  -9 -10    3.72    1.21
   1  -9 -10    4.22    2.09
   1  -9 -10    3.98    1.20
   1  -9 -10    3.53    1.08
   6  -6  -4    7.11    2.00
  -6   6   4    5.92    1.34
   6  -6  -4    4.89    1.43
   0  -4   9   23.45    2.40
   0  -4   9   21.00    1.88
   0   4  -9   19.32    1.81
   0   4  -9   20.06    1.79
   0  -4   9   19.46    1.95
   1   2 -10   64.23    4.84
   1   2 -10   59.04    4.27
  -1  -2  10   71.36    5.63
  -1  -2  10   67.70    4.37
  -1  -2  10   67.24    5.00
   1   2 -10   68.52    4.19
   4  -7  -8    5.82    2.06
   4  -7  -8    4.29    1.12
   4  -7  -8    5.50    1.27
   4  -7  -8    5.94    1.43
   4   9   3   35.17    2.39
   4   9   3   38.72    2.69
  -4  -9  -3   33.82    2.42
   4   9   3   38.58    3.92
   5  -8  -4    9.70    1.32
   5  -8  -4    6.74    1.23
   5  -8  -4    6.17    1.74
   5  -8  -4    5.13    1.62
   5  -6   6   11.00    1.66
  -5   6  -6   10.38    1.59
   5  -6   6   11.11    1.66
  -5   6  -6    8.16    1.47
   5  -6   6   10.83    1.82
  -8  -1  -3    3.32    1.35
  -8  -1  -3    4.15    1.43
   8   1   3    3.96    1.26
   1  -8 -11   41.70    3.15
   1  -8 -11   43.37    3.29
  -4  -5 -13  228.44   13.78
   4   5  13  201.67   14.39
   4   5  13  209.89   13.18
  -4  -5 -13  223.97   14.59
   4   5  13  221.95   13.00
  -4  -5 -13  216.08   14.47
  -4  -5 -13  232.90   14.23
   4   5  13  221.32   14.19
   1  -7   6   20.71    1.95
  -1   7  -6   21.40    2.23
   1  -7   6   21.60    2.37
   1  -7   6   24.71    2.56
  -6   7  -1    3.56    1.25
   6  -7   1    4.23    1.05
   6  -7   1    4.49    0.84
   6  -7   1    6.07    1.45
   6  -7   1    3.81    1.18
   6  -7   1    8.64    1.81
  -6   7  -1    4.80    1.09
   4  -8  -7   24.15    2.24
   4  -8  -7   24.58    1.92
   4  -8  -7   22.18    2.53
   4  -8  -7   25.79    2.89
   4  -8  -7   23.10    2.12
   4  -8  -7   21.33    3.16
   2  -9  -9   48.36    3.50
   2  -9  -9   50.33    4.88
   2  -9  -9   60.30    3.63
   2  -9  -9   52.59    3.83
   2  -9  -9   39.26    3.29
   2  -9  -9   47.44    3.00
   2  -9  -9   47.78    4.45
   1   6  13    3.03    1.62
  -1  -6 -13    3.70    1.24
  -1  -6 -13    2.53    1.89
   1  -2  11   52.02    4.19
   1  -2  11   50.02    3.62
   1  -2  11   56.29    3.75
  -1   2 -11   52.26    3.69
  -1   2 -11   57.49    4.30
   2 -10  -7   33.26    3.08
   2 -10  -7   34.28    2.39
   2 -10  -7   29.53    3.76
   2 -10  -7   32.64    2.18
   2 -10  -7   30.26    2.62
   2 -10  -7   31.71    2.33
   2 -10  -7   23.61    3.05
  -6   5   5   57.60    4.71
   6  -5  -5   48.80    4.48
   6  -5  -5   54.58    3.88
   6  -5  -5   54.22    3.75
   6  -5  -5   54.79    4.07
   4  -5  -9   95.70    6.63
   4  -5  -9   98.55    6.72
   4  -5  -9  128.30    7.37
   4  -5  -9  108.01    7.61
  -4   5   9  113.67    8.61
  -4   5   9  122.94    7.64
   4  -5  -9   99.48    6.33
   1  -6 -12   90.41    4.81
  -1   6  12  107.00    7.32
   1  -6 -12   96.86    5.36
   1  -6 -12   70.76    4.45
  -1  10   0  206.27   12.75
  -1  10   0  206.18   12.46
   1 -10   0  185.60   12.08
  -1  10   0  202.55   13.14
   1 -10   0  216.07   13.02
   1 -10   0  187.06   11.73
   1 -10   0  192.85   12.25
  -8  -1  -6    3.99    1.33
  -8  -1  -6    5.08    1.43
  -8  -1  -6    4.45    1.45
   8   1   6    4.83    1.12
  -7   5  -3   44.93    3.46
  -7   5  -3   44.22    3.25
  -7   5  -3   38.67    2.94
   7  -5   3   47.45    3.58
   7  -5   3   41.77    3.10
   7  -5   3   43.12    3.20
   7  -5   3   37.05    3.45
  -3 -10  -8  190.55   12.55
   3  10   8  218.15   12.75
   3  10   8  192.79   11.95
   3 -10  -3   35.34    3.33
   3 -10  -3   29.24    2.56
  -3  10   3   38.52    2.83
   3 -10  -3   36.59    2.39
   3 -10  -3   36.97    2.58
  -7  -5  -3   27.88    2.50
   7   5   3   29.49    2.48
  -7  -5  -3   30.12    3.00
   4  -9  -5    9.74    1.35
   4  -9  -5    9.97    1.19
   4  -9  -5   10.78    1.15
   4  -9  -5    8.01    1.86
   4  -9  -5   11.99    1.89
   4  -9  -5    8.50    0.82
   8   0   2   70.32    4.97
  -8   0  -2   76.75    5.16
  -8   0  -2   70.86    5.29
   4  -2  11   63.27    4.31
  -4   2 -11   59.97    4.74
  -4   2 -11   67.66    4.29
   4  -2  11   63.94    4.97
   4  -2  11   64.05    4.69
   4  -2  11   63.31    5.08
  -4   2 -11   58.43    4.35
   4  -2  11   68.73    4.35
  -8   1  -2   72.05    5.44
   8  -1   2   80.48    5.53
  -8   1  -2   80.85    5.22
  -8   1  -2   78.52    5.54
  -8   1  -2   81.10    5.26
   6  -7  -2    2.16    1.66
   6  -7  -2    1.30    1.06
  -6   7   2   -0.52    0.98
  -6   7   2    0.56    1.23
   6  -7  -2   -0.11    1.16
   3  -9   2    2.69    1.44
   3  -9   2    1.89    1.13
  -3   9  -2    3.37    1.08
  -3   9  -2    2.03    0.32
  -3   9  -2    2.85    1.21
   3  -9   2    3.98    1.02
   2  10   2    6.14    1.82
   2  10   2    8.84    1.12
  -6   0   5   11.64    1.31
  -6   0   5    9.71    2.03
   6   0  -5   14.49    1.79
   6   0  -5    9.56    1.59
  -7  -1   2   59.04    4.56
  -7  -1   2   71.10    4.76
   7   1  -2   64.37    4.69
  -7   2   3    0.17    1.39
  -7   2   3    0.29    0.49
  -7   2   3    0.18    0.19
  -7   2   3    0.54    1.14
  -8  -2  -5    0.12    1.18
  -8  -2  -5    0.62    1.23
  -8  -2  -5    0.86    1.07
   8   2   5   -0.49    1.13
  -8  -2  -5    0.41    1.22
  -5  -6 -12   61.78    4.69
  -5  -6 -12   54.70    3.79
   5   6  12   58.44    3.80
  -5  -6 -12   56.02    4.52
   5  -7  -6   -0.36    1.04
   5  -7  -6   -1.05    1.81
   5  -7  -6    0.31    1.46
   5  -7  -6   -0.23    1.13
  -3  -8 -12   25.79    1.88
   3   8  12   25.36    3.10
  -3  -8 -12   26.36    3.30
  -3  -8 -12   26.71    3.10
  -3  -8 -12   29.70    3.02
   3   8  12   25.59    2.34
   0   6  -7   22.07    1.99
   0  -6   7   18.98    1.83
   0  -6   7   22.82    2.07
   0   6  -7   26.36    2.10
   0   6  -7   20.59    2.18
   6   6   1    8.83    1.36
  -6  -6  -1    7.69    1.28
   7  -5  -1    7.10    1.72
   7  -5  -1    6.61    1.41
  -7   5   1    6.66    1.28
  -7   5   1    6.38    1.48
   7  -5  -1    6.30    1.42
  -8   1  -5    3.51    1.09
  -8   1  -5    4.05    1.46
   8  -1   5    4.41    1.21
   3 -10  -4   56.80    3.62
   3 -10  -4   58.55    4.44
   3 -10  -4   57.04    3.71
   3 -10  -4   50.01    3.72
  -6  -7  -9   68.07    4.35
  -6  -7  -9   55.70    5.00
  -6  -7  -9   62.09    4.89
   7   2  10   23.11    2.40
  -7  -2 -10   27.79    2.42
   7   2  10   24.74    2.24
   7   2  10   22.96    2.72
  -7  -2 -10   26.19    2.75
  -4   2   9  167.28   11.48
   4  -2  -9  152.90   11.08
  -4   2   9  164.05   10.40
   4  -2  -9  172.83   10.88
   7   4   1    0.45    1.13
  -7  -4  -1    0.13    0.68
  -7  -4  -1    0.11    1.20
  -3   7  -6   15.42    1.61
   3  -7   6   18.74    2.07
   7  -2   8   11.90    1.65
  -7   2  -8   10.48    1.56
   7  -2   8    8.99    1.79
  -8   0  -6   64.79    4.68
   8   0   6   58.87    4.14
  -8   0  -6   62.90    4.66
  -4   6  -7   48.65    3.62
  -4   6  -7   41.86    3.71
   4  -6   7   43.97    3.61
   4  -6   7   48.39    3.57
   4  -6   7   42.90    3.23
  -4   6  -7   47.51    3.39
  -6  -3   3   23.87    2.24
   6   3  -3   18.35    1.99
  -6  -3   3   20.38    1.66
  -6  -3   3   16.23    1.92
  -6  -3   3   19.76    2.21
  -7  -3 -10   11.36    1.96
  -7  -3 -10   10.45    1.46
   7   3  10   10.36    2.02
  -8  -2  -4    3.36    1.23
  -8  -2  -4    1.89    1.30
  -8  -2  -4    1.76    1.20
  -8  -2  -4    1.06    1.35
   8   2   4    2.38    1.20
  -3  -1   9   11.48    1.63
   3   1  -9    7.24    1.39
  -3  -1   9    9.66    2.39
   3   1  -9   10.67    1.22
  -5  -4   4   29.32    2.63
   5   4  -4   34.14    2.58
   5   4  -4   33.24    2.71
   5   4  -4   27.13    2.42
  -5  -4   4   28.40    2.76
   5   4  -4   25.40    2.52
  -6  -4   2    7.86    1.51
  -6  -4   2    5.62    1.37
   6   4  -2    6.34    1.31
   3  10   4   20.68    1.76
  -3 -10  -4   17.10    1.33
   3  10   4   21.28    3.12
   3  10   4   23.04    2.50
   7  -3   7    6.90    1.43
  -7   3  -7    6.63    1.32
  -7   3  -7    5.37    1.51
   7  -3   7    4.60    1.47
   0 -10   0   86.65    5.63
   0  10   0   96.34    6.42
   0 -10   0   97.51    6.75
   0 -10   0   81.11    5.93
   0  10   0   91.08    5.61
   0  10   0   85.25    5.88
  -3  10   2   26.65    2.12
   3 -10  -2   27.23    2.29
   3 -10  -2   29.60    2.25
   4   2  13   27.42    2.75
   4   2  13   23.41    1.66
  -4  -2 -13   27.55    2.65
   4   2  13   25.95    3.19
   4   2  13   25.18    1.86
  -8  -2  -6    1.31    1.32
  -8  -2  -6    0.16    1.33
   8   2   6   -0.99    1.11
  -8  -2  -6    0.35    1.20
  -4  -8   0   -0.26    0.76
   4   8   0   -0.21    1.95
   4   8   0    0.35    0.79
   4   8   0   -0.08    0.83
   7  -3  -3   28.66    2.65
  -7   3   3   32.27    2.83
   7  -3  -3   25.68    2.47
  -7   3   3   29.89    3.04
  -1   2  12   31.35    2.92
  -1   2  12   37.71    3.97
   1  -2 -12   36.28    2.98
   1  -2 -12   32.13    2.33
  -1   2  12   32.29    3.50
  -7   1   3    4.60    0.81
  -7   1   3    3.36    0.88
   7  -1  -3    4.53    1.31
  -5  -8 -10   31.43    3.66
  -5  -8 -10   41.44    2.78
   2   1 -10   92.27    5.80
  -2  -1  10   99.52    7.38
  -2  -1  10   91.89    6.47
   2   1 -10   79.30    6.02
   2   1 -10   93.57    5.70
  -8   2  -3   17.88    2.05
  -8   2  -3   17.23    1.63
   1   2  13    9.60    1.23
   1   2  13   11.22    2.15
  -1  -2 -13    6.43    1.57
   1   2  13    7.39    2.32
   1   2  13    6.92    1.83
  -1  -2 -13    8.36    1.01
   5  -6  -7  109.73    7.26
  -5   6   7  122.86    8.70
   5  -6  -7  116.50    8.08
   5  -6  -7  104.88    7.06
   3  -8  -9    4.07    0.93
   3  -8  -9    4.69    1.36
   3  -8  -9    9.90    2.36
   3  -8  -9    2.78    1.15
   3  -8  -9    3.69    0.69
   3  -8  -9    4.16    0.76
   3  -8  -9    4.58    2.28
   0  -3  10  109.37    6.62
   0  -3  10   96.93    6.61
   0  -3  10  103.14    7.11
   0  -3  10   99.81    7.43
   0   3 -10   90.08    6.92
   0   3 -10  101.57    6.32
   0   3 -10  103.12    6.46
  -5  -3   5   23.07    2.18
  -5  -3   5   19.59    2.42
   5   3  -5   23.00    2.13
   5   3  -5   18.54    2.09
   5   3  -5   20.23    1.93
  -6   0 -11    0.39    1.10
   6   0  11   -0.91    1.60
   6   0  11    2.00    0.93
   6   0  11    1.18    1.42
  -6   0 -11    2.23    1.33
  -3  -9 -11   92.17    5.88
   3   9  11   82.27    5.06
   3   9  11  107.02    6.93
  -3  -9 -11  115.00    7.17
  -3  -9 -11  101.52    7.16
  -3  -9 -11  100.28    7.56
   3   9  11  105.32    6.00
   3  -1 -10   62.77    4.06
  -3   1  10   70.51    4.92
   3  -1 -10   56.84    4.35
  -3   1  10   65.15    5.81
   0  -9 -11   56.80    5.54
   0  -9 -11   63.68    4.59
   0  -9 -11   54.50    5.07
  -7  -5  -9    1.42    1.12
  -7  -5  -9    4.19    1.73
  -2  10   0   76.17    6.00
   2 -10   0   86.14    5.53
   2 -10   0   79.19    6.13
   2 -10   0   81.46    5.76
  -2  10   0   82.16    5.73
   2 -10   0  100.47    7.08
  -2  10   0   89.74    5.47
   8   1   2   12.55    1.79
  -8  -1  -2   12.70    1.77
  -8  -1  -2   12.45    1.75
  -8  -1  -2   13.23    1.92
   5  -8   2   12.42    1.49
  -5   8  -2    8.43    1.52
   5  -8   2   10.00    1.34
   5  -8   2    9.92    1.92
  -5   8  -2    7.54    1.12
  -3   1 -12   -0.59    0.99
   3  -1  12    0.32    0.82
   3  -1  12    0.23    1.72
  -7  -1 -10   74.17    5.39
   7   1  10   72.57    5.60
   7   1  10   80.94    5.99
   7   1  10   84.30    5.47
  -7  -1 -10   71.85    5.04
   5   7   0  102.28    6.80
   5   7   0   88.54    5.93
   5   7   0   87.75    5.94
  -5  -7   0   95.24    6.21
  -8   2  -2   60.23    4.61
  -8   2  -2   65.96    4.25
   7  -1   9   40.61    3.10
  -7   1  -9   39.01    3.22
   7  -1   9   36.17    3.14
  -7   1  -9   35.26    3.03
   7  -1   9   35.21    3.40
   2   9  -1   83.31    5.93
   2   9  -1   80.23    5.36
   6  -7   2    8.50    1.23
   6  -7   2    7.38    1.31
  -6   7  -2   10.48    1.65
   6  -7   2    6.51    1.11
   6  -7   2   10.19    1.90
   6  -7   2   11.24    1.59
  -6   7  -2    9.28    1.38
  -5  -5   3  140.26    9.20
   5   5  -3  161.09   10.44
   3 -10  -5   14.58    1.40
   3 -10  -5   18.22    3.06
   3 -10  -5   11.62    1.24
   3 -10  -5   16.57    2.20
   3 -10  -5   12.63    1.50
   3 -10  -5   15.89    1.33
   3 -10  -5   14.03    2.03
  -2  -7 -13   23.21    3.25
  -2  -7 -13   26.57    2.66
   2   7  13   31.06    2.96
   2   7  13   26.85    2.10
   2   7  13   24.78    3.14
  -8   2  -4   27.75    2.36
  -8   2  -4   32.97    2.69
  -4  -9 -10   32.97    3.72
   4   9  10   31.39    2.13
   4   9  10   36.13    3.78
   4   9  10   33.77    2.94
  -4  -9 -10   37.19    3.41
  -4  -9 -10   31.10    2.20
   6   7   3   55.92    3.87
  -6  -7  -3   59.61    4.17
   2  -1  12   29.12    3.15
  -2   1 -12   20.77    2.56
   2  -1  12   24.73    2.03
   2  -1  12   23.25    2.60
  -2   1 -12   28.30    2.17
  -5   0   7   78.23    6.34
   5   0  -7   81.97    5.29
   5   0  -7   68.15    5.12
  -5   0   7   85.18    5.59
  -6  -2   4   64.40    4.64
  -6  -2   4   68.76    4.29
  -6  -2   4   57.08    4.91
   6   2  -4   69.02    4.56
   6   2  -4   58.29    4.54
  -6  -2   4   72.35    4.89
  -4   9  -1    5.02    0.72
   4  -9   1    3.46    0.99
  -4   9  -1    1.96    1.09
   4  -9   1    3.08    1.02
   4  -9   1    2.42    1.44
   2  -1 -11   27.38    2.42
   2  -1 -11   27.23    2.13
  -2   1  11   29.53    2.66
   2  -1 -11   28.89    2.63
  -2   1  11   26.15    3.52
  -8  -2  -3    2.82    1.41
  -8  -2  -3    3.03    1.18
  -8  -2  -3    2.71    1.25
  -8  -2  -3    2.52    1.40
   8   2   3    3.33    1.28
   1   9  -2   32.05    2.98
  -1  -9   2   27.79    2.38
   1   9  -2   29.79    2.47
  -1  -9   2   32.09    2.81
   2  -7 -11    1.45    1.83
   2  -7 -11    3.90    1.62
   2  -7 -11    2.22    0.73
  -2   7  11    3.06    1.22
   2  -7 -11    2.89    0.36
   2  -7 -11    3.03    0.92
   2  -7 -11    4.15    1.06
  -3  -1 -13    9.62    1.85
   3   1  13   11.31    1.18
   3   1  13   10.99    2.06
   3   1  13   13.86    2.71
  -3  -1 -13   10.72    1.31
   3   1  13    9.67    2.00
   0  -4 -13   66.29    4.23
   0   4  13   70.73    5.28
   0   4  13   70.04    5.73
   0  -4 -13   69.52    4.50
   0  -4 -13   70.47    4.96
  -4  -6 -13   54.65    4.75
  -4  -6 -13   55.13    3.76
   4   6  13   67.32    4.93
  -4  -6 -13   64.41    4.72
   4   6  13   57.86    3.57
   4   6  13   53.88    3.93
   4   7  -2   67.45    4.78
   4   7  -2   69.23    4.86
   4   7  -2   89.28    5.70
  -8   1  -1   49.58    3.52
  -8   1  -1   47.60    3.86
   8  -1   1   46.74    3.63
  -8   1  -1   48.41    3.79
  -8   1  -1   50.54    3.68
  -1 -10 -10   48.45    5.04
  -1 -10 -10   56.30    4.80
   1  10  10   60.83    4.56
  -1 -10 -10   53.09    4.33
  -1 -10 -10   55.17    3.50
  -8  -1  -7   23.65    2.54
   8   1   7   29.96    2.45
  -8  -1  -7   32.09    2.77
  -8  -1  -7   30.24    2.83
   0  11   5   21.04    2.45
   0  11   5   21.86    1.88
   0 -11  -5   20.97    1.73
   0 -11  -5   25.52    3.21
   7   4  10    1.39    1.58
  -7  -4 -10   -0.29    1.00
  -7  -4 -10    1.55    1.42
  -7  -4 -10    0.68    1.00
   0   5  13   54.22    4.34
   0  -5 -13   55.98    3.93
   0  -5 -13   47.01    3.05
   0  -5 -13   54.57    3.47
   0   5  13   53.38    4.79
   6  -7  -3   73.66    5.33
   6  -7  -3   68.51    4.84
   6  -7  -3   62.60    5.53
   6  -7  -3   69.42    4.90
  -6   7   3   59.85    4.76
  -6   7   3   73.99    4.79
   2   8  -3    4.99    1.09
   2   8  -3    9.20    1.84
  -2  -1 -13   40.79    2.89
   2   1  13   42.92    3.75
   2   1  13   42.81    3.63
  -2  -1 -13   38.55    3.43
   2   1  13   35.81    2.69
   2   1  13   42.80    4.34
   8  -1   6   43.93    3.19
  -8   1  -6   43.42    3.37
  -8   1  -6   37.01    3.15
   8  -1   6   39.84    3.42
  -3 -10  -9  116.44    8.21
   3  10   9  124.24    7.77
   3  10   9  130.79    8.52
   3  10   9  153.43    9.60
   6   5  -1   95.83    6.40
  -6  -5   1  112.57    7.39
   0  -8 -12   80.74    5.67
   0   8  12   77.19    5.66
   0  -8 -12   79.30    6.70
   0  -8 -12   82.81    6.39
   3  -9  -8    2.14    2.08
   3  -9  -8    1.27    0.88
   3  -9  -8    1.75    0.58
   3  -9  -8    0.98    1.09
   3  -9  -8    0.26    2.16
   3  -9  -8    0.88    1.45
   3  -9  -8    0.54    1.19
   3  -9  -8    1.66    0.71
   0  11   6   66.75    5.13
   0  11   6   70.40    4.60
   0 -11  -6   67.12    4.33
  -7   5  -4   11.46    1.42
  -7   5  -4   15.04    1.66
  -7   5  -4   11.21    1.86
   7  -5   4   11.97    1.52
   7  -5   4   12.80    1.52
   7  -5   4   10.47    1.86
  -4  -1   8   69.90    5.52
   4   1  -8   64.25    4.47
   4   1  -8   68.96    4.74
  -4  -1   8   64.53    4.70
   1 -10  -9  105.76    7.17
   1 -10  -9   87.16    5.32
   1 -10  -9   83.20    6.04
   1 -10  -9   95.02    6.13
   1 -10  -9   71.29    5.50
   1 -10  -9  109.20    5.74
   1 -10  -9   99.95    6.93
  -8   0  -1   21.48    2.06
  -8   0  -1   17.89    2.25
   8   0   1   14.41    1.90
  -8  -2  -7   59.02    4.47
   8   2   7   61.65    4.26
  -8  -2  -7   66.10    4.86
  -8  -2  -7   62.11    4.72
  -3  -7 -13   37.46    3.79
  -3  -7 -13   46.53    4.26
   3   7  13   43.83    4.03
  -3  -7 -13   39.32    3.58
   3   7  13   42.05    3.85
   3   7  13   39.31    2.97
  -6   3  -9   51.82    3.93
   6  -3   9   56.32    3.68
   6  -3   9   55.28    4.29
   6  -3   9   55.57    4.26
  -6   3  -9   54.06    4.08
   6  -3   9   58.94    3.99
   6  -3   9   52.05    4.45
  -3  10   1   32.73    2.53
   3 -10  -1   33.00    2.43
   3 -10  -1   29.52    2.51
  -3  10   1   34.07    2.78
   7   6   6   48.14    3.37
  -7  -6  -6   51.84    3.83
  -7  -6  -6   53.23    4.55
  -7  -6  -6   59.28    4.05
   4  -6  -9    6.77    1.87
   4  -6  -9    4.19    1.19
  -4   6   9    5.93    1.86
   4  -6  -9    6.23    1.41
   4  -6  -9    4.66    2.11
   4  -6  -9    5.52    1.12
   4  -6  -9    4.03    0.61
  -4   6   9    4.60    0.85
  -1   9  -3    2.09    1.35
  -1   9  -3    0.89    0.75
   1  -9   3    0.75    0.93
  -1   9  -3    1.04    0.96
   1  -9   3    2.02    1.97
   1  -9   3    0.14    1.11
   7  -4   6   -0.15    1.35
  -7   4  -6    0.13    1.18
   7  -4   6   -0.94    1.22
  -7   4  -6   -1.19    1.10
   7  -4   6   -0.36    1.22
   5   8   2   31.97    3.42
   5   8   2   28.43    2.30
   5   8   2   29.12    2.40
  -5  -8  -2   28.56    2.24
   2  10  10   24.89    2.01
  -2 -10 -10   27.90    2.85
  -2 -10 -10   28.19    3.36
   2  10  10   40.24    3.51
  -2 -10 -10   14.57    1.01
  -2 -10 -10   22.36    2.48
   5  -8  -5    1.08    1.12
   5  -8  -5   -1.88    2.00
   5  -8  -5    1.75    0.95
   5  -8  -5    3.53    1.65
   5  -8  -5    1.12    1.54
   5  -8  -5    0.61    0.93
  -6  -6 -11   67.63    4.50
  -6  -6 -11   68.29    5.04
  -6  -6 -11   68.79    5.00
  -6  -6 -11   59.46    5.17
   5  -4   9   19.56    2.02
   5  -4   9   18.66    2.26
   5  -4   9   20.47    2.34
  -5   4  -9   17.26    2.15
  -5   4  -9   15.82    1.81
   5  -4   9   19.48    1.82
   0   0 -12   16.50    1.58
   0   0  12   17.94    2.19
   0   0 -12   19.49    2.19
   3   5  -6   22.02    2.13
  -3  -5   6   16.73    2.13
   3   5  -6   16.97    1.85
   3   5  -6   17.57    1.76
   0 -11  -4   -0.24    1.89
   0  11   4   -0.15    1.35
   0 -11  -4    0.06    0.74
   0  11   4    0.70    0.90
  -6   3   6   -0.21    1.50
   6  -3  -6    1.81    1.28
   6  -3  -6    1.22    1.18
   6  -3  -6    3.12    1.33
  -6   3   6   -0.04    0.22
   7   6   7   80.03    5.16
  -7  -6  -7   81.66    5.59
  -7  -6  -7   90.59    6.31
  -7  -6  -7   81.56    5.52
   2   5  -7   72.39    4.80
   2   5  -7   64.78    4.57
   2   5  -7   64.59    4.53
  -2  -5   7   65.27    4.89
  -5   0 -12   84.09    5.62
   5   0  12   80.82    6.30
   5   0  12   82.69    5.44
  -5   0 -12   87.12    6.14
   5   0  12   82.35    6.38
   5   0  12   84.31    5.85
   5   0  12   87.86    5.49
  -2   9  -3   47.57    3.95
   2  -9   3   56.34    4.64
  -2   9  -3   52.86    3.73
   2  -9   3   51.68    4.08
   2  -9   3   49.73    3.93
   2  -9   3   51.56    3.63
  -2   9  -3   49.65    3.52
  -7   5   2   17.36    1.98
   7  -5  -2   12.65    2.18
   7  -5  -2   12.74    1.71
  -7   5   2   15.60    2.09
   7  -5  -2   14.62    1.82
   0  -7   6   89.39    6.73
   0  -7   6  110.81    6.71
   0  -7   6   92.09    6.25
   0   7  -6  109.68    7.03
   0   7  -6  101.84    6.59
   6   3  12   16.79    2.45
  -6  -3 -12   18.04    2.22
   6   3  12   15.80    1.58
   6   3  12   14.21    2.30
  -6  -3 -12   13.81    2.11
  -6  -3 -12   15.68    1.68
   3   4  -7   -1.31    1.28
   3   4  -7   -0.33    0.93
  -3  -4   7    0.58    1.19
   1  11   6   57.65    4.33
   1  11   6   53.85    3.67
   6  -6   5   77.56    5.42
   6  -6   5   68.09    5.00
  -6   6  -5   73.27    5.42
  -6   6  -5   88.47    5.65
   7  -4  -3    0.35    0.87
  -7   4   3    2.03    1.46
   7  -4  -3    0.51    1.21
   7  -4  -3   -0.75    1.35
  -7   4   3    2.51    1.27
  -8  -3  -5  111.71    7.28
  -8  -3  -5  107.94    7.17
  -8  -3  -5  104.40    7.10
   8   3   5  110.08    7.19
  -8  -3  -5  107.56    7.48
  -8   2  -1    2.72    0.69
  -8   2  -1    0.96    1.20
  -8   2  -1    2.32    1.03
   6  -4   8   76.71    5.61
   6  -4   8   79.40    5.27
   6  -4   8   69.96    5.57
   6  -4   8   84.35    5.59
  -6   4  -8   73.45    5.17
   1   7  13   29.49    2.99
  -1  -7 -13   18.99    2.96
  -1  -7 -13   31.60    2.72
  -7   0   3   33.01    2.95
   7   0  -3   35.11    2.99
  -7   0   3   29.37    2.32
  -8   0  -7   -0.41    1.26
  -8   0  -7    0.12    1.16
   8   0   7   -0.31    1.29
   8   0   7   -0.08    0.96
   1  11   5   40.19    3.50
   1  11   5   39.88    2.84
  -5   3 -10    1.64    1.07
   5  -3  10    2.04    0.91
   5  -3  10    2.20    1.41
   5  -3  10    2.06    1.35
  -5   3 -10    2.78    1.40
   5  -3  10    3.89    1.19
   3  -7 -10   10.52    1.44
   3  -7 -10    7.17    2.32
   3  -7 -10   10.53    2.12
   3  -7 -10   12.15    1.56
   3  -7 -10    9.99    1.09
   3  -7 -10    7.09    1.15
   8  -2   5   17.47    1.94
  -8   2  -5   20.20    1.92
   4  -8   4    0.28    1.31
  -4   8  -4   -0.12    1.16
   4  -8   4    0.16    1.00
   4  -8   4    0.46    1.02
  -4   8  -4    0.58    1.08
  -8  -3  -6   14.90    1.92
   8   3   6   10.89    1.49
  -8  -3  -6   12.63    2.02
  -8  -3  -6   14.97    1.85
   1  -7 -12   46.87    3.20
   1  -7 -12   43.49    3.47
  -1   7  12   46.53    3.80
   2   4  -8   18.65    1.84
  -2  -4   8   22.56    2.37
   2   4  -8   22.81    2.06
   2   4  -8   18.88    1.99
   4   9   2   80.63    5.74
   4   9   2   81.99    5.02
   4   9   2   87.72    6.44
   4   9   2   71.92    5.17
  -4  -9  -2   70.04    4.52
   0  -3 -13   16.06    1.33
   0   3  13   18.97    2.70
   0   3  13   14.95    2.21
   0  -3 -13   18.80    2.08
   5   2  -6   65.37    4.62
   5   2  -6   55.69    4.53
  -5  -2   6   63.57    5.23
  -5  -2   6   69.55    4.78
   5   2  -6   70.00    4.46
   4  -1  -9   60.43    4.14
  -4   1   9   57.37    5.17
  -4   1   9   58.63    4.22
   4  -1  -9   62.82    4.41
   4  -9  -6    1.33    0.88
   4  -9  -6    2.52    1.11
   4  -9  -6    2.90    1.53
   4  -9  -6    0.85    0.44
   4  -9  -6    1.78    0.40
   4  -9  -6    2.84    0.85
   4  -9  -6    0.79    1.49
  -7  -6  -5  110.06    7.25
   7   6   5  118.49    7.54
  -7  -6  -5  114.94    7.96
  -6   2   6    9.65    1.09
  -6   2   6    9.81    2.05
   6   4  12   17.09    2.49
  -6  -4 -12   15.80    1.70
  -6  -4 -12   16.12    2.21
   6   4  12   16.12    1.60
  -6  -4 -12   18.17    2.15
  -7  -5  -2    0.54    1.21
   7   5   2    0.75    1.04
   1   8  -4   46.06    3.20
  -1  -8   4   45.08    3.37
   1   8  -4   53.35    3.55
   1   8  -4   49.05    3.84
  -3 -10  -3   89.12    5.49
   3  10   3   89.07    5.87
   3  10   3  101.75    7.24
   3   8  -2    3.72    1.06
  -3  -8   2    2.62    1.29
   3   8  -2    3.42    1.62
  -2   8  -5   11.74    1.53
  -2   8  -5   11.34    1.31
   2  -8   5   12.51    1.80
   2  -8   5   11.78    1.79
  -1  11   5   20.38    1.84
   1 -11  -5   19.69    2.40
  -1  11   5   18.51    2.34
   1 -11  -5   19.98    1.60
   6  -2  10   24.55    2.18
   6  -2  10   22.41    2.57
  -6   2 -10   26.65    2.66
   6  -2  10   26.68    1.95
   6  -2  10   25.15    2.80
   6  -2  10   24.14    2.50
   3   9   0   49.16    3.49
   3   9   0   52.77    4.10
   3   9   0   46.88    3.31
  -6  -7 -10   82.40    6.34
  -6  -7 -10   81.96    6.08
  -6  -7 -10   84.36    5.49
   2 -10  -8    1.35    1.65
   2 -10  -8    1.10    0.95
   2 -10  -8    0.91    0.51
   2 -10  -8    1.02    2.08
   2 -10  -8    1.71    0.98
   2 -10  -8    1.59    1.47
   2 -10  -8    1.39    0.76
  -5   3   8    0.69    1.59
   5  -3  -8    2.24    1.13
  -5   3   8    1.52    1.99
  -5   3   8    2.15    0.78
   4  -1  12   47.25    3.36
  -4   1 -12   50.24    4.09
   4  -1  12   52.65    4.02
   4  -1  12   48.42    3.26
   4  -1  12   53.60    4.48
   4  -1  12   44.06    4.09
   5   4  13   13.78    2.65
   5   4  13   10.61    1.08
  -5  -4 -13   10.03    1.29
  -5  -4 -13    9.75    1.79
   6  -4  -6   -0.35    1.39
   6  -4  -6   -0.75    1.23
  -6   4   6   -0.86    1.62
   6  -4  -6   -0.44    1.16
   1 -11  -4   12.58    1.24
  -1  11   4   14.31    1.57
   1 -11  -4   12.24    2.06
   1 -11  -4   16.23    2.88
  -1  11   4   10.51    1.94
   5   9   7   64.59    5.39
   5   9   7   59.11    3.99
   0 -10 -10  117.01    9.58
   0  10  10  118.79    7.91
   0 -10 -10  139.58   10.67
   1  11   7    4.13    1.62
  -1 -11  -7    5.61    1.49
   1  11   7    6.10    0.95
   5  -4  -8    3.38    1.21
   5  -4  -8    4.06    1.63
   5  -4  -8    3.53    1.25
  -5   4   8    1.17    1.81
  -5   4   8    2.60    0.73
   0 -11  -7   31.59    2.21
   0  11   7   32.04    2.98
   0  11   7   28.32    2.21
   0 -11  -7   29.05    2.85
   0 -11  -7   31.47    2.16
   0   6  13  157.60   10.97
   0   6  13  160.59   10.54
   0  -6 -13  130.01   10.22
   0  -6 -13  153.95    9.50
   8   3   4    3.12    1.23
  -8  -3  -4    2.00    1.42
  -8  -3  -4    3.43    1.36
  -8  -3  -4    3.15    1.24
  -8  -3  -4    2.46    1.26
  -6  -2 -12   29.57    2.93
  -6  -2 -12   26.25    2.85
   6   2  12   28.40    3.24
  -6  -2 -12   31.30    2.50
   6   2  12   29.17    2.34
   6   2  12   32.51    3.30
   3 -10  -6    1.77    0.78
   3 -10  -6    1.18    1.45
   3 -10  -6    1.85    0.83
   3 -10  -6    2.34    2.45
   3 -10  -6    1.12    0.83
   3 -10  -6    1.53    1.54
   3 -10  -6    0.56    0.67
   2  -5   9   15.28    1.49
  -2   5  -9   12.55    1.65
   2  -5   9   14.44    1.97
   2  -5   9   10.27    1.76
  -2   5  -9   15.17    2.08
   5  -5   8   35.05    2.60
   5  -5   8   30.90    2.94
  -5   5  -8   31.28    2.96
   5  -5   8   30.09    2.96
   5  -5   8   31.05    2.83
  -5   5  -8   33.59    2.77
  -5  -3 -13   36.84    3.23
   5   3  13   38.71    3.87
  -5  -3 -13   33.84    3.23
  -5  -3 -13   34.90    2.67
   5   3  13   34.27    2.46
   5   9   6   68.02    4.54
   5   9   6   72.65    5.85
   1   1 -11    2.39    0.53
  -1  -1  11    3.00    2.17
  -1  -1  11    1.83    1.30
   1   1 -11    5.10    1.53
   1   1 -11    1.92    0.81
  -2  -6   6   24.75    2.55
   2   6  -6   27.45    2.55
   2   6  -6   23.54    2.10
   2   6  -6   22.40    2.06
   5   6  -2  108.07    7.25
   5   6  -2  111.08    7.33
  -5  -6   2  109.61    7.13
   5   6  -2  121.74    7.81
   6  -6  -5   24.63    2.45
   6  -6  -5   25.89    2.24
   6  -6  -5   29.36    3.22
   6  -6  -5   20.46    2.12
  -1 -10   0    2.59    0.96
   1  10   0    4.41    1.09
   1  10   0    2.42    0.60
   1  10   0    4.50    1.67
   1  -8   5   59.78    4.73
  -1   8  -5   53.92    4.10
  -1   8  -5   59.72    3.75
  -1   8  -5   60.31    4.40
   1  -8   5   66.65    5.02
   4   1  13   32.21    3.12
   4   1  13   37.27    3.78
   4   1  13   31.00    2.34
  -7  -6  -8   56.59    4.71
  -7  -6  -8   55.96    4.05
  -7  -6  -8   56.88    4.00
   7   6   8   54.27    3.63
   7   0  10   16.49    2.36
   7   0  10   14.72    2.13
   7   0  10   20.20    1.96
  -7   0 -10   19.64    2.23
  -7   0 -10   17.82    1.99
   5  -7   5    1.13    1.32
  -5   7  -5    0.44    1.12
   5  -7   5    0.60    1.10
  -2   4 -10   17.78    2.28
  -2   4 -10   18.81    1.90
   2  -4  10   16.75    1.68
   2  -4  10   21.90    2.06
   3   6  -5   49.45    3.71
   3   6  -5   50.66    3.69
   3   6  -5   57.54    4.07
  -3  -6   5   50.89    4.11
  -7  -3   1   17.11    1.72
  -7  -3   1   21.42    2.06
  -7  -3   1   14.28    1.78
   7   3  -1   17.87    2.06
   4   8  12  177.48    4.11
  -4  -8 -12  164.60   11.09
   4   8  12  178.71    5.94
  -4  -8 -12  163.25   10.08
  -4  -8 -12  162.74   11.38
  -4  -8 -12  180.08   11.31
   4   8  12  150.90    1.71
   1  -1  12   64.58    4.67
   1  -1  12   57.31    3.93
   1  -1  12   49.88    5.14
  -1   1 -12   59.84    4.62
  -1   1 -12   59.54    4.04
  -8  -2  -2    8.58    1.58
  -8  -2  -2   10.33    1.70
  -8  -2  -2   14.52    1.92
   8   2   2    9.42    1.65
  -8  -2  -2   10.51    1.63
   1  11   4    9.14    1.23
   1  11   4    8.90    1.79
   4  -7   6   14.53    1.81
  -4   7  -6   11.87    1.57
   4  -7   6   13.87    2.00
   3  -4  10  153.92    9.60
   3  -4  10  158.59    9.96
  -3   4 -10  147.33   10.00
   3  -4  10  144.49   10.14
  -3   4 -10  153.99    9.62
   3  -4  10  155.38    9.64
  -3   5  -9    8.67    1.76
   3  -5   9    6.58    1.57
  -3   5  -9    8.82    1.22
  -3   5  -9    7.06    1.39
   3  -5   9    7.30    1.16
   3  -5   9    8.07    1.40
   3  -5   9    9.60    1.72
   1 -11  -6   20.37    1.52
  -1  11   6   25.72    2.10
   1 -11  -6   26.10    2.53
   1 -11  -6   23.68    1.68
  -1  11   6   26.04    2.79
   1 -11  -6   19.54    2.20
  -8  -3  -7   10.86    1.77
   8   3   7    6.83    1.25
  -8  -3  -7   10.48    1.85
  -8  -3  -7    6.34    1.48
   8   1   1  219.87   13.83
  -8  -1  -1  205.08   13.14
  -8  -1  -1  210.01   13.09
  -8  -1  -1  211.60   13.17
   8  -3   2   15.68    1.83
   8  -3   2   11.07    1.33
  -8   3  -2   15.32    1.87
  -8   3  -2   13.11    1.21
  -8   3  -2   13.46    1.88
  -8   3  -3   33.49    2.63
  -8   3  -3   39.81    3.17
   8  -3   3   38.59    3.23
  -8   3  -3   41.65    3.27
   2  10   1   33.92    1.91
   2  10   1   34.90    2.72
   2  10   1   28.90    1.38
   0   2 -11   85.36    5.50
   0   2 -11   81.39    6.09
   0  -2  11   82.14    6.02
   0  -2  11   86.65    6.63
   6  -7   3    5.62    1.15
  -6   7  -3   10.42    1.40
   6  -7   3    6.70    1.19
  -6   7  -3    8.81    1.61
   6  -7   3   12.22    1.31
   6  -7   3    7.99    1.46
   6  -7   3   10.80    1.92
   6   1  -5   89.57    6.42
   6   1  -5  102.80    6.53
  -6  -1   5   97.94    6.29
  -6  -1   5   89.75    6.75
   0  11   3    4.14    1.02
   0 -11  -3    5.03    2.11
   0 -11  -3    5.62    1.02
   3   3  -8   68.63    4.73
  -3  -3   8   69.15    3.76
  -3  -3   8   64.05    2.92
   3   3  -8   65.58    4.53
   5   9   8   93.43    6.99
   5   9   8   84.68    5.48
  -7  -2   2  145.09    9.88
   7   2  -2  143.37    9.31
  -7  -2   2  149.42    9.60
  -7  -2   2  172.64   10.07
   1  -1 -12  140.27    8.80
  -1   1  12  135.78    9.73
  -1   1  12  127.12    8.67
   1  -1 -12  128.03    8.13
   1 -10   1   30.87    3.38
  -1  10  -1   26.18    2.68
  -1  10  -1   24.27    1.93
   1 -10   1   22.91    2.40
   1 -10   1   26.04    2.08
  -1  10  -1   24.59    2.21
   5   7  12    2.80    0.76
  -5  -7 -12    3.35    1.77
  -5  -7 -12    3.22    0.91
  -5  -7 -12    3.22    1.71
   0   9  -3    2.55    1.52
   0  -9   3    2.91    1.81
   0  -9   3    1.63    1.29
   0   9  -3    2.19    0.99
   0  -9   3    2.13    1.08
   5   5  13    0.17    0.58
  -5  -5 -13    1.53    1.38
  -5  -5 -13    0.29    1.29
  -5  -5 -13    0.77    0.86
  -1  -1 -13   52.39    3.61
  -1  -1 -13   57.15    4.29
   1   1  13   59.10    4.91
   1   1  13   57.90    4.55
   1   1  13   50.28    5.26
   1 -11  -3   16.15    2.77
   1 -11  -3   16.02    1.50
  -1  11   3   16.93    2.44
  -1  11   3   18.00    1.79
   5  -2  11    1.49    1.56
   5  -2  11    0.78    0.88
   5  -2  11    2.32    1.22
  -5   2 -11    1.15    1.30
   5  -2  11    3.06    1.38
   5  -2  11    0.91    1.45
   5  -2  11    1.51    0.92
  -5   2   8    0.75    1.87
  -5   2   8    0.43    0.82
  -5   2   8   -0.24    1.81
   7  -6   1   33.68    2.50
  -7   6  -1   40.95    3.23
  -7   6  -1   42.00    3.38
   7  -6   1   40.25    3.37
   7  -6   1   45.57    3.15
   7  -6   1   44.60    3.35
   6  -5   7   28.18    2.25
   6  -5   7   19.52    2.38
  -6   5  -7   24.47    2.43
   6  -5   7   26.30    2.56
   6  -5   7   19.88    2.53
  -6   5  -7   28.42    2.54
  -8   1   0    8.18    1.53
   8  -1   0    5.55    1.42
  -8   1   0    7.05    1.12
  -8   1   0    7.73    1.67
  -8   1   0    3.96    1.36
   2   3  -9   -0.90    1.22
   2   3  -9    0.75    0.97
  -2  -3   9    0.67    0.65
  -2  -3   9    0.89    1.27
  -2  -3   9    0.23    1.69
   2   3  -9    0.24    0.81
  -7   6   0    0.73    1.03
   7  -6   0    0.82    1.31
   7  -6   0   -0.83    1.35
  -7   6   0    0.83    1.28
   7  -6   0    0.40    1.42
  -4  -4   6   24.77    2.41
   4   4  -6   21.17    2.00
   4   4  -6   25.29    2.27
  -4  -4   6   21.84    2.68
   2  -6   8   52.55    3.67
  -2   6  -8   53.63    3.92
   2  -6   8   51.64    4.16
  -7  -6  -4   81.46    5.49
   7   6   4   87.02    5.74
  -7  -6  -4   77.60    6.06
   5   9   5   30.88    3.76
   5   9   5   33.94    2.47
   5   9   5   31.64    2.10
  -5  -9  -5   32.91    2.50
   4   5  -5  219.72   14.56
  -4  -5   5  236.08   14.89
   4   5  -5  261.39   14.73
  -8  -2  -8  188.81   11.97
  -8  -2  -8  185.45   11.68
  -8  -2  -8  178.55   11.94
   8   2   8  182.68   11.31
  -7  -5 -10    7.36    1.53
  -7  -5 -10    7.38    1.41
  -7  -5 -10    7.42    1.68
  -7  -5 -10    8.22    1.93
  -7  -4   0   52.59    3.78
   7   4   0   52.47    3.97
  -7  -4   0   55.23    3.99
  -8  -1  -8   81.92    5.32
  -8  -1  -8   71.30    5.49
  -8  -1  -8   69.20    5.36
   8   1   8   66.92    4.53
   8   1   8   66.43    5.09
   6   8   7   38.12    2.55
  -6  -8  -7   36.38    3.60
   1   5  -8   33.78    2.60
  -1  -5   8   34.47    3.19
   1   5  -8   30.82    2.66
   1   5  -8   29.73    2.49
  -6  -5 -12   51.39    3.75
  -6  -5 -12   53.31    4.14
   6   5  12   52.52    3.62
  -6  -5 -12   54.92    4.46
   6   5  12   53.15    4.59
  -6  -5 -12   56.17    4.27
  -5  -8 -11   13.04    2.39
  -5  -8 -11   13.09    1.29
  -5  -8 -11   13.28    2.34
   5  -5  -8   29.18    2.59
  -5   5   8    0.14    0.23
   5  -5  -8   32.00    3.33
   5  -5  -8   28.72    2.55
  -5   5   8   35.01    3.12
   5  -5  -8   29.66    2.08
   6  -1  -6    2.88    1.32
   6  -1  -6    4.63    1.48
  -6   1   6    4.06    0.88
  -6   1   6    1.46    1.79
  -2  -9 -12   45.26    4.72
  -2  -9 -12   51.15    4.20
  -2  -9 -12   49.21    4.57
   2   9  12   47.56    3.75
   2   9  12   58.06    4.97
  -3  10   0    6.08    1.12
   3 -10   0    4.70    1.08
  -3  10   0    4.49    1.36
   3 -10   0    4.27    1.71
   3 -10   0    4.82    1.13
  -3   8  -5   52.99    3.95
   3  -8   5   48.64    3.67
   3  -8   5   52.20    3.99
  -3   8  -5   52.23    3.73
   3  -8   5   56.88    4.17
  -5   8  -3   48.75    3.70
   5  -8   3   39.74    3.27
  -5   8  -3   46.86    3.30
   5  -8   3   46.67    3.82
   5  -8   3   47.09    3.29
  -8   3  -1    0.24    1.24
   8  -3   1   -0.46    0.81
  -8   3  -1   -0.26    1.41
  -8   3  -1    0.81    0.43
   8  -3   4   14.72    1.65
   8  -3   4   15.49    2.02
  -8   3  -4   21.18    2.26
  -8   3  -4   13.84    1.57
  -8   3  -4   17.09    1.99
   6  -7  -4  100.14    6.33
   6  -7  -4   87.74    6.26
  -6   7   4   98.44    6.64
   6  -7  -4  100.81    6.79
   6  -7  -4   75.70    6.84
  -6  -8  -6   13.46    2.35
   6   8   6   12.60    1.16
   4  -8  -8    3.66    1.07
   4  -8  -8    2.92    1.95
   4  -8  -8    4.33    1.24
   4  -8  -8    3.62    0.87
   4  -8  -8    4.53    1.58
   4  -8  -8    4.54    2.26
   6   7   2   94.37    6.31
  -6  -7  -2   89.70    5.98
   6   7   2   96.50    6.27
   3  -9   3    9.25    1.28
   3  -9   3   10.14    1.46
   3  -9   3    8.65    1.83
  -3   9  -3    9.59    1.22
  -3   9  -3   10.69    1.53
  -3   9  -3   -0.02    0.12
  -8   1  -7   13.08    1.72
  -8   1  -7   12.99    1.90
   8  -1   7   10.54    1.40
   8  -1   7   15.19    1.98
   8  -1   7   11.26    1.25
   8  -1   7   14.05    1.89
  -8   2   0    1.95    0.56
  -8   2   0    0.12    1.31
  -8   2   0    3.39    1.29
   5   2  13  146.21    9.05
   5   2  13  151.77   10.13
  -5  -2 -13  157.75    9.81
  -5  -2 -13  160.41   10.42
   5   2  13  143.50   10.22
  -5  -2 -13  152.21   10.25
   6   6   0   24.95    2.38
   6   6   0   28.38    2.37
  -6  -6   0   28.68    2.43
  -4   9  -2   49.86    3.28
   4  -9   2   50.08    3.47
  -4   9  -2   50.61    3.92
  -4   9  -2   54.15    3.80
   4  -9   2   44.91    3.89
   4  -9   2   46.30    3.52
  -4 -10  -7    0.66    1.44
   4  10   7    1.95    0.79
   4  10   7    5.03    2.63
   4  10   7    3.64    1.71
  -1 -11  -8   28.89    2.90
   1  11   8   25.35    1.90
   1  11   8   23.21    2.66
   8   3   3   26.97    2.48
  -8  -3  -3   24.87    2.80
  -8  -3  -3   28.65    2.56
  -8  -3  -3   29.05    2.58
  -8  -3  -3   31.77    2.80
   8  -2   6   16.67    2.16
  -8   2  -6   14.45    1.72
   8  -2   6   15.39    1.36
   8  -2   6   12.68    1.81
  -2  10  -1    0.60    1.51
  -2  10  -1    2.57    0.92
   2 -10   1    1.53    2.22
   2 -10   1    2.78    1.44
   2 -10   1    2.69    1.12
   2 -10   1    1.95    0.96
  -2  10  -1    0.74    1.03
  -4 -10  -6   21.98    2.74
   4  10   6   25.89    2.74
   4  10   6   23.61    1.96
   4  10   6   31.81    3.80
   3  10  10  105.36    7.54
   3  10  10   93.59    5.80
   3  10  10   96.50    6.61
  -3 -10 -10  110.18    8.31
  -3 -10 -10  105.49    7.67
  -1   5  -9   -0.27    0.94
  -1   5  -9    0.09    1.01
   1  -5   9    0.40    1.03
   1  -5   9    0.89    0.93
   2  11   6   51.68    4.27
   2  11   6   54.52    3.61
   3  -3  11   61.72    4.16
   3  -3  11   62.04    4.52
  -3   3 -11   58.80    4.25
   3  -3  11   60.94    4.11
  -3   3 -11   63.61    4.80
   3  -3  11   63.19    4.86
   3  -6   8   12.62    1.89
  -3   6  -8   11.81    1.39
  -3   6  -8   12.10    1.89
   3  -6   8   10.69    1.69
   3  -6   8   11.37    1.44
  -3   6  -8   10.52    1.56
  -1  -9 -12   58.92    5.29
  -1  -9 -12   64.66    4.87
  -1  -9 -12   61.74    5.70
   1   9  12   70.24    4.88
   1   4  -9   58.55    4.10
  -1  -4   9   52.62    3.76
   1   4  -9   56.85    4.07
   1   4  -9   64.34    4.33
  -1  -4   9   59.81    4.40
   7  -6   2   23.45    2.16
   7  -6   2   20.77    1.84
  -7   6  -2   25.02    2.25
  -7   6  -2   20.70    2.32
   7  -6   2   28.49    2.60
   7  -6   2   20.31    2.45
  -4  -7 -13   17.42    1.57
  -4  -7 -13   16.07    2.33
   4   7  13   13.76    2.42
  -4  -7 -13   20.36    2.88
  -4  -7 -13   23.45    2.68
   4   7  13   20.84    1.92
   4   7  13   21.81    2.95
   0   2  13   89.25    6.63
   0   2  13   80.13    6.07
   0  -2 -13   81.36    5.27
   0  -2 -13   90.28    6.03
   2  -3  11    0.99    0.83
   2  -3  11    0.63    1.61
  -2   3 -11    1.81    1.05
   2  -3  11    3.02    1.13
   5  -7  -7    5.08    1.19
   5  -7  -7    5.17    2.25
   5  -7  -7    7.81    1.54
   5  -7  -7    6.47    1.70
  -7   5  -5    9.72    1.74
   7  -5   5    9.14    1.56
   7  -5   5   14.33    1.52
  -7   5  -5   10.72    1.48
   7  -5   5    9.68    2.02
   8   0   0  130.09    8.57
  -8   0   0  123.03    8.00
   6  -5  -6   11.81    1.29
   6  -5  -6    8.91    2.08
   6  -5  -6   12.43    1.76
   6  -5  -6   10.61    1.58
  -6   5   6   11.62    2.23
   2  -9 -10    6.77    2.19
   2  -9 -10    3.23    0.90
   2  -9 -10    6.63    1.21
   2  -9 -10    3.99    1.42
   2  -9 -10    3.85    2.12
   2  -9 -10    4.30    0.46
   2  -9 -10    5.77    1.08
   2  -9 -10    5.93    2.38
   6  -1  11    6.16    1.80
   6  -1  11    4.06    1.69
   6  -1  11    7.63    1.21
  -6   1 -11    3.27    1.27
  -6   1 -11    3.52    1.33
  -4  -9 -11  165.13   10.12
  -4  -9 -11  169.88   11.27
   4   9  11  163.85   10.05
   4   9  11  173.48   10.81
  -4  -9 -11  170.73   11.27
  -4  -9 -11  168.97   11.66
   4   9  11  198.83   11.79
  -3   0  10   96.43    6.45
  -3   0  10   90.29    7.37
   3   0 -10   89.17    6.05
   3   0 -10   89.28    5.76
  -6  -8  -8   70.94    6.03
  -6  -8  -8   73.34    5.85
  -6  -8  -8   84.44    5.21
   0 -10   1   12.45    1.48
   0 -10   1   11.67    2.33
   0  10  -1   13.56    2.04
   0 -10   1   11.14    1.72
   0  10  -1   13.22    1.54
   0  10  -1   13.39    1.22
   3  -4 -11   33.57    2.63
   3  -4 -11   36.55    3.45
   3  -4 -11   26.68    2.63
   3  -4 -11   32.78    2.29
  -3   4  11   32.27    3.64
   3  -4 -11   33.37    2.55
  -3   4  11   36.37    2.92
  -3   4  11   28.26    3.87
   1   6  -7    0.76    1.16
  -1  -6   7    1.96    1.48
   1   6  -7    1.43    0.92
   1   6  -7    1.13    0.99
   2  11   7   87.33    5.61
   2  11   7   93.49    6.34
  -2 -11  -7   81.22    6.06
   0  11   8   53.66    4.29
   0 -11  -8   45.92    4.27
   0 -11  -8   42.96    2.85
   0 -11  -8   39.37    3.53
   7  -6  -1    3.14    1.33
  -7   6   1    3.83    1.43
  -7   6   1    5.54    1.26
   7  -6  -1    5.36    1.73
   7  -6  -1    5.43    1.30
   3   4  14   56.97    5.17
   3   4  14   56.17    4.66
   3   4  14   53.78    3.42
  -3  -4 -14   57.01    4.23
  -3  -4 -14   56.58    4.47
   3   4  14   53.00    4.60
   1  -9 -11    8.72    1.32
   1  -9 -11    5.16    1.23
   1  -9 -11    5.12    1.20
   1 -11  -7   52.79    3.81
  -1  11   7   59.38    4.63
   1 -11  -7   40.90    2.92
   1 -11  -7   66.28    5.14
   1 -11  -7   57.65    4.00
   1 -11  -7   56.59    3.17
   1 -11  -7   55.52    3.18
  -6  -1 -12   20.16    2.01
   6   1  12   21.02    1.82
   6   1  12   18.53    2.63
  -6  -1 -12   20.85    2.39
   6   1  12   19.61    2.62
   5  -9  -2    6.68    1.22
   5  -9  -2    8.40    1.23
   5  -9  -2    6.59    1.56
   5  -9  -2    4.45    0.76
   5  -9  -2    8.31    1.97
  -5   9   2    5.93    1.27
  -7   2   4    2.85    1.68
  -7   2   4    0.48    0.35
  -7   2   4    0.14    1.31
   2  -4 -12    3.72    0.68
  -2   4  12    4.87    1.45
   2  -4 -12    4.91    1.82
   2  -4 -12    3.99    0.71
  -2   4  12    4.42    2.63
   2  -4 -12    5.19    1.28
  -7  -3 -11   18.93    2.46
   7   3  11   20.23    2.02
   7   3  11   22.86    2.74
  -7  -3 -11   22.13    2.50
  -7  -3 -11   22.81    2.10
  -2  -4 -14   33.21    2.78
   2   4  14   37.16    3.86
   2   4  14   38.89    3.30
  -2  -4 -14   33.75    3.12
   2   4  14   37.62    3.57
   2   4  14   35.95    4.30
   1  -4  10    4.96    1.08
  -1   4 -10    5.60    1.15
   1  -4  10    5.13    1.00
   1  -4  10    4.99    1.22
   7  -3   8   10.50    1.68
   7  -3   8   10.82    1.99
  -7   3  -8   10.67    1.62
  -7   3  -8   11.22    1.79
  -7  -6  -9    1.72    1.49
  -7  -6  -9    0.20    1.01
  -7  -6  -9    1.12    1.04
  -4  -3   7    9.71    1.68
   4   3  -7    8.77    1.52
   4   3  -7   10.28    1.31
  -4  -3   7   12.09    2.16
  -5  -9  -9   74.00    4.66
  -5  -9  -9   67.67    5.85
   5   9   9   71.20    4.58
  -7   3   4    0.28    1.20
  -7   3   4    1.33    1.59
   7  -3  -4    0.62    1.15
   7  -3  -4    0.13    1.34
   7  -3  -4    3.33    1.26
   2   8  13    0.16    0.90
  -2  -8 -13   -1.58    1.32
  -2  -8 -13    0.70    1.83
  -2  -8 -13   -1.44    2.12
   2   8  13   -0.45    2.01
   2   8  13    0.39    1.48
   2   5  14   24.11    3.58
  -2  -5 -14   31.43    2.90
  -2  -5 -14   32.06    3.29
   2   5  14   27.94    3.00
  -2  -5 -14   26.69    2.49
   2   5  14   25.18    2.81
  -2 -11  -5   66.51    4.05
   2  11   5  108.02    6.69
   2  11   5   99.78    7.31
  -4 -10  -8    3.96    1.88
   4  10   8    0.65    0.65
   4  10   8    0.15    1.56
  -7   5   3    0.53    1.21
   7  -5  -3   -0.88    1.26
   7  -5  -3    0.10    1.09
   7  -5  -3   -0.72    1.45
   1  11   3   57.23    3.92
   3   5  14  124.67    8.87
   3   5  14  112.94    7.00
  -3  -5 -14  137.30    8.45
  -3  -5 -14  121.32    8.94
  -3  -5 -14  123.48    8.71
   3   5  14  127.98    8.35
   3   5  14  137.74    8.29
   5  -6   7   20.97    2.30
  -5   6  -7   16.82    1.99
  -5   6  -7   19.28    2.12
   5  -6   7   18.03    2.43
   5  -6   7   21.53    2.29
   5  -6   7   19.86    1.99
   2  -5 -12    8.27    0.85
  -2   5  12    9.45    1.65
   2  -5 -12    7.51    1.22
   2  -5 -12   13.92    2.41
  -2   5  12    8.04    2.79
   2  -5 -12    8.94    0.83
   2  -5 -12    8.53    1.06
   2  -5 -12   10.55    1.43
   5  -9  -1    5.59    1.10
   5  -9  -1    3.02    1.23
  -5   9   1    5.25    1.25
   5  -9  -1    5.76    1.13
  -5   9   1    6.09    1.10
   5  -9  -1    4.90    0.83
   7  -2   9    0.88    1.14
   7  -2   9    1.52    1.13
   7  -2   9    0.54    1.37
  -7   2  -9   -0.14    1.13
   7   2  11    2.40    1.14
  -7  -2 -11    2.07    1.18
   7   2  11    3.37    1.47
  -7  -2 -11    4.63    1.52
   7   2  11    4.58    1.85
  -7  -2 -11    5.14    1.61
  -2  -7   5    0.65    1.35
   2   7  -5    0.56    0.91
   2   7  -5    0.67    1.36
  -8  -3  -8   40.79    3.17
  -8  -3  -8   43.24    3.47
  -8  -3  -8   36.39    3.57
  -8  -3  -8   37.59    2.75
   8   3   8   38.36    2.89
  -3   5  11   11.42    1.56
   3  -5 -11   13.73    1.56
  -3   5  11   13.34    2.48
   3  -5 -11   14.95    1.94
   3  -5 -11   11.71    1.50
   3  -5 -11   13.22    1.18
   3  -5 -11    7.95    2.13
   3  -5 -11   11.89    1.37
  -7  -1   3   68.74    4.59
  -7  -1   3   53.38    4.03
  -7  -1   3   57.93    4.49
   7   1  -3   54.51    4.12
   6   8   5    0.05    0.76
   6   8   5    1.04    0.92
  -6  -8  -5    1.14    1.48
  -6  -8  -5    0.52    1.03
   1  -6   8   21.65    2.29
  -1   6  -8   19.21    1.91
   1  -6   8   20.69    2.36
   1  -6   8   20.63    1.92
  -1   6  -8   18.68    2.00
   4  -7  -9    6.11    0.66
   4  -7  -9   10.05    2.36
   4  -7  -9    7.48    1.39
   4  -7  -9    7.34    1.22
   4  -7  -9    9.16    1.68
   4  -7  -9    7.60    2.28
   8   0   8   17.84    1.63
  -8   0  -8   17.79    2.13
   8   0   8   17.15    2.38
   8   0   8   22.71    1.91
  -8   0  -8   20.53    2.24
   2   0 -11   97.20    6.54
   2   0 -11   93.89    5.79
   2   0 -11   89.81    6.27
  -2   0  11   88.58    7.20
  -2   0  11   90.30    6.29
   2   0 -11   92.46    5.97
   5   1  -7   45.93    3.99
   5   1  -7   63.42    4.28
  -5  -1   7   58.70    4.99
   5   1  -7   59.88    3.96
  -5  -1   7   60.47    4.34
   4   6  -4  514.85   30.90
  -4  -6   4  488.53   29.80
   0   7  13  134.56    9.07
   0  -7 -13  119.89    9.33
   0  -7 -13  130.39    8.43
   3   0  13    4.09    1.71
   3   0  13    4.91    1.80
   3   0  13    2.13    2.17
   3   0  13    5.88    0.99
  -3   0 -13    5.15    1.10
   4  -4  10   -0.24    0.82
  -4   4 -10    2.47    1.38
  -4   4 -10    0.92    0.99
   4  -4  10    1.70    1.49
   4  -4  10   -0.09    1.06
   4  -4  10    2.06    1.43
  -4   4 -10   -0.32    1.12
   8   4   6    7.33    1.28
  -8  -4  -6    6.16    1.46
  -8  -4  -6    6.10    1.45
  -8  -4  -6    6.23    1.78
   5  -9  -3   -0.26    1.09
   5  -9  -3    0.24    0.95
  -5   9   3   -0.51    1.19
   5  -9  -3    1.32    1.42
   5  -9  -3    1.17    1.53
   5  -9  -3   -0.16    0.35
   2  -8 -11    1.68    1.06
   2  -8 -11    2.76    1.76
   2  -8 -11    1.55    0.24
   2  -8 -11    1.37    0.72
   2  -8 -11    1.83    0.98
   2  -8 -11    2.93    1.14
   2  -8 -11    8.42    2.53
   4  10   5   24.56    2.61
   4  10   5   21.21    3.26
   4  10   5   17.27    1.68
  -4 -10  -5   19.42    1.67
   5  -8  -6   22.57    2.14
   5  -8  -6   17.32    2.40
   5  -8  -6   17.40    1.90
   5  -8  -6   25.72    3.20
   5  -8  -6   17.30    1.83
  -3   3  11   46.32    3.62
  -3   3  11   46.01    4.38
   3  -3 -11   41.46    3.33
   3  -3 -11   44.87    2.99
  -3   3  11   45.85    4.79
   0  -8   5  141.22    9.38
   0   8  -5  124.08    7.72
   0   8  -5  130.46    8.34
   0  -8   5  140.78    9.37
   3   7  -4   47.30    3.63
  -3  -7   4   45.00    3.83
   3   7  -4   40.55    3.06
   2 -11  -4   60.64    5.50
   2 -11  -4   56.13    3.83
  -2  11   4   57.23    4.07
   2 -11  -4   59.84    4.71
   4   8  -1    1.25    1.02
   4   8  -1   -0.60    1.89
   4   8  -1    1.62    1.41
   4   8  -1    0.18    0.93
   1 -11  -2   10.01    1.21
  -1  11   2   10.79    1.42
  -1  11   2   10.48    0.95
   1 -11  -2    9.14    2.45
   3  10   2  107.87    7.07
   3  10   2  102.61    6.33
   3  10   2   94.93    5.96
   3 -10  -7   17.19    1.45
   3 -10  -7   22.30    2.63
   3 -10  -7   17.23    2.28
   3 -10  -7   18.52    1.72
   3 -10  -7   16.56    1.62
   3 -10  -7   24.43    3.52
   3 -10  -7   18.84    1.78
  -4   5  -9    0.11    1.21
  -4   5  -9    1.47    1.42
   4  -5   9    1.06    0.95
   4  -5   9    1.31    1.41
   4  -5   9    1.82    1.14
  -4   5  -9    2.36    1.05
   4  -5   9    3.88    1.49
  -3  -9 -12   85.60    5.78
  -3  -9 -12   72.34    5.86
  -3  -9 -12   68.74    4.46
   3   9  12   76.96    5.56
   3   9  12   89.12    6.63
  -3  -9 -12   76.02    6.20
  -8  -4  -5    2.41    1.44
  -8  -4  -5    2.14    1.18
  -8  -4  -5    1.19    1.34
   8   4   5    1.91    1.11
  -8  -4  -5    1.03    1.21
   0 -11  -2    2.60    2.00
   0  11   2    1.33    0.89
   0 -11  -2    1.12    0.86
   0  11   2    1.03    0.29
   3   3  14   11.98    2.19
  -3  -3 -14   13.31    1.95
   3   3  14    9.58    2.68
   3   3  14   10.28    2.18
   3   3  14   10.07    1.00
  -3  -3 -14    9.14    1.71
   5   9   4    4.17    1.00
   5   9   4    3.36    0.65
   5   9   4    5.62    2.30
  -5  -9  -4    3.13    0.94
   2 -11  -5   43.74    3.76
   2 -11  -5   41.02    2.89
   2   0  13   73.50    4.80
   2   0  13   72.74    6.33
  -2   0 -13   74.59    5.40
   2   0  13   75.27    5.60
  -2   0 -13   69.57    4.74
   5   8   1   17.99    2.84
   5   8   1   18.27    1.82
   5   8   1   18.07    1.75
  -5  -8  -1   19.16    1.76
   2  -3 -12    7.76    0.95
  -2   3  12    3.50    2.42
  -2   3  12    8.03    1.59
   2  -3 -12    6.89    1.48
  -8   3   0    0.41    1.43
   8  -3   0    0.48    0.76
  -8   3   0   -0.99    1.32
  -7  -4 -11    9.27    1.42
   7   4  11   10.00    2.09
  -7  -4 -11   11.09    2.00
  -1 -10 -11   41.50    4.33
  -1 -10 -11   33.24    4.38
  -1 -10 -11   49.07    3.10
   1  10  11   43.14    3.53
  -1 -10 -11   39.06    3.70
   7  -1  -4   -0.26    1.17
  -7   1   4    0.38    0.72
   8  -3   5   43.16    3.52
   8  -3   5   36.95    3.06
   8  -3   5   36.01    3.29
  -8   3  -5   37.05    2.84
  -8   3  -5   38.42    3.27
  -8   3  -5   35.58    3.02
   2  11   8   91.45    5.77
   2  11   8   94.29    6.54
  -2 -11  -8   92.23    6.71
   5   6  13    6.72    0.82
  -5  -6 -13    7.21    1.83
   5   6  13    4.41    1.95
  -5  -6 -13    4.93    1.72
  -5  -6 -13    5.17    1.02
   4  -9  -7   15.91    2.49
   4  -9  -7   13.72    2.17
   4  -9  -7   15.97    1.46
   4  -9  -7   15.05    1.65
   4  -9  -7   15.74    2.84
   4  -9  -7   16.73    1.86
  -3  -2   9  117.82    8.57
  -3  -2   9  115.79    7.81
   3   2  -9  115.09    7.18
   3   2  -9  108.12    7.40
   3   8  13    7.87    1.94
  -3  -8 -13    7.40    2.12
  -3  -8 -13    8.23    2.45
  -3  -8 -13   11.31    2.02
   3   8  13    8.62    1.38
   3   8  13   13.29    2.63
  -2 -10 -11   27.11    3.11
   2  10  11   22.27    3.26
  -2 -10 -11   21.37    3.25
  -2 -10 -11   17.89    1.29
  -2 -10 -11   23.38    2.62
   2  10  11   22.63    2.37
   2   3  14   -0.23    1.89
   2   3  14    0.73    1.23
   2   3  14    0.81    1.58
   2   3  14   -1.57    2.53
   2   3  14    1.02    0.63
  -2  -3 -14    0.64    1.04
  -2  -3 -14    0.49    1.22
  -8  -4  -7    6.71    1.80
  -8  -4  -7    6.07    1.36
  -8  -4  -7    9.28    1.58
   8   4   7    8.44    1.24
   7  -4   7   30.94    3.04
  -7   4  -7   30.76    2.89
  -7   4  -7   31.81    2.75
   7  -4   7   38.38    3.01
  -5   1   8   24.48    3.15
  -5   1   8   25.57    2.21
   5  -1  -8   21.38    2.20
  -1  -8 -13   37.64    3.25
  -1  -8 -13   32.53    4.08
   1   8  13   37.50    3.49
  -1  -8 -13   37.57    3.93
  -8  -2  -1   70.66    5.14
   8   2   1   69.66    5.02
  -8  -2  -1   72.41    5.07
  -8  -2  -1   68.82    4.95
  -7  -5  -1   42.75    3.37
   7   5   1   47.22    3.62
  -7  -5  -1   43.87    3.10
  -4   0   9   59.54    4.36
   4   0  -9   60.85    4.26
  -4   0   9   61.82    5.29
   4   0  -9   55.54    3.93
  -2  11   3   25.83    1.83
  -2  11   3   19.65    2.53
   2 -11  -3   18.86    1.92
   2 -11  -3   20.84    1.78
   2 -11  -3   26.56    3.57
  -2  11   3   20.64    2.15
  -2   7  -7    0.32    1.16
   2  -7   7    0.82    0.96
  -2   7  -7    2.96    0.96
   2  -7   7   -0.46    1.30
   7  -6   3   53.27    4.01
   7  -6   3   54.62    4.53
  -7   6  -3   61.10    4.72
   7  -6   3   70.31    4.51
  -7   6  -3   66.86    4.59
   7  -6   3   58.00    4.09
   4 -10  -3   21.02    1.72
   4 -10  -3   22.40    2.58
   4 -10  -3   17.18    2.14
  -4  10   3   22.06    2.04
   4 -10  -3   17.99    1.61
   4 -10  -3   21.38    1.86
   5  -9   0   27.56    2.35
   5  -9   0   35.79    2.48
   5  -9   0   33.10    2.56
   5  -9   0   32.37    3.13
  -5   9   0   41.90    2.82
  -5   9   0   32.81    2.96
   5   7  -1   92.22    6.42
  -5  -7   1  105.32    6.82
   5   7  -1  102.12    6.46
   5   7  -1  105.31    7.20
   1 -10 -10   55.43    4.66
   1 -10 -10   47.98    3.69
   1 -10 -10   54.13    4.69
   1 -10 -10   54.08    3.72
   1 -10 -10   57.29    3.49
   1 -10 -10   35.84    3.08
  -7  -6  -3   67.18    4.87
  -7  -6  -3   73.55    5.52
   7   6   3   78.92    5.36
   6  -8  -1    9.85    1.44
   6  -8  -1    5.37    0.63
   6  -8  -1    7.16    1.36
   6  -8  -1    6.59    1.51
  -6   8   1    9.38    1.35
  -6   8   1    5.74    1.39
  -6  -8  -9    4.04    1.71
  -6  -8  -9    5.10    1.78
  -6  -8  -9    5.54    1.07
  -1   8  12   12.91    1.98
   1  -8 -12   14.65    1.53
   1  -8 -12   14.61    1.74
   1   3 -10   95.22    6.28
   1   3 -10  105.36    6.57
  -1  -3  10  106.18    7.67
  -1  -3  10  104.36    6.49
   1   3 -10   94.42    6.19
  -1  -3  10   96.37    7.08
  -6  -7 -11   59.20    4.66
  -6  -7 -11   53.56    4.74
  -6  -7 -11   55.80    4.56
  -6  -7 -11   58.96    3.95
   4   9   1   59.80    3.87
  -4  -9  -1   54.61    3.67
   4   9   1   54.00    4.00
   4   9   1   58.58    5.13
   4   9   1   59.97    4.64
  -2  -6 -14   25.17    2.66
   2   6  14   26.74    3.04
  -2  -6 -14   26.21    3.06
   2   6  14   27.30    3.04
   7  -4  -4   14.76    1.53
  -7   4   4   17.27    2.14
   7  -4  -4   14.29    2.03
  -7   4   4   15.60    2.36
   7  -4  -4   14.36    1.94
  -4   3 -11   36.22    3.05
  -4   3 -11   40.27    3.40
   4  -3  11   36.74    3.15
   4  -3  11   37.59    3.47
   4  -3  11   36.65    2.78
  -4   3 -11   38.10    2.90
   4  -3  11   36.84    2.80
   4 -10  -2   38.92    2.53
  -4  10   2   38.26    2.91
   4 -10  -2   35.33    2.69
   4 -10  -2   31.39    2.56
  -6  -4   3    0.61    1.23
  -6  -4   3   -0.26    1.16
   6   4  -3    1.49    1.18
   6   4  -3   -0.61    1.18
  -6  -4   3   -0.83    1.22
   2  11   4   51.74    3.55
   2  11   4   49.01    4.17
   2  -6 -12    1.64    0.40
   2  -6 -12    2.79    0.99
   2  -6 -12    2.97    1.98
   2  -6 -12    0.32    0.79
   2  -6 -12    1.62    0.86
  -2   6  12    2.33    1.25
   7  -1  10    5.43    1.83
   7  -1  10    8.13    1.59
   7  -1  10    6.65    1.35
  -7   1 -10    4.76    1.47
  -7   1 -10    6.61    1.45
   7   1  11    8.10    1.42
  -7  -1 -11    6.40    1.58
   7   1  11    3.37    1.63
  -7  -1 -11    6.81    1.42
   7   1  11    6.44    1.97
  -7  -1 -11    6.33    1.66
  -6   8   0    4.04    1.40
  -6   8   0    3.23    1.05
   6  -8   0    1.28    0.64
   6  -8   0    2.55    1.15
   6  -8   0    2.95    1.09
   6  -8   0    3.06    1.31
   3   6  14   67.28    4.90
   3   6  14   54.72    3.68
   3   6  14   62.83    4.96
  -3  -6 -14   60.10    5.17
  -3  -6 -14   62.21    4.83
  -5   1 -12   49.44    4.07
   5  -1  12   45.72    3.33
   5  -1  12   45.70    4.21
   5  -1  12   46.95    3.31
   5  -1  12   46.58    4.23
   5  -1  12   50.38    3.72
   3  -9  -9   59.37    4.55
   3  -9  -9   64.75    5.20
   3  -9  -9   69.84    4.43
   3  -9  -9   57.06    3.96
   3  -9  -9   51.31    4.03
   3  -9  -9   58.03    5.59
   3  -9  -9   61.95    3.82
   3  -9  -9   68.15    5.56
  -7   6   2    4.66    1.49
   7  -6  -2    5.10    1.38
   7  -6  -2    4.06    1.79
  -7   6   2    4.63    1.36
   7  -6  -2    4.34    1.36
   5  -6  -8   82.66    6.74
  -5   6   8   95.93    7.24
   5  -6  -8   84.74    5.92
   5  -6  -8   87.61    5.83
  -8  -1   0   52.40    3.80
  -8  -1   0   46.77    3.82
   8   1   0   47.98    3.82
  -8  -1   0   51.04    3.91
   4  -4 -10   10.18    1.44
  -4   4  10   14.01    2.58
   4  -4 -10   12.38    2.20
   4  -4 -10   10.97    1.54
   4  -4 -10   13.86    1.87
  -4   4  10   15.26    2.96
  -4   4  10   13.89    1.61
  -4 -10  -9   21.69    2.76
   4  10   9   19.53    1.56
   4  10   9   22.27    2.51
   2   9  -2   34.43    2.78
   2   9  -2   38.61    3.37
   2   2 -10    9.01    1.66
   2   2 -10   11.19    1.33
  -2  -2  10   10.13    2.49
  -2  -2  10   10.68    1.71
   2   2 -10    9.51    1.28
   4   4  14   66.43    1.52
   4   4  14   67.19    3.76
  -4  -4 -14   65.85    4.99
   4   4  14   64.88    4.25
  -4  -4 -14   71.19    5.24
   3  -8 -10    7.14    0.83
   3  -8 -10    7.89    0.95
   3  -8 -10    6.01    1.06
   3  -8 -10    7.39    1.43
   3  -8 -10    6.10    2.08
   3  -8 -10    7.82    2.46
   3  -8 -10    8.34    1.50
  -6   7  -4   25.10    2.12
   6  -7   4   25.44    2.23
   6  -7   4   20.43    2.48
   6  -7   4   19.41    2.05
  -6   7  -4   21.54    2.42
   1  -3  11   17.56    2.26
  -1   3 -11   17.87    2.34
   1  -3  11   17.14    1.71
   1  -3  11   18.70    1.83
  -1   3 -11   18.49    1.78
   6  -6   6    3.47    1.40
  -6   6  -6    2.09    1.22
  -6   6  -6    2.92    1.19
   6  -6   6    2.06    1.23
  -6  -3   4   46.64    3.09
  -6  -3   4   39.31    3.71
   6   3  -4   42.19    3.40
  -6  -3   4   48.36    3.57
   6   3  -4   44.52    3.45
   2 -10  -9    5.71    2.12
   2 -10  -9    3.49    0.88
   2 -10  -9    5.88    1.16
   2 -10  -9    3.82    1.42
   2 -10  -9    2.79    2.18
   2 -10  -9    6.12    1.21
   2 -10  -9    3.84    0.55
   2 -10  -9    2.62    2.21
   1   7  -6    7.73    1.55
   1   7  -6    5.49    1.08
   1  11   9    6.75    0.81
  -1 -11  -9    6.30    1.66
   1  11   9    8.61    1.81
  -8  -3  -2   56.65    4.33
  -8  -3  -2   62.29    4.32
   8   3   2   68.96    4.96
  -8  -3  -2   57.71    4.60
  -8  -4  -4   31.00    2.85
  -8  -4  -4   34.53    2.96
  -8  -4  -4   31.96    2.82
  -8  -4  -4   31.92    3.19
   8   4   4   40.44    3.19
  -3   6  11    1.82    2.00
   3  -6 -11    1.48    1.00
  -3   6  11    0.56    1.06
   3  -6 -11    0.18    0.89
   3  -6 -11    0.54    1.81
   3  -6 -11    1.02    0.76
   3  -6 -11    0.44    0.54
   3  -6 -11   -0.15    1.43
  -6   8   2    0.11    1.20
  -6   8   2   -0.31    1.05
   6  -8  -2    0.10    1.20
   6  -8  -2   -0.61    1.36
   6  -8  -2   -0.35    1.68
   6  -8  -2   -0.69    1.26
   4 -10  -4    1.70    1.39
   4 -10  -4    1.06    0.86
   4 -10  -4    1.59    1.01
   4 -10  -4    2.09    0.72
   4 -10  -4    1.33    0.63
   4 -10  -4    2.91    1.64
   5   1  13   84.38    5.39
  -5  -1 -13   80.60    6.08
   5   1  13   84.08    5.94
   5   1  13   81.37    6.55
  -5  -1 -13   86.10    5.58
   5   1  13   84.27    6.44
  -6  -6 -12  109.58    7.21
  -6  -6 -12  113.14    8.11
   6   6  12   97.96    7.32
  -6  -6 -12  116.43    7.81
  -6  -6 -12  118.80    7.81
   2 -11  -6   19.17    1.52
   2 -11  -6   18.57    2.01
   2 -11  -6   19.12    1.58
   2 -11  -6   20.38    1.47
   2 -11  -6   23.92    2.58
   2 -11  -6   23.55    3.41
   5  -9  -4    1.13    0.92
   5  -9  -4    1.32    1.04
   5  -9  -4   -0.71    1.47
   5  -9  -4   -1.01    1.68
   8  -4   2    2.29    1.29
  -8   4  -2    1.16    1.35
  -8   4  -2    2.03    1.33
  -8   4  -2    1.85    0.61
   8  -4   2    0.11    1.32
   8  -4   2    2.02    1.29
  -6   0   6    7.94    2.09
   6   0  -6   11.70    1.80
  -6   0   6    7.20    1.25
   6   0  -6    7.98    1.47
  -3   2 -12   19.92    1.97
  -3   2 -12   20.90    2.45
   3  -2  12   22.54    2.22
   3  -2  12   23.27    1.97
   3  -2  12   22.77    2.96
   4   0  13   37.97    2.81
   4   0  13   38.37    3.52
   4   0  13   40.31    2.60
   4   0  13   40.29    4.07
  -4   0 -13   36.44    3.34
   0  -9 -12  110.31    8.00
   0  -9 -12  112.67    8.47
   0  -9 -12  100.74    7.17
  -1  -5 -14    4.76    1.91
  -1  -5 -14    2.92    1.06
   1   5  14    4.86    2.45
   1   5  14    2.71    1.95
   1   5  14    1.15    1.50
  -1  -5 -14    4.29    1.38
  -1   5  13   38.08    4.51
  -1   5  13   36.05    3.86
   1  -5 -13   35.57    3.10
   1  -5 -13   36.52    2.55
   1  -5 -13   36.74    3.78
  -1   5  13   35.46    3.28
   1  -5 -13   35.81    2.32
   3  -7   7    6.64    1.58
   3  -7   7    8.60    1.61
   3  -7   7    8.37    1.35
  -3   7  -7    7.56    1.21
   1  -4 -13   48.54    3.60
  -1   4  13   40.89    4.30
  -1   4  13   48.77    4.96
   1  -4 -13   41.56    2.80
  -1   4  13   46.63    3.84
  -1  -4 -14    2.92    0.65
   1   4  14    4.23    2.00
   1   4  14    5.57    1.63
   1   4  14    1.32    2.40
  -1  -4 -14    3.10    1.38
  -1  -4 -14    4.12    1.13
   6   8   4   47.28    3.53
   6   8   4   51.95    4.54
  -6  -8  -4   44.85    3.33
   6   8   4   49.49    3.35
  -8  -2  -9  124.31    8.31
  -8  -2  -9  128.47    8.64
   8   2   9  121.54    8.42
  -8  -2  -9  129.85    8.65
   4   5  14   28.21    3.36
   4   5  14   32.54    2.13
   4   5  14   30.01    3.82
  -4  -5 -14   35.82    3.15
   4   5  14   32.26    2.32
  -4  -5 -14   37.19    3.38
  -4   3  10   34.35    2.70
   4  -3 -10   37.57    2.80
  -4   3  10   27.54    3.82
   4  -3 -10   33.90    2.59
  -4   3  10   30.16    3.54
   4  -6   8   21.95    1.94
  -4   6  -8   17.39    2.23
   4  -6   8   20.58    2.23
   4  -6   8   17.53    2.21
   4  -6   8   20.48    2.40
  -4   6  -8   20.51    1.96
  -4   6  -8   18.24    2.00
  -8   1   1   17.33    1.66
   8  -1  -1   16.44    2.05
  -8   1   1   18.61    2.21
  -8   2   1    8.41    0.71
  -8   2   1    0.11    0.20
  -8   2   1   11.01    1.52
  -8   2   1    9.88    1.67
   1 -11  -8   65.04    5.03
   1 -11  -8   73.60    5.20
   1 -11  -8   67.75    4.37
   1 -11  -8   90.99    6.43
  -1  11   8   71.21    5.28
   1 -11  -8   65.79    5.47
   1 -11  -8   74.29    4.41
   1 -11  -8   67.97    4.52
  -1   7  -7   21.81    2.31
   1  -7   7   25.53    2.62
   1  -7   7   22.92    2.09
   1  -7   7   24.17    2.62
  -1   7  -7   23.89    2.16
   4  -5 -10   37.10    3.18
   4  -5 -10   39.59    3.22
   4  -5 -10   38.73    2.92
   4  -5 -10   53.09    3.50
   4  -5 -10   58.36    3.93
   4  -5 -10   47.86    4.22
  -4   5  10   42.67    3.22
  -4   5  10   44.73    4.32
  -3  10  -1    0.42    0.95
   3 -10   1    3.16    1.58
  -3  10  -1    1.05    1.12
   3 -10   1    1.47    0.99
   3 -10   1   -0.56    1.03
  -2   2 -12    0.87    1.01
   2  -2  12   -0.48    1.97
   2  -2  12    0.73    1.48
   2  -2  12    0.71    0.89
  -4 -10  -4    8.93    1.05
   4  10   4   12.72    2.82
   4  10   4   10.02    1.24
   8  -4   3   52.85    4.03
  -8   4  -3   57.47    4.19
  -8   4  -3   54.26    4.20
  -8   4  -3   53.32    3.67
   8  -4   3   52.64    4.27
   8  -4   3   63.94    4.63
  -8   4  -1   -0.52    1.34
  -8   4  -1    0.73    1.25
   8  -4   1    1.34    1.20
   8  -4   1    0.13    1.17
   8  -4   1    1.02    1.17
   0  -1  12   76.86    6.61
   0  -1  12   85.43    6.03
   0   1 -12   92.78    6.27
   0   1 -12   82.23    5.53
  -4  -2   8    7.21    1.52
  -4  -2   8    3.56    2.09
   4   2  -8    6.58    1.18
   4   2  -8    7.20    1.58
  -1  -9   3   50.44    3.81
   1   9  -3   58.89    4.17
   1   9  -3   61.37    4.62
  -1  -9   3   56.41    4.25
   4   3  14    0.59    0.69
  -4  -3 -14   -0.18    1.31
  -4  -3 -14    2.11    1.43
   4   3  14    0.88    1.71
   4   3  14    1.71    2.32
  -5  -9 -10    0.21    0.75
  -5  -9 -10    0.25    1.76
   5   9  10    1.09    0.63
   5   9  10    1.03    2.27
  -5  -9 -10    1.16    1.68
   6   5  -2   20.20    2.08
  -6  -5   2   19.93    2.10
  -3   2  11   55.23    5.15
   3  -2 -11   51.32    3.93
   3  -2 -11   52.23    3.96
   3  -2 -11   54.18    3.56
  -3   2  11   63.92    5.60
  -3   2  11   59.18    4.36
   8  -2   7   25.59    2.78
  -8   2  -7   29.94    2.65
   8  -2   7   28.27    2.35
   8  -2   7   37.01    3.00
  -4  10   1   37.11    2.88
   4 -10  -1   38.36    2.86
   4 -10  -1   37.15    2.80
  -8  -4  -8   16.79    1.92
  -8  -4  -8   17.94    2.36
   8   4   8   16.65    1.65
  -8  -4  -8   16.88    2.15
  -8  -1  -9   76.96    5.47
  -8  -1  -9   82.83    5.85
   8   1   9   69.81    5.39
  -8  -1  -9   74.26    5.63
   2 -11  -2    8.39    1.16
  -2  11   2    6.43    1.36
  -2  11   2    7.98    0.99
   2 -11  -2    9.55    2.75
   2 -11  -2    6.39    1.33
   0 -11  -9  123.28    8.34
   0  11   9  136.29    9.08
   4  -8   5    6.79    1.41
  -4   8  -5    5.22    1.35
  -4   8  -5    8.26    1.44
   4  -8   5    6.58    1.25
   4  -8   5    5.56    1.74
  -6   8  -1    1.75    1.36
   6  -8   1    1.52    1.06
   6  -8   1    1.45    0.76
  -6   8  -1    1.73    0.92
   6  -8   1    1.51    1.13
   6  -8   1    2.59    1.66
   6  -8   1    2.83    1.11
   8  -1   8    1.76    1.02
   8  -1   8    1.01    1.41
   8  -1   8    0.92    1.46
  -8   1  -8    4.11    1.42
  -8   1  -8    3.70    1.46
  -5  -4   5   38.23    3.47
  -5  -4   5   36.21    3.16
   5   4  -5   34.78    3.05
   5   4  -5   37.38    3.04
   5   4  -5   36.02    2.88
   5   4  -5   40.79    3.05
   6  -7  -5   21.55    2.16
   6  -7  -5   28.31    3.02
   6  -7  -5   27.78    3.35
   6  -7  -5   22.05    2.45
   0 -10 -11   58.36    3.97
   0 -10 -11   53.12    5.44
   0 -10 -11   58.10    4.49
   2  10   0   17.24    1.72
   2  10   0   16.86    2.40
   1  11   2   93.05    6.81
   1  11   2   97.26    6.24
  -7  -6 -10   19.81    2.59
  -7  -6 -10   17.47    1.85
  -7  -6 -10   17.77    1.83
   2  -9   4   53.30    4.49
  -2   9  -4   52.69    3.76
  -2   9  -4   46.93    3.44
   2  -9   4   45.80    3.40
  -2   9  -4   50.31    4.00
   2  -9   4   43.76    3.74
   2  -9   4   48.69    3.78
   6  -6  -6    3.33    1.27
   6  -6  -6    0.78    1.31
   6  -6  -6    4.20    2.05
   6  -6  -6    3.89    1.07
  -3  -2 -14   98.61    6.96
   3   2  14  108.77    7.33
   3   2  14   99.61    7.80
   3   2  14   97.49    7.21
   3   2  14   96.34    6.15
  -8  -3  -9   48.88    3.99
   8   3   9   50.42    3.54
  -8  -3  -9   47.62    3.73
  -8  -3  -9   49.35    3.23
  -8  -3  -9   45.84    4.05
  -1 -10   1   26.10    2.25
   1  10  -1   28.18    1.98
  -1 -10   1   23.88    2.55
   1  10  -1   32.20    3.00
   1  10  -1   27.36    2.38
   3   9  -1   34.63    2.78
   3   9  -1   38.85    3.46
  -2 -11  -9   27.52    2.93
   2  11   9   26.43    1.89
   2  11   9   25.82    2.73
   4   7  -3  129.13    8.25
  -4  -7   3  135.46    9.07
   1   0 -12    4.85    1.62
   1   0 -12    6.29    1.06
  -1   0  12    3.37    2.33
  -1   0  12    6.31    1.58
   1  -9   4    1.50    1.26
  -1   9  -4   -0.10    1.02
   1  -9   4    0.16    0.94
  -1   9  -4    0.18    0.81
   1  -9   4    0.20    1.78
  -1   9  -4    0.43    1.38
   0   1  13    0.17    1.30
   0  -1 -13    1.62    1.38
   0   1  13   -1.72    1.96
   0  -1 -13   -0.18    0.78
   6   0  12    7.66    1.92
   6   0  12    8.78    1.25
  -6   0 -12    9.68    1.58
  -6   0 -12    8.58    1.72
   6   0  12    7.24    2.10
   5   5  -4   23.41    2.16
   5   5  -4   22.02    2.28
   5   5  -4   23.06    2.10
   5   5  -4   20.70    2.37
  -5  -5   4   19.26    2.23
  -2   2  12  205.05   14.28
   2  -2 -12  193.05   11.32
  -2   2  12  207.09   13.13
   2  -2 -12  193.23   11.87
   2  -2 -12  167.08   11.58
  -7  -5 -11   28.30    3.22
  -7  -5 -11   37.48    3.05
  -7  -5 -11   34.13    2.75
   0  -5   9    7.51    1.70
   0  -5   9    7.57    1.29
   0   5  -9    8.98    1.36
   0   5  -9    9.82    1.49
   0   5  -9   10.27    1.43
  -7   0   4   -1.01    1.58
   7   0  -4   -0.12    1.16
   7   0  -4    0.39    1.20
  -7   0   4    0.56    0.85
  -7   0   4   -0.15    1.32
   1   6  14   15.54    2.29
  -1  -6 -14   12.92    2.38
  -1  -6 -14   12.63    1.91
  -5   9  -1   53.04    4.14
   5  -9   1   47.34    3.46
  -5   9  -1   58.99    3.82
   5  -9   1   47.83    4.05
   5  -9   1   50.99    3.57
  -7  -7  -7   42.69    3.03
   7   7   7   37.29    2.65
  -7  -7  -7   31.57    3.03
  -7  -7  -7   35.57    3.68
   3  10  11   71.44    3.10
   3  10  11   75.80    4.52
  -3 -10 -11   69.24    5.12
  -3 -10 -11   68.57    5.56
  -3 -10 -11   51.84    3.46
  -3 -10 -11   75.90    5.01
  -1   6  13   86.35    5.89
  -1   6  13   71.05    6.30
   1  -6 -13   69.89    5.79
   1  -6 -13   78.31    4.80
   1  -6 -13   63.81    3.92
   1   0  13   82.00    5.50
   1   0  13   89.69    6.27
  -1   0 -13   83.39    5.53
  -1   0 -13   90.97    6.22
   1   0  13   90.95    7.17
  -6  -2   5  127.29    9.18
   6   2  -5  121.13    8.69
   6   2  -5  148.12    8.77
  -6  -2   5  141.60    8.81
   6   7   1  105.68    6.91
   6   7   1  102.39    6.92
  -6  -7  -1   95.83    6.31
   6   7   1  114.35    7.72
   6  -8  -3    7.78    1.46
   6  -8  -3    8.28    1.52
  -6   8   3    8.05    1.48
  -6   8   3    5.23    1.52
   6  -8  -3    7.67    2.10
   5  -8   4   11.53    1.48
   5  -8   4    6.90    1.69
  -5   8  -4   10.89    1.26
  -5   8  -4   11.27    1.77
   5  -8   4    8.31    1.41
   1  -3 -13   73.72    5.11
  -1   3  13   71.27    5.23
   1  -3 -13   67.73    4.40
  -1   3  13   65.99    5.69
  -1   3  13   66.29    6.19
   4 -10  -5    5.83    1.13
   4 -10  -5    6.53    1.82
   4 -10  -5    6.26    0.78
   4 -10  -5    7.14    1.07
   4 -10  -5    4.59    0.87
   4 -10  -5    5.11    1.71
   2   2  14   52.22    4.23
  -2  -2 -14   52.23    3.90
   2   2  14   51.46    3.49
   2   2  14   39.76    2.98
   2   2  14   52.50    4.92
   2   2  14   39.06    4.00
  -2  -2 -14   41.41    3.08
  -7  -7  -6   98.90    6.54
   7   7   6   99.74    6.34
  -7  -7  -6   92.76    6.36
  -7  -7  -6   98.96    7.18
  -1  -3 -14   67.00    4.80
  -1  -3 -14   59.75    4.00
   1   3  14   66.37    5.53
   1   3  14   61.39    6.01
   1   3  14   69.03    5.27
  -1  11   1   51.61    4.56
  -1  11   1   60.53    4.17
  -1  11   1   59.31    3.78
   1 -11  -1   56.13    4.27
   1 -11  -1   57.28    3.93
   1 -11  -1   62.42    5.31
  -8   0   1   46.37    3.53
   8   0  -1   45.11    3.69
   7  -5   6   14.15    1.93
  -7   5  -6   12.21    1.95
  -7   5  -6   12.14    1.64
   7  -5   6   15.23    2.20
   7  -5   6   12.71    2.13
  -4   9  -3    6.11    1.31
   4  -9   3    4.74    1.68
  -4   9  -3    3.86    0.68
   4  -9   3    5.10    1.19
   4  -9   3    4.81    1.24
  -4   9  -3    1.39    1.23
   8  -3  -1    4.60    1.02
  -8   3   1    6.24    1.48
  -8   3   1    6.78    1.54
  -8   3   1    6.25    1.74
   8  -3   6    3.48    1.26
  -8   3  -6    4.37    1.28
   8  -3   6    4.65    1.61
  -8   3  -6    5.81    1.65
   8  -3   6    3.59    1.44
  -1  10  -2   22.98    2.15
   1 -10   2   22.79    2.35
  -1  10  -2   25.90    2.70
   1 -10   2   20.48    1.94
   1 -10   2   23.02    2.92
  -1  10  -2   22.48    1.91
   5   9   3    1.22    2.28
   5   9   3    0.26    0.68
  -5  -9  -3    0.22    0.85
   5   9   3    0.58    0.93
   6  -4   9   60.98    4.34
  -6   4  -9   55.07    4.33
   6  -4   9   63.16    4.63
   6  -4   9   59.57    4.74
  -6   4  -9   66.07    4.63
   6  -4   9   63.76    4.83
  -5   7  -6   20.27    2.10
   5  -7   6   19.77    2.19
   5  -7   6   20.78    2.30
   2   8  -4    2.69    0.86
  -2  -8   4    1.65    1.49
   2   8  -4    1.12    0.99
   2   8  -4    2.95    1.47
   6  -3  10   69.02    4.64
   6  -3  10   62.01    4.77
   6  -3  10   60.25    4.36
  -6   3 -10   63.52    4.89
  -6   3 -10   66.41    4.67
   6  -3  10   61.14    4.21
   6  -3  10   64.59    5.00
  -7  -3   2   54.46    3.80
   7   3  -2   53.89    4.09
  -7  -3   2   62.42    4.29
  -7  -3   2   49.86    4.08
   8  -4   4    7.56    1.66
  -8   4  -4    5.02    1.11
  -8   4  -4    8.41    1.54
  -8   4  -4    6.94    1.62
   8  -4   4    4.10    1.35
   8  -4   4    8.38    1.26
  -5  -8 -12   -1.67    1.70
  -5  -8 -12    0.48    0.77
  -5  -8 -12   -1.79    1.62
  -5  -8 -12   -0.46    1.94
   5   8  12    2.64    2.26
   0  -6   8    3.39    1.09
   0   6  -8    5.09    1.20
   0   6  -8    4.43    1.12
   0   6  -8    1.05    1.24
   5   3  -6   21.46    2.38
   5   3  -6   27.75    2.32
   5   3  -6   28.91    2.50
  -5  -3   6   23.12    1.60
  -5  -3   6   26.12    2.90
  -5  -3   6   24.13    2.33
   5   3  -6   26.32    2.20
  -4   2 -12   50.66    3.96
   4  -2  12   56.78    4.66
   4  -2  12   58.44    3.83
  -4   2 -12   54.96    4.43
   4  -2  12   54.12    4.75
   4  -2  12   53.07    4.19
   4  -2  12   56.87    3.87
  -4   2 -12   59.85    3.92
  -6  -8 -10   34.81    3.60
  -6  -8 -10   42.10    3.92
  -6  -8 -10   40.06    2.91
  -7   6  -4   17.07    1.86
  -7   6  -4   13.26    2.06
   7  -6   4   13.51    1.61
   7  -6   4   13.09    2.12
   7  -6   4   14.06    1.67
   7  -6   4   15.10    2.01
  -7   6  -4   13.60    1.62
   7  -6   4   14.18    2.33
   8  -4   0    7.27    1.48
   8  -4   0   11.11    1.59
  -8   4   0    8.77    1.61
  -8   4   0   10.16    1.79
   8  -4   0   10.13    1.64
   2  11   3    8.30    1.22
  -8  -4  -3   10.20    1.95
  -8  -4  -3    9.14    1.59
  -8  -4  -3   11.73    1.68
   8   4   3   10.82    1.66
   4   6  14   76.33    5.51
  -4  -6 -14   71.69    4.63
   4   6  14   63.25    4.04
  -4  -6 -14   68.09    5.61
  -4  -6 -14   69.13    5.42
   4   6  14   75.14    4.47
   3  11   7   76.98    6.17
   3  11   7   65.21    4.40
  -3 -11  -7   66.92    5.37
   3  11   7   72.04    5.22
   0   4 -10   38.86    3.06
   0  -4  10   44.61    3.69
   0  -4  10   42.06    3.12
   0  -4  10   39.04    3.12
   0   4 -10   42.70    3.01
   2   7  14    1.83    1.63
  -2  -7 -14   -0.52    1.25
  -2  -7 -14    0.54    1.77
   2   7  14    1.25    1.86
  -6   3   7    8.65    0.98
  -6   3   7   11.67    2.27
   6  -3  -7    7.78    1.49
   6  -3  -7    7.92    1.67
   7   7   8   33.36    2.39
  -7  -7  -8   33.73    2.95
  -7  -7  -8   30.53    3.35
  -7  -7  -8   33.73    2.70
   0 -11  -1   54.64    3.62
   0 -11  -1   51.12    4.68
   0  11   1   52.25    3.32
   0  11   1   54.02    4.03
   0 -11  -1   45.51    3.87
   0  11   1   39.92    2.82
   2 -11  -7    9.66    1.02
   2 -11  -7   10.98    1.09
   2 -11  -7   13.21    2.02
   2 -11  -7   10.99    2.64
   2 -11  -7   10.60    1.13
   2 -11  -7    7.77    1.37
   2 -11  -7    9.76    1.98
  -4   2  10    1.57    1.92
   4  -2 -10    0.45    1.14
  -4   2  10    2.88    2.32
   4  -2 -10    0.62    0.82
  -4   2  10    1.26    1.06
   3  11   6   24.62    3.73
   3  11   6   29.57    2.89
  -3 -11  -6   20.68    1.58
   3  11   6   25.25    2.02
   2 -10   2   10.48    1.45
   2 -10   2   14.18    1.91
   2 -10   2   14.08    2.88
  -2  10  -2   13.12    2.07
  -2  10  -2   11.99    1.38
   2 -10   2    9.64    1.66
  -2  10  -2    9.92    1.55
  -7  -4   1   52.88    3.67
   7   4  -1   46.29    3.65
  -7  -4   1   40.47    3.40
   7  -5  -4   30.76    2.89
  -7   5   4   34.35    3.08
   7  -5  -4   32.11    2.58
   7  -5  -4   30.96    3.18
  -4  -8 -13   85.17    5.53
   4   8  13   91.03    6.49
  -4  -8 -13   92.73    7.01
  -4  -8 -13   88.82    6.68
  -4  -8 -13   95.36    6.69
   4   8  13  112.20    7.56
   6   4  13   56.43    3.82
   6   4  13   58.07    4.95
  -6  -4 -13   58.47    4.77
  -6  -4 -13   58.18    4.63
  -6  -4 -13   60.27    4.15
   6   4  13   57.07    4.88
   6   3  13   61.19    5.24
   6   3  13   60.92    4.14
   6   3  13   64.75    5.23
  -6  -3 -13   65.83    5.12
  -6  -3 -13   62.34    5.10
  -6  -3 -13   69.97    4.63
   4  10  10   39.07    3.43
  -4 -10 -10   39.49    3.81
   4  10  10   36.21    2.48
   4  10  10   38.84    4.21
  -4 -10 -10   35.38    4.16
   2  -7 -12    6.73    0.52
   2  -7 -12    4.67    1.11
  -2   7  12    6.60    1.49
   2  -7 -12    6.87    2.50
   2  -7 -12    6.41    0.61
   2  -7 -12    2.23    0.89
   2  -7 -12    9.13    1.26
   0   8  13   38.68    3.49
   0  -8 -13   31.64    2.93
   0  -8 -13   34.98    4.02
   7   0  11    2.93    1.67
   7   0  11    2.66    1.19
   7   0  11    2.59    1.51
  -7   0 -11    1.25    1.24
  -7   0 -11    2.00    1.31
   4  -6 -10    6.13    1.22
   4  -6 -10    9.78    1.64
   4  -6 -10   12.86    2.10
  -4   6  10    8.78    2.22
  -4   6  10    6.00    1.11
   4  -6 -10    3.85    1.28
   4  -6 -10    7.44    0.89
   4  -6 -10    8.78    2.15
   3   8  -3    1.29    0.93
   3   8  -3    0.78    1.49
  -3  -8   3   -1.33    1.38
  -6   4   7   37.35    3.79
   6  -4  -7   34.24    3.28
   6  -4  -7   35.74    3.00
   6  -4  -7   33.57    2.96
   8   0   9   47.86    3.64
  -8   0  -9   43.08    3.73
  -8   0  -9   46.40    3.67
   8   0   9   45.11    3.39
   8   0   9   40.06    3.86
   5  -9  -5   15.95    1.88
   5  -9  -5   13.15    2.33
   5  -9  -5   14.64    2.30
   5  -9  -5   15.56    1.60
   3   7  14   33.46    2.51
  -3  -7 -14   42.06    3.58
   3   7  14   36.68    3.64
   3   7  14   33.05    3.44
  -3  -7 -14   35.45    3.95
   7  -6  -3    6.54    1.48
   7  -6  -3    5.36    2.02
  -7   6   3    8.14    1.53
   7  -6  -3    7.00    1.50
  -4  -9 -12  102.15    7.16
  -4  -9 -12   91.52    5.93
  -4  -9 -12  104.88    7.29
   4   9  12  107.00    5.03
   4   9  12  107.97    3.53
  -4  -9 -12  101.76    7.58
   3 -10  -8    4.59    0.73
   3 -10  -8    5.06    1.21
   3 -10  -8    4.56    1.57
   3 -10  -8    2.95    1.75
   3 -10  -8    4.79    2.50
   3 -10  -8   -0.32    2.03
   3 -10  -8    4.18    1.01
   3 -10  -8    3.00    0.93
   1   2 -11   40.08    3.67
  -1  -2  11   46.88    3.92
   1   2 -11   46.72    3.50
  -1  -2  11   47.01    4.54
   1   2 -11   44.49    3.13
   1   2 -11   41.32    2.90
   5   7  13    2.03    1.76
  -5  -7 -13    2.49    1.70
  -5  -7 -13    1.59    0.88
  -5  -7 -13    0.22    1.65
  -5  -7 -13   -0.21    1.68
   5   7  13    0.72    0.55
   4   2  14   25.21    3.05
   4   2  14   25.31    1.93
   4   2  14   25.14    2.83
   4   2  14   22.19    3.32
   7   7   5   57.49    3.95
  -7  -7  -5   65.02    4.49
  -7  -7  -5   58.20    5.10
   4 -10   0   22.31    2.15
  -4  10   0   25.42    2.30
   4 -10   0   29.05    2.85
   4 -10   0   26.38    2.19
  -7  -2   3   48.15    4.32
  -7  -2   3   53.90    4.09
  -7  -2   3   60.80    3.92
  -7  -2   3   67.57    4.56
   7   2  -3   59.53    4.45
  -7  -6  -2    7.26    1.41
   7   6   2   10.34    1.56
   3  11   8  294.70   17.73
  -3 -11  -8  258.15   16.60
   3  11   8  277.67   16.93
   5   0  -8   11.01    1.43
  -5   0   8   12.28    1.58
   5   0  -8   10.17    1.71
  -5   0   8   10.94    2.38
   5   0  -8    8.59    1.49
   3  -9   4   18.57    2.32
  -3   9  -4   14.65    1.66
   3  -9   4   15.37    1.68
  -3   9  -4   15.82    1.47
   3  -9   4   13.50    1.88
   5  -4  10   24.34    2.18
  -5   4 -10   26.54    2.73
  -5   4 -10   26.14    2.37
   5  -4  10   24.24    2.68
   5  -4  10   19.70    2.55
   5  -4  10   30.32    2.42
  -5  -6   3   38.25    3.37
   5   6  -3   37.15    3.10
   5   6  -3   40.92    3.50
   3  10   1   83.53    5.41
   3  10   1   77.80    5.10
   3  10   1   91.81    6.15
   3  -7 -11   14.79    2.79
   3  -7 -11   17.71    2.36
  -3   7  11   17.25    1.82
   3  -7 -11   19.29    1.80
   3  -7 -11   13.27    1.37
   3  -7 -11    9.03    1.35
   3  -7 -11   13.57    1.64
  -2   8  -6    3.74    1.02
   2  -8   6    3.79    1.78
   2  -8   6    1.25    1.41
   1  -2  12   48.12    3.54
   1  -2  12   52.24    4.17
  -1   2 -12   46.85    3.40
  -1   2 -12   48.65    4.05
   6   6  -1    2.70    1.32
   6   6  -1    3.46    1.18
  -6  -6   1    2.78    1.18
   6  -8   2   12.05    1.40
   6  -8   2   14.11    1.53
  -6   8  -2   15.87    1.58
  -6   8  -2   12.29    1.85
   6  -8   2   14.56    1.78
   6  -8   2   10.38    1.50
   6  -8   2   15.82    2.30
  -6   2   7    0.71    1.66
  -6   2   7   -0.94    1.81
  -6   2   7    2.02    0.81
   6  -5   8   35.96    3.51
   6  -5   8   44.74    3.33
   6  -5   8   43.83    3.73
  -6   5  -8   40.51    3.42
   6  -5   8   47.20    3.66
  -6   5  -8   40.12    3.33
  -8  -2   0   72.18    5.10
  -8  -2   0   65.82    4.80
  -8  -2   0   69.33    4.99
   8   2   0   74.00    5.32
  -8  -5  -6   20.91    2.23
  -8  -5  -6   18.89    2.05
   8   5   6   22.01    2.08
  -8  -5  -6   18.43    2.55
  -8  -4  -9   86.06    5.51
  -8  -4  -9   79.97    5.91
  -8  -4  -9   77.96    6.17
   8   4   9   84.44    5.50
  -8  -4  -9   81.94    5.66
   6   8   3  116.03    7.83
   6   8   3  141.42    9.03
  -6  -8  -3  108.33    7.04
   6   8   3  122.77    7.73
   3   1 -10  124.15    8.49
  -3  -1  10  142.09    9.85
   3   1 -10  135.35    8.26
  -3  -1  10  129.52    8.81
   6  -2  11    4.36    1.08
   6  -2  11    6.69    1.86
  -6   2 -11    5.55    1.53
   6  -2  11    4.37    1.15
   6  -2  11    3.65    1.67
   6  -2  11    5.79    1.41
  -3 -11  -5    6.48    0.76
   3  11   5    6.40    2.63
   3  11   5   10.25    1.98
   3  11   5    6.73    1.11
  -2  11   1    4.09    1.73
   2 -11  -1    9.41    1.26
   2 -11  -1   13.36    2.66
   2 -11  -1    9.58    1.53
   2 -11  -1   10.64    1.94
  -2  11   1    8.71    1.53
  -2  11   1   10.98    1.15
   5  -8  -7   23.74    2.28
   5  -8  -7   24.41    3.48
   5  -8  -7   33.94    3.03
   5  -8  -7   19.42    2.43
   5  -8  -7   29.96    2.32
   4  -8  -9   10.60    1.53
   4  -8  -9   18.73    2.88
   4  -8  -9   14.90    2.83
   4  -8  -9   12.79    2.03
   4  -8  -9   13.78    1.82
   4  -8  -9   14.28    1.40
   4  -7   7    6.95    1.30
   4  -7   7    6.99    1.51
   4  -7   7    7.19    1.68
  -4   7  -7    8.34    1.46
   1   8  -5   38.81    2.83
   1   8  -5   47.04    3.56
   8   5   7   70.66    4.74
  -8  -5  -7   76.54    5.19
  -8  -5  -7   71.32    5.31
  -8  -5  -7   71.51    5.69
   4  10   3   57.38    3.74
  -4 -10  -3   65.28    4.21
   4  10   3   82.40    5.87
   4  10   3   67.74    4.19
   0 -10   2    2.28    1.29
   0  10  -2    2.58    1.05
   0  10  -2    3.73    1.79
   0  10  -2    3.52    0.76
   0 -10   2    4.33    2.04
   0 -10   2    2.87    1.08
  -8  -3  -1   70.51    4.98
   8   3   1   77.14    5.48
  -8  -3  -1   64.72    4.68
  -8  -3  -1   58.80    4.47
   1  11  10   12.21    2.03
  -1 -11 -10   11.24    2.40
  -1 -11 -10   16.22    2.90
  -1 -11 -10   13.75    2.12
  -5   5  -9   13.56    1.86
   5  -5   9   17.28    2.02
   5  -5   9   21.37    2.41
  -5   5  -9   23.91    2.37
   5  -5   9   16.66    1.76
   5  -5   9   18.09    2.23
  -6  -5 -13   44.12    3.76
   6   5  13   40.95    2.89
   6   5  13   38.74    3.96
  -6  -5 -13   42.08    3.26
  -6  -5 -13   50.94    4.06
  -6  -2 -13   24.84    2.85
   6   2  13   30.02    3.45
   6   2  13   24.67    3.18
   6   2  13   29.43    2.24
  -6  -2 -13   26.88    2.38
  -6  -2 -13   28.00    2.85
   0  -9   4    8.95    1.73
   0   9  -4    5.67    0.60
   0  -9   4    9.21    1.36
   0   9  -4    8.70    1.67
   0   9  -4   10.39    1.41
   0  -9   4    7.53    1.98
   5  -7  -8  104.71    7.66
   5  -7  -8  118.42    7.07
   5  -7  -8   91.85    6.49
   5  -7  -8   89.96    6.61
   3 -11  -4   26.99    2.51
   3 -11  -4   35.85    3.49
   3 -11  -4   35.67    2.52
   3 -11  -4   35.21    2.30
   5  -3  11    0.37    1.56
   5  -3  11    1.71    1.39
  -5   3 -11   -0.09    1.11
  -5   3 -11    1.35    1.45
   5  -3  11    0.74    1.12
   5  -3  11    1.21    0.95
   2   9  13   58.11    4.15
  -2  -9 -13   60.95    5.29
   2   9  13   56.47    5.20
  -2  -9 -13   59.81    4.91
  -2  -9 -13   64.23    5.70
  -7  -7  -9    2.93    1.31
  -7  -7  -9    4.13    1.24
  -7  -7  -9    4.65    1.77
   0   7  -7   34.83    2.93
   0  -7   7   31.66    2.68
   0  -7   7   34.74    2.91
   0   7  -7   34.24    2.56
   0   7  -7   29.77    2.62
   7  -7   0   18.24    2.02
  -7   7   0   18.53    2.18
  -7   7   0   20.98    2.05
   7  -7   0   14.61    2.22
   7  -7   0   22.71    2.35
  -8  -5  -5    6.01    1.51
   8   5   5    1.96    1.19
  -8  -5  -5    3.79    1.33
  -8  -5  -5    2.23    1.60
   1   7  14   20.90    2.69
  -1  -7 -14   17.54    2.92
  -1  -7 -14   22.75    2.39
   4  -9  -8    3.95    1.66
   4  -9  -8    1.64    0.37
   4  -9  -8    0.32    2.03
   4  -9  -8    1.05    0.99
   4  -9  -8    1.92    2.37
   4  -9  -8    4.12    1.88
   4  -9  -8    2.93    0.79
   4  -9  -8    2.78    1.19
   1 -11  -9   23.61    3.35
   1 -11  -9   23.88    2.36
   1 -11  -9   19.63    1.41
   1 -11  -9   17.26    2.10
   1 -11  -9   17.61    1.64
   1 -11  -9   21.73    1.66
   1 -11  -9   20.33    2.79
   3 -11  -3   22.84    2.80
   3 -11  -3   22.41    2.06
   3 -11  -3   27.69    3.87
  -3  11   3   24.64    2.08
   3 -11  -3   24.09    1.98
   7  -3   9   31.89    2.71
  -7   3  -9   30.81    2.85
  -7   3  -9   31.95    2.94
   7  -3   9   33.46    3.20
   7  -3   9   26.94    2.88
   6  -8  -4   43.17    3.36
   6  -8  -4   42.94    3.80
   6  -8  -4   34.28    4.13
   6  -8  -4   42.32    3.29
  -1   8  -6   15.60    2.10
  -1   8  -6   15.95    1.45
   1  -8   6   16.52    2.39
   1  -8   6   16.72    2.19
   5  -4  -9   17.38    2.43
   5  -4  -9   14.87    1.81
   5  -4  -9   13.15    1.81
  -5   4   9   16.83    1.62
  -5   4   9   14.51    2.72
  -5  -4 -14    7.42    1.76
  -5  -4 -14    7.08    1.19
   5   4  14    5.02    2.35
   5   4  14    5.72    0.86
  -1   7  13   36.69    3.27
   1  -7 -13   38.27    3.09
   3  -1 -11   18.27    1.64
  -3   1  11   22.27    2.24
  -3   1  11   15.92    3.06
   3  -1 -11   16.42    1.99
  -7   3   5   39.91    3.37
  -7   3   5   35.97    3.70
   7  -3  -5   37.29    3.00
   7  -3  -5   32.04    3.08
  -5   0 -13   56.73    4.54
   5   0  13   56.45    3.87
   5   0  13   58.27    3.93
   5   0  13   58.29    5.07
   5   0  13   62.31    5.00
   5   0  13   59.23    4.50
  -5   0 -13   57.09    4.03
   7   3  12    0.45    1.02
  -7  -3 -12    0.10    1.05
   7   3  12   -0.22    1.76
  -7  -3 -12    1.61    1.56
   7   3  12   -0.72    1.61
  -7  -3 -12    0.38    1.32
   7   5   0   30.64    2.78
  -7  -5   0   30.87    2.67
  -7  -5   0   38.89    2.93
   1  -2 -13   73.20    4.89
  -1   2  13   75.06    6.41
  -1   2  13   87.02    7.06
  -1   2  13   79.59    5.85
   1  -2 -13   87.73    5.67
   4 -10  -6    3.08    0.71
   4 -10  -6    2.30    0.59
   4 -10  -6    5.20    1.64
   4 -10  -6    3.78    0.98
   4 -10  -6    5.24    0.95
   4 -10  -6    5.44    1.13
   4 -10  -6    4.69    1.68
  -5  -9 -11    2.36    1.71
  -5  -9 -11   -0.06    0.76
   5   9  11    1.18    1.41
  -5  -9 -11   -0.76    1.93
   5   9  11   -0.79    2.10
   5   9  11    0.04    0.61
  -2  -1  11   21.03    3.23
   2   1 -11   15.78    2.04
   2   1 -11   20.18    1.78
   2   1 -11   19.29    1.59
  -2  -1  11   18.07    2.18
   6  -5  -7   64.41    4.14
   6  -5  -7   63.82    4.72
   6  -5  -7   59.43    5.12
   6  -5  -7   62.88    4.56
  -6   5   7   67.09    5.56
   8  -4   5   42.97    3.61
  -8   4  -5   50.94    3.66
   8  -4   5   50.81    3.56
  -8   4  -5   53.36    3.87
   8  -4   5   50.52    4.00
  -8   4  -5   46.61    4.03
   3  -1  13    2.13    0.87
   3  -1  13    3.36    2.08
  -3   1 -13    0.27    1.06
   5   8   0   34.36    2.61
   5   8   0   30.25    2.60
  -5  -8   0   34.91    2.70
   5   8   0   30.51    3.46
   7  -7   1    4.31    1.99
   7  -7   1    1.99    0.64
   7  -7   1    2.50    1.50
   7  -7   1    0.31    1.45
  -7   7  -1    2.28    1.45
  -7   7  -1    2.44    1.16
   7  -7   1    2.03    1.15
  -8  -1   1   35.76    3.15
   8   1  -1   41.88    3.48
  -8  -1   1   37.51    3.12
   3  -8   6   41.83    3.56
  -3   8  -6   36.04    2.75
   3  -8   6   40.96    3.47
   0  -3  11  118.92    8.40
   0  -3  11  112.85    7.84
   0   3 -11  110.78    7.14
   0  -3  11  112.35    7.25
   0   3 -11  110.94    7.76
   3   5  -7   47.78    3.62
  -3  -5   7   42.35    3.67
   3   5  -7   46.11    3.36
   3   5  -7   42.80    3.45
   2  11  10   48.04    3.02
   2  11  10   42.20    3.83
  -2 -11 -10   45.30    3.92
  -2 -11 -10   41.67    4.72
   5   2  -7   48.41    3.76
  -5  -2   7   54.16    3.96
   5   2  -7   47.96    3.22
   5   2  -7   46.98    3.50
  -5  -2   7   47.81    4.52
   1   2  14    7.60    1.88
   1   2  14   11.58    2.39
  -1  -2 -14    8.18    1.73
  -1  -2 -14    7.78    1.06
   1   2  14   11.17    2.97
  -7   2   5   42.46    2.92
  -7   2   5   49.23    4.15
   8  -4  -1    1.88    1.21
   8  -4  -1    3.01    1.43
  -8   4   1    3.82    1.65
   8  -4  -1    3.13    1.35
  -8   4   1    3.18    1.40
  -6  -7 -12  111.36    7.16
  -6  -7 -12  106.32    7.86
  -6  -7 -12  121.27    7.96
  -5   3   9   -0.17    0.83
  -5   3   9   -0.25    1.97
   5  -3  -9    0.34    1.09
  -5   3   9    3.60    2.16
   6  -7   5    5.73    1.38
   6  -7   5    6.11    1.82
   6  -7   5    6.29    1.32
  -6   7  -5    6.43    1.55
   2  -9 -11    0.41    1.05
   2  -9 -11   -0.07    0.77
   2  -9 -11    1.19    1.16
   2  -9 -11    0.39    0.82
   2  -9 -11    2.73    2.33
   2  -9 -11    2.69    2.10
   2  -9 -11    1.54    1.99
   7  -7  -1   11.08    1.82
  -7   7   1   10.40    1.72
  -7   7   1    7.76    1.52
   7  -7  -1    8.24    1.64
   7  -7  -1    6.26    1.55
  -5   9  -2   51.99    3.99
   5  -9   2   51.31    3.44
  -5   9  -2   53.29    3.57
   5  -9   2   41.04    3.30
   5  -9   2   43.09    3.89
   3 -11  -5    8.18    1.28
   3 -11  -5    7.43    1.99
   3 -11  -5    9.94    3.02
   3 -11  -5    8.19    0.94
   3 -11  -5    7.11    1.04
   3 -11  -5    6.20    1.65
   0  -5 -14   55.06    3.78
   0  -5 -14   53.95    3.42
   0   5  14   57.44    4.84
   0  -5 -14   59.40    4.33
   0   5  14   67.54    5.51
   2  10  12   19.85    3.36
   2  10  12   22.03    2.34
  -2 -10 -12   24.00    3.47
  -2 -10 -12   19.26    2.50
  -2 -10 -12   18.56    1.39
  -2 -10 -12   24.63    3.16
   6   1  -6   69.15    5.02
  -6  -1   6   64.23    4.62
   6   1  -6   71.42    5.07
  -6  -1   6   68.44    5.31
   4   1  -9   41.87    3.56
  -4  -1   9   40.27    4.35
  -4  -1   9   46.26    3.56
   4   1  -9   46.21    3.25
  -8   2   2   -0.50    1.44
  -8   2   2   -0.14    0.17
  -8   2   2    0.95    1.14
  -8   2   2    0.81    0.48
  -8  -5  -8   61.05    4.38
  -8  -5  -8   55.37    4.49
  -8  -5  -8   62.52    4.95
   8   5   8   57.02    3.92
  -8  -2 -10  151.28    9.90
  -8  -2 -10  149.68    9.56
  -8  -2 -10  141.64    9.87
   8   2  10  149.43   10.17
   3  11   9   43.33    2.92
   3  11   9   45.71    3.82
  -3 -11  -9   41.14    3.85
   7  -2  10   45.83    4.08
   7  -2  10   58.34    3.96
  -7   2 -10   52.86    4.19
   7  -2  10   50.59    4.34
   5   3  14    6.70    0.96
   5   3  14    2.44    2.28
  -5  -3 -14    9.31    1.87
  -5  -3 -14    7.42    1.25
   7  -4   8   -0.16    1.46
   7  -4   8    1.02    1.21
  -7   4  -8    0.14    1.18
  -7   4  -8   -1.05    1.35
  -3  -1 -14   50.08    4.17
   3   1  14   50.26    3.48
   3   1  14   57.54    4.67
   3   1  14   54.90    5.23
  -3  -1 -14   49.74    3.55
   3   1  14   51.08    4.54
   7   4  12    0.62    1.02
  -7  -4 -12   -0.17    1.40
  -7  -4 -12    0.59    1.03
  -7  -4 -12    0.99    1.49
   7   4  12    1.35    1.86
   5   5  14    1.43    0.64
  -5  -5 -14    0.37    0.93
   5   5  14    1.16    1.63
  -5  -5 -14   -0.15    1.43
   4   9   0   33.99    3.25
   4   9   0   30.99    2.60
   4   9   0   31.85    2.46
   4   9   0   36.27    3.76
  -1  -9 -13   72.06    6.45
  -1  -9 -13   75.17    6.17
  -1  -9 -13   76.82    5.63
   7   2  12   -0.22    1.61
  -7  -2 -12   -1.92    1.32
  -7  -2 -12    0.36    1.54
  -7  -2 -12    1.12    1.36
   7   2  12    0.19    1.65
   7   2  12    0.82    0.99
   0  -4 -14  134.36    8.38
   0   4  14  147.94    9.58
   0   4  14  130.66    9.94
   0  -4 -14  152.11    9.23
   0  -4 -14  137.50    8.60
   2   5  -8   42.22    3.26
   2   5  -8   40.73    3.15
  -2  -5   8   46.38    3.92
   2   5  -8   45.84    3.44
  -1 -10 -12   99.44    7.76
  -1 -10 -12  100.32    7.23
   1  10  12  118.48    7.85
  -1 -10 -12  108.67    8.33
  -7  -7  -4  107.83    7.47
   7   7   4  108.90    7.01
  -7  -7  -4   96.69    6.67
   2  -1  13   58.07    5.11
   2  -1  13   54.08    4.47
  -2   1 -13   58.60    4.45
  -2   1 -13   51.11    3.77
   2  -1  13   52.53    3.69
   0 -11 -10   49.04    4.09
   0 -11 -10   50.46    5.15
   0 -11 -10   50.75    3.30
   0  11  10   51.35    4.11
   8  -2   8    4.70    1.65
   8  -2   8    2.60    1.13
   8  -2   8    4.12    1.58
  -8   2  -8    6.64    1.49
   1  11   1   98.61    2.73
   1  11   1   93.76    3.77
   3   4  -8    7.85    1.55
   3   4  -8    9.68    1.35
  -3  -4   8    6.66    1.62
  -3  -4   8    8.10    2.30
   3   4  -8   10.68    1.66
  -3  10  -2    1.45    1.32
  -3  10  -2    1.33    1.09
   3 -10   2    1.96    0.99
   3 -10   2    0.68    1.57
   3 -10   2    2.21    1.13
  -7  -6 -11   30.14    2.68
  -7  -6 -11   32.93    2.64
  -7  -6 -11   31.47    3.03
  -7  -6 -11   30.63    3.30
  -2   1  12  183.62   13.10
   2  -1 -12  172.29    9.88
   2  -1 -12  154.90    9.58
  -2   1  12  190.32   12.12
   2  -1 -12  175.37   10.54
   2  -1 -12  150.35   10.17
  -8   1   2    5.34    1.71
   8  -1  -2    4.81    1.55
  -8   1   2    5.77    1.06
  -8   1   2    4.63    0.83
   5  -5  -9   26.18    2.48
   5  -5  -9   25.96    3.16
  -5   5   9   30.73    2.30
   5  -5  -9   29.51    2.56
  -5   5   9   41.18    3.95
   8   3  10   59.01    4.90
  -8  -3 -10   64.84    4.96
  -8  -3 -10   63.63    4.97
  -8  -3 -10   60.97    4.54
   1  -9 -12    1.34    1.08
   1  -9 -12    1.41    1.00
   3   9  13   27.65    2.56
  -3  -9 -13   29.70    3.57
   3   9  13   31.83    3.62
  -3  -9 -13   26.12    3.39
  -3  -9 -13   31.11    3.13
  -3  -9 -13   28.42    2.03
  -3  -6   6   27.72    2.82
   3   6  -6   34.23    2.82
   3   6  -6   27.93    2.40
   3   6  -6   25.01    2.39
   3 -11  -2   11.28    1.55
   3 -11  -2   14.97    1.52
  -3  11   2   16.22    1.57
   3 -11  -2   15.08    3.06
  -7  -1   4   15.36    1.62
  -7  -1   4   13.32    2.26
  -7  -1   4   15.14    2.07
   7   1  -4   16.43    2.05
   7   1  -4   15.18    1.89
  -8  -4  -2   22.72    2.57
  -8  -4  -2   16.49    2.07
   8   4   2   21.05    2.23
  -8  -4  -2   17.07    1.96
   7  -4  -5   37.17    3.51
  -7   4   5   44.30    4.33
  -7   4   5   52.89    4.04
   7  -4  -5   45.26    3.39
   7  -4  -5   44.25    3.57
   1 -10 -11    3.46    1.35
   1 -10 -11    3.30    1.23
   1 -10 -11    6.40    1.22
   1 -10 -11    2.91    0.73
  -4  -7 -14    5.00    1.73
  -4  -7 -14    7.19    1.02
  -4  -7 -14    6.93    2.22
   4   7  14    7.19    2.29
   4   7  14    5.64    2.06
   4   7  14    8.34    1.27
   2 -11  -8    0.48    0.83
   2 -11  -8    0.63    0.82
   2 -11  -8    0.48    1.58
   2 -11  -8    2.53    2.35
   2 -11  -8    0.60    1.04
   2 -11  -8    0.46    0.54
   2 -11  -8   -0.22    1.68
   2 -10 -10    5.20    1.60
   2 -10 -10    4.00    2.00
   2 -10 -10    4.40    1.14
   2 -10 -10    0.35    2.43
   2 -10 -10    4.72    2.07
   2 -10 -10    3.70    0.91
   2 -10 -10    6.39    1.34
   3  11   4    8.48    1.25
   8  -5   2    7.05    1.92
   8  -5   2    6.79    1.46
  -8   5  -2    7.01    1.68
   8  -5   2    6.44    1.68
  -8   5  -2    5.46    0.75
  -8   5  -2    4.83    1.38
  -2  -6   7   57.31    4.52
   2   6  -7   66.02    4.59
   2   6  -7   67.89    4.82
   2   6  -7   65.53    4.59
   6  -1  -7   -0.12    1.26
   6  -1  -7    0.12    1.32
  -6   1   7    0.96    0.82
  -6   1   7   -0.69    1.79
   8  -5   1    0.97    1.31
   8  -5   1    1.30    1.72
   8  -5   1   -0.45    1.28
  -8   5  -1    0.39    1.39
  -8   5  -1   -0.85    1.25
   8  -5   1    1.39    1.40
  -4   1  10   15.47    3.00
   4  -1 -10   15.23    1.58
   4  -1 -10   14.33    1.83
  -4   1  10   17.74    1.97
   4   8  -2   22.27    2.52
  -4  -8   2   19.34    2.33
   4   8  -2   17.52    1.93
   4   8  -2   20.54    1.95
   2   1  14   46.50    3.25
   2   1  14   49.98    3.45
  -2  -1 -14   46.53    4.04
   2   1  14   41.69    4.74
   2   1  14   49.09    4.20
   2   1  14   42.27    4.20
  -2  -1 -14   48.55    3.39
  -5   6  -8   32.89    2.90
   5  -6   8   32.94    3.15
   5  -6   8   34.91    3.27
  -5   6  -8   34.96    3.15
   5  -6   8   36.20    3.13
   5  -6   8   35.30    2.76
  -8   3   2   79.60    5.92
  -8   3   2   90.41    6.20
   8  -3  -2   76.99    5.18
   2  11   2    4.72    1.81
   2  11   2    1.86    0.97
  -8   3  -7   37.23    3.40
   8  -3   7   36.44    3.49
   8  -3   7   46.68    3.56
  -8   3  -7   40.44    3.18
   8  -3   7   38.64    3.50
  -6  -8 -11   30.67    2.40
  -6  -8 -11   28.10    3.22
   7  -7   2    1.03    0.76
   7  -7   2    1.91    1.58
   7  -7   2    0.75    1.85
  -7   7  -2    0.79    1.39
  -7   7  -2    1.02    1.12
   7  -7   2    0.36    1.08
   7  -7   2    0.38    0.99
   7  -7   2    0.37    1.49
  -8  -1 -10   94.23    6.58
   8   1  10   79.17    5.86
   8   1  10   89.15    6.48
   8   1  10   94.60    6.04
  -8  -1 -10   88.99    6.24
   0   6  14   49.55    4.12
   0  -6 -14   55.09    4.28
   0   6  14   46.72    4.63
  -1  11   0    8.47    1.41
  -1  11   0    7.80    1.03
   1 -11   0    9.70    2.48
   1 -11   0    7.00    1.43
  -1  11   0    9.24    1.93
   1 -11   0    8.47    1.27
  -8  -5  -4    4.64    1.75
  -8  -5  -4    3.55    1.33
   8   5   4    4.02    1.33
   7  -6   5   62.42    5.19
   7  -6   5   66.86    4.90
  -7   6  -5   63.46    4.96
   7  -6   5   79.20    5.47
  -7   6  -5   66.15    4.71
  -7   6  -5   69.06    4.73
  -2  -4   9   33.31    3.00
  -2  -4   9   29.62    2.30
  -2  -4   9   32.29    3.51
   2   4  -9   36.39    2.93
   2   4  -9   39.69    2.93
   2   4  -9   36.00    3.03
  -8   1  -9    9.02    1.71
   8  -1   9    7.05    1.47
   8  -1   9    5.71    1.76
  -8   1  -9    7.34    1.66
   8  -1   9    6.51    1.63
  -5  -9  -2    4.44    0.99
   5   9   2    3.89    2.39
   5   9   2    5.34    1.18
   5   9   2    5.26    1.04
   6  -7  -6   84.93    6.16
   6  -7  -6   78.76    6.90
   6  -7  -6   88.80    5.93
   6  -7  -6  102.33    6.59
  -4   1 -13   10.10    1.89
   4  -1  13    9.77    1.22
   4  -1  13    9.89    2.10
   4  -1  13    9.65    1.87
   4  -1  13    8.98    0.99
   4  -1  13    9.61    2.36
  -3   5 -10   99.72    7.29
   3  -5  10  104.17    7.30
   3  -5  10  110.60    7.03
  -3   5 -10  105.38    6.89
   3  -5  10  110.57    6.96
   3  -5  10  101.01    7.47
   6  -6   7    6.31    1.67
   6  -6   7    7.43    1.51
   6  -6   7    6.96    1.29
   6  -6   7    5.67    1.70
  -6   6  -7    4.94    1.49
  -6   6  -7    7.08    1.63
  -2   5 -10   60.87    4.25
  -2   5 -10   54.21    4.59
   2  -5  10   54.10    4.35
   2  -5  10   54.00    3.77
   2  -5  10   51.96    4.08
   5  10   7   86.24    5.70
   5  10   7   99.15    7.35
   5  10   7   90.97    6.36
   4 -10   1   34.80    2.88
  -4  10  -1   44.89    3.43
   4 -10   1   35.44    2.80
   4 -10   1   38.08    3.43
   4  -7 -10   75.56    5.02
   4  -7 -10   52.82    3.93
   4  -7 -10   47.10    3.70
   4  -7 -10   74.04    4.32
   4  -7 -10   63.28    5.22
   4  -7 -10   47.15    3.36
   7  -1  -5   51.05    3.86
   7  -1  -5   48.19    3.93
  -7   1   5   48.67    3.39
   3  -9 -10   24.19    2.33
   3  -9 -10   35.85    2.80
   3  -9 -10   31.66    2.33
   3  -9 -10   36.31    3.89
   3  -9 -10   33.03    4.00
   3  -9 -10   31.50    2.12
   3  -9 -10   37.71    2.99
   5  -2  12    8.22    1.28
  -5   2 -12    5.69    1.61
   5  -2  12    8.41    1.31
   5  -2  12    8.86    1.92
   5  -2  12   13.26    2.16
   5  -2  12    7.55    1.62
  -5   2   9   22.94    3.19
  -5   2   9   19.85    3.14
  -5   2   9   23.65    2.12
   5  -2  -9   17.05    2.00
   4  10  11  184.72   11.46
   4  10  11  210.86   12.36
   4  10  11  218.55   13.31
  -4 -10 -11  175.56   10.66
  -4 -10 -11  181.11   11.95
  -4 -10 -11  184.00   12.46
   7  -7  -2   21.56    2.89
   7  -7  -2   17.14    2.06
   7  -7  -2   23.44    2.45
   7  -7  -2   18.79    2.26
  -7   7   2   18.40    2.13
  -7   7   2   16.20    2.16
   4   5  -6    2.56    1.07
   4   5  -6   -0.42    1.19
  -4  -5   6    0.78    1.33
   5  -9  -6    4.72    1.39
   5  -9  -6    5.52    1.91
   5  -9  -6    5.18    1.12
   5  -9  -6    4.20    2.17
   5  -9  -6    4.91    1.14
   5  -9  -6    7.42    2.01
   5   7  -2   14.49    1.66
   5   7  -2   14.59    2.45
   5   7  -2   13.18    1.76
  -6   1 -12   -0.11    1.16
   6  -1  12    0.19    0.96
  -6   1 -12    0.35    1.29
   6  -1  12    0.31    1.09
   6  -1  12    0.81    1.59
   6  -1  12    0.22    1.63
   6  -1  12    0.24    0.97
   6   9   7  177.27   11.27
   6   9   7  201.15   12.66
  -6  -9  -7  195.95   13.14
   5  10   8  128.77    8.18
   5  10   8  138.97    9.77
   5  10   8  136.55    8.87
   3 -11  -6    0.30    0.65
   3 -11  -6    0.49    0.82
   3 -11  -6   -0.05    0.71
   3 -11  -6    1.56    1.56
   3 -11  -6   -0.60    0.79
   3 -11  -6   -1.71    1.69
   3 -11  -6   -1.88    2.63
   4   1  14    1.98    2.28
   4   1  14    6.66    1.83
   4   1  14    9.05    1.08
   6  -8   3   27.93    2.57
   6  -8   3   37.29    3.37
  -6   8  -3   35.87    2.79
  -6   8  -3   38.68    3.26
   6  -8   3   34.07    2.76
   2   8  14    6.88    1.12
  -2  -8 -14    7.64    1.66
  -2  -8 -14    8.30    2.63
   2   8  14    8.77    2.00
   2   8  14   10.25    2.51
   8  -5   3   14.79    2.18
   8  -5   3   13.27    1.70
   8  -5   3   15.87    2.16
   8  -5   3   10.32    1.30
  -8   5  -3   18.21    2.01
  -8   5  -3   13.74    1.42
  -8   5  -3   16.13    2.08
   3  -4  11  158.92    9.43
  -3   4 -11  139.17    9.81
  -3   4 -11  151.87    9.42
   3  -4  11  140.14    9.65
   3  -4  11  144.81   10.02
  -6  -6 -13   52.15    4.13
  -6  -6 -13   41.78    4.17
  -6  -6 -13   50.81    3.53
  -6  -6 -13   47.13    4.05
  -6  -6 -13   51.10    4.11
   6   6  13   47.38    3.28
   6   1  13   73.92    5.49
   6   1  13   64.17    5.34
  -6  -1 -13   63.74    4.66
  -6  -1 -13   74.53    5.29
   6   1  13   61.67    4.30
   0   0  13    4.46    1.67
   0   0 -13    5.36    1.62
   0   0 -13    3.48    0.91
  -8   5   0    0.14    1.29
  -8   5   0    0.12    1.16
   8  -5   0    0.16    1.36
   8  -5   0    2.11    1.36
   8  -5   0    0.78    1.28
   0  -3 -14  105.48    6.57
   0  -3 -14  105.97    7.27
   0   3  14  118.86    8.90
   0   3  14  123.92    8.50
  -4  -4   7  123.71    8.30
   4   4  -7  121.20    7.68
   4   4  -7  112.88    7.48
  -4  -4   7  109.04    7.75
   6   9   8  207.52   12.69
   6   9   8  203.34   13.94
  -6  -9  -8  206.32   13.75
  -2   6  -9   67.82    4.79
   2  -6   9   63.06    4.35
   2  -6   9   64.89    4.93
   7  -6  -4   68.47    4.98
   7  -6  -4   68.30    5.49
  -7   6   4   77.01    5.52
   7  -6  -4   66.22    4.78
  -3 -10 -12   35.30    3.39
  -3 -10 -12   32.54    3.66
  -3 -10 -12   30.28    2.13
  -3 -10 -12   42.45    4.29
   3  10  12   34.75    3.21
   3  10  12   41.50    4.19
   5  10   6  125.52    8.58
   5  10   6  103.45    6.89
   5  10   6  113.50    7.58
  -5 -10  -6  106.87    6.80
  -7  -7 -10    3.28    1.74
  -7  -7 -10    4.52    1.27
  -7  -7 -10    2.79    1.34
   0  11   0    3.19    1.06
   0 -11   0    1.46    1.29
   0 -11   0    2.28    1.02
   0  11   0    3.10    0.69
   0 -11   0    3.25    2.14
   0  11   0    2.83    1.63
   2  -4  11   12.07    1.68
   2  -4  11   12.11    1.46
  -2   4 -11   11.60    1.54
   5   2  14   39.12    4.39
   5   2  14   43.87    3.00
  -5  -2 -14   36.81    3.55
  -5  -2 -14   42.45    3.72
  -5  -2 -14   42.46    3.08
   2  -8 -12    2.30    1.10
   2  -8 -12    2.63    1.06
   2  -8 -12    0.22    0.72
   2  -8 -12    0.96    0.83
   2  -8 -12    0.32    2.26
   7   5  12   52.40    4.67
  -7  -5 -12   41.58    3.95
  -7  -5 -12   43.09    3.80
  -7  -5 -12   45.51    3.58
  -7  -5 -12   46.42    3.36
   3  -6   9    3.26    1.10
  -3   6  -9    3.79    1.29
  -3   6  -9    5.34    1.66
   3  -6   9    4.16    1.45
  -3   6  -9    3.09    1.08
   3  -6   9    1.63    1.46
   3  -6   9    5.05    1.32
   7  -1  11   27.51    2.40
  -7   1 -11   26.75    2.58
  -7   1 -11   24.36    2.66
   7  -1  11   25.98    3.05
   7  -1  11   25.79    2.96
  -8  -5  -9   61.15    5.23
  -8  -5  -9   66.68    4.75
  -8  -5  -9   72.27    5.12
   8   5   9   71.57    4.73
  -5  -6 -14    3.85    1.69
   5   6  14    3.66    0.66
   5   6  14    3.95    1.86
  -5  -6 -14    1.68    1.35
  -5  -6 -14    4.54    1.83
  -5  -6 -14    2.42    0.95
  -8  -4 -10   27.41    2.23
  -8  -4 -10   24.45    2.43
  -8  -4 -10   27.76    3.04
  -8  -4 -10   26.81    2.79
  -6  -9  -6   80.43    5.45
   6   9   6   93.52    7.04
   6   9   6   80.45    5.59
  -6  -9  -6   86.01    6.49
   6   9   6   86.02    5.27
  -8   0   2   -0.42    1.41
  -8   0   2   -0.21    0.94
   8   0  -2    0.28    1.27
  -8   0   2    0.45    0.79
   0  12   6   -1.51    1.79
   0 -12  -6   -0.29    0.83
   0 -12  -6   -0.26    2.06
   0  12   6   -0.16    0.92
  -2 -10   1   33.07    3.10
   2  10  -1   30.13    2.58
   2  10  -1   34.45    3.28
   7   1  12    0.45    1.82
  -7  -1 -12   -0.22    1.34
   7   1  12    1.95    1.13
   7   1  12    0.19    1.61
  -7  -1 -12    0.18    1.37
   2 -11   0    0.38    1.17
  -2  11   0   -1.32    1.59
  -2  11   0    0.79    1.18
   2 -11   0    3.03    2.32
   2 -11   0   -0.66    1.50
  -2  11   0   -0.54    0.83
   2 -11   0    0.47    0.99
  -7   5  -7    5.02    1.38
   7  -5   7    7.60    1.52
  -7   5  -7    5.89    1.64
   7  -5   7    7.07    1.64
   7  -5   7    7.50    1.90
   3   8  14    0.75    0.96
  -3  -8 -14    0.19    1.46
  -3  -8 -14    0.95    1.81
   3   8  14   -0.44    1.63
  -3  -8 -14   -2.54    2.12
   3   8  14    2.10    2.30
   6   7   0   40.32    3.23
   6   7   0   40.25    3.24
   6   7   0   48.93    4.15
  -6  -7   0   43.96    3.36
  -3  -3   9   49.08    2.76
   3   3  -9   45.84    3.43
   3   3  -9   47.81    3.40
   3   3  -9   45.61    3.61
  -3  -3   9   51.46    3.75
   0  12   5    0.34    1.65
   0  12   5    0.17    0.97
   0 -12  -5   -0.53    2.13
   0 -12  -5   -0.13    0.82
   5  -8   5    2.89    1.23
   5  -8   5    2.78    1.08
  -5   8  -5    4.21    1.46
   5  -8   5    4.15    1.60
   2   9  -3   11.89    2.09
   2   9  -3   10.90    1.49
   4   6  -5  109.77    7.25
   4   6  -5  113.36    7.27
  -4  -6   5   98.80    6.91
  -4   9  -4    5.87    1.35
  -4   9  -4    3.80    1.36
   4  -9   4    8.50    1.76
   4  -9   4    4.15    1.26
   4  -9   4    4.86    1.15
  -4   9  -4    6.54    0.86
   3 -11  -1    6.44    1.96
  -3  11   1    5.74    1.10
   3 -11  -1    4.97    1.09
   3 -11  -1    7.40    2.55
  -3  11   1    5.73    1.42
   3 -11  -1    4.31    1.13
  -6  -8  -2   92.43    6.11
   6   8   2  110.01    6.92
   6   8   2  115.89    8.03
   6   8   2  100.02    6.93
   0   8  -6   69.85    5.07
   0  -8   6   69.24    5.20
   0   8  -6   69.33    4.50
   0  -8   6   70.75    5.30
  -6   6   7   35.89    3.78
   6  -6  -7   32.13    3.66
   6  -6  -7   35.88    2.68
   6  -6  -7   36.79    3.18
   6  -6  -7   33.70    2.99
  -3  -7   5   88.20    6.37
   3   7  -5   87.76    5.89
   3   7  -5   92.95    6.37
  -2  -7   6    4.31    1.65
   2   7  -6    4.20    1.60
   2   7  -6    3.11    1.18
   2   7  -6    3.13    1.12
  -7  -6  -1    2.16    1.27
   7   6   1    2.94    1.38
  -9   0  -4   96.13    3.55
  -9   0  -4  101.07    3.50
  -9   0  -4   95.90    3.25
   9   0   4   99.72    6.73
   5  -6  -9  114.57    7.18
   5  -6  -9  147.56    8.07
  -5   6   9  131.04    9.45
   5  -6  -9  127.54    8.66
   5  -6  -9  102.78    7.60
   5  -6  -9  107.00    7.53
   0 -10 -12   20.30    3.16
   0 -10 -12   21.25    3.47
   0 -10 -12   28.60    2.19
   0 -10 -12   20.60    2.43
   3  11  10   59.97    5.33
   3  11  10   48.60    3.20
  -3 -11 -10   56.78    5.12
  -3 -11 -10   43.57    4.22
   3  11  10   49.88    4.09
  -6  -4   4    6.73    1.72
   6   4  -4    7.17    1.56
   6   4  -4    7.02    1.42
  -6  -4   4    7.51    1.55
   6   4  -4    5.57    1.44
   1   1 -12    2.26    1.48
  -1  -1  12    0.34    1.52
   1   1 -12    1.42    1.01
  -1  -1  12    0.62    2.30
   4  10   2   66.78    5.06
  -4 -10  -2   66.10    4.29
   4  10   2   75.38    5.97
   4  10   2   63.92    4.40
   4  10   2   62.37    4.09
  -9   0  -5   22.90    2.22
  -9   0  -5   17.81    2.29
   9   0   5   21.27    2.20
  -9   0  -5   19.24    2.14
   1  10  -2   33.02    2.72
   1  10  -2   34.64    3.26
  -1 -10   2   29.44    2.61
  -1 -10   2   32.54    3.00
   1  12   6   15.76    2.30
   1  12   6   17.06    1.62
   5  10   9   67.76    4.54
  -5 -10  -9   74.63    6.04
   5  10   9   80.42    5.39
   6  -8  -5   75.57    5.86
   6  -8  -5   84.07    5.33
   6  -8  -5   63.53    6.27
   6  -8  -5   74.60    5.40
  -8   4  -6    3.80    1.23
   8  -4   6    3.68    1.59
   8  -4   6    3.12    1.39
   8  -4   6    6.40    1.31
  -8   4  -6    6.00    1.74
   8  -4   6    7.06    1.86
   3  -8 -11    9.87    2.25
   3  -8 -11   11.29    1.65
   3  -8 -11   11.83    2.67
   3  -8 -11    8.57    1.26
   3  -8 -11   12.61    1.26
   3  -8 -11   13.23    1.74
   3  -8 -11   11.55    1.04
   7  -5  -5    1.93    1.62
  -7   5   5   -2.30    1.81
   7  -5  -5   -0.14    1.45
   7  -5  -5    0.65    1.27
   7  -5  -5    1.21    0.94
  -1  -5   9   45.65    3.85
   1   5  -9   43.45    3.52
   1   5  -9   51.44    3.57
   1   5  -9   49.28    3.69
  -9  -1  -5    3.04    1.37
  -9  -1  -5    4.23    1.49
  -9  -1  -5   -0.04    0.24
  -9  -1  -5    4.56    1.42
   9   1   5    4.30    1.36
   0 -12  -7   32.78    2.12
   0  12   7   35.59    2.67
   0 -12  -7   27.12    2.93
   0  12   7   35.81    3.41
   3 -10  -9   -0.34    2.39
   3 -10  -9    3.61    1.23
   3 -10  -9    1.44    1.76
   3 -10  -9    4.41    1.69
   3 -10  -9    3.39    1.03
   3 -10  -9    4.24    0.83
   3 -10  -9    3.04    2.50
   3 -10  -9    3.92    0.68
   8  -4  -2   25.00    2.57
  -8   4   2   31.77    2.91
   8  -4  -2   25.31    2.49
  -6  -9  -9  143.20   11.48
  -6  -9  -9  186.30   10.58
   6   9   9  153.67    9.54
  -6  -9  -9  154.61   11.41
   4 -10  -7    9.27    1.35
   4 -10  -7   11.79    2.90
   4 -10  -7   11.62    1.16
   4 -10  -7   13.32    1.58
   4 -10  -7    8.92    0.93
   4 -10  -7    8.77    0.83
   4 -10  -7    7.12    1.95
   4 -10  -7   10.22    2.63
   4 -10  -7   12.46    2.05
  -1   1 -13   44.34    4.05
  -1   1 -13   49.75    3.45
   1  -1  13   46.25    3.25
   1  -1  13   43.67    4.73
   1  -1  13   42.25    3.87
  -1 -12  -7   15.68    2.23
   1  12   7   21.38    2.55
   1  12   7   18.87    1.74
   4  -8   6   15.13    2.10
   4  -8   6   11.19    1.78
  -4   8  -6   10.77    1.62
   7  -7   3    9.33    1.35
   7  -7   3   13.79    1.89
   7  -7   3    9.08    1.42
  -7   7  -3   12.68    1.65
   7  -7   3    8.82    1.33
   7  -7   3    9.53    1.98
  -7   7  -3   12.69    2.03
   7  -7   3   13.99    2.35
   8   0  10   36.48    3.60
   8   0  10   34.13    3.12
   8   0  10   42.36    3.30
  -8   0 -10   39.01    3.30
  -8   0 -10   39.02    3.46
  -1  -8 -14   77.02    6.63
  -1  -8 -14   79.79    5.79
   1   8  14   75.20    5.80
  -5  -8 -13    7.21    1.08
   5   8  13    6.66    1.58
  -5  -8 -13    9.23    2.06
  -5  -8 -13    5.51    2.19
   5   8  13    7.27    0.81
  -5  -8 -13    9.01    2.19
   5   8  13    8.93    2.49
   0  -2  12   90.63    6.99
   0  -2  12   83.97    6.29
   0   2 -12   96.41    6.66
   0   2 -12   87.95    5.90
   1   6  -8    7.71    1.48
   1   6  -8    6.73    1.33
   1   6  -8    4.42    1.21
  -1  -6   8    5.87    1.72
  -2  -3  10   -0.26    1.99
   2   3 -10    0.17    0.95
   2   3 -10    0.82    1.01
   2   3 -10   -0.74    1.32
  -2  -3  10    0.13    0.55
  -2  -3  10    1.61    1.38
   7   7   3   64.74    4.53
  -7  -7  -3   70.46    4.98
  -9  -1  -4   40.10    3.48
  -9  -1  -4   41.71    3.54
  -9  -1  -4   42.72    3.55
   9   1   4   43.84    3.53
   0  -9 -13   16.60    2.06
   0  -9 -13   16.99    3.06
   0  -9 -13   17.84    2.86
   3   9  -2    8.78    1.43
  -3  -9   2   11.87    1.90
   3   9  -2    8.84    2.05
   0   7  14   70.54    5.42
   0  -7 -14   64.50    4.77
   0  -7 -14   60.98    5.67
  -6  -5   3   18.94    2.26
   6   5  -3   21.35    2.46
   6   5  -3   19.31    2.13
  -6  -5   3   19.39    2.26
   4  -5  10   14.36    2.10
   4  -5  10   14.08    1.55
  -4   5 -10   12.66    2.10
  -4   5 -10   14.33    1.63
   4  -5  10   14.51    2.19
  -4   5 -10   12.33    1.78
   4  -5  10   12.68    1.78
   0 -12  -4    0.79    2.06
   0 -12  -4    0.69    0.85
   0  12   4   -0.17    1.61
   0  12   4   -0.26    0.99
   5  10   5   97.99    6.73
   5  10   5  116.16    7.50
  -5 -10  -5   98.37    6.33
   5  10   5  125.12    8.45
   1  12   5   22.60    2.73
   1  12   5   24.90    2.05
  -9   1  -4   37.80    3.57
  -9   1  -4   42.48    3.30
   9  -1   4   43.81    3.52
  -9   1  -4   50.92    3.71
  -1   8  13   39.65    3.48
   1  -8 -13   37.73    3.12
   1 -12  -5   50.39    3.43
  -1  12   5   48.44    4.32
  -1  12   5   50.94    3.65
   1 -12  -5   52.06    5.09
  -8  -3   0   41.18    2.72
  -8  -3   0   43.02    2.16
  -8  -3   0   44.67    2.43
   8   3   0   43.84    3.59
  -1 -11 -11   47.47    3.87
   1  11  11   49.49    4.01
  -1 -11 -11   48.54    4.86
  -1 -11 -11   40.66    2.78
  -1 -11 -11   45.38    4.32
  -1   5 -10    7.97    1.39
   1  -5  10    7.00    1.23
   1  -5  10    6.45    1.25
   1  -5  10    6.30    1.38
   8  -5   4    1.03    1.70
   8  -5   4    0.49    1.15
  -8   5  -4    0.57    1.43
   8  -5   4    0.39    0.89
  -8   5  -4    0.84    1.35
   8  -5   4    1.11    1.42
  -8   5  -4    1.24    0.92
  -3   4  12   43.49    3.49
   3  -4 -12   38.77    2.68
   3  -4 -12   33.53    2.82
  -3   4  12   37.67    4.54
   3  -4 -12   34.33    2.47
  -3   4  12   43.20    4.19
  -1  10  -3   24.25    2.75
   1 -10   3   18.46    1.82
  -1  10  -3   22.36    2.14
   1 -10   3   24.15    3.04
  -1  10  -3   20.64    1.83
   1 -10   3   14.60    2.15
  -3  -5 -15   26.15    2.49
  -3  -5 -15   24.98    2.75
   3   5  15   27.42    2.96
   3   5  15   21.04    2.86
   3   5  15   27.15    3.77
   5   1  -8   13.18    1.08
   5   1  -8   22.18    1.77
  -5  -1   8   18.66    2.95
   5   1  -8   20.40    2.08
  -5  -1   8   24.63    2.28
   2 -10   3   26.27    3.38
  -2  10  -3   20.90    2.59
   2 -10   3   21.98    2.05
  -2  10  -3   20.11    1.96
   2 -10   3   18.81    2.28
   2 -10   3   26.11    2.62
  -2  10  -3   20.33    2.14
  -3   5  12    3.80    1.33
   3  -5 -12    6.87    1.21
  -3   5  12    2.26    1.95
   3  -5 -12    3.33    1.14
   3  -5 -12    4.93    0.77
   3  -5 -12    6.96    1.17
   3  -5 -12    2.22    1.90
  -9   0  -3   10.97    1.34
   9   0   3   13.87    1.83
  -9   0  -3   14.31    1.95
  -9   0  -3   16.11    2.13
  -9   0  -3   13.38    1.77
  -1   1  13   60.23    5.88
   1  -1 -13   58.91    4.02
  -1   1  13   64.76    4.91
   1  -1 -13   64.25    4.76
  -9  -1  -6    6.57    1.70
  -9  -1  -6    8.28    1.69
  -9  -1  -6    4.90    1.47
   9   1   6    4.81    1.28
   3  -3  12   92.90    6.74
  -3   3 -12   99.07    6.77
   3  -3  12   85.50    6.87
  -3   3 -12   89.16    6.19
   3  -3  12   96.35    6.04
   3  -3  12   90.14    6.27
   6   3  -5   94.59    6.30
   6   3  -5  102.26    6.48
  -6  -3   5   88.02    6.65
   6   3  -5   87.81    6.41
  -6  -3   5   91.42    5.72
  -6  -3   5   96.03    6.33
  -4  -3   8  104.07    7.67
   4   3  -8  105.45    6.77
   4   3  -8  102.66    6.98
  -4  -3   8   99.31    6.97
  -8  -5  -3    1.61    1.59
   8   5   3    2.25    1.29
  -8  -5  -3    0.85    1.29
   4  -4  11   44.58    3.37
  -4   4 -11   42.87    3.16
  -4   4 -11   44.85    3.75
  -4   4 -11   39.53    3.33
   4  -4  11   45.30    3.79
   4  -4  11   50.08    4.07
   4  -4  11   46.90    3.49
   3   4  15    3.18    1.91
   3   4  15    4.56    2.84
  -3  -4 -15    6.36    1.78
   3   4  15    4.55    1.75
   3   4  15    4.67    0.70
  -3  -4 -15    2.84    1.46
   3   4  15    2.26    1.74
   8   2  -1   53.47    4.20
  -8  -2   1   51.19    3.75
  -8  -2   1   44.21    3.90
  -8  -2   1   55.83    4.06
   3  11   3   35.19    2.71
   2  -9   5   13.71    1.59
   2  -9   5   13.15    1.99
   2  -9   5   15.15    2.64
  -2   9  -5   10.76    0.93
  -2   9  -5   12.55    1.44
  -2   9  -5   11.18    1.61
   6   9   5   16.25    1.69
  -6  -9  -5   17.56    1.82
   6   9   5   16.24    1.36
   6   9   5   13.89    2.89
  -6  -9  -5   19.53    2.72
   8  -5  -1   16.48    1.97
   8  -5  -1   11.85    1.85
   8  -5  -1   13.22    2.07
  -8   5   1   14.33    1.89
  -8   5   1   12.78    2.05
  -1  -9   4   61.77    4.80
   1   9  -4   69.18    4.82
   1   9  -4   69.12    5.16
   1 -12  -6   54.42    4.28
  -1  12   6   54.99    3.82
   1 -12  -6   52.97    3.45
  -1  12   6   49.80    4.43
   1 -12  -6   45.11    3.89
  -1  -1 -14   21.95    1.85
   1   1  14   18.68    2.88
   1   1  14   18.55    3.38
   1   1  14   25.34    2.85
  -1  -1 -14   19.56    2.50
   3  10   0   63.98    4.40
   3  10   0   75.63    5.39
   3  10   0   69.06    4.63
   9  -1   3   26.75    2.56
  -9   1  -3   28.60    2.51
  -9   1  -3   29.32    2.94
  -9   1  -3   37.67    3.00
   2  11  11    6.33    1.76
  -2 -11 -11    6.84    2.09
  -2 -11 -11    4.05    2.42
  -2 -11 -11    5.69    1.85
  -1   6  -9   26.24    2.33
   1  -6   9   27.83    2.54
  -1   6  -9   23.91    2.35
   1  -6   9   25.16    2.28
  -9   0  -6    2.17    1.34
  -9   0  -6    3.05    1.35
  -9   0  -6    2.70    1.34
   9   0   6    2.15    1.15
   2  -7   8   65.84    5.01
   2  -7   8   64.69    4.47
  -2   7  -8   67.43    4.80
   5 -10  -2    0.88    1.35
   5 -10  -2    0.22    0.61
   5 -10  -2    0.18    1.79
   5 -10  -2    0.51    0.85
  -5  10   2   -0.50    1.03
   5 -10  -2    0.25    1.05
  -2  -5 -15    2.10    1.22
   2   5  15    0.34    2.40
   2   5  15    1.73    1.98
   2   5  15    0.86    1.59
   2   5  15    1.17    1.67
  -2  -5 -15    4.66    1.61
   7  -7  -3   19.80    2.40
   7  -7  -3   18.53    2.13
   7  -7  -3   15.66    2.76
  -7   7   3   20.22    2.25
   7  -7  -3   19.58    2.22
  -2   5  13    1.73    2.52
   2  -5 -13    0.45    0.89
   2  -5 -13    2.50    1.19
   2  -5 -13    1.76    0.62
   2  -5 -13    1.76    1.85
  -2   5  13    2.46    1.45
   2  -5 -13    1.69    0.55
   1 -11 -10   31.99    2.82
   1 -11 -10   37.37    2.41
   1 -11 -10   21.60    2.08
   1 -11 -10   33.12    3.59
   1 -11 -10   26.25    3.37
   1 -11 -10   32.13    2.77
  -4  -9 -13   58.26    5.37
  -4  -9 -13   62.78    5.06
  -4  -9 -13   56.50    3.83
   4   9  13   58.65    5.55
  -4  -9 -13   69.06    5.30
   4   9  13   67.25    4.79
  -9   1  -5   60.25    4.31
  -9   1  -5   54.24    4.29
   9  -1   5   55.87    4.12
  -9   1  -5   52.29    4.05
  -5   9  -3   20.31    2.19
   5  -9   3   15.05    1.82
   5  -9   3   17.70    1.86
   5  -9   3   19.80    2.42
  -5   9  -3   17.23    1.59
   1   4 -10   74.11    5.37
  -1  -4  10   80.43    5.83
  -1  -4  10   66.69    5.21
   1   4 -10   75.16    5.19
  -1  -4  10   66.97    4.61
   1   4 -10   81.70    5.17
   1 -12  -4   11.68    1.35
  -1  12   4   14.16    1.69
  -1  12   4   12.81    2.31
   1 -12  -4   18.71    3.20
   5 -10  -3    6.28    0.85
   5 -10  -3   10.85    2.06
   5 -10  -3    6.37    0.79
  -5  10   3    7.88    1.46
   5 -10  -3    8.09    1.22
   5 -10  -3    8.80    1.25
   5 -10  -3    7.28    1.63
   7   4  -2   51.31    3.98
  -7  -4   2   41.77    3.67
  -7  -4   2   55.04    3.90
  -7  -4   2   46.50    3.36
   2  -4 -13    1.02    1.11
  -2   4  13    0.69    2.31
   2  -4 -13    2.37    0.68
  -2   4  13    2.71    1.42
   4  11   7    2.37    2.50
  -4 -11  -7    1.66    1.65
   4  11   7    0.12    0.72
   4  11   7    2.26    1.63
   2  -3  12    2.70    1.00
  -2   3 -12    5.16    1.26
   2  -3  12    2.71    1.15
   2  -3  12    5.51    2.05
   5  -7   7   19.49    1.94
   5  -7   7   17.65    2.21
   5  -7   7   18.40    2.25
  -5   7  -7   16.33    2.03
   5  -7   7   14.33    2.34
   5   9  12   13.64    1.13
   5   9  12   12.01    2.82
  -5  -9 -12   13.05    1.32
   5   9  12   14.90    1.99
  -5  -9 -12   14.20    2.83
  -5  -9 -12   18.26    2.60
  -5  -9 -12    9.13    2.32
  -7  -3   3   62.93    4.40
   7   3  -3   53.17    4.12
  -7  -3   3   58.24    3.86
  -7  -3   3   49.94    4.27
  -7  -3   3   53.28    4.13
  -7   0   5    0.61    0.90
   7   0  -5    1.21    1.23
   7   0  -5    1.35    1.22
  -7   0   5    1.72    1.69
   2   4  15    0.22    1.62
   2   4  15    1.00    1.85
   2   4  15    0.29    1.42
   2   4  15    0.34    2.52
  -2  -4 -15    0.18    1.30
  -2  -4 -15    2.68    1.28
   3 -11  -7    5.57    2.66
   3 -11  -7    4.15    1.04
   3 -11  -7    4.47    1.79
   3 -11  -7    6.09    1.02
   3 -11  -7    5.63    0.87
   3 -11  -7    7.13    1.94
   3 -11  -7    3.66    1.01
   3   0 -11   24.22    2.06
  -3   0  11   29.25    3.82
   3   0 -11   24.00    2.43
  -3   0  11   30.67    2.85
   6  -9  -1    7.76    1.41
  -6   9   1    9.71    1.66
   6  -9  -1    4.60    1.48
  -6   9   1   12.46    1.50
   6  -9  -1   11.54    1.58
   6  -9  -1    7.06    0.81
  -3   7  -8    0.16    0.95
   3  -7   8    0.36    1.29
   3  -7   8    1.14    1.32
   3  -7   8   -0.18    0.98
  -3   7  -8   -1.08    1.32
  -6   0   7    9.98    2.35
   6   0  -7   12.43    1.82
  -6   0   7   10.34    1.43
   6   0  -7   11.15    1.73
   5  -1  -9   -0.38    1.26
  -5   1   9   -1.09    2.02
  -5   1   9    0.66    1.02
   5  -1  -9    0.08    1.01
   5  -1  -9    0.25    0.73
   1  -9   5    3.08    1.48
  -1   9  -5    1.73    1.56
  -1   9  -5    2.98    0.55
   1  -9   5    3.28    1.80
  -1   9  -5    6.88    1.29
  -1   9  -5    3.67    0.93
   1  -9   5    3.29    1.08
   9   2   5   82.26    5.70
  -9  -2  -5   78.52    5.64
  -9  -2  -5   87.42    5.82
  -9  -2  -5   75.24    5.61
  -9  -2  -5   72.50    5.47
  -1 -12  -8    5.03    1.61
   1  12   8    4.30    0.94
   1  12   8    3.91    1.73
  -4 -11  -8   26.45    3.19
   4  11   8   26.11    2.96
   4  11   8   25.36    2.00
   4  11   8   28.66    3.89
   1  -4  11   22.99    2.14
  -1   4 -11   21.54    2.05
   1  -4  11   21.25    2.46
   1  -4  11   18.65    2.02
  -6   9   2   17.94    2.02
  -6   9   2   15.60    1.81
   6  -9  -2   16.03    2.32
   6  -9  -2    8.06    0.65
   6  -9  -2   12.24    1.70
   6  -9  -2   10.22    1.82
   6  -9  -2   14.46    1.76
  -8  -6  -7   80.32    5.56
  -8  -6  -7   77.41    6.16
   8   6   7   70.53    4.70
  -4   6  -9    1.27    1.13
  -4   6  -9    2.81    1.56
   4  -6   9    0.32    1.47
  -4   6  -9   -0.25    1.21
   4  -6   9    0.34    1.44
   4  -6   9    0.50    1.29
   4  -6   9    1.32    1.05
   5  -8  -8    3.82    1.41
   5  -8  -8    3.26    1.69
   5  -8  -8    2.46    2.18
   5  -8  -8    3.19    1.22
   5  -8  -8    2.11    1.11
  -5  10   1    3.51    1.15
   5 -10  -1    2.06    1.17
   5 -10  -1    5.49    1.16
   5 -10  -1    2.29    0.80
   5 -10  -1    5.79    1.00
   9   1   3   55.20    4.18
  -9  -1  -3   58.72    4.28
  -9  -1  -3   55.00    4.37
  -9  -1  -3   51.07    4.25
   9   2   6   36.15    3.00
  -9  -2  -6   38.05    3.38
  -9  -2  -6   33.41    3.16
  -9  -2  -6   36.51    3.28
  -8  -4  -1   42.31    2.37
   8   4   1   40.83    3.39
  -8  -4  -1   36.51    2.73
  -8  -4  -1   38.88    2.09
  -3  -6 -15   34.96    3.33
  -3  -6 -15   35.04    3.05
  -3  -6 -15   33.78    3.66
   3   6  15   37.70    3.65
   3   6  15   31.90    3.51
   0  -2 -14   41.91    2.99
   0   2  14   43.94    4.36
   0   2  14   44.81    3.98
   0  -2 -14   49.38    3.83
   4  11   6   26.87    3.86
   4  11   6   22.87    2.73
   4  11   6   20.03    1.79
  -4 -11  -6   20.94    1.78
   0  12   8   58.84    4.50
   0 -12  -8   46.50    3.05
   0  12   8   53.02    3.67
   0 -12  -8   43.29    3.77
   2 -11  -9    7.55    2.58
   2 -11  -9    9.71    1.95
   2 -11  -9   10.49    2.20
   2 -11  -9    7.59    0.78
   2 -11  -9    7.23    2.38
   2 -11  -9    7.20    1.28
   2 -11  -9    6.49    1.08
   2 -11  -9    7.91    1.24
  -8  -6  -6   44.68    3.62
  -8  -6  -6   49.69    3.81
  -8  -6  -6   52.99    4.46
   8   6   6   44.86    3.33
  -3   3  12    9.59    2.98
   3  -3 -12    7.42    1.02
   3  -3 -12    6.55    1.40
  -3   3  12   12.76    2.55
   3  -3 -12    8.81    1.14
  -3   3  12    4.49    1.43
   4   7  -4   34.14    3.05
   4   7  -4   26.88    2.36
  -4  -7   4   32.37    3.19
   3  -6 -12    1.36    0.52
   3  -6 -12    2.20    0.94
   3  -6 -12    2.44    1.90
  -3   6  12    0.75    1.17
  -3   6  12    0.28    1.92
   3  -6 -12    0.66    0.96
   3  -6 -12    0.93    1.02
  -2  -6 -15    1.47    1.13
  -2  -6 -15    1.52    1.80
   2   6  15   -0.43    1.72
   2   6  15    1.53    1.79
  -2  -6 -15    1.23    1.29
   7   8   7    0.05    0.70
  -7  -8  -7    0.16    1.38
  -7  -8  -7   -0.25    1.72
   1   7  -7    1.19    1.09
   1   7  -7    0.75    1.37
   1   7  -7    1.52    0.97
  -1  -7   7   -0.18    1.36
   1  12   4   52.74    4.29
   1  12   4   48.24    3.51
   5  -1  13   30.26    2.35
   5  -1  13   31.59    3.53
   5  -1  13   27.73    2.80
   5  -1  13   28.28    2.25
   5  -1  13   31.67    3.34
  -5   1 -13   31.67    3.10
   2  -6 -13   36.90    2.80
   2  -6 -13   39.69    3.92
   2  -6 -13   21.84    2.38
   2  -6 -13   32.04    2.09
  -2   6  13   37.07    3.23
   2  -6 -13   38.45    2.45
   1 -12  -7   36.64    3.28
   1 -12  -7   40.22    3.59
   1 -12  -7   36.61    2.61
   1 -12  -7   47.84    4.71
   1 -12  -7   44.29    2.75
  -1  12   7   47.29    4.15
  -5 -10 -10    4.17    0.71
  -5 -10 -10    4.07    2.30
  -5 -10 -10    3.20    1.91
   5  10  10    4.45    0.81
   5  10  10    4.06    1.63
  -4  -8 -14   89.98    6.62
   4   8  14   88.99    6.21
  -4  -8 -14   87.47    5.58
  -4  -8 -14   90.78    6.80
  -4  -8 -14   82.99    6.87
   4   8  14   95.73    7.07
   4   8  14  102.66    7.36
   4  -4 -11    1.02    1.18
   4  -4 -11   -0.64    1.09
  -4   4  11    0.32    2.45
  -4   4  11   -0.28    2.00
  -4   4  11    0.46    1.11
   4  -4 -11    0.37    0.76
  -3  -3 -15  101.87    7.00
   3   3  15   93.05    7.03
  -3  -3 -15   94.10    6.61
   3   3  15   91.14    5.82
   3   3  15   98.64    7.18
   3   3  15   99.94    6.59
   3   3  15   88.62    7.58
  -9  -1  -7    0.17    1.52
   9   1   7    0.98    1.16
  -9  -1  -7    0.16    1.32
  -9  -1  -7    0.26    1.42
   6  -9   0    0.10    1.18
  -6   9   0   -0.12    1.26
  -6   9   0    0.26    0.92
   6  -9   0    0.08    1.05
   6  -9   0    0.79    1.27
   6  -9   0   -0.25    0.65
   3   0  14   20.89    2.79
  -3   0 -14   23.37    2.72
  -3   0 -14   21.78    2.03
   3   0  14   21.46    1.79
   3   0  14   20.19    2.73
   3   0  14   22.86    3.37
  -8   2   3   74.60    3.64
  -8   2   3   78.63    3.45
  -9   1  -2    9.44    1.66
   9  -1   2   11.25    1.78
  -9   1  -2    9.14    1.82
  -9   1  -2   10.37    1.33
  -9   1  -2    7.23    1.29
   6  -4  10   27.72    3.08
   6  -4  10   29.94    2.53
  -6   4 -10   26.07    2.55
  -6   4 -10   26.11    2.72
   6  -4  10   32.71    2.82
   6  -4  10   26.73    2.87
  -8  -5 -10   52.60    3.83
  -8  -5 -10   52.12    3.82
  -8  -5 -10   50.49    4.42
  -8  -5 -10   44.21    4.03
   1  11   0   13.05    1.52
   1  11   0    9.76    2.08
  -1 -11   0   12.00    1.93
   1  11   0   13.11    1.12
   4  -3  12  130.92    8.78
  -4   3 -12  134.58    8.97
   4  -3  12  126.52    9.13
   4  -3  12  139.93    8.45
   4  -3  12  138.03    9.37
  -4   3 -12  124.38    8.47
  -4   3 -12  135.00    8.36
   4  -3  12  130.09    8.43
   4  -9  -9   -0.54    0.99
   4  -9  -9    0.34    2.25
   4  -9  -9    0.50    1.20
   4  -9  -9    0.28    2.40
   4  -9  -9    0.15    1.59
   4  -9  -9    1.75    0.77
   3  -9   5   20.50    2.55
   3  -9   5   23.40    2.05
   3  -9   5   23.22    2.43
  -3   9  -5   25.94    2.19
  -3   9  -5   19.71    2.34
  -9  -2  -4   56.83    4.67
  -9  -2  -4   68.60    4.94
  -9  -2  -4   63.19    4.70
   9   2   4   64.83    4.69
  -9  -2  -4   64.98    4.87
   4   4  15    7.94    0.90
  -4  -4 -15    6.01    1.69
   4   4  15    6.86    2.05
  -4  -4 -15   10.08    1.97
   4   4  15    8.04    2.65
   5 -10  -4    1.47    0.40
   5 -10  -4    1.26    1.72
   5 -10  -4    1.64    0.92
   5 -10  -4    1.09    1.07
   5 -10  -4   -0.36    1.53
   5 -10  -4    1.46    0.48
  -8  -1   2    6.63    1.19
  -8  -1   2    4.47    1.34
   8   1  -2    3.63    1.48
  -8  -1   2    4.77    1.55
  -7  -8  -8   19.49    2.40
  -7  -8  -8   18.34    2.73
  -7  -8  -8   19.38    1.98
  -8  -6  -8   56.30    4.90
  -8  -6  -8   58.70    4.27
   8   6   8   49.58    3.47
   4 -10   2   11.81    1.52
  -4  10  -2   18.84    1.68
  -4  10  -2   14.42    1.75
   4 -10   2   16.97    2.33
   4 -10   2   13.79    1.72
   2  11   1    6.73    1.86
   2  11   1    0.25    0.18
   2  11   1    9.58    0.66
   2  11   1    9.78    1.26
  -4  -5 -15   62.64    4.62
   4   5  15   46.53    3.30
   4   5  15   49.15    4.04
   4   5  15   53.03    1.21
  -4  -5 -15   57.85    4.84
  -6  -9 -10   50.84    4.89
   6   9  10   54.08    3.66
  -6  -9 -10   61.08    3.99
   6  -7   6    5.50    1.76
   6  -7   6    6.36    1.48
   6  -7   6    9.29    1.88
  -6   7  -6    5.50    1.55
   6   6  -2   14.59    2.38
   6   6  -2   13.33    1.85
  -6  -6   2   10.63    1.67
  -8  -3 -11   39.85    3.20
   8   3  11   41.79    4.03
   8   3  11   41.27    3.36
  -8  -3 -11   34.82    3.49
   0 -11 -11   74.66    6.10
   0 -11 -11   94.78    5.63
   0 -11 -11   78.73    7.21
   0  11  11   76.81    5.58
  -5  -1 -14   31.49    2.56
   5   1  14   26.18    3.62
   5   1  14   30.96    2.35
   5   1  14   29.33    2.98
  -5  -1 -14   28.79    2.98
   5   1  14   37.29    3.56
   5   1  14   30.79    2.19
  -9   0  -2   20.10    2.00
  -9   0  -2   20.60    2.38
  -9   0  -2   17.03    2.02
   9   0   2   17.97    2.12
  -4   0  10   33.18    3.94
   4   0 -10   28.20    2.79
   4   0 -10   35.88    2.60
  -4   0  10   34.53    2.95
  -7  -6 -12   62.22    4.59
  -7  -6 -12   51.28    4.58
  -7  -6 -12   59.30    4.16
  -7  -6 -12   63.11    5.06
   8   2  11   90.07    5.73
  -8  -2 -11   84.20    6.00
   8   2  11   68.55    6.16
  -8  -2 -11   91.49    6.44
  -4   5  11   77.26    5.37
   4  -5 -11   81.56    5.90
   4  -5 -11   57.34    4.72
   4  -5 -11   71.10    4.62
   4  -5 -11   84.15    5.03
  -4   5  11   81.84    6.57
   4  -5 -11   56.96    4.72
   4  -5 -11   73.44    4.56
   4  -5 -11   79.06    5.22
  -9   2  -3   15.08    2.05
   9  -2   3   12.29    1.81
  -9   2  -3   12.70    1.42
  -7  -5   1   19.69    2.14
  -7  -5   1   26.49    2.42
   7   5  -1   26.75    2.63
   5   5  -5   55.33    3.97
   5   5  -5   56.27    3.92
   5   5  -5   61.77    4.14
  -5  -5   5   46.64    4.07
   5   5  -5   41.87    3.92
  -5  -5   5   49.63    3.94
   0  12   3   23.74    2.16
   0 -12  -3   23.22    3.26
   0 -12  -3   22.80    1.98
  -7  -7 -11   55.69    4.23
  -7  -7 -11   47.08    4.60
  -7  -7 -11   52.75    4.39
  -7  -7 -11   56.33    3.91
   9  -1   6   28.86    2.51
  -9   1  -6   31.02    2.73
  -9   1  -6   28.95    2.83
  -9   1  -6   27.55    2.59
   2   0 -12  104.99    6.57
   2   0 -12   93.50    7.10
  -2   0  12  120.09    9.07
  -2   0  12  114.63    7.97
   2   0 -12  113.24    7.49
   2   0 -12  121.52    6.91
   9  -2   4   36.89    3.18
  -9   2  -4   39.16    3.26
  -9   2  -4   33.19    2.74
   5   7  14   59.96    4.22
  -5  -7 -14   62.01    4.86
  -5  -7 -14   53.36    3.83
   5   7  14   59.54    3.73
  -5  -7 -14   63.65    4.85
   5   7  14   57.11    5.04
  -5  -7 -14   54.42    4.83
  -6  -8 -12   70.87    5.59
  -6  -8 -12   70.44    4.73
  -6  -8 -12   71.22    5.64
  -7   0 -12    9.01    1.55
   7   0  12    6.54    2.08
   7   0  12    5.86    1.96
  -7   0 -12    6.44    1.76
   7   0  12    9.30    1.45
   8  -2   9   10.46    1.74
   8  -2   9   14.01    1.91
  -8   2  -9   10.91    1.83
   8  -2   9   11.34    1.97
   2  12   7   11.41    1.31
   2  12   7   15.59    2.18
  -2 -12  -7   15.73    2.35
   1  -7   8   75.38    5.30
   1  -7   8   77.54    5.85
  -1   7  -8   81.86    5.89
  -1   7  -8   81.62    5.79
  -1   7  -8   92.55    5.69
   1  -7   8   87.75    5.76
   5   4  -6    0.86    1.08
   5   4  -6    1.01    1.20
   5   4  -6    2.60    1.55
  -5  -4   6    2.32    1.35
  -5  -4   6    2.85    1.82
   5   4  -6    2.05    1.11
  -8   3   3    0.77    1.48
  -8   3   3    0.76    1.54
  -7  -8  -6   11.14    1.71
  -7  -8  -6   17.43    2.56
   7   8   6   13.61    1.38
  -7  -2   4   32.37    2.75
  -7  -2   4   34.86    3.23
   7   2  -4   29.95    2.78
  -7  -2   4   33.04    3.06
   1 -12  -3   18.59    3.09
   1 -12  -3   16.79    1.63
  -1  12   3   17.03    1.89
  -8   3  -8   51.32    4.08
   8  -3   8   51.10    4.40
  -8   3  -8   47.85    3.86
   8  -3   8   64.00    4.43
   8  -3   8   52.21    4.44
   3 -11   0    9.71    1.34
   3 -11   0   10.34    2.09
   3 -11   0    6.95    1.41
  -3  11   0    7.64    1.27
   3 -11   0   12.02    2.94
  -3  11   0    8.19    1.61
   2  -3 -13   13.78    1.86
   2  -3 -13   10.40    1.52
   2  -3 -13   12.94    1.23
  -2   3  13    9.94    1.81
  -2   3  13   11.45    2.95
   6  -9  -3   27.55    3.02
  -6   9   3   32.79    2.92
   6  -9  -3   36.40    2.76
   6  -9  -3   29.98    2.74
   6  -9  -3   29.80    3.36
   2  12   6   18.26    2.48
  -2 -12  -6    9.32    0.69
   2  12   6   20.97    1.80
   3   2 -10   85.88    5.63
   3   2 -10   79.82    5.86
   3   2 -10   88.24    5.62
  -3  -2  10   92.18    6.45
  -3  -2  10   88.07    7.25
   0 -10   3    8.41    1.42
   0 -10   3    7.76    1.76
   0 -10   3    7.11    2.15
   0  10  -3    7.54    1.39
   0  10  -3    8.83    1.06
   0  10  -3   10.33    2.07
  -6  -7 -13   69.34    5.33
   6   7  13   70.57    4.61
  -6  -7 -13   66.10    5.25
  -6  -7 -13   66.70    4.53
   7  -6   6   25.83    2.38
   7  -6   6   17.94    1.55
  -7   6  -6   30.20    2.79
   7  -6   6   28.31    2.92
  -7   6  -6   22.28    2.36
   6   0  13    8.47    2.28
   6   0  13    6.79    2.10
  -6   0 -13   10.77    1.53
  -6   0 -13   10.48    1.98
   6   0  13    7.59    1.26
   9   2   7    1.74    1.03
  -9  -2  -7    2.68    1.48
  -9  -2  -7    2.09    1.60
  -9  -2  -7    2.63    1.70
   6  -8   4   40.97    3.65
  -6   8  -4   42.19    3.78
   6  -8   4   37.29    3.08
   6  -8   4   39.01    3.09
  -6   8  -4   48.11    3.36
   6  -3  11   27.72    2.71
  -6   3 -11   22.87    2.42
   6  -3  11   24.88    2.23
  -6   3 -11   29.02    2.79
   6  -3  11   25.84    2.50
   6  -3  11   26.04    2.31
   6  -3  11   27.50    3.02
   6   2  -6   71.83    4.94
   6   2  -6   62.07    5.01
  -6  -2   6   62.72    5.38
  -6  -2   6   72.26    4.93
   6   2  -6   81.66    5.25
  -3  10  -3   12.45    1.55
   3 -10   3   12.32    2.20
  -3  10  -3    9.35    1.69
   3 -10   3   14.37    1.84
   3 -10   3   10.61    1.49
   4  11   9   42.12    3.61
   4  11   9   36.26    2.59
  -4 -11  -9   37.32    3.82
  -9   0  -7   -1.45    1.29
   9   0   7    0.59    1.05
  -9   0  -7   -0.14    1.40
   1 -11   1    7.51    1.62
   1 -11   1   10.86    1.40
   1 -11   1   12.31    2.65
  -1  11  -1   10.47    1.31
  -1  11  -1   13.12    2.14
  -1  11  -1   16.05    1.79
   2   3  15   48.70    5.02
   2   3  15   40.22    4.15
   2   3  15   43.32    4.05
  -2  -3 -15   44.06    3.85
   2   3  15   41.75    3.47
   5  -9  -7   34.31    4.16
   5  -9  -7   36.28    3.55
   5  -9  -7   38.55    2.92
   5  -9  -7   40.87    3.34
   5  -9  -7   39.35    3.02
  -8  -6  -5   11.11    2.19
   8   6   5   11.42    1.55
  -8  -6  -5   15.09    1.89
  -5 -10  -4   63.67    4.29
   5  10   4   61.74    4.07
   5  10   4   57.14    3.70
   5  10   4   75.28    5.76
   6   4  14    8.98    2.49
  -6  -4 -14   10.68    1.49
   6   4  14    8.85    1.12
   6   4  14   10.17    2.39
  -6  -4 -14    7.98    1.86
  -6  -4 -14   12.24    2.06
  -2  -8   5   -0.18    1.41
   2   8  -5    1.02    0.90
   2   8  -5    0.75    1.53
   5   8  -1   69.49    4.87
   5   8  -1   70.73    4.86
   5   8  -1   74.50    5.77
   6  -4  -8   62.02    4.49
  -6   4   8   63.82    4.03
   6  -4  -8   51.92    3.96
  -6   4   8    0.14    0.23
   6  -4  -8   44.69    3.93
  -4 -10 -12   67.99    4.39
  -4 -10 -12   67.52    5.63
   4  10  12   74.85    4.81
   4  10  12   86.53    6.04
   4  10  12   57.60    3.69
  -4 -10 -12   80.47    5.91
  -4 -10 -12   71.33    6.21
  -6   5  -9   37.75    3.40
   6  -5   9   44.04    3.14
  -6   5  -9   40.81    3.30
   6  -5   9   41.72    3.43
   6  -5   9   31.89    3.39
   6  -5   9   37.74    3.56
   4  -8 -10   40.23    3.35
   4  -8 -10   56.88    3.26
   4  -8 -10   51.29    4.90
   4  -8 -10   55.37    4.58
   4  -8 -10   38.46    2.91
   4  -8 -10   50.40    3.68
   4  -8 -10   62.41    3.98
   5   9   1   10.65    2.64
  -5  -9  -1    9.47    1.29
   5   9   1   12.11    1.49
   5   9   1   10.21    1.38
  -8   1   3   12.36    2.15
  -8   1   3   10.85    1.19
   8  -1  -3   10.80    1.86
  -8   1   3   12.66    1.43
   2   0  14   55.26    5.18
  -2   0 -14   46.90    3.41
   2   0  14   45.10    3.34
   2   0  14   47.95    4.24
   2   0  14   54.93    4.58
  -6   3   8   48.89    4.46
   6  -3  -8   33.10    2.92
  -6   3   8   44.00    3.12
  -4   3  11    0.93    2.43
  -4   3  11    1.69    1.12
  -4   3  11    2.76    2.17
   4  -3 -11    1.31    0.80
   3   8  -4   11.47    2.09
  -3  -8   4   13.97    2.17
   3   8  -4   10.36    1.51
  -5  10   0   13.49    1.82
   5 -10   0   13.08    2.17
   5 -10   0   14.46    1.69
  -5  10   0   17.13    1.53
   5 -10   0   14.01    1.49
  -6  -9  -4    0.37    1.02
   6   9   4    0.22    0.71
   6   9   4    3.62    2.48
   6   9   4    2.44    1.06
   8  -5   5   30.93    3.15
  -8   5  -5   43.27    3.29
   8  -5   5   37.75    2.80
  -8   5  -5   36.16    3.00
   8  -5   5   30.17    2.78
  -8   5  -5   37.45    3.45
   4  11   5   47.48    3.44
   4  11   5   45.84    4.19
  -4 -11  -5   53.03    3.53
   4  11   5   63.96    5.56
  -9   2  -2    0.55    1.42
  -9   2  -2    2.73    0.82
   9  -2   2    1.73    1.30
  -2 -10 -13    7.70    1.95
  -2 -10 -13   11.29    2.74
  -2 -10 -13    5.84    2.45
   2  10  13    8.10    2.61
   2  10  13   11.83    1.77
  -2 -12  -8   36.62    3.46
   2  12   8   36.51    2.65
   2  12   8   40.46    3.50
   5  -7  -9   55.10    3.95
   5  -7  -9   34.58    3.27
   5  -7  -9   54.13    4.74
   5  -7  -9   42.29    3.49
  -3 -11 -11   35.25    3.47
  -3 -11 -11   26.25    3.40
   3  11  11   40.32    4.36
  -3 -11 -11   34.25    4.19
   3  11  11   33.64    3.13
   3  11  11   31.76    2.12
   6   3  14   60.23    5.06
  -6  -3 -14   50.49    4.43
  -6  -3 -14   55.58    4.57
  -6  -3 -14   56.81    3.96
   6   3  14   59.28    5.07
   6   3  14   53.93    3.75
  -7   7  -4   15.34    2.25
  -7   7  -4   18.51    2.00
   7  -7   4   13.42    2.28
   7  -7   4   14.32    1.73
   7  -7   4   14.28    2.37
   7  -7   4   17.33    2.06
   7  -7   4   14.01    1.51
   4 -11  -3    4.10    0.93
   4 -11  -3    6.51    0.92
   4 -11  -3    2.79    1.25
   4 -11  -3    3.46    1.96
  -4  11   3    2.79    1.15
   4 -11  -3    5.50    1.06
   4   0  14    4.13    1.73
   4   0  14    2.03    0.88
   4   0  14    4.25    2.43
   9  -2   5   45.90    3.58
  -9   2  -5   51.32    3.96
  -9   2  -5   47.45    3.62
   4   9  -1    4.43    1.19
   4   9  -1    5.15    1.21
   4   9  -1    6.25    1.83
   1   3 -11   14.99    1.85
   1   3 -11   10.20    1.46
  -1  -3  11   11.74    1.99
  -1  -3  11   12.53    1.29
   1   3 -11   13.26    1.37
  -1  -3  11   11.61    2.52
  -7   3 -10   20.97    2.39
   7  -3  10   20.49    2.06
   7  -3  10   20.58    2.42
   7  -3  10   18.22    2.56
  -7   3 -10   22.31    2.35
   7  -3  10   22.12    2.52
  -7  -8  -9   18.78    2.88
  -7  -8  -9   19.06    2.32
  -7  -8  -9   20.07    1.98
  -4  -3 -15   37.14    3.35
   4   3  15   41.82    3.83
  -4  -3 -15   39.29    3.56
   4   3  15   39.34    2.71
   4   3  15   39.38    3.96
   4   3  15   37.92    4.52
   1  -5 -14   33.35    3.56
  -1   5  14   28.42    3.58
  -1   5  14   35.68    4.37
  -1   5  14   27.90    2.97
   1  -5 -14   29.95    2.88
   1  -5 -14   30.62    2.08
   1  -5 -14   32.95    2.30
   1   5  15   38.86    3.73
  -1  -5 -15   30.68    3.13
   1   5  15   33.81    4.49
  -1  -5 -15   36.46    2.78
   1   5  15   42.22    4.12
  -7   3   6   26.67    1.79
   7  -3  -6   44.90    3.78
  -7   3   6   39.76    3.63
   7  -3  -6   48.65    3.70
  -8  -4 -11   14.25    2.34
  -8  -4 -11   13.52    1.82
   8  -5  -2   49.24    3.96
  -8   5   2   64.29    4.77
   8  -5  -2   62.95    4.46
   8  -5  -2   49.51    4.10
   2 -11   1    4.59    1.43
  -2  11  -1    5.19    1.05
   2 -11   1    5.86    1.13
  -2  11  -1    4.69    1.76
  -2  11  -1    3.86    1.40
   2 -11   1    8.16    2.65
   2 -11   1    4.43    1.70
  -4  -6 -15   24.37    3.11
  -4  -6 -15   26.24    2.99
  -4  -6 -15   28.66    2.83
   4   6  15   23.60    3.00
   4   6  15   24.31    1.91
   4   6  15   31.46    3.29
  -4  -6 -15   31.57    2.30
  -5  -6   4    8.88    1.88
   5   6  -4   14.84    1.84
   5   6  -4   10.41    1.98
   7  -6  -5   14.37    1.72
   7  -6  -5   14.90    2.06
   7  -6  -5   12.24    2.43
   4 -11  -4    5.22    0.94
   4 -11  -4    5.87    1.05
   4 -11  -4    3.93    0.92
   4 -11  -4    4.38    0.87
   4 -11  -4    2.82    1.50
  -1 -12  -9    0.73    1.49
   1  12   9    5.15    0.89
   1  12   9    5.87    1.77
   7  -4   9   13.25    2.16
   7  -4   9   16.91    2.32
   7  -4   9   16.30    2.36
  -7   4  -9   17.79    2.18
   7  -4   9   20.06    2.02
  -7   4  -9   18.55    2.24
   4   2  -9   48.87    3.85
   4   2  -9   48.62    3.53
  -4  -2   9   49.44    3.96
  -4  -2   9   51.32    4.92
   2  12   5  114.09    7.13
   2  12   5  107.20    7.78
   7   3  13   -0.41    1.92
  -7  -3 -13   -0.19    1.62
  -7  -3 -13    0.42    1.29
  -7  -3 -13   -0.20    1.43
   7   3  13    1.67    1.92
   7   3  13    0.42    0.94
   8   1  11   35.10    3.69
  -8  -1 -11   38.23    3.24
  -8  -1 -11   38.28    3.49
   8   1  11   33.39    3.20
   8   1  11   38.15    3.07
   2 -12  -5   23.95    3.03
   2 -12  -5   27.75    2.10
  -3   2 -13    1.21    1.13
   3  -2  13    3.32    2.21
   3  -2  13    2.86    1.06
   8  -1  10   -0.14    1.43
   8  -1  10   -0.12    1.41
  -8   1 -10   -1.12    1.40
  -8   1 -10    0.41    1.40
   8  -1  10   -0.40    1.70
   6  -9   1    1.56    1.02
   6  -9   1    1.16    1.11
  -6   9  -1   -0.25    1.30
  -6   9  -1    1.18    0.90
   6  -9   1   -0.18    1.59
   6  -9   1    0.08    0.74
   6  -9   1    0.60    1.13
  -6  -5 -14   50.78    4.33
   6   5  14   51.59    3.47
  -6  -5 -14   51.68    4.25
  -6  -5 -14   50.53    3.67
   9   1   2    7.88    1.55
  -9  -1  -2    9.22    1.66
  -9  -1  -2   10.78    2.02
   2   2 -11   27.16    2.26
  -2  -2  11   26.64    2.73
  -2  -2  11   26.28    3.59
   2   2 -11   25.95    2.63
   2   2 -11   26.29    2.12
   1  -3  12   27.85    3.09
   1  -3  12   31.39    2.58
   1  -3  12   33.53    2.65
  -1   3 -12   31.71    2.60
  -1   3 -12   31.84    3.21
  -7  -4 -13   16.31    2.35
   7   4  13   18.04    2.75
  -7  -4 -13   15.45    1.79
  -7  -4 -13   18.39    2.40
   7   4  13   19.03    1.83
  -8  -6  -9   70.59    4.98
  -8  -6  -9   70.15    5.66
   2 -12  -4   32.71    4.05
  -2  12   4   27.81    2.50
   2 -12  -4   33.16    3.29
   2 -12  -4   28.92    2.33
   9   3   6    9.20    1.58
  -9  -3  -6   12.65    1.94
  -9  -3  -6   13.17    2.21
  -9  -3  -6   13.99    1.94
  -9  -3  -6   17.54    2.16
   6  -7  -7   43.77    4.71
   6  -7  -7   52.15    4.09
   6  -7  -7   53.67    3.91
   6  -7  -7   53.23    4.43
  -9  -2  -3   24.75    2.55
   9   2   3   26.52    2.59
  -9  -2  -3   26.33    2.76
  -9  -2  -3   21.93    2.48
  -9  -2  -3   25.46    2.69
  -8   6  -1    3.75    1.42
   8  -6   1    4.59    1.72
   8  -6   1    3.42    1.73
   8  -6   1    2.27    1.33
  -8   6  -1    3.67    1.51
  -1   4  14   44.19    4.49
  -1   4  14   42.56    3.79
  -1   4  14   45.46    5.12
   1  -4 -14   40.28    3.37
   1  -4 -14   38.76    2.64
   4  -6 -11   36.81    3.31
   4  -6 -11   62.05    4.15
  -4   6  11   49.20    3.69
   4  -6 -11   39.58    3.23
   4  -6 -11   61.23    3.72
   4  -6 -11   41.78    3.03
  -4   6  11   56.76    4.97
   4  -6 -11   42.26    4.34
   2   9  14   34.37    2.79
  -2  -9 -14   41.87    3.63
  -2  -9 -14   31.43    4.13
  -2  -9 -14   36.64    4.03
   2   9  14   35.21    3.94
   0  -8 -14   19.55    3.21
   0   8  14   21.36    2.62
   0  -8 -14   19.54    2.28
  -1  -4 -15   42.24    3.19
  -1  -4 -15   43.97    3.67
   1   4  15   42.60    4.89
  -1  -4 -15   41.50    2.84
   1   4  15   41.38    4.30
   1   4  15   44.63    4.00
   2 -10 -11   40.84    3.08
   2 -10 -11   54.29    3.38
   2 -10 -11   46.59    3.51
   2 -10 -11   30.07    2.79
   2 -10 -11   43.42    4.22
   2 -10 -11   46.68    4.91
   2 -10 -11   42.37    4.35
   4  -7   8   24.98    2.16
   4  -7   8   20.14    2.49
   4  -7   8   21.36    2.52
  -4   7  -8   21.88    2.37
  -4   7  -8   23.04    2.14
  -4  11   2    8.90    1.42
   4 -11  -2   10.00    1.28
   4 -11  -2    6.99    1.14
  -5  -3   7   27.51    2.66
   5   3  -7   27.62    2.67
   5   3  -7   28.49    2.43
  -5  -3   7   29.39    3.31
   8  -4   7   85.04    6.59
  -8   4  -7   99.88    7.01
   8  -4   7   92.66    6.72
  -8   4  -7  100.64    6.79
   8  -4   7  108.49    6.73
  -1 -10 -13   53.88    4.96
   1  10  13   52.48    3.93
  -1 -10 -13   56.82    5.51
  -1 -10 -13   50.52    4.37
  -8  -5  -2   11.32    2.02
  -8  -5  -2   13.87    1.68
   8   5   2   14.80    1.97
   3   7  15   17.69    1.52
   3   7  15   23.19    2.93
  -3  -7 -15   22.78    2.69
  -3  -7 -15   20.04    3.01
   3   7  15   21.08    2.73
   7   8   5  116.77    7.37
  -7  -8  -5  109.36    8.19
  -7  -8  -5  113.43    7.40
   7  -4  -6   32.00    3.06
  -7   4   6   37.21    3.92
   7  -4  -6   32.01    2.80
  -2  -7 -15    2.47    2.00
   2   7  15    3.46    2.02
   2   7  15    6.28    1.96
  -2  -7 -15    5.09    1.59
   2  -8   7   -0.09    1.02
  -2   8  -7    0.36    0.91
   2  -8   7   -0.56    1.83
   2  -8   7   -0.16    1.28
   1 -12  -8   21.36    2.40
   1 -12  -8   25.59    2.89
   1 -12  -8   25.83    3.58
   1 -12  -8   24.61    1.77
   1 -12  -8   22.37    1.81
  -1  12   8   30.76    3.08
  -6   5   8   29.57    3.55
   6  -5  -8   31.63    3.27
   6  -5  -8   28.87    2.60
   6  -5  -8   26.11    2.73
  -9  -3  -5   22.62    2.51
  -9  -3  -5   22.52    2.70
  -9  -3  -5   25.79    2.62
  -9  -3  -5   23.28    2.47
   9   3   5   22.71    2.28
  -7  -7  -2   10.15    1.65
   7   7   2   13.71    1.78
   6  -8  -6   36.55    4.34
   6  -8  -6   45.76    3.85
   6  -8  -6   41.13    3.25
   6  -8  -6   37.63    3.01
   6  -8  -6   36.30    3.33
  -7   2   6   39.51    2.82
  -7   2   6   45.48    4.20
   0  -9   5   16.65    1.87
   0  -9   5   15.88    2.26
   0   9  -5   18.89    2.09
   0   9  -5   21.35    2.45
   0  -9   5   19.37    2.55
  -7   7   4   30.84    2.88
   7  -7  -4   25.40    2.63
   7  -7  -4   25.46    2.56
   7  -7  -4   27.40    3.45
   7  -7  -4   32.33    2.95
   0 -11   1    4.36    1.60
   0 -11   1    5.52    2.38
   0  11  -1    3.89    1.78
   0 -11   1    5.81    1.23
   0  11  -1    3.06    0.85
   0  11  -1    4.90    1.25
   1   6  15   65.62    6.11
  -1  -6 -15   63.31    4.96
  -1  -6 -15   66.14    4.56
   1   6  15   60.77    5.17
  -1  -6 -15   67.00    5.62
   8  -4  -3   51.99    4.14
  -8   4   3   57.53    4.72
   8  -4  -3   50.55    3.96
  -8   4   3   59.10    4.61
   5 -10  -5   13.95    1.53
   5 -10  -5   11.35    2.15
   5 -10  -5   15.10    1.71
   5 -10  -5   20.16    2.62
   3  -2 -12   24.04    2.35
   3  -2 -12   19.19    2.19
  -3   2  12   25.98    3.83
  -3   2  12   25.14    2.51
   3  -2 -12   22.52    1.86
   8  -6   2    5.74    1.79
   8  -6   2    2.95    0.66
  -8   6  -2    1.82    1.38
   8  -6   2    3.40    1.30
   8  -6   2    4.62    1.75
  -8   6  -2    2.39    1.39
   1  -6 -14    2.74    2.22
  -1   6  14    7.64    2.30
   1  -6 -14    6.04    1.43
  -1   6  14    7.19    1.72
   1  -6 -14    5.56    0.49
   1  -6 -14    7.36    1.07
   0 -12  -9   23.50    2.49
   0  12   9   28.64    3.10
   0 -12  -9   18.60    2.75
   0 -12  -9   20.22    1.65
   1  12   3   29.99    2.44
  -9   1  -1    4.69    1.59
   9  -1   1    1.99    1.29
  -9   1  -1    2.77    1.43
  -9   1  -1    2.76    0.96
  -9   1  -1    2.06    1.26
   2  -7 -13   14.36    1.45
  -2   7  13    9.77    1.72
   2  -7 -13    6.33    1.10
   2  -7 -13    9.85    0.71
   2  -7 -13   10.97    1.49
  -6   2   8   27.33    2.30
  -6   2   8   30.22    3.56
  -6   2   8   31.53    3.57
   1 -10 -12    1.42    1.07
   1 -10 -12    0.97    1.10
   1 -10 -12   -0.31    0.62
   6   8   1   57.51    4.55
   6   8   1   40.43    3.29
  -6  -8  -1   44.79    3.38
   6   8   1   42.35    3.34
   8  -6   0   -0.24    1.35
   8  -6   0    1.31    1.42
   8  -6   0    1.28    1.68
  -8   6   0    1.79    1.38
  -8   6   0    0.99    1.19
   8  -6   0    0.93    1.58
   2 -12  -6    2.97    0.86
   2 -12  -6    3.49    1.73
   2 -12  -6    2.62    1.09
   2  -9 -12    7.95    1.36
   2  -9 -12    5.83    1.36
   2  -9 -12    8.14    2.19
   2  -9 -12    3.53    0.98
   2  -9 -12    9.61    1.29
   2  -9 -12    8.60    2.65
   3  -7 -12    3.13    1.08
  -3   7  12    4.46    2.12
   3  -7 -12    4.33    1.69
   3  -7 -12    5.54    0.65
   3  -7 -12    4.15    1.18
  -3   7  12    5.12    1.33
   3  -7 -12    3.18    1.01
   3  -7 -12    5.96    1.06
   3  -7 -12    6.97    2.49
  -9  -1  -8    1.62    1.48
  -9  -1  -8    1.76    1.59
   9   1   8    1.78    1.05
  -9  -1  -8    0.91    1.56
   4 -10  -8    5.58    1.99
   4 -10  -8    7.71    2.59
   4 -10  -8    5.97    0.72
   4 -10  -8   11.02    3.01
   4 -10  -8    9.22    1.05
   4 -10  -8    6.96    1.22
   4 -10  -8    6.24    1.89
   4 -10  -8   10.65    1.62
   3  11   2   11.42    0.82
   3  11   2   22.77    1.68
   3  11   2   26.01    2.60
  -9  -3  -7   33.26    3.22
   9   3   7   38.12    3.02
  -9  -3  -7   44.79    3.71
  -9  -3  -7   37.16    3.40
   2  -2  13   12.52    2.65
   2  -2  13    9.75    1.40
  -2   2 -13   13.99    2.15
   2  -2  13   11.51    2.15
  -2   2 -13    8.40    1.41
   7  -2  11   26.42    3.15
   7  -2  11   26.18    2.42
   7  -2  11   25.68    2.83
  -7   2 -11   26.00    2.69
   4  10   1   18.54    2.50
   4  10   1   15.25    1.47
   4  10   1   14.98    1.73
   6  -2  12    7.77    1.48
  -6   2 -12    6.57    1.73
   6  -2  12    7.67    1.37
   6  -2  12    6.56    1.35
   6  -2  12    8.08    2.05
   6  -2  12    5.45    1.91
   6  -9  -4   29.03    2.81
   6  -9  -4   34.06    3.50
   6  -9  -4   37.72    2.82
   6  -9  -4   28.76    3.17
  -9  -2  -8   15.70    2.30
  -9  -2  -8   19.57    2.35
   9   2   8   21.23    2.04
  -9  -2  -8   17.43    2.19
  -5   4 -11    0.72    1.26
   5  -4  11   -0.51    1.15
   5  -4  11    1.88    1.56
   5  -4  11    0.09    1.02
   5  -4  11   -0.15    1.38
  -5   4 -11   -0.60    1.21
   5  -5  10    6.91    1.28
   5  -5  10    3.40    1.61
   5  -5  10    5.48    1.74
   5  -5  10    4.80    1.45
  -5   5 -10    4.69    1.27
  -5   5 -10    6.10    1.61
   3 -11  -8    8.74    1.01
   3 -11  -8    7.50    1.21
   3 -11  -8   10.65    2.16
   3 -11  -8   15.62    3.23
   3 -11  -8   15.44    1.53
   3 -11  -8    9.38    2.72
   3 -11  -8    9.50    1.98
   3 -11  -8    7.49    1.26
   3  10  13   14.55    1.95
   3  10  13   12.13    3.04
  -3 -10 -13   14.08    2.73
  -3 -10 -13   11.36    2.22
  -3 -10 -13   14.48    2.92
  -3 -10 -13   11.07    1.05
  -3  -9 -14   39.82    3.63
   3   9  14   32.52    2.76
  -3  -9 -14   35.43    2.48
  -3  -9 -14   32.26    3.80
   3   9  14   30.60    3.95
  -3  -9 -14   35.50    4.18
   7   2  13    8.45    2.26
  -7  -2 -13    6.87    1.83
  -7  -2 -13    4.75    1.48
   7   2  13    9.67    1.34
   7   2  13    7.15    2.17
  -7  -2 -13    6.26    1.83
   3   2  15   74.14    4.87
   3   2  15   78.16    6.66
   3   2  15   80.29    6.09
   3   2  15   77.34    6.12
   4 -11  -5   14.56    1.42
   4 -11  -5   11.53    1.36
   4 -11  -5   13.61    2.49
   4 -11  -5    7.47    1.99
   4 -11  -5   17.25    3.42
   4 -11  -5   15.01    1.50
   4 -11  -5   13.63    1.24
  -9   1  -7    2.00    1.43
   9  -1   7    2.58    1.23
  -9   1  -7    0.26    1.18
   9  -1   7    2.16    1.45
  -7   8   0   10.15    1.90
  -7   8   0   10.81    1.58
   7  -8   0    6.99    0.66
   7  -8   0    9.84    1.56
   7  -8   0   11.21    1.80
   0   5 -10   19.85    1.89
   0   5 -10   15.76    1.98
   0  -5  10   18.59    2.41
   0  -5  10   16.75    1.86
   0  -5  10   17.09    1.88
   0   5 -10   17.03    1.85
  -4 -11 -10   88.30    7.41
   4  11  10   96.68    6.14
  -4 -11 -10   90.85    6.90
   4  11  10  103.38    8.05
   4  11  10  106.59    7.11
   3  -8   7   22.37    2.42
   3  -8   7   18.16    2.38
  -3   8  -7   19.32    1.91
   0  -6   9   -0.10    1.12
   0  -6   9    1.82    1.61
   0   6  -9    1.60    1.16
   0   6  -9    0.71    1.17
   0   6  -9   -0.31    1.14
   8   6   4   -0.10    1.08
  -8  -6  -4    0.83    1.26
  -8  -6  -4   -0.88    1.60
  -8  -6  -4    0.04    0.21
   1   8  -6   -0.66    0.89
   1   8  -6    1.39    1.46
  -7   8   1   21.67    2.16
  -7   8   1   17.26    2.28
   7  -8  -1   19.98    2.87
   7  -8  -1   13.75    2.00
   7  -8  -1   22.85    2.35
   2 -12  -3   11.53    1.63
   2 -12  -3   12.48    2.93
  -2  12   3   12.12    1.75
   2 -12  -3   13.04    1.41
  -9   0  -1    7.10    1.42
  -9   0  -1    8.23    1.59
   9   0   1    5.81    1.56
   7   6   0    3.95    1.42
  -7  -6   0    2.73    1.25
   1 -12  -2   -0.83    2.18
   1 -12  -2    0.14    1.23
  -1  12   2    0.42    0.38
   1 -12  -2    1.05    0.93
  -1  12   2    0.63    1.18
   2  12   9   37.18    3.45
  -2 -12  -9   36.98    3.57
   2  12   9   37.36    2.62
   9  -2   1    3.00    1.39
  -9   2  -1    4.06    1.20
  -9   2  -1    4.53    0.81
  -9   2  -1    2.22    1.49
  -6  -2 -14   70.89    4.80
  -6  -2 -14   71.30    5.38
  -6  -2 -14   64.29    5.28
   6   2  14   63.15    5.47
   6   2  14   65.11    4.35
   6   2  14   66.70    5.63
   4  -2  13   52.62    3.46
  -4   2 -13   54.73    4.57
  -4   2 -13   56.25    4.11
   4  -2  13   56.40    4.53
   4  -2  13   44.37    4.53
  -4   2 -13   56.99    3.98
   4  -2  13   50.27    3.62
   0  -1  13    3.92    1.53
   0   1 -13    5.63    1.18
   0   1 -13    6.74    1.85
   0  -1  13   10.31    2.70
   6  -6   8   14.16    2.06
   6  -6   8   12.58    1.93
   6  -6   8   13.91    1.68
  -6   6  -8   10.44    1.85
   6  -6   8   11.19    2.12
  -6   6  -8    8.97    1.65
  -8   0   3   10.32    1.33
   8   0  -3   10.10    1.87
  -8   0   3   12.56    1.65
  -8   0   3   13.34    2.09
   5  10  11   11.85    2.78
   5  10  11   14.02    1.20
   5  10  11   16.01    2.15
  -5 -10 -11   14.41    1.32
  -5 -10 -11   14.50    2.50
  -5 -10 -11   18.94    3.09
  -7   5  -8   -0.14    1.43
   7  -5   8    1.34    1.43
   7  -5   8    1.36    1.54
   7  -5   8   -1.12    1.22
   7  -5   8    0.66    1.63
  -7   5  -8   -1.15    1.32
  -9   3  -3    1.98    0.78
  -9   3  -3    3.44    1.53
   9  -2   6   -0.41    1.18
  -9   2  -6    0.56    1.08
  -9   2  -6    1.05    1.38
   9  -2   6    0.16    1.79
   9  -2   6   -0.67    1.31
   0  12   2   84.70    6.41
   0 -12  -2   78.42    5.32
   0  12   2   88.79    5.87
   0 -12  -2   84.82    6.57
  -1  -9 -14   82.52    6.53
  -1  -9 -14   68.35    6.58
  -1  -9 -14   81.16    5.80
   7   5  13   16.82    1.78
  -7  -5 -13   16.26    2.39
  -7  -5 -13   15.83    2.39
  -7  -5 -13   19.92    1.92
   7   5  13   18.64    2.79
   7   1  -5    0.14    1.24
   7   1  -5    3.20    1.44
  -7  -1   5    0.72    0.97
  -7  -1   5   -0.39    1.59
  -6  -9 -11   75.81    6.57
   6   9  11  100.21    7.78
  -6  -9 -11   91.29    5.69
  -4   2  11    4.28    2.25
  -4   2  11    3.77    2.58
   4  -2 -11    3.02    0.92
   4  -2 -11    3.32    1.26
  -4   2  11    5.78    1.41
  -9  -3  -4   38.15    3.60
  -9  -3  -4   44.06    3.55
  -9  -3  -4   37.12    3.32
   9   3   4   33.49    2.95
  -9  -3  -4   35.42    3.30
  -2   2  13    1.99    2.23
   2  -2 -13    2.55    0.84
   2  -2 -13    2.56    1.41
  -2   2  13    1.29    1.32
   2  -2 -13    0.46    1.12
  -2   2  13    2.10    2.46
  -4  -8   3   35.62    3.34
   4   8  -3   35.86    3.03
   4   8  -3   45.00    3.68
   6   7  -1   19.07    2.76
  -6  -7   1   20.02    2.08
   6   7  -1   17.83    1.95
   6   7  -1   20.80    2.10
   1  -8   7   48.16    3.82
   1  -8   7   61.21    4.49
   1  -8   7   57.50    4.48
  -1   8  -7   63.76    4.10
  -1   8  -7   54.69    4.50
  -5   0   9    0.85    1.10
   5   0  -9    0.78    1.31
  -5   0   9    1.35    2.20
   5   0  -9    0.09    1.02
  -7  -8 -10   88.17    6.50
  -7  -8 -10   92.56    7.05
  -7  -8 -10   92.30    6.03
   3  -9 -11   15.73    1.89
   3  -9 -11   12.53    1.50
   3  -9 -11   15.23    3.03
   3  -9 -11   16.94    1.53
   3  -9 -11   20.83    2.82
   3  -9 -11   16.31    1.24
   3  -9 -11   20.37    2.15
  -7   8  -1   -0.40    1.09
   7  -8   1    1.05    1.09
   7  -8   1    1.18    1.79
  -7   8  -1   -0.53    1.50
   7  -8   1    0.65    0.62
   7  -8   1    0.49    1.32
   7  -8   1    0.19    1.15
   1  -9 -13    4.20    1.28
   8  -6   3    1.49    1.55
  -8   6  -3    1.45    1.31
  -8   6  -3    1.88    1.55
   8  -6   3    2.22    1.15
   8  -6   3    1.24    0.84
   8  -6   3    3.26    1.65
  -4  11   1   24.88    2.25
   4 -11  -1   29.43    2.36
   4 -11  -1   24.95    2.28
   2  12   4   57.98    4.00
  -4 -11  -4   64.83    4.17
   4  11   4   91.42    6.70
   4  11   4   68.23    4.83
  -9   0  -8    3.09    1.56
   9   0   8    1.73    1.56
  -9   0  -8    1.83    1.43
   9   0   8    2.46    1.18
  -1   3  14   81.43    7.21
  -1   3  14   90.42    6.23
  -1   3  14   72.63    6.69
   1  -3 -14   75.78    5.59
   1  -3 -14   76.75    4.89
  -9   3  -2    2.20    0.66
  -9   3  -2    0.42    1.42
  -9   3  -4    1.52    0.88
  -9   3  -4    4.47    1.58
   5  -8   6    0.14    1.16
   5  -8   6    0.93    1.40
  -5   8  -6   -0.71    1.32
   5 -10   1   19.73    1.91
  -5  10  -1   22.14    2.25
  -5  10  -1   22.14    1.80
   5 -10   1   18.33    2.41
   5 -10   1   16.96    1.82
   1   0 -13   77.43    5.22
   1   0 -13   86.23    5.99
  -1   0  13   66.76    5.27
  -1   0  13   77.34    6.57
  -2 -11 -12    0.66    0.37
  -2 -11 -12    1.33    2.05
  -2 -11 -12    0.82    1.53
  -2 -11 -12    0.51    0.64
  -2 -11 -12    0.35    2.43
   2  11  12    1.85    1.44
   2   2  15   31.64    2.71
  -2  -2 -15   34.75    2.62
   2   2  15   36.74    3.82
   2   2  15   36.56    3.65
   2   2  15   32.14    2.45
   2   2  15   40.93    4.55
  -2  -2 -15   34.98    3.37
  -1  -3 -15    0.89    1.41
   1   3  15    1.07    2.06
   1   3  15   -0.43    1.59
   1   3  15   -0.73    2.56
  -1  -3 -15   -0.53    0.81
  -5   4  10   29.26    3.44
   5  -4 -10   17.06    2.04
  -5   4  10   24.68    2.20
   5  -4 -10   17.30    2.09
   5  -4 -10   29.95    2.63
   3 -10 -10   -0.30    1.46
   3 -10 -10    0.72    2.32
   3 -10 -10    1.29    1.88
   3 -10 -10    1.01    0.72
   3 -10 -10    0.27    2.16
   3 -10 -10    0.35    1.24
   3 -10 -10    0.16    0.82
  -8  -3   1   77.59    5.27
  -8  -3   1   67.37    4.94
  -8  -3   1   72.37    4.95
   8   3  -1   72.73    5.29
   0  -1 -14    1.08    0.82
   0   1  14    1.34    2.02
   0   1  14    0.75    1.48
   0  -1 -14   -1.24    1.52
  -4   9  -5   12.35    1.66
   4  -9   5   13.52    2.30
  -4   9  -5   10.47    1.83
   4  -9   5   15.74    1.93
   4  -9   5   12.98    1.63
  -5   9  -4   30.88    2.35
   5  -9   4   30.01    2.69
   5  -9   4   30.53    2.59
  -5   9  -4   29.51    2.79
   5  -9   4   30.01    3.12
   2  10  -2    8.89    1.42
  -2 -10   2    8.31    1.89
   2  10  -2    7.47    2.07
  -1 -11 -12    7.13    1.95
  -1 -11 -12   10.37    2.59
   1  11  12    7.07    1.68
  -1 -11 -12   13.35    1.34
  -1 -11 -12    8.76    2.92
  -6  -6 -14    3.02    1.65
  -6  -6 -14    3.06    1.13
   6   6  14    2.38    0.79
   8  -6  -1   23.82    2.71
   8  -6  -1   26.12    3.08
  -8   6   1   28.25    2.61
   8  -6  -1   24.42    2.54
  -8   6   1   22.60    2.62
   8  -6  -1   35.62    3.07
  -5  -4 -15    1.81    1.61
   5   4  15    2.22    2.05
  -5  -4 -15    2.40    1.08
   5   4  15    0.88    2.46
   5   4  15    0.71    0.67
   5  -3  12   15.51    2.43
   5  -3  12   17.09    2.71
  -5   3 -12   17.10    2.38
   5  -3  12   16.82    1.77
  -5   3 -12   20.30    1.99
   5  -3  12   16.50    2.13
   5  -3  12   17.00    1.73
   4   2  15   13.34    1.35
   4   2  15   13.32    2.38
   4   2  15   10.01    2.24
  -4  -2 -15   12.49    2.21
   4   2  15   13.43    3.03
   7  -8  -2    2.37    1.41
  -7   8   2    7.56    1.78
  -7   8   2    5.40    1.43
   7  -8  -2    7.05    2.24
   7  -8  -2    6.53    1.74
   7  -5  -6   34.04    3.30
  -7   5   6   28.74    3.35
   7  -5  -6   30.97    2.78
   7  -5  -6   31.33    2.42
   7  -5  -6   33.25    3.09
  -1   0 -14   67.46    4.64
  -1   0 -14   74.25    5.43
   1   0  14   65.53    5.39
   1   0  14   78.75    6.54
  -8  -5 -11   37.19    3.38
  -8  -5 -11   33.66    3.47
  -8  -5 -11   35.57    2.94
  -8  -5 -11   31.15    2.81
  -9  -3  -8    2.06    1.45
  -9  -3  -8    0.87    1.53
   9   3   8    1.62    1.06
  -9  -3  -8    0.20    1.63
   0  -4  11   52.69    3.89
   0  -4  11   56.17    4.47
   0   4 -11   57.66    4.09
   0   4 -11   57.58    3.96
   0  -4  11   58.50    5.01
  -5   6  -9   23.12    2.33
   5  -6   9   22.75    2.68
  -5   6  -9   23.00    2.58
  -5   6  -9   24.39    2.45
   5  -6   9   27.03    2.83
   5  -6   9   26.13    2.65
   5  -6   9   24.24    2.24
   5   7  -3  124.38    8.50
   5   7  -3  143.65    9.11
  -5  -7   3  124.18    8.47
   2 -12  -7    4.90    2.70
   2 -12  -7    2.95    1.63
   2 -12  -7    2.19    0.70
   2 -12  -7    3.52    0.77
   2 -12  -7    2.12    1.16
   2 -12  -7    2.40    1.43
   2 -12  -7    2.46    0.55
  -6  -1   7   12.81    2.55
  -6  -1   7   13.49    1.72
   6   1  -7    9.53    1.65
   6   1  -7   11.89    1.59
   6   1  -7   11.92    1.83
   5   5  15   11.60    2.89
  -5  -5 -15   17.26    2.51
  -5  -5 -15   15.60    1.71
   5   5  15   13.73    1.40
  -5  -5 -15   15.79    2.25
   5   5  15   15.12    1.26
   5   5  15   16.76    2.66
  -7   1   6  100.76    6.49
   7  -1  -6  102.22    6.69
   7  -1  -6   91.09    6.63
  -4  -7 -15    3.90    1.72
  -4  -7 -15    2.33    0.95
   4   7  15    2.10    0.94
   4   7  15    2.78    2.19
   4   7  15    2.83    1.93
  -4  -7 -15    6.57    2.20
  -5 -10  -3   77.66    5.07
   5  10   3   93.67    6.74
   5  10   3   72.93    4.78
   5  10   3   77.98    5.12
   1 -11 -11   26.05    2.05
   1 -11 -11   15.73    1.64
   1 -11 -11   26.68    2.39
   1 -11 -11   22.52    3.13
  -8   0 -11   14.57    2.27
   8   0  11   15.38    2.68
   8   0  11   18.68    2.15
  -8   0 -11   20.39    2.18
   8   0  11   16.79    2.31
   6  -9   2    4.84    1.35
   6  -9   2    3.23    1.06
   6  -9   2    3.65    1.78
   6  -9   2    4.74    1.05
  -6   9  -2    5.80    1.55
  -6   9  -2    7.01    1.21
  -1  -7 -15   42.06    3.67
  -1  -7 -15   43.74    4.47
   1   7  15   41.37    3.87
   0   7  -8   33.08    2.59
   0  -7   8   30.44    2.58
   0   7  -8   31.51    2.81
   0   7  -8   30.27    2.69
   5  -5 -10   45.50    4.09
   5  -5 -10   36.04    3.18
  -5   5  10   47.85    3.40
  -5   5  10   49.12    4.79
   5  -5 -10   34.94    3.13
   5  -5 -10   57.43    3.99
  -8  -6 -10   44.96    3.46
  -8  -6 -10   43.40    4.09
  -8  -6 -10   43.04    3.75
  -1   7  14   50.10    4.14
   1  -7 -14   48.03    3.73
  -8  -4   0   94.22    6.81
  -8  -4   0  119.20    7.26
  -8  -4   0  113.03    7.00
   8   4   0  126.21    8.39
  -3  11  -1    1.87    1.12
   3 -11   1    1.99    1.65
   3 -11   1    1.53    0.98
  -3  11  -1    1.54    1.37
   3 -11   1    2.48    1.27
   3 -11   1    0.29    2.13
  -9  -2  -2   95.16    6.41
  -9  -2  -2   88.85    6.39
  -9  -2  -2   88.52    6.27
   9   2   2   97.10    6.69
  -8  -2   2   11.99    1.48
  -8  -2   2   10.58    1.80
  -8  -2   2    7.51    1.53
   8   2  -2    6.39    1.54
  -8  -2   2    8.85    1.40
  -5  -9 -13   14.46    2.88
   5   9  13   29.50    3.55
  -5  -9 -13   20.98    2.96
   5   9  13   22.44    2.39
   5   9  13   20.06    1.45
  -5  -9 -13   26.51    3.01
  -5  -9 -13   22.71    1.81
  -5   3  10   -1.93    2.01
   5  -3 -10    0.64    0.99
  -5   3  10   -1.79    2.40
  -5   3  10    1.22    1.00
   5  -3 -10    0.34    1.23
   5  -3 -10   -1.00    1.16
  -6  -9  -3   27.09    2.33
   6   9   3   26.70    2.33
   6   9   3   27.38    3.71
   6   9   3   25.42    2.09
   7   8   4   87.78    5.56
  -7  -8  -4   70.00    5.03
  -7  -8  -4   74.60    5.91
   7   8   4   79.94    5.69
   2 -11 -10    0.73    1.11
   2 -11 -10   -0.36    2.39
   2 -11 -10   -0.07    0.78
   2 -11 -10    3.05    1.60
   2 -11 -10    0.12    1.10
   2 -11 -10    1.38    2.31
   2 -11 -10    1.80    1.85
   6  -6  -8   60.90    4.90
   6  -6  -8   51.46    3.42
   6  -6  -8   47.52    3.94
   6  -6  -8   45.50    3.76
  -6   6   8   52.21    4.89
  -1 -12 -10   22.70    2.62
  -1 -12 -10   20.34    2.88
   1  12  10   23.72    2.76
  -5   0 -14   45.96    4.12
   5   0  14   46.61    3.33
   5   0  14   47.57    3.16
   5   0  14   43.16    4.33
   5   0  14   52.92    4.09
  -5   0 -14   48.48    3.55
   5   0  14   44.33    4.77
   4  -7 -11   42.31    3.30
   4  -7 -11   45.98    4.57
   4  -7 -11   51.22    3.55
   4  -7 -11   52.23    4.10
   4  -7 -11   34.04    3.00
   4  -7 -11   39.45    2.79
  -7  -7 -12   55.72    3.83
  -7  -7 -12   48.61    4.10
  -7  -7 -12   52.93    4.35
  -7  -7 -12   48.14    4.56
  -8   5  -6   40.20    3.34
   8  -5   6   34.53    3.22
   8  -5   6   44.04    3.68
  -8   5  -6   45.31    3.76
  -9  -1  -1   32.08    2.93
  -9  -1  -1   28.42    2.78
   9   1   1   29.85    2.88
  -5  -2   8   65.93    4.88
   5   2  -8   69.23    4.62
  -5  -2   8   68.95    5.66
   5   2  -8   61.83    4.82
   4 -11  -6   -1.01    2.82
   4 -11  -6    0.19    0.58
   4 -11  -6    0.13    0.82
   4 -11  -6   -0.21    1.61
   4 -11  -6    2.34    1.79
   4 -11  -6    0.57    0.73
   4 -11  -6   -1.63    1.07
   1  10  -3   43.74    4.04
   1  10  -3   49.97    3.62
  -1 -10   3   44.85    3.86
   2 -12  -2    0.86    1.07
  -2  12   2    0.92    1.33
   2 -12  -2    1.88    0.99
  -2  12   2    1.26    0.71
   2 -12  -2    1.51    2.19
   3  10  -1   29.27    3.08
   3  10  -1   24.91    2.16
   3  10  -1   25.55    2.30
   0 -10 -13   16.68    3.21
   0 -10 -13   15.90    2.12
   0 -10 -13   20.79    3.15
   5   8  14   98.47    7.54
  -5  -8 -14   97.43    6.94
  -5  -8 -14   86.75    5.88
  -5  -8 -14  104.34    7.09
  -5  -8 -14   92.58    7.08
   5   8  14   95.04    6.47
  -5  -3 -15   21.35    2.63
  -5  -3 -15   24.02    2.12
   5   3  15   21.16    1.72
   5   3  15   18.22    3.32
   3  12   7   93.63    6.14
   3  12   7  105.49    7.03
  -3 -12  -7   73.54    4.82
  -3 -12  -7  102.32    6.46
  -6   1   8   -1.79    2.04
   6  -1  -8    0.13    1.33
  -6   1   8    0.20    0.98
   6  -1  -8    0.13    1.26
   7  -1  12    4.42    1.95
   7  -1  12    4.66    1.32
  -7   1 -12    4.43    1.40
   7  -1  12    5.17    1.91
  -7   1 -12    4.84    1.63
  -9   3  -1   18.70    2.25
   4 -10   3    1.51    1.09
   4 -10   3    0.09    1.08
   4 -10   3    1.76    1.65
  -4  10  -3   -0.16    0.15
  -4  10  -3    0.28    1.36
  -4  10  -3   -0.22    1.18
  -9   3  -5   14.52    1.65
  -9   3  -5   16.92    2.12
   1   2 -12    5.60    1.18
   1   2 -12    3.52    1.56
   1   2 -12    5.24    1.61
  -1  -2  12    3.19    1.59
  -1  -2  12    5.51    2.47
   1   2 -12    4.52    0.75
  -7  -1 -13    2.91    1.45
   7   1  13    6.14    1.28
   7   1  13    3.53    2.01
  -7  -1 -13    6.29    1.76
   7   1  13    8.65    2.19
   2 -10   4   32.78    3.51
  -2  10  -4   21.54    2.40
  -2  10  -4   27.39    2.25
   2 -10   4   20.72    2.53
   2 -10   4   25.75    2.23
   1 -12  -9   17.16    3.09
   1 -12  -9   10.52    0.94
   1 -12  -9   13.44    1.25
   1 -12  -9   11.12    1.73
   1 -12  -9    6.36    2.09
   1 -12  -9   14.05    1.09
   3   5  -8   20.86    2.28
   3   5  -8   25.69    2.21
   3   5  -8   23.37    2.42
  -3  -5   8   21.00    2.53
   5 -10  -6   30.12    2.22
   5 -10  -6   25.44    2.42
   5 -10  -6   24.17    2.99
   5 -10  -6   23.55    3.44
   5 -10  -6   21.63    2.96
   3   1 -11   55.82    3.68
   3   1 -11   43.90    3.90
  -3  -1  11   47.96    5.13
  -3  -1  11   54.73    4.22
   7  -8   2    0.52    1.06
  -7   8  -2    0.10    1.16
  -7   8  -2    0.83    1.56
   7  -8   2   -0.18    1.08
   7  -8   2   -0.19    1.66
   7  -8   2    0.64    0.83
   7  -8   2    0.96    1.21
  -8   5   3   24.93    2.71
   8  -5  -3   18.63    2.51
   8  -5  -3   22.92    2.18
   8  -5  -3   20.10    2.48
  -3 -12  -8  142.16    9.88
   3  12   8  144.15    9.67
   3  12   8  142.85    8.85
   7  -7   5    6.77    1.46
   7  -7   5    5.66    1.02
   7  -7   5    7.04    1.94
  -7   7  -5    9.13    2.02
  -7   7  -5    8.60    1.59
   7  -7   5    9.04    2.05
   7  -7   5   10.86    1.66
   2  11   0   20.50    1.49
  -2 -11   0   18.24    2.25
   2  11   0   24.85    2.88
   2  11   0   20.40    1.98
  -9  -4  -6    6.43    1.56
  -9  -4  -6    5.87    1.78
   9   4   6    4.16    1.39
  -9  -4  -6    6.01    1.76
  -9  -4  -6    6.30    1.52
   2   9  -4    3.72    1.78
   2   9  -4    5.44    1.28
  -9  -3  -3   82.34    6.10
  -9  -3  -3   83.50    5.81
  -9  -3  -3   80.82    5.84
   9   3   3   90.08    6.22
   3   6  -7   82.00    5.06
   3   6  -7   58.92    4.57
   3   6  -7   62.84    4.58
  -3  -6   7   68.06    5.22
   1  -2  13   97.84    6.91
   1  -2  13   92.54    6.18
  -1   2 -13   99.85    6.53
   9  -1   0   32.52    2.93
  -9   1   0   28.88    2.83
  -9   1   0   29.29    2.42
  -9   1   0   33.86    2.95
   9   2   9    2.91    1.06
  -9  -2  -9    2.42    1.64
  -9  -2  -9    1.20    1.48
  -9  -2  -9    2.89    1.64
  -3 -12  -6   31.60    2.13
   3  12   6   35.82    3.49
   3  12   6   37.19    2.73
   6  -9  -5   19.90    2.22
   6  -9  -5   13.83    3.06
   6  -9  -5   20.80    2.81
   6  -9  -5   17.32    1.97
  -6   8  -5    7.15    1.89
  -6   8  -5   13.05    1.49
   6  -8   5    9.75    2.00
   6  -8   5   11.71    1.61
   6  -8   5   10.42    1.68
   1 -10   4   16.37    2.70
  -1  10  -4   18.48    1.68
   1 -10   4   15.46    2.18
  -1  10  -4   18.91    1.99
  -1  10  -4   17.05    2.43
   1 -10   4   15.01    1.73
   2   8  15   42.65    4.19
   2   8  15   41.70    3.93
  -2  -8 -15   40.09    4.33
  -2  -8 -15   40.11    3.66
  -9  -4  -7    0.82    1.56
  -9  -4  -7    0.25    1.29
  -9  -4  -7    2.17    1.50
  -9  -4  -7    2.22    1.44
   9   4   7   -0.37    1.15
   4   9  14   99.80    6.81
  -4  -9 -14   92.26    6.10
   4   9  14  103.25    7.88
  -4  -9 -14  118.50    7.51
  -4  -9 -14  104.68    7.60
  -4  -9 -14   97.84    7.69
   5   6  15   32.56    2.54
  -5  -6 -15   33.72    3.16
  -5  -6 -15   30.80    3.36
  -5  -6 -15   34.41    2.59
   5   6  15   32.63    2.16
   5   6  15   27.61    3.46
   2  12  10    0.97    1.80
   2  12  10    0.35    0.59
  -2 -12 -10    2.48    1.66
   1  12   2  135.52    8.89
   1  12   2  151.90    9.64
   9  -2   0   15.46    2.12
  -9   2   0   16.13    1.32
  -9   2   0   17.61    2.05
  -9   2   0   14.69    2.03
  -6  -8 -13   10.48    1.37
  -6  -8 -13   10.38    2.19
  -6  -8 -13   12.79    2.25
  -3 -11 -12   17.27    1.26
  -3 -11 -12   28.41    3.25
   3  11  12   28.50    2.88
  -3 -11 -12   22.48    3.58
  -3 -11 -12   30.36    3.03
   3  11  12   33.01    4.17
   6  -1  13    2.23    1.18
  -6   1 -13    2.34    1.22
   6  -1  13    3.34    1.09
  -6   1 -13    2.49    1.56
   6  -1  13    2.32    1.81
   6  -1  13    1.16    1.94
   6  -1  13    2.69    1.31
   3   8  15    2.32    1.93
   3   8  15    0.24    2.07
  -3  -8 -15    0.57    1.99
  -3  -8 -15    1.59    1.58
   3   8  15    0.92    0.92
  -8   6  -4    5.64    1.23
   8  -6   4    6.08    1.22
  -8   6  -4    9.94    1.69
   8  -6   4    4.60    1.81
   8  -6   4    7.77    1.83
  -8   6  -4    9.35    1.92
   8  -6   4    6.54    1.35
   1  11  -1    3.79    1.85
  -1 -11   1    1.66    1.43
   1  11  -1    2.43    0.71
   1  11  -1    2.29    1.14
  -4   8  -7   25.01    2.39
   4  -8   7   24.24    2.79
   4  -8   7   34.01    3.03
  -9  -1  -9    2.08    1.41
  -9  -1  -9    1.72    1.48
   9   1   9    0.72    1.05
   9   1   9   -0.19    1.53
   3   9  -3    0.18    1.81
  -3  -9   3    0.72    1.44
   3   9  -3    2.84    1.21
   0 -12 -10   51.34    3.97
   0  12  10   58.24    4.69
   0 -12 -10   42.83    3.03
   0 -12 -10   50.02    5.07
  -8  -6  -3    7.33    1.43
   8   6   3    6.32    1.42
  -8  -6  -3    7.12    2.00
  -8  -6  -3    5.43    0.83
   7  -8  -3   71.73    5.72
   7  -8  -3   56.64    5.72
   7  -8  -3   67.47    5.01
   7  -8  -3   79.14    5.25
  -7   8   3   75.44    5.37
  -8  -3 -12   31.12    2.74
  -8  -3 -12   28.30    3.13
   8   3  12   28.79    3.39
   8   3  12   30.09    2.66
   4  11  11  136.77    8.50
   4  11  11  149.50    9.49
  -4 -11 -11  148.20   10.34
   4  11  11  154.85   10.49
  -4 -11 -11  148.38   10.90
  -2   8  13   -0.29    1.28
   2  -8 -13    0.33    2.26
   2  -8 -13    0.38    0.73
   2  -8 -13    1.27    0.98
   2  -8 -13    0.82    0.92
  -4  -1  10   39.05    4.45
  -4  -1  10   40.76    3.37
   4   1 -10   41.76    3.42
   4   1 -10   41.08    3.06
  -8   3   4   37.19    3.38
  -8   3   4   35.31    3.69
  -8   2   4   66.21    3.78
  -8   2   4   86.88    3.60
   9  -2   7   21.58    1.95
   9  -2   7   13.46    2.10
  -9   2  -7   17.64    2.03
   9  -2   7   15.17    1.46
   9  -2   7   23.32    2.62
  -6  -1 -14  102.05    6.74
  -6  -1 -14  101.96    7.31
   6   1  14  104.62    7.60
   6   1  14   94.39    7.53
   6   1  14   98.03    6.33
  -9   1  -8    8.57    1.81
   9  -1   8    4.95    1.65
  -9   1  -8    3.00    1.52
   9  -1   8    6.31    1.31
   9  -1   8    3.83    0.68
   9  -1   8    5.48    1.66
  -7   6  -7    4.49    1.63
  -7   6  -7    1.53    1.39
   7  -6   7    3.33    1.43
   7  -6   7    1.05    1.69
   7  -6   7    3.67    1.40
  -7  -6 -13   64.34    4.91
   7   6  13   66.75    4.55
  -7  -6 -13   70.29    5.37
  -7  -6 -13   65.75    5.03
  -7  -6 -13   60.40    4.45
   3  -1 -12   46.14    3.89
   3  -1 -12   53.83    3.58
  -3   1  12   56.19    4.33
  -3   1  12   52.06    5.50
   5  -9  -8   15.97    2.10
   5  -9  -8   14.24    2.36
   5  -9  -8   15.97    1.61
   5  -9  -8   11.31    1.65
   5  -9  -8   15.69    3.06
   0 -11 -12    3.55    1.53
   0 -11 -12    1.88    1.09
   0 -11 -12    1.13    2.45
   4 -11   0   11.09    1.57
   4 -11   0   16.02    1.68
   4 -11   0   13.58    2.29
  -4  11   0   14.53    1.72
   8  -3   9   -0.78    1.34
   8  -3   9    0.56    1.56
  -8   3  -9    1.66    1.34
  -8   3  -9   -0.88    1.61
   5  -8  -9   36.42    4.29
   5  -8  -9   45.33    3.70
   5  -8  -9   41.30    3.47
   5  -8  -9   40.25    4.25
   5  -8  -9   34.52    3.10
   5  -8  -9   45.60    3.16
  -5   6  10  132.41    9.69
   5  -6 -10  108.96    7.42
   5  -6 -10  141.85    8.75
   5  -6 -10  102.77    6.89
   5  -6 -10  165.51    8.60
   5  -6 -10  158.52    7.98
   5  -6 -10  104.48    7.47
  -9  -4  -5   23.86    2.52
  -9  -4  -5   26.43    2.95
  -9  -4  -5   20.09    2.38
  -9  -4  -5   24.18    2.62
   9   4   5   21.77    2.28
   2   5  -9   22.00    2.25
   2   5  -9   23.55    2.18
   2   5  -9   23.37    2.31
  -2  -5   9   23.99    2.74
   0  -5 -15   63.23    4.09
   0  -5 -15   69.02    4.46
   0   5  15   70.08    6.30
   0  -5 -15   73.96    5.10
   0   5  15   79.85    5.89
   3  -1  14   11.78    1.40
  -3   1 -14   11.09    1.60
   3  -1  14   11.07    2.12
   3  -1  14   14.96    2.86
   2   6  -8   96.70    6.43
   2   6  -8   95.45    6.43
   2   6  -8   98.72    6.60
  -2  -6   8  106.16    7.54
   8  -6  -2   26.45    2.55
   8  -6  -2   25.56    2.60
  -8   6   2   29.83    2.75
  -8   6   2   23.42    2.81
   8  -6  -2   23.50    3.01
  -7  -4   3   74.13    5.93
   7   4  -3   85.41    6.00
  -7  -4   3   84.01    5.46
  -7  -4   3   98.88    6.11
  -7  -4   3   81.58    5.86
   4  10  13   42.82    4.63
  -4 -10 -13   46.85    4.72
  -4 -10 -13   38.91    2.68
   4  10  13   43.19    3.64
  -4 -10 -13   41.02    4.20
  -4 -10 -13   37.65    3.83
  -3  -4   9    3.84    0.75
   3   4  -9    7.96    1.53
  -3  -4   9    7.20    2.19
   3   4  -9    4.59    1.42
  -3  -4   9    5.59    1.58
   3   4  -9    5.70    1.26
  -8  -7  -7   39.99    3.09
  -8  -7  -7   31.89    2.58
  -8  -7  -7   34.90    3.72
   8   7   7   32.27    2.50
  -8  -7  -7   31.40    2.84
  -6  -4   5   14.50    2.35
  -6  -4   5   20.37    2.17
   6   4  -5   14.16    1.98
   6   4  -5   20.23    2.11
   6   4  -5   15.66    1.86
   6   4  -5   18.08    2.07
   3  -8 -12   25.89    2.85
   3  -8 -12   13.83    1.63
   3  -8 -12   18.46    1.39
   3  -8 -12   18.26    1.28
   3  -8 -12   13.79    3.12
   3  -8 -12   19.73    2.01
   3  -8 -12   18.63    1.66
   3  -8 -12   14.09    1.83
   1 -12  -1   -0.27    2.17
   1 -12  -1    0.71    1.36
  -1  12   1   -0.09    0.59
  -1  12   1    0.18    1.72
  -1  12   1   -0.55    1.19
   1 -12  -1    0.24    1.02
   8   5   1   28.41    2.76
  -8  -5  -1   26.67    2.21
  -8  -5  -1   31.48    2.77
   6   5  -4    8.81    1.72
  -6  -5   4   13.24    2.10
   6   5  -4   11.36    1.64
   6   5  -4   13.11    1.96
  -6  -5   4   10.21    1.88
   4   5  -7   32.96    2.76
   4   5  -7   33.10    2.89
  -4  -5   7   36.17    3.26
  -4  -5   7   30.23    3.53
   8   2  12   50.94    4.19
  -8  -2 -12   45.67    4.25
   8   2  12   49.47    3.86
  -8  -2 -12   47.30    3.68
   8   2  12   54.28    4.70
  -8  -2 -12   45.66    4.02
   2  12   3   22.62    2.07
   7  -7  -5   27.65    3.29
   7  -7  -5   22.20    2.33
   7  -7  -5   22.16    2.54
   8  -2  10   11.32    1.85
   8  -2  10   15.90    1.92
   8  -2  10    8.71    2.13
  -8   2 -10   11.64    1.85
  -1  11  -2   23.50    2.17
  -1  11  -2   20.56    2.60
  -1  11  -2   18.28    1.79
   1 -11   2   15.75    2.92
   1 -11   2   21.00    2.37
   1 -11   2   19.08    1.85
  -8  -1   3    3.06    1.05
  -8  -1   3    2.05    1.51
   8   1  -3    3.07    1.52
  -9   0   0    3.85    1.27
   9   0   0    7.16    1.65
  -9  -3  -9    5.07    1.62
   9   3   9    3.27    1.09
  -9  -3  -9    5.84    1.79
  -9  -3  -9    4.93    1.89
   5  -2  13   29.05    3.25
   5  -2  13   32.03    3.51
  -5   2 -13   30.63    3.17
   5  -2  13   27.89    2.87
   5  -2  13   28.62    2.39
   5  -2  13   31.40    2.48
   6  -7   7    1.79    1.29
   6  -7   7   -0.36    1.65
   6  -7   7    0.64    1.47
  -6   7  -7    0.79    1.45
  -6   7  -7    2.26    1.41
  -5   2  10   -0.85    2.23
  -5   2  10    2.96    2.55
   5  -2 -10    0.25    1.28
  -5   2  10   -0.11    1.07
   5  -2 -10   -0.25    1.01
  -7  -8 -11   73.90    5.63
  -7  -8 -11   77.25    6.10
  -7  -8 -11   74.58    5.12
  -8  -7  -8  126.52    7.68
  -8  -7  -8  110.68    8.39
  -8  -7  -8  110.66    7.35
   8   7   8  115.94    7.30
   2   1 -12   11.99    1.45
   2   1 -12   10.53    1.12
  -2  -1  12   10.84    2.03
  -2  -1  12   11.92    3.05
   2   1 -12   14.09    1.88
  -3 -12  -9   96.81    7.17
   3  12   9  101.63    6.31
   3  12   9   97.01    7.10
   5   9   0   65.91    5.54
   5   9   0   64.40    4.32
   5   9   0   56.22    4.32
   5   9   0   63.78    4.91
  -1   2  14   41.17    3.85
  -1   2  14   44.65    5.00
   1  -2 -14   48.11    3.82
   1  -2 -14   42.01    3.03
  -1   2  14   45.43    4.59
   0   3 -12  135.59    8.54
   0  -3  12  126.55    9.08
   0  -3  12  136.11    8.45
   0  -3  12  137.40    9.75
   0   3 -12  130.48    9.17
   2 -12  -8   -0.18    0.78
   2 -12  -8    0.65    0.63
   2 -12  -8   -1.34    1.54
   2 -12  -8   -1.52    2.49
   2 -12  -8   -0.09    0.64
   2 -12  -8   -0.51    1.03
   2 -12  -8   -0.86    1.63
   3  -5  11   71.03    4.64
  -3   5 -11   65.92    4.78
   3  -5  11   59.11    5.11
   3  -5  11   66.40    4.98
  -3   5 -11   66.32    5.25
   2  -9   6   -1.52    1.43
  -2   9  -6    1.48    1.36
   2  -9   6   -1.53    2.09
  -2   9  -6    0.30    0.95
  -8  -4 -12    2.30    1.63
  -8  -4 -12    5.69    1.53
   8   4  12    3.67    1.30
   8   4  12    5.17    1.91
   3   1  15   51.68    4.58
   3   1  15   48.27    3.37
  -3  -1 -15   44.33    3.39
   3   1  15   46.18    5.03
  -3  -1 -15   51.94    4.19
   3   1  15   50.76    4.54
  -6 -10  -8   98.29    7.61
   6  10   8  103.78    6.80
   6  10   8  119.94    8.54
   0   6  15   37.22    4.19
   0  -6 -15   35.04    2.73
   0   6  15   38.21    3.62
   0  -6 -15   35.68    3.19
  -9  -4  -8   -1.04    1.58
  -9  -4  -8    1.01    1.48
   9   4   8   -0.09    1.12
  -9  -4  -8   -0.64    1.37
   2 -11   2    7.50    1.69
  -2  11  -2    8.65    2.02
  -2  11  -2    9.68    1.35
   2 -11   2    6.70    2.68
   2 -11   2    9.08    1.85
  -2  11  -2    9.76    1.71
   2 -11   2    9.48    1.29
   3 -12  -4    7.44    1.12
   3 -12  -4    7.71    2.29
   3 -12  -4    5.04    1.24
   4  -9 -10   31.95    2.37
   4  -9 -10   45.78    4.66
   4  -9 -10   50.57    4.53
   4  -9 -10   32.66    2.83
   4  -9 -10   44.22    3.52
   4  -9 -10   44.70    3.31
   4  -9 -10   41.79    2.65
  -5   7  -8   12.96    2.09
  -5   7  -8   13.01    1.86
  -5   7  -8   13.37    2.01
   5  -7   8    9.46    2.10
   5  -7   8   13.41    2.17
   5  -7   8   16.37    1.79
   5  -7   8   16.65    2.25
   7   3  -4   62.72    4.71
  -7  -3   4   67.16    4.25
  -7  -3   4   58.98    4.96
  -7  -3   4   62.57    4.64
   0  -9 -14   17.91    3.29
   0  -9 -14   16.15    2.10
   1   2  15    0.72    2.50
   1   2  15   -0.79    1.86
   1   2  15   -0.86    1.80
  -1  -2 -15    0.95    0.85
  -1  -2 -15    1.09    1.52
   0  -4 -15   76.57    4.85
   0   4  15   76.14    6.65
   0   4  15   82.35    6.14
   0  -4 -15   76.86    5.68
   6  10   7   91.45    6.86
  -6 -10  -7   78.78    6.33
  -6 -10  -7   75.82    5.16
   6  10   7   74.42    5.11
  -3  10  -4   -0.66    1.46
   3 -10   4    2.74    1.13
  -3  10  -4    3.22    1.19
   3 -10   4    1.83    1.59
   3 -10   4    4.90    1.63
   4  -1 -11    8.10    1.22
  -4   1  11    6.00    2.54
  -4   1  11    6.69    1.49
   4  -1 -11    6.80    1.47
   4   6  -6   31.08    2.62
   4   6  -6   28.07    2.63
   4   6  -6   31.54    2.93
  -4  -6   6   30.72    3.12
  -4 -11  -3  108.74    6.76
   4  11   3  105.76    7.10
   4  11   3  128.29    8.71
   7   7   1    0.89    1.18
   7   7   1    1.36    1.29
  -7  -7  -1    3.08    1.35
   8   7   6   82.07    5.46
  -8  -7  -6   85.53    6.24
  -8  -7  -6   75.09    5.31
  -8  -7  -6   74.03    5.09
   3  12   5    8.28    1.25
  -3 -12  -5    8.37    0.71
   3  12   5   13.36    2.37
   7   5  -2   59.65    4.46
  -7  -5   2   64.91    4.46
  -7  -5   2   50.95    4.26
   8  -4   8   10.87    1.95
  -8   4  -8   12.22    2.00
   8  -4   8   14.79    1.96
  -8   4  -8    9.15    1.71
   0   8  -7   81.35    5.32
   0   8  -7   83.44    5.84
   0  -8   7   83.09    6.03
   0  -8   7   78.43    5.46
   3   7  -6  115.11    7.64
   3   7  -6  114.44    7.56
  -3  -7   6  113.28    7.88
   3   7  -6  125.95    8.06
   0 -12  -1   10.93    1.51
   0 -12  -1    9.55    1.81
   0  12   1   11.45    1.55
   0 -12  -1    8.70    2.58
   0  12   1   11.51    2.27
   3 -12  -5    1.52    1.36
   3 -12  -5    2.10    1.93
   3 -12  -5    2.33    0.96
   3 -12  -5    2.58    0.84
   3 -12  -5    1.50    0.90
   3 -11  -9   10.94    1.51
   3 -11  -9   14.89    2.30
   3 -11  -9   15.56    1.82
   3 -11  -9   16.93    2.60
   3 -11  -9   15.16    1.25
   3 -11  -9   13.64    1.48
   3 -11  -9   10.23    3.03
   3 -11  -9   18.67    3.43
   5  10  12   21.04    1.52
  -5 -10 -12   20.08    2.95
  -5 -10 -12   20.40    2.98
   5  10  12   19.53    3.39
  -5 -10 -12   29.28    3.50
  -5 -10 -12   21.60    1.75
   5  10  12   18.42    2.47
   3  -6  10   52.36    3.41
   3  -6  10   37.57    3.74
   3  -6  10   40.62    3.82
  -3   6 -10   43.77    3.49
  -3   6 -10   42.10    3.18
  -3   6 -10   42.97    3.87
  -5  10  -2   63.25    4.66
   5 -10   2   63.05    4.07
  -5  10  -2   63.58    4.12
   5 -10   2   52.40    4.59
   5 -10   2   50.06    3.96
   7  -6  -6    6.86    2.15
   7  -6  -6    4.13    1.36
   7  -6  -6    7.50    1.23
   7  -6  -6    5.70    1.72
   2  -5  11    5.69    1.83
  -2   5 -11    9.18    1.56
   2  -5  11    6.50    1.32
  -2   5 -11    7.18    1.90
   2  -5  11    7.21    1.59
   3  11   1   15.58    1.67
   3  11   1   12.48    2.43
  -1  -9   5    2.89    1.64
   1   9  -5    6.54    1.86
   1   9  -5    4.69    1.35
   1   9  -5    4.67    0.88
  -2   1 -14   47.95    4.25
  -2   1 -14   50.26    3.64
   2  -1  14   51.65    4.45
   2  -1  14   55.99    5.32
   2  -1  14   49.68    3.59
   4  -1  14   32.21    3.26
   4  -1  14   33.57    3.87
   4  -1  14   32.62    2.54
  -4   1 -14   39.61    3.68
  -4  -4   8   45.76    4.01
  -4  -4   8   54.09    4.72
   4   4  -8   47.16    3.85
   4   4  -8   50.89    3.66
  -9   3   0   76.34    5.57
  -6  -9 -12   48.35    3.29
  -6  -9 -12   38.90    4.23
  -6  -9 -12   44.77    4.18
   6   9  12   50.92    5.01
  -5  -2 -15   19.54    1.91
   5   2  15   18.84    1.66
   5   2  15   20.35    3.40
   6   7  14    7.46    0.97
  -6  -7 -14    8.77    2.07
  -6  -7 -14    6.31    1.31
  -6  -7 -14    9.48    2.05
   8  -4  -4    8.78    1.94
   8  -4  -4   12.15    1.83
  -8   4   4   12.67    2.39
  -8   4   4   14.78    2.25
   2  -6  10   45.69    3.13
   2  -6  10   34.44    3.56
   2  -6  10   33.91    3.30
   2  -6  10   42.55    3.45
  -2   6 -10   42.67    3.40
  -8   1   4   31.39    2.42
   8  -1  -4   33.30    3.15
  -8   1   4   33.42    2.58
  -9   4  -3    8.07    1.02
   9  -4   3    6.49    1.36
  -9   4  -3   10.44    1.81
   9  -4   3   10.10    1.96
  -9   4  -3    7.23    1.75
   9  -4   3   10.07    2.28
   9  -4   3    7.05    1.60
   9  -4   2    0.14    1.50
  -9   4  -2    0.14    1.36
  -9   4  -2    0.72    1.47
   9  -4   2   -0.85    1.38
   6  -8  -7    7.31    1.45
   6  -8  -7    6.01    1.49
   6  -8  -7    5.38    1.73
   6  -8  -7    9.43    2.12
   6  -8  -7    3.30    2.43
   9  -3   6    2.92    1.64
  -9   3  -6    2.80    1.42
   9  -3   6    1.31    1.29
  -9   3  -6    3.47    1.22
   9   0   9    0.38    1.56
   9   0   9    0.86    1.62
  -9   0  -9    2.30    1.40
  -9   0  -9    1.46    1.51
   7   0  -6   22.28    2.35
  -7   0   6   18.16    2.73
   7   0  -6   18.91    2.28
  -7   0   6   23.72    2.10
   3 -12  -3   10.05    1.32
   3 -12  -3   11.31    1.51
   3 -12  -3   12.19    3.40
  -3  12   3   11.92    1.38
   2  -1 -13   62.49    4.10
   2  -1 -13   52.18    4.36
  -2   1  13   66.03    5.16
   2  -1 -13   69.91    4.87
  -2   1  13   71.17    6.46
   2   4 -10    4.55    1.19
  -2  -4  10    2.92    0.85
  -2  -4  10    5.30    2.21
  -2  -4  10    3.67    1.59
   2   4 -10    4.01    1.47
   2   4 -10    3.20    1.25
   6  10   9  166.65   10.46
  -6 -10  -9  149.48   10.52
   6  10   9  184.81   12.14
   2   7  -7   26.01    2.33
   2   7  -7   26.05    2.39
  -2  -7   7   23.04    2.73
   2   7  -7   27.33    2.72
   6   3  -6   78.48    4.99
   6   3  -6   67.09    4.97
   6   3  -6   72.69    5.20
   6   3  -6   67.60    5.14
  -6  -3   6   72.15    5.64
  -6  -3   6   69.04    5.06
  -5 -11  -8   20.16    3.01
   5  11   8   21.75    1.93
   5  11   8   28.05    2.96
   5  11   8   28.75    3.97
  -1  -8 -15   94.09    6.71
  -1  -8 -15   92.92    7.56
   1   8  15  103.91    7.53
  -3   4 -12   51.44    3.79
   3  -4  12   46.07    3.43
   3  -4  12   47.90    3.78
  -3   4 -12   46.15    4.24
   3  -4  12   47.77    4.22
   5  11   7   28.65    2.38
   5  11   7   31.64    3.18
   5  11   7   37.08    4.28
  -5 -11  -7   31.91    2.46
   4   1  15    7.01    2.13
   4   1  15    7.77    2.04
   4   1  15    3.43    2.55
   4   1  15    6.04    1.02
   4 -10  -9    5.00    2.16
   4 -10  -9    5.71    1.85
   4 -10  -9    7.21    1.28
   4 -10  -9    4.28    2.79
   4 -10  -9    6.36    0.95
   4 -10  -9    7.56    1.62
   4 -10  -9    7.48    2.86
   3  -9   6   32.41    3.15
  -3   9  -6   34.17    2.80
   3  -9   6   36.99    3.39
  -3   9  -6   36.58    3.15
  -8  -7  -9   39.65    3.02
  -8  -7  -9   37.31    3.76
  -8  -7  -9   32.21    2.68
  -9  -4  -4   54.90    4.09
  -9  -4  -4   49.90    4.05
   9   4   4   52.25    4.00
  -9  -4  -4   50.07    4.42
  -6   9  -3    9.80    1.35
   6  -9   3   11.52    2.19
  -6   9  -3    9.68    1.94
   6  -9   3    7.89    1.40
   6  -9   3    8.11    1.43
  -1   8  14   20.71    2.50
   1  -8 -14   17.71    2.03
  -2  12   1    7.04    2.17
   2 -12  -1    7.51    1.58
  -2  12   1    7.17    1.05
   2 -12  -1    7.73    1.96
   2 -12  -1    7.17    2.59
   2 -12  -1    9.07    1.33
  -2  12   1    6.26    1.53
  -8  -6 -11    8.49    1.70
  -8  -6 -11   10.45    2.20
  -8  -6 -11    5.46    1.36
  -8  -6 -11    9.23    1.79
   6   6  -3   15.50    2.32
  -6  -6   3    9.81    1.85
   6   6  -3   11.01    1.75
   7  -8   3    2.41    1.12
   7  -8   3    0.87    1.71
   7  -8   3    3.90    1.12
  -7   8  -3    1.30    1.67
   7  -8   3    3.87    1.42
   7  -8   3    3.46    1.22
  -7   8  -3    3.18    1.29
   7  -8   3    2.13    1.69
   4 -11  -7   19.02    1.75
   4 -11  -7   16.58    1.51
   4 -11  -7   26.80    4.03
   4 -11  -7   19.41    1.62
   4 -11  -7   16.20    2.56
   4 -11  -7   15.98    1.36
   4 -11  -7   21.73    1.94
   4 -11  -7   14.24    2.52
   1  -9   6   37.04    3.72
  -1   9  -6   35.45    3.45
   1  -9   6   39.46    3.52
  -1   9  -6   41.72    2.90
   2   1  15   23.45    3.70
  -2  -1 -15   24.70    2.08
  -2  -1 -15   21.31    2.78
   2   1  15   22.14    3.01
   2   1  15   24.35    2.96
   6  10   6   78.38    6.66
  -6 -10  -6   80.66    5.30
   6  10   6   73.91    5.08
   6  10   6   76.61    4.69
  -6 -10  -6   71.54    6.32
   7   8   3   61.18    4.42
   7   8   3   62.05    4.31
  -7  -8  -3   60.36    4.43
   5   8  -2  169.52   11.26
  -5  -8   2  164.04   10.85
   5   8  -2  172.54   11.24
  -9  -2  -1   28.94    2.94
  -9  -2  -1   33.37    2.96
   9   2   1   33.38    3.10
  -9  -2  -1   30.69    2.83
   6   8   0   61.35    4.55
   6   8   0   73.24    5.59
  -6  -8   0   63.93    4.52
   6   8   0   64.66    4.61
  -4  -8 -15   96.25    6.04
   4   8  15   91.01    7.12
  -4  -8 -15  109.23    7.64
  -4  -8 -15   82.46    6.89
   4   8  15   88.56    5.91
   4   8  15   88.39    6.89
   0  10  -4    5.74    0.98
   0 -10   4    3.73    1.99
   0  10  -4    3.06    1.22
   0 -10   4    3.27    1.60
   0  10  -4    5.37    1.79
   0 -10   4    2.38    1.15
   8  -1  11   60.75    4.89
  -8   1 -11   74.52    5.12
   8  -1  11   65.56    4.67
   8  -1  11   62.31    5.23
  -8   1 -11   63.12    5.19
   4  10   0    9.55    2.20
   4  10   0   12.00    1.38
   4  10   0   10.29    1.52
  -8  -1 -12   17.57    2.12
   8   1  12   14.56    2.37
   8   1  12   16.91    2.68
  -8  -1 -12   18.03    2.38
   8   1  12   19.08    2.09
  -9   4  -4    3.18    1.49
  -9   4  -4    3.10    1.52
   9  -4   4    1.42    1.55
  -9   4  -4    1.85    0.91
   9  -4   4    2.08    1.29
   9  -4   1   24.97    2.50
  -9   4  -1   29.07    2.82
  -9   4  -1   26.41    2.80
   3 -12  -6    0.86    0.61
   3 -12  -6    1.14    1.74
   3 -12  -6    0.42    0.92
   3 -12  -6    0.54    0.75
   3 -12  -6    1.69    2.72
   3 -12  -6   -1.71    1.58
   0 -11   2    2.26    2.24
   0  11  -2    1.66    0.82
   0  11  -2    2.88    1.23
   0 -11   2    0.65    1.31
   0  11  -2    2.26    1.71
   0 -11   2    1.14    1.05
   4  -5  11    8.99    1.56
   4  -5  11   11.39    2.09
   4  -5  11    8.57    1.85
  -4   5 -11   12.21    2.14
  -4   5 -11    9.41    1.47
  -4   5 -11    8.87    1.62
   4  -5  11    8.10    1.40
   5  11   9   12.89    1.34
  -5 -11  -9   14.58    2.61
   5  11   9   17.45    3.41
   5  11   9   15.79    2.39
   6  -7  -8   23.51    2.21
   6  -7  -8   34.75    3.16
   6  -7  -8   31.05    2.86
   6  -7  -8   30.34    3.67
   6  -7  -8   23.90    2.43
   2  -4  12    4.10    1.84
   2  -4  12    2.38    1.13
  -2   4 -12    1.73    1.12
   2  -4  12    2.56    1.26
   4   9  -2   11.64    1.62
   4   9  -2    9.55    2.20
  -4  -9   2    9.74    1.92
   4   9  -2   14.00    1.69
   5   7  15  162.27   10.79
   5   7  15  158.86   10.77
   5   7  15  149.09    9.72
  -5  -7 -15  138.25    9.82
  -5  -7 -15  145.14    8.85
  -5  -7 -15  133.62    9.70
   5  10   2   27.96    2.17
   5  10   2   27.14    2.37
   5  10   2   31.38    3.83
  -5 -10  -2   27.59    2.24
   5  10   2   27.55    3.09
  -2 -10 -14   22.28    2.81
   2  10  14   21.08    2.26
  -2 -10 -14   25.06    3.69
  -2 -10 -14   22.62    3.28
  -9  -3  -2   62.41    4.61
   9   3   2   60.82    4.60
  -9  -3  -2   59.88    4.72
  -9  -3  -2   55.83    4.43
  -8  -7  -5   52.67    3.90
  -8  -7  -5   57.52    4.16
  -8  -7  -5   56.21    4.92
   8   7   5   59.17    4.18
   0  -7 -15   12.41    2.70
   0  -7 -15   11.72    1.84
   0   7  15    8.65    1.99
  -1 -12 -11   41.82    4.74
   1  12  11   41.90    3.80
  -1 -12 -11   40.46    4.12
  -1 -12 -11   38.16    3.66
  -7  -2   5   52.88    3.72
  -7  -2   5   40.39    4.03
   7   2  -5   51.43    3.70
   7   2  -5   38.56    3.56
   3   3 -10   43.83    3.16
   3   3 -10   37.11    3.05
   3   3 -10   38.51    3.28
  -3  -3  10   36.20    3.34
  -3  -3  10   39.62    4.24
  -5 -11  -6  102.69    6.60
   5  11   6  103.19    7.03
   5  11   6   89.56    6.19
   5  11   6  115.74    8.07
   4   7  -5   43.69    3.36
  -4  -7   5   43.65    3.82
   4   7  -5   46.93    3.86
   2  -7   9   32.79    2.69
   2  -7   9   37.36    3.35
   2  -7   9   29.96    3.18
  -2   7  -9   35.04    3.00
   3  12  10   66.09    4.24
   3  12  10   76.71    6.23
  -3 -12 -10   64.29    5.32
   3  12  10   60.75    5.09
  -9  -4  -9   20.26    2.59
  -9  -4  -9   23.21    2.90
  -9  -4  -9   19.97    2.31
   9   4   9   23.15    2.10
   7   0  13   -0.45    2.15
  -7   0 -13    0.36    1.37
  -7   0 -13    1.52    1.51
   7   0  13    0.72    1.78
   7   0  13    0.98    1.09
   6  -4  11   26.10    2.79
  -6   4 -11   23.42    2.35
   6  -4  11   25.60    2.53
   6  -4  11   23.68    2.98
  -6   4 -11   20.73    2.55
   6  -4  11   25.50    2.33
  -6  -9  -2   46.67    3.44
   6   9   2   52.09    3.61
   6   9   2   44.80    3.65
   6   9   2   56.41    4.92
  -3   7  -9   -0.89    1.33
   3  -7   9   -0.09    1.09
  -3   7  -9    0.34    1.06
   3  -7   9   -0.54    1.48
  -9  -1   0   13.96    2.07
   9   1   0   14.35    1.98
  -9  -1   0   13.04    1.87
  -8  -5 -12   -0.11    1.13
  -8  -5 -12    1.37    1.33
  -8  -5 -12    2.24    1.69
   7  -8  -4   61.30    4.30
   7  -8  -4   48.82    5.04
   7  -8  -4   48.43    4.13
   7  -8  -4   57.20    4.76
   0   3  15   65.23    5.66
   0   3  15   58.47    4.99
   0  -3 -15   63.18    4.19
   0  -3 -15   66.58    5.03
   4  -8 -11   31.24    2.07
   4  -8 -11   23.68    3.60
   4  -8 -11   17.33    2.00
   4  -8 -11   28.57    2.52
   4  -8 -11   21.38    1.74
   4  -8 -11   32.58    2.72
   4  -8 -11   36.09    3.46
   7  -4  10   54.94    4.20
   7  -4  10   51.62    4.46
  -7   4 -10   43.34    3.97
   7  -4  10   47.88    4.19
   7  -4  10   48.35    3.78
  -7   4 -10   51.76    3.92
   6   0  -8   10.11    1.71
   6   0  -8    8.94    1.82
   6   0  -8   11.03    1.56
  -6   0   8    6.14    2.07
  -6   0   8    6.51    1.30
  -8   6  -5    2.50    1.56
  -8   6  -5    5.80    1.56
   8  -6   5    3.72    1.99
   8  -6   5    3.33    1.78
   8  -6   5    2.85    1.28
   8  -6   5    5.79    1.32
  -8   6  -5    2.74    1.17
   3 -12  -2   26.42    2.12
  -3  12   2   21.51    1.89
   3 -12  -2   18.40    2.07
   3 -12  -2   28.05    3.96
  -7  -9  -8   61.91    5.02
  -7  -9  -8   61.88    5.39
  -5  -1   9   -0.81    2.08
   5   1  -9   -0.54    1.50
   5   1  -9    1.09    1.08
  -5  -1   9    0.26    1.13
   4  -6  10    0.56    1.55
  -4   6 -10    1.52    1.44
   4  -6  10    1.94    1.46
   4  -6  10    0.09    1.09
   4  -6  10    0.49    1.62
  -4   6 -10    1.29    1.33
  -4   6 -10    0.75    1.12
   5 -10  -7   29.69    3.55
   5 -10  -7   28.64    3.92
   5 -10  -7   40.70    3.12
   5 -10  -7   37.87    2.64
   5 -10  -7   28.60    2.63
   5 -10  -7   31.51    3.36
  -4   4 -12   73.73    5.39
   4  -4  12   72.94    5.47
   4  -4  12   74.96    5.89
   4  -4  12   75.64    5.13
   4  -4  12   77.98    5.12
  -4   4 -12   79.49    5.91
  -4   4 -12   78.44    5.23
   1   6  -9   13.42    1.85
   1   6  -9   10.17    1.58
   1   6  -9   14.00    1.65
  -1  -6   9   11.17    2.08
   2 -10 -12   21.20    2.21
   2 -10 -12   34.38    2.72
   2 -10 -12   32.91    2.55
   2 -10 -12   41.75    3.89
   2 -10 -12   30.93    4.24
   2 -10 -12   35.97    2.86
   7   9   7    1.51    1.10
  -7  -9  -7    2.14    1.90
   7   9   7    2.16    0.72
  -7  -9  -7    0.59    1.19
   6  -5  10   40.03    3.46
  -6   5 -10   36.49    3.10
   6  -5  10   38.33    3.62
  -6   5 -10   33.51    3.29
   6  -5  10   38.68    3.72
  -7  -6   1   35.37    2.83
   7   6  -1   28.39    2.80
  -7  -6   1   23.62    2.53
   7   6  -1   32.33    2.74
   1 -12 -10    3.46    1.40
   1 -12 -10    3.35    0.78
   1 -12 -10    2.07    0.83
   1 -12 -10    3.62    2.08
   1 -12 -10    2.82    2.45
  -3   5  13    2.14    2.09
  -3   5  13   -0.15    1.31
   3  -5 -13    1.58    1.01
   3  -5 -13    2.19    0.96
   3  -5 -13    2.25    1.04
   3  -5 -13    1.62    0.69
   8  -7   1    1.35    1.58
  -8   7  -1   -0.73    1.38
  -8   7  -1    1.13    1.43
   8  -7   1   -0.49    1.63
   8  -7   1   -0.66    1.33
   7  -3  11   36.14    3.55
  -7   3 -11   41.68    3.65
   7  -3  11   42.95    3.58
   7  -3  11   34.40    3.56
  -7   3 -11   39.22    3.39
   7  -3  11   41.67    3.92
   7  -3  11   46.18    3.29
   0   0 -14    0.46    0.96
   0   0 -14   -0.19    1.43
   0   0  14    0.78    1.65
   0   0  14   -2.13    2.72
  -3  -5 -16    3.28    1.74
  -3  -5 -16    2.29    1.42
   3   5  16    1.45    1.82
   3   5  16    3.15    1.93
   3   5  16    3.11    2.63
   2  12  11   -0.64    1.73
  -2 -12 -11    2.33    1.63
  -2 -12 -11   -3.22    2.69
  -2 -12 -11   -0.25    2.00
  -3  11  -2    2.46    1.16
  -3  11  -2    0.14    1.51
   3 -11   2    1.15    2.48
   3 -11   2    1.35    1.27
   3 -11   2    1.26    1.66
   3 -11   2    1.43    1.09
   5  -7 -10   21.08    2.18
   5  -7 -10   23.61    2.43
   5  -7 -10   30.88    3.42
   5  -7 -10   27.02    2.72
   5  -7 -10   20.08    3.31
  -6 -10 -10   31.28    3.67
   6  10  10   38.96    2.80
   8  -7   0    0.31    1.71
   8  -7   0   -0.63    1.64
  -8   7   0    1.27    1.48
  -8   7   0    0.37    1.23
   8  -7   0   -0.94    1.40
   1   5 -10   84.48    6.16
   1   5 -10   99.35    6.44
  -1  -5  10   85.79    5.85
  -1  -5  10   96.15    6.60
   1   5 -10   99.61    6.28
   7  -3  -7   62.88    4.53
   7  -3  -7   56.12    4.56
  -7   3   7   62.81    5.44
   8  -5   7    5.04    1.79
  -8   5  -7    7.37    1.95
   8  -5   7    7.49    1.64
   8  -5   7   12.86    1.85
  -8   5  -7    5.50    1.45
  -9  -2 -10   17.04    2.57
  -9  -2 -10   18.28    2.23
  -9  -2 -10   17.00    2.41
  -7  -4 -14   26.94    2.92
   7   4  14   21.88    1.94
   7   4  14   19.73    2.95
  -7  -4 -14   24.99    2.93
  -7  -4 -14   20.75    2.28
  -9   2   1   47.90    3.88
  -9   2   1   46.25    3.96
   9  -2  -1   38.71    3.52
   6  -9  -6   24.85    3.11
   6  -9  -6   26.66    2.37
   6  -9  -6   24.44    2.59
   6  -9  -6   22.51    3.53
   3  12   4    2.53    1.03
  -3 -10 -14    9.90    2.75
  -3 -10 -14   12.84    2.34
   3  10  14   13.12    3.23
  -3 -10 -14   11.82    1.12
  -3 -10 -14   11.25    2.79
   3  10  14   16.73    2.06
  -4  -3   9   61.45    5.55
   4   3  -9   56.16    4.49
   4   3  -9   61.15    4.19
  -4  -3   9   62.92    4.78
   7  -4  -7   40.18    3.57
  -7   4   7   45.46    4.50
   7  -4  -7   35.11    3.42
   7  -4  -7   43.21    3.37
  -4  11  -1   13.08    1.73
   4 -11   1   14.10    1.69
   4 -11   1   15.24    1.79
   4 -11   1   12.86    2.41
   8  -6  -3   24.66    2.63
  -8   6   3   26.65    2.79
   8  -6  -3   24.18    2.44
   8  -6  -3   24.84    2.98
   2  11  13   17.33    2.29
  -2 -11 -13   15.12    2.87
  -2 -11 -13   16.81    2.36
  -2 -11 -13   16.96    3.45
  -2 -11 -13   12.09    1.03
   9  -1  -1   -0.30    1.43
  -9   1   1   -0.83    1.58
  -9   1   1    0.48    0.86
   3  -4 -13   18.54    1.58
   3  -4 -13   19.70    2.01
  -3   4  13   21.53    3.33
  -3   4  13   22.11    2.38
  -3   4  13   15.23    3.33
   3  -4 -13   17.23    1.59
  -5   9  -5    1.32    0.85
  -5   9  -5    0.88    1.36
   5  -9   5    1.76    1.15
   5  -9   5    0.40    1.13
   5  -9   5    0.17    1.69
   7   3  14    4.43    2.05
   7   3  14    8.48    1.29
  -7  -3 -14   10.51    2.19
  -7  -3 -14    8.26    1.89
   7   3  14    6.34    2.17
  -7  -3 -14    6.63    1.53
  -1 -10 -14   70.54    5.79
  -1 -10 -14   61.90    4.96
  -1 -10 -14   59.26    6.00
   1  -6  10    4.66    1.23
   1  -6  10   10.14    1.67
  -1   6 -10    7.91    1.48
   6  -4  -9   33.78    2.89
   6  -4  -9   28.43    2.76
  -6   4   9   29.23    3.61
  -6  10   2    1.31    1.35
   6 -10  -2    0.54    1.05
   6 -10  -2    0.38    1.19
   6 -10  -2    1.76    1.91
   6 -10  -2    0.79    1.33
   8   6   2   14.12    1.90
  -8  -6  -2   12.59    2.39
  -8  -6  -2    9.82    1.75
  -7  -9  -9   95.65    5.81
  -7  -9  -9   77.99    6.40
  -7  -9  -9   75.86    6.71
   9  -2   8    2.04    1.00
   9  -2   8    5.22    1.26
   9  -2   8    2.12    1.73
   9  -2   8    1.68    1.52
  -9   2  -8    2.05    1.34
   6   4  15   60.59    3.93
  -6  -4 -15   59.34    4.33
  -6  -4 -15   64.85    5.13
   6   4  15   52.78    5.20
  -6  -4 -15   63.56    4.96
   3   4  16   74.53    4.81
   3   4  16   76.59    6.14
   3   4  16   79.04    6.93
   3   4  16   83.21    5.84
  -3  -4 -16   80.10    5.81
   3   4  16   79.60    6.29
  -3  -4 -16   73.11    5.43
   1  -5  11    3.28    1.18
  -1   5 -11    3.82    1.18
   1  -5  11    4.85    1.39
   1  -5  11    2.13    0.88
   5   5  -6    2.77    1.45
   5   5  -6    6.50    1.58
   5   5  -6    3.37    1.25
  -5  -5   6    4.68    1.58
  -5  -5   6    3.65    1.79
   6  -3  12    2.66    1.78
  -6   3 -12    3.00    1.32
   6  -3  12    2.58    1.75
   6  -3  12    4.64    1.35
  -6   3 -12    3.90    1.68
   6  -3  12    2.86    1.54
   6  -3  12    4.07    1.35
   6  -3  12    4.20    1.24
  -5   1  10   -0.25    1.21
   5  -1 -10    0.25    0.98
  -5   1  10    2.68    2.46
   5  -1 -10   -0.53    1.47
   8  -5  -4   18.65    2.46
   8  -5  -4   16.63    1.89
   8  -5  -4   19.56    2.43
  -8   5   4   18.52    2.30
   6  10   5   54.75    5.03
  -6 -10  -5   51.69    3.75
   6  10   5   41.77    3.35
   6  10   5   46.50    2.97
   8   0  -4   20.18    2.41
  -8   0   4   22.61    1.98
  -8   0   4   20.64    2.59
  -8  -7 -10    4.61    1.42
  -8  -7 -10    3.94    1.06
  -8  -7 -10    3.25    1.82
  -9  -3 -10   11.47    1.91
  -9  -3 -10   11.15    2.13
  -9  -3 -10   12.29    2.18
   3   6  16    0.21    1.93
   3   6  16    1.68    1.72
  -3  -6 -16    0.98    1.84
  -3  -6 -16    2.96    1.38
  -3  -6 -16    1.57    1.62
   1  12   1   54.94    4.59
  -1 -12  -1   49.66    4.10
   1  12   1   54.60    3.96
   1 -10 -13   -0.19    0.66
   1 -10 -13   -0.66    1.10
   1 -10 -13   -0.39    1.13
   7  -5   9   10.32    1.51
   7  -5   9    9.00    1.91
  -7   5  -9    6.63    1.69
   7  -5   9    5.40    0.71
   7  -5   9    5.99    1.84
   7  -5   9    7.85    1.93
  -7   5  -9    7.57    1.68
  -4 -11 -12   91.16    7.72
  -4 -11 -12   90.91    7.06
   4  11  12  109.51    7.74
   4  11  12   99.13    6.59
   4  11  12   88.04    5.52
  -4 -11 -12   94.75    7.12
   3  -3  13   19.94    1.94
  -3   3 -13   20.39    2.09
  -3   3 -13   20.11    2.69
   3  -3  13   20.44    3.08
   3  -3  13   22.09    2.27
  -6  10   1    2.31    1.23
   6 -10  -1    1.17    1.19
   6 -10  -1    1.45    1.23
   6 -10  -1    2.18    1.02
  -6  10   1    2.09    1.03
   6 -10  -1    1.79    0.64
   8  -7   2    1.18    1.64
   8  -7   2    0.86    1.87
   8  -7   2    1.61    1.55
  -8   7  -2    0.15    1.54
  -8   7  -2    0.12    1.29
   8  -7   2    0.52    1.25
   8  -7   2    0.55    0.62
  -3  -8   5   47.34    4.12
   3   8  -5   37.59    2.91
   3   8  -5   42.68    3.69
  -2   5  14    0.37    2.89
  -2   5  14    0.51    1.38
   2  -5 -14    0.04    0.57
   2  -5 -14   -0.39    1.15
   2  -5 -14   -0.29    0.92
  -8  -3   2   23.35    2.15
  -8  -3   2   20.21    2.19
  -8  -3   2   25.55    2.69
   8   3  -2   19.60    2.33
   9  -4   5    4.93    1.28
  -9   4  -5    5.01    1.16
   9  -4   5    5.90    1.68
  -9   4  -5    8.44    1.89
  -9   4  -5    6.49    1.68
   9  -4   5    5.42    1.45
  -9  -1 -10    6.60    1.67
   9   1  10    8.41    1.75
  -9  -1 -10    8.17    1.80
   9   1  10    5.00    2.03
   2   5  16   17.62    2.92
   2   5  16   16.31    2.57
  -2  -5 -16   25.39    2.87
  -2  -5 -16   24.47    2.40
   2   5  16   17.75    3.43
   2   5  16   19.26    2.56
  -9  -5  -7    1.60    1.42
  -9  -5  -7    3.67    1.52
   9   5   7    1.62    1.09
  -9  -5  -7    0.89    1.82
  -9  -5  -7    0.64    1.41
  -3   6  13    6.03    1.61
  -3   6  13    5.15    2.46
   3  -6 -13    4.70    1.13
   3  -6 -13    4.40    1.16
   3  -6 -13    5.26    0.79
   3  -6 -13    5.63    1.18
   3  -6 -13    7.14    2.30
  -1 -11 -13   31.84    4.69
  -1 -11 -13   39.99    3.79
   1  11  13   38.55    3.33
  -1 -11 -13   47.27    3.22
  -1 -11 -13   41.45    4.37
  -7  -7 -13   51.75    3.71
  -7  -7 -13   54.26    4.28
  -7  -7 -13   46.51    4.05
  -7  -7 -13   49.45    4.60
   2   3 -11    9.92    1.91
  -2  -3  11   13.39    2.83
   2   3 -11   11.62    1.46
  -2  -3  11    7.53    1.82
   2   3 -11   10.81    1.46
   9  -4   0   28.32    2.41
  -9   4   0   27.36    2.78
  -9   4   0   28.15    2.97
   9  -4   0   29.12    2.83
  -5 -11 -10    0.31    2.32
  -5 -11 -10   -0.78    1.86
   5  11  10    0.69    1.85
   5  11  10    1.43    0.74
   1   1 -13    3.86    1.47
  -1  -1  13    3.92    1.70
   1   1 -13    5.29    1.76
  -1  -1  13    2.42    2.62
   1   1 -13    5.90    1.21
   7   9   6    7.89    1.01
  -7  -9  -6    5.88    1.49
   7   9   6    8.38    1.45
  -7  -9  -6    8.04    2.23
   7   9   6   11.52    3.06
  -6   3   9   36.92    4.07
   6  -3  -9   28.26    2.65
  -6   3   9   37.84    2.85
  -6  -5 -15   13.87    1.68
  -6  -5 -15   14.11    2.26
   6   5  15   13.69    1.31
  -6  -2   7   17.53    1.98
  -6  -2   7   10.61    2.44
   6   2  -7   15.24    1.84
   6   2  -7   15.46    2.18
   6   2  -7   14.99    1.96
   8   4  -1   51.29    4.10
  -8  -4   1   55.11    4.19
  -8  -4   1   52.15    3.85
   2 -12  -9    1.38    0.88
   2 -12  -9   -1.76    2.68
   2 -12  -9    0.73    1.75
   2 -12  -9    0.22    0.53
   2 -12  -9    0.51    1.67
   2 -12  -9   -0.76    1.03
   2 -12  -9    0.31    2.60
   2 -12  -9    0.21    0.88
   9  -1   9   37.37    3.63
  -9   1  -9   30.76    3.14
  -9   1  -9   35.80    3.13
   9  -1   9   40.93    3.54
   2  12   2   47.71    3.56
   2  12   2   50.86    4.34
   7  -7   6    9.62    1.70
  -7   7  -6   13.88    2.28
   7  -7   6   14.02    2.37
  -7   7  -6   15.48    2.03
   7  -7   6    7.80    1.08
   1   7  -8   10.54    1.81
   1   7  -8    6.97    1.41
   1   7  -8    5.84    1.30
  -1  -7   8    5.02    1.69
   2   8  -6   30.93    3.15
   2   8  -6   33.76    2.60
  -2  -8   6   33.30    3.26
  -9  -5  -6    0.38    1.38
  -9  -5  -6    0.28    1.50
  -9  -5  -6    1.50    1.44
  -9  -5  -6    0.88    1.78
   9   5   6    0.61    1.21
   0 -12 -11   68.04    5.17
   0 -12 -11   65.99    6.29
   0  12  11   69.74    5.34
  -8   7   1   39.85    3.25
   8  -7  -1   41.40    3.45
   8  -7  -1   32.98    3.23
   8  -7  -1   33.97    3.60
   8  -7  -1   30.23    3.00
  -8   7   1   34.20    3.38
   5 -11  -3    7.78    1.13
   5 -11  -3    6.10    2.03
  -5  11   3    5.99    1.37
   5 -11  -3    3.39    1.47
   5 -11  -3    5.55    1.19
   5 -11  -3    4.39    0.78
  -6   0 -14   55.10    4.12
   6   0  14   62.31    5.37
   6   0  14   66.30    4.35
   6   0  14   59.27    5.50
   6   0  14   61.16    4.29
  -6   0 -14   58.46    4.75
  -9  -4  -3   64.50    4.83
  -9  -4  -3   63.04    4.69
   9   4   3   73.74    5.32
  -9  -4  -3   64.62    5.13
   2 -11 -11    1.61    0.79
   2 -11 -11    2.29    2.49
   2 -11 -11    2.20    2.34
   2 -11 -11    2.98    1.32
   2 -11 -11    1.21    1.02
   2 -11 -11    1.76    1.50
   2 -11 -11    0.27    1.99
  -7  -5 -14   28.22    2.94
  -7  -5 -14   20.11    2.79
   7   5  14   24.07    3.16
   7   5  14   25.36    2.12
  -7  -5 -14   26.05    2.33
  -6  10   3    3.41    1.36
   6 -10  -3    2.54    1.52
   6 -10  -3    1.51    1.25
   6 -10  -3    4.76    2.18
   6 -10  -3    4.63    1.32
  -7   2   7   67.19    5.74
   3 -12  -7    7.64    1.98
   3 -12  -7   12.42    1.52
   3 -12  -7   13.13    1.29
   3 -12  -7   13.24    2.32
   3 -12  -7   10.84    1.25
   3 -12  -7   13.02    1.28
   3 -12  -7   18.73    3.57
   3 -10 -11   48.65    5.16
   3 -10 -11   44.86    3.15
   3 -10 -11   36.18    3.13
   3 -10 -11   50.16    3.86
   3 -10 -11   53.73    3.79
   3 -10 -11   56.79    4.90
  -2  -9 -15   69.70    6.50
  -2  -9 -15   77.35    5.73
   2   9  15   84.59    6.48
   5   4  -7   36.77    3.30
  -5  -4   7   32.89    3.56
   5   4  -7   37.59    2.98
  -5  -4   7   29.19    2.91
   6  -5  -9   24.37    2.66
   6  -5  -9   36.34    3.39
   6  -5  -9   31.21    2.73
  -6   5   9   32.63    3.93
  -9   3   1   55.07    4.52
  -9   3   1   62.50    4.61
   1 -11 -12   15.89    1.85
   1 -11 -12   15.75    1.69
   1 -11 -12    7.50    1.07
  -1   1 -14   64.70    4.52
  -1   1 -14   67.49    5.26
   1  -1  14   68.26    5.47
   1  -1  14   69.63    6.39
   4   5  16   10.80    2.40
   4   5  16    7.31    2.86
  -4  -5 -16   10.57    1.89
   4   5  16   12.45    2.35
  -4  -5 -16   12.01    2.15
   5  -1  14   91.46    6.64
  -5   1 -14  104.25    7.50
   5  -1  14   87.60    7.27
   5  -1  14   92.56    6.05
   5  -1  14   92.76    7.08
   5  -1  14   94.60    5.91
   4  -5 -12   23.60    2.55
   4  -5 -12   44.62    2.95
  -4   5  12   42.60    4.58
   4  -5 -12   36.44    2.46
   4  -5 -12   43.29    3.86
  -4   5  12   41.91    3.37
   4  -5 -12   30.93    2.55
   4  -5 -12   43.49    3.06
   4  -5 -12   27.15    2.63
   5   6  -5   32.06    2.78
  -5  -6   5   37.69    3.45
   5   6  -5   34.73    2.98
   5   6  -5   33.59    2.83
  -7  -8 -12  108.32    8.05
  -7  -8 -12  114.06    8.42
  -7  -8 -12  116.94    8.02
  -7  -8 -12  117.91    7.46
   5 -11  -2    1.79    1.13
  -5  11   2    0.21    1.10
   5 -11  -2    0.32    0.70
   5 -11  -2    0.88    0.88
   5 -11  -2   -0.14    1.14
   2   6  16   16.83    2.63
   2   6  16   22.15    2.78
  -2  -6 -16   17.37    2.12
  -2  -6 -16   24.83    3.15
  -2  -6 -16   22.81    2.60
   2   6  16   12.00    3.21
  -6  -7   2    0.50    1.29
   6   7  -2    0.19    1.95
   6   7  -2    0.82    1.28
   6   7  -2   -0.43    1.19
   9  -3   7    5.22    1.62
   9  -3   7    6.00    1.14
   9  -3   7   10.04    1.94
  -9   3  -7    6.01    1.46
   0   2 -13   76.38    5.99
   0   2 -13   80.29    5.32
   0  -2  13   80.08    6.86
   0  -2  13   80.62    6.12
  -6  -3 -15   25.36    2.93
  -6  -3 -15   22.40    2.80
  -6  -3 -15   25.34    2.30
   6   3  15   16.95    3.40
   6   3  15   23.11    1.92
   6   3  15   27.52    3.29
   1 -12   0    3.44    1.53
  -1  12   0    0.92    1.22
   1 -12   0    0.81    2.15
  -1  12   0    1.83    1.81
   1 -12   0    1.98    0.98
   4  -4 -12   25.56    2.02
  -4   4  12   23.19    3.26
  -4   4  12   24.77    2.43
  -4   4  12   20.08    3.53
  -2   4  14    1.11    2.44
  -2   4  14    3.35    1.56
   2  -4 -14    4.47    0.81
   2  -4 -14    3.51    1.42
   2  -6 -14    1.47    1.11
   2  -6 -14    0.68    0.44
   2  -6 -14   -0.56    2.02
  -2   6  14    1.16    1.50
   2  -6 -14    0.45    0.82
   2  -6 -14    0.99    0.56
   5  11   5   47.35    4.05
  -5 -11  -5   43.70    3.13
   5  11   5   45.44    4.83
   5  11   5   39.53    3.13
   0  13   6    9.54    2.17
   0 -13  -6   12.51    2.77
   0  13   6   11.19    1.49
   0 -13  -6   10.72    1.31
  -5  -9 -14  136.23    9.34
   5   9  14  131.49    8.97
  -5  -9 -14  134.07    9.36
  -5  -9 -14  127.21    8.10
  -5  -9 -14  129.77    9.49
   5   9  14  149.03   10.10
  -9  -5  -8    1.79    1.69
   9   5   8    2.11    1.10
  -9  -5  -8    2.00    1.53
  -9  -5  -8    1.39    1.42
   4 -10   4   -0.18    1.78
   4 -10   4    0.09    0.98
   4 -10   4    1.78    1.30
  -4  10  -4    1.69    1.33
  -4  10  -4   -0.57    1.42
  -6   6  -9   37.37    3.53
   6  -6   9   38.96    3.56
  -6   6  -9   37.72    3.28
   6  -6   9   37.75    3.47
   6  -6   9   41.51    3.19
   6  -6   9   38.44    3.66
  -3  -9 -15   14.39    3.13
   3   9  15   15.18    1.71
  -3  -9 -15   11.48    2.08
  -3  -9 -15   11.04    2.72
   3   9  15    7.17    2.81
   7  -2  12    9.85    1.57
  -7   2 -12   11.05    2.00
   7  -2  12   12.64    2.44
   7  -2  12   10.14    2.12
   7  -2  12   11.98    1.92
   2   4  16    6.78    1.88
   2   4  16    8.40    2.26
  -2  -4 -16    4.40    1.38
   2   4  16    9.28    3.11
  -2  -4 -16    6.36    1.80
   2   4  16   10.01    2.64
  -1  -4  11   59.10    5.51
   1   4 -11   65.98    4.69
   1   4 -11   67.75    4.94
   1   4 -11   69.89    4.63
  -1  -4  11   63.95    5.02
  -1  -4  11   64.19    4.29
   1  -7   9   44.86    3.45
   1  -7   9   48.12    4.05
  -1   7  -9   50.96    3.85
  -1   7  -9   50.33    3.93
  -1   7  -9   51.80    3.75
   1  -7   9   43.50    3.65
   5  -8   7   16.74    2.31
  -5   8  -7   17.95    2.16
   5  -8   7   14.29    2.13
   4   4  16   57.13    3.68
  -4  -4 -16   60.54    4.78
  -4  -4 -16   64.72    5.11
   4   4  16   54.45    5.64
   4   4  16   59.30    5.15
   5   1  15   24.44    2.82
   5   1  15   25.68    2.10
  -5  -1 -15   30.24    3.15
  -5  -1 -15   28.99    2.52
   5   1  15   29.49    3.79
  -7   5   7   19.79    2.99
   7  -5  -7   21.72    2.56
   7  -5  -7   14.19    2.05
   7  -5  -7   19.37    2.32
   2  -9 -13    5.54    1.26
   2  -9 -13    4.26    2.39
   2  -9 -13    4.20    0.91
   2  -9 -13    5.44    1.32
   2  -9 -13    6.24    1.19
   4  -9   6   12.71    2.19
  -4   9  -6    9.31    1.84
  -4   9  -6    8.58    1.61
   4  -9   6   10.15    1.81
   4  -9   6   11.15    1.61
  -1   1  14   41.30    3.95
   1  -1 -14   42.85    3.88
   1  -1 -14   43.64    3.12
  -1   1  14   49.20    5.23
  -1   1  14   53.23    4.85
   2  -3  13   17.18    2.46
   2  -3  13   18.60    1.94
  -2   3 -13   16.36    1.85
   2  -3  13   12.45    2.79
   2  -3  13   16.73    1.75
   8   7   4   79.29    5.40
  -8  -7  -4   63.27    4.76
  -8  -7  -4   66.45    5.45
  -9   0   1    1.91    1.12
   9   0  -1    3.02    1.52
  -4   7  -9   11.78    1.72
   4  -7   9   12.30    1.64
   4  -7   9   12.19    1.99
  -4   7  -9   10.65    1.93
   4  -7   9    7.24    1.89
   4  -7   9   14.56    2.21
   5 -11  -4   -0.66    1.03
   5 -11  -4   -0.18    1.41
   5 -11  -4    0.58    1.86
   5 -11  -4    0.06    0.56
   5 -11  -4    0.88    0.97
   0  13   7    6.39    2.08
   0  13   7    9.53    1.35
   0 -13  -7    8.71    1.75
  -7  -2 -14   22.27    2.69
  -7  -2 -14   21.33    2.26
  -7  -2 -14   16.82    2.68
   7   2  14   21.91    3.09
   7   2  14   20.89    3.04
   7   2  14   20.44    1.91
   4  -3  13   32.92    2.95
   4  -3  13   29.11    2.50
   4  -3  13   33.25    3.64
   4  -3  13   30.13    3.27
  -4   3 -13   34.03    3.40
  -4   3 -13   35.24    2.76
  -4   3 -13   30.96    2.85
  -3 -11 -13    8.43    2.15
   3  11  13    7.84    2.96
  -3 -11 -13    1.08    2.47
   3  11  13    7.43    1.69
  -3 -11 -13    7.96    2.46
   6 -10   0    3.28    1.22
  -6  10   0    7.15    1.24
   6 -10   0    2.33    1.75
  -6  10   0    5.07    1.52
   6 -10   0    3.62    0.87
   6 -10   0    4.35    1.09
   6 -10   0    5.19    1.34
   0  -9   6   40.61    3.74
   0   9  -6   46.63    3.95
   3   0 -12   48.98    4.35
   3   0 -12   62.75    3.94
   3   0 -12   62.31    4.13
  -3   0  12   61.01    5.89
  -3   0  12   60.20    4.70
   4  11   2   97.04    6.99
   4  11   2   93.17    6.21
   1   1  15    1.49    1.64
  -1  -1 -15    2.49    1.62
  -1  -1 -15    1.09    0.95
   1   1  15    3.27    2.92
   1   1  15    3.21    2.24
  -8  -2   3    5.84    1.73
  -8  -2   3    3.47    1.18
   8   2  -3    2.96    1.49
   3  -3 -13    1.96    1.21
   3  -3 -13    3.91    0.88
  -3   3  13    3.30    1.45
  -3   3  13    2.15    2.73
   3  -3 -13    2.89    1.21
  -8   0 -12   58.25    4.78
   8   0  12   67.67    4.50
   8   0  12   53.71    5.07
   8   0  12   56.07    4.82
  -8   0 -12   61.37    4.58
   0 -13  -5    2.56    0.95
   0 -13  -5    4.53    2.46
   0  13   5    4.22    1.19
   0  13   5    2.60    1.89
   1  -4  12   13.09    1.64
  -1   4 -12   14.36    1.68
  -1   4 -12   12.15    2.39
   1  -4  12   11.21    1.57
   1  -4  12   10.85    2.06
   2  10  -3   20.42    2.13
   2  10  -3   21.86    2.83
   6  -8   6   14.55    1.91
   6  -8   6   11.65    2.23
  -6   8  -6   12.89    2.06
   6  -8   6   13.95    2.26
   7  -8   4    1.98    1.13
   7  -8   4    3.88    1.81
   7  -8   4    3.25    1.80
  -7   8  -4    4.50    1.32
   7  -8   4    5.99    1.42
  -7   8  -4    4.83    1.82
   7  -8   4    3.14    1.03
   1  13   7    0.72    0.96
  -1 -13  -7    0.76    1.52
   1  13   7   -0.54    1.83
   4   6  16    4.01    1.90
  -4  -6 -16    4.86    1.85
  -4  -6 -16    3.30    1.53
   4   6  16    4.20    2.08
   3 -12  -1   24.94    2.57
   3 -12  -1   34.42    2.58
   3 -12  -1   32.61    4.48
  -3  12   1   26.18    2.69
  -3  12   1   27.19    2.23
   3 -12  -1   33.31    3.49
  -7  -9 -10   23.92    3.24
  -7  -9 -10   25.16    2.18
  -7  -9 -10   21.57    2.83
  -9  -5  -5   17.57    2.23
  -9  -5  -5   17.46    2.22
  -9  -5  -5   20.62    2.69
   9   5   5   15.78    1.91
   1  13   6    6.39    1.99
   1  13   6    6.59    1.18
  -4 -12  -8   36.85    3.88
   4  12   8   47.88    5.20
   4  12   8   41.00    3.90
   4  12   8   41.45    2.95
   2  11  -1   22.49    2.19
  -2 -11   1   24.92    2.79
   2  11  -1   27.12    3.06
   5 -10   3   18.85    1.89
   5 -10   3   16.42    2.48
  -5  10  -3   17.93    2.26
  -5  10  -3   19.67    1.59
   5 -10   3   17.47    1.95
   3  -9 -12   28.52    1.86
   3  -9 -12   38.56    2.89
   3  -9 -12   37.21    3.66
   3  -9 -12   20.38    2.18
   3  -9 -12   34.95    2.68
   3  -9 -12   28.39    2.22
   3  -9 -12   31.06    4.24
  -2   8  -8   36.15    2.95
   2  -8   8   30.40    3.27
  -2   8  -8   29.27    2.51
   2  -8   8   26.88    2.40
   2  -8   8   29.47    3.04
  -4 -12  -7    1.76    1.84
  -4 -12  -7    3.31    0.92
   4  12   7    2.49    1.87
   4  12   7    2.82    0.98
   4  12   7    4.23    3.05
   7  -7  -6    9.28    1.65
   7  -7  -6   11.39    1.66
   7  -7  -6   12.41    2.03
   7  -7  -6   11.78    2.55
   3   3  16   53.65    4.73
   3   3  16   53.82    4.11
   3   3  16   54.13    4.71
   3   3  16   46.07    3.30
  -3  -3 -16   57.73    4.74
   3   3  16   58.21    5.52
  -2  12   0    0.91    1.83
  -2  12   0   -0.88    1.33
  -2  12   0   -0.95    0.97
   2 -12   0    1.38    1.34
   2 -12   0   -1.77    1.85
   2 -12   0    0.58    0.98
   4  -6 -12   35.73    2.23
  -4   6  12   37.72    4.20
  -4   6  12   33.92    2.90
   4  -6 -12   28.45    2.26
   4  -6 -12   23.65    3.32
   4  -6 -12   39.33    3.16
   4  -6 -12   21.42    2.40
   4  -6 -12   22.64    2.33
   4  -6 -12   39.38    2.78
  -5  11   1    0.10    1.16
   5 -11  -1    0.61    0.78
   5 -11  -1    1.15    1.12
  -8  -5   0   82.54    5.91
   8   5   0   99.30    6.83
  -8  -5   0   99.78    6.33
   8  -7   3    1.11    1.22
   8  -7   3    0.21    1.88
   8  -7   3    0.81    0.86
  -8   7  -3    1.45    1.38
   8  -7   3    0.14    1.43
  -8   7  -3   -0.76    1.54
   8  -7   3   -0.70    1.71
   4   0 -11    0.16    0.95
   4   0 -11   -1.20    1.36
  -4   0  11    0.32    2.42
  -4   0  11   -0.29    1.26
  -9  -4 -10   41.49    3.37
  -9  -4 -10   38.43    3.65
  -9  -4 -10   37.56    3.82
   4 -11  -8   18.77    2.50
   4 -11  -8   13.63    2.98
   4 -11  -8   10.55    1.08
   4 -11  -8   13.35    3.43
   4 -11  -8   13.23    1.72
   4 -11  -8   11.89    2.40
   4 -11  -8   13.67    1.59
   4 -11  -8   11.91    1.31
   0   8  15    7.83    1.94
   0  -8 -15    7.47    1.58
   0  -8 -15    3.54    2.28
   0 -12   0   10.72    1.53
   0  12   0    9.00    2.19
   0  12   0   12.11    1.58
   0 -12   0   13.10    2.75
   0 -12   0   10.10    1.91
   3  -8   8   -0.35    1.38
   3  -8   8    1.20    1.38
  -3   8  -8    2.51    1.56
   3  -8   8    1.64    1.13
  -3   8  -8    2.70    1.19
   6  10  11   12.04    3.23
   6  10  11    8.27    1.12
  -6 -10 -11   10.80    2.49
   6  10  11   10.68    2.01
  -6  -6 -15    0.36    1.08
   6   6  15    1.35    0.70
  -6  -6 -15    1.93    1.59
  -3 -12 -11   38.49    3.89
   3  12  11   39.72    4.67
   3  12  11   41.08    3.75
  -3 -12 -11   42.35    4.83
   3  12  11   42.26    2.76
   4   8  -4   17.58    2.48
  -4  -8   4   19.14    2.53
   7   1  -6    0.83    1.24
  -7  -1   6    1.30    1.85
  -7  -1   6    0.90    1.08
   7   1  -6    1.96    1.39
  -3  -7 -16   -1.06    1.89
   3   7  16    0.72    1.90
   3   7  16   -0.23    2.08
  -3  -7 -16    2.64    1.69
  -3  -7 -16   -0.82    1.28
   3  10  -2   13.09    2.51
   3  10  -2   14.44    1.82
  -6   2   9    3.76    1.10
  -6   2   9    4.75    2.39
  -6   2   9    1.13    2.08
   6  -2  -9    3.76    1.55
   6 -10  -4   20.02    2.23
   6 -10  -4   17.93    2.50
   6 -10  -4   26.78    2.99
   6 -10  -4   24.10    2.20
  -6  -8 -14   -0.21    1.82
  -6  -8 -14    0.16    0.92
  -6  -8 -14   -0.22    1.83
  -5 -10 -13   54.93    5.48
  -5 -10 -13   61.47    5.42
   5  10  13   68.15    5.02
   5  10  13   59.00    5.85
  -5 -10 -13   70.99    5.53
  -5 -10 -13   61.40    4.08
  -3   0 -15   33.80    2.80
   3   0  15   36.21    4.31
   3   0  15   36.51    3.73
  -3   0 -15   33.91    3.47
   3   0  15   31.75    2.52
   3   0  15   34.35    3.65
  -1  13   6   36.92    2.87
   1 -13  -6   27.73    4.22
   1 -13  -6   31.41    2.32
   1 -13  -6   27.34    2.79
  -1  13   6   29.89    3.42
   9   0  10   -0.82    1.89
   9   0  10    0.28    1.50
  -9   0 -10    0.17    1.51
  -9   0 -10    1.36    1.64
  -4   3  12   13.59    1.85
  -4   3  12   12.33    2.86
  -4   3  12   13.83    3.22
   4  -3 -12   12.90    1.37
   7  -9  -1   15.92    2.02
  -7   9   1   17.87    2.28
  -7   9   1   17.76    2.08
   7  -9  -1   17.43    2.16
   7  -9  -1   18.34    2.21
   0  -2 -15   62.19    4.17
   0  -2 -15   64.57    5.00
   0   2  15   61.65    5.65
   0   2  15   64.06    5.19
   7   9   5   45.76    3.26
  -7  -9  -5   44.03    4.56
  -7  -9  -5   51.27    3.77
   7   9   5   54.71    4.99
   7   9   5   47.85    3.57
  -1  13   5   45.09    3.53
   1 -13  -5   52.09    5.24
   1 -13  -5   48.76    3.43
  -1  13   5   45.90    4.22
   6   9  13   21.13    3.47
  -6  -9 -13   16.82    2.76
  -6  -9 -13   18.40    1.72
  -6  -9 -13   13.72    2.70
   6  -9   4   14.79    1.79
  -6   9  -4   13.05    2.15
   6  -9   4   14.79    2.47
  -6   9  -4   15.74    1.63
   6  -2  13    2.76    1.97
   6  -2  13    1.65    1.99
  -6   2 -13    3.53    1.68
   6  -2  13    4.69    1.35
   6  -2  13    4.89    1.22
   6  -2  13    4.15    1.28
  -8  -6 -12   14.08    1.96
  -8  -6 -12   10.74    2.46
  -8  -6 -12   11.72    1.72
   1  13   8   -0.18    1.76
   1  13   8    2.21    0.95
  -1 -13  -8    1.52    1.57
   7   8   2   68.57    4.94
   7   8   2   70.17    4.89
  -7  -8  -2   68.87    4.87
   7   8   2   72.57    6.00
   5  -9  -9    7.91    1.90
   5  -9  -9    6.43    1.21
   5  -9  -9    6.88    1.43
   5  -9  -9    4.24    2.39
   5  -9  -9    7.10    1.69
   5  -9  -9   11.20    3.01
   5  -5  11    2.71    1.45
   5  -5  11    3.28    1.21
   5  -5  11    5.03    1.85
  -5   5 -11    4.19    1.62
  -5   5 -11    1.79    1.23
   5  -5  11    1.81    1.61
   8  -7  -2   13.51    2.58
   8  -7  -2   13.58    1.92
   8  -7  -2    9.77    1.98
  -8   7   2   16.05    2.10
  -8   7   2    9.13    2.09
   8  -7  -2   14.42    2.35
   3  -7 -13    9.36    0.79
   3  -7 -13    8.57    1.26
   3  -7 -13   10.25    2.60
  -3   7  13    9.60    1.70
   3  -7 -13   11.84    1.46
   3  -7 -13    4.77    1.18
  -3   7  13    8.97    2.70
   3  -7 -13    5.79    1.15
   1   9  15   50.15    4.49
  -1  -9 -15   70.07    6.27
  -1  -9 -15   67.95    5.23
   9  -5   2   -0.62    1.58
  -9   5  -2   -0.42    1.52
  -9   5  -2   -0.75    1.44
   9  -5   2   -0.25    1.46
   9  -5   2    0.55    1.92
   9  -5   2   -0.83    1.56
   0  13   8   18.97    2.59
   0  13   8   18.48    1.75
   0 -13  -8   13.73    2.04
   4  12   9   56.61    5.23
   4  12   9   39.48    2.88
  -4 -12  -9   37.38    3.99
   4  12   9   42.34    3.86
   9   5   9   28.33    2.33
  -9  -5  -9   27.46    2.87
  -9  -5  -9   25.39    3.17
  -9  -5  -9   27.08    2.66
   1  11  -2    9.82    1.06
   1  11  -2    7.88    1.51
   1  11  -2   11.51    2.35
  -1 -11   2    8.06    1.88
   7  -6   8    9.13    1.88
  -7   6  -8   13.81    2.12
   7  -6   8   15.39    2.28
  -7   6  -8   12.30    2.01
   7  -6   8   12.17    1.73
   7  -6   8   14.45    2.25
  -7   9   0    6.84    1.72
   7  -9   0    8.06    1.63
   7  -9   0    6.03    1.56
   7  -9   0    3.62    1.56
  -7   9   0   10.27    1.58
   3 -11 -10   22.46    3.03
   3 -11 -10   21.86    1.57
   3 -11 -10   17.48    3.60
   3 -11 -10   18.85    1.93
   3 -11 -10   23.80    2.32
   3 -11 -10   25.72    2.73
   3 -11 -10   19.14    1.80
   3 -11 -10   22.60    3.83
   2   7  16   35.69    3.60
  -2  -7 -16   31.22    2.82
  -2  -7 -16   32.40    3.23
  -2  -7 -16   30.05    3.85
   2   7  16   27.92    3.45
  -5  -3   8   87.85    6.99
  -5  -3   8   86.91    6.20
   5   3  -8   90.16    5.80
   5   3  -8   80.44    6.02
  -9  -2   0    1.16    1.44
   9   2   0    0.75    1.39
  -9  -2   0    2.19    1.36
  -9  -2   0    1.45    1.29
  -9  -3  -1   42.87    3.79
   9   3   1   45.16    3.79
  -9  -3  -1   45.33    3.51
  -9  -3  -1   41.84    3.62
  -8   3   5   46.28    4.12
  -8   3   5   37.74    3.68
   3   2 -11   56.21    3.76
   3   2 -11   46.26    4.03
   3   2 -11   52.48    3.76
  -3  -2  11   58.16    5.67
  -3  -2  11   56.22    4.49
   1  -9 -14    0.91    1.13
   1  13   5   24.57    3.06
   1  13   5   25.71    2.20
   8  -3  10    5.07    2.01
  -8   3 -10    5.93    1.63
  -8   3 -10    1.05    1.53
   8  -3  10    5.13    1.61
   8  -3  10    4.79    1.62
  -6   6   9   42.82    4.46
   6  -6  -9   38.92    3.24
   6  -6  -9   32.39    2.99
   6  -6  -9   36.01    3.77
   8   3  13   -0.99    2.05
  -8  -3 -13    0.73    1.35
  -8  -3 -13    1.06    1.60
   8   3  13    0.11    1.16
  -8  -3 -13    1.02    1.85
  -5  -8 -15   91.44    6.91
  -5  -8 -15  100.05    7.16
  -5  -8 -15   93.48    6.96
   5   8  15   98.87    7.35
   5   8  15   91.85    6.44
   5   8  15  100.78    7.65
  -5  -8 -15   88.66    5.90
  -4 -10 -14   29.83    2.28
  -4 -10 -14   38.05    3.99
   4  10  14   37.02    3.22
  -4 -10 -14   33.84    3.55
   4  10  14   31.50    4.29
  -4 -10 -14   36.69    4.19
   4   3  16   56.86    3.85
  -4  -3 -16   60.66    5.00
   4   3  16   65.71    6.06
   4   3  16   62.92    5.22
   4   3  16   63.08    5.33
   2  -3 -14    1.96    1.32
   2  -3 -14    2.15    0.81
  -2   3  14    4.23    2.33
  -2   3  14    4.16    2.77
  -2   3  14    0.54    1.48
   2  -3 -14    1.25    1.06
  -5  -7   4   -0.18    1.50
   5   7  -4    1.49    1.36
   2  -7 -14    0.31    2.17
   2  -7 -14    1.77    1.10
   2  -7 -14    0.08    0.81
  -2   7  14    1.29    1.48
  -4 -12  -6    0.83    0.73
   4  12   6    0.32    2.66
   4  12   6    1.80    0.99
   4  12   6   -0.19    2.00
  -7  -7   0    1.01    1.33
   7   7   0    2.38    2.00
   7   7   0    0.36    1.33
   7   7   0    0.58    1.23
   7  -8  -5   20.97    3.12
   7  -8  -5   17.95    2.26
   7  -8  -5   19.03    2.33
   7  -8  -5   17.21    2.73
   7  -8  -5   12.85    2.03
   5 -11  -5   15.56    1.71
   5 -11  -5   19.57    1.92
   5 -11  -5   11.96    2.30
   5  -4  12   -0.72    1.16
   5  -4  12    0.41    1.70
   5  -4  12    0.54    0.96
  -5   4 -12    1.75    1.72
  -5   4 -12    0.11    1.22
   5  -4  12    0.47    1.55
  -2  10  -5   27.20    2.76
  -2  10  -5   30.50    2.44
   2 -10   5   34.70    3.83
   2 -10   5   32.60    2.70
   2 -10   5   33.10    3.20
   7   6  14   12.24    1.47
   7   6  14   15.42    2.70
  -7  -6 -14   16.37    1.78
  -7  -6 -14   12.62    2.41
  -7  -6 -14   15.59    2.38
   7  -9  -2   14.06    2.43
   7  -9  -2   11.31    1.88
  -7   9   2   10.81    1.95
  -7   9   2    8.54    1.67
   7  -9  -2    8.58    1.79
   9  -5   3   -0.35    1.81
  -9   5  -3    0.56    1.50
   9  -5   3    0.46    1.22
   9  -5   3   -1.13    1.60
  -9   5  -3    1.70    1.56
   3  12   3   10.02    1.42
   0 -13  -4    9.54    1.32
   0  13   4   12.09    1.58
   0  13   4    6.95    2.17
   0 -13  -4   10.13    2.70
  -6 -10  -4   -0.09    1.06
   6  10   4    0.29    2.68
   6  10   4   -0.79    0.73
   6  10   4    0.75    1.07
   1   8  -7    2.97    1.61
   1   8  -7    6.76    1.53
   1   8  -7    4.12    1.11
   2   0 -13   60.34    4.88
  -2   0  13   73.67    6.67
  -2   0  13   66.88    5.26
   2   0 -13   55.32    4.53
   2   0 -13   66.82    4.26
   5  11  11   24.96    2.99
  -5 -11 -11   27.63    3.92
  -5 -11 -11   27.91    3.37
   5  11  11   32.23    4.15
   5  11  11   27.98    2.02
  -6  -2 -15   56.93    4.58
  -6  -2 -15   49.40    3.82
   6   2  15   51.17    5.06
   6   2  15   52.26    4.93
   6   2  15   53.31    3.62
  -9   4  -6    2.74    1.75
  -9   4  -6    4.63    1.23
  -9   4  -6    6.32    1.68
   9  -4   6    5.79    1.88
   9  -4   6    3.08    1.33
   9  -4   6    2.11    1.84
   9  -4   6    3.61    1.35
   0 -11 -13   -1.56    2.79
   0 -11 -13    4.62    1.21
   0 -11 -13    0.86    2.24
   0 -11 -13    0.16    1.33
  -9   5  -1   11.41    1.98
   9  -5   1   10.02    1.89
  -9   5  -1   11.58    1.95
   9  -5   1    9.40    1.79
   9  -5   1    8.02    1.85
  -7   1   7   73.71    6.19
   7  -1  -7   62.81    5.09
   7  -1  -7   79.63    5.27
  -7   1   7   78.33    5.19
   1 -13  -7   16.12    1.46
  -1  13   7   19.24    2.75
   1 -13  -7   14.01    1.93
   3  11   0   30.07    2.52
   3  11   0   27.00    2.13
   3  11   0   26.57    3.13
   4   0  15   -1.57    2.76
   4   0  15   -0.21    1.89
   4   0  15   -0.36    0.91
   2   3  16   17.74    3.67
   2   3  16   24.34    3.29
  -2  -3 -16   20.04    2.66
   2   3  16   21.02    2.95
   1  10  -4   25.02    2.96
  -1 -10   4   23.19    2.70
   1  10  -4   26.02    2.43
   9  -4  -1   33.31    2.79
  -9   4   1   38.81    3.47
   9  -4  -1   38.41    3.29
  -8   2   5   80.06    6.26
  -8  -4 -13    4.73    1.47
  -8  -4 -13    6.66    2.13
   8   4  13    5.52    2.15
  -8  -4 -13    3.22    1.71
   8   4  13    3.15    1.22
  -8  -7 -11    2.77    1.99
  -8  -7 -11    0.50    1.51
  -8  -7 -11    1.19    1.26
  -8  -7 -11    1.62    1.03
  -2  11  -3   22.07    2.05
   2 -11   3   18.75    2.37
   2 -11   3   16.89    1.82
  -2  11  -3   23.11    2.36
   2 -11   3   26.19    3.42
   8  -6   6   27.13    2.67
   8  -6   6   25.56    3.01
   8  -6   6   32.72    3.46
  -8   6  -6   35.44    2.96
  -8   6  -6   30.47    2.88
  -8   6  -6   34.00    3.30
  -8   4  -9    2.26    1.49
   8  -4   9   -0.19    1.53
  -8   4  -9    1.08    1.43
   8  -4   9    1.68    1.46
   0 -10 -14   11.86    1.86
   0 -10 -14   11.00    3.00
   0 -10 -14   14.36    2.87
  -4  -2  10   59.37    4.59
   4   2 -10   58.45    4.66
  -4  -2  10   57.42    5.60
   4   2 -10   64.68    4.36
   1  -5 -15    5.39    0.71
  -1   5  15    5.40    2.97
  -1   5  15    7.12    2.53
  -1   5  15    3.86    1.78
   1  -5 -15    4.86    1.51
   1   5  16  132.25    9.40
  -1  -5 -16  130.83    8.38
   1   5  16  115.65    8.83
  -1  -5 -16  114.61    7.73
   1   5  16  134.98    9.99
   1 -11   3    3.77    1.59
  -1  11  -3    2.60    1.09
  -1  11  -3    2.61    1.88
  -1  11  -3    3.72    1.43
   1 -11   3    3.58    2.29
   1 -11   3    1.99    1.18
   5  -6  10    0.56    1.67
   5  -6  10    1.56    1.75
   5  -6  10    0.49    1.14
   5  -6  10    0.93    1.45
  -5   6 -10    1.53    1.31
  -5   6 -10    0.94    1.51
  -5   6 -10    0.84    1.36
   5   9  -1  131.33    8.67
   5   9  -1  114.07    7.56
   5   9  -1  115.68    7.63
   5   9  -1  115.09    8.14
  -1  13   4   34.67    2.85
   1 -13  -4   32.78    2.53
  -1  13   4   30.82    3.40
   1 -13  -4   30.50    4.10
   6 -10   1    0.91    1.25
  -6  10  -1    3.25    1.08
  -6  10  -1    0.51    1.40
   6 -10   1    1.25    1.09
   6 -10   1    2.13    1.86
   6 -10   1    1.92    0.89
  -4  -9 -15   52.38    5.09
  -4  -9 -15   57.40    4.93
   4   9  15   61.20    5.41
   4   9  15   50.64    3.96
  -4  -9 -15   49.95    3.46
  -4  -9 -15   49.76    4.54
   8  -4  -5    4.60    1.71
  -8   4   5    7.61    1.92
   8  -4  -5    4.71    1.46
  -8   4   5    5.30    2.03
   2   0  15   77.93    6.22
   2   0  15   77.24    5.32
  -2   0 -15   83.15    6.45
   2   0  15   90.55    6.69
  -2   0 -15   88.69    5.80
   2   0  15   92.45    7.30
   8  -2  11   18.49    2.53
  -8   2 -11   18.00    2.30
   8  -2  11   27.16    2.96
   8  -2  11   22.78    2.38
  -1   8  -8  102.21    6.56
  -1   8  -8   88.22    6.58
  -1   8  -8   97.46    6.26
   1  -8   8   99.64    6.99
   1  -8   8   95.77    6.40
   1  -8   8   93.07    6.77
   1   6  16   84.13    6.45
   1   6  16   80.41    7.41
  -1  -6 -16   85.09    6.20
  -1  -6 -16   84.83    6.80
  -1  -6 -16   84.51    5.72
   1  -6 -15    8.10    2.43
  -1   6  15    9.14    1.98
   1  -6 -15    9.02    1.69
   1  -6 -15    9.38    1.19
  -1   6  15    5.78    2.57
  -8  -2 -13   17.26    2.13
   8   2  13   18.73    2.00
  -8  -2 -13   19.54    2.74
   8   2  13   17.89    2.86
   8   2  13   12.02    2.33
  -8  -2 -13   14.26    2.40
   3 -12  -8    6.49    1.99
   3 -12  -8   13.20    2.45
   3 -12  -8   10.51    1.15
   3 -12  -8   12.91    3.24
   3 -12  -8   11.22    1.36
   3 -12  -8   14.40    1.43
   3 -12  -8   10.43    1.40
   6  -8  -8    9.32    2.52
   6  -8  -8    8.11    1.88
   6  -8  -8    7.24    1.54
   6  -8  -8   10.00    2.24
   6  -8  -8    7.79    1.52
  -9  -5  -4   52.75    4.08
  -9  -5  -4   53.03    4.17
  -9  -5  -4   53.03    4.56
   9   5   4   58.35    4.35
   5  11   4   76.45    6.32
  -5 -11  -4   60.34    4.05
   5  11   4   61.30    4.41
   1 -10   5    3.33    1.59
   1 -10   5    3.84    1.22
  -1  10  -5    3.79    1.01
  -1  10  -5    6.47    1.90
  -1  10  -5    6.02    1.51
   1 -10   5    3.56    2.12
   4   7  16    2.50    1.92
  -4  -7 -16    2.24    1.96
  -4  -7 -16    3.76    1.58
  -4  -7 -16    4.98    1.07
   4   7  16    5.00    2.35
  -4  -7 -16    4.97    1.94
   7  -9   1    0.81    1.24
   7  -9   1   -0.61    1.09
   7  -9   1    0.62    1.86
   7  -9   1   -0.92    1.19
  -7   9  -1    0.28    1.53
  -7   9  -1   -0.39    1.08
  -1 -12 -12   60.92    5.81
  -1 -12 -12   54.79    4.50
  -1 -12 -12   45.74    4.85
   1  12  12   58.35    4.69
  -3   2 -14   -0.86    1.23
   3  -2  14    0.08    0.99
   3  -2  14    1.73    2.39
   5  -8 -10   34.15    2.58
   5  -8 -10   35.40    4.07
   5  -8 -10   32.37    2.93
   5  -8 -10   21.64    2.49
   5  -8 -10   37.54    3.26
   5  -8 -10   35.37    3.93
   5  10   1    6.27    2.89
   5  10   1    5.06    1.12
   5  10   1    5.37    1.28
   5  10   1    3.13    1.99
   7  -6  -7    9.53    2.22
   7  -6  -7    8.27    1.18
   7  -6  -7    6.86    1.52
   7  -6  -7    8.32    1.85
  -1  -3  12   21.00    2.73
  -1  -3  12   29.10    3.74
   1   3 -12   23.87    2.15
   1   3 -12   21.65    2.42
  -2 -12 -12   13.85    3.39
  -2 -12 -12   14.64    2.82
  -2 -12 -12   15.88    2.45
   2  12  12   14.52    2.27
   5 -11   0    2.38    1.13
   5 -11   0    1.95    1.95
  -5  11   0    3.70    1.38
   5 -11   0    2.73    0.96
   8  -6  -4    7.44    2.05
   8  -6  -4    8.78    1.83
  -8   6   4   12.45    2.03
   8  -6  -4    8.89    1.60
  -8  -1   4   18.62    1.91
   8   1  -4   19.56    2.37
  -8  -1   4   18.56    2.52
   9   1  -1    0.76    1.46
  -9  -1   1    0.68    1.31
  -9  -1   1   -0.30    1.46
   7  -1  13    5.78    1.28
  -7   1 -13    4.34    1.56
   7  -1  13    4.06    1.49
   7  -1  13    5.06    2.22
   7  -1  13    4.58    2.11
  -7   1 -13    4.09    1.63
   6  -7   8   18.43    2.66
  -6   7  -8   17.44    2.36
  -6   7  -8   21.82    2.32
   6  -7   8   23.37    2.26
   6  -7   8   20.62    2.52
   6  -7   8   22.86    2.60
  -9  -4  -2   62.14    4.86
  -9  -4  -2   57.10    4.46
  -9  -4  -2   58.05    4.36
   9   4   2   71.33    5.24
  -4  11  -2   21.35    2.18
  -4  11  -2   16.62    2.30
   4 -11   2   17.67    2.78
   4 -11   2   15.99    2.00
   4 -11   2   20.66    1.96
   4 -12  -4   -0.16    1.24
   4 -12  -4    2.38    0.76
   4 -12  -4    1.38    0.79
   4 -12  -4    1.56    0.89
   4 -12  -4   -0.40    1.84
   5 -10  -8    8.80    2.90
   5 -10  -8   10.24    1.31
   5 -10  -8    8.06    2.70
   5 -10  -8   11.25    1.89
   5 -10  -8    8.75    1.51
   5 -10  -8   11.74    2.23
  -2 -13  -7   27.03    3.08
   2  13   7   34.58    2.62
   2  13   7   33.80    3.49
   9  -2  -2    6.96    1.79
  -9   2   2    9.04    2.06
  -9   2   2    7.42    1.95
  -5   4  11    5.71    2.44
   5  -4 -11   11.18    1.81
   5  -4 -11    6.19    1.40
   5  -4 -11    9.87    1.25
   5  -4 -11    7.44    1.55
   1  -4 -15    2.23    1.49
  -1   4  15    3.40    2.55
  -1   4  15    3.55    1.73
  -1   4  15    7.81    3.06
   1  -4 -15    4.08    0.79
   4 -10 -10   11.63    3.09
   4 -10 -10   15.20    3.39
   4 -10 -10    7.46    1.36
   4 -10 -10   10.94    1.11
   4 -10 -10   12.61    1.96
   4 -10 -10    8.90    1.95
  -7  -1 -14    4.89    1.83
  -7  -1 -14    5.83    1.61
   7   1  14    7.94    1.27
   7   1  14    4.11    2.11
   7   1  14    5.46    2.23
  -1 -13  -9    5.37    1.68
   1  13   9    5.86    1.04
   1  13   9    4.49    2.00
   5   5  16    0.95    2.48
  -5  -5 -16    1.34    1.67
   5   5  16    2.35    2.02
  -5  -5 -16    2.88    1.11
  -5  -5 -16    1.09    1.72
   3 -10   5   26.78    2.95
   3 -10   5   27.33    2.81
  -3  10  -5   26.42    2.66
   3 -10   5   26.90    2.42
   3 -10   5   26.06    3.51
  -3  10  -5   24.72    2.39
   6   9   1   80.36    5.37
   6   9   1   89.75    6.68
   6   9   1   74.63    5.37
  -6  -9  -1   88.64    5.94
  -1  -4 -16   53.43    4.32
   1   4  16   52.42    4.71
   1   4  16   57.69    5.79
   1   4  16   44.73    4.79
  -1  -4 -16   49.10    3.34
   5  -5 -11   49.74    3.36
  -5   5  11   38.46    4.29
   5  -5 -11   42.80    3.53
   5  -5 -11   42.99    3.93
   5  -5 -11   26.52    2.83
   5  -5 -11   30.86    2.96
  -7  -9 -11   67.80    5.62
  -7  -9 -11   73.51    4.93
  -7  -9 -11   79.05    6.21
   9  -5   4    1.02    1.82
   9  -5   4   -2.20    1.43
   9  -5   4    0.17    1.59
  -9   5  -4    0.64    1.65
  -9   5  -4   -0.14    1.41
  -9   5  -4    0.31    0.84
   4 -12  -3   -0.08    0.93
   4 -12  -3   -1.21    2.02
   4 -12  -3    0.73    0.83
  -4  12   3    0.96    1.12
   4 -12  -3   -0.35    2.88
   4  12  10   96.49    6.76
  -4 -12 -10   91.95    7.07
   4  12  10   90.76    5.78
  -9  -2 -11   13.81    2.46
   9   2  11   18.87    2.32
   9   2  11   17.80    2.78
  -9  -2 -11   15.84    2.16
  -9  -2 -11   12.26    2.23
  -2  -2  12    7.98    1.93
   2   2 -12    8.79    1.42
   2   2 -12    6.74    1.81
  -2  -2  12    9.11    2.93
   1 -12 -11    0.55    2.06
   1 -12 -11    0.68    0.96
   1 -12 -11    0.97    0.79
   1 -12 -11    2.85    1.33
   4  -7 -12   20.04    2.12
   4  -7 -12   21.88    1.87
   4  -7 -12   18.23    2.16
   4  -7 -12   35.65    2.63
   4  -7 -12   33.26    3.11
   4  -7 -12   28.83    3.59
   4  -7 -12   26.44    1.86
  -4   7  12   36.87    4.25
  -1   3 -13   55.80    3.95
  -1   3 -13   49.74    4.60
   1  -3  13   47.95    3.66
   1  -3  13   53.43    4.46
   6   1  -8    5.59    1.28
  -6  -1   8    4.43    1.32
   6   1  -8    3.61    1.46
  -6  -1   8    1.53    1.98
   6   1  -8    4.06    1.61
   6  -9  -7   13.42    2.06
   6  -9  -7   16.24    1.83
   6  -9  -7   16.65    2.65
   6  -9  -7   17.30    3.14
   5   4  16   86.70    7.24
  -5  -4 -16   90.97    5.86
   5   4  16   85.70    5.42
  -5  -4 -16   81.82    6.61
  -5  -4 -16   88.11    6.44
   0   6 -10    0.34    1.28
   0   6 -10    0.32    1.29
   0  -6  10    0.87    1.19
   0   6 -10   -0.33    1.26
   0  -6  10    0.46    1.18
   3  -2 -13    0.71    1.30
   3  -2 -13    0.25    1.27
   3  -2 -13    0.69    0.93
  -3   2  13    0.36    2.51
  -3   2  13   -0.16    1.25
  -9  -3 -11   13.92    2.34
  -9  -3 -11   13.78    2.30
  -9  -3 -11   13.98    2.02
   9  -5   0   25.05    2.76
   9  -5   0   29.46    2.75
  -9   5   0   26.95    2.94
  -9   5   0   29.56    2.86
   9  -5   0   27.96    2.69
  -8  -8  -8   36.10    2.91
   8   8   8   28.08    2.17
  -8  -8  -8   24.99    3.50
   7  -9  -3   41.19    3.22
   7  -9  -3   33.45    3.67
   7  -9  -3   30.29    3.04
   2  13   8   10.02    2.26
   2  13   8   13.76    1.41
  -2 -13  -8   11.89    2.19
   3   9  -4    4.22    1.87
   3   9  -4    1.52    1.32
   7   4  -4   86.30    6.01
  -7  -4   4   79.59    5.81
  -7  -4   4   87.85    5.36
   7   4  -4   83.94    5.87
  -7  -4   4   72.50    5.99
   4  -9 -11   30.99    3.95
   4  -9 -11   25.18    2.70
   4  -9 -11   21.87    2.19
   4  -9 -11   30.66    3.56
   4  -9 -11   25.99    2.55
   4  -8   8    8.18    1.83
   4  -8   8    6.08    1.30
   4  -8   8    4.74    1.74
  -4   8  -8    5.90    1.74
  -4   8  -8    6.36    1.47
   2   9  -5   -0.32    1.65
   2   9  -5    1.22    1.28
   8  -7   4    3.26    1.61
  -8   7  -4    2.79    1.42
   8  -7   4    2.16    1.82
   8  -7   4    2.52    1.15
   8  -7   4    2.56    1.93
  -8   7  -4    3.97    1.85
   8  -7   4    2.12    1.01
   9  -2   9   53.61    4.08
  -9   2  -9   42.48    3.59
   9  -2   9   41.07    3.98
  -8  -7  -3   21.29    3.03
   8   7   3   16.07    1.98
  -8  -7  -3   20.80    2.30
  -8  -8  -7   62.78    4.49
   8   8   7   57.87    3.90
  -8  -8  -7   58.91    5.30
   1  13   4   10.82    1.50
   5  -3  13   20.83    3.05
   5  -3  13   23.26    2.14
   5  -3  13   21.49    2.83
   5  -3  13   22.92    2.56
   5  -3  13   21.81    2.05
  -5   3 -13   18.98    2.54
   2  13   6   19.23    1.81
   2  13   6   19.00    2.74
   6 -10  -5   24.94    2.90
   6 -10  -5   21.65    3.08
   6 -10  -5   26.53    2.33
   6 -10  -5   18.41    3.27
   6 -10  -5   25.51    2.42
  -5   0  10    2.95    1.30
   5   0 -10    1.86    1.11
   5   0 -10   -0.28    1.45
  -5   0  10    1.80    2.33
   0 -13  -9   21.92    2.55
   0  13   9   29.27    3.22
   4  -2  14   17.47    1.76
  -4   2 -14   13.91    1.89
   4  -2  14   13.78    2.98
  -4   2 -14   17.24    2.45
   9  -1  -2   14.92    2.22
  -9   1   2   22.79    2.79
  -8  -6  -1   67.73    5.00
   8   6   1   69.30    5.09
  -4 -12  -5   23.10    1.72
   4  12   5   22.79    2.04
   4  12   5   25.62    3.92
   1 -13  -8   25.85    1.82
   1 -13  -8   17.40    2.52
   1 -13  -8   29.46    3.91
   1 -13  -8   16.84    2.26
  -1  13   8   23.25    2.92
  -8  -5 -13    1.17    1.90
  -8  -5 -13    1.26    1.24
  -8  -5 -13    0.45    1.74
   8   5  13    0.81    1.15
   8   5  13    0.50    1.88
  -9   3   2   45.81    3.98
  -9   3   2   43.82    3.86
   8  -1  -5   55.24    4.40
   0  -5  11   32.52    2.73
   0   5 -11   33.03    2.69
   0   5 -11   35.54    2.95
   0   5 -11   29.90    2.69
   4 -12  -5    1.83    0.91
   4 -12  -5    0.55    1.48
   4 -12  -5    5.19    3.33
   4 -12  -5    2.90    0.83
   4 -12  -5    1.38    0.86
   4 -12  -5    1.96    0.85
   4 -12  -5    2.59    1.88
  -7  -5   3   88.48    5.96
  -7  -5   3   75.68    5.89
   7   5  -3   94.79    6.57
   2 -12 -10   -0.31    2.73
   2 -12 -10    0.81    0.88
   2 -12 -10    0.75    1.14
   2 -12 -10    0.52    1.83
   2 -12 -10    0.37    2.60
   2 -12 -10    1.35    1.02
   6   8  -1   34.83    3.56
   6   8  -1   26.96    2.57
   6   8  -1   29.73    2.65
   9  -3   8   17.20    2.26
   9  -3   8    9.55    1.89
  -9   3  -8   12.96    1.89
   4  10  -1    3.29    2.09
   4  10  -1    3.26    1.22
   4  10  -1    5.01    1.18
   3   2  16   56.27    5.15
  -3  -2 -16   62.58    5.12
   3   2  16   61.60    5.99
   3   2  16   66.36    5.26
   3   2  16   55.33    3.83
   8  -5   8   20.21    2.60
   8  -5   8   26.64    2.62
  -8   5  -8   18.19    2.48
  -8   5  -8   17.54    2.20
   8  -5   8   26.85    3.13
  -4   2  12   -0.34    2.72
  -4   2  12    1.55    2.33
   4  -2 -12    1.12    0.93
   4  -2 -12   -0.12    1.31
  -4   2  12   -0.86    1.28
   3 -12   0   14.29    3.65
   3 -12   0   17.97    2.72
   3 -12   0   18.91    1.92
  -3  12   0   23.89    2.14
  -3  12   0   23.65    2.53
   3 -12   0   20.18    2.10
   2  -2  14    6.96    1.29
  -2   2 -14    6.14    1.42
  -2   2 -14    8.51    2.13
   2  -2  14    8.25    2.59
  -6  -7 -15    0.26    1.13
  -6  -7 -15    0.60    1.69
  -6  -7 -15    1.76    1.65
  -9  -5 -10   60.44    4.46
  -9  -5 -10   55.53    4.74
  -9  -5 -10   61.08    5.09
   4  11  13   58.99    4.61
  -4 -11 -13   48.23    5.46
  -4 -11 -13   54.98    5.06
  -4 -11 -13   58.63    5.03
   4  11  13   57.11    5.66
   3 -11   3    4.61    1.24
  -3  11  -3    4.83    1.61
  -3  11  -3    5.69    1.35
   3 -11   3    4.43    1.56
   3 -11   3    8.00    1.92
   3 -11   3    6.31    2.54
   2  12   1    0.75    1.95
   2  12   1    0.10    1.09
  -8  -8  -9   29.01    3.71
  -8  -8  -9   37.21    2.99
  -1  -7 -16   19.97    2.02
  -1  -7 -16   14.77    2.99
  -1  -7 -16   18.04    2.39
   1   7  16   20.51    2.76
  -5  -6 -16   16.06    1.70
  -5  -6 -16   15.74    2.29
  -5  -6 -16   15.55    2.49
  -7  -9  -4   51.08    3.85
   7   9   4   59.90    4.17
   7   9   4   53.04    3.86
   7   9   4   65.45    5.66
   6  -1  -9   11.64    1.98
   6  -1  -9   21.33    1.99
  -6   1   9   19.81    3.35
  -6   1   9   23.52    2.22
   6  -1  -9   17.50    2.24
   8  -7  -3   18.63    2.34
  -8   7   3   22.00    2.56
   8  -7  -3   21.73    2.99
   8  -7  -3   30.63    3.03
   8  -7  -3   21.56    2.49
  -5   3  11   31.17    4.09
  -5   3  11   31.37    2.76
   5  -3 -11   23.24    2.46
   5  -3 -11   34.33    2.45
  -5   3  11   35.05    3.94
   1  12   0    8.44    2.15
   1  12   0    7.01    1.46
  -1 -12   0    9.04    1.90
   0   7  -9    9.87    1.63
   0   7  -9    9.82    1.78
   0   7  -9   11.84    1.58
   0  -7   9    8.29    1.55
   1  -7 -15    1.26    1.24
  -1   7  15    0.75    1.58
   0 -13  -3   48.57    4.91
   0 -13  -3   48.25    3.52
   0  13   3   53.08    3.91
  -1  13   3   -0.23    1.28
   1 -13  -3    0.90    2.55
   1 -13  -3   -0.56    1.32
   1 -13  -3   -0.47    1.02
  -4  12   2   -0.26    1.06
   4 -12  -2    0.42    1.02
   4 -12  -2   -0.64    0.92
   4 -12  -2    1.41    3.03
   5 -11  -6   15.00    1.79
   5 -11  -6   15.06    2.57
   5 -11  -6    9.91    2.20
   5 -11  -6   13.58    1.50
   3   8  16   15.30    2.99
   3   8  16   10.15    2.36
  -3  -8 -16   14.09    2.80
  -3  -8 -16   16.66    2.48
   2 -13  -5   14.95    1.47
   2 -13  -5   14.66    2.54
   2 -13  -5   15.50    3.40
   9   1  11   17.97    2.73
  -9  -1 -11   22.25    2.73
   9   1  11   20.83    2.40
  -9  -1 -11   24.42    2.65
   9  -1  10   35.87    3.61
   9  -1  10   36.67    3.35
  -9   1 -10   32.34    3.10
   7   3  -5   27.49    2.65
  -7  -3   5   23.42    2.38
  -7  -3   5   22.52    2.85
   7   3  -5   28.26    2.75
  -5   7  -9   28.40    2.63
   5  -7   9   26.06    2.96
   5  -7   9   24.25    2.95
  -5   7  -9   28.97    2.85
   5  -7   9   26.53    2.88
  -5   7  -9   20.66    2.78
   5  -7   9   28.99    2.50
  -6  -5   5    2.21    1.68
   6   5  -5    2.67    1.49
  -6  -5   5    1.90    1.45
   6   5  -5    2.17    1.35
   6   5  -5    3.84    1.57
   0  11  -3    1.23    0.88
   0 -11   3    4.37    2.19
   0 -11   3    1.43    1.24
   0  11  -3    2.39    1.34
   0  11  -3    0.89    1.82
   0 -11   3    0.18    1.37
   5  -6 -11   34.85    3.25
   5  -6 -11   51.99    4.09
   5  -6 -11   39.47    3.29
   5  -6 -11   41.43    4.26
  -5   6  11   37.51    4.26
   5  -6 -11   53.62    3.76
  -7  -8 -13  139.57    8.11
  -7  -8 -13  116.97    8.57
  -7  -8 -13  109.94    8.66
  -7  -8 -13  123.80    9.08
   6  10  12   29.77    2.93
  -6 -10 -12   23.69    3.33
   6  10  12   27.18    2.05
  -8   5   5    5.36    2.06
   8  -5  -5    1.39    1.53
   8  -5  -5    1.87    1.75
   8   8   6   60.51    4.16
  -8  -8  -6   69.88    5.59
  -8  -8  -6   58.97    4.57
   2   8  16   20.92    2.89
  -2  -8 -16   27.03    2.91
  -2  -8 -16   17.50    3.23
   4   2  16   37.66    2.81
  -4  -2 -16   39.93    3.80
   4   2  16   44.94    4.05
   4   2  16   50.41    4.99
   2 -13  -6    8.65    2.19
   2 -13  -6    8.12    1.56
   2 -13  -6    9.88    1.15
   2  13   9    7.00    1.05
   2  13   9    5.72    1.94
  -2 -13  -9    9.35    2.10
  -8   1 -12   24.21    2.79
   8  -1  12   19.98    2.83
   8  -1  12   27.17    2.52
   8  -1  12   24.70    3.26
  -9  -4 -11   37.41    3.78
  -9  -4 -11   38.47    3.30
  -9  -4 -11   43.62    3.83
  -5  -3 -16   31.27    2.54
   5   3  16   27.59    4.07
  -5  -3 -16   25.19    2.93
   5   3  16   29.03    2.19
  -8  -1 -13   26.00    2.93
   8   1  13   25.90    3.12
   8   1  13   23.62    2.42
  -8  -1 -13   25.02    2.53
   8   1  13   26.62    3.35
   0 -12 -12   16.83    3.60
   0 -12 -12   18.17    2.32
   2  -9   7    5.94    1.81
  -2   9  -7    2.47    1.11
   2  -9   7    2.49    2.17
  -7   9  -2    0.48    1.12
   7  -9   2    1.28    1.22
   7  -9   2   -0.11    1.09
   7  -9   2   -0.21    1.99
   7  -9   2    0.35    1.15
  -7   9  -2   -0.72    1.63
   3  -8 -13   23.42    3.62
   3  -8 -13   15.15    1.74
   3  -8 -13   22.07    1.98
   3  -8 -13   13.79    1.58
   3  -8 -13   13.96    1.56
  -5  -2   9   12.88    1.92
   5   2  -9   13.01    1.63
  -5  -2   9   13.53    2.89
   5   2  -9   13.96    2.12
   2  -2 -14   12.92    1.94
   2  -2 -14   19.57    2.31
  -2   2  14   19.39    3.24
  -2   2  14   18.14    3.85
   2  -2 -14   19.24    1.65
  -2   2  14   16.55    2.39
  -9  -6  -7   32.98    3.65
  -9  -6  -7   33.90    3.17
  -9  -6  -7   33.17    3.08
  -9  -6  -7   33.95    2.99
   9   6   7   27.94    2.39
  -6  -4   6   19.48    2.92
   6   4  -6   28.63    2.60
  -6  -4   6   23.88    2.48
   6   4  -6   23.53    2.52
   6   4  -6   22.72    2.39
  -2  13   4   41.43    3.36
   2 -13  -4   40.00    3.79
   2 -13  -4   42.73    4.79
   2 -13  -4   38.08    2.75
   2 -13  -4   31.17    3.00
   5   0  15   14.43    2.27
   5   0  15   12.37    2.89
   5   0  15   15.68    1.59
  -5   0 -15   15.52    2.48
   7  -8   5    1.99    1.20
  -7   8  -5    2.68    1.84
  -7   8  -5    1.41    1.21
   7  -8   5    2.12    1.86
   2  -8 -14    2.22    1.08
  -2   8  14    3.65    1.49
   2  -8 -14    5.01    2.72
   2  -8 -14    2.61    0.98
   2  -8 -14    1.83    0.83
   1 -12   1    0.94    1.46
  -1  12  -1    0.56    1.78
  -1  12  -1    1.32    1.32
   1 -12   1    0.46    0.99
   1 -12   1   -1.59    2.63
   6  -7  -9    9.83    1.82
   6  -7  -9   15.46    2.72
   6  -7  -9   11.94    2.15
   6  -7  -9   12.12    1.65
   0  -1  14   16.11    2.40
   0   1 -14   12.14    1.52
   0   1 -14   11.57    2.31
  -6   1 -14   37.25    3.64
   6  -1  14   41.10    3.39
   6  -1  14   34.27    3.91
   6  -1  14   42.16    3.05
   6  -1  14   43.09    4.32
   6  -1  14   38.98    3.03
   2  13   5   71.45    4.84
  -3 -12 -12    6.25    2.76
   3  12  12    5.49    1.81
  -3 -12 -12    5.22    2.13
  -3 -12 -12   10.79    2.18
  -5  -8   3   33.28    3.33
   5   8  -3   37.55    3.06
   5   8  -3   39.79    3.19
   5   8  -3   33.24    3.57
 -10   0  -5   13.47    2.15
  10   0   5   15.46    2.12
 -10   0  -5   13.75    1.89
 -10   0  -5   13.42    2.09
   9   6   8   51.39    3.67
  -9  -6  -8   45.88    4.10
  -9  -6  -8   49.70    4.62
  -9  -6  -8   55.09    4.03
  -1   3  15   30.50    3.22
   1  -3 -15   22.75    2.58
  -1   3  15   24.49    3.67
   1  -3 -15   21.96    1.81
  -7   7  -7    0.31    1.59
   7  -7   7    0.15    1.31
  -7   7  -7    1.78    1.44
   7  -7   7    0.73    1.78
   2   2  16   17.57    2.96
   2   2  16   14.76    2.68
  -2  -2 -16   18.89    2.65
  -2  -2 -16   18.14    1.81
  -6  -1 -15   36.46    3.50
   6   1  15   32.14    4.07
   6   1  15   37.22    2.73
  -6  -1 -15   32.04    2.85
  -1  -3 -16   33.32    2.56
   1   3  16   36.98    4.09
  -1  -3 -16   38.38    3.42
   1   3  16   30.92    3.53
   0   9  15    6.14    1.91
   0  -9 -15   11.94    3.16
   0  -9 -15    8.34    1.71
  -6  10  -2   -0.68    1.48
   6 -10   2    0.68    0.97
   6 -10   2    0.11    1.22
  -6  10  -2    0.07    0.86
   6 -10   2   -0.96    1.72
   3  -9   7   37.69    3.46
  -3   9  -7   40.23    3.15
   3  -9   7   39.13    3.55
  -7  -6   2   11.29    1.83
  -7  -6   2   11.01    1.92
  -7  -6   2   13.68    1.89
   7   6  -2   15.34    2.05
   7   6  -2   15.40    2.54
   5  -9   6    8.73    2.06
   5  -9   6    7.81    1.59
  -5   9  -6   11.78    1.93
  -2 -11 -14   32.51    4.36
  -2 -11 -14   33.93    3.59
   2  11  14   43.84    3.63
  -2 -11 -14   34.33    4.02
   3   6  -8   28.83    2.74
  -3  -6   8   27.60    3.06
   3   6  -8   24.94    2.48
   3   6  -8   23.61    2.39
   4 -12  -6   15.39    2.70
   4 -12  -6    9.07    2.08
   4 -12  -6   13.13    4.00
   4 -12  -6    8.94    1.31
   4 -12  -6   14.36    1.46
   4 -12  -6   17.74    1.56
   9  -5   5    2.09    1.67
  -9   5  -5    0.57    1.50
   9  -5   5    1.28    1.28
  -9   5  -5    0.85    0.99
   9  -5   5    0.32    0.96
  -7  -7 -14   40.38    3.52
  -7  -7 -14   39.53    3.09
   7   7  14   34.84    2.68
  -7  -7 -14   33.10    3.82
  -7  -7 -14   38.88    3.59
  -7  -7 -14   43.73    3.75
  -6  -6   4    0.37    1.53
  -6  -6   4    1.18    1.49
   6   6  -4    1.18    1.41
   6   6  -4    0.93    1.70
  -5 -11 -12   29.77    3.56
   5  11  12   31.13    3.24
  -5 -11 -12   28.18    3.86
   4  11   1   66.36    4.64
   0   4 -12   87.95    6.35
   0   4 -12   94.86    6.17
 -10  -1  -5   60.24    4.86
 -10  -1  -5   67.56    4.91
  10   1   5   59.98    4.55
   2 -12   1    1.62    1.43
   2 -12   1    2.04    2.42
   2 -12   1    3.00    1.11
  -2  12  -1    0.52    1.31
  -2  12  -1    0.37    1.75
  10   0   4    1.96    1.58
 -10   0  -4    3.50    1.72
 -10   0  -4    0.78    1.63
 -10   0  -4    1.65    1.18
   4   9  -3   13.06    1.73
   4   9  -3   12.55    2.52
   4   9  -3   11.81    1.77
  -9   0   2   22.23    2.26
  -9   0   2   26.54    2.80
   9   0  -2   19.97    2.50
   9  -4   7    7.23    1.53
  -9   4  -7    9.53    1.60
   9   6   6    5.50    1.36
  -9  -6  -6    5.60    1.68
  -9  -6  -6    5.23    1.98
  -9  -6  -6    4.89    1.46
   7   0  -7    6.37    1.72
  -7   0   7    4.84    1.23
   7   0  -7    3.20    1.36
  -7   0   7    2.85    1.99
  -9  -5  -3   51.37    4.45
  -9  -5  -3   48.90    3.98
  -9  -5  -3   48.01    3.84
   9   5   3   53.28    4.13
   3   5  -9   -1.09    1.41
  -3  -5   9    0.19    1.52
   3   5  -9    2.14    1.53
  -3  -5   9    3.69    2.13
   3   5  -9    0.62    1.23
  10   1   6   46.13    3.65
 -10  -1  -6   50.66    4.08
 -10  -1  -6   47.33    4.01
   1   0 -14   27.01    3.01
   1   0 -14   26.04    2.20
  -1   0  14   28.66    3.12
   1   0 -14   22.60    2.53
   9  -5  -1   34.20    2.95
   9  -5  -1   31.11    2.94
  -9   5   1   29.32    2.91
   9  -5  -1   26.71    2.82
  -2 -10 -15   33.57    4.38
   2  10  15   35.01    2.91
  -2 -10 -15   35.05    3.53
  -2 -10 -15   36.36    4.16
  -9   4   2   27.52    3.01
   9  -4  -2   27.41    2.83
   9  -4  -2   25.42    2.36
   6  10   3    3.99    1.32
  -6 -10  -3    2.65    1.05
   6  10   3    2.19    0.88
   6  10   3    2.85    2.58
   0  10  -5   24.68    2.45
   0  10  -5   27.78    2.95
   1   9  -6    3.27    1.74
  -1 -13 -10   11.65    2.08
   1  13  10   15.44    2.50
 -10   0  -6   59.59    4.36
  10   0   6   50.22    3.90
 -10   0  -6   47.24    4.03
   4 -11  -9   16.88    1.86
   4 -11  -9   19.98    2.80
   4 -11  -9   26.42    2.47
   4 -11  -9   19.49    1.65
   4 -11  -9   20.04    3.55
   4 -11  -9   20.86    3.03
   4 -11  -9   19.16    3.61
   0   1  15    2.03    2.40
   0  -1 -15    4.54    1.02
   0   1  15    6.01    1.86
   0  -1 -15    1.92    1.67
  -5  11  -1   11.47    1.74
   5 -11   1    7.38    1.32
   5 -11   1   11.96    1.52
   5 -11   1    6.31    2.28
  -8  -8 -10    8.10    2.46
  -8  -8 -10    8.02    1.53
   7  -9  -4    9.21    2.58
   7  -9  -4    7.34    1.66
   7  -9  -4    7.73    1.71
   7  -9  -4    9.40    2.53
  -4 -12 -11   65.92    6.34
   4  12  11   84.08    6.24
  -4 -12 -11   74.31    5.90
   2 -13  -7    1.47    0.74
   2 -13  -7    1.71    1.23
   2 -13  -7   -0.39    1.35
   2 -13  -7    1.28    1.88
   2 -13  -7    0.99    2.69
   5 -10   4    6.09    1.41
   5 -10   4    5.44    2.10
   5 -10   4    7.86    1.52
  -5  10  -4    4.33    1.59
   1   0  15   33.98    3.87
  -1   0 -15   31.37    3.42
  -1   0 -15   36.45    2.78
   1   0  15   32.50    3.45
  -8  -7 -12   50.71    3.72
  -8  -7 -12   42.53    3.99
  -8  -7 -12   52.46    4.67
  -8  -4   2   34.55    3.11
  -8  -4   2   37.17    2.89
   8   4  -2   37.35    3.36
  -8  -4   2   37.94    3.35
 -10   1  -4    1.50    1.18
 -10   1  -4    2.00    1.73
  10  -1   4   -0.39    1.53
   3  12   2   12.62    1.62
 -10   1  -5   16.17    1.81
 -10   1  -5   12.72    2.19
  10  -1   5   10.60    1.85
   2 -11 -12   36.88    4.24
   2 -11 -12   32.65    2.60
   2 -11 -12   23.77    2.27
   2 -11 -12   33.57    2.99
   2 -11 -12   37.54    2.93
   2 -11 -12   32.97    4.54
   4   8  16   43.67    4.29
   4   8  16   44.37    4.59
  -4  -8 -16   35.70    4.10
  -4  -8 -16   40.23    2.88
  -4  -8 -16   41.53    3.88
  -3 -10 -15   -1.66    2.08
  -3 -10 -15   -2.37    2.60
   3  10  15   -0.59    2.68
   3  10  15   -0.79    1.32
  -3 -10 -15   -0.15    0.75
  -3 -10 -15    0.44    1.68
   7  -4  11   43.90    3.59
   7  -4  11   41.18    3.21
   7  -4  11   34.45    3.83
  -7   4 -11   33.37    3.32
   2 -10 -13   36.52    4.64
   2 -10 -13   25.61    2.57
   2 -10 -13   44.39    3.16
   2 -10 -13   53.13    3.30
   2 -10 -13   39.16    2.95
  10   1   4    2.23    1.58
 -10  -1  -4    7.59    1.78
 -10  -1  -4    3.94    1.82
   4 -12  -1    3.64    1.15
  -4  12   1    4.16    1.21
   4 -12  -1    2.26    1.98
   4 -12  -1    4.54    2.97
   4 -12  -1    2.13    1.01
   1 -13  -9    2.77    1.36
   1 -13  -9    4.00    2.82
  -8  -3   3    0.25    1.16
   8   3  -3    1.35    1.42
  -9  -6  -9   43.83    3.80
  -9  -6  -9   40.62    4.00
  -9  -6  -9   41.18    3.50
   9   6   9   41.42    3.08
   4   5  -8   37.38    2.83
   4   5  -8   26.27    2.86
  -4  -5   8   34.03    3.80
  -4  -5   8   33.96    3.35
   4   5  -8   33.30    3.00
   4   6  -7    7.87    1.79
  -4  -6   7    7.06    1.89
   4   6  -7    6.15    1.56
   4   6  -7    9.90    1.71
   1  -9   7   20.34    2.68
  -1   9  -7   18.71    2.47
  -1   9  -7   19.53    1.83
  -1 -11 -14   44.12    3.84
  -1 -11 -14   41.07    5.05
   1  13   3   66.02    4.59
   2 -13  -3   23.16    2.41
   2 -13  -3   33.03    4.17
  -2  13   3   29.16    2.70
   2 -13  -3   25.05    2.12
  -9  -3   0    3.34    1.63
  -9  -3   0    5.90    1.66
  -9  -3   0    4.60    1.37
   9   3   0    3.47    1.59
  -5 -11  -3   97.77    6.27
   5  11   3  109.87    8.10
   5  11   3   91.38    6.26
   7  -8  -6    4.82    1.72
   7  -8  -6    2.88    2.10
   7  -8  -6    6.19    2.18
   7  -8  -6    4.86    1.56
   7  -8  -6    2.99    1.35
   4  12   4   42.43    3.19
   0   8  -8   21.77    2.35
   0   8  -8   24.60    2.60
   3   7  -7  116.31    7.08
   3   7  -7   91.57    6.91
   3   7  -7  117.16    7.43
  -5  -7 -16   67.58    5.16
   5   7  16   83.91    6.78
  -5  -7 -16   65.34    4.54
  -5  -7 -16   66.32    5.52
  -5  -7 -16   75.34    5.63
   3 -12  -9   12.86    2.53
   3 -12  -9   17.24    3.47
   3 -12  -9   13.36    1.59
   3 -12  -9   13.40    3.49
   3 -12  -9   16.86    2.60
   3 -12  -9   19.79    1.79
   3 -12  -9   11.83    1.60
   4 -10   5    8.20    2.12
  -4  10  -5    6.80    1.75
  -4  10  -5    8.44    1.61
   4 -10   5    8.33    1.66
   3  11  14   -0.30    2.68
  -3 -11 -14    0.28    2.11
   3  11  14    0.98    1.51
  -3 -11 -14   -1.08    2.59
  -3 -11 -14   -0.24    1.90
  -8   8   0    2.08    1.39
   8  -8   0    1.89    1.71
   8  -8   0    1.95    1.33
  -8   8   0    3.76    1.81
   8  -8   0    2.51    1.78
   0 -12   1   21.93    3.29
   0 -12   1   21.40    2.13
   0 -12   1   24.36    2.63
   0  12  -1   27.86    2.45
   0  12  -1   23.11    3.08
   7   8   1   19.60    3.20
   7   8   1   23.84    2.33
   7   8   1   21.77    2.29
  -7  -8  -1   19.05    2.12
   8   8   5   97.37    6.36
  -8  -8  -5   92.59    7.61
  -8  -8  -5  105.66    6.90
   2   6  -9   64.66    4.77
   2   6  -9   64.63    4.76
   2   6  -9   73.62    4.93
  -8  -6 -13    9.41    2.27
  -8  -6 -13   11.13    1.68
  -6   9  -5    5.60    1.22
   6  -9   5    2.26    1.25
  -6   9  -5    3.50    1.63
   6  -9   5    3.82    1.93
   6   3  -7   21.65    2.46
   6   3  -7   28.62    2.68
  -6  -3   7   26.95    3.38
  -6  -3   7   28.68    2.82
   6   3  -7   23.13    2.35
   3   1 -12   62.02    4.84
  -3  -1  12   64.20    5.23
  -3  -1  12   82.42    6.69
   3   1 -12   68.05    4.53
   5  -2  14   34.31    3.36
   5  -2  14   34.10    4.03
   5  -2  14   37.01    2.80
  -5   2 -14   35.54    3.68
 -10  -1  -7   28.62    2.91
 -10  -1  -7   29.25    2.89
 -10  -1  -7   24.36    2.75
  10   1   7   31.97    2.86
  -5   2  11   26.31    3.62
  -5   2  11   20.06    2.18
  -5   2  11   15.74    3.37
   5  -2 -11   19.88    1.89
  -7  -9 -12   59.78    5.03
  -7  -9 -12   60.99    4.31
  -7  -9 -12   62.88    5.12
  -7  -9 -12   67.07    5.53
   0  13  10   46.06    4.10
   0 -13 -10   40.27    3.56
   8   0  -5   39.84    3.55
   1 -11 -13    0.81    1.18
   1 -11 -13   -0.13    0.71
   1 -11 -13    0.83    1.22
   9   0  11    2.31    1.67
   9   0  11    2.22    1.83
 -10   0  -3   -1.08    1.85
 -10   0  -3   -0.49    1.19
  10   0   3    0.68    1.33
   7  -7  -7    1.02    1.16
   7  -7  -7   -1.58    1.88
   7  -7  -7    0.78    1.57
   7  -7  -7    1.31    1.11
 -10  -2  -6   39.94    3.49
 -10  -2  -6   33.12    3.30
  10   2   6   36.54    3.17
 -10  -2  -6   36.08    3.43
 -10  -2  -6   35.00    3.37
   7  -5  10   25.79    2.96
  -7   5 -10   20.89    2.56
   7  -5  10   24.75    2.48
   7  -5  10   28.74    2.93
  -7  -2   6    1.01    1.13
   7   2  -6    0.85    1.35
   7   2  -6   -0.12    1.48
   7   2  -6    1.19    1.46
  -7  -2   6    0.43    1.73
 -10   1  -3    4.97    1.71
 -10   1  -3    7.31    1.26
  10  -1   3    5.09    1.69
   7  -4  -8   14.90    2.19
  -7   4   8   13.19    2.72
  -8   8  -1    0.44    1.62
   8  -8   1    0.72    1.56
   8  -8   1    1.04    1.60
  -8   8  -1    3.95    1.43
   8  -8   1    2.15    1.31
   8  -8   1    2.71    2.46
   2  13  10    0.18    1.85
  -2 -13 -10    0.86    1.64
  -9  -2   1   -0.16    1.38
  -9  -2   1    0.15    1.58
   9   2  -1   -0.78    1.53
  -7  -4 -15   34.74    3.48
   7   4  15   31.52    2.45
  -7  -4 -15   33.29    3.49
  -7  -4 -15   29.84    2.82
   4  -8 -12   16.08    1.86
   4  -8 -12   18.02    2.09
   4  -8 -12   18.61    2.72
   4  -8 -12   10.92    1.48
   4  -8 -12   16.87    3.29
  -5 -10 -14   89.36    6.60
   5  10  14   93.89    7.74
  -5 -10 -14   78.45    6.66
   5  10  14   95.46    6.74
  -5 -10 -14   72.58    6.34
   4   1 -11    7.90    1.38
   4   1 -11    8.29    1.82
  -4  -1  11    8.10    1.73
  -4  -1  11    8.50    2.93
  -1  -2  13   -1.37    1.65
   1   2 -13   -0.28    1.09
   1   2 -13   -0.14    1.43
   6 -10  -6    9.34    2.71
   6 -10  -6   13.46    2.60
   6 -10  -6   12.29    1.64
   6 -10  -6   19.19    2.08
   7  -3  12   18.61    2.07
  -7   3 -12   17.71    2.55
   7  -3  12   22.50    2.48
   7  -3  12   17.64    2.80
   7  -3  12   21.72    2.78
   8   5  -1   64.91    4.90
  -8  -5   1   74.27    5.12
  -8  -5   1   61.51    4.57
  -6 -11  -8   52.36    3.79
   6  11   8   57.81    3.97
  -5  -9 -15  102.96    7.56
   5   9  15  103.56    8.08
  -5  -9 -15   95.95    6.30
  -5  -9 -15  101.35    7.49
  -5  -9 -15  103.10    7.75
   5   9  15  100.90    6.93
   2   5 -10   37.95    3.05
  -2  -5  10   41.16    4.29
   2   5 -10   34.03    3.11
   2   5 -10   37.44    3.01
  -2  -5  10   40.31    3.76
  -8   6  -7    2.73    1.38
  -8   6  -7    3.89    1.80
   8  -6   7    4.32    1.55
   8  -6   7    2.86    2.18
   8  -7   5    6.61    2.20
  -8   7  -5    3.63    1.85
   8  -7   5    3.12    1.34
  -8   7  -5    6.00    1.62
  -1  -8 -16    7.94    1.76
  -1  -8 -16   11.59    2.84
   1   8  16   17.81    2.66
   3  -6  11   37.41    2.94
  -3   6 -11   37.64    2.98
  -3   6 -11   38.39    3.31
   3  -6  11   38.06    3.46
 -10   1  -6   13.41    2.15
 -10   1  -6   10.93    1.69
  10  -1   6   11.26    1.82
   6   9  14    5.60    2.83
  -6  -9 -14    4.68    2.09
  -6  -9 -14    7.06    2.39
  -6  -9 -14    5.59    1.18
   6   9  14    7.08    1.70
  -6  -9 -14    5.54    2.28
  10   2   5   22.27    2.50
 -10  -2  -5   22.47    2.69
 -10  -2  -5   25.92    2.77
 -10  -2  -5   18.83    2.57
 -10  -2  -5   25.78    2.67
   3 -10 -12   18.21    1.96
   3 -10 -12   31.86    3.64
   3 -10 -12   26.16    2.69
   3 -10 -12   24.21    1.97
   3 -10 -12   30.17    4.29
   3 -10 -12   34.33    2.71
   7  -3  -8   16.80    2.15
  -7   3   8   13.85    2.92
   1 -13  -2   -0.29    1.34
  -1  13   2    0.24    1.28
   1 -13  -2    2.68    2.75
   1 -13  -2    0.76    1.10
   8  -8  -1    5.88    2.26
   8  -8  -1    3.71    1.73
  -8   8   1    6.19    1.58
  -8   8   1    5.20    1.89
   8  -8  -1    4.17    1.78
   8  -8  -1    3.17    1.55
  -9  -6  -5    1.08    1.32
  -9  -6  -5    1.89    1.91
   9   6   5   -0.53    1.35
  -9  -6  -5    1.73    1.45
   7   0  14    0.77    2.07
  -7   0 -14    1.02    1.73
   7   0  14    0.88    1.08
   7   0  14    0.25    2.15
   3   4 -10   25.40    2.74
   3   4 -10   30.07    2.66
   3   4 -10   28.83    2.48
  -3  -4  10   27.48    3.75
  -3  -4  10   26.98    2.85
   5  -7 -11   14.28    2.08
   5  -7 -11    8.21    1.63
  -5   7  11    4.44    2.42
   5  -7 -11    9.05    1.57
   5  -7 -11   13.76    2.53
   5  -7 -11    7.26    2.62
   3  -5  12   15.62    1.80
   3  -5  12   17.48    2.25
  -3   5 -12   22.91    2.39
  -3   5 -12   22.51    2.92
 -10   0  -7   22.05    2.42
 -10   0  -7   18.56    2.32
  10   0   7   18.16    2.06
   6  -8   7    1.72    1.39
   6  -8   7    0.17    1.72
  -6   8  -7    0.14    1.43
   1  -8 -15    1.22    1.21
  -1   8  15    0.36    1.49
   9   4   1   60.48    4.69
  -9  -4  -1   53.45    4.06
  -9  -4  -1   47.01    3.79
  -9  -4  -1   47.77    4.23
  -1 -10 -15   42.10    3.75
  -1 -10 -15   42.05    4.88
   6  -5  11   25.79    2.58
   6  -5  11   21.21    2.83
   6  -5  11   24.60    2.85
   6  -5  11   22.36    2.24
  -6   5 -11   18.99    2.55
   0   5  16   18.64    3.30
   0  -5 -16   15.52    2.17
   0   5  16   16.28    2.65
   6  11   9   38.94    3.66
   6  11   9   38.95    2.85
  -1   2 -14   99.27    6.57
  -1   2 -14  100.14    7.37
   2  13   4   85.23    5.67
 -10  -2  -7   34.35    3.45
  10   2   7   36.03    3.05
 -10  -2  -7   31.76    3.35
 -10  -2  -7   45.78    3.64
  -9  -5 -11   26.63    3.25
  -9  -5 -11   24.79    2.96
  -9  -5 -11   26.68    2.63
   2   7  -8   62.33    4.36
   2   7  -8   59.08    4.54
   2   7  -8   57.06    4.23
   0  -6 -16   15.19    1.64
   0   6  16   14.84    2.42
   0   6  16   10.99    2.85
   0  -6 -16   16.18    2.16
  -7  -5 -15   20.10    2.74
  -7  -5 -15   18.55    2.06
   7   5  15   19.30    1.73
  -7  -5 -15   22.32    2.81
  -6   4 -12    3.31    1.74
   6  -4  12    2.44    1.37
   6  -4  12    3.10    1.19
   6  -4  12    2.80    2.00
   6  -4  12    4.55    1.71
   5   2  16    0.06    0.79
   5   2  16   -1.66    2.66
  -5  -2 -16    3.17    1.29
  -3   1  13    4.80    2.91
  -3   1  13    4.23    1.63
   3  -1 -13    0.99    1.03
   6  11   7   56.09    3.91
  -6 -11  -7   47.52    5.23
  -6 -11  -7   61.30    4.15
   0  13   2   26.31    2.42
   0 -13  -2   17.85    2.37
   0 -13  -2   19.79    1.98
   0 -13  -2   26.51    3.52
  -7  -3 -15   25.54    3.08
  -7  -3 -15   28.80    3.22
   7   3  15   26.65    2.13
  -7  -3 -15   24.54    2.49
   7   3  15   22.33    3.31
   1 -10 -14    6.87    1.41
   1 -10 -14    6.19    1.33
   1 -10 -14    2.36    0.78
   3  13   8   44.94    3.19
  -3 -13  -8   39.27    4.05
   2  11  -2   52.65    4.64
   2  11  -2   56.23    4.10
   9  -6   2    3.29    1.75
   9  -6   2    2.14    1.43
  -9   6  -2    2.53    1.52
  -3 -13  -7   79.35    6.32
   3  13   7   82.14    5.40
  -3   1 -15   41.79    4.00
   3  -1  15   52.15    4.43
  -3   1 -15   43.23    3.39
   3  -1  15   42.69    3.26
   6   7  -3   13.72    1.83
  -6  -7   3   18.40    2.45
   6   7  -3   11.44    2.46
   4   4  -9   36.75    3.05
  -4  -4   9   32.54    3.26
  -4  -4   9   38.38    4.12
   4   4  -9   34.27    3.22
   4   4  -9   35.29    2.92
   4   7  -6   35.88    3.05
  -4  -7   6   37.84    3.62
   4   7  -6   42.36    3.67
   4   7  -6   39.17    3.16
   3 -11 -11   28.35    2.65
   3 -11 -11   23.70    3.65
   3 -11 -11   31.12    2.96
   3 -11 -11   23.24    4.04
   3 -11 -11   19.60    1.99
   9  -6   1    6.96    2.21
  -9   6  -1   10.21    1.88
   9  -6   1    8.83    1.75
   9  -6   1    7.91    1.94
   9  -6   1    4.14    1.68
   5 -11  -7   12.71    1.48
   5 -11  -7   15.88    1.91
   5 -11  -7   10.96    2.95
   5 -11  -7   14.56    2.42
   5 -11  -7   11.15    3.38
   5 -11  -7   11.02    2.37
  -2   6 -11   11.65    1.88
   2  -6  11   11.36    1.61
   2  -6  11   11.32    1.91
 -10   2  -4    1.68    0.99
  10  -2   4    0.26    1.42
 -10   2  -4    2.35    1.68
  -8  -7  -2    0.52    1.31
   8   7   2   -1.32    1.36
  -7   9  -3   -0.28    1.13
   7  -9   3    0.61    1.72
   7  -9   3   -0.10    0.93
  -7   9  -3   -0.45    1.68
   7  -5  -8   14.83    2.22
   7  -5  -8   16.16    2.38
  -7   5   8   19.56    3.11
  -4   1  12    5.23    2.96
   4  -1 -12    5.56    1.18
  -4   1  12    4.65    1.48
   8  -6  -5    1.42    1.68
   8  -6  -5    4.22    1.87
   8  -6  -5    4.03    1.19
  -7  -9  -3   74.80    5.22
   7   9   3   70.74    5.02
   7   9   3   69.79    4.84
   7   9   3   81.36    6.34
   4 -12  -7   39.89    3.85
   4 -12  -7   43.41    5.10
   4 -12  -7   36.30    2.65
   4 -12  -7   35.28    2.79
   4 -12  -7   27.86    3.50
  10   1   3    0.28    1.31
 -10  -1  -3    0.15    1.29
 -10  -1  -3   -0.49    1.76
   8  -7  -4   11.05    1.91
   8  -7  -4    5.72    2.27
  -8   7   4    6.06    1.71
   8  -7  -4    9.74    1.73
  -8  -2   4    4.11    1.69
   8   2  -4    4.27    1.61
  -8  -2   4    3.73    1.26
   2 -13  -8    0.18    1.88
   2 -13  -8    0.79    0.72
   2 -13  -8   -0.88    1.65
   2 -13  -8   -0.13    1.11
   2 -13  -8   -0.99    2.43
   5  -8   8   14.84    2.20
   5  -8   8   21.36    2.60
  -5   8  -8   18.97    2.28
   4  -9   7   13.75    2.29
  -4   9  -7   13.42    1.92
   4  -9   7   13.75    2.16
  -2   5 -12    0.96    1.31
   2  -5  12   -0.29    1.03
  -2   5 -12   -1.07    1.67
   2  -5  12   -0.52    1.23
   8  -8   2    6.61    1.93
   8  -8   2    5.37    2.17
   8  -8   2    5.87    1.46
  -8   8  -2    6.14    1.86
  -8   8  -2    7.11    1.60
   8  -8   2    9.69    1.93
  -7 -10  -8   58.88    4.39
   7  10   8   68.17    4.70
  -7 -10  -8   68.03    5.65
  -2 -12 -13   -2.35    2.90
  -2 -12 -13   -1.09    1.68
   2  12  13    0.95    1.72
   4 -11   3    1.50    1.28
  -4  11  -3   -1.75    1.41
   4 -11   3    1.55    1.16
  -4  11  -3    0.15    1.58
   4 -11   3   -0.79    1.96
  -3  12  -1    8.55    1.86
   3 -12   1    5.96    1.53
   3 -12   1    6.31    2.03
   3 -12   1    8.09    1.43
   3 -12   1    6.54    2.95
  10  -2   3    0.26    1.53
 -10   2  -3    2.20    1.55
  -8   0 -13   38.10    3.60
   8   0  13   41.05    3.30
   8   0  13   43.19    4.27
   8   0  13   39.29    3.90
  -6  -8 -15    8.45    2.00
  -6  -8 -15    5.87    1.22
  -6  -8 -15    7.29    2.05
   6   8  15    6.35    1.53
  -3  -1 -16   47.74    3.56
  -3  -1 -16   48.88    4.32
   3   1  16   43.24    3.07
   3   1  16   41.75    4.26
   3  -7  10    4.64    1.84
  -3   7 -10    8.39    1.43
  -3   7 -10    8.72    1.77
  10  -2   5   10.95    1.79
 -10   2  -5    8.07    1.39
 -10   2  -5    9.71    2.03
   4  -1  15    0.39    1.06
   4  -1  15    0.21    1.66
   4  -1  15   -3.77    2.67
 -10  -2  -4   25.15    2.69
 -10  -2  -4   19.84    2.49
  10   2   4   23.02    2.53
 -10  -2  -4   25.38    2.83
 -10  -2  -4   18.50    2.44
  -7  -7   1    7.54    1.57
   7   7  -1    7.69    2.40
   7   7  -1    5.81    1.48
   7   7  -1    7.26    1.63
  -8  -8 -11   14.82    1.83
  -8  -8 -11   11.87    2.60
   5  -9 -10    8.57    2.76
   5  -9 -10    7.76    1.73
   5  -9 -10    6.84    1.21
   5  -9 -10    3.69    1.28
   5  -9 -10    7.13    2.70
   5  -9 -10    9.70    1.99
  -9  -6 -10   34.70    3.56
  -9  -6 -10   29.66    3.15
  -9  -6 -10   27.58    2.78
   4  -5  12   27.82    2.82
   4  -5  12   24.35    2.31
  -4   5 -12   20.13    2.82
  -4   5 -12   25.46    2.56
  -3 -13  -9   18.87    2.68
   3  13   9   16.49    2.58
   3  13   9   17.26    1.58
  -6   4  10   18.54    3.21
   6  -4 -10   13.98    1.89
   0  -4 -16   66.85    5.23
   0   4  16   73.44    5.89
   0   4  16   74.82    6.61
  -7 -10  -9   65.95    5.79
   7  10   9   60.31    4.19
  -7 -10  -9   66.16    5.45
  -9   2   3   14.03    2.20
  -9   2   3   13.05    2.50
   9  -2  -3   11.85    2.23
   6  -6  10   17.19    2.46
  -6   6 -10   18.83    2.34
  -6   6 -10   21.36    2.76
   6  -6  10   18.83    2.37
  -2  -1  13   59.57    4.83
   2   1 -13   57.54    4.57
   2   1 -13   60.26    4.16
   3  11  -1   24.88    2.38
   3  11  -1   24.42    3.10
  -6   0   9   37.38    4.35
  -6   0   9   45.07    3.46
   6   0  -9   30.98    3.10
   6   0  -9   42.65    3.05
   9  -6   3    0.68    1.39
  -9   6  -3    0.99    1.48
   9  -6   3   -1.19    1.74
   0   3 -13   60.35    5.32
   0   3 -13   69.71    4.69
  -9  -3 -12   25.47    2.78
   9   3  12   23.70    3.19
  -9  -3 -12   28.89    3.13
   9   3  12   24.75    2.55
   1  12  13   14.95    2.20
  -1 -12 -13   11.60    3.46
  -1 -12 -13   18.08    2.42
  -4   6 -11    0.27    1.36
   4  -6  11    2.33    1.73
  -4   6 -11    3.47    1.28
   4  -6  11    3.49    1.21
  -4   6 -11    0.21    1.61
   4  -6  11    3.93    1.43
  -9   5  -6    7.92    1.81
   9  -5   6    7.60    1.56
  -9   5  -6    7.52    1.44
   9  -5   6   10.51    1.58
 -10   1  -2   11.54    2.10
  10  -1   2   15.02    2.10
  -8   8   2   10.87    1.78
   8  -8  -2   11.79    2.63
   8  -8  -2    8.75    1.87
   8  -8  -2    7.62    2.33
   8  -8  -2   12.53    2.22
  -8   8   2    9.10    2.05
   8  -8  -2    9.92    2.05
   3  -4  13    7.86    1.71
  -3   4 -13   10.80    2.21
  -3   4 -13    8.14    1.62
   3  -4  13    9.21    1.45
 -10  -1  -8   45.22    3.85
  10   1   8   52.65    3.96
  -1   2  15   13.34    2.30
  -1   2  15   17.15    3.19
   1  -2 -15   15.63    1.55
   1  -2 -15   14.96    2.28
  -6 -11 -10   38.24    4.19
   6  11  10   44.20    3.82
   6  11  10   37.64    2.80
  -6  -5 -16   31.18    2.64
  -6  -5 -16   31.43    3.28
   3  13   6   17.15    1.76
  -7   2   8   31.71    3.86
  -6  -4 -16   12.77    1.77
   6   4  16    8.16    2.63
  -6  -4 -16   16.59    2.55
  -9  -1   2    6.19    1.76
  -9  -1   2    3.66    1.38
   9   1  -2    1.73    1.52
   7  10   7    2.96    1.20
  -7 -10  -7    4.43    1.42
  -7 -10  -7    0.57    2.13
   2  -7  10   17.93    2.52
   2  -7  10   24.21    2.64
  -2   7 -10   25.44    2.54
   9  -6   0    8.56    1.88
  -9   6   0   11.72    2.02
   9  -6   0   12.46    2.61
   9  -6   0    8.58    2.04
   9  -6   0    9.70    2.00
   5 -10  -9    8.15    1.50
   5 -10  -9    7.00    1.79
   5 -10  -9   11.32    3.11
   5 -10  -9    7.77    3.33
   5 -10  -9    8.77    2.14
   5 -10  -9   10.00    1.26
  -9   3   3   10.53    2.15
  -9   3   3    9.41    2.28
   7  -6   9   -0.91    1.60
   7  -6   9    1.19    1.75
  -7   6  -9    1.18    1.53
   6  -5 -10   14.68    2.32
   6  -5 -10    8.63    1.75
  -6   5  10   13.25    2.93
  -2  -4  11    1.51    1.60
   2   4 -11    1.19    1.46
   2   4 -11    1.83    1.16
  -9  -2 -12    8.93    1.85
  -9  -2 -12    6.41    1.96
   9   2  12    5.53    2.18
   9   2  12    8.27    1.69
  -2  13   2   19.13    2.25
   2 -13  -2   14.01    2.00
   2 -13  -2   16.56    2.62
   2 -13  -2   22.81    3.71
   2 -13  -2   19.67    1.81
   5  10   0    9.59    1.42
   5  10   0    8.87    2.79
   5  10   0    7.74    1.46
  -4 -10 -15   53.78    5.25
   4  10  15   40.15    4.87
   4  10  15   46.18    3.63
  -4 -10 -15   45.13    4.33
  -4 -10 -15   42.93    4.60
   1   2  16   -1.65    2.06
  -1  -2 -16   -0.22    0.91
  -1  -2 -16   -1.78    1.81
   1   2  16    2.59    2.18
  -4  -1 -16   31.00    3.45
   4   1  16   28.50    2.25
   4   1  16   29.39    4.22
   4   1  16   28.85    3.44
   2  10  -4    5.93    2.00
   2  10  -4    5.90    1.45
   3   9  16    0.49    1.85
   3   9  16    0.28    2.47
  -3  -9 -16   -1.28    1.66
  -3  -9 -16    0.64    2.23
  -8   3   6   27.41    3.41
   9  -5  -2    8.45    1.81
  -9   5   2    9.55    1.91
   9  -5  -2    7.67    1.75
  -9   3  -9    9.18    1.83
   9  -3   9    7.25    1.89
   0  -7 -16    6.46    1.55
   0  -7 -16    7.76    1.31
   0  -7 -16    1.19    2.09
   0   7  16    5.06    1.86
   6  -9  -8    2.00    2.28
   6  -9  -8    5.28    1.95
   6  -9  -8    3.05    1.22
   6  -9  -8    3.98    1.58
   6  -9  -8    2.81    1.25
   8  -4  10   -0.18    1.83
  -8   4 -10    0.50    1.46
   8  -4  10   -1.01    1.72
  -5 -12  -8   14.86    2.77
   5  12   8   12.91    1.44
  -5 -12  -8   13.89    1.52
 -10   0  -2    4.80    1.33
  10   0   2    5.43    1.63
   8  -3  11    5.89    1.69
  -8   3 -11    5.35    1.76
   8  -3  11    6.69    1.55
   8  -3  11    6.99    2.08
   8  -3  11    7.83    2.02
   3   8  -6   75.38    5.26
   3   8  -6   62.25    4.52
   1  11  -3    6.85    1.56
   1  11  -3   10.20    2.30
  10   2   8   11.02    1.67
 -10  -2  -8    6.72    2.12
 -10  -2  -8    9.99    2.01
 -10  -2  -8    7.50    1.90
  -6 -10 -13    3.68    2.12
   6  10  13    4.97    1.69
  -6 -10 -13    4.52    2.16
  -6 -10 -13    4.90    2.10
  -2  -9 -16   56.53    5.64
   2   9  16   65.18    5.49
  -2  -9 -16   58.23    4.84
   1 -12 -12    0.17    1.18
   1 -12 -12   -0.88    0.78
   1 -12 -12    0.15    1.38
 -10   1  -7   15.28    2.10
  10  -1   7   13.75    1.91
 -10   1  -7    9.53    1.75
   6  -3  13    4.23    1.41
   6  -3  13    3.17    1.21
   6  -3  13    5.29    1.38
  -6   3 -13    3.22    1.76
   6  -3  13    6.49    2.18
   3  10  -3   19.90    2.86
   3  10  -3   21.50    2.19
   9  -2  10   16.43    2.25
  -9   2 -10   11.12    1.96
   9  -2  10   10.60    2.31
  -6 -11  -6   31.30    2.63
   6  11   6   30.43    2.50
   6  11   6   34.36    4.26
  -6 -11  -6   33.04    3.76
  -8  -4 -14    5.88    1.88
  -8  -4 -14    8.40    2.16
  -8  -4 -14    9.22    1.66
   8   4  14    6.86    1.37
   2 -11   4   19.31    2.43
   2 -11   4   19.18    3.31
  -2  11  -4   19.96    2.37
  -2  11  -4   19.76    2.00
   7  -2  13    1.69    1.95
   7  -2  13    2.35    1.19
   7  -2  13    1.01    1.38
  -7   2 -13    2.02    1.58
   7  -2  13   -0.68    1.96
   2 -12 -11    6.94    1.76
   2 -12 -11    2.70    2.63
   2 -12 -11    8.92    1.49
   2 -12 -11    5.16    1.33
   2 -12 -11    6.11    1.06
   2 -12 -11    2.78    2.67
  -8  -3 -14   -0.44    1.69
  -8  -3 -14    1.28    1.93
  -8  -3 -14    0.75    1.31
   7  -9  -5   10.22    1.73
   7  -9  -5    9.71    2.62
   7  -9  -5    7.53    1.78
   7  -9  -5    8.48    2.61
   2  -1  15   45.94    3.42
  -2   1 -15   51.31    3.73
  -2   1 -15   47.30    4.41
  -4  12   0    6.81    1.42
   4 -12   0    7.83    1.45
   4 -12   0   11.61    2.35
   4 -12   0    7.53    1.46
   4 -12   0    4.84    3.05
   6   9   0   34.41    4.04
   6   9   0   33.63    2.88
   6   9   0   36.18    2.96
  -6  -9   0   35.06    2.85
   6 -10   3    8.43    1.45
  -6  10  -3    9.70    1.96
   6 -10   3   12.24    2.39
  -1 -13 -11   28.82    4.23
   1  13  11   32.33    3.30
  -1 -13 -11   29.62    3.13
   5   5  -7    4.13    1.27
   5   5  -7    6.01    1.66
  -5  -5   7    7.10    2.32
  -5  -5   7    5.78    1.83
 -10  -3  -6   35.68    3.31
 -10  -3  -6   34.12    3.42
  10   3   6   37.89    3.25
 -10  -3  -6   34.19    3.36
 -10  -3  -6   36.83    3.52
   8  -4  -6   12.35    2.09
  -8   4   6   11.61    2.60
   5  12   9    5.53    1.10
  -5 -12  -9    2.75    2.03
  -8  -6   0   64.37    4.83
   8   6   0   62.41    4.69
   2  -1 -14   41.36    3.13
   2  -1 -14   46.22    3.83
  -2   1  14   50.84    4.90
  -2   1  14   39.73    3.78
  -7  -6 -15   39.69    3.67
  -7  -6 -15   35.67    2.95
  -7  -6 -15   34.56    3.69
   6  -3 -10   11.26    1.77
  -6   3  10    9.53    2.70
  -4 -12 -12   18.13    2.82
   4  12  12   12.77    2.35
  -4 -12 -12   18.76    3.65
  -4 -12 -12   11.24    2.60
   2  -9 -14   16.46    1.76
   2  -9 -14   10.41    1.42
   2  -9 -14   23.28    1.91
   2  -9 -14   21.75    1.92
   2  -9 -14   21.70    3.64
  -5  -1  10    4.83    1.47
  -5  -1  10    5.41    2.67
   5   1 -10    2.32    1.53
   5   1 -10    2.13    1.20
 -10  -3  -7   66.37    4.77
 -10  -3  -7   61.17    4.78
 -10  -3  -7   63.49    5.07
 -10  -3  -7   54.13    4.77
  10   3   7   60.08    4.41
  -9  -5  -2   32.33    3.49
  -9  -5  -2   31.63    2.91
  -9  -5  -2   34.14    3.05
   9   5   2   35.75    3.20
  -5 -12  -7   12.40    1.48
   5  12   7   12.49    1.48
  -5 -12  -7   11.47    2.72
  -8  -8  -4   75.88    6.07
   8   8   4   83.39    5.60
  -8  -8  -4   69.64    5.12
   5   6  -6   27.43    2.78
   5   6  -6   25.66    2.59
  -5  -6   6   32.61    3.42
  -5  -6   6   25.36    2.97
   5   6  -6   30.98    2.58
   9  -1  -3   19.94    2.62
  -9   1   3   18.08    2.55
  -9  -4 -12   41.85    3.66
  -9  -4 -12   48.54    4.29
  -9  -4 -12   48.80    4.25
   3 -13  -5    0.23    0.98
   3 -13  -5   -0.35    0.93
   3 -13  -5    0.39    0.90
   3 -13  -5    0.41    1.93
   0 -11 -14    0.32    1.35
   0 -11 -14    0.39    2.51
   0 -11 -14    0.09    1.11
 -10   2  -2   12.73    2.15
  10  -2   2   13.99    2.01
  -7  -2 -15   10.12    2.17
   7   2  15    8.47    1.27
   7   2  15   10.15    2.68
   3  -9 -13   15.89    1.81
   3  -9 -13   11.60    1.48
   3  -9 -13   21.16    2.76
   3  -9 -13   14.77    1.50
   3  -9 -13   14.07    3.31
 -10   0  -8    3.69    1.55
  10   0   8    2.15    1.34
  -4   4 -13   53.50    4.74
   4  -4  13   60.13    5.21
   4  -4  13   57.18    4.12
  -4   4 -13   57.24    4.27
   4  -4  13   56.46    4.44
   6  -8  -9    1.63    1.25
   6  -8  -9    2.39    1.77
   6  -8  -9    1.24    2.14
   6  -8  -9    1.98    1.59
  -9  -6  -4   24.91    2.51
  -9  -6  -4   24.04    3.09
   9   6   4   26.72    2.52
  -9  -6  -4   22.10    2.45
   2  12   0    8.48    1.56
   3 -13  -4    0.82    2.03
   3 -13  -4    1.29    1.02
   3 -13  -4    1.45    1.05
   3 -13  -4    1.44    2.88
   5 -11   2   19.86    2.02
  -5  11  -2   18.26    2.27
   5 -11   2   17.94    2.74
   5 -11   2   19.09    1.98
   1 -11   4    2.10    2.08
  -1  11  -4    1.18    1.02
  -1  11  -4    3.72    2.05
  -1  11  -4    2.29    1.43
   2   8  -7   34.99    2.82
   2   8  -7   25.22    2.95
   6   2  -8   12.82    1.95
  -6  -2   8   10.30    2.61
  -6  -2   8   10.52    1.74
   6   2  -8   11.54    1.69
   6   2  -8   14.85    2.15
   7  10  10   51.23    3.63
  -7 -10 -10   44.44    4.45
  -7 -10 -10   57.86    4.99
  -8   2   6   56.34    5.06
 -10   2  -6    7.26    1.46
 -10   2  -6   11.41    2.06
  10  -2   6    7.98    1.57
   5   9  -2   45.91    3.76
   5   9  -2   31.81    2.96
   5   9  -2   37.09    3.08
  -2   4 -13    0.12    1.22
   2  -4  13    0.09    1.15
   2  -4  13   -0.83    1.19
   1 -13 -10    5.63    1.56
   1 -13 -10    6.40    2.80
  -4 -11 -14   30.54    3.53
  -4 -11 -14   28.39    4.06
  -4 -11 -14   28.40    3.76
   4  11  14   24.22    2.69
  -3   5  14   24.34    2.60
   3  -5 -14   22.95    1.78
  -3   5  14   22.15    3.66
   3  -5 -14   22.81    2.25
   2   1  16   38.51    4.16
  -2  -1 -16   42.69    4.06
  -2  -1 -16   44.58    3.30
  -5 -11 -13   72.08    6.16
  -5 -11 -13   68.19    5.69
  -5 -11 -13   55.96    5.43
   5  11  13   73.85    5.63
  -6  -6 -16    0.09    1.13
  -6  -6 -16    0.18    1.66
  -3  -5 -17   23.11    2.48
  -3  -5 -17   22.90    2.85
   3  12  13    2.41    1.84
  -3 -12 -13   -0.38    2.59
  -3 -12 -13    2.36    1.81
   1   6 -10   43.83    3.35
   1   6 -10   39.51    3.33
   1   6 -10   38.86    3.26
   6   3  16    6.54    2.73
   6   3  16    6.39    1.07
  -6  -3 -16    6.77    1.96
  -6  -3 -16    6.98    1.48
  -6  -3 -16    4.02    1.95
  -2 -13 -11    6.31    2.10
  -2 -13 -11   12.82    3.22
   2  13  11    9.24    2.15
  10   3   5   69.39    5.07
 -10  -3  -5   57.69    4.87
 -10  -3  -5   59.43    4.86
 -10  -3  -5   65.59    5.10
 -10  -3  -5   72.60    5.14
  -6   0 -15   68.88    5.53
   6   0  15   70.79    5.03
   6   0  15   66.04    4.52
   6   0  15   59.50    5.80
   4  -7  10    1.29    1.38
  -4   7 -10   -0.81    1.31
   4  -7  10   -1.23    1.81
  -4   7 -10   -1.13    1.61
   3   3 -11   20.70    2.10
   3   3 -11   22.07    2.45
  -3  -3  11   27.41    3.90
  -3  -3  11   21.47    2.65
   0   9  -7   53.02    4.31
  -9   4  -8   15.87    2.04
   9  -4   8   19.68    2.43
   4 -10 -11   16.15    3.48
   4 -10 -11    9.02    1.49
   4 -10 -11   15.39    2.19
   4 -10 -11   21.51    3.29
   4 -10 -11   16.91    2.23
   1  13   2   55.90    4.06
   5   8  16   68.01    6.13
  -5  -8 -16   61.90    4.21
  -5  -8 -16   63.65    5.23
  -5  -8 -16   59.16    5.35
  -7 -10  -6    2.59    1.40
   7  10   6    6.42    3.00
   7  10   6    1.74    1.15
  -7 -10  -6    4.63    2.29
   3  13  10   32.35    3.41
  -3 -13 -10   27.06    3.32
   7  -6  -8    2.32    1.58
   7  -6  -8    1.62    1.71
  -7   6   8    1.89    2.18
   3   6  17    8.05    2.34
  -3  -6 -17   11.47    2.20
  -3  -6 -17   10.78    1.86
   4  12   3   69.99    4.82
  -9   4   3   13.15    2.39
  -9   4   3   12.83    2.14
   9  -4  -3   12.93    2.17
   8  -5   9    0.19    1.92
  -8   5  -9   -0.16    1.35
   8  -5   9   -0.19    1.51
  -2  10  -6    0.16    1.10
   2 -10   6   -0.92    2.25
  -2  10  -6    1.63    1.43
   8  -8   3    2.45    2.03
  -8   8  -3    2.23    1.84
   8  -8   3    3.28    1.34
  -8   8  -3    1.19    1.33
   9  -6   4   -0.55    1.32
  -9   6  -4   -0.14    1.43
  -7   8  -6    6.47    2.05
   7  -8   6    4.25    2.08
   7  -8   6    3.05    1.42
  -7   8  -6    7.20    1.48
   1  12  -1   -0.55    1.36
  -8  -5 -14    2.70    1.32
  -8  -5 -14    6.37    2.10
   8   5  14    3.37    1.16
  -8  -5 -14    2.52    1.73
   3 -13  -6    1.39    0.88
   3 -13  -6    1.23    0.97
   3 -13  -6    1.66    1.43
   3 -13  -6   -0.36    2.85
   3 -13  -6    1.61    0.98
   3 -13  -6    0.21    2.02
  -7  -8 -14   52.50    4.50
  -7  -8 -14   53.21    3.82
  -7  -8 -14   54.33    4.95
  -7  -8 -14   49.87    4.39
   8  -2  12   28.06    2.56
   8  -2  12   30.38    3.41
   8  -2  12   21.51    2.86
  -8   2 -12   24.87    2.85
  -3   6  14   46.31    4.85
   3  -6 -14   37.96    4.20
   3  -6 -14   38.14    3.05
  -6  11   2    3.40    1.43
   6 -11  -2    3.32    1.17
   6 -11  -2    2.90    2.01
   6 -11  -2    2.49    1.41
   6 -11  -2    4.35    1.30
   6  10   2   25.60    2.48
  -6 -10  -2   27.31    2.39
   6  10   2   32.93    3.95
  -4  -3  10   59.48    4.47
   4   3 -10   53.78    3.98
   4   3 -10   55.80    4.06
   4   3 -10   54.53    4.31
  -4  -3  10   46.46    5.20
   4   8  -5   17.67    2.59
  -5  -4   8   64.07    5.63
  -5  -4   8   63.87    4.98
   5   4  -8   65.59    4.66
   5   4  -8   67.28    4.96
  -9  -1 -12   12.73    2.22
   9   1  12   14.56    2.68
   9   1  12   15.18    2.06
  -5   1  11   11.39    3.04
   5  -1 -11   11.59    1.52
  -5   1  11   12.39    1.84
   6  -6 -10    3.23    1.90
   6  -6 -10    1.88    1.43
   6  -6 -10    2.86    1.66
  -6   6  10    0.59    2.28
 -10  -2  -3    0.46    1.52
 -10  -2  -3    0.34    1.42
 -10  -2  -3    1.07    1.57
  10   2   3    0.98    1.45
   9  -1  11    6.44    2.20
   9  -1  11    3.01    1.65
  -9   1 -11    7.83    1.85
   8   2  14    8.89    2.39
   8   2  14   11.91    1.68
  -8  -2 -14    9.42    2.11
   7   1  -7    2.13    1.47
   7   1  -7    3.09    1.35
  -7  -1   7    1.47    1.15
  -7  -1   7    2.40    1.92
  -1   6 -11    1.53    1.38
   1  -6  11    0.51    1.29
   6 -11  -3    8.11    1.83
   6 -11  -3    9.23    1.47
   6 -11  -3    7.53    2.35
  -6  11   3   10.36    1.74
   6 -11  -3    6.77    1.37
   3  13   5   15.77    1.68
 -10  -3  -8   16.85    2.38
  10   3   8   19.36    2.07
 -10  -3  -8   16.86    2.30
 -10  -3  -8   20.16    2.65
 -10  -3  -8   18.17    2.56
 -10  -1  -2    5.94    1.47
  10   1   2    5.64    1.61
 -10  -1  -2    7.27    1.95
   9  -6  -1   11.05    1.89
   9  -6  -1    8.78    1.99
  -9   6   1   15.16    2.16
   9  -6  -1    9.23    1.81
  -5 -12 -10   14.14    3.10
  -5 -12 -10   15.16    2.72
   5  12  10   11.82    1.28
   5  12  10   14.06    2.50
   1   7  -9   11.62    1.80
   1   7  -9   11.97    1.91
   1   7  -9   11.74    1.60
   1   5 -11   58.56    4.26
   1   5 -11   57.06    4.44
   3 -11   4    9.24    2.78
  -3  11  -4    8.32    1.52
  -3  11  -4    5.33    1.74
   3 -11   4    6.41    1.65
   3 -11   4    8.74    2.13
   3  -4 -14   51.77    4.10
   3  -4 -14   55.89    3.67
  -3   4  14   54.01    4.40
   2  13   3   79.00    5.36
   0  13  11   21.93    2.87
   0 -13 -11   17.19    2.31
   0 -13 -11   20.36    3.66
   0 -13 -11   16.47    1.52
  -4   5  13   98.44    8.06
   4  -5 -13   52.36    4.81
   4  -5 -13   91.33    4.78
   3 -13  -3    5.73    1.32
   3 -13  -3    9.17    1.33
   3 -13  -3    8.56    3.08
   4   5  17   54.27    4.58
  -4  -5 -17   51.48    4.20
   4   5  17   43.13    5.29
  -4  -5 -17   50.80    4.53
  -8  -7 -13   71.68    5.02
  -8  -7 -13   70.42    5.94
  -6 -11 -11   17.17    3.12
   6  11  11   18.99    1.63
  -6 -11 -11   19.98    3.23
   6  11  11   18.33    2.66
 -10   3  -3    4.62    1.72
   1  10  -5   49.99    3.92
   1  10  -5   53.75    4.40
   0  -3 -16   45.74    4.22
   0   3  16   51.22    5.13
   0  -3 -16   50.38    3.42
   0   3  16   45.11    4.35
  -3   8  -9    6.27    1.68
  -3   8  -9    9.14    1.48
 -10   3  -4    0.16    1.68
  -1  13   1    5.57    1.45
   1 -13  -1    7.60    1.75
   1 -13  -1    8.80    3.01
   1 -13  -1    6.83    1.32
  -4  -9 -16   17.00    1.61
   4   9  16   17.48    3.36
  -4  -9 -16   14.54    3.15
  -4  -9 -16   18.00    2.61
   3   4  17   22.37    3.32
  -3  -4 -17   19.40    2.68
   5  12   6    7.98    1.29
  -5 -12  -6    9.19    1.29
   8   1  -5   33.81    3.21
  -6   7  -9   13.39    2.28
   6  -7   9   15.67    2.30
   6  -7   9   15.46    2.38
  -6   7  -9   13.85    2.13
  -8   5   6    5.41    2.16
   8  -5  -6    4.60    1.68
   8  -5  -6    4.17    1.85
  -2   8  -9   15.75    1.73
  -2   8  -9   14.67    2.03
   2  -8   9   17.28    2.53
  -6  11   1    1.07    1.35
   6 -11  -1    1.13    1.32
   6 -11  -1    0.79    1.18
   6 -11  -1    2.39    1.09
   1 -12   2    0.26    2.19
   1 -12   2   -0.67    1.43
  -1  12  -2    2.16    1.48
  -8   8   3    5.63    1.64
   8  -8  -3    5.45    2.22
   8  -8  -3    1.56    2.18
   8  -8  -3    4.58    1.83
   8  -8  -3    1.33    1.55
   8  -8  -3    4.85    1.56
   0 -12 -13    2.05    2.60
   0 -12 -13    1.06    1.41
   0 -10 -15    0.38    2.73
   0 -10 -15    0.32    1.30
   5   7  -5   31.18    2.99
   5   7  -5   25.29    2.66
   5  -1  15    2.73    2.43
   5  -1  15    5.06    1.88
   5  -1  15    5.67    1.18
  -5   1 -15    5.40    1.87
   3 -10   6   28.87    3.04
   3 -10   6   28.29    3.85
  -3  10  -6   29.70    2.85
  -3  10  -6   26.92    2.56
   3 -10   6   29.62    3.08
   5  11   2   67.42    4.70
   5  11   2   63.64    6.08
  -7  -9 -13   54.80    4.89
  -7  -9 -13   63.14    5.12
  -7  -9 -13   57.70    5.27
   2 -13  -9    2.49    1.89
   2 -13  -9    0.93    1.12
   2 -13  -9   -0.99    2.75
   5  -8 -11   19.44    3.43
   5  -8 -11   16.47    1.96
   5  -8 -11   20.81    2.47
   5  -8 -11   25.80    3.16
   5  -8 -11   19.86    2.24
   2 -12   2    2.29    2.66
   2 -12   2   -0.78    1.36
  -2  12  -2    0.14    1.32
  -2   5  15    1.12    1.60
   2  -5 -15   -0.28    1.23
   1  -5  12   13.97    1.90
   1  -5  12   15.58    1.91
  -1   5 -12   13.60    1.83
   3  12   1   30.96    2.69
   2   5  17    2.25    1.96
  -2  -5 -17    3.15    1.89
  -2  -5 -17    5.10    1.45
   2   5  17    4.02    2.25
  -1  -9 -16   24.72    2.73
  -1  -9 -16   25.76    3.80
   1   9  16   24.34    3.01
  -4  -6 -17   -0.31    1.46
  -4  -6 -17    1.95    1.86
   4   6  17   -1.36    2.05
  -1   7 -10   19.99    2.18
  10  -1   1   13.59    2.09
 -10   1  -1   16.60    2.36
  -4   4  13   37.35    4.94
   4  -4 -13   42.38    2.98
  -4   4  13   46.40    4.80
   6   8  -2   25.01    2.53
   6   8  -2   30.88    3.48
   6   8  -2   27.92    2.54
   6 -10  -7    7.23    2.76
   6 -10  -7    6.47    1.33
   6 -10  -7   11.10    2.46
   6 -10  -7   10.18    1.79
  -2  -6 -17   20.83    2.71
   2   6  17   18.52    2.98
  -2  -6 -17   21.60    2.33
   4  10  -2    3.12    1.32
   4  10  -2    1.39    2.13
   4  10  -2    0.58    1.13
  -2   6  15   12.72    2.22
   2  -6 -15   15.26    2.80
   2  -6 -15   10.58    1.78
   3 -12 -10   21.57    2.01
   3 -12 -10   12.14    1.62
   3 -12 -10   11.58    3.34
   3 -12 -10   18.07    2.61
   3 -12 -10   16.06    3.63
  -3   3 -14    4.39    1.48
   3  -3  14    4.23    1.21
  10   2   9    2.12    1.36
 -10  -2  -9    0.75    1.66
 -10  -2  -9    2.02    1.78
 -10  -2  -9    2.83    1.63
  -9  -6 -11   57.20    5.26
  -9  -6 -11   59.42    4.95
  -9  -6 -11   62.45    4.52
   4  -6 -13    6.89    1.30
  -4   6  13   11.68    2.90
   4  -6 -13   12.78    1.68
   4  -6 -13    7.97    1.23
   4  -6 -13    9.15    1.07
   4  -6 -13   13.39    2.72
  -6 -11  -5   19.47    1.93
   6  11   5   21.20    2.04
   6  11   5   20.71    3.64
   4 -12  -8   24.87    3.15
   4 -12  -8   14.72    3.26
   4 -12  -8   18.20    1.89
   4 -12  -8   13.95    2.58
   4 -12  -8   23.97    2.12
   4 -12  -8   25.46    4.37
   1  -9 -15   10.39    1.71
  -1   9  15   10.43    2.04
   4 -11 -10    4.17    1.29
   4 -11 -10    7.60    1.99
   4 -11 -10    3.90    2.57
   4 -11 -10    4.75    3.04
   4 -11 -10    2.45    1.56
   7  -1  -8   28.63    2.80
  -7   1   8   40.62    4.32
  10   1   9    7.40    1.52
   4  11   0   46.94    3.56
  -8   7  -6   32.18    2.87
   8  -7   6   36.50    3.64
   8  -7   6   22.72    2.57
   5   1  16    9.48    2.98
   5   1  16    8.48    2.05
   5   1  16    8.40    1.24
  -1  10  -6    7.33    1.54
   1 -10   6    5.69    2.17
  -1  10  -6    4.25    1.13
  -1  10  -6    4.10    1.86
   0   0 -15    7.60    1.33
   0   0 -15    9.64    2.20
   4   4  17   65.81    6.47
  -4  -4 -17   70.60    5.26
  -4  -4 -17   69.66    5.60
  -6   2  10   43.32    4.57
  -6   2  10   34.10    4.32
   6  -2 -10   39.38    3.08
   0  -8 -16    2.09    1.39
   0  -8 -16    0.65    2.43
   0   8  16    4.60    2.05
  10   3   4   11.54    1.98
 -10  -3  -4    8.40    1.88
 -10  -3  -4   11.61    2.08
 -10  -3  -4   10.73    2.09
  -7  10   1    5.56    1.66
   7 -10  -1    7.60    1.69
   7 -10  -1    5.06    1.58
  -7  10   1    7.64    1.56
   7 -10  -1    8.28    1.51
  -9  -7  -8   65.29    5.07
  -9  -7  -8   80.86    5.32
   9   7   8   65.61    4.47
  -9  -7  -8   66.28    5.87
   6 -11  -4    6.01    1.82
   6 -11  -4   11.60    2.53
   6 -11  -4    8.70    1.52
   6 -11  -4   11.00    1.51
 -10   3  -2   19.83    2.58
  10  -2   1   45.09    3.79
 -10   2  -1   47.15    4.05
  -3  -7 -17   16.36    2.50
   3   7  17   16.20    2.93
  -3  -7 -17   12.58    1.88
  -3  -7 -17   17.79    2.91
  -9  -5 -12   33.18    3.03
  -9  -5 -12   35.38    3.54
  -9  -5 -12   32.71    3.70
   0 -13  -1    3.54    2.38
   0 -13  -1    7.31    1.71
   0 -13  -1    5.20    1.26
   0  13   1    6.10    1.49
  -5   5 -12    0.41    1.72
   5  -5  12    0.58    1.38
   5  -5  12   -1.66    1.69
   7  -9   4    2.12    1.15
   7  -9   4    4.08    2.09
  -7   9  -4    3.73    1.33
  -7   9  -4    3.49    1.80
 -10   3  -5    2.10    1.80
  10  -1   8   11.34    1.75
 -10   1  -8    7.76    1.71
   9   0  -3   46.57    4.00
  -9   0   3   48.17    4.20
   6  -2  14    3.12    2.23
  -6   2 -14    5.46    1.96
   6  -2  14    3.72    1.13
   6  -2  14    1.56    1.47
   7 -10  -2    2.94    1.55
   7 -10  -2    3.53    2.16
  -7  10   2    4.55    1.68
   7 -10  -2    3.10    1.38
   7 -10  -2    4.12    1.48
   9   7   7   51.75    3.73
  -9  -7  -7   52.43    4.75
  -9  -7  -7   47.37    3.85
   4  -9 -12   19.87    2.95
   4  -9 -12   14.64    1.71
   4  -9 -12   18.74    2.34
   4  -9 -12   18.71    2.12
   4  -9 -12   21.08    3.68
  -8   1   6   43.57    4.42
   8  -1  -6   37.06    3.41
  -8  -8 -12   50.25    5.00
  -8  -8 -12   51.92    4.56
  -8  -8 -12   61.15    4.16
   7  10  11   18.22    1.74
  -7 -10 -11   20.96    3.14
  -7 -10 -11   15.42    2.85
   2   3 -12    3.08    1.26
  -2  -3  12    3.60    1.78
   2   3 -12    0.87    1.43
  -5  12   3   -1.16    1.28
   5 -12  -3    0.26    1.02
   5 -12  -3    1.05    1.91
   5 -12  -3    1.06    0.90
   5 -12  -3   -1.25    1.38
  -7   7  -8    2.12    1.35
   7  -7   8    1.09    1.78
   7  -7   8    1.17    1.41
   3 -13  -7   15.27    1.44
   3 -13  -7   13.83    2.28
   3 -13  -7   16.84    3.71
   3 -13  -7   11.18    1.55
   3 -13  -7   10.05    2.52
  10   0   1   29.92    2.92
  -3   7  14    2.24    2.39
   3  -7 -14    5.46    2.46
  10  -2   7   16.00    1.95
 -10   2  -7   16.54    2.25
 -10   2  -7   11.59    1.76
   5 -11  -8   15.69    2.05
   5 -11  -8   15.69    3.85
   5 -11  -8   16.69    2.62
   5 -11  -8   13.78    3.30
   5 -11  -8   11.37    2.37
   5 -11  -8   12.53    1.67
   5 -11  -8   13.69    1.46
   7  -8  -7    4.33    2.26
   7  -8  -7    0.66    1.45
   7  -8  -7    3.05    1.29
   7  -8  -7    1.74    1.94
   7  -8  -7    0.64    1.61
   5 -10   5    2.28    1.33
   5 -10   5    3.60    1.98
  -5  10  -5    1.60    1.51
   4  -3  14   22.50    2.13
  -4   3 -14   16.45    2.15
  -4   3 -14   17.71    2.59
   2 -13  -1   16.12    2.08
   2 -13  -1   20.64    3.70
   2 -13  -1   16.48    1.78
  -2  13   1   15.05    2.06
  -9  -3   1    0.11    1.34
  -9  -3   1    0.32    1.54
   9   3  -1   -0.63    1.62
  -9  -3   1   -0.35    1.46
  -5   6 -11    0.73    1.49
   5  -6  11    2.40    1.52
  -5   6 -11    4.27    1.82
   5  -6  11    3.01    1.86
   2  -4 -15    3.65    1.45
  -2   4  15    4.06    1.78
  -2   4  15    7.60    2.66
   2  -4 -15    3.62    0.84
   7   5  -4   38.36    3.10
  -7  -5   4   40.99    3.62
  -7  -5   4   34.47    3.29
   7   5  -4   35.18    3.27
   5 -12  -4    6.10    1.67
   5 -12  -4    7.37    2.36
   5 -12  -4    7.21    1.33
   5 -12  -4    5.59    1.15
   8   9   8   16.39    1.51
  -8  -9  -8    9.33    1.65
  -8  -9  -8   12.87    2.72
  -7  10   0    7.87    1.86
  -7  10   0   11.05    1.57
   7 -10   0    7.23    1.66
   7 -10   0   10.30    1.78
   7 -10   0   10.67    1.56
   7   4  -5   27.46    2.63
  -7  -4   5   22.43    2.98
  -7  -4   5   32.31    2.89
   7   4  -5   32.84    2.97
   2   4  17    1.75    2.28
  -2  -4 -17    1.22    1.61
  -9  -7  -9   72.38    6.19
  -9  -7  -9   76.71    5.43
   9   7   9   77.38    5.11
   0  11  -4   12.45    2.45
   0  11  -4   15.22    1.91
  -6  -7 -16    0.91    1.72
  -6  -7 -16    3.56    1.98
  -6  -7 -16   -1.45    1.29
   1   1 -14    5.69    1.80
  -1  -1  14    5.28    1.89
   1   1 -14    8.14    2.02
   1   1 -14    7.61    1.37
   7  -1  14    0.51    2.20
  -7   1 -14    2.33    1.83
   7  -1  14    3.25    1.15
   7  -1  14    3.73    1.41
   6   2  16   29.68    2.29
   6   2  16   26.66    4.00
  -6  -2 -16   32.60    3.42
  -7  -7 -15   11.55    2.49
  -7  -7 -15   14.41    2.34
  -7  -7 -15   14.41    1.73
  -9  -4   0   31.62    2.98
  -9  -4   0   25.40    3.01
   9   4   0   28.78    3.02
  -9  -4   0   29.05    2.63
  -7 -10  -5   15.86    3.00
  -7 -10  -5   15.60    1.96
   7  10   5   15.66    1.83
   7  10   5   10.60    3.27
 -10  -3  -9    9.69    2.03
  10   3   9    7.97    1.47
 -10  -3  -9    5.22    1.81
 -10  -3  -9    4.34    1.86
  -5  12   2    0.83    1.20
   5 -12  -2   -0.54    1.05
   5 -12  -2    0.14    1.12
   6 -11   0    0.10    1.23
  -6  11   0    0.25    1.44
   6 -11   0    1.02    1.79
   6 -11   0   -0.51    1.09
  -8  -9  -9    6.33    2.46
   1   8  -8    1.43    1.38
   1   8  -8   -0.43    1.67
   1   4 -12   20.31    2.16
   1   4 -12   23.58    2.53
   8  -7  -5    0.78    1.62
   8  -7  -5   -2.90    2.22
   8  -7  -5   -0.12    1.22
  -7  -8   0   17.49    2.09
   7   8   0   15.93    2.00
   7   8   0   17.32    2.03
   7   8   0   13.76    2.99
   9  -5   7    6.47    1.55
  -9   5  -7    8.95    1.63
  -9   5  -7    7.25    1.76
   7   9   2   65.55    5.81
   7   9   2   64.06    4.59
  -7  -9  -2   63.29    4.58
   7   9   2   62.72    4.52
   3 -13  -2    3.49    1.15
   3 -13  -2    4.25    3.16
   3 -13  -2    2.97    1.35
  -2  -7 -17   59.58    4.59
  -2  -7 -17   64.91    5.13
  -2  -7 -17   69.34    5.78
   2   7  17   61.56    5.36
  -5   4 -13    0.42    1.56
   5  -4  13    0.70    1.25
   5  -4  13    2.89    2.23
   5  -4  13    0.64    1.60
   5  -4  13    0.94    1.25
   3   9  -5    3.20    1.85
  -3   3  14   14.61    2.19
   3  -3 -14   12.25    1.91
   3  -3 -14   16.50    1.52
  -7  -1 -15   17.00    2.56
   7   1  15   14.36    1.71
   7   1  15   19.98    3.26
  -8  -6 -14   13.32    2.53
  -8  -6 -14   10.73    2.21
  -8  -6 -14   14.02    1.82
   8   6  14   12.52    1.56
 -10  -4  -7   46.19    4.07
 -10  -4  -7   49.17    4.25
  10   4   7   50.25    3.86
 -10  -4  -7   54.54    4.52
 -10  -4  -7   53.08    4.16
  -5 -12 -11   11.86    2.58
  -5 -12 -11   14.18    3.30
   5  12  11   17.16    2.80
   5   3  -9   49.57    3.83
  -5  -3   9   54.92    4.43
  -5  -3   9   58.29    5.37
   5   3  -9   54.76    4.23
  -2   3 -14   20.70    2.90
  -2   3 -14   23.30    2.26
   2  -3  14   23.41    2.22
  -6   9  -6    6.74    1.84
   6  -9   6    5.90    1.56
   6  -9   6    8.51    2.18
  -3 -13 -11    6.00    2.86
   3  13  11    6.09    1.93
  -3 -13 -11    5.96    2.12
   2  -7 -15   22.60    3.55
   2  -7 -15   21.10    2.28
  -2   7  15   27.39    2.88
  -1   1 -15   20.31    2.01
  -1   1 -15   18.49    2.79
  -8  -9  -7   33.10    2.92
  -8  -9  -7   29.49    3.73
   8   9   7   31.79    2.36
   4  -8   9   18.52    2.65
   4  -8   9   15.92    2.26
  -4   8  -9   17.61    2.06
  -4   8  -9   18.97    2.39
  10   0   9    6.67    1.42
 -10   0  -9    5.60    1.71
   8  -6   8    6.36    1.79
  -8   6  -8    4.54    1.52
   8  -6   8   11.87    2.48
   0   2 -14    5.34    1.25
   0   2 -14    6.24    2.06
   9  -6   5    1.06    1.35
  -9   6  -5    0.58    1.62
   7 -10  -3    1.78    2.22
   7 -10  -3    3.23    1.38
   7 -10  -3    0.94    1.43
  -9  -7  -6   35.51    3.90
   9   7   6   33.63    2.80
  -9  -7  -6   32.46    3.06
  -5   9  -7    3.54    1.51
   5  -9   7    5.37    1.62
   5  -9   7    2.51    1.95
  -8   1 -13   23.79    2.85
   8  -1  13   17.66    3.16
   8  -1  13   17.45    2.84
   8  -1  13   24.55    2.25
  -4  -7 -17    2.03    2.10
   4   7  17   -0.99    2.36
  -4  -7 -17    3.03    1.05
  -4  -7 -17   -0.22    1.75
  -4  -7 -17    1.57    1.51
  -9  -6  -3   14.55    1.98
  -9  -6  -3   12.18    2.36
   9   6   3   15.88    2.09
  -9  -6  -3   13.32    2.06
  -2 -11 -15   41.39    3.72
  -2 -11 -15   26.73    4.43
   8   7   1   11.48    1.95
   8   7   1   16.10    2.02
  -8  -7  -1   13.49    1.89
  10   4   6   30.52    2.85
 -10  -4  -6   33.08    3.12
 -10  -4  -6   27.64    2.92
 -10  -4  -6   28.13    3.02
 -10  -4  -6   31.24    3.32
   4 -12   1    4.27    1.39
   4 -12   1    5.80    3.03
   4 -12   1    6.49    2.30
   4 -12   1    7.03    1.42
   9  -5  -3   11.44    2.02
  -9   5   3    7.53    2.02
  -3   0  13   20.88    2.55
   3   0 -13   23.22    2.13
   0  12  -2   22.25    2.30
   0 -12   2   19.20    3.12
   8   1  14    1.78    1.18
  -8  -1 -14    4.02    1.75
   8   1  14   -1.18    1.95
  -4   3  13   27.40    2.85
   4  -3 -13   20.13    1.84
  -4   3  13   30.96    3.99
  -1   4 -13   37.73    3.87
  -1   4 -13   39.88    3.19
   9   2  -2   13.88    2.22
  -9  -2   2   17.16    2.23
  -9  -2   2   16.09    2.33
   4   0 -12    2.38    1.11
  -4   0  12    0.35    2.62
  -4   0  12    3.78    1.52
  -3  -3 -17   50.82    4.49
   3   3  17   38.19    4.20
  -9   0 -12   45.80    4.09
   9   0  12   39.09    4.00
   2   9  -6    1.13    1.77
  -1   8  -9   39.96    3.31
   5  12   5   56.80    4.05
  -8  -8  -3   32.41    2.93
   8   8   3   30.40    2.73
  -8  -8  -3   34.08    3.86
   8   8   3   32.07    2.83
  -8   8  -4    2.14    1.42
  -8   8  -4    1.51    1.93
   6  -7 -10   11.47    2.52
   6  -7 -10    7.00    1.72
   6  -7 -10    6.96    2.28
  -1   1  15   50.11    4.42
  -1   1  15   57.31    5.37
   1  -1 -15   50.24    3.59
   1  -1 -15   51.65    4.41
   7   6  -3   65.63    4.89
  -7  -6   3   66.65    5.11
   3  13   4    0.55    1.03
   3 -12   2    1.62    1.36
  -3  12  -2    0.29    1.35
   3 -12   2    0.96    2.55
   3 -12   2    0.56    1.83
   4  -7 -13   20.68    2.05
   4  -7 -13   23.02    3.33
   4  -7 -13   20.58    2.52
  -4   7  13   19.11    3.23
   4  -7 -13   10.80    1.69
  -9   6   2    2.15    1.83
   9  -6  -2    3.24    1.85
   9  -6  -2    3.58    1.56
   9  -6  -2    3.62    1.55
   5 -12  -5    0.76    1.45
   5 -12  -5   -2.70    3.07
   5 -12  -5    0.40    1.03
   5 -12  -5    0.88    1.05
   5 -12  -5    1.47    1.97
  10   4   8   22.97    2.29
 -10  -4  -8   19.64    2.63
 -10  -4  -8   22.97    2.52
 -10  -4  -8   18.86    2.36
 -10  -4  -8   18.37    2.72
   7  -9  -6    8.45    2.48
   7  -9  -6    7.30    1.62
   7  -9  -6    8.41    1.71
   7  -9  -6    2.85    2.22
  10   2   2   -1.03    1.56
 -10  -2  -2    1.85    1.55
 -10  -2  -2    2.69    1.58
 -10   3  -1   17.74    2.38
   8   4  -3   23.67    2.71
  -8  -4   3   30.13    3.00
  -8  -4   3   22.55    2.56
  -1  -1 -16    6.01    1.89
   1   1  16    0.86    2.39
  -1  -1 -16    3.16    1.13
  -5 -10 -15   98.07    8.13
  -5 -10 -15  100.46    7.91
   5  10  15  101.87    7.10
  -5 -10 -15  115.48    8.07
 -10   3  -6    1.09    1.04
 -10   3  -6    0.16    1.66
   4   3  17   33.55    3.75
  -4  -3 -17   36.37    3.66
   3  11  15    4.82    2.75
  -3 -11 -15   13.08    3.53
  -3 -11 -15   12.17    2.40
   3  11  15   10.99    1.90
  -5   5  12   17.63    3.27
   5  -5 -12   19.04    2.16
   5  -5 -12   10.44    1.68
   5  -5 -12   17.10    1.60
   2 -11 -13   18.15    1.91
   2 -11 -13   19.80    3.71
   2 -11 -13   30.42    2.48
   2 -11 -13   22.11    2.27
   2 -11 -13   13.52    1.61
   1  13  12   35.61    3.53
  -1 -13 -12   39.06    4.69
  -1 -13 -12   28.25    3.21
   6 -11  -5    8.07    1.37
   6 -11  -5    9.54    2.44
   6 -11  -5    4.90    1.58
   6 -11  -5    8.14    2.09
  -5  -5 -17   41.58    3.17
  -5  -5 -17   38.52    3.69
   5   5  17   32.80    4.37
  -5  -5 -17   43.66    4.02
   7  -7  -8    0.96    1.73
   7  -7  -8    2.94    2.05
   7  -7  -8    3.96    1.71
  -6  -9 -15   14.54    2.58
  -6  -9 -15   10.78    2.42
  -6  -9 -15   10.36    2.44
  -8  -9 -10   -0.58    2.29
  -4 -12 -13   29.87    3.47
  -4 -12 -13   28.31    4.17
   4  12  13   32.40    3.34
  -7  -3   6    7.66    2.19
   7   3  -6   10.81    1.92
   7   3  -6   13.94    1.85
  -7  -3   6   11.35    1.83
  -6 -11 -12    2.09    2.46
   6  11  12    3.54    2.03
  -6 -11 -12    2.88    2.12
  -4 -13  -8   20.33    2.98
   4  13   8   18.77    1.77
   5   8  -4    1.15    1.33
   5   8  -4    0.69    1.73
  -5   7 -10   12.66    2.31
   5  -7  10   13.08    2.25
  -5   7 -10   13.23    2.06
   8  -6  -6    1.31    1.58
   8  -6  -6    2.10    1.78
   3   0  16   22.71    3.09
  -3   0 -16   26.48    3.09
  -3   0 -16   24.82    2.41
  -2 -13 -12   20.42    2.76
   2  13  12   16.53    2.56
  -2 -13 -12   19.06    3.81
  -7  10  -1    2.26    1.19
   7 -10   1    1.51    2.00
  -7  10  -1    0.86    1.59
   7 -10   1    0.91    1.16
   5  -4 -12   21.75    2.39
  -5   4  12   35.44    4.23
   5  -4 -12   33.78    2.39
   4 -10   6   18.63    2.75
  -4  10  -6   20.24    2.23
  -4  10  -6   18.43    2.46
   4 -10   6   14.90    2.13
   6 -10   4   17.39    2.76
   6 -10   4   12.28    1.79
  -6  10  -4   18.50    2.33
  -9  -7 -10   63.58    4.47
  -9  -7 -10   56.72    4.77
  -9  -7 -10   52.73    5.07
  -8  -5   2   93.37    6.40
   8   5  -2   88.28    6.29
  -8  -5   2   84.85    6.27
  10   1   1    0.15    1.47
 -10  -1  -1    0.64    1.51
  -6  -1   9    3.40    2.42
  -6  -1   9    4.94    1.47
   6   1  -9    2.32    1.41
   6   1  -9    5.22    1.29
   5 -12  -1    4.17    1.23
 -10  -4  -5   16.76    2.43
 -10  -4  -5   12.79    2.12
 -10  -4  -5   16.20    2.22
  10   4   5   14.05    2.06
 -10  -4  -5    8.08    2.13
 -10  -3  -3   36.27    3.43
 -10  -3  -3   33.29    3.24
 -10  -3  -3   30.69    3.06
  10   3   3   35.20    3.23
  -9  -5  -1   40.02    3.83
   9   5   1   41.20    3.56
  -9  -5  -1   37.17    3.45
  -9  -5  -1   37.93    3.16
   1 -13 -11   -0.46    1.23
   3   2 -12   23.40    2.21
  -3  -2  12   20.97    2.57
   3   2 -12   23.20    2.58
  -4  11  -4    3.23    1.52
   4 -11   4    2.50    1.46
   4 -11   4    2.73    1.89
  -4  11  -4    0.62    1.66
   4  13   9   39.97    2.89
  -4 -13  -9   29.06    3.53
  -6 -10 -14    4.12    2.24
  -6 -10 -14    5.18    2.39
   6  10  14    7.86    2.08
  -6 -10 -14    7.44    2.23
   4   0  16    3.52    0.99
   4   0  16    2.99    2.06
  -6  -5   6   67.50    5.57
  -6  -5   6   66.75    5.14
   6   5  -6   66.16    4.91
   6   5  -6   68.60    4.84
   6   5  -6   68.83    5.10
   4   2 -11   28.56    2.46
  -4  -2  11   22.86    2.56
  -4  -2  11   19.69    3.67
   4   2 -11   25.59    2.88
   8  -8  -4    1.30    1.52
   8  -8  -4   -0.81    2.27
   8  -8  -4   -0.23    2.13
   8  -8  -4    0.84    1.42
   8  -8  -4   -0.78    1.73
   4   9  -4   37.86    3.20
   4   9  -4   41.93    3.92
  -8  -3   4    4.60    1.33
   8   3  -4    5.27    1.85
  -8  -9  -6  102.27    7.63
   8   9   6  101.27    6.53
   8   9   6  105.43    6.90
  -8  -9  -6   94.09    6.58
   5   4  17   45.39    5.13
  -5  -4 -17   32.44    3.48
  -5  -4 -17   34.21    3.36
  -5  -6 -17    1.16    1.84
   5   6  17    1.21    2.22
  -5  -6 -17    0.35    1.72
  -5  -6 -17    0.78    1.05
   0 -14  -7   15.19    2.18
   0  14   7   18.36    1.98
  -2 -12 -14   17.34    3.78
   2  12  14   12.57    2.19
  -2 -12 -14   14.26    2.40
  -1 -11 -15   21.16    2.54
  -1 -11 -15   15.15    3.65
   5 -11   3    7.73    2.33
  -5  11  -3    3.48    1.63
   5 -11   3    3.51    1.29
  -4 -13  -7    9.39    2.34
   4  13   7   11.94    1.45
   0  14   6    2.80    1.24
   0   2  16   37.40    4.33
   0   2  16   32.68    3.66
   0  -2 -16   32.34    2.52
   0  -2 -16   31.87    3.34
  -2   3  15    1.31    2.36
  -2   3  15    0.20    1.63
   2  -3 -15    1.31    0.86
   2  -3 -15    2.98    1.47
   3 -13  -8    9.61    3.41
   3 -13  -8    9.95    2.53
  -1  -6 -17   35.10    2.89
  -1  -6 -17   32.94    3.30
   1   6  17   34.20    3.75
  -1   6  16    0.41    1.78
   1  -6 -16    0.16    1.23
  -1   6  16   -0.65    2.28
  -3  -8 -17   13.34    2.85
  -3  -8 -17   16.23    2.54
   3   8  17   17.83    3.22
  -1   5  16   -0.34    2.28
   1  -5 -16   -0.65    1.41
  -1   5  16   -0.63    1.69
  -2 -10 -16   48.10    4.22
  -2 -10 -16   45.54    5.15
  -2   9  -8    3.62    1.18
   2  -9   8    3.00    2.01
  -9   3   4    7.87    2.00
  -9   3   4    9.51    2.23
   9   3  13    6.39    1.61
  -9  -3 -13    8.20    2.32
   1   5  17   47.02    4.92
   1   5  17   45.51    4.37
  -1  -5 -17   45.57    4.13
   5  -6 -12   17.34    1.65
   5  -6 -12   22.22    2.28
   5  -6 -12   15.06    2.82
   5  -6 -12   11.06    1.80
  -5   6  12   14.18    3.08
   5  -6 -12   20.37    2.56
   3  10  16   13.01    3.22
  -3 -10 -16   12.82    2.45
  -3 -10 -16   12.72    3.24
   6  11   4   11.59    1.63
  -6 -11  -4   10.77    1.43
   6  11   4   13.04    3.34
 -10  -2 -10    1.27    1.93
 -10  -2 -10    3.14    1.65
 -10   4  -3   11.12    2.18
  10  -4   3    7.65    1.81
  -3   9  -8    8.39    1.51
   3  -9   8    9.13    2.49
   6   6  -5   28.75    2.89
  -6  -6   5   28.67    3.26
  -6  -6   5   27.72    2.98
   6   6  -5   30.36    2.70
   1 -11 -14   15.86    1.69
   1 -11 -14   29.02    2.46
   1 -11 -14   33.50    2.43
   9  -7   1    7.03    1.71
  -9   7  -1   11.29    1.96
   9  -7   1    9.05    2.18
   6  -8   8   -0.85    1.56
  -6   8  -8    0.28    1.51
   6  -8   8    0.35    1.71
   1  13   1   47.38    3.65
  -9   2   4   16.13    2.68
   9  -2  -4   19.14    2.50
  -9   2   4   28.13    2.93
  10  -1   0   41.96    3.75
 -10   1   0   44.91    3.92
   3 -11 -12   22.23    2.29
   3 -11 -12   38.41    4.83
   3 -11 -12   35.98    3.06
   3 -11 -12   34.81    4.05
   3 -11 -12   36.10    3.20
  -9   3 -10   10.88    1.99
   9  -3  10    6.76    1.96
  -2  -3 -17    0.21    1.72
   2   3  17    1.48    2.35
   2  13   2   16.03    1.89
   4  12   2   55.65    4.10
 -10   2   0   16.24    2.26
  10  -2   0   16.94    2.32
   5  -3  14   13.56    1.65
  -5   3 -14   13.86    2.48
   5  -3  14   16.83    2.43
   5  -3  14   16.26    3.00
   9   7   5    3.67    1.35
  -9  -7  -5    5.49    1.69
  -9  -7  -5    5.91    2.26
  -7 -10 -12   28.57    3.87
  -7 -10 -12   38.28    3.79
   7  10  12   38.25    2.81
   1  14   7    0.46    1.12
  -1 -14  -7    0.41    1.56
   7 -10  -4    5.60    2.39
   7 -10  -4    2.36    1.60
   7 -10  -4    4.76    2.08
   0  10  -6   50.53    3.83
   0  10  -6   44.63    4.09
  10   4   9   -0.58    1.17
 -10  -4  -9    0.14    1.52
 -10  -4  -9   -0.19    1.82
 -10  -4  -9    0.23    1.73
   3  -8 -14   28.83    3.77
   3  -8 -14   19.07    1.95
   5   9  16   92.97    7.53
  -5  -9 -16   71.71    5.57
  -5  -9 -16   70.63    5.64
  -5  -9 -16   61.40    4.27
  -5  -9 -16   54.35    5.50
  -6   1  10   40.08    4.60
   6  -1 -10   25.91    2.92
   6  -1 -10   44.99    2.99
   2 -13 -10    5.33    1.38
   2 -13 -10    9.58    3.03
   2 -13 -10    8.00    2.00
   2 -13 -10    6.27    2.99
  -2   0  14    3.11    1.64
   2   0 -14    7.27    1.34
   6 -11   1   -0.21    2.01
  -6  11  -1   -0.39    1.61
   6 -11   1    0.45    0.96
   9  -7   2    9.16    1.71
  -9   7  -2   12.63    1.98
   2 -10 -14   47.64    3.22
   2 -10 -14   46.18    3.28
   2 -10 -14   38.75    4.76
   2 -10 -14   55.08    3.39
   2 -10 -14   27.52    2.76
  -9  -4 -13   29.29    3.38
  -9  -4 -13   31.67    2.94
   9   4  13   27.88    2.76
 -10   4  -4   17.71    2.61
  10  -4   4   10.79    1.91
  10  -4   2   11.22    2.02
 -10   4  -2   13.29    2.20
  -6  -4   7   21.32    2.44
   6   4  -7   23.22    2.68
   6   4  -7   25.13    2.57
   6   4  -7   23.75    2.31
  -6  -4   7   20.56    2.99
  -1 -12 -14   32.88    3.37
  -1 -12 -14   31.73    4.75
   0 -14  -8   17.04    2.22
  -5 -11 -14   56.87    5.32
   5  11  14   55.70    4.56
  -5 -11 -14   44.58    4.77
  -5 -11 -14   53.52    4.86
 -10  -1 -10    6.23    1.88
   8   0  -6   36.10    3.29
  -9  -6 -12   12.78    2.54
  -9  -6 -12   15.08    2.03
  -9  -6 -12   15.21    2.44
  10  -2   8    8.21    1.88
  10  -2   8   14.75    1.83
 -10   2  -8   16.25    2.13
   5 -10 -10    7.80    1.48
   5 -10 -10    9.00    2.05
   5 -10 -10    3.73    2.62
   5 -10 -10    9.57    3.02
   5 -10 -10   11.72    1.98
   2 -12 -12   11.19    3.37
   2 -12 -12    6.09    1.78
   2 -12 -12    8.40    1.62
   2 -12 -12    5.52    1.09
   2 -12 -12    6.09    1.33
   2 -12 -12   11.40    3.10
   7  -4  12   23.75    2.48
   7  -4  12   18.30    2.97
  -7   4 -12   17.18    2.59
   7  -4  12   19.40    2.73
  -2  -8 -17   50.43    4.76
  -2  -8 -17   39.24    3.99
   2   8  17   46.84    4.44
   9  -7   0   -0.21    1.80
   9  -7   0    0.78    1.42
  -9   7   0    1.00    1.39
   9  -7   0    1.31    1.66
   1  14   8    1.55    1.09
  -1 -14  -8   -0.20    1.67
  -9  -2 -13   13.14    2.46
   9   2  13   12.66    1.93
   9   1  -3   22.14    2.64
  -9  -1   3   22.69    2.71
  -5   0  11   14.12    2.01
   5   0 -11   12.90    1.59
  -5   0  11   15.18    3.37
  -7   5 -11   23.85    2.90
   7  -5  11   23.99    2.76
   7  -5  11   24.39    2.96
   9  -2  11   -0.66    1.86
  -9   2 -11   -0.54    1.55
   0   6 -11   15.63    2.01
   0   6 -11   17.98    2.05
   6  -9  -9   -0.49    1.19
   6  -9  -9   -0.64    1.52
   6  -9  -9    0.39    1.79
   6  -9  -9    1.01    2.32
   6  -9  -9    2.09    1.37
   1  14   6    0.96    1.08
  -3   2 -15    8.31    1.56
   5 -12  -6   23.50    4.17
   5 -12  -6   19.20    1.82
   5 -12  -6   17.64    2.03
   5 -12  -6   11.42    2.29
   5 -12  -6   19.67    3.09
 -10  -3 -10   -0.42    1.65
 -10  -3 -10   -0.21    1.82
   0  14   5    4.30    1.32
 -10   1  -9    2.05    1.49
  10  -1   9    1.86    1.72
   2  11  -3   14.42    1.86
   3 -13  -1   12.24    1.61
   3 -13  -1   10.37    2.29
   3 -13  -1   10.70    1.78
   3 -13  -1   11.15    3.37
  -3  13   1   10.51    1.92
   7   0  -8   31.20    2.64
  -7   0   8   28.13    3.54
   7   0  -8   25.42    2.75
   3 -10 -13   22.01    3.76
   3 -10 -13   25.95    3.23
   3 -10 -13   16.54    1.76
   3 -10 -13   22.64    2.30
  -9   4  -9    1.21    1.39
   9  -4   9    0.75    1.63
   1 -13   0    1.82    1.31
   1 -13   0    1.94    1.38
   1 -13   0    1.16    2.79
  -1  13   0    3.16    1.50
   0 -13 -12   11.89    2.01
   0 -13 -12    8.08    2.98
  -4 -13 -10   62.15    5.44
   2  -8 -15   13.17    1.75
   2  -8 -15   12.94    3.08
   0  -9 -16    2.46    2.47
   0  -9 -16    5.13    1.56
   0   9  16    4.21    1.76
   5  -3 -12   20.80    1.79
  -5   3  12   14.62    3.23
   5  -3 -12   11.49    1.73
  -5   3  12   16.87    3.43
   1 -14  -6   16.50    1.64
   1 -14  -6   13.86    2.02
   1 -14  -6   16.95    3.59
  -1  14   6   18.17    2.05
   1 -12 -13   26.29    2.63
  -9   4   4    0.69    1.72
  -9   4   4   -1.10    1.79
   9  -4  -4    0.33    1.55
  -2   0 -16   39.16    3.80
   2   0  16   41.70    4.13
  -2   0 -16   37.38    3.04
   2   0  16   31.02    2.65
   1   7  17    4.00    2.08
  -1  -7 -17   11.17    2.67
  -1  -7 -17    5.67    1.38
  -1  -7 -17    4.96    1.68
   3  12  14    6.49    1.98
  -3 -12 -14    3.85    2.15
  -3 -12 -14    9.04    3.28
   5  10  -1   30.60    2.60
   5  10  -1   29.16    2.68
   4 -12  -9   15.05    3.35
   4 -12  -9   23.55    4.13
   4 -12  -9   17.90    1.94
   4 -12  -9   17.78    2.89
   4 -12  -9   20.24    2.16
  -1   7  16    0.20    1.68
   1  -7 -16   -0.92    1.28
   1  -7 -16    0.31    2.29
  -7  -7   2   26.33    2.88
   7   7  -2   31.56    3.55
   7   7  -2   30.90    2.79
   7   7  -2   30.22    2.90
   7  10   4   55.03    4.28
   7  10   4   73.20    5.97
  -7 -10  -4   62.59    4.51
   4  13   6    0.08    0.96
   5  12  12   47.11    4.26
  -5 -12 -12   44.55    4.50
  -5 -12 -12   45.57    5.06
   1  -4 -16    1.56    1.48
  -1   4  16    4.09    1.95
  -1   4  16    1.33    2.46
   0   7 -10    2.79    1.29
   3  11  -2   16.76    2.00
  -8   9   0   25.65    2.56
   8  -9   0   20.67    2.35
  -8   9   0   22.75    2.73
   4  -2  15    0.22    1.83
  -4   2 -15   -1.36    1.42
  -4   2 -15    2.00    1.88
   4  -2  15    0.34    1.08
   8   6  -1   56.86    4.37
  -8  -6   1   57.33    4.52
   8   6  -1   58.26    4.51
   1   9  -7    5.88    1.88
   1   3 -13    4.51    1.76
   1   3 -13    5.04    1.38
  -6 -10  -1   28.53    2.45
   6  10   1   36.65    4.21
   6  10   1   27.55    2.56
   6  -1  15   26.19    2.23
  -6   1 -15   30.42    3.42
   6  -1  15   20.01    3.47
  -8  -9 -11   18.87    2.98
  -4  -8 -17   12.05    2.72
  -4  -8 -17   13.88    2.09
  -4  -8 -17   14.02    1.53
  -4  -8 -17   10.35    2.28
   4   8  17    9.66    2.76
  -7   4   9   14.58    3.13
   7  -4  -9    7.13    1.58
  -1  -4 -17   46.83    4.26
   1   4  17   52.19    5.30
   1 -14  -7   26.60    2.66
  10   0   0    0.47    1.66
   8  -9  -1    7.37    1.81
   8  -9  -1    5.46    1.93
  -8   9   1   11.98    1.92
  -8   9   1    9.30    2.13
   8  -9  -1   12.75    2.76
   8  -9  -1   13.84    2.20
  -3   2  14    2.32    1.52
   3  -2 -14    5.00    1.15
   2  12  -1   13.49    1.82
  -7  -4 -16   36.33    3.99
  -7  -4 -16   45.29    4.16
   7   4  16   41.33    4.46
  -7  -4 -16   44.76    3.50
   6   9  -1  123.57    8.64
   6   9  -1  123.09    7.69
   6   9  -1  106.36    7.55
   1 -14  -5    5.80    1.23
   1 -14  -5    3.97    2.87
  -1  14   5    4.06    1.50
 -10   3   0   16.60    2.35
  -4   2  13   15.18    2.12
  -4   2  13   12.05    3.06
   4  -2 -13   17.34    1.75
 -10  -4  -4   44.08    4.04
 -10  -4  -4   44.58    3.71
 -10  -4  -4   41.14    3.77
  10   4   4   46.96    3.83
  -9   1   4   24.51    3.11
   9  -1  -4   20.36    2.63
  -8  -8 -13   46.86    3.57
  -8  -8 -13   44.36    4.52
  -6  -8 -16   42.75    4.13
  -6  -8 -16   47.06    4.30
  -6  -8 -16   43.29    3.29
   5   3  17   38.26    4.97
   5  -9 -11    1.75    1.42
   5  -9 -11    0.49    1.55
   5  -9 -11   -0.71    2.57
   5  -9 -11   -0.21    1.12
   5  -9 -11    0.27    2.25
   5   7  17   19.34    3.25
  -5  -7 -17   24.80    3.04
  -5  -7 -17   19.22    1.93
  -5  -7 -17   20.21    2.53
   2   2 -13   38.27    3.67
   2   2 -13   45.27    3.31
   0   5 -12   39.11    3.13
   0   5 -12   35.66    3.32
   6   1  16   72.31    4.85
   6   1  16   72.54    6.52
  -6  -1 -16   74.74    5.94
  -7  -5 -16   40.56    3.29
  -7  -5 -16   41.73    3.91
  -7  -5 -16   38.22    3.94
   2 -13   0    3.45    2.80
   2 -13   0    6.13    1.31
   2 -13   0    5.57    1.60
  -2  13   0    7.66    1.88
  -3 -13 -12    3.46    2.93
   3  13  12    0.18    1.91
  -3 -13 -12    0.48    2.08
  -1   3 -14   33.24    2.82
  -1   3 -14   30.86    3.56
 -10   3  -7    7.98    1.91
 -10   3  -7    5.44    1.43
  -7  -9 -14   45.45    4.22
  -7  -9 -14   41.16    4.10
   9  -7   3    0.45    1.26
   9  -7   3    0.50    2.38
  -9   7  -3   -0.99    1.60
   8   2  -5    1.11    1.60
   7  -8   7   -0.38    1.94
   7  -8   7   -0.31    1.42
   6 -10  -8   -2.51    2.57
   6 -10  -8    0.18    1.06
   6 -10  -8   -1.03    2.09
   6 -10  -8    0.82    1.19
   6 -10  -8   -0.77    1.49
  -9   6  -6    9.68    1.91
   9  -6   6   10.80    2.88
   4 -13  -4    6.34    1.21
   4 -13  -4    2.82    1.32
  -7  10  -2    1.51    1.64
   7 -10   2   -1.51    1.92
  -8  -7 -14   53.77    4.00
  -8  -7 -14   44.54    4.66
  -8  -7 -14   58.39    4.64
  -4 -11 -15   10.10    3.07
  -4 -11 -15    9.50    2.38
   5  12   4   73.27    6.55
   5  12   4   66.30    4.70
   6   7  -4   16.38    2.16
   7  -3  13    3.61    1.56
  -7   3 -13    0.61    1.82
   7  -3  13    1.82    2.07
 -10   4  -5    0.16    1.78
  10  -4   5    0.95    1.31
 -10   4  -1   15.78    2.27
  10  -4   1   15.86    2.29
   5   2 -10    5.11    1.35
  -5  -2  10    1.89    2.67
  -5  -2  10    4.57    1.57
  -7   5   9    0.89    2.35
   7  -5  -9    4.54    1.72
   7  -5  -9    1.47    1.48
   5 -12   0   -0.86    2.01
   5 -12   0    0.29    1.15
  -1   9  -8   45.23    3.55
  -1   9  -8   38.12    3.63
  -9  -7 -11   19.43    3.06
  -9  -7 -11   22.84    2.81
  -9  -7 -11   22.10    2.39
  -1 -14  -9   18.96    2.50
   4  -8 -13   14.76    1.88
   4  -8 -13   12.34    2.41
   4  -8 -13   12.48    2.88
   4  -8 -13    7.87    1.50
   7  -9   5    0.38    1.22
  -7   9  -5    1.99    1.89
   7  -9   5   -1.22    2.08
   8  -4  11    4.37    1.99
   8  -4  11    7.17    1.88
  -8   4 -11    5.60    1.83
   8  -4  11    5.17    2.00
   5  11   1    7.88    1.55
   8  -9   1    3.96    2.32
   8  -9   1    4.03    1.61
  -8   9  -1    2.11    1.32
  -8   9  -1    3.06    1.77
  -1 -10 -16   16.33    3.50
  -1 -10 -16   20.17    2.52
   7  -3  -9   14.49    2.02
  -7   3   9   12.39    3.08
   6 -11  -6    5.04    1.29
   6 -11  -6    3.67    2.00
   6 -11  -6    5.33    2.50
   6 -11  -6    4.73    1.41
   6 -11  -6    4.27    2.15
   3   2  17   49.67    4.80
  -3  -2 -17   49.28    4.42
  -7  -2   7    3.29    1.40
  -7  -2   7    3.14    2.21
   7   2  -7    1.62    1.36
   7   2  -7    2.93    1.49
  -8  -9  -5   94.90    6.51
   8   9   5  103.18    6.94
  -8  -9  -5   92.76    7.49
   9  -7  -1    0.14    1.52
   9  -7  -1    3.11    1.63
   9  -7  -1    0.43    1.85
  -9   7   1    3.07    1.65
   4 -13  -5    0.54    0.98
   4 -13  -5    1.41    1.35
   4 -13  -5    1.55    2.08
   5   0  16   13.59    1.56
  -5   0 -16   14.05    2.46
   5   0  16    8.26    2.29
   7  -6  10    5.30    1.85
  -7   6 -10    2.76    1.69
  -8   7  -7    4.46    1.53
  -8   7  -7    4.83    1.56
   8  -7   7    4.20    2.16
   8  -7   7    2.66    1.61
   5  -7 -12    7.73    2.17
  -5   7  12    9.82    2.83
   5  -7 -12    3.99    1.36
   5  -7 -12    7.48    1.84
   5  -7 -12    7.29    2.43
  -4 -10 -16   19.28    3.61
  -4 -10 -16   12.72    2.47
   4  10  16   11.32    3.30
   0  13   0   11.39    1.81
   1  14   5    7.83    1.39
   1 -10 -15    6.13    1.28
   1 -10 -15    4.37    0.89
   1 -10 -15   11.94    1.75
  -7  -8 -15   40.78    3.88
  -7  -8 -15   43.79    4.05
  -7  -8 -15   44.11    3.29
   8   0  14    2.96    1.32
   8   0  14    9.34    2.39
  -8   0 -14    7.99    2.19
   0 -14  -9   12.19    1.94
   8   4  15   22.30    2.06
  -8  -4 -15   25.56    3.06
  -8  -4 -15   21.63    2.36
  -8  -4 -15   20.43    2.93
  -9  -5 -13   37.89    3.84
  -9  -5 -13   36.30    3.29
   9   5  13   34.19    3.02
  -4   9  -8   27.73    2.65
   4  -9   8   19.60    2.56
   5  -8   9    9.37    2.10
   5  -8   9   13.65    2.22
  -5   8  -9   10.74    1.93
  -5   8  -9   10.60    1.99
   2 -11   5   16.93    3.09
  -2  11  -5   22.41    2.45
   4   2  17   57.74    5.16
  -4  -2 -17   57.93    4.98
  -8   4   7    2.19    2.18
   8  -4  -7    2.26    1.57
   3   6  -9   18.09    2.35
   3   6  -9   26.11    2.65
   3   6  -9   23.18    2.29
   8  -3  -7    0.79    1.60
  -8   3   7    3.52    2.18
  10   0  10    6.20    2.00
   3  13   3   -0.39    1.13
  -9   6   3    4.48    1.90
   9  -6  -3    3.22    1.38
   9  -6  -3    3.50    1.60
   3 -12 -11    6.87    2.07
   3 -12 -11    4.48    2.95
   3 -12 -11    9.18    3.19
   3 -12 -11    9.95    1.76
   3 -12 -11    6.37    1.30
   4 -13  -3   -0.22    2.24
   4 -13  -3    1.77    1.09
   8  -9  -2    1.18    2.18
   8  -9  -2   -0.25    1.75
   8  -9  -2    1.28    1.62
   8  -9  -2    3.39    2.20
  -8   9   2    0.15    1.73
  -8   9   2    2.60    1.53
   8  -9  -2   -0.16    1.71
   8  -3  12   22.02    2.60
  -8   3 -12   20.76    2.75
   8  -3  12   14.32    2.63
   8  -3  12   17.84    2.62
   2  -2  15   14.13    1.76
  -2   2 -15   14.29    1.89
  -2   2 -15   14.83    2.56
   3  12   0   25.04    2.42
   1  12  -2    7.93    1.55
   7   0  15   12.91    2.76
  -7   0 -15   13.21    2.43
   7   0  15   12.69    1.65
  -6   5 -12    5.31    1.82
   6  -5  12    4.77    1.63
   8  -8   5    0.66    2.06
  -8   8  -5    0.84    1.36
   1 -14  -8   -0.33    2.86
   1 -14  -8    0.48    1.25
   7   3  16   14.02    2.99
  -7  -3 -16   17.24    2.70
  -7  -3 -16   20.43    2.87
  -9  -6  -2   18.29    2.15
  -9  -6  -2   18.74    2.41
  -9  -6  -2   14.90    2.62
   9   6   2   19.31    2.38
   1  11  -4   13.93    2.69
   1  11  -4   17.63    2.05
   5 -11  -9    3.60    1.67
   5 -11  -9    7.43    2.16
   5 -11  -9    3.82    2.71
   5 -11  -9    5.63    1.39
   5 -11  -9    4.20    2.97
   9   1  13   87.97    6.14
  -9  -1 -13   83.98    6.42
 -10  -5  -7   27.68    2.82
 -10  -5  -7   25.27    2.96
 -10  -5  -7   30.00    3.40
 -10  -5  -7   28.37    2.94
  10   5   7   29.55    2.66
  -9   1 -12   13.72    2.29
   9  -1  12    9.10    2.41
   0  14   4    1.79    1.31
   0 -14  -4    2.16    1.18
  10   2   1    0.46    1.53
 -10  -2  -1    3.02    1.68
 -10  -2  -1    0.66    1.41
   6   3  -8   17.12    1.89
  -6  -3   8   14.62    3.10
  -6  -3   8   16.53    2.12
   6   3  -8    9.80    1.94
   8  -5  10    0.21    1.61
   8  -5  10    0.56    1.89
  -8   5 -10    2.25    1.62
  -8  -3 -15    0.69    1.87
  -8  -3 -15   -0.22    1.96
   8   3  15    1.80    1.11
   6  -8 -10   -0.26    2.15
   6  -8 -10    0.15    1.57
   6  -8 -10   -0.31    2.31
   6  -8 -10   -0.36    1.69
 -10  -4 -10    2.43    1.66
 -10  -4 -10    2.71    1.88
 -10  -4 -10    3.07    1.91
   4   6  -8    0.25    1.44
  -4  -6   8    0.53    2.00
   4   6  -8    2.70    1.72
   4   6  -8   -0.11    1.29
  -2 -14  -8    2.25    1.95
   2  14   8    3.01    1.08
 -10  -5  -8    0.56    1.54
 -10  -5  -8    2.12    2.01
 -10  -5  -8   -0.29    1.68
 -10  -5  -8   -0.36    1.68
  10   5   8    2.54    1.26
   9  -5   8   13.00    2.17
  -9   5  -8   12.85    1.94
   9  -5   8   11.29    2.79
   2  14   7    5.91    1.25
  -2 -14  -7    6.61    2.15
 -10  -3  -2   23.08    2.58
 -10  -3  -2   23.14    2.72
 -10  -3  -2   30.16    2.99
  10   3   2   28.73    2.95
  -1  14   4    5.33    1.52
   1 -14  -4    3.39    1.45
   1 -14  -4    5.90    2.82
   1 -14  -4    6.11    1.22
   2 -12   3    7.29    2.79
  -2  12  -3   10.23    1.84
   0   8  -9    6.66    1.56
   0   8  -9    3.49    1.67
   3   7  -8  108.66    7.67
   3   7  -8  129.11    8.10
   3   7  -8  118.96    7.76
   4 -12   2    6.37    3.13
   4 -12   2    3.27    1.40
  -4  12  -2    4.26    1.62
   3   5 -10    6.21    1.78
   3   5 -10    6.00    1.55
  -8  -5 -15    8.64    2.26
  -8  -5 -15   10.15    2.39
  -8  -5 -15    7.95    1.68
  -7  -6 -16   37.31    3.53
  -7  -6 -16   33.50    3.57
  -7  -6 -16   29.50    2.78
   3  10  -4    2.25    1.29
   3  10  -4    1.51    2.00
  -4 -13 -11   13.12    2.52
  -4 -13 -11   11.57    3.30
  -9  -7  -4    0.28    1.59
  -9  -7  -4    1.53    2.03
   9   7   4    3.45    1.35
   7 -10  -5   -0.22    2.35
   7 -10  -5    1.87    1.32
   7 -10  -5    0.94    2.21
   7 -10  -5    0.80    1.28
  -6 -11 -13    5.69    2.45
  -6 -11 -13    6.94    2.37
  -6 -11 -13    5.47    2.33
   6  11  13    7.31    2.06
   6  -4  13    2.83    1.99
   6  -4  13   -1.14    1.39
  -6   4 -13   -1.48    1.81
   6  -6  11   14.08    2.16
  -6   6 -11   13.69    2.56
  -8  -8  -2   12.22    1.89
   8   8   2   11.06    1.82
   8   8   2   12.51    2.95
   8   8   2   12.80    1.82
  -1  12  -3    5.23    1.54
   1 -12   3    5.66    2.59
   0 -11 -15    0.66    1.12
   0 -11 -15   -0.33    1.33
   0 -11 -15   -2.00    2.86
 -10  -5  -6    8.31    1.86
 -10  -5  -6    8.85    2.28
 -10  -5  -6   12.11    2.04
 -10  -5  -6   12.36    2.23
  10   5   6   13.45    1.94
   4   5  -9    4.88    1.74
   4   5  -9    7.04    1.55
   4   5  -9    5.91    1.76
   4 -13  -6   13.48    2.76
   4 -13  -6   12.54    3.73
   4 -13  -6   10.11    1.32
   4 -13  -6    3.72    1.75
  -1  11  -5    5.55    1.63
  -1  11  -5    6.45    2.20
   1 -11   5    4.32    2.28
   3 -13  -9    4.86    2.82
   3 -13  -9   12.31    3.40
   3 -13  -9   13.05    2.74
   4 -11 -11    2.15    2.52
   4 -11 -11    4.06    1.69
   4 -11 -11    3.93    1.21
   4 -11 -11    2.81    2.71
   4 -11 -11    3.90    1.93
   9  -5  -4   -0.33    1.48
  -9   5   4   -1.21    1.71
   4 -10 -12    9.45    2.62
   4 -10 -12    5.35    1.78
   4 -10 -12    5.37    1.63
   4 -10 -12    4.58    2.94
   4 -10 -12    4.66    1.16
  -3  11  -5   10.21    2.06
  -3  11  -5   12.25    1.78
   3 -11   5   17.12    3.29
   2  10  -5    9.61    1.67
   2  10  -5    4.41    1.99
   5   9  -3   19.64    2.22
   5   9  -3   21.68    2.26
   2  -2 -15    7.15    1.20
  -2   2  15    6.99    1.94
  -2   2  15    8.27    2.87
   2  -2 -15    4.80    1.74
   0 -12 -14   -0.17    1.35
   0 -12 -14    2.52    2.90
   8  -7  -6   -0.50    1.67
   8  -7  -6    0.74    1.97
   4  13   5   14.85    1.68
  -1  -8 -17    9.17    1.96
  -1  -8 -17   12.61    2.88
  -1  -8 -17    9.23    1.66
   1   8  17   13.58    2.49
   7   9   1   71.13    5.94
   7   9   1   68.26    4.74
   7   9   1   61.06    4.70
  -7  -9  -1   81.33    5.67
   8  -5  -7   -1.63    1.73
   8  -5  -7   -0.55    1.60
  -8   5   7   -1.61    2.13
   8  -9   2   16.77    2.08
  -8   9  -2   15.55    2.46
  -8   9  -2   14.85    1.95
   8  -9   2   16.49    3.07
  -1   8  16    8.68    2.07
   1  -8 -16    9.27    1.70
  -8   2   7   16.31    2.88
   4   7  -7    1.28    1.28
   4   7  -7    1.22    1.39
   4   7  -7   -1.65    1.88
  -2 -14  -9    4.66    1.98
   4  11  -1   15.64    1.96
   7  -6  -9    0.31    1.53
   7  -6  -9   -0.70    1.83
  -7   6   9   -1.75    2.49
  -1   3  16   11.61    2.45
  -1   3  16   13.22    3.00
   5 -12  -7    7.41    2.40
   5 -12  -7    5.26    1.99
   5 -12  -7   13.31    3.87
   5 -12  -7    6.14    1.53
   5 -12  -7    2.45    2.34
  10   1   0   23.21    2.69
 -10  -1   0   21.84    2.58
   5  -2  15   10.05    2.14
  -5   2 -15   10.01    2.29
   5  -2  15   10.34    1.49
  -6  11  -2    0.14    1.56
   6 -11   2    0.42    2.04
  -5   2  12   39.85    4.48
  -5   2  12   24.67    4.23
   5  -2 -12   39.70    3.03
   0   4 -13   82.46    6.17
   0   4 -13   91.20    6.01
   8  -8  -5    1.63    2.03
   8  -8  -5    0.66    1.43
   8  -8  -5    2.96    1.74
   8  -8  -5    0.68    2.13
   8  -8  -5    0.77    1.58
   2   2  17   -0.88    2.28
  -2  -2 -17    0.18    1.12
  -2  -2 -17    2.36    1.90
   2  14   6   12.28    1.51
   7  -8  -8    0.21    1.97
   7  -8  -8   -1.19    2.09
   7  -8  -8    1.15    1.72
  -9   7  -4    0.14    1.51
   9  -7   4    1.31    1.25
   9  -7   4    0.49    2.31
   0   1 -15    0.57    1.09
   0   1 -15   -1.31    1.82
   7  -9  -7   -0.64    1.58
   7  -9  -7   -1.28    2.31
   7  -9  -7    0.22    2.12
   7  -9  -7    0.61    1.49
   4 -13  -2   -0.62    1.09
   4 -13  -2   -1.60    3.56
  -1  -3 -17   39.11    3.82
   1   3  17   42.42    4.71
  -7   2   9   13.01    2.96
  -3  -9 -17    6.61    2.82
  -3  -9 -17   11.52    2.33
   3   9  17    3.12    2.57
   2   6 -10   55.13    4.26
   2   6 -10   57.05    4.20
  -9  -4   1   14.52    2.34
  -9  -4   1   20.67    2.49
   9   4  -1   18.64    2.53
  10   5   9    1.66    1.21
 -10  -5  -9    0.48    1.94
 -10  -5  -9    0.28    1.57
 -10  -5  -9    1.71    1.70
  -3   6 -12   11.95    1.94
   3  -6  12    8.27    1.94
   9   3  -2    5.49    1.93
  -9  -3   2    1.55    1.68
  -1 -14 -10   27.02    2.98
  10  -4   6    0.12    1.31
 -10   4  -6   -0.32    1.82
  10  -4   0   15.26    2.19
 -10   4   0   15.89    2.33
  -6  -5 -17    0.39    1.94
  -6  -5 -17    3.59    1.33
   6  11   3    0.11    1.33
   6  11   3   -2.21    2.79
  -6   5  11    3.90    2.75
   6  -5 -11    4.30    1.34
   2  13  13   50.84    4.37
  -2 -13 -13   45.19    4.10
  -2 -13 -13   37.05    5.07
 -10   2   1   17.32    2.38
  10  -2  -1   14.87    2.20
  -7 -10 -13   14.98    2.72
  -7 -10 -13   13.53    2.63
   2 -14  -6    9.18    1.64
   2 -14  -6    9.01    1.28
   2 -14  -6   10.47    2.37
  -6   4  11    2.92    2.63
   6  -4 -11    2.92    1.29
   6  -4 -11    5.83    1.30
   8  -2  13   15.12    2.67
   8  -2  13   16.65    2.38
  -8   2 -13   13.85    2.47
 -10  -2 -11   -0.22    2.12
 -10  -2 -11    0.62    1.60
  -9   0   4   36.12    3.57
   9   0  -4   30.16    3.12
  -8  -9 -12   23.75    2.93
  -8  -9 -12   15.37    2.97
   2 -14  -5   12.14    1.82
   2 -14  -5   12.63    3.30
   2 -14  -5   14.91    1.62
  -1 -13 -13   24.97    4.11
  -1 -13 -13   16.49    2.46
   1  13  13   20.68    2.70
   8   7   0   41.20    3.49
   8   7   0   40.26    3.46
  -8  -7   0   41.46    3.57
   8  -9  -3    2.15    2.35
   8  -9  -3    4.10    2.13
   8  -9  -3    0.14    1.86
   8  -9  -3    2.22    1.73
   8  -9  -3    0.58    1.66
   2   7  -9   50.57    3.93
   2   7  -9   46.57    3.78
   7  -2  14    0.69    1.19
   7  -2  14    2.06    2.11
  -7   2 -14   -0.22    1.63
  -5  10  -6   -0.54    1.49
   5 -10   6   -0.16    1.38
   5 -10   6    0.19    2.09
   9  -7  -2    2.83    1.58
   9  -7  -2    0.86    1.82
   9  -7  -2    3.22    1.70
  -9   7   2    1.95    1.74
 -10  -4  -3   26.42    3.06
  10   4   3   31.25    3.04
 -10  -4  -3   26.71    2.85
 -10  -4  -3   26.50    2.74
   4  12  14   14.65    2.30
  -4 -12 -14   11.41    2.52
  -4 -12 -14   13.31    3.42
   8   2  15    0.28    1.11
  -8  -2 -15    0.22    1.68
  -2  -9 -17   41.96    3.91
  -2  -9 -17   38.83    4.62
   1  14   4   38.98    3.16
  -6 -12  -9   21.60    2.13
   6  12   9   29.27    2.36
  10  -1  -1    1.46    1.61
  -7 -11  -9   47.23    3.69
  -7 -11  -9   54.64    5.06
   7  11   9   47.89    3.47
  -7 -11  -9   45.91    4.66
   1   0 -15   77.62    6.30
   1   0 -15   85.33    5.54
  -6  -4 -17    1.37    1.93
   6   4  17    5.60    2.76
 -10  -3 -11   -0.44    1.91
   3 -13   0   10.67    1.87
   3 -13   0   11.05    3.49
   3 -13   0   10.06    2.46
  -3  13   0    6.53    1.85
   3  -9 -14   11.54    1.60
   3  -9 -14   16.47    3.53
   6  12   8   28.33    2.36
  -6 -12  -8   31.43    2.66
  -7 -11  -8   36.29    3.01
  -7 -11  -8   32.97    4.04
   7  11   8   29.43    2.48
   3  -5  13    6.14    1.71
  -3   5 -13    8.20    2.19
  -3   5 -13   10.94    1.91
  10  -2   9   31.56    3.25
 -10   2  -9   39.73    3.48
   3 -12   3    1.92    1.46
   3 -12   3   -0.93    2.85
  -3  12  -3    1.50    1.58
   3 -12   3    0.75    1.96
   0   1  16   12.15    3.10
   0  -1 -16   11.82    2.35
   0  -1 -16   13.51    1.59
   1 -14  -9   -0.64    1.41
   1 -14  -9    1.98    2.81
   9   8   8   66.71    4.49
  -9  -8  -8   54.96    4.42
  -9  -8  -8   65.66    5.42
  -5  -8 -17   40.19    4.02
  -5  -8 -17   44.06    4.23
   5   8  17   43.47    4.72
  -5  -8 -17   43.17    3.76
  -5  -8 -17   38.63    3.02
   3  -7  11   18.64    2.50
  -3   7 -11   20.92    2.46
  -2  10  -7    4.69    1.28
   2 -10   7    2.22    2.13
   7  -7   9   -0.71    1.82
  -7   7  -9    1.78    1.59
   7  -7   9   -0.36    1.54
   1 -13 -12   -0.16    1.38
 -10  -5  -5    8.55    2.30
 -10  -5  -5   11.52    2.00
 -10  -5  -5   12.02    2.07
  10   5   5   10.47    1.88
   3   8  -7   62.14    4.45
   3   8  -7   56.89    4.76
   0 -14 -10    7.58    1.78
   7   8  -1    0.23    2.32
   7   8  -1    2.06    1.42
   7   8  -1    1.68    1.39
   2   5 -11    2.82    1.43
   2   5 -11    3.19    1.62
   1   0  16    9.15    2.86
  -1   0 -16    8.27    2.16
  -1   0 -16    6.60    1.34
   8  -6   9   -0.38    1.68
   8  -6   9    0.20    2.02
  -8   6  -9    0.66    1.43
   6   8  -3    1.60    1.29
   6   8  -3    1.02    1.41
  -4  -1  12    7.89    1.80
   4   1 -12    8.85    1.54
   2  -9 -15   16.26    1.83
   2  -9 -15   12.90    1.56
   2  -9 -15   15.65    3.32
   4  10  -3   19.07    2.20
   4  10  -3   21.37    2.18
   7   2  16   35.17    4.16
   7   2  16   30.14    2.47
  -7  -2 -16   30.94    3.37
  -6  -6 -17    4.60    1.32
  -6  -6 -17    7.44    2.19
   2 -14  -7    0.28    1.15
  -6  10  -5    7.44    2.04
   6 -10   5    8.22    2.36
   6 -10   5    2.80    1.43
   3   4 -11   18.83    2.48
   3   4 -11   23.63    2.29
  -9  -8  -9   93.56    6.57
  -9  -8  -9   99.94    7.59
   3   1 -13    9.60    1.51
  -3  -1  13    9.04    2.05
  -6   0  10   36.64    4.33
   6   0 -10   42.42    3.07
   6   0 -10   31.21    3.12
  -4   6 -12    2.01    1.54
  -4   6 -12    1.55    1.87
   4  -6  12    0.67    1.75
 -10   3   1   18.65    2.39
   4   4 -10   39.53    3.13
   4   4 -10   33.89    3.31
  -8  -6 -15   21.32    2.96
  -8  -6 -15   20.36    2.92
  -8  -6 -15   23.18    2.33
   2  -6  12    2.85    1.56
  -2   6 -12   -0.13    1.45
  -6   3 -14    2.60    1.92
   6  -3  14   -0.52    2.18
   5  12  13   45.47    4.14
  -5 -12 -13   43.86    4.36
  -5 -12 -13   39.12    4.84
  10  -5   3   11.38    1.83
 -10   5  -3   12.65    2.39
   6  -9   7   -0.16    1.33
  -6   9  -7   -1.63    1.67
   6  -9   7   -2.25    1.83
  -9  -5   0   21.96    2.82
  -9  -5   0   27.99    2.81
   9   5   0   20.55    2.49
  -9  -5   0   19.25    2.25
   0   6  17    9.48    2.87
   0   6  17   11.11    2.42
   0  -6 -17    9.80    2.02
 -10   5  -2    8.84    1.98
  10  -5   2    8.74    1.85
  -3  10  -7   34.77    2.94
   3 -10   7   38.42    4.23
  -3  10  -7   34.75    3.25
   2  13   1    0.65    1.29
 -10  -1 -11   15.06    2.38
  10   1  11   11.09    2.32
   6  -7  10    4.80    1.90
   8   1  -6   13.36    2.08
   2 -13 -11    9.11    3.00
   2 -13 -11   11.28    2.19
   2 -13 -11    8.04    3.15
  -7  10  -3   -1.27    1.83
   7 -10   3   -1.93    2.08
   5 -12   1    3.91    2.20
   1 -14  -3    1.94    2.80
  -1  14   3    4.27    1.47
   1 -14  -3    3.25    1.49
   2 -14  -4   16.26    2.09
   2 -14  -4   14.29    3.52
  -2  14   4   14.43    2.03
   2 -14  -4   19.89    1.87
 -10   3  -8   10.80    2.12
 -10   3  -8   14.19    1.96
   7  10   3   59.81    4.47
  -7 -10  -3   57.12    4.17
   7  10   3   70.25    6.07
   6  -6 -11    9.34    2.25
  -6   6  11    7.98    2.75
   6  -6 -11    7.64    1.58
  -9  -8  -7   74.71    6.53
  -9  -8  -7   83.70    5.81
   9   8   7   77.06    5.14
  -8  -9  -4   80.88    6.67
   8   9   4   84.61    5.88
  -8  -9  -4   78.08    5.62
  -9  -7 -12   13.10    2.38
  -9  -7 -12   14.20    1.92
  -9  -7 -12   12.50    2.69
  -9  -6 -13    2.69    1.42
  -9  -6 -13    2.28    2.04
  -7 -11 -10   67.10    5.89
   7  11  10   59.64    4.12
  -7 -11 -10   63.60    5.69
  -5  11  -4    9.50    1.96
   5 -11   4    7.20    1.62
   5 -11   4    8.54    2.29
  -6 -12 -10   20.08    3.27
  -6 -12 -10   15.36    2.96
   6  12  10   18.94    1.75
  10  -1  10    2.25    1.68
 -10   1 -10    4.26    1.62
  -4   5 -13   39.61    3.37
   4  -5  13   29.38    3.03
  -4   5 -13   34.28    3.76
   4 -13  -7   20.24    4.43
   4 -13  -7   14.79    2.80
  -2 -14 -10    4.46    2.02
   0  14   3    4.99    1.47
   0 -14  -3    3.73    1.27
   5   6  -7   11.27    2.10
  -5  -6   7    7.69    2.36
   5   6  -7   11.32    1.90
   5   6  -7   13.02    1.76
   0  -5 -17   18.89    2.49
   0   5  17   19.02    2.93
   0   5  17   18.96    3.55
   9   2  -3   41.08    3.75
  -9  -2   3   48.68    4.29
  -4  -9 -17   24.99    3.65
   4   9  17   29.00    3.98
  -4  -9 -17   29.49    3.33
  -4  -9 -17   26.43    2.20
   6  -3 -11   10.28    1.71
  -6   3  11   18.71    3.42
   6  -3 -11   13.06    1.61
   6  12   7   30.40    2.52
   1  13   0   21.94    2.26
  -7 -11  -7   10.48    1.66
   7  11   7    9.08    1.46
  -7 -11  -7    6.44    2.26
  -2   7 -11   21.44    2.46
   2  -7  11   15.10    2.35
   5  -8 -12    1.41    1.30
   5  -8 -12    0.32    2.26
   5  -8 -12   -1.36    2.08
   5  -8 -12    0.15    1.56
   4  12   1   41.75    3.35
   5   5  -8   18.50    2.03
  -5  -5   8   15.62    3.02
   5   5  -8   16.35    2.32
   0  12  -3   11.66    1.74
   2  14   5   15.30    1.72
  -7  -7 -16   10.79    2.20
  -7  -7 -16   10.15    1.58
  -6 -10 -15   30.44    3.50
  -6 -10 -15   18.60    3.20
  -6 -10 -15   25.47    3.47
   6  10  15   23.74    2.86
   4   8  -6   19.31    2.15
   4   8  -6   14.89    2.57
   1  10  -6   24.69    2.82
   1  10  -6   15.74    2.10
   6 -11  -7    3.45    2.32
   6 -11  -7    7.09    1.68
   6 -11  -7    5.66    2.69
   1   2 -14    1.00    1.22
   9   0  13   36.62    3.19
  -9   0 -13   29.18    3.25
   4  -1 -13    1.88    1.06
  -4   1  13    1.38    2.60
  -4   1  13    1.70    1.45
   5  12   3   40.55    3.25
  -2   5 -13    1.54    1.42
  -3   1  14   12.52    2.15
   3  -1 -14   18.29    1.86
   0   9  -8   31.67    2.72
   0   9  -8   21.57    2.82
 -10  -5 -10   23.44    2.80
 -10  -5 -10   13.55    2.70
 -10  -5 -10   14.56    2.18
 -10   5  -4    9.27    2.17
  10  -5   4    7.65    1.69
  -4   7 -11   -1.33    1.56
   2   8  -8   60.13    4.67
   2   8  -8   58.61    4.37
   8  -6  -7    1.51    1.58
   8  -6  -7    3.17    1.78
   3  13  13    5.02    1.95
  -3 -13 -13    6.61    2.16
   0 -10 -16    0.38    2.68
   0 -10 -16   -0.16    1.43
  10  -5   1    6.50    1.81
 -10   5  -1    9.24    1.96
  -3   1 -16   26.37    2.53
  -3   1 -16   28.05    3.22
   3  -1  16   28.16    3.47
   3  -1  16   27.31    2.39
   7   1  -8   25.24    2.83
   7   1  -8   33.14    2.80
   8  -9   3    6.25    2.61
  -8   9  -3    8.12    1.60
 -10  -4 -11    4.07    2.01
 -10  -4 -11    8.17    2.36
  -8   1   7   29.99    3.73
   8  -1  -7   30.32    3.03
  10   0  -1   -0.99    1.74
  -4 -13 -12   20.18    3.13
  -4 -13 -12   25.94    4.01
   0   7  17    2.94    1.90
   0  -7 -17    6.66    2.65
   0  -7 -17    6.24    1.70
   6   2  -9    2.45    1.24
   6   2  -9    0.72    1.39
  -6  -2   9    0.29    2.36
  -6  -2   9    3.61    1.44
  -9   6  -7   -1.33    1.48
   9  -6   7   -0.71    2.28
  -9   6  -7   -0.14    1.46
  -1   2 -15   38.46    3.87
  -1   2 -15   37.09    3.08
  -9  -8 -10   60.94    5.54
   6   3  17    8.17    2.84
   4 -13  -1    0.78    3.29
   4 -13  -1    2.43    1.19
   4 -13  -1    1.78    2.26
   4  -1  16   -0.46    1.85
   4  -1  16   -0.32    1.02
   4 -12 -10    7.62    1.41
   4 -12 -10    4.02    2.91
   4 -12 -10    1.58    1.97
   4 -12 -10    3.07    2.79
   4 -12 -10    3.66    1.69
  -1  13  -1    2.25    1.48
   1 -13   1    4.00    2.66
   4  -9 -13    9.07    2.89
   4  -9 -13   10.00    2.47
   4  -9 -13    5.32    1.40
  -5 -10 -16   38.93    4.22
  -5 -10 -16   37.79    3.98
  -5 -10 -16   35.79    4.39
   0  11  -5   28.15    2.70
   5   7  -6   15.45    1.80
   5   7  -6   12.21    2.25
   5   7  -6    8.56    1.72
   5   7  -6   11.04    1.96
  -3   4 -14   -2.09    1.94
  -3   4 -14    4.42    1.56
   3  -4  14    0.27    1.45
  -1  10  -7    1.33    1.03
   1 -10   7    2.53    2.03
  -1  10  -7   -0.83    1.74
   4 -11   5    1.75    1.42
  -4  11  -5    3.53    1.65
  -4  11  -5    3.78    1.53
   4 -11   5    1.53    2.08
  -6  -9 -16   41.62    4.29
  -6  -9 -16   45.31    4.32
  -6  -9 -16   40.32    4.29
   0 -13 -13    4.66    2.93
   0 -13 -13    3.85    1.63
  -5   9  -8    5.75    1.75
   5  -9   8    4.67    2.08
  -9   3   5    1.73    2.00
   4  13   4   15.02    1.76
   6   0  16   24.11    2.15
   6   0  16   24.76    3.76
  -6   0 -16   31.71    3.57
   2 -14  -8   -0.19    1.95
   2 -14  -8    0.69    1.16
   2 -14  -8    2.13    2.94
  -2 -11 -16   50.48    5.64
  -2 -11 -16   53.51    4.56
   2 -13   1    3.02    1.55
   2 -13   1    3.09    2.89
  -2  13  -1    2.84    1.61
  -5 -11 -15   20.03    3.12
  -5 -11 -15   26.07    3.80
   5  11  15   25.96    2.97
   3   1  17   26.73    3.54
  -3  -1 -17   24.70    3.10
   7   5  -5   23.33    2.32
  -7  -5   5   23.60    2.61
   7   5  -5   19.81    2.59
  -8  -8 -14   75.01    6.16
  -8  -8 -14   68.09    5.59
   9   8   6   73.02    4.99
  -9  -8  -6   73.90    5.38
  -9  -8  -6   71.59    6.21
  -2 -12 -15   33.34    4.82
  -2 -12 -15   39.03    3.80
   7  -7  -9    1.12    1.51
   7  -7  -9    2.65    1.98
  -3   8 -10    0.15    1.55
   3  -8  10   -0.18    1.85
   9   3  14    4.83    1.52
  -9  -3 -14    2.77    2.04
  -9  -3 -14    5.10    2.26
  -9  -7  -3   15.89    2.76
  -9  -7  -3   17.73    2.32
   9   7   3   19.90    2.26
  -4  -1 -17   30.91    3.48
   4   1  17   34.25    3.78
  -5  -1  11    7.16    1.71
   5   1 -11    6.11    1.42
  -5  -1  11   10.42    3.09
  -9   3 -11    2.18    1.69
   9  -3  11    0.22    1.83
  -9   7  -5    2.55    1.64
   9  -7   5    2.22    2.46
   3  13   2    7.25    1.48
   9  -6  -4    0.49    1.57
  -9   6   4   -0.35    1.73
   7 -10  -6    3.75    1.48
   7 -10  -6    1.73    1.49
   7 -10  -6    0.45    2.15
   7 -10  -6    5.99    2.53
  -9  -4 -14   21.50    3.00
  -9  -4 -14   22.54    3.09
   9   4  14   23.22    2.36
  -3 -11 -16    2.23    2.79
   0  -4 -17   33.47    3.40
   0   4  17   30.66    4.10
  -6  -7 -17   18.63    2.82
  -6  -7 -17   18.32    2.00
  -6  -7 -17   19.35    2.62
   4  -4  14   19.60    2.39
  -4   4 -14   19.43    2.38
  -4   4 -14   20.19    2.91
   7  11  11   24.76    2.07
  -7 -11 -11   23.21    3.40
  -6 -12 -11   27.44    3.90
  -6 -12 -11   25.26    3.60
  -7   1   9   36.65    4.36
   7  -1  -9   34.73    2.86
   7  -1  -9   29.35    2.93
  -7   1   9   31.07    4.05
   2   4 -12    0.43    1.51
   2   4 -12   -0.44    1.36
   9  -4  10    6.51    2.51
  -9   4 -10    4.16    1.64
   9  -4  10    6.96    1.97
  -3 -14  -8    8.07    2.31
   3  14   8    8.06    1.29
   1   9  17   -0.47    2.03
  -1  -9 -17   -1.49    1.68
  -1  -9 -17    0.34    2.20
  -1 -14 -11   36.48    4.77
  -1 -14 -11   38.16    3.65
   2 -14  -3   22.85    4.23
  -2  14   3   19.14    2.32
   2 -14  -3   16.40    2.20
   2 -14  -3   20.48    1.94
   8  -9  -4    0.29    2.22
   8  -9  -4    0.73    1.65
   8  -9  -4   -0.45    1.56
   8  -9  -4    0.99    1.60
   8  -9  -4   -0.95    2.25
 -10  -3  -1    2.40    1.58
 -10  -3  -1    1.12    1.65
 -10  -3  -1    2.64    1.56
  10   3   1    1.71    1.70
   8   4  -4   10.91    2.08
  -8  -4   4    8.37    1.71
   8   4  -4    3.37    1.56
  10  -4   7    0.90    1.34
 -10   4  -7    0.62    1.79
 -10   4   1    6.73    1.82
  10  -4  -1    8.71    1.90
   9  -2  -5    5.75    2.00
  -9   2   5   10.02    2.36
   8   5  -3   49.08    4.10
   8   5  -3   47.49    3.84
  -8  -5   3   46.70    3.89
  -5  -4   9   70.96    5.52
   5   4  -9   63.93    5.03
  -5  -4   9   75.36    6.57
   5   4  -9   71.20    4.87
  -9   4   5    0.24    2.03
   9  -4  -5    2.40    1.68
   2   1 -14   16.50    1.84
  10   5   4   62.05    4.70
 -10  -5  -4   56.63    4.82
 -10  -5  -4   49.85    4.25
 -10  -5  -4   59.08    4.46
   0   3 -14   32.73    2.83
   0   3 -14   32.87    3.15
   8  -1  14    4.19    1.77
  -8   1 -14   10.18    2.28
   1  -9 -16   15.20    2.05
  -8   8  -6    1.57    1.43
   8  -8   6    0.22    2.17
  -2   8 -10    7.92    1.82
  10   0  11    5.87    2.16
 -10   0 -11    5.62    1.81
   2 -11 -14   26.99    4.37
   2 -11 -14   28.36    2.45
   2 -11 -14   18.46    1.83
   7   4  -6    7.01    1.56
   7   4  -6    4.83    1.70
  -7  -4   6    6.37    1.70
  -7  -6   4   30.56    3.13
   7   6  -4   32.57    2.97
   7   6  -4   37.29    3.26
   6  12   6   15.46    1.78
   3  -5 -15   47.43    3.77
  -3  -6 -18   -0.22    1.71
  -3  -6 -18   -0.59    1.51
  10   2   0   13.86    2.29
 -10  -2   0   18.99    2.45
   3  -6 -15   13.75    1.83
  -3   6  15   18.87    3.53
  -7 -11  -6   -0.11    1.33
   7  11   6    1.38    1.20
  -7 -11  -6    2.80    2.43
   8   1  15    2.10    1.19
  -8  -1 -15    1.78    1.92
  -5 -13  -9    1.74    2.21
   5  13   9    0.36    0.87
   1  -2 -16    4.70    1.99
  -1   2  16    3.30    2.48
   1  -2 -16    2.13    1.01
   8  10   9    4.36    1.33
  -8 -10  -9    2.88    1.42
  -8 -10  -9    3.08    2.41
  -3 -14  -9    6.91    2.15
  -5 -13  -8   11.39    2.62
   5  13   8    8.84    1.33
  -3  -5 -18    1.30    1.67
  -3  -5 -18    0.44    1.45
   5 -12  -8    1.49    2.19
   5 -12  -8    1.88    1.40
   5 -12  -8    5.13    2.66
   5 -12  -8    0.39    3.24
   7  -9   6    6.64    1.59
   7  -9   6    7.92    2.46
   6  10   0   99.87    7.28
   6  10   0   79.91    5.82
  -3 -14  -7   31.44    3.60
   3  14   7   37.08    2.84
  -9   7   3    2.65    1.72
   9  -7  -3    1.21    1.42
   9  -7  -3    2.35    1.43
  -8 -10  -8   -0.12    1.41
   8  10   8    0.62    1.17
  -8 -10  -8   -0.93    2.18
   2 -12 -13   15.87    1.61
   2 -12 -13   33.33    4.50
   3 -13 -10   15.26    3.62
   3 -13 -10   15.69    3.40
   3 -13 -10   14.76    2.74
  -4  10  -7    9.93    1.92
  -4  10  -7   11.97    2.17
   4 -10   7   10.91    2.33
  -3 -12 -15   14.55    2.78
  -3 -12 -15   13.45    3.44
  -9  -6  -1   46.34    3.89
  -9  -6  -1   57.89    4.27
  -9  -6  -1   53.34    4.76
   9   6   1   55.78    4.42
   1  14   3   11.60    1.65
   1   6 -11   46.18    3.68
   6  -7 -11    2.25    2.06
   6  -7 -11    0.69    1.31
   6  -7 -11    6.76    1.84
   6  -7 -11    3.91    2.31
  -6   7  11    3.77    2.42
   1   2  17   27.83    3.95
  -1  -2 -17   32.27    3.47
   1 -14 -10    0.81    1.27
 -10   5  -5    4.42    1.78
  10  -5   5    2.95    1.29
  -4   5  14   58.97    5.79
   6 -10  -9   -0.32    2.80
   6 -10  -9   -0.33    1.64
   6 -10  -9    2.85    2.02
   6 -10  -9    0.36    2.63
  -7  -9 -15   25.98    3.07
  -7  -9 -15   17.10    2.68
   5  -1 -12   27.41    2.33
  -5   1  12   37.88    4.73
   1   7 -10   46.27    3.71
  10  -5   0    5.31    1.66
 -10   5   0    7.03    1.92
  -9   2 -12    4.49    1.84
   9  -2  12    6.26    2.19
   9   2  14   40.98    3.38
  -9  -2 -14   44.44    4.16
  -4  -5 -18   24.06    2.75
  -4  -5 -18   24.09    3.05
   5 -10 -11    2.25    2.57
   5 -10 -11   -0.30    2.44
   5 -10 -11    0.31    1.55
   5 -10 -11   -0.18    1.69
   5 -10 -11    0.64    1.13
  -6 -11 -14    7.09    2.58
   6  11  14   11.09    2.31
  -6 -11 -14   10.78    2.78
   3 -11 -13   21.17    2.37
   3 -11 -13   20.05    3.32
   3 -11 -13   12.08    1.52
   3 -11 -13   13.84    3.67
   3 -11 -13   17.01    2.19
  -4  -6 -18   26.16    3.12
  -4  -6 -18   25.95    2.80
   6 -12  -3    2.15    1.61
   6 -12  -3    5.33    2.25
   6 -12  -3    4.91    1.23
  -6  11  -3   -0.74    1.63
   6 -11   3    1.28    2.01
  -2 -14 -11    8.74    2.14
  -2 -14 -11   16.37    3.56
  -2   1 -16   30.73    3.37
  -2   1 -16   29.41    2.63
   2  -1  16   30.39    2.67
   2  -1  16   37.25    4.15
  -1 -12 -15    3.33    3.05
  -1 -12 -15    4.12    1.74
   4  -6 -14   18.56    2.95
  -4   6  14   15.66    3.35
   4  -6 -14    8.63    1.38
   3   9  -6   26.31    3.10
  -2   4 -14   -1.12    1.37
   0  13  -1   24.47    2.52
   6  -9 -10   -0.69    2.37
   6  -9 -10   -0.58    1.72
   6  -9 -10   -0.32    1.59
  -6   2  11   18.31    3.60
  -6   2  11   25.93    3.84
   6  -2 -11   27.16    2.41
   4   3 -11   27.05    2.55
  -8  -9 -13   52.54    5.04
  -5   6 -12    4.16    1.99
  -5   6 -12    0.92    1.62
   9   1  -4   25.16    2.88
  -9  -1   4   26.19    3.01
 -10  -6  -8    0.54    1.71
 -10  -6  -8    0.85    1.54
  10   6   8    1.22    1.12
 -10  -6  -8   -0.25    2.08
 -10  -6  -8    0.60    1.62
   6 -12  -2    9.78    1.57
   6 -12  -2    3.05    1.51
   6 -12  -2   14.87    1.49
  -2   1  15    7.11    2.99
   2  -1 -15   10.60    2.16
   2  -1 -15    6.90    1.28
  -2   1  15    7.27    2.05
   7  -1  15    3.25    1.23
  -7   1 -15    3.87    2.02
   7  -1  15    7.15    2.63
  -5   5 -13    1.12    1.91
   7 -11  -2   12.68    1.86
  -7  11   2   11.13    2.11
   7 -11  -2    7.61    1.60
   7 -11  -2   10.79    2.48
 -10  -4  -2    9.08    1.72
 -10  -4  -2    7.92    1.90
 -10  -4  -2    6.00    1.95
  10   4   2    9.13    2.04
  -9   8  -1    4.05    1.59
   9  -8   1    2.50    1.49
  -1   6 -12   -0.13    1.23
   8  -7   8   15.45    2.90
   8  -7   8    9.92    2.08
  -8   7  -8   14.21    2.12
  -9  -8 -11   18.51    3.11
  -8 -10 -10    5.27    2.48
   8  10  10    5.20    1.32
   5  11   0    1.16    1.32
   3   3 -12   14.62    1.85
   9   5  14    7.76    1.59
  -9  -5 -14    9.85    2.36
  -9  -5 -14    4.90    1.63
  -4   8 -10   -1.08    1.66
  -5 -13 -10    3.47    2.06
  -8  -7 -15   28.59    3.15
  -8  -7 -15   23.76    2.41
  -8  -7 -15   22.78    3.19
   0 -14 -11   -0.39    2.60
   0 -14 -11    3.12    1.54
   4 -13  -8    6.14    3.43
   4 -13  -8    5.92    2.36
   4 -13  -8    3.61    2.62
 -10  -6  -7   -1.02    2.16
 -10  -6  -7   -0.17    1.65
 -10  -6  -7    1.40    1.72
  10   6   7    0.10    1.19
 -10  -6  -7   -0.75    1.63
  -6   2 -15   14.19    2.53
   6  -2  15   13.44    1.70
   0   8  17    4.02    2.02
   0  -8 -17   11.69    2.86
   0  -8 -17    4.05    1.52
  -9   8   0   14.42    2.25
   9  -8   0    9.69    1.86
   1 -12 -14   12.90    1.78
   1 -12 -14    6.53    1.01
   2  14   4   98.91    6.56
   6  -8   9    7.07    1.95
   6  -8   9    6.67    2.17
   8   3  -5    0.65    1.35
   8   3  -5    0.64    1.59
  -1  14   2    0.78    1.43
   1 -14  -2    0.16    1.46
   1 -14  -2   -0.32    2.89
   1 -14  -2    0.28    1.17
   7 -11  -1    4.87    1.38
  -7  11   1    4.62    1.74
   7   1  16   16.67    3.37
   7   1  16   25.42    2.14
  -7  -1 -16   27.05    3.20
   5  13   7    9.50    1.39
  -5 -13  -7    8.93    2.43
  -1   7 -11    1.45    1.43
  -3  -7 -18   26.85    3.25
  -3  -7 -18   31.17    2.97
  -1 -11 -16   16.16    2.36
  -1 -11 -16   17.50    3.65
   4 -12   3    0.99    3.09
   4 -12   3   -1.45    2.11
  -4  12  -3   -1.14    1.79
   4 -12   3    0.88    1.32
   5  -1  16    8.64    1.39
  -5   1 -16    9.68    2.28
   5  -1  16    7.67    2.16
  -8  -6   2   53.40    4.38
   8   6  -2   54.83    4.39
  -8  -6   2   53.92    4.42
  -8 -10  -7   11.37    2.83
  -8 -10  -7   12.69    1.95
   8  10   7   14.14    1.88
   3  -4 -15   58.71    4.45
   5 -11 -10    2.46    1.25
   5 -11 -10    3.18    2.72
   5 -11 -10    4.69    3.13
   5 -11 -10    3.89    1.82
   5 -11 -10    3.51    2.08
  -9   5  -9    2.66    1.48
   9  -5   9    0.93    1.62
   9  -5   9    3.15    2.44
   2  12  -2    5.80    1.59
   6 -12  -4    3.96    1.27
   6 -12  -4    1.21    1.21
   6 -12  -4   -1.11    2.20
   6 -12  -4    1.79    1.55
  -3   7  15   28.41    4.11
   3  -7 -15   18.40    3.32
  -2  -1 -17    6.31    1.39
  -2  -1 -17    4.23    1.83
   2   1  17    4.37    2.43
  -8  -8  -1    1.70    1.55
   8   8   1    2.82    1.51
   8   8   1   -0.26    2.49
   8   8   1    2.02    1.46
  -4   4  14   42.69    4.96
   7  -8   8    0.57    2.08
   7  -8   8   -0.17    1.49
  -3 -14 -10    2.96    1.83
   5  10  -2   28.22    2.70
   1   5 -12   38.76    3.46
   1   5 -12   38.79    3.26
   5   8  -5    3.99    1.99
   5   8  -5    0.28    1.52
   8  -8  -6    4.14    2.29
   8  -8  -6    4.06    2.19
   8  -8  -6    5.29    1.87
   8  -8  -6    4.53    1.90
   1 -11 -15   11.75    1.75
   1 -11 -15    5.66    1.01
   1 -11 -15    8.68    1.56
 -10  -6  -9    5.12    2.15
  10   6   9    8.43    1.42
 -10  -6  -9    8.75    1.85
 -10  -6  -9    5.49    2.00
 -10  -6  -9    7.71    1.77
   7 -11  -3    5.80    2.34
   7 -11  -3    5.46    1.45
   7 -11  -3    5.04    1.45
 -10  -5 -11   37.57    3.56
 -10  -5 -11   28.94    3.56
 -10  -5 -11   27.62    2.96
   3 -12 -12    5.52    3.10
   3 -12 -12    4.93    1.22
   3 -12 -12    7.49    1.98
  -2   6  16   15.77    3.38
   2  -6 -16   11.53    1.88
  -2  -6 -18   31.68    3.02
  -2  -6 -18   35.49    3.52
   3   4  18   16.01    3.08
  -3  -4 -18   12.25    2.37
  -7 -10 -14   20.75    3.08
  -7 -10 -14   20.02    3.07
   7  10  14   23.62    2.82
  10   1  -1    8.27    1.97
 -10  -1   1    7.27    1.93
   3  14   6   13.56    1.64
 -10   2   2    0.92    1.73
  10  -2  -2   -1.01    1.61
   5   1  17   12.31    2.43
   2   9  -7    4.15    1.91
  -9   8  -2   16.27    2.25
   9  -8   2   15.92    3.35
   9  -8   2   12.76    1.93
   0  14   2    4.37    1.45
   0 -14  -2    3.76    1.32
  -9   1   5    9.79    2.46
   9  -1  -5   10.22    2.03
   6  11   2    2.70    1.33
   6  11   2    4.78    3.03
  -2   5  16   21.35    3.74
   2  -5 -16   19.39    2.26
  -5  -9 -17   33.38    4.30
  -5  -9 -17   52.32    4.45
   3 -13   1   -0.73    1.52
   3 -13   1    2.03    2.83
   3 -13   1    1.01    2.00
  -3  13  -1   -0.76    1.68
  -6  -2 -17    5.83    1.96
   6   2  17    9.43    3.10
   9   8   5   54.94    4.03
  -9  -8  -5   55.66    4.35
  -9  -8  -5   52.19    5.09
  -4  -4 -18   47.55    4.35
   9  -5  -5   -1.03    1.82
   3 -14  -5    2.67    3.18
   3 -14  -5   -1.29    2.22
   3 -14  -5    0.31    1.02
   3 -14  -5    1.61    1.12
 -10  -3 -12    1.15    1.96
 -10  -3 -12    1.55    1.89
   4   9  -5   50.95    4.54
  -3 -10 -17   11.95    2.36
   3  10  17   16.16    3.46
   6   9  -2   18.13    2.09
   6   9  -2   17.56    2.13
   2 -14  -9    0.96    1.23
   2 -14  -9    1.72    1.92
   2 -14  -9   -1.08    3.18
  -2  -5 -18   31.84    3.41
   2   5  18   34.10    4.35
  -4  -7 -18   -0.16    1.46
  -4  -7 -18   -2.08    1.96
   6 -12  -1   -0.14    1.28
   3  12  -1   35.92    3.08
  -4 -11 -16   -0.71    2.68
  -4 -11 -16    1.26    1.95
 -10  -2 -12   -0.22    1.72
  -7  -3   7    0.30    1.39
   7   3  -7    1.22    1.51
   7   3  -7   -1.29    1.32
   7   7  -3    4.69    1.71
   1   8  -9    2.93    1.53
   3  11  -3   -1.22    1.36
  -1   5 -13    2.49    1.40
   5 -12   2    3.76    2.38
   9  -8  -1    1.35    1.68
   9  -8  -1    1.53    2.55
   9  -8  -1    0.68    1.63
  -9   8   1    0.16    1.70
   5  -7  11    1.15    1.54
  -5   7 -11    3.17    1.68
  10   6   6   18.78    2.15
 -10  -6  -6   20.92    3.02
 -10  -6  -6   16.02    2.33
 -10  -6  -6   15.66    2.33
   8   9   3  104.85    7.92
   8   9   3   94.01    6.59
  -8  -9  -3   90.56    6.26
   2  11  -4   11.05    1.77
   7 -10   4   -0.43    2.02
  -7  10  -4    1.16    1.79
 -10   3   2    2.58    1.86
   3 -14  -6    1.93    2.04
   8  -9   4   -1.15    2.35
   4 -13   0    8.84    3.75
   4 -13   0    5.33    2.12
   4  -7 -14   20.78    3.06
   4  -7 -14   14.02    1.71
  -4   7  14   27.59    4.01
  -2 -10 -17   36.05    4.64
  -2 -10 -17   37.89    3.73
  -7  11   0   13.51    2.19
   7 -11   0   16.10    2.99
   7 -11   0   16.87    1.86
  -5   4 -14    5.89    2.09
  -9  -7 -13    1.48    1.86
  -9  -7 -13    1.12    1.42
  -9  -7 -13    3.57    2.23
  -7 -11 -12   12.34    2.62
 -10   2 -10    1.17    1.48
  10  -2  10    2.20    1.82
  -7  -8 -16    2.80    1.91
  -6 -12 -12    1.65    2.58
  -6 -12 -12   -0.30    2.12
   3  -3  15    0.29    1.10
  -3   3 -15    1.14    1.39
   0   3  17    8.37    3.02
   0  -3 -17    9.25    2.18
   3 -14  -4    1.23    1.08
   3 -14  -4    4.72    2.18
   3 -14  -4    0.76    3.10
 -10   3  -9    4.92    1.62
  10  -1  -2   -0.17    1.64
   8  -7  -7   -0.25    1.88
   8  -7  -7   -0.17    1.65
   7  -9  -8    3.22    1.86
   7  -9  -8   -0.44    2.08
   7  -9  -8    2.91    2.43
  -2  -7 -18   57.73    4.12
  -2  -7 -18   44.26    4.45
  -2 -13 -14   20.44    4.35
   2  13  14   29.82    3.19
  -2 -13 -14   27.29    3.27
   8   0  -7    9.71    1.99
   7   9   0   27.59    2.63
   7   9   0   24.53    3.74
  -7  -9   0   25.67    2.53
   7   9   0   26.34    2.52
   4  -3  15    8.14    1.39
  -4   3 -15    5.20    1.66
  -4   3 -15    9.28    2.27
   2 -14  -2   26.01    2.69
  -2  14   2   29.35    2.94
   2 -14  -2   34.11    4.37
   2 -14  -2   23.67    2.30
   5  12  14   14.51    2.47
  -5 -12 -14   20.98    3.04
  -5 -12 -14   15.86    3.51
   2  -7 -16   19.15    3.27
   2  -7 -16   15.85    2.02
   8  10  11    2.25    1.18
  -8 -10 -11    1.56    2.37
   3 -10 -14    3.92    3.03
   3 -10 -14    6.75    1.47
  -1   8 -10   21.10    2.34
  -7   5 -12   15.28    2.53
   7  -5  12   10.35    2.05
  -5 -13 -11    2.20    2.87
  -5 -13 -11    0.58    2.19
   4  13  13    3.11    2.13
  -4 -13 -13    3.99    3.02
  -4 -13 -13    2.13    2.00
   2 -10 -15   21.98    4.03
   2 -10 -15   22.27    2.13
   5   3 -10   28.67    2.62
  -5  -3  10   25.99    2.82
  -3   9  -9    1.83    1.49
   3  -9   9    1.35    2.10
  -3   9  -9    0.69    1.25
   6   6  -6   47.13    4.13
  -6  -6   6   44.28    4.35
   6   6  -6   52.35    3.87
   6  12   5   36.29    2.98
   6   5  -7   60.70    4.72
  -6  -5   7   64.44    5.66
   6   5  -7   61.22    4.40
   6   5  -7   59.18    4.59
   1  12  -3   11.02    1.82
   2 -12   4   10.42    3.10
  -2  12  -4   14.26    2.15
   7  11   5    7.04    1.42
  -7 -11  -5    5.68    1.36
   5  -9 -12   -0.25    2.16
   5  -9 -12   -0.64    1.63
   5  -9 -12   -0.71    1.41
   5  -9 -12   -2.85    2.76
   6 -12  -5    2.03    2.25
   6 -12  -5    2.63    1.23
   6 -12  -5    1.73    1.62
   6 -12  -5    2.36    1.31
  -9   1 -13   24.83    2.99
  -5   5  13    7.40    2.91
   5  -5 -13    5.89    1.29
   7  10   2   90.78    7.15
  -7 -10  -2   78.11    5.48
   7  10   2   78.85    5.66
  -6  -8 -17   48.73    4.38
  -6  -8 -17   48.55    4.44
  -6  -8 -17   42.88    3.40
  -6  -8 -17   43.12    4.07
   0  10  -7   31.60    3.29
   9   1  14   31.73    2.90
  -9  -1 -14   28.22    3.31
  -5 -13  -6   18.88    3.15
   5  13   6   20.77    2.02
 -10  -4 -12   16.29    2.61
 -10  -4 -12   15.98    2.76
  -8   4 -12    6.09    1.99
   8  -4  12    9.27    2.13
  10  -5   6    1.38    1.33
 -10   5  -6    0.66    1.82
  -7   4 -13    9.11    2.30
   7  -4  13   10.28    2.53
  -5  -5 -18   10.55    2.36
  -5  -5 -18   13.32    2.27
  -2   9  -9   10.84    1.96
  -2   9  -9   10.42    1.59
   7 -11  -4    2.10    2.15
   7 -11  -4   -1.33    1.62
   7 -11  -4    0.54    1.33
   6 -11  -8    3.39    1.61
   6 -11  -8    1.86    2.32
   6 -11  -8   -0.72    3.03
   6 -11  -8    2.16    2.14
  -1 -13 -14    1.25    1.71
  -1 -13 -14   -2.16    3.29
 -10  -6 -10   39.70    3.98
 -10  -6 -10   32.83    3.47
 -10  -6 -10   30.13    3.07
  -8 -10  -6   22.57    3.47
  -8 -10  -6   24.08    2.51
   8  10   6   24.12    2.41
  11   0   5   -0.14    1.66
 -11   0  -5    0.17    1.79
   2   3 -13   18.50    2.03
   2  -4 -16    2.96    1.46
  -2   4  16    2.13    2.57
  -2   4  16    1.90    1.80
  10  -5  -1   -0.15    1.49
 -10   5   1    0.17    1.71
  11   0   6    1.03    1.59
 -11   0  -6    0.18    1.84
  10   5   3   37.84    3.42
 -10  -5  -3   34.03    3.30
 -10  -5  -3   35.06    3.62
 -10  -5  -3   31.16    3.06
  -4 -12 -15    6.06    3.09
  -4 -12 -15    2.92    2.22
   5 -13  -4    6.01    2.53
   5 -13  -4    5.89    1.71
   5 -13  -4    7.34    1.38
  -5  -6 -18   20.96    2.79
  -5  -6 -18   19.23    2.79
 -10  -1 -12   11.94    2.39
  11   1   6    6.68    1.72
   4 -11 -12    5.79    1.96
   4 -11 -12    2.68    2.53
   4 -11 -12    3.52    1.17
   4 -11 -12    4.86    1.81
   4 -11 -12    4.46    2.65
   9  -8   3   13.30    2.87
  -9   8  -3    9.79    1.93
   9  -8   3    7.47    1.63
   4  13   3    6.70    1.44
   3 -14  -7    5.14    2.43
   3 -14  -7    6.11    3.42
   8  -5  11   -0.36    1.88
   8  -5  11    0.22    1.82
  -8   5 -11    1.69    1.65
   5 -13  -3    1.26    1.15
   5 -13  -3    0.15    1.23
   5 -13  -3    1.85    2.23
   0   0  16    6.69    2.68
   0   0 -16   13.08    1.62
   0   0 -16   10.21    2.33
   5  -6 -13    8.57    2.31
  -5   6  13    1.38    2.42
   5  -6 -13    0.88    1.05
  10  -1  11   -0.22    1.87
 -10   1 -11   -0.55    1.58
  -9   7  -6    2.88    1.66
   9  -7   6    0.25    2.38
   8  -4  -8   -0.64    1.41
  -8   4   8    2.06    2.30
   2   4  18    6.87    2.75
   2 -13 -12   -1.70    2.93
  -3  -8 -18   45.57    4.36
  -3  -8 -18   47.06    4.82
  -3  -8 -18   48.42    3.89
   8  -9  -5    3.62    2.54
   8  -9  -5    5.49    1.78
   8  -9  -5    5.97    2.33
   8  -9  -5    7.42    1.89
  -9  -4   2   -0.17    1.65
   9   4  -2    1.96    1.82
  -9  -6 -14    2.29    1.93
  -9  -6 -14    4.48    1.59
   5  12   2   31.06    2.78
  -8  -4 -16   16.56    2.75
  -8  -4 -16   19.21    2.81
  -2  11  -6   22.62    2.53
   2 -11   6   20.03    3.36
   6   1 -10   27.41    2.35
  -6  -1  10   25.75    3.80
   6   1 -10   19.02    2.42
  -7   6 -11    8.00    2.08
   7  -6  11    6.62    1.92
  -4 -10 -17    0.48    1.75
  -4 -10 -17    3.58    2.70
   1 -13 -13    4.82    1.51
  -3 -14 -11   -1.97    1.99
  -3 -14 -11    0.39    2.92
   1 -12   4    5.30    2.46
  -1  12  -4    8.80    1.76
   4  -3 -14   36.97    2.80
  -4   3  14   29.63    4.22
  11   1   5   -0.28    1.68
   8   2  -6    8.27    2.02
   8   2  -6   12.52    1.87
   5  -4 -13    9.26    1.53
   5  -4 -13   17.57    1.58
  -5   4  13   20.04    3.63
   2  13   0    3.02    1.47
 -10   6  -2    6.82    1.93
  10  -6   2    6.52    1.71
  -1 -14 -12   33.49    3.46
  -1 -14 -12   34.71    4.70
   7  -8  -9    6.32    2.03
   7  -8  -9   12.55    2.44
   7  -8  -9    8.73    2.53
   7  -4 -10    0.28    1.29
  -7   4  10    0.32    2.45
   3 -14  -3    2.26    3.24
   3 -14  -3    3.65    1.15
   8   7  -1   35.41    3.20
   8   7  -1   40.68    3.42
  -8  -7   1   39.77    3.55
 -10   4  -8    7.64    2.04
  -7  -5 -17    6.19    2.18
  -7  -5 -17    9.98    2.40
  10  -4  -2    0.48    1.53
 -10   4   2    2.76    1.81
 -11   1  -5    1.05    1.91
  11  -1   5    0.68    1.52
   1   4 -13    6.26    1.55
   1   4 -13   10.82    2.09
   6 -12   0    1.81    2.05
   3  -8 -15    5.47    1.17
   3  -8 -15    4.65    2.64
   8  -3  -8    0.79    1.59
  -8   3   8    0.88    2.35
 -11   0  -4    1.04    1.76
  11   0   4    1.45    1.59
  -9  -8 -12    4.08    1.92
  -9  -8 -12    5.74    2.49
   3  14   5    9.01    1.53
 -11  -1  -7    8.15    1.82
  11   1   7    9.82    1.73
 -11  -1  -7   12.44    2.28
  -8  -5 -16   22.20    2.93
  -8  -5 -16   20.17    3.01
  -9   8   2    0.32    1.70
   9  -8  -2   -2.82    1.86
   9  -8  -2   -1.26    2.50
   9  -8  -2    1.76    1.78
   7  -5 -10    1.73    1.44
  -7   5  10    5.44    2.75
   0 -12 -15    0.17    1.39
   0 -12 -15   -0.42    2.96
  -3 -13 -14    9.14    2.47
   3  13  14    5.29    1.99
  -3 -13 -14   11.77    3.54
  -8   3 -13    8.28    2.22
   8  -3  13    8.27    1.93
   5 -13  -5    7.28    3.57
   5 -13  -5    2.95    1.63
   5 -13  -5    6.23    2.66
   5 -13  -5    8.06    1.39
  -8  10   1    0.13    1.48
   8 -10  -1    3.08    1.55
   6  -8 -11    1.05    1.69
   6  -8 -11   -0.31    2.18
   6  -8 -11    0.59    1.52
   6  -8 -11   -0.77    2.28
   4   0 -13    0.56    1.11
  -4   0  13    0.18    1.66
   4  11  -2    4.89    1.49
   6   7  -5   20.58    2.58
  -6  -7   5   23.37    3.12
   6   7  -5   22.50    2.29
 -10  -6  -5    7.33    1.98
  10   6   5   12.86    1.94
 -10  -6  -5    4.42    1.77
 -10  -6  -5    9.22    2.48
  -5  -4 -18   39.56    3.96
  10  -6   3   11.44    1.93
 -10   6  -3   11.05    2.11
  -7  -4 -17   30.11    3.53
  -7  -4 -17   33.11    3.59
   7   4  17   35.37    4.32
  -9  -7  -2   15.73    2.18
  -9  -7  -2    9.46    2.52
   9   7   2   14.60    2.01
   9   3  -3   34.03    3.40
  -9  -3   3   31.70    3.29
   7   0  -9   20.67    2.49
   7   0  -9   27.54    2.45
  -9   6  -8    9.21    1.75
   9  -6   8   11.73    2.91
   6 -10   6    3.47    2.16
   6 -10   6    2.17    1.46
  -6  10  -6   -0.62    1.81
  -2   3 -15    0.12    1.34
  -2 -14 -12   22.53    2.93
  -2 -14 -12   21.59    4.15
   6   4  -8   12.93    1.75
  -6  -4   8   10.28    2.86
   6   4  -8    9.38    1.89
  -6  -4   8   13.24    2.16
   3 -12   4    2.44    2.88
  -3  12  -4   -0.47    1.74
   7 -10  -7    0.35    2.54
   7 -10  -7    2.34    1.69
   7 -10  -7   -0.46    2.33
 -10   6  -1    0.65    1.56
  10  -6   1   -0.55    1.58
   3 -11   6   21.12    3.66
  -3  11  -6   25.16    2.79
   3   3  18   20.96    3.40
  -3  -3 -18   21.40    2.82
  11  -1   4   10.62    1.91
 -11   1  -4   10.93    2.22
   7 -11   1    2.03    2.09
  -7  11  -1    2.07    1.73
 -11   0  -7    3.98    1.93
  11   0   7    5.95    1.55
   4   3  18   45.84    4.52
  -4  -3 -18   36.50    3.85
  -9  -5   1    4.43    1.89
   9   5  -1    5.09    1.88
   8 -10   0   14.42    1.97
   1  11  -5   17.42    2.17
  -8   5   8    3.20    2.33
   8  -5  -8    1.81    1.62
   1   1 -15   28.43    3.42
   1   1 -15   34.35    2.74
   1 -14 -11    3.69    1.51
  -8   0 -15    0.90    1.76
   8   0  15    0.20    1.23
   9  -7  -4    1.44    1.61
  -9   7   4   -2.20    1.82
  -3   0  14    0.78    1.65
   3   0 -14    1.10    1.13
  -1   4 -14   16.04    2.03
 -11   1  -6    1.79    1.86
  11  -1   6    1.92    1.44
   1  14   2   20.71    2.18
   5 -11   5    3.04    1.47
  -5  11  -5    2.53    1.62
   5 -11   5    2.95    2.17
   4   8  18    2.78    2.62
  -4  -8 -18    0.28    2.14
  -4  -8 -18   -1.15    1.58
  -4  -8 -18    1.89    1.09
  -4  -8 -18    0.72    1.79
  10   0  -2   13.24    2.29
 -10   0   2   15.33    2.46
   5 -13  -2    6.52    3.69
   5 -13  -2    1.76    1.22
  -8  -3 -16    8.51    2.43
  -8  -3 -16    9.21    2.33
   0  -9 -17    1.41    2.48
   0  -9 -17    3.02    1.49
   0   9  17    4.25    2.12
  -4   9  -9    4.64    1.82
   1  13  -1    7.60    1.54
  -5   8 -10   -0.82    1.78
   5  -8  10   -0.32    1.65
  -6   1  11   38.45    4.49
   6  -1 -11   24.25    2.22
   6  -1 -11   19.51    2.33
  -6   1  11   26.63    4.17
   4  12   0   28.38    2.66
   8 -10  -2    2.33    1.59
   8 -10  -2    4.19    2.45
  -1   1 -16    2.88    1.31
  -2  -8 -18   40.18    3.90
  -2  -8 -18   42.39    3.47
  -2  -8 -18   39.11    4.49
  -1 -10 -17    6.52    1.91
  -1 -10 -17    5.60    2.75
 -11  -2  -6   14.18    2.38
 -11  -2  -6   12.85    2.20
  11   2   6   12.67    2.06
   4 -10 -13   15.97    3.68
   4 -10 -13   26.01    2.67
   4 -10 -13   19.93    3.22
   4 -10 -13   20.86    2.40
   2  14   3   34.26    2.92
   0   2 -15    1.27    1.22
   0   2 -15    1.15    1.89
  -7   3 -14    1.53    1.78
   7  -3  14    2.06    2.40
  -5  -7 -18   19.34    1.95
  -5  -7 -18   13.96    2.74
  -5  -7 -18   23.22    2.67
   5   7  18   24.21    3.72
   1   9  -8    0.13    1.38
   1   9  -8    1.45    1.81
   9   0  -5    7.57    2.03
  11   1   4    2.18    1.75
 -11  -2  -7   22.55    2.72
  11   2   7   21.76    2.46
  -5  10  -7    4.47    1.69
  -5  10  -7    2.40    1.80
   5 -10   7    3.92    2.08
  -7  -6 -17   11.47    1.85
  -7  -6 -17   14.46    2.60
   4 -13  -9    6.38    3.12
   4 -13  -9    4.61    2.73
  -7   3  10   -0.32    2.62
   7  -3 -10    1.37    1.36
   2  -8 -16   17.63    3.47
   2  -8 -16   18.25    2.08
  -5   3 -15   17.23    2.74
   5 -12  -9    5.32    2.51
   5 -12  -9   10.20    1.89
   5 -12  -9    8.55    3.55
   5 -12  -9    7.07    2.93
   1 -10 -16    9.47    1.66
   9  -6  -5   -0.86    1.70
   3  13   1    8.88    1.70
   4  -8 -14    2.30    2.49
   4  -8 -14    0.43    1.05
   4 -12 -11    2.00    2.78
   4 -12 -11    1.86    1.66
   4 -12 -11    1.39    2.01
   4 -12 -11    1.68    1.21
   4 -12 -11    0.84    2.69
  10   3   0    4.96    1.99
 -10  -3   0    2.34    1.72
  -8   6 -10    1.64    1.65
   8  -6  10   -1.55    2.09
   8  -6  10   -0.82    1.82
  -1  11  -6    0.29    1.51
   1 -11   6    2.43    2.08
   9   8   4   15.48    1.91
  -9  -8  -4   13.58    2.08
  -9  -8  -4    9.11    2.63
   5   9  -4   22.75    2.52
   5   9  -4   26.28    2.56
   0 -11 -16    2.53    1.54
   0 -11 -16    3.26    3.09
   4   2 -12    0.52    1.12
   1  -1 -16   22.11    2.05
  -1   1  16   23.85    3.80
   1  -1 -16   23.58    2.94
  -1   6  17    5.36    1.99
  -1   6  17    4.89    2.80
   1  -6 -17    3.50    1.48
  -1  -6 -18   12.89    2.27
   5  -7 -13   -0.23    1.06
   5  -7 -13    1.46    2.13
  -5   7  13   -0.34    2.33
  -8 -10 -12   24.54    3.48
  -1  14   1    0.14    1.51
   1 -14  -1    1.26    2.48
   3  10  -5    6.10    1.46
   7   2  -8    6.94    1.57
   7   2  -8    6.08    1.68
   7   8  -2    6.38    1.65
   7   8  -2    3.81    1.52
  -2  13  -2   -0.73    1.57
   2 -13   2    0.31    2.66
   4   0  17   25.38    3.35
  -5 -13 -12    2.61    2.16
  -5 -13 -12    3.38    2.99
  -1  13  -2    4.59    1.58
   1 -13   2    2.25    2.55
   2 -14 -10   12.48    3.22
   2 -14 -10    9.23    3.44
   3   0  17   10.85    2.79
  -3   0 -17    8.26    1.63
  -3   0 -17    9.57    2.29
   7  -6 -10    3.79    1.70
  -7   6  10    4.70    2.69
   7  -6 -10    3.74    1.59
 -10  -5 -12   23.84    3.12
 -10  -5 -12   24.56    3.29
   0 -14 -12    1.66    1.49
   0 -14 -12   -1.65    2.72
 -10   6  -4   10.64    2.25
  10  -6   4   11.32    1.81
   6 -12  -6    1.26    1.50
   6 -12  -6    3.36    1.84
   6 -12  -6    1.69    2.08
 -11  -1  -8   15.29    2.35
  11   1   8   12.50    1.88
 -11  -1  -8    8.11    1.91
 -11  -2  -5    3.72    1.87
  11   2   5    1.27    1.66
  -6 -10 -16   42.81    4.67
  -6 -10 -16   49.88    4.82
  -6 -10 -16   55.23    4.96
   8 -10   1    7.72    2.59
   8 -10   1   10.67    1.77
  -1  -1 -17   13.60    2.49
   1   1  17   11.51    3.13
  -1   9  -9   34.57    3.13
 -11   1  -3    5.45    1.90
  11  -1   3    9.52    1.92
  -8  -8 -15   36.50    4.10
  -8  -8 -15   38.26    3.79
   3 -14  -8   15.52    2.81
   3 -13 -11    9.57    2.39
   3 -13 -11   12.70    3.56
   3 -13 -11    7.96    3.27
  -8  -6 -16   17.24    2.12
  -8  -6 -16   20.37    2.96
  -8  -6 -16   20.66    2.85
   3   2 -13   66.98    4.73
   7 -11  -5   -0.32    2.18
   7 -11  -5   -2.46    1.83
   7 -11  -5    2.36    2.23
   7 -11  -5    0.32    1.25
  -6   1 -16   20.01    2.86
   6  -1  16   18.71    1.92
  -8   2   8    9.45    2.72
  11   0   3   37.01    3.49
 -11   0  -3   38.90    3.77
 -10  -4  -1    0.32    1.65
 -10  -4  -1   -0.21    1.69
  10   4   1    0.31    1.65
  -8  -9 -14   46.91    4.75
  10  -6   0    1.85    1.63
  10  -6   0    4.58    1.67
 -10   6   0    7.23    1.92
  -7  -3 -17   21.80    2.99
   7   3  17   21.53    3.80
 -10  -6 -11   50.71    4.88
 -10  -6 -11   47.85    4.45
 -10  -6 -11   52.15    4.13
  -1   5  17    6.76    2.90
  -1   5  17    3.66    2.03
   1  -5 -17    5.26    1.75
   5 -13  -6    5.64    3.80
   5 -13  -6    3.44    2.28
   6  -9   8    0.57    1.93
   6  -9   8    0.71    1.57
   8  -8   7    7.17    2.56
   5  -3 -13   27.98    2.05
  -5   3  13   21.04    3.71
   5  -3 -13   15.63    2.00
   1   5  18   33.66    4.43
  -1  -5 -18   29.08    3.22
   5  13   5   43.16    3.35
 -10  -2   1   38.57    3.61
  10   2  -1   36.33    3.52
  -7 -11 -13   16.40    2.88
   6 -11   4   10.15    2.58
  -6  11  -4    7.22    2.03
   5   0 -12   24.89    2.32
  -6 -12 -13    7.26    2.61
  -6 -12 -13    6.35    2.59
  11  -2   4    1.40    1.54
 -11   2  -4    1.97    1.86
   7  -7  10   -1.05    1.78
  -7   7 -10    0.58    1.69
   0 -13 -14    6.07    1.96
   0 -13 -14    9.67    3.54
  -6   5 -13    1.77    1.87
  11  -1   7    0.49    1.37
 -11   1  -7    2.64    1.96
 -11   2  -5    1.97    1.88
  11  -2   5    0.13    1.43
 -10   0 -12    0.20    1.81
  -8 -10  -5   34.27    4.22
  -8 -10  -5   36.33    3.13
   8  10   5   39.71    3.28
  11   2   8   43.84    3.57
 -11  -2  -8   42.49    3.83
  -9   8  -4    0.14    1.59
   9  -8   4    0.87    1.29
   9  -8   4    3.82    2.51
  -1  -7 -18    0.78    1.67
  -2   3  16    5.66    2.65
  -2   3  16    3.52    1.94
   2  -3 -16    4.81    1.66
   7   0  16   16.35    3.32
  -7   0 -16   14.51    2.68
   7   0  16   18.04    1.89
  -6  -1 -17   10.14    2.38
   1  -7 -17    9.71    1.85
   1  -7 -17   16.06    3.10
   9   2  -4   30.67    3.25
  -9  -2   4   35.59    3.52
   6  -6  12    0.86    1.63
  -6   6 -12   -0.65    1.76
  -4 -14  -9    1.65    1.98
  -9  -9  -9   29.00    3.77
  -9  -9  -9   25.28    2.66
  -4 -14  -8    0.28    1.95
   8 -10  -3    1.23    2.20
   8 -10  -3   -1.72    2.32
   8 -10  -3    0.53    1.59
   0   7 -11    1.83    1.34
 -11   0  -8   14.86    2.34
  11   0   8   16.19    2.15
   3 -14  -2   -0.37    3.26
   3 -14  -2    1.06    2.10
   0   6 -12    6.09    1.56
  -9  -9  -8   31.00    2.99
  -9  -9  -8   29.07    3.92
   0  14   1    2.67    1.48
   2 -14  -1   20.98    2.49
  -2  14   1   22.14    2.59
   2 -14  -1   19.25    4.06
  -8   2 -14    3.98    2.15
   2   3  18    2.53    2.65
  -2  -3 -18    0.22    1.75
  -9  -6   0   35.93    3.45
   9   6   0   32.46    3.21
  -6 -11 -15   30.43    3.85
  -6 -11 -15   30.47    3.73
   4 -13   1    1.54    2.11
   4 -13   1   -0.76    3.30
   8  -6  -8    0.64    1.67
  -8   6   8    3.99    2.33
   8  -6  -8    0.34    1.60
   0   2  17   36.25    4.47
   0  -2 -17   52.35    4.66
  -5 -11 -16   33.36    4.47
  -5 -11 -16   38.59    3.99
  -5  -3 -18   35.11    3.72
   5 -13  -1    5.36    2.36
   5 -13  -1    7.68    3.79
   6  12   4   19.56    2.08
   8  -9   5    0.69    2.25
   0  12  -4    1.75    1.48
   7  11   4    6.77    1.55
  -9   0 -14   38.28    3.82
   4  10  -4   46.02    3.67
 -10   5  -7   -0.16    1.79
   6   8  -4    7.40    1.72
  11  -2   3    7.45    1.83
 -11   2  -3    8.71    2.14
  -8  -2 -16    2.12    1.92
  -3 -14 -12    4.25    2.25
  -3 -14 -12   10.98    3.64
   7  -9   7    7.71    2.36
  -9   8   3    1.64    1.71
   9  -8  -3    2.53    1.56
   6 -12   1    1.59    2.23
  -4   2 -16    0.13    1.43
   4  -2  16    0.24    2.09
   4  -2  16    0.18    1.08
  -3   2 -16    3.35    1.41
  -3   2 -16    4.29    2.33
   3  -2  16    3.80    1.32
   3  -2  16    3.45    2.32
   6   3  -9    1.66    1.54
  -6  -3   9   -1.82    2.59
  -6  -3   9    0.99    1.50
   6   3  -9   -0.44    1.31
  11  -2   6   10.45    1.82
 -11   2  -6    8.90    2.19
  -9   3   6    7.50    2.52
  10  -5  -2    4.77    1.72
 -10   5   2    3.16    1.86
   2   0 -15   60.70    4.29
   9  -4  11    2.73    2.22
  -9   4 -11    1.82    1.65
   9  -4  11    4.45    2.03
  -5  -2  11    4.96    1.71
   5   2 -11    6.77    1.46
  -9  -9 -10   24.82    3.44
  -9  -4 -15    1.19    2.13
 -10  -6  -4   19.84    2.97
 -10  -6  -4   18.09    2.33
  10   6   4   21.27    2.44
 -10  -6  -4   19.45    2.49
  11   1   3   21.06    2.58
  -6   4 -14    1.36    1.77
  -4 -14 -10    9.29    2.50
   4 -11   6   10.44    3.25
   4 -11   6   13.00    2.42
  -4  11  -6    9.32    2.09
 -11  -3  -7   37.88    3.63
  11   3   7   34.68    3.11
 -11  -3  -7   39.01    3.56
 -11  -3  -7   29.13    3.49
  11   2   4   -1.46    1.89
 -11  -2  -4    0.68    1.70
   4  14   7    1.45    1.06
  -4 -14  -7    2.85    2.03
   9  -4  -6    2.27    1.73
  -9   4   6    1.60    2.22
   3  14   4   29.57    2.63
  -9   3 -12    1.96    1.73
   9  -3  12   -0.60    2.08
  -7  -7 -17    1.65    1.93
  -7  -7 -17   -1.17    1.40
  -3  -9 -18   15.15    3.27
  -3  -9 -18   22.71    3.01
   4  -2 -14   27.18    2.32
  -4   2  14   26.61    4.05
   8   9   2   43.53    4.63
   8   9   2   37.40    3.26
  -8  -9  -2   43.52    3.63
   5 -12   3    6.26    2.49
   7 -11   2    3.60    2.34
  -7  11  -2    1.09    1.74
  -9  -3 -15    8.20    2.46
  -9  -3 -15    8.11    2.30
   9   3  15   11.51    1.76
  -7   2  10    9.18    2.99
   7  -2 -10    4.32    1.41
  -9  -9  -7   12.98    2.09
  -9  -9  -7    7.85    2.75
   3   6 -10    1.43    1.46
   7 -10   5    2.78    2.15
  11   3   6    6.07    1.81
 -11  -3  -6    9.57    2.12
 -11  -3  -6    8.07    1.97
 -11  -3  -6    5.37    1.98
  -3  13  -2   -1.73    1.63
   3 -13   2    3.40    2.03
   3 -13   2    1.33    2.92
  -5   0 -17   -1.44    2.11
  -7 -10 -15   -0.24    2.01
   4   6  -9   -0.12    1.38
  -1   4  17    0.72    2.78
   1  -4 -17    0.37    1.70
   6 -10 -10   -1.18    1.78
   6 -10 -10   -2.31    2.80
   6 -10 -10   -1.10    2.36
   6 -10 -10    2.02    1.99
  -2 -12 -16   20.16    2.80
  -2 -12 -16   21.78    4.20
 -10  -3 -13   -1.20    2.18
 -10  -3 -13    2.30    1.96
 -10  -7  -8   20.92    3.25
  10   7   8   24.60    2.26
 -10  -7  -8   26.61    2.75
 -10  -7  -8   27.14    3.00
   3 -10   8    3.97    2.33
  -3  10  -8    4.15    1.44
  10  -2  -3    2.84    1.87
 -10   2   3    6.03    1.95
   3   7  -9   52.22    4.06
  -5 -10 -17   37.93    3.94
  -5 -10 -17   35.05    4.27
   0   8 -10    3.09    1.61
   8  -8  -7    0.56    1.90
   8  -8  -7    1.41    1.83
   8  -8  -7    2.48    1.76
   8  -8  -7    0.89    2.08
  -9  -7 -14    2.15    1.48
  -9  -7 -14    4.35    2.10
  -1  -4 -18   18.74    2.72
   1   4  18   20.52    3.69
  -2  10  -8    1.28    1.23
  -7  -9 -16    0.87    1.72
 -10   3   3   -1.69    1.84
  -5  -8 -18   12.28    2.52
   5   8  18   13.71    3.28
  -5  -8 -18   11.66    1.61
  -5  -8 -18   17.33    2.43
 -10  -5  -2   17.21    2.62
 -10  -5  -2   20.70    2.46
  10   5   2   18.81    2.49
 -10  -5  -2   14.42    2.05
   8 -10   2   14.18    3.05
   6  10  -1   59.00    4.42
  -6   7 -11    0.21    1.86
   6  -7  11   -0.32    1.66
   0  13  -2   21.98    2.49
  -6  -9 -17   59.87    5.33
  -6  -9 -17   60.87    5.32
   8   1  -7   13.74    2.20
   8   1  -7   14.85    2.12
  -2   0 -17    7.24    2.09
   2   0  17    9.97    2.68
  -2   0 -17    6.77    1.50
   0   5 -13    9.85    1.73
  -6   5  12   -0.35    2.57
   6  -5 -12   -0.24    1.17
   6  -5 -12    0.25    1.12
   0 -15  -7   22.16    2.72
  -4 -13 -14    2.68    2.20
  -4 -13 -14    4.90    3.18
   4  13  14    1.99    1.86
  10  -6   5    8.46    1.73
 -10   6  -5    4.90    1.91
  -4  12  -4   -0.67    1.86
   4 -12   4    1.96    2.89
   1   3 -14    5.09    1.42
 -11   1  -2    2.82    1.89
  11  -1   2    4.56    1.75
  -6  -5 -18   14.45    2.63
 -11  -3  -8   17.66    2.41
 -11  -3  -8   15.33    2.50
 -11  -3  -8   13.53    2.67
  11   3   8   16.50    2.12
   6  11   1   60.24    5.67
   6  11   1   55.86    4.27
   4   7  -8   -0.74    1.41
   3  -9 -15    1.42    1.11
   3  -9 -15    1.45    2.42
  10   7   9   39.57    3.03
 -10  -7  -9   37.17    3.63
 -10  -7  -9   37.27    4.19
 -10  -7  -9   39.72    3.49
 -10  -1   2   17.94    2.69
  10   1  -2   13.89    2.31
   7  -2  15    4.94    2.68
  -7   2 -15    0.69    1.68
  11   1   9    2.06    1.42
 -11  -1  -9    3.15    1.51
 -11  -1  -9    2.33    1.81
  -3 -12 -16   44.23    5.30
  -3 -12 -16   34.84    3.96
  -9  -8 -13    0.21    1.78
  -9  -8 -13    2.05    2.25
 -10   3 -10    4.89    1.63
  -8  -8   0    9.78    1.90
   8   8   0   10.28    1.76
   8   8   0    9.13    1.86
   9  -2  -6    2.94    1.92
  -9   2   6    0.26    2.27
  -9  -5 -15    1.50    1.76
  -9  -5 -15    1.41    2.10
 -11  -2  -9   13.06    2.28
  11   2   9   10.97    1.78
 -10   6   1    0.18    1.83
  10  -6  -1   -0.15    1.42
 -10  -2 -13   -1.79    1.96
  -1  -8 -18    0.64    2.22
  -1  -8 -18    0.39    1.58
  -9   5 -10    6.87    1.77
   9  -5  10    6.85    2.52
   0 -15  -8    9.82    2.12
  -8   7  -9    5.96    1.81
   8  -7   9    3.68    2.25
   8  -7   9    3.44    1.76
  -4  -2 -18   29.89    3.56
   4   2  18   26.97    3.63
 -10  -7  -7   -0.87    1.72
 -10  -7  -7    0.28    2.10
  10   7   7   -0.67    1.23
 -10  -7  -7    1.96    1.76
   7  -7 -10   -1.32    2.13
   7  -7 -10   -0.16    1.53
   7  -7 -10    0.55    1.79
   2   2 -14   20.04    2.12
   6  -4 -12    0.24    1.17
  -6   4  12   -0.35    2.46
   6  -4 -12    1.05    1.08
  -6  -6 -18   66.52    5.37
  -6  -6 -18   65.99    5.64
   0  15   6   23.25    2.41
 -10  -4 -13   11.78    2.56
 -10  -4 -13   15.79    2.73
  10   4  13   16.71    2.18
  -1   3 -15   11.83    1.81
  -1   3 -15    9.87    2.47
  -2  -9 -18   26.00    3.09
  -2  -9 -18   22.09    3.80
   3   2  18   10.04    2.90
  -3  -2 -18   10.71    2.30
  10  -2  11    0.22    1.93
 -10   2 -11    1.09    1.56
   2 -12 -14   11.77    1.38
   2 -12 -14   25.02    4.29
  11   0   2   12.22    2.18
   5 -13  -7    2.52    2.29
   5 -13  -7    0.84    3.53
   8  -9  -6    0.61    2.24
   8  -9  -6   -0.65    1.63
   8  -9  -6    0.44    1.68
   8  -9  -6    0.48    2.28
 -11   1  -8    2.55    1.89
  11  -1   8    2.40    1.47
   5  11  -1    6.61    1.53
   5 -11 -11    2.49    2.08
   5 -11 -11    1.79    1.68
   5 -11 -11    0.32    2.75
   5 -11 -11    0.32    1.23
   5 -11 -11    0.81    2.43
   5  -8 -13    2.25    2.45
   5  -8 -13    0.12    1.17
  -4  -9 -18    0.97    1.84
   4   9  18   -0.30    2.79
  -4  -9 -18    2.39    2.42
  -1 -15  -8    7.96    2.04
   4   5 -10    6.66    1.88
   4   5 -10    7.52    1.55
  -1 -15  -7    1.29    1.68
  -9   7  -7    0.69    1.69
   9  -7   7    0.24    2.37
   6  -6 -12   -0.74    1.19
  -6   6  12    3.08    2.73
   6  -6 -12    1.53    1.98
  -5 -12 -15    6.09    3.09
  -5 -12 -15   10.77    2.60
   4  13   2   33.98    2.89
 -11   2  -2    8.54    2.23
  11  -2   2    6.16    1.89
   7   2  17   37.66    4.59
  -7  -2 -17   37.11    3.88
  -8  -7 -16   47.27    4.52
  -8  -7 -16   42.80    3.56
  -8  -7 -16   50.98    4.40
  -3 -11 -17   19.53    3.83
  -3 -11 -17   21.01    2.97
  11   3   5    3.25    1.72
 -11  -3  -5    4.21    1.86
 -11  -3  -5    2.84    1.79
 -11  -3  -5    4.43    1.84
  -5   9  -9   -0.34    1.79
   3   5 -11    6.19    1.56
   3   5 -11    4.00    1.82
   2  -9 -16    7.10    1.22
   2  -9 -16   15.15    3.30
  -6  -4 -18   -0.61    2.05
   3 -14  -9    4.88    3.19
   3 -14  -9    4.62    2.43
   3 -14  -9    3.00    2.70
   8  -1  -8    0.79    1.62
  -8   1   8    3.39    2.59
  -9   5   6   -1.03    2.05
   9  -5  -6   -0.35    1.56
  -1 -14 -13   38.85    3.85
  -1 -14 -13   41.43    5.30
   8 -10  -4   -1.40    1.83
   8 -10  -4   -1.12    1.65
   8 -10  -4    0.61    2.13
   8 -10  -4    0.75    2.46
  -2 -14 -13   17.69    2.65
  -2 -14 -13   12.38    3.76
  -9  -9 -11    2.15    2.33
  -2 -11 -17   35.98    3.51
  -2 -11 -17   28.46    4.46
  -8  -5   4   20.61    2.53
   8   5  -4   21.10    2.40
   8   5  -4   20.96    2.60
  10  -1  -3    0.18    1.81
 -11   3  -4   14.16    2.55
  -9   2 -13    3.39    1.92
 -11   2  -7    0.36    1.73
  11  -2   7    0.37    1.36
  -8 -10 -13   38.42    4.37
  -4 -14 -11   -1.36    1.96
  -4 -14 -11    3.15    2.94
   6 -11  -9    0.96    1.29
   6 -11  -9    2.32    2.67
   6 -11  -9   -1.09    3.18
   6 -11  -9    1.45    1.65
  -9  -2 -15    9.94    2.32
   9   2  15   12.59    1.83
  10  -4  -3    0.34    1.73
 -10   4   3   -0.93    1.76
   6 -12  -7   -1.00    1.56
   6 -12  -7   -0.36    2.35
   6 -12  -7    1.59    2.28
   4 -14  -5   -0.24    2.19
  -5 -13 -13    6.40    2.35
  -5 -13 -13    0.77    2.97
   5 -10 -12    0.35    1.75
   5 -10 -12    2.26    2.42
   5 -10 -12    0.15    1.71
   5 -10 -12   -2.69    2.90
   3   8  -8   76.19    5.47
 -10  -7 -10   36.79    4.11
 -10  -7 -10   38.14    3.69
   1  10  -7    5.66    2.18
   7  10   1   70.24    6.15
   7  10   1   59.35    4.50
   7 -11  -6    0.68    2.25
   7 -11  -6    2.13    2.32
   7 -11  -6   -0.14    1.48
  -5   2 -16    2.88    2.11
   4  14   6   -1.20    1.10
  -2   2 -16   -0.24    1.41
  -2   2 -16    1.22    1.99
   2  -2  16   -0.83    1.34
   5  -2 -13   26.68    2.06
   5  -2 -13   14.69    1.96
  -5   2  13   18.39    3.56
   4 -14  -4    3.77    2.31
   4 -14  -4    4.09    1.29
   6  -9 -11    1.13    2.38
   6  -9 -11    2.78    2.65
   6  -9 -11    2.56    1.67
   6  -9 -11    2.60    1.83
  11   0   9   18.65    2.19
 -11   0  -9   14.93    2.29
 -11   0  -9   16.42    2.45
   1 -15  -7    4.86    1.55
   3 -12 -13   10.54    3.05
   3 -12 -13   15.53    3.91
   3 -12 -13    8.90    2.03
   3 -12 -13    6.97    1.25
 -10  -6 -12   33.55    3.61
 -10  -6 -12   33.11    3.12
 -10  -6 -12   31.52    3.79
   4  -9 -14    5.60    1.38
   4  -9 -14    9.73    3.03
   8   4  -5    0.79    1.41
   8   4  -5   -1.32    1.65
  -1 -12 -16   -1.16    1.69
  -1 -12 -16    4.64    3.13
   1 -15  -6    9.95    1.99
   1 -15  -6   18.24    3.73
 -11   3  -3    3.79    1.81
  -3   6 -13    6.86    1.88
  -1 -15  -9    4.15    1.83
 -11   3  -5    4.90    2.07
  -2 -13 -15   36.17    5.04
  -2 -13 -15   32.78    3.65
   9   9   6   21.81    2.35
  -9  -9  -6   15.79    2.25
  -9  -9  -6   18.02    3.13
   9   1  -5   27.86    3.07
 -11  -3  -9    4.24    2.09
  11   3   9    9.46    1.75
 -11  -3  -9    6.37    1.99
   2 -11 -15    4.18    3.15
   2 -11 -15    4.13    1.45
   1  15   6   -0.76    1.26
   2  14   2   13.42    1.86
   9   8   3   -0.68    1.48
   9   8   3    0.12    1.29
  -9  -8  -3    1.39    2.05
  -9  -8  -3   -1.02    1.42
   0 -10 -17    3.67    1.52
   0 -15  -9    6.12    1.82
   5 -13   0   -1.20    3.49
   5 -13   0    4.50    2.52
   2   7 -10   60.11    4.55
  -3   7 -12    8.88    1.94
   5  13   4   39.86    3.17
   4   8  -7    8.55    2.36
   7  -8   9   -0.57    2.02
   7  -9  -9   -1.93    2.19
   7  -9  -9   -0.52    1.69
   7  -9  -9    0.99    2.49
   9  -7  -5    1.69    1.72
   3 -11 -14    2.29    1.53
   3 -11 -14    2.92    3.16
  -6   3 -15    2.81    1.95
   2   6 -11   47.43    3.77
   9  -8   5   -0.25    2.52
   1  14   1   42.58    3.45
   1 -12 -15    2.20    0.79
   3 -14  -1   12.63    2.78
   3 -14  -1    9.21    3.58
  -3  14   1   12.53    2.28
   4 -10   8    0.51    1.80
   5  12   1   12.78    1.93
   7   5  -6   18.68    2.21
   7   5  -6   14.98    2.33
   8   6  -3   29.95    3.10
   5   6  -8   17.74    2.24
   5   6  -8   18.42    2.40
   0  15   5    0.85    1.34
   2  12  -3   14.27    1.98
  10   7   6   -0.43    1.40
 -10  -7  -6   -1.06    1.58
 -10  -7  -6   -1.00    1.65
 -10  -7  -6    1.08    2.14
   7  12   8   19.38    1.95
  11   2   3   28.68    3.02
   4 -14  -6    0.95    2.55
   8  10   4   28.38    2.77
  -8 -10  -4   22.06    3.37
  -8 -10  -4   27.12    2.60
   3  12  -2   16.87    2.09
   4 -13 -10    7.36    2.53
   4 -13 -10    8.98    3.05
   4 -13 -10   10.33    3.46
   7   6  -5   47.65    4.05
  -4   6 -13   11.35    2.06
  -4   6 -13   10.60    2.45
  -9  -7  -1   20.76    2.55
  -9  -7  -1   14.74    2.78
   9   7   1   20.78    2.40
   9   7   1   17.24    2.29
   6   0 -11   66.42    4.20
   6   0 -11   46.08    4.17
   8  -7  -8    0.69    1.74
   8  -7  -8    2.69    1.96
  -6  -7 -18   14.14    1.86
  -6  -7 -18   15.12    2.48
   2 -14 -11    8.70    3.23
   7 -10  -8    0.70    2.35
   7 -10  -8    3.63    2.29
   7 -10  -8    3.55    1.97
 -10   1 -12   -0.59    1.73
   1 -15  -8   -0.16    1.30
   6  -3 -12   11.51    1.75
  -6   3  12   20.65    3.65
   6  -3 -12   20.93    1.91
   7   1  -9   26.36    2.87
   7   1  -9   29.66    2.65
   7   9  -1   59.78    4.45
  -8   1 -15    2.10    2.01
   2  -2 -16    0.38    1.63
  11   1   2   38.06    3.53
   4 -14  -3   -0.28    1.21
   1 -15  -5   26.18    4.28
  -9   9   0    0.31    1.61
   9  -9   0    0.37    1.46
   5   7  -7    6.23    1.91
   5   7  -7    9.53    2.23
   8   1  16    5.04    1.33
  -8  -1 -16    6.13    2.17
 -10  -5 -13   32.63    3.65
  -9  -6 -15    8.20    2.36
  -3   5 -14    0.71    1.59
  -7 -11 -14   22.13    3.37
  -9   1   6    5.47    2.48
  -4   7 -12   -0.78    1.66
  -1 -13 -15   -0.21    1.67
  -1 -13 -15    3.54    3.23
  -3 -13 -15   15.36    3.96
  -3 -13 -15   13.62    2.71
   0   4 -14    0.72    1.29
   5   5  -9   23.20    2.44
  -6 -12 -14    4.53    2.29
  -6 -12 -14   -0.34    2.46
  -1  14   0    4.45    1.71
   1 -14   0    4.97    2.83
   1  -3 -17    0.79    1.69
  -1   3  17   -0.72    2.73
  -6   7  12   10.74    3.07
   6  -7 -12   10.98    2.55
   6  -7 -12    4.36    1.45
  -4 -11 -17   10.52    2.39
  -4 -11 -17    2.86    2.76
   6  -8  10   -0.18    1.87
  -4 -12 -16    1.33    2.10
  -4 -12 -16    2.30    2.92
  -9   6  -9    6.55    1.79
   9  -6   9    9.65    2.72
 -11   3  -2    5.22    1.97
  -9   9  -1    4.19    1.64
   9  -9   1    5.92    1.71
  -2  -2 -18   -0.92    1.88
   2   2  18   -0.32    2.43
  -4   5 -14   13.71    2.28
  -4   5 -14   17.42    2.90
   9  -8  -4    1.98    2.27
   9  -8  -4    0.32    1.51
   8 -10   3    8.64    2.84
 -11  -4  -7   40.18    3.80
  11   4   7   32.28    2.95
 -11  -4  -7   31.71    3.49
  -1  -3 -18   51.90    4.62
   1   3  18   45.34    5.03
 -11  -3  -4    5.32    1.83
  11   3   4    5.27    1.87
 -11   3  -6    2.03    2.09
   2  13  -1    6.46    1.63
  -6 -13 -10    2.43    2.61
   4   4 -11   63.02    4.61
   6 -12   2    2.76    2.18
   5 -12 -10    0.41    2.66
   5 -12 -10   -0.72    3.03
   5 -12 -10   -0.29    1.71
   5 -12 -10    0.64    2.12
  -2   7 -12    4.07    1.67
  -2   6 -13    2.25    1.45
   7   4  -7    0.24    1.41
   7   4  -7    0.95    1.71
  -7  -4   7    0.33    1.53
   6  13   8   17.14    1.81
  -2 -15  -8    1.66    1.93
  -7  -8 -17    0.42    1.92
  -9   9   1   -1.38    1.66
   9  -9  -1    1.85    1.54
 -10   6  -6   -0.66    1.82
   0 -14 -13   -0.74    1.55
 -11  -4  -8    7.35    2.22
  11   4   8   10.03    1.79
 -11  -4  -8    6.99    2.18
  -3 -14 -13   10.31    2.40
  -3 -14 -13   13.16    3.70
 -10  -6  -3   30.42    2.90
  10   6   3   32.21    3.06
 -10  -6  -3   24.94    3.40
 -10  -6  -3   30.89    3.05
 -11  -2 -10   14.75    2.45
   2   5 -12    1.45    1.65
   2   5 -12    0.12    1.49
   8   3  -6   15.96    2.45
   8   3  -6   15.76    2.15
   6   2 -10    8.83    1.55
   6   2 -10    4.99    1.68
   0   1 -16   17.77    2.72
   0   1 -16   15.24    1.89
   2 -14   0   -0.34    3.02
  -2  14   0    3.27    1.77
  -7   1  10   18.80    3.61
   7  -1 -10   21.17    2.27
  -1 -15 -10    5.39    1.94
   4   1 -13    0.91    1.21
  -1 -11 -17    2.35    1.78
  10  -7   2    1.91    1.53
 -10   7  -2    4.37    1.77
   3   4 -12    9.95    1.65
   0   6  18    3.13    2.87
   0  -6 -18    3.65    1.85
   7  12   7   13.73    1.71
 -10  -7 -11   41.97    4.53
 -10  -7 -11   44.73    4.16
   8  11   9    5.23    1.38
  -8 -11  -9    7.06    1.67
  10  -7   1   -0.54    1.61
 -10   7  -1    0.32    1.66
   7 -11   3   -0.22    2.22
   6  12   3    5.68    1.55
  -2 -15  -9    4.17    2.08
 -10   5  -8    4.35    1.85
   1  15   5    4.74    1.41
   2 -12   5   20.90    3.52
 -11  -1 -10   20.06    2.64
  10   0  -3    9.89    2.20
   7  11   3   13.39    1.95
 -10  -3   1   18.23    2.68
  10   3  -1   16.33    2.55
  10  -6  -2    1.58    1.71
 -10   6   2   -0.92    1.94
  -2 -15  -7    1.45    1.89
   7   7  -4   30.87    3.10
 -11  -4  -6   19.39    2.85
 -11  -4  -6   22.34    2.71
  11   4   6   19.27    2.48
  -9  -9 -12   -2.75    2.46
   3  14   3    0.76    1.21
  -1  -9 -18    2.50    1.76
 -10  -4   0    5.90    1.93
  10   4   0    5.52    1.91
   4 -14  -7    2.60    2.41
   9  -6  -6    0.72    1.82
   3  13   0   31.17    2.83
  -8 -11 -10   15.80    2.02
  -4 -14 -12    2.43    2.94
  -4 -14 -12   -0.28    2.13
 -10   5   3    2.80    1.90
   1  -9 -17   46.68    3.82
   9   4  -3   -2.21    1.89
  -9  -4   3    0.18    1.88
   4 -13   2    5.66    2.40
   4 -13   2   10.55    3.95
  -4  13  -2    4.42    1.95
 -11   2  -8   -0.17    1.77
   0 -15 -10   13.88    2.13
   3   1 -14   16.60    1.91
  -5  -9 -18   24.68    3.16
  -5  -9 -18   17.59    3.20
  -5  -9 -18   19.86    2.70
  -1   0  16   33.61    4.35
   1   0 -16   32.19    2.67
   1   0 -16   30.89    3.52
   8  11   8    1.83    1.31
  -8 -11  -8   -0.51    1.45
   0  -7 -18    1.88    1.64
  -9   1 -14   20.81    3.00
   1 -15  -9   -0.65    1.36
   6 -10   7    3.10    2.20
   9  -9   2    6.74    1.68
  -9  -1 -15   44.20    4.30
   5 -13  -8    3.26    3.37
   5 -13  -8    4.84    2.58
   5 -13  -8    1.39    2.37
   0  -5 -18   12.18    2.30
   0   5  18    4.97    2.83
   4  14   5    6.93    1.41
   3   9  -7   20.57    2.89
  11   0   1   19.96    2.62
   3 -13 -12    9.49    3.26
   3 -13 -12    7.74    2.26
 -11  -3 -10   14.83    2.53
 -11  -3 -10   15.80    2.62
  11   3  10   17.46    2.10
   8   7  -2   34.20    3.29
   4 -11 -13    3.32    2.95
   4 -11 -13    1.89    1.74
   4 -11 -13    5.51    2.61
   4 -11 -13    1.06    1.66
   9   5  -2    4.12    1.84
  -9  -5   2    5.05    1.92
   0  -1 -17   19.94    2.86
   0   1  17   23.00    3.86
   8  -9   6    1.14    2.28
   0  14   0    4.40    1.63
 -10   7  -3    9.51    2.16
  10  -7   3    6.79    1.72
   0  15   4   -2.36    1.52
 -11  -4  -9    9.37    2.26
 -11  -4  -9    8.36    2.32
  11   4   9    8.47    1.72
   5 -11   6   -1.67    2.18
  -6 -13 -11    1.41    2.73
   6 -11   5   13.13    2.86
   1  13  -2    0.39    1.44
  -1   0 -17    0.47    1.98
   1   0  17   -0.95    2.55
   1 -15  -4   10.40    3.30
  -1  15   4   10.51    1.92
   1 -15  -4    9.35    1.53
   4  -1 -14    6.94    1.42
   4  12  -1   38.39    3.28
  -2   5 -14    3.02    1.63
   8 -10  -5    3.83    2.32
   8 -10  -5    3.27    1.65
   8 -10  -5    2.75    2.55
 -10  -7  -5   -0.32    1.56
 -10  -7  -5   -0.81    2.20
 -10  -7  -5    0.46    1.66
  10   7   5    0.12    1.41
   5   8  -6    9.06    2.00
 -10   7   0   -0.66    1.71
  10  -7   0   -0.29    1.72
   3 -12   5    7.75    3.01
   7  -8 -10    0.20    1.96
   7  -8 -10    0.30    2.30
   7  -8 -10   -0.83    1.69
  -9  -9  -5    8.63    2.62
   9   9   5    9.97    1.99
  -9  -9  -5   10.43    2.04
   6  13   7   16.11    1.80
   4 -12 -12    4.74    2.99
   4 -12 -12    5.80    2.22
   4 -12 -12    9.38    3.03
  -3 -10 -18    8.21    3.00
  -3 -10 -18   11.92    2.45
  -7   1 -16    0.24    1.99
   2 -15  -6    0.15    1.20
  -2  13  -3    2.62    1.74
   2 -13   3    5.94    2.65
   9  -9  -2   -0.56    1.76
  -9   9   2   -0.95    1.69
   5   4 -10   10.65    1.76
   8  -8   8    1.51    2.09
   1 -12   5    9.27    2.60
  10   2  -2   24.88    3.00
  -8   5 -12   -0.21    1.82
   8  -5  12    1.06    1.81
  -5   6 -13    2.58    1.83
  -5   6 -13    1.44    1.73
  -2 -15 -10    5.77    2.03
   4  -1  17   -0.75    2.19
   5   1 -12    8.91    1.65
  -8   4 -13    2.13    1.95
   3 -14 -10    5.24    3.51
   3 -14 -10    6.80    2.28
   3  -1 -15    0.96    1.06
   9   3  -4   21.93    2.80
  -3   4 -15    0.83    1.48
   5  -9 -13    1.42    2.48
   5  -9 -13    2.85    1.45
  -4   4 -15   16.71    2.23
   3  -1  17    1.66    2.38
  -3   1 -17    0.98    1.42
  -6  -8 -18   37.18    3.72
  -1  13  -3   10.72    1.94
   1 -13   3    6.34    2.80
 -10  -5  -1   11.61    2.19
  10   5   1   11.41    2.12
 -10  -5  -1    5.40    2.17
 -11   0 -10   12.98    2.17
   1   2 -15    3.25    1.41
 -11   4  -3   -1.82    2.09
 -11   4  -4    4.79    1.99
 -11  -4  -5    3.52    1.82
 -11  -4  -5    1.92    1.80
  11   4   5    1.12    1.70
   8   0  -8    7.83    1.74
   3 -10 -15    6.56    1.52
 -10   0 -13    1.05    1.85
  -3  -6 -19   17.48    2.69
 -11   3  -7    6.62    2.32
   0 -12 -16    2.92    1.61
  -2 -10 -18    9.54    2.25
   6  -2 -12   27.02    2.42
  -8   4   9   -0.64    2.48
   4  -6 -15    3.96    1.09
  -4  -6 -19   -1.66    2.08
  -4  -6 -19    0.68    1.65
   8  11   7    5.79    1.45
  -8 -11  -7    5.56    1.65
  -7   5 -13    2.42    2.05
  -6 -11 -16   31.96    4.10
   4   1  18   16.02    3.05
  11   2   2    5.92    1.85
   5 -13   1    1.58    3.36
   7   3  -8    7.60    1.91
   7   3  -8    9.57    1.75
   6 -12  -8    1.15    2.55
   6 -12  -8    2.03    2.34
   6 -12  -8    2.39    3.20
   6 -12  -8    2.78    1.56
  -8  -9  -1   21.74    2.52
  -8  -5 -17   18.07    2.95
  -1   2 -16    2.13    1.33
   7 -11  -7    3.25    2.72
   7 -11  -7    4.57    1.91
   7 -11  -7    2.86    2.49
   5 -12   4   -1.12    2.30
  -8  -4 -17   10.81    2.59
   7 -12  -2   10.32    1.71
  -9  -6   1   36.94    3.52
   9   6  -1   28.56    3.09
   7  12   6    0.21    1.22
   2 -10 -16   13.15    1.68
  -5 -13 -14    3.15    3.08
  -4  -5 -19   21.20    2.71
  -8   5   9    8.78    2.95
  -4 -10 -18    5.52    2.78
  -4 -10 -18    1.99    1.83
   3   1  18   10.02    2.93
   0  -8 -18   17.41    2.45
 -10  -6 -13   49.08    4.76
  -3  -5 -19   -0.93    1.87
   0 -13 -15   10.91    1.98
  -4 -13 -15    3.25    2.17
  -4 -13 -15    2.07    2.90
  -7   6 -12    1.94    1.93
   7 -10   6   -0.65    2.41
   3 -11   7    5.09    2.57
  -6 -10 -17   43.62    4.63
   7 -12  -3    0.41    1.25
   5  -1 -13   37.46    3.00
 -11  -3  -3    0.83    1.71
  11   3   3    1.68    1.65
 -10   7  -4    3.57    1.95
  10  -7   4    8.29    1.69
   2   4 -13    2.11    1.35
  -3  -7 -19    7.52    2.10
   8  -6  11   -1.32    2.00
  -8   6 -11   -1.59    1.86
  -1 -15 -11   12.08    2.26
   3 -14   0    9.06    3.61
  -3  14   0    7.86    1.99
   0  -4 -18   10.26    2.26
   6  -8 -12    8.40    2.78
   6  -8 -12   10.98    1.91
   1   6 -12    1.92    1.60
 -11   4  -2    1.64    1.89
   5 -10   8   -0.76    1.97
 -11   4  -5   15.26    2.81
   9  -9   3    4.00    1.58
   8  -9  -7    0.24    2.25
   8  -9  -7    0.62    2.23
   8  -9  -7   -1.56    1.74
  -3  13  -3   -2.28    1.86
   3 -13   3    0.33    2.93
  -8   3   9   -0.95    2.46
   6   6  -7   39.64    3.67
   9  -8   6    0.25    2.44
  -4  -7 -19    0.24    2.00
  -4  -7 -19    1.19    1.79
  -7   4 -14    0.46    2.00
   1  15   4    9.78    1.73
 -11  -4 -10    6.57    2.17
 -11  -4 -10    6.52    2.25
  11   4  10   12.44    1.79
   8   2  -7   15.69    2.41
   8   2  -7   15.96    2.08
   4 -14  -8    8.21    2.89
  10  -7  -1   -2.52    1.85
 -10   7   1    0.54    1.79
  11   1   1    2.64    1.82
  -8   3 -14    4.00    2.00
   5  13   3   24.78    2.43
  -2 -14 -14    9.33    3.57
  -2 -14 -14   14.35    2.50
   7   8  -3   17.91    2.38
 -10  -7 -12   66.10    5.85
   4  -7 -15    0.68    0.95
   4  -7 -15    1.22    2.09
  -6 -13 -12    6.51    2.89
  -9   7  -8    4.20    1.77
   9  -7   8    3.59    2.66
  -2  15   4    7.64    1.85
   4   3 -12   15.43    1.92
 -10   3 -11    1.65    1.65
 -10  -4 -14    9.35    2.53
   0   3 -15    1.06    1.25
   8  10   3   13.95    1.99
   2   1 -15   27.68    2.52
   7  -9   8    0.41    2.09
  -1   6 -13    2.63    1.58
   4  13   1   21.85    2.38
   6  13   6   21.79    2.17
   6   5  -8   42.14    3.75
   8  -8  -8    1.69    2.22
   8  -8  -8   -1.10    1.98
   8  -8  -8    0.18    1.92
  -9  -8  -2    0.28    2.05
  -9  -8  -2    1.51    1.57
  -7   5  11   -1.72    2.75
   4 -10 -14    6.36    1.61
  -1 -14 -14    8.01    2.17
  -5 -11 -17   11.09    3.06
  -7  -5 -18    0.66    2.23
   6  -9   9    1.76    2.15
 -11  -2 -11   16.88    2.66
  -2   4 -15    5.36    1.63
   1  -2 -17    6.96    2.18
   9  -9  -3   -0.74    1.95
   0 -15 -11    0.93    1.60
  -2 -15 -11   10.14    2.32
   6   7  -6   55.49    4.49
   7 -12  -4    1.42    1.41
  -7   4  11    2.77    2.75
  -1  15   3    5.23    1.65
  10  -6   7   -0.28    2.72
 -10   6  -7   -0.82    1.75
   2  14   1    1.44    1.43
   2  -6 -17    4.10    1.56
   3   3 -13   31.04    2.75
  -2  -6 -19   14.16    2.59
   2  15   5   18.13    2.05
  -1  -2 -18   19.44    2.90
   1   2  18   20.54    3.70
 -10  -2 -14   12.45    2.59
   9   2  -5    4.94    1.99
  -4 -14 -13    2.53    3.17
  -4 -14 -13   -0.28    2.04
 -10   2 -12    2.19    1.86
  -9   4 -12    2.18    1.81
   9  -4  12    2.02    2.18
   8  -6  -9    3.47    1.98
  -8   6   9    3.99    2.59
  -7  -6 -18    3.50    2.33
   4 -12   5    2.38    2.16
   4 -12   5    2.33    3.05
  11   5   8    4.54    1.55
   0  15   3   -0.13    1.48
   2  -1  17    5.41    2.62
  -2   1 -17    7.11    1.66
 -11  -3 -11    4.64    1.98
  -5 -12 -16    7.64    3.07
  -7  -4 -18    7.56    2.40
   9  -8  -5    2.53    1.78
   9  -8  -5   -0.25    2.43
  -3 -15  -9   -0.52    1.94
  -3 -15  -8    3.18    2.08
   7  -7  11    1.76    1.95
  -7   7 -11    3.13    2.09
 -10  -8  -9    8.68    2.18
 -10  -8  -9    6.84    2.66
 -10  -8  -9   10.61    1.91
   5   9  -5    1.72    1.61
   8   8  -1   12.62    2.09
  -5  -6 -19    8.43    2.22
  -9   4   7    0.58    2.26
   3   4  19   -0.61    2.35
   6 -10 -11   12.75    2.55
   6 -10 -11   12.05    2.28
   6 -10 -11   10.50    3.18
   6 -10 -11   14.14    3.29
 -11  -5  -7   17.08    2.55
 -11  -5  -7   19.74    2.89
  11   5   7   19.92    2.33
 -10   6   3   -0.93    1.92
  11   4   4    4.96    1.91
 -11  -4  -4    5.22    1.86
   5  -6 -14    1.28    1.03
   1   5 -13    1.25    1.41
   6 -11 -10    0.21    2.05
   6 -11 -10    1.57    2.69
   6 -11 -10    0.69    1.92
 -10  -7  -4    0.31    1.55
  10   7   4    2.38    1.55
 -10  -7  -4    0.54    2.10
 -10  -7  -4   -0.32    1.66
   8  11   6   21.37    2.30
  -2  -7 -19   33.56    3.52
 -11  -1 -11   12.18    2.36
   4  14   4    4.87    1.42
 -10  -8  -8    1.67    1.70
 -10  -8  -8    0.31    1.61
   0 -11 -17    1.86    1.62
   9  -7  -6    6.30    2.15
   1  14   0   15.26    2.06
  -7   6  11    1.68    2.53
   8 -11  -1    3.54    1.51
   2  -5 -17   17.63    2.38
   4 -13 -11    2.14    2.18
   4 -13 -11    1.43    3.33
  -9   3   7    7.23    2.70
  -5  -5 -19   15.80    2.57
  10   6   2   33.35    3.24
 -10  -6  -2   35.17    3.41
 -10  -6  -2   38.48    3.94
  -3  -8 -19   55.30    4.28
  -3  -8 -19   48.89    4.61
 -11   4  -6    8.33    2.44
   2   5  19   26.19    3.90
  -2  -5 -19   26.36    3.32
   8 -11  -2    1.64    1.41
  -6 -12 -15    1.67    2.74
  -9   5 -11    2.44    1.79
   9  -5  11    6.21    2.52
  -3 -14 -14   16.66    2.74
  -3 -14 -14   17.16    4.15
   5   3 -11    1.15    1.42
  -9   3 -13   -0.63    1.78
 -11  -5  -9   15.40    2.79
 -11  -5  -9   11.84    2.55
  11   5   9   14.31    1.93
  -9   0 -15   15.03    2.72
   4 -11   7   -0.73    1.90
   4 -11   7    0.29    2.88
  -9  -9  -4   -1.20    2.36
   9   9   4   -0.66    1.69
  -9  -9  -4   -0.29    1.52
 -10  -5 -14   21.83    3.16
   7   0 -10   39.57    3.24
  -1 -10 -18   -0.78    1.74
   3  -8 -16    9.73    1.34
   2   1  18    0.63    2.69
  -1   5 -14   13.61    2.02
  -8   2   9    3.20    2.64
 -10  -8 -10   13.38    3.03
 -10  -8 -10   14.90    2.20
  -9 -10  -9   26.35    2.75
   9  10   9   30.62    2.79
  -4  -8 -19    2.37    1.80
  -5 -14 -11   40.12    5.06
   5 -13  -9    0.39    2.43
   5 -13  -9    0.40    3.30
   5 -13  -9    0.46    2.28
   8  -7  10    2.01    2.27
  -8   7 -10    0.19    1.79
  -3 -15 -10    1.03    1.77
   4  -3  16    0.74    2.10
  -4   3 -16   -0.71    1.53
   8 -11   0    1.79    1.40
   5  14   7    2.45    1.15
 -10   7  -5    3.26    1.91
   6   1 -11   34.67    2.90
   5 -11 -12   -0.19    1.93
   5 -11 -12    0.83    1.96
   6   4  -9   10.58    2.10
   7  -3 -11   -0.21    1.31
  -7   3  11    1.04    2.82
   9   7   0   48.90    4.17
  -9  -7   0   52.78    4.36
   8 -10  -6    2.25    1.79
   8 -10  -6    1.98    2.38
   1 -14   1    5.19    2.93
  -1  14  -1    7.98    1.86
  -3   3 -16    0.81    1.49
   3  14   2    1.39    1.33
  -5  -7 -19   45.24    4.12
  -3 -12 -17   53.46    4.87
  -3 -12 -17   57.34    6.04
  -9   5   7    1.96    2.30
  -2 -12 -17   10.43    2.26
   7 -10  -9    0.54    1.81
   7 -10  -9    0.45    2.20
   7 -10  -9   -2.13    2.65
  -9 -10 -10    5.32    1.65
  11   5   6   12.90    2.09
 -11  -5  -6   15.76    2.71
 -11  -5  -6   15.26    2.42
 -10  -8  -7   -0.18    1.71
 -10  -8  -7    1.06    1.61
 -10  -8  -7   -0.59    2.30
  -2  14  -1   -2.32    1.86
   2 -14   1   -0.65    2.93
  -2  15   3   10.11    2.00
   4  -8 -15    0.61    0.98
   0  -9 -18   14.63    2.29
  10  -5   9   -0.26    2.56
 -10   5  -9    1.71    1.78
   9  10   8   19.56    2.25
  -9 -10  -8   20.74    2.47
   6  12   2    2.42    1.60
   7  12   5    2.42    1.43
   5  -7 -14    0.89    2.03
   5  -7 -14    1.75    1.12
   7 -12  -5    0.25    1.63
   7 -12  -5   -0.65    2.39
 -10   7   2   -0.36    1.93
  -8   2 -15    2.58    2.18
   8 -11  -3    2.58    2.12
   8 -11  -3    0.88    1.58
   6   8  -5   15.51    2.36
  -2 -13 -16   32.04    3.57
  -5 -10 -18   11.19    2.78
 -11  -4 -11    0.24    1.98
   0  -3 -18   23.26    3.00
   7   2  -9   29.83    2.84
  -7  -7 -18   -1.51    2.11
  -9   2   7    0.58    2.19
  -6  -9 -18   30.59    3.66
  -6  -9 -18   32.51    3.45
   0 -14 -14    8.18    2.01
 -10  -1 -14    8.36    2.22
  -1 -15 -12   11.37    2.30
 -10   1 -13    1.89    1.92
   6  -1 -12   13.71    1.78
  -6 -13 -13   19.49    4.13
   5 -12 -11    0.42    2.66
   5 -12 -11    3.56    2.18
  -6   6 -13    7.70    2.38
   7  -9 -10    0.29    2.36
   7  -9 -10    5.00    2.50
   7  -9 -10    1.05    1.81
   2  -4 -17    6.02    1.91
  11   5  10    0.81    1.35
 -11  -5 -10   -0.25    2.13
 -11   0 -11   33.77    3.47
   3 -14 -11    8.42    2.46
  11   3   2   18.05    2.55
   4 -14  -9    0.93    2.42
  11   2   1    0.16    1.84
   4 -13   3    5.51    3.39
   1  15   3    2.45    1.45
   9  -6  10    3.15    2.43
  -9   6 -10    3.78    1.82
   6  13   5   28.76    2.65
   2   3 -14   14.44    1.93
   2   4  19   47.39    5.10
  -2  -4 -19   47.38    4.45
   7  -7 -11   14.91    2.56
   7  -7 -11   10.13    2.58
 -11   5  -3    8.78    2.39
  -9   2 -14   10.61    2.44
  -2 -15 -12    8.15    2.19
  10   4  -1   49.04    4.32
  -3 -15 -11    6.11    2.31
   9  -9  -4    3.27    1.81
   4   3  19   21.01    3.47
   8  -7  -9   10.29    2.49
   9  10   7   35.62    3.10
  -9 -10  -7   29.83    2.95
   4   0 -14   12.44    1.72
   2  15   4   42.92    3.41
   5 -10 -13   -0.15    1.52
   5 -10 -13    0.39    2.76
 -11   5  -4    6.10    2.21
  10   3  -2    6.66    2.10
   6  -9 -12   -0.15    1.49
   6  -9 -12    1.03    2.36
   1   4 -14   19.32    2.24
  -5 -14 -12   24.72    4.18
 -11   4  -7    1.87    2.08
  -3 -11 -18   33.53    3.73
  -1 -13 -16    0.60    1.58
  -6   7 -12    4.96    2.19
   7  -8  10    3.65    2.22
   8   1  -8    7.50    1.73
   0   0 -17   14.70    2.78
 -10  -8  -6   16.35    2.36
 -10  -8  -6   19.06    2.51
   3   3  19    0.31    2.42
   8   5  -5    5.22    1.96
 -11  -5  -5   18.09    3.00
 -11  -5  -5   23.32    2.78
  11   5   5   21.23    2.58
  -1  15   2    5.55    1.76
   6 -12  -9    0.23    2.30
   6 -12  -9   -0.76    1.81
   6 -12  -9   -0.40    2.72
   6 -12  -9   -1.19    3.59
   5  14   6    6.00    1.38
   7 -11  -8    0.37    2.62
   7 -11  -8    2.14    1.76
   7 -11  -8    1.42    2.28
  -4 -12 -17   18.19    3.78
  -1 -12 -17    2.59    1.75
  -2   3 -16   16.72    2.18
   8  11   5   30.95    2.80
  -5  -8 -19    2.41    2.00
   0 -15 -12   -0.38    1.55
  11   4   3    3.67    1.79
   5  -9  10    0.66    1.81
  -3  -9 -19   29.23    3.02
  -3  -9 -19   25.80    3.35
   3 -14   1    0.36    3.27
  -3  14  -1    2.48    1.85
  -5 -13 -15    0.79    2.88
   8 -11  -4   -0.31    2.39
   8 -11  -4   -1.80    1.83
   8   6  -4    6.08    2.03
  -1   4 -15   23.57    2.53
 -10  -5   0    1.64    1.99
  10   5   0    1.35    1.79
   3 -13 -13    2.10    1.98
   3 -13 -13    1.96    2.73
   3   0 -15    4.77    1.33
  -2 -11 -18   12.34    2.55
  -1  -6 -19    6.90    2.13
   7  -2 -11    1.17    1.28
   4   2 -13    2.20    1.33
 -10   8  -1    0.65    1.66
   9  -8   7    4.73    2.82
   1   1 -16   28.79    2.62
   3 -11 -15    1.02    1.39
   0  15   2    2.53    1.53
   3  -9 -16   11.76    1.55
  -1  -7 -19    1.46    1.79
 -11  -2 -12   14.46    2.55
   5  -8 -14   -0.11    1.09
   5  -8 -14    2.58    2.33
   8   4  -6    5.27    1.86
   1  -7 -18   17.05    2.42
   5   0 -13   24.24    2.34
 -11  -3 -12    1.85    1.89
   4   0  18    2.72    2.45
  -8   1   9    2.00    2.62
   8  -1  -9    2.48    1.48
  -4  -9 -19   13.57    3.17
  -4  -9 -19   10.24    2.17
   5  13   2   28.60    2.78
 -10   8  -2    0.64    1.62
  -4 -14 -14   11.73    3.60
 -11   5  -5    6.87    2.23
 -10  -7  -3   11.48    2.09
 -10  -7  -3    7.99    2.44
 -10  -7  -3    8.63    1.86
  10   7   3   10.18    1.96
   0   2 -16   17.15    2.07
  -1   1 -17    7.16    1.65
   1  -1  17    6.49    2.90
  -6  -6 -19   51.23    4.60
  -9   1   7    0.89    2.47
  -6  -5 -19   27.80    3.36
 -10   6  -8    0.31    1.79
  10  -6   8   -0.27    2.59
   7 -12  -6   -1.37    2.38
   7 -12  -6    0.54    1.77
 -10   7  -6   -0.97    1.81
 -10   8   0    1.21    1.80
  -2  15   2    1.68    1.72
  -4 -11 -18    8.87    3.16
   1  -5 -18    3.95    1.95
   3   0  18    0.29    2.40
 -11  -5 -11   -1.52    2.30
  -1  -5 -19    7.87    2.17
   8  -8   9    3.18    2.47
   4  14   3    8.63    1.65
   3   2 -14    7.14    1.55
   2 -13   4   10.15    3.20
   6 -10   8    2.73    2.28
   4 -12 -13    3.48    2.86
   9   5  -3    0.69    1.82
   1  -1 -17    4.68    2.18
   4  -9 -15    2.73    1.21
  -4 -13 -16   21.79    4.21
  -2  -9 -19   21.18    2.91
   5 -11   7    1.83    2.12
  -2 -14 -15    6.37    2.30
   8  -9  -8    4.59    2.05
   8  -9  -8    5.93    2.81
   8  -9  -8    3.98    2.45
   7   6  -6   31.34    3.21
   9  10   6   27.66    2.70
  -9 -10  -6   27.00    2.82
   5   2 -12   12.53    1.85
 -10   7   3    4.10    2.08
  -9  -9  -3   10.31    1.87
  -9  -9  -3   12.55    2.80
  -9  -8  -1    4.47    1.79
 -11  -1 -12    8.21    2.23
   2  -9 -17    6.33    1.18
   8   7  -3   11.78    2.30
   2  -3 -17   19.91    2.73
   9 -10   0    2.43    1.53
   7 -10   7    4.66    2.50
  -3 -15 -12   14.58    2.73
   6 -13  -7   -1.43    2.39
 -10   0 -14   15.88    2.69
   7   5  -7    2.80    1.77
  -6 -11 -17   18.89    3.51
 -11  -6  -8   -0.19    1.88
 -11  -6  -8    0.26    2.08
  11   6   8    1.39    1.36
   9 -10  -1   -1.40    1.58
 -11  -4 -12    4.52    2.15
   7  12   4    2.46    1.38
   3  15   5    9.81    1.65
 -10   8  -3    0.96    1.71
   3 -12   6   -0.29    2.70
   9  -7   9    5.88    2.66
  -1  -8 -19   -1.01    1.77
  -6  -7 -19   52.28    4.66
   0 -10 -18   22.61    2.66
   2   3  19   26.66    4.05
 -11  -6  -9    1.33    2.13
  11   6   9    1.92    1.32
   1 -13   4   16.46    3.33
   4 -11 -14    2.45    2.59
   4 -11 -14    0.73    1.61
 -10  -6  -1   22.29    3.19
  10   6   1   21.15    2.62
 -10  -6  -1   24.24    2.86
  -1 -14 -15    2.53    1.81
 -10   8   1   -1.08    1.82
   3 -13   4    3.52    3.08
 -10  -8  -5    4.10    1.81
 -10  -8  -5    6.61    1.90
 -10  -8  -5    2.61    2.21
  -9  -6   2   23.92    2.82
   9   6  -2   20.17    2.68
   7  -8 -11   11.85    2.86
   7  -8 -11    7.64    2.30
   9 -10   1    0.58    1.45
  -6 -13 -14   35.77    4.64
 -11  -6  -7    0.26    2.00
 -11  -6  -7    0.19    1.89
  11   6   7   -0.23    1.41
  -3   2 -17    8.54    1.85
   3  -2  17   11.38    2.73
   5 -13 -10   -1.15    2.29
  11   5   4   20.81    2.64
 -11  -5  -4   23.22    2.80
   7   7  -5   37.75    3.55
   6  -7 -13    1.13    1.96
   8 -10  -7    0.69    1.67
   8 -10  -7   -1.33    2.61
   0  -2 -18   16.51    2.77
  -5 -14 -13   26.12    4.31
 -10   3 -12    2.76    1.92
  10  -4  11    1.47    2.63
  -3 -14 -15   -0.25    2.05
   5  14   5   13.41    1.83
  -1 -15 -13    3.79    1.86
  -1 -11 -18    0.79    1.76
   8 -11  -5   -1.02    1.88
   8 -11  -5    4.26    2.76
   6  13   4   23.58    2.41
   9 -10  -2   -0.55    1.70
 -11   5  -6    7.41    2.23
   4 -14 -10    1.15    2.29
  -2 -15 -13   16.13    2.68
  -6 -12 -16    2.02    2.72
   1  -4 -18    0.79    1.74
   7   1 -10   19.35    2.17
   4 -13 -12    1.04    2.13
   4 -13 -12    2.10    3.01
  -1  -4 -19   21.32    2.90
   5   7  -8    5.99    1.98
 -11  -6 -10    1.36    2.20
   1  15   2    4.46    1.53
   4   2  19    9.68    2.61
   2  15   3    9.17    1.72
   8  -8  -9    3.25    2.13
   8  -8  -9    1.38    2.27
  -5  -9 -19    2.09    1.93
  -5  -9 -19    5.07    2.38
  -8   5 -13    0.66    1.86
  -6 -10 -18   19.93    3.23
   1   3 -15   19.62    2.23
   2   0  18    5.35    2.72
  -5 -12 -17    0.36    2.83
   3   2  19    3.16    2.67
 -10   2 -13    3.01    1.95
   6 -11 -11    0.82    2.03
   6 -11 -11    3.18    2.78
   6 -11 -11   -1.25    2.05
   6 -11 -11   -0.67    2.70
   6   0 -12   41.93    3.31
  11   6   6   14.98    2.15
 -11  -6  -6   14.96    2.78
 -11  -6  -6   13.94    2.40
  10  -5  10    2.04    2.59
   2 -14   2   -0.64    2.94
   9 -10   2    6.91    1.74
  -8   4 -14    2.76    2.18
 -10   8  -4    6.80    1.99
 -11   0 -12    3.46    1.94
   2   2 -15   21.27    2.28
  -8   6 -12    2.15    2.02
  -1  15   1    0.29    1.59
  11   4   2    5.50    1.93
  -1   3 -16    8.84    1.80
   7  -1 -11   14.58    1.92
   5  -9 -14    3.18    1.38
 -11  -5 -12    1.26    2.06
  -8   5  10    5.05    2.83
  -6  -8 -19   30.06    3.39
  -8   4  10    4.09    2.88
   5 -10   9    0.18    1.94
   5   8  -7    3.58    1.91
 -10   8   2   -1.26    1.80
   7 -12  -7    2.56    2.43
   7 -12  -7    2.02    1.75
  -9 -10  -5    7.24    1.89
  -9  -7   1   51.75    4.37
   9   7  -1   49.87    4.25
   7   8  -4   32.45    3.26
   9 -10  -3   -0.44    1.88
  -1  -9 -19    5.80    1.95
   7 -10 -10    1.45    2.60
   7 -10 -10    4.22    2.08
   7 -10 -10    2.64    2.28
   7 -10 -10    1.96    2.86
   2  -2  17   10.54    2.98
  -2   2 -17    9.10    1.85
  -2  15   1    0.62    1.78
   3 -10 -16    3.39    1.26
 -10  -9  -9    9.87    2.07
   6 -10 -12    5.19    1.95
  -9   4 -13    0.21    1.95
 -10   7  -7   -0.16    1.81
   8  12   8    4.92    1.38
  -9   5 -12    2.03    1.86
   0  15   1    3.35    1.70
   6  -8 -13    4.35    2.39
   0 -16  -8    8.13    2.00
   0 -16  -7    7.06    1.99
  -9   4   8    9.64    3.01
   6  -9  10    1.53    2.09
 -10  -9 -10   30.59    2.96
   3  15   4    6.61    1.58
 -11  -3 -13    2.86    2.03
   7 -11  -9   -2.85    3.16
   7 -11  -9    2.29    1.91
   7 -11  -9    3.40    2.88
   7 -11  -9   -1.64    2.33
   6 -12 -10    3.64    2.46
   6 -12 -10    2.63    3.35
 -10  -9  -8    3.99    1.81
  -8   6  10   24.27    3.93
 -10  -7  -2   20.57    2.66
  -1 -16  -8    0.44    1.70
   5 -12 -12    2.01    2.83
 -11   6  -4    1.66    2.05
 -11  -2 -13    1.15    1.99
   2 -10 -17    2.73    1.10
  -9   3   8   19.97    3.56
 -10  -8  -4    2.58    1.72
 -10  -8  -4    2.70    1.60
  -9   5   8    1.82    2.50
  -8   7 -11    6.19    2.19
   8  -7  11    9.57    2.56
   5 -11 -13    2.46    1.72
   5 -11 -13    4.15    2.72
  -5 -13 -16   -0.39    2.90
   8  -9   8   -0.67    2.39
   4 -10 -15    0.36    1.24
   0   4 -15    2.33    1.53
   0 -16  -9    2.30    1.73
  11   5   3   11.00    2.22
  -1 -16  -9    7.34    2.10
   7  13   7   18.05    2.03
  -1 -16  -7    2.06    1.82
   0  -6 -19    1.01    1.83
   0 -16  -6    0.42    1.70
 -11  -6  -5   20.64    2.68
  11   6   5   22.47    2.66
 -11  -6  -5   23.50    3.29
  -9   3 -14    2.03    1.93
  -2 -13 -17   25.97    3.20
   0  -7 -19    5.89    1.93
   4   1 -14   -0.43    1.32
   1  -3 -18    6.99    2.20
 -10   1 -14    5.43    2.19
  -5 -14 -14   13.58    3.83
 -11  -4 -13    0.25    2.06
 -10   6  -9    2.62    1.78
   8 -11  -6    3.09    2.49
   8 -11  -6    4.69    1.93
  -7   7 -12    2.47    2.03
  -9   6 -11    5.29    2.03
   9  -6  11    7.19    2.49
   5  14   4   10.09    1.76
  10   5  -1   18.49    2.72
   6   6  -8   16.35    2.43
  -9  -9  -2   14.54    2.35
   1 -16  -6    9.47    2.01
 -10  -9  -7    0.16    1.72
   7  -9 -11    4.29    2.59
   7  -9 -11    8.28    2.44
   8  12   7    1.29    1.38
  -2 -12 -18    8.97    2.28
   6   7  -7   46.76    4.14
  -6 -13 -15   35.34    4.71
   0  -5 -19   -0.21    1.85
   3   1 -15   10.61    1.73
   5   1 -13   47.10    3.70
  -1 -16 -10    3.63    1.88
 -11  -1 -13   -1.32    1.89
  -4   4 -16    0.46    1.66
  -2 -15 -14   26.25    3.26
  -9   2   8    2.19    2.54
  -3  15   1   -0.34    2.01
   0 -16 -10   -0.38    1.54
  -3   4 -16    2.35    1.75
  -1 -15 -14    1.28    1.73
  -9 -11 -10    2.96    1.69
  -5 -10 -19   -0.31    2.43
   4 -14 -11    4.28    2.52
   9  11   9   10.55    1.76
   8  -7 -10    5.08    2.16
  -1 -13 -17    1.39    1.72
   8  -2 -10   -0.84    1.55
  -9  -8   0   12.06    2.20
   8 -10  -8    6.07    2.95
   8 -10  -8    3.27    1.99
  -2 -14 -16   -2.10    1.96
   5 -13 -11    5.74    2.64
 -11  -7  -8    5.99    2.54
  10   6   0    3.86    1.95
   3  -1  18   10.66    3.01
   8  -9  -9    4.83    2.50
   6   8  -6   15.28    2.48
  -1 -10 -19    0.80    1.81
   8 -12  -2    5.93    1.66
  -9 -11 -11    1.32    1.55
   7  13   6    3.55    1.46
   1   2 -16   52.81    4.05
   9  11   8   39.65    3.31
   8 -12  -1    1.59    1.33
  -5  -6 -20    9.07    2.29
   7  -7 -12    4.29    2.31
   7 -12  -8    4.62    3.09
   5 -10 -14    3.12    1.54
   8  -8  10    2.29    2.26
   3   1  19    1.91    2.58
 -10  -9  -6   -0.48    1.82
   7   0 -11    2.38    1.38
   9  -7  10    1.84    2.39
 -11  -7  -7    5.40    2.37
  -1   2 -17    1.65    1.50
   8 -12  -3    0.24    1.55
  11   6   4   17.57    2.49
   4  15   5    7.40    1.60
  -1 -12 -18    3.63    1.93
  -5  -7 -20    9.48    2.38
  -1 -14 -16   -1.02    1.76
   3  15   3   -0.95    1.54
   8   6  -5    2.41    1.91
  -6 -12 -17    7.09    3.08
  -6 -11 -18   10.89    3.00
  10  -4  12   -1.18    2.66
   6 -10   9   -0.62    2.19
   3 -13   5    0.31    2.76
   5 -11   8    0.78    2.08
   0   3 -16    5.37    1.62
 -10  -8  -3   31.23    3.19
 -10   3 -13    1.48    1.89
 -10   9   1   -0.35    1.82
  11   5   2    1.13    1.86
   9   6  -3    3.49    1.92
   6  14   6   28.04    2.59
   8 -12  -4    1.53    2.25
   8 -12  -4    0.76    1.58
   8   7  -4   18.05    2.60
   2 -14   3    5.03    2.92
   8 -11  -7    4.95    2.67
   8 -11  -7    3.54    1.98
  -5 -14 -15   11.09    3.80
 -11  -7  -6   34.74    4.11
 -11  -7  -6   36.50    3.57
  -4   3 -17   -1.66    1.73
  -5  -8 -20   26.71    3.16
 -10  -7  -1    9.64    2.71
   1 -14   3   17.46    3.68
   8  -8 -10    5.03    2.28
  -3   3 -17   -0.44    1.67
   6 -11 -12    0.18    2.04
   7  -8 -12   14.77    3.25
   7 -11 -10    6.23    2.61
   7 -11 -10    6.00    2.29
   7 -11 -10    1.10    3.26
   6 -12 -11    2.01    2.40
 -10   9   2   -1.43    1.98
 -10  -9  -5    5.96    2.06
  -1 -16 -12    1.92    1.74
   9   7  -2   24.13    2.98
   7  -9  10    3.33    2.49
  -6 -10 -19   10.03    2.75
   7   7  -6   41.51    3.83
   8 -12  -5    0.32    2.23
  11   6   3    6.14    1.91
  -1  16   3   14.22    2.27
   5 -12 -13    6.80    3.12
 -11  -7  -5   27.92    3.87
   0  16   3    2.26    1.73
  -2   3 -17   20.20    2.48
   5 -13 -12    2.47    2.45
   3 -10 -17   -1.02    1.11
   5   8  -8    3.49    2.03
   8  -9 -10    8.46    2.66
   0   0   0    0.00    0.00

_computing_structure_solution     'SHELXT 2014/5 (Sheldrick, 2014)'
;
_shelx_hkl_checksum              77296
loop_
_space_group_symop_id
_space_group_symop_operation_xyz
1 +X,+Y,+Z
2 -X,-Y,-Z
loop_
_atom_site_label
_atom_site_type_symbol
_atom_site_fract_x
_atom_site_fract_y
_atom_site_fract_z
_atom_site_U_iso_or_equiv
_atom_site_adp_type
_atom_site_occupancy
_atom_site_site_symmetry_order
_atom_site_calc_flag
_atom_site_refinement_flags_posn
_atom_site_refinement_flags_adp
Zn41 Zn 0.14221(5) 0.46054(4) 0.44481(3) 0.02664(19) Uani 1 1 d . .
O1 O 0.2023(4) 0.6041(3) 0.4745(2) 0.0360(7) Uani 1 1 d . .
O2 O -0.1176(4) 0.6483(3) 0.4082(2) 0.0404(7) Uani 1 1 d . .
O4 O 0.0889(4) 0.5827(3) 0.3238(2) 0.0421(8) Uani 1 1 d . .
O5 O -0.0043(5) 0.6684(4) 0.5585(3) 0.0599(12) Uani 1 1 d . .
O6 O 0.6047(5) 1.1208(5) 0.1744(4) 0.0681(12) Uani 1 1 d . .
N3 N 0.3720(6) 1.0154(5) 0.2161(5) 0.0655(14) Uani 1 1 d . .
N12 N 0.3612(4) 0.4381(3) 0.3714(3) 0.0334(8) Uani 1 1 d . .
C7 C -0.0138(5) 0.6533(4) 0.3282(3) 0.0315(9) Uani 1 1 d . .
C8 C 0.2463(6) 0.7699(5) 0.5125(4) 0.0429(11) Uani 1 1 d . U
C9 C -0.0144(5) 0.7521(4) 0.2303(3) 0.0322(9) Uani 1 1 d . .
C10 C 0.1394(6) 0.6729(4) 0.5154(3) 0.0383(10) Uani 1 1 d . .
C11 C -0.0041(5) 0.9471(4) 0.0482(3) 0.0346(9) Uani 1 1 d . .
C13 C 0.5039(6) 0.8683(4) 0.4642(4) 0.0443(11) Uani 1 1 d . U
H13 H 0.6132 0.8723 0.4332 0.053 Uiso 1 1 calc R U
C14 C 0.4046(6) 0.7783(4) 0.4687(4) 0.0439(11) Uani 1 1 d . U
H14 H 0.4473 0.7216 0.4411 0.053 Uiso 1 1 calc R U
C15 C 1.3609(7) 0.3436(8) 0.0055(6) 0.075(2) Uani 1 1 d . .
H15 H 1.4628 0.3314 -0.0286 0.090 Uiso 1 1 calc R U
C16 C 0.0982(6) 0.8606(5) 0.0487(3) 0.0428(11) Uani 1 1 d . .
H16 H 0.1730 0.8668 -0.0135 0.051 Uiso 1 1 calc R U
C17 C 0.4469(6) 0.9511(5) 0.5034(4) 0.0505(12) Uani 1 1 d . U
C18 C 0.3931(6) 0.3605(5) 0.3276(4) 0.0479(12) Uani 1 1 d . .
H18 H 0.3096 0.3094 0.3327 0.057 Uiso 1 1 calc R U
C19 C 0.4825(6) 0.5073(5) 0.3655(5) 0.0551(15) Uani 1 1 d . .
H19 H 0.4619 0.5626 0.3976 0.066 Uiso 1 1 calc R U
C20 C -0.1205(7) 0.8356(6) 0.2288(4) 0.0649(18) Uani 1 1 d . .
H20 H -0.1990 0.8269 0.2904 0.078 Uiso 1 1 calc R U
C21 C 0.6335(7) 0.5005(7) 0.3153(8) 0.090(3) Uani 1 1 d . .
H21 H 0.7150 0.5504 0.3138 0.108 Uiso 1 1 calc R U
C22 C -0.1151(8) 0.9317(6) 0.1393(4) 0.0666(19) Uani 1 1 d . .
H22 H -0.1894 0.9881 0.1409 0.080 Uiso 1 1 calc R U
C23 C 1.1872(9) 0.4062(6) 0.1289(5) 0.0683(19) Uani 1 1 d . .
H23 H 1.1726 0.4400 0.1782 0.082 Uiso 1 1 calc R U
C24 C 1.0587(7) 0.3728(6) 0.1096(4) 0.0599(17) Uani 1 1 d D .
C25 C 0.6696(7) 0.4227(7) 0.2667(6) 0.085(3) Uani 1 1 d D .
C26 C 1.3372(8) 0.3915(7) 0.0781(6) 0.0714(18) Uani 1 1 d . .
H26 H 1.4237 0.4144 0.0933 0.086 Uiso 1 1 calc R U
C28 C 1.0863(7) 0.3288(7) 0.0348(4) 0.0656(18) Uani 1 1 d . .
H28 H 1.0002 0.3080 0.0183 0.079 Uiso 1 1 calc R U
C29 C 0.5446(9) 0.3510(7) 0.2744(5) 0.072(2) Uani 1 1 d . .
H29 H 0.5625 0.2950 0.2431 0.086 Uiso 1 1 calc R U
C30 C 0.8724(12) 0.3708(6) 0.1648(6) 0.096(3) Uani 1 1 d D .
H30 H 0.7922 0.3305 0.1558 0.115 Uiso 1 1 calc R U
C31 C 1.2325(8) 0.3137(7) -0.0164(5) 0.0683(18) Uani 1 1 d . .
H31 H 1.2465 0.2827 -0.0674 0.082 Uiso 1 1 calc R U
C32 C 0.1925(9) 0.8412(7) 0.5617(6) 0.0825(19) Uani 1 1 d . U
H32 H 0.0852 0.8306 0.6005 0.099 Uiso 1 1 calc R U
C33 C 0.4726(10) 1.0893(7) 0.2261(7) 0.079(2) Uani 1 1 d . .
H33 H 0.4336 1.1178 0.2787 0.095 Uiso 1 1 calc R U
C34 C 0.4116(12) 0.9708(9) 0.1441(8) 0.096(3) Uani 1 1 d . .
H34A H 0.5004 1.0254 0.0874 0.115 Uiso 1 1 calc R U
H34B H 0.3228 0.9756 0.1175 0.115 Uiso 1 1 calc R U
C35 C 0.8499(13) 0.4243(7) 0.2161(8) 0.123(5) Uani 1 1 d D .
H35 H 0.9294 0.4639 0.2263 0.148 Uiso 1 1 calc R U
C36 C 0.4547(11) 0.8485(8) 0.1692(9) 0.100(3) Uani 1 1 d . .
H36A H 0.4349 0.8168 0.1222 0.120 Uiso 1 1 calc R U
H36B H 0.3923 0.7972 0.2392 0.120 Uiso 1 1 calc R U
H36C H 0.5657 0.8491 0.1631 0.120 Uiso 1 1 calc R U
C37 C 0.2938(9) 0.9316(8) 0.5564(7) 0.0868(19) Uani 1 1 d . U
H37 H 0.2524 0.9814 0.5919 0.104 Uiso 1 1 calc R U
C38 C 0.2084(12) 0.9805(8) 0.2907(8) 0.104(3) Uani 1 1 d . .
H38A H 0.1741 0.8964 0.3048 0.125 Uiso 1 1 calc R U
H38B H 0.2100 0.9829 0.3557 0.125 Uiso 1 1 calc R U
C40 C 0.1007(10) 1.0540(9) 0.2570(10) 0.120(4) Uani 1 1 d . .
H40A H 0.1113 1.0637 0.1873 0.145 Uiso 1 1 calc R U
H40B H 0.1196 1.1331 0.2579 0.145 Uiso 1 1 calc R U
H40C H -0.0049 1.0173 0.3018 0.145 Uiso 1 1 calc R U
C42 C 0.0936(6) 0.7648(5) 0.1388(3) 0.0416(10) Uani 1 1 d . .
H42 H 0.1661 0.7072 0.1372 0.050 Uiso 1 1 calc R U
loop_
_atom_site_aniso_label
_atom_site_aniso_U_11
_atom_site_aniso_U_22
_atom_site_aniso_U_33
_atom_site_aniso_U_23
_atom_site_aniso_U_13
_atom_site_aniso_U_12
Zn41 0.0281(3) 0.0300(3) 0.0184(2) -0.00838(19) -0.00326(17) -0.01608(18)
O1 0.0453(18) 0.0271(14) 0.0366(16) -0.0096(13) -0.0174(14) -0.0148(12)
O2 0.0505(19) 0.0299(15) 0.0218(14) -0.0009(12) 0.0028(13) -0.0064(13)
O4 0.0349(17) 0.065(2) 0.0237(14) -0.0116(14) -0.0128(12) 0.0036(15)
O5 0.049(2) 0.072(3) 0.061(2) -0.046(2) 0.0066(17) -0.0395(19)
O6 0.039(2) 0.092(3) 0.084(3) -0.047(3) -0.019(2) 0.003(2)
N3 0.054(3) 0.054(3) 0.085(4) -0.023(3) -0.022(3) 0.005(2)
N12 0.0292(17) 0.0341(18) 0.0270(17) -0.0021(14) -0.0080(14) -0.0087(14)
C7 0.034(2) 0.035(2) 0.0221(18) -0.0082(16) -0.0058(15) -0.0164(17)
C8 0.046(2) 0.046(2) 0.038(2) -0.0221(18) -0.0064(17) -0.0236(18)
C9 0.029(2) 0.037(2) 0.0248(19) -0.0085(17) -0.0046(15) -0.0111(16)
C10 0.047(3) 0.040(2) 0.0232(19) -0.0087(17) -0.0082(17) -0.0246(19)
C11 0.030(2) 0.041(2) 0.0218(19) -0.0050(18) -0.0015(15) -0.0114(17)
C13 0.041(2) 0.037(2) 0.051(2) -0.0145(18) -0.0138(19) -0.0131(17)
C14 0.045(2) 0.033(2) 0.055(2) -0.0162(18) -0.0176(19) -0.0120(17)
C15 0.039(3) 0.125(6) 0.078(5) -0.068(5) -0.005(3) 0.008(3)
C16 0.049(3) 0.048(3) 0.0201(19) -0.0080(19) -0.0024(18) -0.002(2)
C17 0.051(2) 0.058(2) 0.045(2) -0.034(2) 0.0002(19) -0.029(2)
C18 0.044(3) 0.060(3) 0.040(3) -0.024(2) -0.008(2) 0.004(2)
C19 0.029(2) 0.045(3) 0.079(4) -0.011(3) -0.018(3) -0.011(2)
C20 0.062(4) 0.062(4) 0.027(2) 0.006(2) 0.015(2) 0.011(3)
C21 0.028(3) 0.055(4) 0.138(8) 0.001(4) -0.011(4) -0.004(3)
C22 0.066(4) 0.062(4) 0.030(3) 0.005(2) 0.011(2) 0.018(3)
C23 0.093(5) 0.052(3) 0.047(3) -0.023(3) -0.001(3) 0.021(3)
C24 0.055(3) 0.067(4) 0.040(3) -0.006(3) -0.012(3) 0.029(3)
C25 0.035(3) 0.072(5) 0.075(5) 0.031(4) 0.006(3) 0.006(3)
C26 0.061(4) 0.091(5) 0.070(4) -0.049(4) -0.010(3) -0.002(3)
C28 0.045(3) 0.099(5) 0.042(3) -0.016(3) -0.016(2) 0.021(3)
C29 0.076(5) 0.082(5) 0.045(3) -0.020(3) -0.009(3) 0.032(4)
C30 0.196(11) 0.040(3) 0.067(4) -0.006(3) -0.084(6) -0.008(4)
C31 0.054(4) 0.105(5) 0.061(4) -0.049(4) -0.017(3) 0.019(3)
C32 0.068(3) 0.089(3) 0.096(3) -0.067(3) 0.008(3) -0.031(3)
C33 0.089(6) 0.058(4) 0.105(6) -0.040(4) -0.041(5) 0.018(4)
C34 0.086(6) 0.107(7) 0.107(7) -0.067(6) -0.016(5) -0.001(5)
C35 0.215(13) 0.039(3) 0.159(10) -0.013(5) -0.151(10) -0.006(5)
C36 0.091(6) 0.090(6) 0.155(10) -0.068(6) -0.065(7) 0.032(5)
C37 0.076(3) 0.093(3) 0.101(3) -0.074(3) 0.006(3) -0.028(3)
C38 0.104(7) 0.072(5) 0.105(7) -0.037(5) 0.015(6) -0.009(5)
C40 0.057(5) 0.082(6) 0.187(12) -0.049(7) 0.005(6) 0.003(4)
C42 0.046(3) 0.045(3) 0.027(2) -0.0110(19) -0.0073(19) 0.002(2)
loop_
_atom_type_symbol
_atom_type_description
_atom_type_scat_dispersion_real
_atom_type_scat_dispersion_imag
_atom_type_scat_source
C C 0.0033 0.0016
;
International Tables for Crystallography
(Vol. C, Tables 4.2.6.8 and 6.1.1.4)
;
H H 0.0000 0.0000
;
International Tables for Crystallography
(Vol. C, Table 6.1.1.4)
;
N N 0.0061 0.0033
;
International Tables for Crystallography
(Vol. C, Tables 4.2.6.8 and 6.1.1.4)
;
O O 0.0106 0.0060
;
International Tables for Crystallography
(Vol. C, Tables 4.2.6.8 and 6.1.1.4)
;
Zn Zn 0.2839 1.4301
;
International Tables for Crystallography
(Vol. C, Tables 4.2.6.8 and 6.1.1.4)
;
loop_
_geom_angle_atom_site_label_1
_geom_angle_atom_site_label_2
_geom_angle_atom_site_label_3
_geom_angle
_geom_angle_site_symmetry_1
_geom_angle_site_symmetry_3
N12 Zn41 O2 101.81(14) . 2_566
N12 Zn41 O5 103.88(16) . 2_566
O2 Zn41 O5 88.14(16) 2_566 2_566
N12 Zn41 O4 99.19(14) . .
O2 Zn41 O4 158.94(14) 2_566 .
O5 Zn41 O4 88.39(18) 2_566 .
N12 Zn41 O1 97.20(14) . .
O2 Zn41 O1 88.16(13) 2_566 .
O5 Zn41 O1 158.91(16) 2_566 .
O4 Zn41 O1 87.65(14) . .
N12 Zn41 Zn41 166.98(11) . 2_566
O2 Zn41 Zn41 78.75(10) 2_566 2_566
O5 Zn41 Zn41 89.13(12) 2_566 2_566
O4 Zn41 Zn41 80.43(10) . 2_566
O1 Zn41 Zn41 69.78(10) . 2_566
C10 O1 Zn41 139.9(3) . .
C7 O2 Zn41 128.5(3) . 2_566
C7 O4 Zn41 125.8(3) . .
C10 O5 Zn41 115.4(3) . 2_566
C34 N3 C33 123.3(7) . .
C34 N3 C38 118.2(7) . .
C33 N3 C38 118.6(7) . .
C18 N12 C19 117.6(5) . .
C18 N12 Zn41 123.9(3) . .
C19 N12 Zn41 118.4(4) . .
O4 C7 O2 125.7(4) . .
O4 C7 C9 117.5(4) . .
O2 C7 C9 116.8(4) . .
C32 C8 C14 117.6(5) . .
C32 C8 C10 121.4(5) . .
C14 C8 C10 120.6(4) . .
C42 C9 C20 117.5(4) . .
C42 C9 C7 121.2(4) . .
C20 C9 C7 121.2(4) . .
O1 C10 O5 125.7(4) . .
O1 C10 C8 116.8(4) . .
O5 C10 C8 117.5(4) . .
C22 C11 C16 117.5(4) . .
C22 C11 C11 121.1(6) . 2_575
C16 C11 C11 121.4(5) . 2_575
C17 C13 C14 121.1(5) . .
C17 C13 H13 119.4 . .
C14 C13 H13 119.4 . .
C8 C14 C13 121.1(5) . .
C8 C14 H14 119.5 . .
C13 C14 H14 119.5 . .
C26 C15 C31 118.5(6) . .
C26 C15 H15 120.8 . .
C31 C15 H15 120.8 . .
C11 C16 C42 121.2(4) . .
C11 C16 H16 119.4 . .
C42 C16 H16 119.4 . .
C37 C17 C13 116.1(5) . .
C37 C17 C17 122.6(6) . 2_676
C13 C17 C17 121.0(6) . 2_676
N12 C18 C29 122.3(6) . .
N12 C18 H18 118.9 . .
C29 C18 H18 118.9 . .
N12 C19 C21 122.4(7) . .
N12 C19 H19 118.8 . .
C21 C19 H19 118.8 . .
C9 C20 C22 121.4(5) . .
C9 C20 H20 119.3 . .
C22 C20 H20 119.3 . .
C19 C21 C25 121.1(7) . .
C19 C21 H21 119.4 . .
C25 C21 H21 119.4 . .
C11 C22 C20 121.2(5) . .
C11 C22 H22 119.4 . .
C20 C22 H22 119.4 . .
C24 C23 C26 121.6(6) . .
C24 C23 H23 119.2 . .
C26 C23 H23 119.2 . .
C28 C24 C23 117.0(6) . .
C28 C24 C30 112.2(6) . .
C23 C24 C30 130.7(6) . .
C21 C25 C29 116.0(6) . .
C21 C25 C35 113.9(8) . .
C29 C25 C35 130.0(9) . .
C15 C26 C23 120.0(7) . .
C15 C26 H26 120.0 . .
C23 C26 H26 120.0 . .
C31 C28 C24 122.5(7) . .
C31 C28 H28 118.7 . .
C24 C28 H28 118.7 . .
C25 C29 C18 120.5(7) . .
C25 C29 H29 119.7 . .
C18 C29 H29 119.7 . .
C35 C30 C24 111.9(9) . .
C35 C30 H30 124.1 . .
C24 C30 H30 124.1 . .
C28 C31 C15 120.3(6) . .
C28 C31 H31 119.9 . .
C15 C31 H31 119.9 . .
C8 C32 C37 120.2(7) . .
C8 C32 H32 119.9 . .
C37 C32 H32 119.9 . .
O6 C33 N3 125.3(8) . .
O6 C33 H33 117.4 . .
N3 C33 H33 117.4 . .
N3 C34 C36 119.8(9) . .
N3 C34 H34A 107.4 . .
C36 C34 H34A 107.4 . .
N3 C34 H34B 107.4 . .
C36 C34 H34B 107.4 . .
H34A C34 H34B 106.9 . .
C30 C35 C25 110.8(9) . .
C30 C35 H35 124.6 . .
C25 C35 H35 124.6 . .
C34 C36 H36A 109.5 . .
C34 C36 H36B 109.5 . .
H36A C36 H36B 109.5 . .
C34 C36 H36C 109.5 . .
H36A C36 H36C 109.5 . .
H36B C36 H36C 109.5 . .
C17 C37 C32 123.0(6) . .
C17 C37 H37 118.5 . .
C32 C37 H37 118.5 . .
C40 C38 N3 113.8(8) . .
C40 C38 H38A 108.8 . .
N3 C38 H38A 108.8 . .
C40 C38 H38B 108.8 . .
N3 C38 H38B 108.8 . .
H38A C38 H38B 107.7 . .
C38 C40 H40A 109.5 . .
C38 C40 H40B 109.5 . .
H40A C40 H40B 109.5 . .
C38 C40 H40C 109.5 . .
H40A C40 H40C 109.5 . .
H40B C40 H40C 109.5 . .
C9 C42 C16 121.1(5) . .
C9 C42 H42 119.5 . .
C16 C42 H42 119.5 . .
loop_
_geom_bond_atom_site_label_1
_geom_bond_atom_site_label_2
_geom_bond_distance
_geom_bond_site_symmetry_2
Zn41 N12 2.026(4) .
Zn41 O2 2.031(3) 2_566
Zn41 O5 2.037(3) 2_566
Zn41 O4 2.037(3) .
Zn41 O1 2.068(3) .
Zn41 Zn41 2.9711(9) 2_566
O1 C10 1.247(6) .
O2 C7 1.262(5) .
O2 Zn41 2.031(3) 2_566
O4 C7 1.254(6) .
O5 C10 1.256(6) .
O5 Zn41 2.037(3) 2_566
O6 C33 1.184(10) .
N3 C34 1.339(10) .
N3 C33 1.364(9) .
N3 C38 1.510(11) .
N12 C18 1.321(7) .
N12 C19 1.351(6) .
C7 C9 1.496(6) .
C8 C32 1.336(8) .
C8 C14 1.370(7) .
C8 C10 1.512(5) .
C9 C42 1.377(6) .
C9 C20 1.378(8) .
C11 C22 1.377(6) .
C11 C16 1.382(7) .
C11 C11 1.500(8) 2_575
C13 C17 1.366(7) .
C13 C14 1.390(6) .
C13 H13 0.9500 .
C14 H14 0.9500 .
C15 C26 1.381(9) .
C15 C31 1.386(9) .
C15 H15 0.9500 .
C16 C42 1.390(7) .
C16 H16 0.9500 .
C17 C37 1.345(9) .
C17 C17 1.489(8) 2_676
C18 C29 1.390(9) .
C18 H18 0.9500 .
C19 C21 1.364(9) .
C19 H19 0.9500 .
C20 C22 1.385(7) .
C20 H20 0.9500 .
C21 C25 1.376(14) .
C21 H21 0.9500 .
C22 H22 0.9500 .
C23 C24 1.380(11) .
C23 C26 1.387(10) .
C23 H23 0.9500 .
C24 C28 1.374(10) .
C24 C30 1.633(11) .
C25 C29 1.386(12) .
C25 C35 1.574(12) .
C26 H26 0.9500 .
C28 C31 1.363(9) .
C28 H28 0.9500 .
C29 H29 0.9500 .
C30 C35 1.156(12) .
C30 H30 0.9500 .
C31 H31 0.9500 .
C32 C37 1.401(9) .
C32 H32 0.9500 .
C33 H33 0.9500 .
C34 C36 1.456(13) .
C34 H34A 0.9900 .
C34 H34B 0.9900 .
C35 H35 0.9500 .
C36 H36A 0.9800 .
C36 H36B 0.9800 .
C36 H36C 0.9800 .
C37 H37 0.9500 .
C38 C40 1.383(14) .
C38 H38A 0.9900 .
C38 H38B 0.9900 .
C40 H40A 0.9800 .
C40 H40B 0.9800 .
C40 H40C 0.9800 .
C42 H42 0.9500 .
loop_
_geom_torsion_atom_site_label_1
_geom_torsion_atom_site_label_2
_geom_torsion_atom_site_label_3
_geom_torsion_atom_site_label_4
_geom_torsion
_geom_torsion_site_symmetry_1
_geom_torsion_site_symmetry_4
Zn41 O4 C7 O2 -11.9(6) . .
Zn41 O4 C7 C9 168.4(3) . .
Zn41 O2 C7 O4 6.9(6) 2_566 .
Zn41 O2 C7 C9 -173.4(3) 2_566 .
O4 C7 C9 C42 0.1(6) . .
O2 C7 C9 C42 -179.6(4) . .
O4 C7 C9 C20 -178.2(5) . .
O2 C7 C9 C20 2.1(7) . .
Zn41 O1 C10 O5 1.7(8) . .
Zn41 O1 C10 C8 -178.2(3) . .
Zn41 O5 C10 O1 -2.0(7) 2_566 .
Zn41 O5 C10 C8 177.9(3) 2_566 .
C32 C8 C10 O1 -174.0(6) . .
C14 C8 C10 O1 -1.5(7) . .
C32 C8 C10 O5 6.0(9) . .
C14 C8 C10 O5 178.5(5) . .
C32 C8 C14 C13 -8.2(9) . .
C10 C8 C14 C13 179.0(5) . .
C17 C13 C14 C8 0.2(8) . .
C22 C11 C16 C42 -2.9(8) . .
C11 C11 C16 C42 177.8(5) 2_575 .
C14 C13 C17 C37 7.5(10) . .
C14 C13 C17 C17 -178.7(6) . 2_676
C19 N12 C18 C29 -1.9(8) . .
Zn41 N12 C18 C29 177.4(4) . .
C18 N12 C19 C21 1.1(9) . .
Zn41 N12 C19 C21 -178.2(5) . .
C42 C9 C20 C22 -2.6(10) . .
C7 C9 C20 C22 175.7(6) . .
N12 C19 C21 C25 0.6(11) . .
C16 C11 C22 C20 2.3(10) . .
C11 C11 C22 C20 -178.5(7) 2_575 .
C9 C20 C22 C11 0.5(12) . .
C26 C23 C24 C28 -2.5(10) . .
C26 C23 C24 C30 174.4(6) . .
C19 C21 C25 C29 -1.5(11) . .
C19 C21 C25 C35 -178.1(7) . .
C31 C15 C26 C23 1.5(13) . .
C24 C23 C26 C15 0.6(11) . .
C23 C24 C28 C31 2.3(10) . .
C30 C24 C28 C31 -175.2(6) . .
C21 C25 C29 C18 0.7(10) . .
C35 C25 C29 C18 176.6(6) . .
N12 C18 C29 C25 1.0(9) . .
C28 C24 C30 C35 -168.9(7) . .
C23 C24 C30 C35 14.0(10) . .
C24 C28 C31 C15 -0.3(12) . .
C26 C15 C31 C28 -1.7(13) . .
C14 C8 C32 C37 8.2(12) . .
C10 C8 C32 C37 -179.0(7) . .
C34 N3 C33 O6 -1.1(13) . .
C38 N3 C33 O6 178.0(8) . .
C33 N3 C34 C36 98.9(10) . .
C38 N3 C34 C36 -80.2(11) . .
C24 C30 C35 C25 179.0(5) . .
C21 C25 C35 C30 -169.9(7) . .
C29 C25 C35 C30 14.1(11) . .
C13 C17 C37 C32 -7.6(13) . .
C17 C17 C37 C32 178.8(9) 2_676 .
C8 C32 C37 C17 -0.3(15) . .
C34 N3 C38 C40 -86.8(11) . .
C33 N3 C38 C40 94.1(11) . .
C20 C9 C42 C16 2.0(8) . .
C7 C9 C42 C16 -176.4(4) . .
C11 C16 C42 C9 0.8(8) . .
