#------------------------------------------------------------------------------
#$Date: 2019-11-03 10:51:38 +0200 (Sun, 03 Nov 2019) $
#$Revision: 221192 $
#$URL: file:///home/coder/svn-repositories/cod/cif/4/12/80/4128061.cif $
#------------------------------------------------------------------------------
#
# This file is available in the Crystallography Open Database (COD),
# http://www.crystallography.net/
#
# All data on this site have been placed in the public domain by the
# contributors.
#
data_4128061
loop_
_publ_author_name
'Castillo-Blas, Celia'
'L\'opez-Salas, Nieves'
'Guti\'errez, Mar\'ia C'
'Puente-Orench, In\'es'
'Guti\'errez-Puebla, Enrique'
'Ferrer, M. Luisa'
'Monge, M \'Angeles'
'G\'andara, Felipe'
_publ_section_title
;
 Encoding Metal-Cation Arrangements in Metal-Organic Frameworks for
 Programming the Composition of Electrocatalytically Active Multimetal
 Oxides.
;
_journal_issue                   4
_journal_name_full               'Journal of the American Chemical Society'
_journal_page_first              1766
_journal_page_last               1774
_journal_paper_doi               10.1021/jacs.8b12860
_journal_volume                  141
_journal_year                    2019
_chemical_formula_moiety         'C17 H8 Co0.41 F6 Mn0.41 O4 Zn0.18, 0.25(O)'
_chemical_formula_sum            'C17 H0.08 Co0.48 F6 Mn0.35 O4 Zn0.17'
_chemical_formula_weight         440.83
_space_group_crystal_system      hexagonal
_space_group_IT_number           179
_space_group_name_Hall           'P 65 2 (0 0 1)'
_space_group_name_H-M_alt        'P 65 2 2'
_symmetry_space_group_name_Hall  'P 65 2 (0 0 1)'
_symmetry_space_group_name_H-M   'P 65 2 2'
_atom_sites_solution_hydrogens   geom
_atom_sites_solution_primary     dual
_audit_creation_date             2018-05-16
_audit_creation_method
;
Olex2 1.2
(compiled 2018.04.26 svn.r3504 for OlexSys, GUI svn.r5492)
;
_cell_angle_alpha                90
_cell_angle_beta                 90
_cell_angle_gamma                120
_cell_formula_units_Z            12
_cell_length_a                   21.2639(12)
_cell_length_b                   21.2639(12)
_cell_length_c                   15.1083(12)
_cell_measurement_reflns_used    4472
_cell_measurement_temperature    250
_cell_measurement_theta_max      60.76
_cell_measurement_theta_min      2.40
_cell_volume                     5916.1(7)
_computing_molecular_graphics    'Olex2 (Dolomanov et al., 2009)'
_computing_publication_material  'Olex2 (Dolomanov et al., 2009)'
_computing_structure_refinement  'XL (Sheldrick, 2008)'
_computing_structure_solution    'XT (Sheldrick, 2015)'
_diffrn_ambient_temperature      250
_diffrn_measured_fraction_theta_full 0.995
_diffrn_measured_fraction_theta_max 0.995
_diffrn_measurement_device_type  'Vantec 500'
_diffrn_measurement_method       '\f and \w scans'
_diffrn_radiation_type           CuK\a
_diffrn_radiation_wavelength     1.54178
_diffrn_reflns_av_R_equivalents  0.1470
_diffrn_reflns_av_unetI/netI     0.0739
_diffrn_reflns_Laue_measured_fraction_full 0.995
_diffrn_reflns_Laue_measured_fraction_max 0.995
_diffrn_reflns_limit_h_max       25
_diffrn_reflns_limit_h_min       -25
_diffrn_reflns_limit_k_max       24
_diffrn_reflns_limit_k_min       -25
_diffrn_reflns_limit_l_max       17
_diffrn_reflns_limit_l_min       -17
_diffrn_reflns_number            34738
_diffrn_reflns_point_group_measured_fraction_full 0.996
_diffrn_reflns_point_group_measured_fraction_max 0.996
_diffrn_reflns_theta_full        65.585
_diffrn_reflns_theta_max         65.585
_diffrn_reflns_theta_min         2.399
_diffrn_standards_number         0
_exptl_absorpt_coefficient_mu    6.202
_exptl_absorpt_correction_type   none
_exptl_crystal_colour            blue
_exptl_crystal_colour_primary    blue
_exptl_crystal_density_diffrn    1.485
_exptl_crystal_description       needle
_exptl_crystal_F_000             2578
_exptl_crystal_size_max          0.08
_exptl_crystal_size_mid          0.02
_exptl_crystal_size_min          0.02
_refine_diff_density_max         0.707
_refine_diff_density_min         -0.538
_refine_diff_density_rms         0.128
_refine_ls_abs_structure_details
;
 Flack x determined using 915 quotients [(I+)-(I-)]/[(I+)+(I-)]
 (Parsons, Flack and Wagner, Acta Cryst. B69 (2013) 249-259).
;
_refine_ls_abs_structure_Flack   0.001(9)
_refine_ls_extinction_method     none
_refine_ls_goodness_of_fit_ref   1.053
_refine_ls_hydrogen_treatment    constr
_refine_ls_matrix_type           full
_refine_ls_number_parameters     266
_refine_ls_number_reflns         3406
_refine_ls_number_restraints     0
_refine_ls_restrained_S_all      1.053
_refine_ls_R_factor_all          0.0791
_refine_ls_R_factor_gt           0.0615
_refine_ls_shift/su_max          0.000
_refine_ls_shift/su_mean         0.000
_refine_ls_structure_factor_coef Fsqd
_refine_ls_weighting_details
'w=1/[\s^2^(Fo^2^)+(0.1000P)^2^] where P=(Fo^2^+2Fc^2^)/3'
_refine_ls_weighting_scheme      calc
_refine_ls_wR_factor_gt          0.1574
_refine_ls_wR_factor_ref         0.1661
_reflns_Friedel_coverage         0.700
_reflns_Friedel_fraction_full    0.996
_reflns_Friedel_fraction_max     0.996
_reflns_number_gt                2685
_reflns_number_total             3406
_reflns_threshold_expression     'I > 2\s(I)'
_iucr_refine_instructions_details
;

    144.res created by SHELXL-2014/7

TITL 144_a.res in P6(5)22
REM Old TITL 144 in P6522 #179
REM SHELXT solution in P6(5)22
REM R1 0.130, Rweak 0.029, Alpha 0.007, Orientation as input
REM Flack x = 0.137 ( 0.009 ) from Parsons' quotients
REM Formula found by SHELXT: C34 O6 F14 Mn Co
CELL 1.54178 21.2639 21.2639 15.1083 90 90 120
ZERR 12 0.0012 0.0012 0.0012 0 0 0
LATT -1
SYMM -Y,+X-Y,0.667+Z
SYMM +Y-X,-X,0.333+Z
SYMM -X,-Y,0.5+Z
SYMM +Y,-X+Y,0.167+Z
SYMM -Y+X,+X,0.833+Z
SYMM +Y,+X,0.667-Z
SYMM -Y+X,-Y,-Z
SYMM -X,-X+Y,0.333-Z
SYMM -Y,-X,0.167-Z
SYMM +Y-X,+Y,0.5-Z
SYMM +X,+X-Y,0.833-Z
SFAC C Co F Mn O Zn H
UNIT 204 5.76 72 4.26 48 1.98 1
EADP Mn02 Co02
 
L.S. 20
PLAN  10
SIZE 0.02 0.02 0.08
TEMP -23.15
list 4
fmap 2
acta
REM <olex2.extras>
REM <HklSrc "%.\\144.hkl">
REM </olex2.extras>
 
WGHT    0.100000
FVAR       0.22717   0.64047   0.82829
PART 1
CO01  2    0.284041    0.715959    0.083333    20.50000    0.02421    0.02421 =
         0.01616    0.00183    0.00183    0.01243
MN02  4    0.324125    0.648250    0.250000    30.50000    0.01783    0.01820 =
         0.01722    0.00000   -0.00189    0.00910
PART 0
O003  5   -0.256145    0.374434    0.520608    11.00000    0.02589    0.01979 =
         0.02323   -0.00399   -0.00133    0.00978
O004  5    0.230743    0.654756    0.276047    11.00000    0.02781    0.03926 =
         0.02545   -0.00116    0.00863    0.01751
F005  3   -0.094094    0.702930    0.314532    11.00000    0.04262    0.06707 =
         0.08430    0.02802    0.01013    0.03435
O006  5   -0.267225    0.424041    0.646094    11.00000    0.03623    0.02884 =
         0.02119    0.00243    0.00748    0.01383
F007  3    0.047356    0.738008    0.572198    11.00000    0.04753    0.07017 =
         0.05173   -0.02547   -0.00633    0.00911
F008  3   -0.015622    0.811551    0.355020    11.00000    0.06920    0.04209 =
         0.11498    0.03777    0.04909    0.03687
F009  3   -0.110522    0.747634    0.432868    11.00000    0.06085    0.07338 =
         0.11070    0.03209    0.04484    0.05234
F00A  3   -0.012019    0.794574    0.554748    11.00000    0.06845    0.04076 =
         0.10727   -0.02379    0.03903    0.01392
F00B  3    0.083363    0.825086    0.478271    11.00000    0.05673    0.03893 =
         0.09899   -0.01120    0.03960   -0.01082
O00C  5    0.204476    0.701388    0.156947    11.00000    0.03383    0.05720 =
         0.03229    0.00421    0.01013    0.02747
C00D  1   -0.186888    0.503362    0.537002    11.00000    0.01950    0.02407 =
         0.02745   -0.00590   -0.00326    0.01055
C00E  1   -0.241020    0.430197    0.570545    11.00000    0.01940    0.02697 =
         0.01460   -0.00086   -0.00434    0.00981
C00F  1    0.194514    0.678773    0.239190    11.00000    0.01985    0.02443 =
         0.03816   -0.00408    0.00376    0.01044
C00G  1   -0.165066    0.565050    0.588185    11.00000    0.03058    0.03148 =
         0.02531    0.00015    0.01424    0.01202
AFIX  43
H00G  7   -0.186295    0.561168    0.643967    11.00000   -1.20000
AFIX   0
C00H  1   -0.080134    0.639584    0.476426    11.00000    0.02227    0.02355 =
         0.03541   -0.00131    0.00850    0.00766
C00I  1    0.102488    0.718255    0.248168    11.00000    0.03514    0.04109 =
         0.03355    0.01354    0.01244    0.02413
AFIX  43
H00I  7    0.113704    0.735075    0.189558    11.00000   -1.20000
AFIX   0
C00J  1    0.136113    0.683663    0.287987    11.00000    0.01795    0.02727 =
         0.02949   -0.00124    0.00509    0.00840
C00K  1   -0.157352    0.510567    0.452834    11.00000    0.02636    0.02082 =
         0.02653   -0.00485    0.00146    0.00553
AFIX  43
H00K  7   -0.173241    0.469482    0.416498    11.00000   -1.20000
AFIX   0
C00L  1    0.067879    0.667016    0.420228    11.00000    0.03043    0.03682 =
         0.03725    0.01070    0.01747    0.01685
AFIX  43
H00L  7    0.055408    0.648573    0.478061    11.00000   -1.20000
AFIX   0
C00M  1   -0.104390    0.578391    0.422334    11.00000    0.02903    0.03140 =
         0.03109    0.00170    0.00958    0.01227
AFIX  43
H00M  7   -0.084885    0.583085    0.365280    11.00000   -1.20000
AFIX   0
C00N  1   -0.112320    0.632099    0.557559    11.00000    0.02919    0.03143 =
         0.04206   -0.01165    0.00531    0.00921
AFIX  43
H00N  7   -0.098152    0.673433    0.592902    11.00000   -1.20000
AFIX   0
C00O  1    0.052204    0.727469    0.296398    11.00000    0.03512    0.03705 =
         0.04587    0.01039    0.01604    0.02191
AFIX  43
H00O  7    0.030072    0.751427    0.269688    11.00000   -1.20000
AFIX   0
C00P  1    0.119216    0.658806    0.374133    11.00000    0.02435    0.03963 =
         0.04588    0.00721    0.00527    0.01765
AFIX  43
H00P  7    0.142720    0.636348    0.401187    11.00000   -1.20000
AFIX   0
C00Q  1    0.033562    0.702939    0.381590    11.00000    0.01787    0.02126 =
         0.04936    0.00384    0.01267    0.00661
C00R  1   -0.060577    0.743679    0.384353    11.00000    0.04244    0.03295 =
         0.09976    0.01957    0.03313    0.02494
C00S  1    0.024474    0.767953    0.512644    11.00000    0.02969    0.02983 =
         0.08477   -0.02270    0.02157   -0.01024
C00T  1   -0.020363    0.712942    0.437669    11.00000    0.02460    0.02701 =
         0.05554    0.00028    0.01898    0.01105
PART 2
ZN01  6    0.282317    0.717683    0.083333   -20.50000    0.01921    0.01921 =
         0.02240    0.00513    0.00513    0.01350
CO02  2    0.328408    0.656817    0.250000   -30.50000    0.01783    0.01820 =
         0.01722    0.00000   -0.00189    0.00910
 
PART 0
O1    5    0.018503    0.496314    0.140186    10.25000    0.15663
HKLF 4
 
REM  144_a.res in P6(5)22
REM R1 =  0.0615 for    2685 Fo > 4sig(Fo)  and  0.0791 for all    3406 data
REM    266 parameters refined using      0 restraints
 
END  
     
WGHT      0.1089      0.0000 

REM Highest difference peak  0.707,  deepest hole -0.538,  1-sigma level  0.128
Q1    1   0.0492  0.5523  0.0848  11.00000  0.05    0.71
Q2    1   0.0449  0.5089  0.1757  11.00000  0.05    0.64
Q3    1  -0.0677  0.4316  0.0926  11.00000  0.05    0.60
Q4    1   0.0000  0.4412  0.1667  10.50000  0.05    0.60
Q5    1   0.0035  1.0025  0.3541  11.00000  0.05    0.31
Q6    1  -0.0857  0.6404  0.6407  11.00000  0.05    0.30
Q7    1  -0.1479  0.4261  0.4167  10.50000  0.05    0.30
Q8    1  -0.0940  0.8186  0.4139  11.00000  0.05    0.29
Q9    1  -0.0427  0.9356  0.4135  11.00000  0.05    0.29
Q10   1  -0.2098  0.3604  0.5278  11.00000  0.05    0.28

  REM The information below was added by Olex2.
  REM
  REM R1 = 0.0615 for 2685 Fo > 4sig(Fo) and 0.0791 for all 34763 data
  REM n/a parameters refined using n/a restraints
  REM Highest difference peak 0.71, deepest hole -0.54
  REM Mean Shift 0, Max Shift 0.000.

  REM +++ Tabular Listing of Refinement Information +++
  REM R1_all = 0.0791
  REM R1_gt = 0.0615
  REM wR_ref = 0.1661
  REM GOOF = 1.053
  REM Shift_max = 0.000
  REM Shift_mean = 0
  REM Reflections_all = 34763
  REM Reflections_gt = 2685
  REM Parameters = n/a
  REM Hole = -0.54
  REM Peak = 0.71
  REM Flack = 0.001(9)

  
;
_cod_data_source_file            Zn0.23Mn0.44Co0.33(hfipbb).cif
_cod_data_source_block           144
_cod_original_cell_volume        5916.1(8)
_cod_database_code               4128061
_shelx_shelxl_version_number     2014/7
_shelx_space_group_comment
;
The symmetry employed for this shelxl refinement is uniquely defined
by the following loop, which should always be used as a source of
symmetry information in preference to the above space-group names.
They are only intended as comments.
;
_shelx_estimated_absorpt_t_max   0.886
_shelx_estimated_absorpt_t_min   0.637
_olex2_refinement_description
;
1. Fixed Uiso
 At 1.2 times of:
  All C(H) groups
2. Uiso/Uaniso restraints and constraints
Uanis(Mn02) = Uanis(Co02)
3. Others
 Sof(Zn01)=0.5*(1-FVAR(2))
 Sof(Co01)=0.5*FVAR(2)
 Sof(Co02)=0.5*(1-FVAR(3))
 Sof(Mn02)=0.5*FVAR(3)
 Fixed Sof: O1(0.25)
4.a Aromatic/amide H refined with riding coordinates:
 C00G(H00G), C00I(H00I), C00K(H00K), C00L(H00L), C00M(H00M), C00N(H00N),
 C00O(H00O), C00P(H00P)
;
_olex2_submission_special_instructions 'No special instructions were received'
loop_
_space_group_symop_operation_xyz
'x, y, z'
'-y, x-y, z+2/3'
'-x+y, -x, z+1/3'
'-x, -y, z+1/2'
'y, -x+y, z+1/6'
'x-y, x, z+5/6'
'y, x, -z+2/3'
'x-y, -y, -z'
'-x, -x+y, -z+1/3'
'-y, -x, -z+1/6'
'-x+y, y, -z+1/2'
'x, x-y, -z+5/6'
loop_
_atom_site_label
_atom_site_type_symbol
_atom_site_fract_x
_atom_site_fract_y
_atom_site_fract_z
_atom_site_U_iso_or_equiv
_atom_site_adp_type
_atom_site_occupancy
_atom_site_site_symmetry_order
_atom_site_calc_flag
_atom_site_refinement_flags_posn
_atom_site_refinement_flags_adp
_atom_site_refinement_flags_occupancy
_atom_site_disorder_assembly
_atom_site_disorder_group
Co01 Co 0.2840(3) 0.7160(3) 0.0833 0.021(3) Uani 0.64(3) 2 d S T P A 1
Mn02 Mn 0.3241(5) 0.6483(9) 0.2500 0.0177(13) Uani 0.83(9) 2 d S T P B 1
O003 O -0.2561(3) 0.3744(3) 0.5206(4) 0.0237(12) Uani 1 1 d . . . . .
O004 O 0.2307(3) 0.6548(3) 0.2760(4) 0.0305(14) Uani 1 1 d . . . . .
F005 F -0.0941(3) 0.7029(4) 0.3145(6) 0.062(2) Uani 1 1 d . . . . .
O006 O -0.2672(3) 0.4240(3) 0.6461(4) 0.0298(14) Uani 1 1 d . . . . .
F007 F 0.0474(4) 0.7380(4) 0.5722(5) 0.066(2) Uani 1 1 d . . . . .
F008 F -0.0156(4) 0.8116(3) 0.3550(6) 0.071(2) Uani 1 1 d . . . . .
F009 F -0.1105(4) 0.7476(4) 0.4329(6) 0.073(2) Uani 1 1 d . . . . .
F00A F -0.0120(4) 0.7946(4) 0.5547(6) 0.078(3) Uani 1 1 d . . . . .
F00B F 0.0834(4) 0.8251(4) 0.4783(6) 0.080(3) Uani 1 1 d . . . . .
O00C O 0.2045(3) 0.7014(4) 0.1569(4) 0.0390(16) Uani 1 1 d . . . . .
C00D C -0.1869(4) 0.5034(4) 0.5370(6) 0.0238(18) Uani 1 1 d . . . . .
C00E C -0.2410(4) 0.4302(4) 0.5705(5) 0.0211(16) Uani 1 1 d . . . . .
C00F C 0.1945(4) 0.6788(4) 0.2392(6) 0.0278(19) Uani 1 1 d . . . . .
C00G C -0.1651(5) 0.5651(5) 0.5882(6) 0.0307(19) Uani 1 1 d . . . . .
H00G H -0.1863 0.5612 0.6440 0.037 Uiso 1 1 calc R . . . .
C00H C -0.0801(5) 0.6396(5) 0.4764(6) 0.0288(19) Uani 1 1 d . . . . .
C00I C 0.1025(5) 0.7183(5) 0.2482(7) 0.034(2) Uani 1 1 d . . . . .
H00I H 0.1137 0.7351 0.1896 0.041 Uiso 1 1 calc R . . . .
C00J C 0.1361(4) 0.6837(5) 0.2880(6) 0.0262(18) Uani 1 1 d . . . . .
C00K C -0.1574(4) 0.5106(4) 0.4528(6) 0.0274(19) Uani 1 1 d . . . . .
H00K H -0.1732 0.4695 0.4165 0.033 Uiso 1 1 calc R . . . .
C00L C 0.0679(5) 0.6670(5) 0.4202(7) 0.035(2) Uani 1 1 d . . . . .
H00L H 0.0554 0.6486 0.4781 0.042 Uiso 1 1 calc R . . . .
C00M C -0.1044(5) 0.5784(5) 0.4223(7) 0.032(2) Uani 1 1 d . . . . .
H00M H -0.0849 0.5831 0.3653 0.038 Uiso 1 1 calc R . . . .
C00N C -0.1123(5) 0.6321(5) 0.5576(7) 0.037(2) Uani 1 1 d . . . . .
H00N H -0.0982 0.6734 0.5929 0.044 Uiso 1 1 calc R . . . .
C00O C 0.0522(5) 0.7275(5) 0.2964(7) 0.038(2) Uani 1 1 d . . . . .
H00O H 0.0301 0.7514 0.2697 0.045 Uiso 1 1 calc R . . . .
C00P C 0.1192(5) 0.6588(5) 0.3741(7) 0.036(2) Uani 1 1 d . . . . .
H00P H 0.1427 0.6363 0.4012 0.043 Uiso 1 1 calc R . . . .
C00Q C 0.0336(4) 0.7029(4) 0.3816(7) 0.031(2) Uani 1 1 d . . . . .
C00R C -0.0606(6) 0.7437(6) 0.3844(10) 0.056(4) Uani 1 1 d . . . . .
C00S C 0.0245(6) 0.7680(6) 0.5126(10) 0.059(4) Uani 1 1 d . . . . .
C00T C -0.0204(5) 0.7129(5) 0.4377(7) 0.037(2) Uani 1 1 d . . . . .
Zn01 Zn 0.2823(4) 0.7177(4) 0.0833 0.019(5) Uani 0.36(3) 2 d S T P A 2
Co02 Co 0.328(2) 0.657(4) 0.2500 0.0177(13) Uani 0.17(9) 2 d S T P B 2
O1 O 0.019(4) 0.496(3) 0.140(5) 0.16(3) Uiso 0.25 1 d . . . . .
loop_
_atom_site_aniso_label
_atom_site_aniso_U_11
_atom_site_aniso_U_22
_atom_site_aniso_U_33
_atom_site_aniso_U_23
_atom_site_aniso_U_13
_atom_site_aniso_U_12
Co01 0.024(4) 0.024(4) 0.016(6) 0.002(3) 0.002(3) 0.012(4)
Mn02 0.0178(12) 0.018(4) 0.0172(9) 0.000 -0.0019(6) 0.0091(19)
O003 0.026(3) 0.020(3) 0.023(3) -0.004(2) -0.001(2) 0.010(2)
O004 0.028(3) 0.039(3) 0.025(4) -0.001(3) 0.009(2) 0.018(3)
F005 0.043(4) 0.067(4) 0.084(6) 0.028(4) 0.010(4) 0.034(3)
O006 0.036(3) 0.029(3) 0.021(3) 0.002(2) 0.007(3) 0.014(3)
F007 0.048(4) 0.070(5) 0.052(5) -0.025(4) -0.006(3) 0.009(3)
F008 0.069(5) 0.042(4) 0.115(7) 0.038(4) 0.049(5) 0.037(4)
F009 0.061(4) 0.073(5) 0.111(7) 0.032(4) 0.045(4) 0.052(4)
F00A 0.068(5) 0.041(3) 0.107(7) -0.024(4) 0.039(5) 0.014(3)
F00B 0.057(4) 0.039(4) 0.099(6) -0.011(4) 0.040(4) -0.011(3)
O00C 0.034(3) 0.057(4) 0.032(4) 0.004(3) 0.010(3) 0.027(3)
C00D 0.019(4) 0.024(4) 0.027(5) -0.006(3) -0.003(3) 0.011(3)
C00E 0.019(4) 0.027(4) 0.015(4) -0.001(3) -0.004(3) 0.010(3)
C00F 0.020(4) 0.024(4) 0.038(6) -0.004(4) 0.004(4) 0.010(3)
C00G 0.031(4) 0.031(4) 0.025(5) 0.000(4) 0.014(4) 0.012(4)
C00H 0.022(4) 0.024(4) 0.035(5) -0.001(4) 0.009(4) 0.008(4)
C00I 0.035(5) 0.041(5) 0.034(5) 0.014(5) 0.012(4) 0.024(4)
C00J 0.018(4) 0.027(4) 0.029(5) -0.001(4) 0.005(3) 0.008(3)
C00K 0.026(4) 0.021(4) 0.027(5) -0.005(3) 0.001(3) 0.006(3)
C00L 0.030(4) 0.037(5) 0.037(6) 0.011(4) 0.017(4) 0.017(4)
C00M 0.029(4) 0.031(5) 0.031(5) 0.002(4) 0.010(4) 0.012(4)
C00N 0.029(5) 0.031(5) 0.042(6) -0.012(4) 0.005(4) 0.009(4)
C00O 0.035(5) 0.037(5) 0.046(6) 0.010(4) 0.016(4) 0.022(4)
C00P 0.024(4) 0.040(5) 0.046(6) 0.007(4) 0.005(4) 0.018(4)
C00Q 0.018(4) 0.021(4) 0.049(6) 0.004(4) 0.013(4) 0.007(3)
C00R 0.042(6) 0.033(5) 0.100(11) 0.020(6) 0.033(6) 0.025(5)
C00S 0.030(6) 0.030(5) 0.085(10) -0.023(6) 0.022(6) -0.010(5)
C00T 0.025(4) 0.027(4) 0.056(7) 0.000(4) 0.019(4) 0.011(4)
Zn01 0.019(6) 0.019(6) 0.022(10) 0.005(4) 0.005(4) 0.014(5)
Co02 0.0178(12) 0.018(4) 0.0172(9) 0.000 -0.0019(6) 0.0091(19)
loop_
_atom_type_symbol
_atom_type_description
_atom_type_scat_dispersion_real
_atom_type_scat_dispersion_imag
_atom_type_scat_source
C C 0.0181 0.0091 'International Tables Vol C Tables 4.2.6.8 and 6.1.1.4'
Co Co -2.3653 3.6143 'International Tables Vol C Tables 4.2.6.8 and 6.1.1.4'
F F 0.0727 0.0534 'International Tables Vol C Tables 4.2.6.8 and 6.1.1.4'
Mn Mn -0.5299 2.8052 'International Tables Vol C Tables 4.2.6.8 and 6.1.1.4'
O O 0.0492 0.0322 'International Tables Vol C Tables 4.2.6.8 and 6.1.1.4'
Zn Zn -1.5491 0.6778 'International Tables Vol C Tables 4.2.6.8 and 6.1.1.4'
H H 0.0000 0.0000 'International Tables Vol C Tables 4.2.6.8 and 6.1.1.4'
loop_
_geom_angle_atom_site_label_1
_geom_angle_atom_site_label_2
_geom_angle_atom_site_label_3
_geom_angle
_geom_angle_site_symmetry_1
_geom_angle_site_symmetry_3
O003 Co01 O003 107.7(6) 4_564 7_565
O00C Co01 O003 115.0(3) . 7_565
O00C Co01 O003 108.3(3) . 4_564
O00C Co01 O003 108.3(3) 10_665 7_565
O00C Co01 O003 115.0(3) 10_665 4_564
O00C Co01 O00C 102.7(7) 10_665 .
O003 Mn02 O003 83.5(6) 7_565 6_664
O004 Mn02 O003 79.1(4) 11 7_565
O004 Mn02 O003 96.0(5) 11 6_664
O004 Mn02 O003 79.1(4) . 6_664
O004 Mn02 O003 96.0(5) . 7_565
O004 Mn02 O004 173.4(10) 11 .
O004 Mn02 O006 88.3(3) . 4_564
O004 Mn02 O006 88.3(3) 11 8_666
O004 Mn02 O006 95.8(4) 11 4_564
O004 Mn02 O006 95.8(4) . 8_666
O006 Mn02 O003 88.9(2) 8_666 6_664
O006 Mn02 O003 164.4(4) 8_666 7_565
O006 Mn02 O003 164.4(4) 4_564 6_664
O006 Mn02 O003 88.9(2) 4_564 7_565
O006 Mn02 O006 101.5(8) 8_666 4_564
Co01 O003 Mn02 96.2(3) 4_565 5_455
C00E O003 Co01 115.5(5) . 4_565
C00E O003 Mn02 124.2(5) . 5_455
C00E O003 Zn01 116.1(5) . 4_565
C00E O003 Co02 125.2(7) . 5_455
Zn01 O003 Co02 98.1(7) 4_565 5_455
C00F O004 Mn02 137.9(6) . .
C00F O004 Co02 135.8(12) . .
C00E O006 Mn02 145.3(7) . 4_565
C00E O006 Co02 142.2(15) . 4_565
C00F O00C Co01 125.3(6) . .
C00F O00C Zn01 126.5(6) . .
C00G C00D C00E 121.1(8) . .
C00G C00D C00K 119.1(8) . .
C00K C00D C00E 119.8(7) . .
O003 C00E C00D 117.7(7) . .
O006 C00E O003 122.7(7) . .
O006 C00E C00D 119.5(7) . .
O004 C00F O00C 123.6(8) . .
O004 C00F C00J 120.9(9) . .
O00C C00F C00J 115.5(8) . .
C00N C00G C00D 120.3(9) . .
C00M C00H C00T 116.8(8) . .
C00N C00H C00M 118.9(8) . .
C00N C00H C00T 124.3(8) . .
C00O C00I C00J 118.9(10) . .
C00I C00J C00F 119.2(8) . .
C00P C00J C00F 120.3(8) . .
C00P C00J C00I 120.3(8) . .
C00M C00K C00D 120.2(8) . .
C00P C00L C00Q 120.9(10) . .
C00K C00M C00H 120.1(9) . .
C00H C00N C00G 121.3(9) . .
C00Q C00O C00I 122.4(9) . .
C00L C00P C00J 119.9(9) . .
C00L C00Q C00T 118.1(9) . .
C00O C00Q C00L 117.5(8) . .
C00O C00Q C00T 124.3(9) . .
F005 C00R F008 107.5(11) . .
F005 C00R F009 107.2(10) . .
F005 C00R C00T 111.8(8) . .
F008 C00R C00T 112.3(9) . .
F009 C00R F008 106.0(8) . .
F009 C00R C00T 111.7(11) . .
F007 C00S F00A 108.2(12) . .
F007 C00S F00B 107.3(10) . .
F007 C00S C00T 111.4(9) . .
F00A C00S F00B 106.2(9) . .
F00A C00S C00T 113.4(10) . .
F00B C00S C00T 110.0(11) . .
C00H C00T C00S 111.4(9) . .
C00Q C00T C00H 111.4(7) . .
C00Q C00T C00R 112.7(9) . .
C00Q C00T C00S 106.7(8) . .
C00R C00T C00H 105.9(7) . .
C00R C00T C00S 108.8(9) . .
O003 Zn01 O003 104.7(7) 4_564 7_565
O00C Zn01 O003 115.1(3) 10_665 4_564
O00C Zn01 O003 115.1(3) . 7_565
O00C Zn01 O003 108.3(3) . 4_564
O00C Zn01 O003 108.3(3) 10_665 7_565
O00C Zn01 O00C 105.7(8) 10_665 .
O003 Co02 O003 89(3) 6_664 7_565
O004 Co02 O003 99.7(17) 11 6_664
O004 Co02 O003 99.7(17) . 7_565
O004 Co02 O003 81.8(13) 11 7_565
O004 Co02 O003 81.8(13) . 6_664
O004 Co02 O004 178(4) 11 .
O004 Co02 O006 85.7(14) . 4_564
O004 Co02 O006 92.9(15) . 8_666
O004 Co02 O006 92.9(15) 11 4_564
O004 Co02 O006 85.7(13) 11 8_666
O006 Co02 O003 166.9(7) 4_564 6_664
O006 Co02 O003 89.4(2) 4_564 7_565
O006 Co02 O003 166.9(7) 8_666 7_565
O006 Co02 O003 89.4(2) 8_666 6_664
O006 Co02 O006 95(3) 4_564 8_666
loop_
_geom_bond_atom_site_label_1
_geom_bond_atom_site_label_2
_geom_bond_distance
_geom_bond_site_symmetry_2
Co01 O003 1.950(9) 4_564
Co01 O003 1.950(9) 7_565
Co01 O00C 1.916(9) 10_665
Co01 O00C 1.916(9) .
Mn02 O003 2.360(14) 7_565
Mn02 O003 2.360(14) 6_664
Mn02 O004 2.096(6) 11
Mn02 O004 2.096(6) .
Mn02 O006 2.105(12) 4_564
Mn02 O006 2.105(12) 8_666
O003 Co01 1.950(9) 4_565
O003 Mn02 2.360(14) 5_455
O003 C00E 1.303(10) .
O003 Zn01 1.989(11) 4_565
O003 Co02 2.24(5) 5_455
O004 C00F 1.248(11) .
O004 Co02 2.093(6) .
F005 C00R 1.324(15) .
O006 Mn02 2.105(12) 4_565
O006 C00E 1.248(10) .
O006 Co02 2.21(5) 4_565
F007 C00S 1.327(16) .
F008 C00R 1.347(12) .
F009 C00R 1.327(12) .
F00A C00S 1.329(13) .
F00B C00S 1.339(12) .
O00C C00F 1.311(11) .
O00C Zn01 1.877(11) .
C00D C00E 1.487(11) .
C00D C00G 1.388(12) .
C00D C00K 1.392(12) .
C00F C00J 1.492(11) .
C00G C00N 1.380(13) .
C00H C00M 1.399(12) .
C00H C00N 1.374(13) .
C00H C00T 1.552(12) .
C00I C00J 1.393(13) .
C00I C00O 1.386(13) .
C00J C00P 1.383(14) .
C00K C00M 1.392(12) .
C00L C00P 1.378(13) .
C00L C00Q 1.419(14) .
C00O C00Q 1.371(14) .
C00Q C00T 1.524(12) .
C00R C00T 1.538(16) .
C00S C00T 1.564(15) .
Zn01 O003 1.989(11) 7_565
Zn01 O003 1.989(11) 4_564
Zn01 O00C 1.877(11) 10_665
Co02 O003 2.24(5) 6_664
Co02 O003 2.24(5) 7_565
Co02 O004 2.092(6) 11
Co02 O006 2.21(5) 4_564
Co02 O006 2.21(5) 8_666
O1 O1 1.05(13) 9
loop_
_refln_index_h
_refln_index_k
_refln_index_l
_refln_F_squared_meas
_refln_F_squared_sigma
1 -1 0 848.52 56.79
1 0 0 892.61 56.49
0 1 0 813.42 57.29
0 -1 0 958.7 57.19
-1 1 0 896.31 56.89
0 -1 0 1045.1 56.99
-1 2 0 1113.89 64.29
-2 1 0 890.21 62.99
-1 -1 0 1073.09 63.39
-1 -1 0 988.1 66.19
2 -1 0 1028.4 64.39
-2 1 0 1132.29 64.29
2 -1 0 879.31 61.89
1 1 0 1047.3 62.69
1 -2 0 1075.19 64.39
1 -2 0 982 64.99
2 -2 0 8551.54 535.85
-2 0 0 8223.48 537.75
2 0 0 9999 537.15
2 -3 0 2073.89 118.79
-2 -1 0 1785.52 119.69
-1 3 0 2158.68 117.39
-3 2 0 1889.61 117.09
-1 -2 0 1815.92 117.29
-1 -2 0 1720.53 119.99
1 2 0 2118.59 115.39
2 -3 0 1613.44 120.09
3 -2 0 1924.71 118.49
3 -2 0 1698.43 119.39
3 -1 0 1720.83 116.49
3 -1 0 1794.92 115.69
-3 1 0 2235.18 116.69
-2 3 0 1631.14 120.29
-2 3 0 1978.4 116.99
1 -3 0 1955.2 120.09
2 1 0 2194.58 116.49
2 1 0 1897.81 114.69
2 -3 0 1955.3 117.99
-1 3 0 1652.63 119.49
1 -3 0 1960.8 117.19
3 -1 0 1926.31 117.49
1 -3 0 1623.84 119.59
-3 3 0 3651.63 205.48
3 0 0 3596.64 202.78
0 3 0 2963.1 206.28
0 3 0 3018.1 205.38
-3 0 0 3690.03 204.88
3 -3 0 2832.92 205.08
3 0 0 3334.87 204.18
0 -3 0 3399.06 204.98
-4 2 0 119.79 16.3
2 2 0 70.19 22.7
-2 4 0 50.09 16.8
-2 4 0 99.29 19.7
2 2 0 59.99 12.9
-4 2 0 92.89 18.6
-4 2 0 78.19 10.5
4 -2 0 47.2 19.1
4 -2 0 87.89 9.7
-2 -2 0 57.99 13.2
-2 4 0 78.19 23
-2 -2 0 84.79 14.2
2 -4 0 37.2 15.3
2 2 0 67.99 14.2
-3 -1 0 94.19 14
1 3 0 86.89 20.3
-1 -3 0 104.09 16.1
-1 4 0 75.49 17
3 -4 0 53.89 14.7
3 1 0 65.89 22.3
-4 1 0 111.59 19.9
3 1 0 49.1 14.1
-3 4 0 98.29 20.4
-3 4 0 67.59 23
-3 4 0 94.79 13.9
4 -1 0 98.09 16.9
-1 4 0 95.79 26.5
-1 4 0 79.99 21.6
1 3 0 66.19 12.5
-4 1 0 63.39 15
4 -1 0 105.49 18.2
-4 3 0 101.89 19.2
1 3 0 111.39 25.5
-4 3 0 123.59 20.8
-1 -3 0 37.6 14.7
-4 4 0 2830.32 154.08
0 4 0 2181.28 161.48
0 4 0 2175.78 163.48
-4 4 0 2688.73 160.18
-4 0 0 2900.41 158.38
4 -4 0 2765.12 155.18
0 4 0 2647.04 158.08
-4 4 0 2224.88 160.78
4 0 0 2432.76 160.18
5 -2 0 25.1 8.2
3 2 0 23.8 22.3
-3 5 0 7.2 18.6
-5 2 0 40.2 10.6
-2 -3 0 -3 7.2
-3 -2 0 6.7 8.6
3 -5 0 -6.5 11.5
-3 5 0 3.5 22.6
-5 3 0 12.3 16.9
-5 3 0 38.6 13.8
-3 -2 0 17.8 12.4
2 3 0 23.7 25.6
-2 5 0 24.3 18.1
-2 5 0 5.2 21.6
-2 5 0 20.2 19.9
3 2 0 -1.9 8
2 3 0 10.8 15.6
-5 2 0 6.2 8.7
5 -2 0 -2 9.2
-2 -3 0 10.5 11.1
2 3 0 -1.8 6.7
3 2 0 15.9 10.7
-3 5 0 15.5 14.2
-5 2 0 23.3 18.7
4 1 0 2253.67 149.49
-4 5 0 2609.54 141.59
-1 5 0 2019.8 149.39
1 4 0 2140.89 146.99
-4 5 0 2416.76 146.09
-1 5 0 2135.79 149.69
-5 1 0 2450.25 138.89
-5 4 0 2222.58 145.59
-5 1 0 2614.64 145.59
-4 5 0 2180.18 149.39
-5 4 0 2284.07 145.59
-4 -1 0 2488.55 143.09
-1 5 0 2436.96 144.89
5 -1 0 2364.76 143.49
5 -1 0 2042.1 139.39
1 4 0 1993 150.58
-5 0 0 3568.04 201.78
-5 5 0 3340.37 203.98
5 0 0 3067.09 203.28
0 5 0 3132.79 208.88
0 5 0 3074.99 205.88
0 5 0 3392.46 201.68
-5 5 0 3184.88 205.18
-3 -3 0 1670.63 106.69
-6 3 0 1779.22 107.69
3 3 0 1633.94 118.29
-6 3 0 1756.62 111.89
-3 6 0 1600.14 117.99
-3 6 0 1638.74 111.69
3 3 0 1843.32 108.29
-3 6 0 1671.43 112.59
-2 6 0 770.62 66.39
-2 6 0 865.61 60.79
-4 6 0 829.52 61.39
-2 -4 0 842.42 55.29
4 2 0 840.82 50.39
-4 6 0 825.22 57.59
2 4 0 799.82 69.89
6 -2 0 840.52 53.79
2 4 0 812.72 60.29
-4 6 0 726.83 66.99
-2 6 0 805.32 68.29
-4 -2 0 815.62 55.59
-6 4 0 778.82 58.19
-6 2 0 841.72 52.79
4 2 0 761.82 69.39
-6 4 0 805.12 60.49
-6 2 0 830.42 61.09
-6 1 0 172.88 26.1
-5 6 0 173.48 18.4
-6 5 0 198.38 29
1 5 0 149.39 28.3
-1 6 0 164.28 32.5
6 -1 0 170.78 25.2
1 5 0 161.48 33
-1 6 0 153.08 31.3
5 1 0 136.99 27.6
-5 6 0 151.68 26.4
-5 6 0 148.69 30
-1 6 0 132.99 24.6
-5 -1 0 164.88 21.9
-6 5 0 157.98 26.2
6 0 0 522.75 47.4
-6 6 0 448.96 50.19
0 6 0 501.35 58.19
-6 0 0 520.15 41.3
0 6 0 523.25 43.4
-6 6 0 497.15 44.9
0 6 0 499.15 50.09
7 -3 0 148.39 14.5
-7 3 0 233.18 21.9
-4 -3 0 176.78 24.3
3 4 0 169.38 35.4
-3 7 0 199.58 31.3
-7 3 0 221.48 33
-3 7 0 196.78 37.3
-7 4 0 220.78 31.8
-3 7 0 155.78 27
3 4 0 175.38 30
-4 7 0 223.88 38.1
-4 7 0 184.68 30.1
4 3 0 225.68 20.4
-7 4 0 201.48 25.9
-3 -4 0 170.18 21.7
-4 7 0 189.68 30.7
4 3 0 145.39 33.1
-2 7 0 3.1 26.3
-5 7 0 13.9 18.5
2 5 0 25.3 27.4
7 -2 0 31.6 11.4
-7 5 0 33.7 21.1
-7 2 0 21.6 7.2
-5 7 0 26.4 26.1
-2 7 0 8.7 24.9
2 5 0 11.8 20.3
-7 5 0 32.2 18.1
-5 7 0 9.8 12.7
-7 2 0 24.9 23.6
-5 -2 0 22.7 15.8
5 2 0 -19.5 25
-2 7 0 21.8 21.3
-7 6 0 184.48 30.4
-6 7 0 165.78 29.4
-1 7 0 175.28 36.6
-7 6 0 156.28 27
-6 7 0 168.38 35.1
-7 1 0 188.88 28.4
-1 7 0 144.29 32.7
7 -1 0 145.29 26.5
1 6 0 203.18 34.5
1 6 0 189.58 36.6
1 6 0 222.98 28
-6 -1 0 206.68 27.7
-6 7 0 167.78 16.8
6 1 0 171.98 31.9
-7 6 0 129.29 23
-1 7 0 157.58 27.4
-7 0 0 370.86 35.5
0 7 0 329.97 50.79
7 0 0 286.07 39
-7 7 0 329.47 38.9
-7 0 0 338.47 36.9
0 7 0 294.67 35.8
0 7 0 389.36 46
-7 7 0 269.17 41.5
-7 7 0 303.67 31.4
4 4 0 735.23 57.19
-8 4 0 871.31 57.79
-4 8 0 953.6 77.69
4 4 0 826.62 76.69
-4 8 0 916.61 66.99
-8 4 0 719.33 57.59
-8 4 0 888.31 67.79
-4 -4 0 874.71 58.29
-4 8 0 867.61 69.09
-5 8 0 163.98 31.2
5 3 0 147.49 35.6
-8 3 0 202.98 33.7
-3 8 0 178.38 33.5
3 5 0 133.79 36.3
-3 8 0 161.78 37.6
-3 -5 0 166.88 27.5
-3 8 0 147.29 30.5
-3 -5 0 154.38 23
-8 3 0 160.38 18.2
3 5 0 139.09 26.7
-8 5 0 231.08 30.2
-8 5 0 154.68 23.5
-8 3 0 141.49 22.5
-5 8 0 171.18 28.6
-5 8 0 195.38 39.1
-8 5 0 197.28 33.1
-5 -3 0 190.98 26.2
-2 8 0 13.2 23.4
-6 8 0 19.7 17.1
-8 2 0 17.5 21.5
-8 6 0 25.5 22.3
-6 8 0 0.1 10.3
-8 2 0 11.3 18.8
8 -2 0 -1.1 11.2
6 2 0 -5.1 25.8
-8 6 0 3.6 23.2
-6 8 0 -20 28.5
-2 8 0 -1 29.2
2 6 0 3.3 28
-8 6 0 18.2 17.1
-6 -2 0 22.3 17.6
2 6 0 -2.7 24.5
-2 -6 0 16.7 15.6
-2 8 0 14.9 27.2
-6 8 0 0.5 22.3
-6 -2 0 -0.5 18.3
-7 8 0 185.18 32.7
-8 7 0 199.78 30
1 7 0 124.99 31.1
-8 7 0 153.58 32.3
-1 8 0 158.98 28.8
-7 8 0 174.98 30.1
-7 8 0 144.39 35.3
-1 8 0 159.48 39.5
-8 1 0 158.78 29
-7 -1 0 158.48 28.5
-8 7 0 151.88 32.1
-7 -1 0 165.98 27
8 -1 0 105.89 21.8
7 1 0 161.58 33.7
-1 -7 0 189.88 28.4
1 7 0 177.08 40
-1 8 0 185.28 40.8
-8 1 0 200.08 33.1
8 0 0 788.62 73.19
-8 0 0 985.7 72.39
-8 0 0 942.11 69.29
0 8 0 1104.19 88.69
-8 8 0 1000.2 68.99
0 -8 0 945.81 69.19
0 8 0 975 80.19
-8 8 0 910.61 78.69
-8 8 0 926.41 76.99
-4 -5 0 -0.9 14.3
-9 5 0 7.8 15.8
-4 9 0 5.4 25.4
-5 -4 0 15.5 16.5
-9 4 0 26.6 28.5
4 5 0 -16.9 13.7
-4 -5 0 -1.7 12.2
-5 -4 0 -3.8 14.7
-4 9 0 9.3 27.8
-5 9 0 -8.5 31.9
-9 4 0 -8.9 11.4
-9 4 0 -0.4 16.3
-5 9 0 -22.5 19.7
-5 9 0 3.6 19
-4 -5 0 20.7 16.8
5 4 0 9.6 33.2
-5 9 0 -2.4 23.6
-5 -4 0 6.1 16.7
-9 5 0 4.7 28.6
-4 9 0 -5.8 18.7
4 5 0 22.8 35.1
-4 9 0 26.6 34.6
-9 5 0 1.2 16.5
-9 4 0 -5.7 8.6
-3 9 0 56.39 27.8
-3 -6 0 83.29 19.5
-6 -3 0 71.69 21.6
-3 9 0 100.89 37.3
-3 9 0 59.69 19.1
6 3 0 49.4 34.6
-6 9 0 104.29 22.2
-6 9 0 87.89 37.8
-9 3 0 49.2 26.8
-9 6 0 96.49 22.8
-6 -3 0 74.19 21.8
-6 9 0 73.29 29.8
-3 9 0 89.59 33.5
-9 6 0 117.29 30.7
-9 3 0 69.09 22.1
3 6 0 74.69 37
-9 6 0 78.79 20.6
-9 3 0 74.39 19.1
2 7 0 20.3 36.1
-9 2 0 8.7 23.5
-2 9 0 4 25.3
-9 7 0 18.2 21.9
2 7 0 1.8 13.7
-7 9 0 9.4 28
-7 9 0 7.4 34.2
-7 -2 0 18.6 22.1
-2 9 0 6.2 33
-7 -2 0 21.6 20.2
-9 2 0 14.7 21.9
-2 -7 0 41.5 18
-9 7 0 29.6 19.6
-2 9 0 5.9 16.9
7 2 0 -17.1 32.7
2 -9 0 -11.5 10.5
-7 9 0 14.4 19.5
-9 7 0 47.6 28.4
2 7 0 -40.7 26.9
-2 9 0 -2.6 31.9
-9 1 0 -3.4 19.6
-1 9 0 4.3 36.3
-9 8 0 9.2 19.3
-8 9 0 -35.7 31.4
1 8 0 -34.4 29.8
-9 8 0 -14.4 28.7
-9 8 0 -1.9 29.8
1 8 0 -0.2 12.6
-8 9 0 3.8 20.3
-1 -8 0 25 17.2
-8 9 0 8.4 29.2
-1 9 0 6.4 19.4
-1 9 0 3.8 34.5
1 -9 0 18.6 16.4
-8 -1 0 0.9 19.5
1 8 0 -1 38.6
9 -1 0 -11.4 14.3
-8 -1 0 1.8 23.1
-9 1 0 -6.4 25.4
8 1 0 -44.4 25.5
0 9 0 29 20.6
-9 9 0 13.1 29
-9 9 0 -33.5 30
0 -9 0 31.9 16.3
9 0 0 -16.2 22.5
-9 0 0 31.7 23.7
-9 0 0 25.8 25.9
0 9 0 -11.2 34.6
-9 9 0 9.6 20.8
0 9 0 -22 30.4
5 5 0 2137.39 144.29
-5 -5 0 1792.12 120.89
-10 5 0 1953.5 131.69
-5 -5 0 1830.02 122.89
-5 10 0 1803.32 121.79
-10 5 0 1812.82 120.99
-10 4 0 180.78 31.2
6 4 0 194.68 31.9
-6 -4 0 218.48 33.9
-10 6 0 181.48 27.6
-6 10 0 160.68 35.8
4 6 0 167.48 48.7
-4 10 0 144.89 36.5
-6 10 0 130.89 46.4
-4 10 0 199.08 32
-10 4 0 150.68 36.6
-4 10 0 92.19 33.2
-4 -6 0 273.17 35.6
-10 4 0 180.88 30.7
-6 -4 0 202.48 30.3
-10 6 0 226.98 42.1
-4 10 0 205.98 46.2
-6 10 0 205.68 32.5
6 4 0 125.59 47
-7 10 0 29.6 32.5
-3 10 0 9.5 34
-3 10 0 19.2 37.6
-7 10 0 -2.5 39.5
7 3 0 -30.2 36.3
-10 7 0 24.7 17.1
-7 -3 0 7.7 16.2
-7 -3 0 -1.7 16.7
-3 -7 0 41.7 18.2
-10 7 0 32.9 31.7
-7 -3 0 48.5 22.1
-10 3 0 22.8 21.3
-3 10 0 22.5 19.5
-7 10 0 27.8 20.6
3 7 0 9.2 15.7
3 7 0 5.6 36.7
-10 7 0 -10.7 17.7
-10 3 0 15.9 27.4
-10 3 0 44.7 20.5
2 -10 0 47.1 15.9
-8 10 0 35.1 30.1
-8 -2 0 79.79 24.8
-10 2 0 62.29 23.9
-8 -2 0 -0.7 18.4
-10 2 0 48.3 27.6
2 8 0 47.6 19.6
8 2 0 -25.6 31.6
-8 10 0 16.5 38.1
-2 10 0 10.7 34.4
-2 -8 0 92.49 19.3
-2 10 0 55.69 22.3
-2 10 0 18.9 35.8
-10 8 0 63.89 36.8
-10 8 0 53.09 19.9
-10 8 0 6.1 24.6
-8 10 0 74.79 22.2
2 8 0 18.6 36.7
1 9 0 247.28 36.3
-1 10 0 211.68 49.6
-10 9 0 243.38 45.4
1 9 0 173.38 46.3
-10 9 0 251.57 33.3
-9 -1 0 317.77 38.6
-1 -9 0 333.57 37.5
-9 10 0 276.87 36
-10 1 0 273.27 38.2
1 -10 0 288.57 35.4
-9 10 0 238.08 46
-1 10 0 288.97 37.6
0 -10 0 191.08 33.7
-10 0 0 208.58 32.3
-10 10 0 198.08 29.7
0 10 0 142.79 29.4
6 5 0 13.5 21.5
5 6 0 -37.7 36.5
5 6 0 16.5 23.3
-11 5 0 -5.8 18.9
-5 -6 0 17.3 16.1
-6 11 0 2.3 42.3
-11 6 0 27.2 18.1
-6 11 0 -5.9 28.4
-5 11 0 -24.2 39.2
-11 6 0 1.8 13.4
-11 5 0 -9.4 28.4
-11 5 0 10.5 17.3
-11 6 0 21.2 33.1
-5 -6 0 12.9 15.8
6 5 0 -30.5 40.9
-5 11 0 15.9 19.1
-6 -5 0 14.3 17.8
-6 11 0 -12.7 19.7
-6 -5 0 12.3 16.2
-7 -4 0 645.24 52.89
-11 4 0 658.73 54.49
-7 -4 0 684.43 55.39
-7 11 0 689.23 81.49
-4 11 0 655.83 77.29
4 7 0 664.53 80.99
-11 4 0 670.83 66.89
-7 11 0 654.33 54.09
-11 7 0 662.13 53.39
-11 4 0 647.24 53.69
-11 7 0 603.94 66.49
4 7 0 635.74 55.39
-4 11 0 653.03 54.29
-4 -7 0 656.33 55.09
-11 8 0 83.79 36.7
-8 -3 0 52.39 18.5
-3 11 0 114.89 25.2
-8 11 0 -9 28.1
3 8 0 85.49 42.5
3 -11 0 45 16.1
-8 11 0 39.4 42.4
3 8 0 114.09 25.6
-11 3 0 37.1 30.7
-3 11 0 -10.8 36.4
-9 11 0 223.58 33.8
2 9 0 240.78 36.7
-9 -2 0 278.37 36.3
-2 11 0 263.57 38.3
-2 -9 0 307.87 37.2
2 -11 0 257.47 34.7
-11 9 0 136.49 42.9
-11 9 0 267.07 36.1
-11 2 0 211.38 35.4
-11 10 0 723.53 56.79
1 10 0 619.54 59.39
-1 11 0 673.53 59.49
-10 11 0 660.73 57.09
1 -11 0 670.73 56.59
-11 1 0 749.62 60.09
-1 -10 0 755.22 56.79
-10 -1 0 767.52 59.69
0 -11 0 238.08 36.3
0 11 0 230.98 39.3
-11 0 0 235.98 37.5
-11 11 0 265.97 37.9
-12 6 0 1066.79 73.39
6 6 0 1082.59 76.39
-6 12 0 941.71 73.29
-6 -6 0 954 72.79
-6 -6 0 1064.79 72.89
-12 6 0 954.6 71.49
-5 -7 0 166.08 32.1
-7 -5 0 174.18 29.6
-12 5 0 141.99 26.7
-12 7 0 225.28 29.5
-12 5 0 172.18 27.8
-5 12 0 148.09 26.9
-7 12 0 165.58 28.3
-7 -5 0 131.89 23.5
5 7 0 174.88 31.8
-4 12 0 691.03 57.09
-12 8 0 738.43 55.59
-12 4 0 667.73 57.09
-8 12 0 635.24 55.99
-4 -8 0 713.83 57.29
-12 4 0 696.13 56.39
-8 -4 0 626.94 55.39
4 8 0 606.04 56.99
-8 -4 0 737.23 55.79
-12 3 0 75.99 25.4
3 9 0 67.69 25.7
-12 9 0 91.99 24.4
-3 -9 0 102.89 22.4
-9 12 0 72.69 21.7
-9 -3 0 51.59 18.4
-9 -3 0 89.89 23.5
-3 12 0 48.9 23.7
3 -12 0 53.89 17.5
-12 3 0 72.19 23.9
-12 10 0 22.6 20.7
2 -12 0 9.8 16.9
2 10 0 3.4 22.4
-12 2 0 27 22.8
-2 -10 0 40.4 19
-12 2 0 19.9 22.7
-10 -2 0 24.8 22
-2 12 0 7.8 24.1
-10 12 0 16.2 20.8
-12 1 0 60.99 24.8
1 11 0 40.4 25.2
-11 12 0 37.6 22.2
-12 11 0 45.9 21.6
1 -12 0 48.2 19
-1 -11 0 48 19.8
-11 -1 0 68.29 25.3
-1 12 0 33.6 25.4
-12 12 0 338.67 42.4
-12 0 0 357.06 42.7
0 -12 0 319.87 41
0 12 0 325.97 46.1
6 7 0 573.74 51.99
-13 7 0 469.45 44.9
-7 13 0 498.45 48.2
-13 6 0 557.84 47.8
-7 -6 0 535.35 46.8
-6 -7 0 457.15 44.5
-13 6 0 481.85 47.5
-6 -7 0 547.95 48.2
-7 -6 0 572.24 49.99
-6 13 0 561.14 49.3
-13 7 0 552.24 47.6
-13 5 0 1299.87 90.39
-8 -5 0 1309.17 90.39
-13 8 0 1268.97 88.29
-13 5 0 1288.07 88.69
-8 13 0 1149.98 88.79
5 8 0 1193.08 90.69
-8 -5 0 1307.47 89.59
-5 13 0 1221.08 89.99
-5 -8 0 1387.26 92.19
-13 9 0 151.88 28.9
-4 -9 0 140.29 25.3
-9 -4 0 103.69 25.7
-9 13 0 121.19 28.4
-4 13 0 64.39 25.1
-9 -4 0 90.99 22
-13 4 0 99.39 28
-13 4 0 121.69 27.4
4 9 0 74.19 27.2
-13 10 0 479.05 47.8
-3 -10 0 536.75 49.99
3 -13 0 391.26 44.4
-3 13 0 540.95 51.59
-13 3 0 503.95 49
-13 3 0 496.95 50.79
-10 -3 0 513.05 47.2
-10 13 0 506.25 49.99
3 10 0 499.95 50.49
-11 -2 0 225.38 33.6
-11 13 0 152.78 30.5
-2 13 0 139.39 31.3
-13 2 0 133.99 29.2
2 -13 0 109.59 22.7
-13 11 0 204.38 32.1
-2 -11 0 152.28 25.5
-13 2 0 177.68 32.6
2 11 0 127.59 32.1
-12 -1 0 69.79 24.9
1 -13 0 64.99 21.3
-13 12 0 60.79 24.6
-12 13 0 73.79 27.2
-13 1 0 70.59 27.9
-1 13 0 55.99 28.2
1 12 0 47.6 28.3
-1 -12 0 54.99 21.6
-13 1 0 62.89 25.9
0 -13 0 1151.68 85.59
-13 0 0 1174.18 86.59
-13 13 0 1218.58 86.99
0 13 0 1058.69 87.79
-14 7 0 154.88 28.2
-7 -7 0 198.58 35.7
-7 -7 0 141.09 26.5
-14 7 0 247.78 33.2
-7 14 0 162.08 29.4
-8 -6 0 329.27 42.4
-14 6 0 325.07 40.9
-6 -8 0 419.06 44.2
-14 8 0 367.86 40.2
6 8 0 326.67 47.1
-14 6 0 408.76 42.6
-8 14 0 320.17 42.8
-6 14 0 349.17 43.1
-5 -9 0 62.19 19.6
-5 14 0 35.3 22.6
-14 5 0 44.2 23.7
-9 -5 0 37.7 20.1
-9 -5 0 66.49 22.8
5 9 0 34.9 26.4
-14 9 0 67.69 22
-14 5 0 46 21.7
-9 14 0 43.7 24.4
-10 -4 0 472.45 50.69
4 10 0 449.86 52.49
-14 4 0 572.74 53.99
-14 10 0 555.84 51.09
-4 -10 0 611.34 53.89
-10 -4 0 552.74 50.39
-10 14 0 530.15 52.29
-4 14 0 527.55 53.59
-14 4 0 542.35 53.09
-14 3 0 21.9 25
-11 -3 0 18.4 19.3
-3 14 0 10.4 25.4
3 11 0 16.7 26.7
-14 3 0 -2.6 24.4
-3 -11 0 17.5 18.8
3 -14 0 -10.5 15.7
-11 14 0 20 26.5
-14 11 0 11.9 20.7
2 12 0 64.49 28.5
-12 -2 0 197.38 33.3
-2 -12 0 127.79 23.9
2 -14 0 75.89 21.6
-2 14 0 118.39 31.6
-12 14 0 197.78 35.1
-14 2 0 191.98 36
-14 2 0 148.39 33
-14 1 0 22.3 26.4
-1 14 0 25.7 27.1
-14 13 0 15.9 23.7
-13 -1 0 11.7 22.6
-14 1 0 -8.5 24.6
1 13 0 7.8 25.3
1 -14 0 14 19.9
-13 14 0 -0.8 24.2
-1 -13 0 15.7 20.5
-14 0 0 30.9 25.5
-14 0 0 23.8 25.9
-14 0 0 -24 16.3
14 0 0 9.5 16.4
0 14 0 3.4 24.7
0 -14 0 36.7 21.9
-14 14 0 8.2 24.2
-14 14 0 1.4 14.6
-8 15 0 247.58 39
-15 7 0 204.98 33.7
-8 -7 0 224.08 40.5
-7 -8 0 258.47 41.3
-15 7 0 239.18 37.3
-15 8 0 226.08 35
-7 15 0 232.68 39
-8 -7 0 213.68 34.5
-7 -8 0 175.58 32.4
-9 -6 0 723.03 62.99
-6 -9 0 780.82 64.39
-6 15 0 658.23 60.69
-15 6 0 746.93 61.89
-15 9 0 674.23 59.89
-9 15 0 695.03 62.39
-9 -6 0 710.33 59.29
-15 6 0 680.33 60.89
-10 -5 0 49.5 22
-15 5 0 62.29 26.2
-5 15 0 86.09 28.2
-10 -5 0 51.29 22.1
-5 -10 0 94.29 25.3
-15 10 0 81.79 24.2
-15 5 0 86.89 28.4
-10 15 0 76.69 28.5
-15 4 0 127.99 32.7
-11 15 0 129.69 32.4
-15 4 0 119.19 31.2
-15 11 0 112.69 27.7
-4 -11 0 114.09 25.9
-11 -4 0 90.09 24.4
-4 15 0 69.09 29
-3 15 0 7.7 26.7
-15 12 0 4.7 23.4
3 12 0 -2.8 25.8
-12 15 0 5.2 26.9
-15 12 0 -5.9 18.3
-12 -3 0 15.6 21.8
3 -15 0 1.4 17.6
-15 3 0 -0.1 27.4
-15 3 0 -4.9 24
-3 -12 0 20.4 21.3
12 3 0 -0.4 21.2
-13 -2 0 78.89 20.1
-2 -13 0 161.38 28.6
-15 2 0 151.98 31.9
-15 2 0 137.69 33.1
2 -15 0 87.89 23.2
13 2 0 111.19 23.4
-2 15 0 74.69 29.4
2 13 0 8 45.1
-15 1 0 75.49 30.5
-14 15 0 39.1 20.6
-14 -1 0 47.9 28.4
-1 15 0 5.6 29.3
-15 14 0 51.39 20.5
-14 15 0 86.99 31.3
-1 -14 0 69.99 25.3
-14 -1 0 38.3 20
14 1 0 58.09 24.9
1 -15 0 47.3 23
-14 -1 0 79.09 28.6
15 -1 0 42.7 21.9
-15 14 0 69.79 28.9
-15 1 0 28.6 19.5
-15 1 0 70.29 30.4
15 -14 0 38.6 21.5
-15 0 0 13.6 26.7
-15 15 0 1.9 20.9
-15 0 0 17.3 26.1
0 -15 0 14.9 22.9
-15 0 0 5.4 18.8
15 -15 0 22.5 21.8
15 0 0 15.5 23.1
-15 15 0 13.6 26.1
-8 16 0 562.14 54.19
-8 -8 0 416.26 47.5
-8 -8 0 571.44 56.39
-16 8 0 565.84 52.89
-16 7 0 73.09 25.8
-16 7 0 85.39 25.8
-7 16 0 68.09 26.8
-9 16 0 56.59 26.5
-16 9 0 67.39 25.1
-9 -7 0 92.29 23.8
-9 -7 0 78.49 24.5
-7 -9 0 92.59 25.1
10 -16 0 8.1 14.4
10 6 0 -10.9 17.9
-10 -6 0 7.9 19
-16 10 0 3.9 21.2
16 -10 0 10 15.2
-10 -6 0 12.7 22.6
-16 6 0 21.2 22.7
-6 16 0 9.6 25.4
-6 -10 0 14.4 20.2
-10 16 0 8.9 25.7
-16 6 0 16.6 25.2
-11 16 0 212.88 38.2
-16 5 0 183.88 35.4
11 5 0 241.58 32.9
-11 -5 0 208.78 36.8
-5 -11 0 251.17 43.8
-16 11 0 208.68 30.4
-16 5 0 234.08 37.6
-16 11 0 266.97 37.8
-5 16 0 204.78 36.7
16 -11 0 167.18 27.2
-12 16 0 -5.5 21
16 -4 0 10.2 15.8
-12 -4 0 15.2 22.3
-16 12 0 22.7 23.8
4 -16 0 -14.4 17.5
-4 -12 0 17.1 22.4
12 4 0 -6.3 20.9
12 -16 0 -27.7 12.5
-16 4 0 3.3 25.3
16 -12 0 -5.1 19.4
-16 4 0 -6.9 23.5
-16 12 0 8.4 21
-12 16 0 -1.6 28.2
-12 -4 0 -30.6 13.9
-4 16 0 -0.5 26.4
-16 3 0 99.09 32.2
-16 13 0 181.48 28.2
-16 13 0 114.59 29.6
16 -3 0 107.79 24
16 -13 0 90.49 24.9
-16 3 0 143.29 25.7
-13 16 0 156.38 26.4
-13 -3 0 154.28 31.7
-3 -13 0 183.88 32.6
-13 16 0 101.89 32.6
13 3 0 142.79 28.8
-13 -3 0 106.19 22.7
-16 3 0 141.29 34
2 -16 0 55.89 22.4
16 -14 0 80.09 28.1
-16 2 0 90.39 30.9
-16 2 0 101.69 24.5
-14 -2 0 79.49 28.7
14 2 0 124.39 29.3
-2 -14 0 61.59 24.9
-16 14 0 109.09 31.2
-16 2 0 43.7 28.5
-14 16 0 112.79 35.3
-14 16 0 89.39 23.7
-14 -2 0 99.89 23.4
-16 14 0 99.39 23
16 -2 0 89.29 24.9
-14 -2 0 55.19 27.9
-15 16 0 74.89 33.2
16 -1 0 73.69 24.8
-16 1 0 90.79 31.1
-15 -1 0 67.99 21.1
15 1 0 71.89 24.4
-15 -1 0 29 28
-15 16 0 89.19 23.8
16 -15 0 93.89 28
15 -16 0 71.99 23.9
-16 1 0 85.09 32
-16 1 0 61.09 21.3
-1 -15 0 82.79 26.5
1 -16 0 34.9 21.2
-16 15 0 103.99 32.3
-15 -1 0 123.89 32.1
-16 15 0 99.79 23.1
16 -16 0 130.69 30.2
-16 16 0 98.49 33.5
-16 0 0 72.19 21
0 -16 0 58.79 24
0 16 0 59.89 21.4
-16 0 0 138.39 34
16 0 0 143.39 29
-16 0 0 2.9 27.6
9 -17 0 39.9 19
-9 -8 0 6.6 20.4
17 -8 0 2.5 19.5
8 9 0 22.1 26.1
-17 9 0 20.6 25.2
-17 8 0 25.2 26.1
-9 17 0 25 26.7
8 -17 0 47.8 18.4
-17 8 0 1.1 18.7
-8 -9 0 -1.4 17.6
17 -8 0 2.2 17.8
-8 -9 0 33.6 22
-8 17 0 25.8 24.9
17 -9 0 38.9 23.2
-9 -8 0 35.7 21.9
9 8 0 14.1 26.6
-17 10 0 11 24.8
17 -7 0 3.2 13.9
-17 7 0 13 24.1
7 10 0 4.3 26.3
10 7 0 0.9 25.2
-10 -7 0 15.1 21
-10 -7 0 10 20.9
7 -17 0 -2.8 16
-10 17 0 12.1 25.7
-7 -10 0 25 22.5
-17 7 0 14 24.9
10 -17 0 25.5 19
-7 17 0 2 25.2
17 -10 0 6.2 22.6
-6 -11 0 166.98 32.6
11 6 0 211.18 34.4
-17 6 0 79.59 30.3
17 -6 0 115.19 24.4
-17 6 0 105.79 30.2
-11 -6 0 104.89 27.5
6 11 0 163.98 32.1
-17 11 0 135.69 31.1
-11 17 0 141.49 33.4
17 -11 0 185.88 28.8
6 -17 0 124.29 20.6
-6 17 0 95.59 30.9
11 -17 0 149.69 22.4
17 -5 0 305.77 41.7
-12 17 0 302.57 36.7
-5 -12 0 287.87 49.99
-12 -5 0 249.78 41.9
5 12 0 316.77 45.4
-17 12 0 274.87 37.6
12 5 0 290.87 43
-12 17 0 299.27 48.1
-17 5 0 272.37 46.9
17 -12 0 316.87 39.6
-17 5 0 201.28 39
-17 12 0 272.07 45.2
12 -17 0 316.37 35.8
-12 -5 0 280.47 34.7
4 13 0 34.2 28
-13 17 0 39.8 22.8
-17 13 0 26.8 27.6
-13 17 0 25.8 29.8
-17 4 0 17.9 21.4
-13 -4 0 55.79 27.3
-13 -4 0 42.8 19.8
-17 4 0 42.3 29.1
-4 -13 0 49.5 25.8
-17 4 0 44.1 28.5
13 -17 0 35.4 19
13 4 0 45 26.2
17 -4 0 16.5 21.5
17 -13 0 43.6 24.7
-17 13 0 42.4 22.6
14 3 0 14.8 24.2
17 -3 0 12.4 22.5
-14 17 0 10.1 23.3
-17 14 0 16.2 19.8
-14 17 0 1.3 31.1
14 -17 0 16.5 16.8
-17 14 0 23.2 27.2
-17 3 0 19.4 27.7
-17 3 0 -8.1 20.3
-17 3 0 34.3 28
-14 -3 0 14.3 25.6
17 -14 0 2.5 25.1
-3 -14 0 25.3 22.9
-14 -3 0 26.9 19.8
3 14 0 24.2 25.8
-15 17 0 284.57 45.4
-15 -2 0 263.77 34.2
-15 -2 0 173.78 35
17 -2 0 265.47 41.6
-17 15 0 251.47 34.9
-17 2 0 201.08 38.8
17 -15 0 268.37 34.8
-17 15 0 251.07 40.6
-2 -15 0 277.27 46.6
-15 17 0 275.17 32.9
-17 2 0 246.48 34.4
15 2 0 202.78 32
-1 17 0 12.9 19.9
-17 1 0 -7.9 17.2
17 -16 0 17.1 25.9
16 1 0 9.9 22.3
-16 17 0 -7.6 29
-16 -1 0 12.9 25.6
-16 17 0 5.6 20.3
16 -17 0 12.7 26.4
1 -17 0 1.2 20.4
-16 -1 0 9.9 19.7
-17 16 0 3.1 28
17 -1 0 -4.4 19.7
1 16 0 -5.9 26.5
-1 -16 0 7.9 21.9
-17 1 0 8.1 26.5
-17 16 0 17.5 19.4
-17 17 0 237.98 36.1
-17 0 0 234.78 43.8
-17 17 0 283.37 45.7
17 -17 0 296.37 45.1
0 17 0 213.48 33.9
17 0 0 263.87 34.2
-17 0 0 271.47 33
-9 18 0 78.69 29.2
9 -18 0 142.59 22.6
-9 -9 0 98.99 27.7
9 9 0 154.68 33.1
18 -9 0 101.69 23.4
-18 9 0 97.39 30.5
18 -9 0 149.88 29.6
18 -8 0 215.38 34.9
-8 -10 0 181.28 32.8
-10 -8 0 123.09 27.8
8 -18 0 229.98 31.7
-18 10 0 157.28 33.2
8 10 0 262.77 36.1
-10 18 0 187.38 36.7
18 -10 0 147.29 25.3
18 -8 0 236.48 34.3
10 -18 0 264.47 31.8
18 -10 0 190.38 29.5
-18 8 0 140.49 33.3
-8 18 0 167.58 35
7 -18 0 19 18.6
-11 -7 0 -13.8 18.7
-7 18 0 -0.5 25.6
18 -11 0 4.6 15.1
18 -11 0 19 23.3
-18 11 0 26.1 27.7
-18 11 0 24.1 20.6
-11 -7 0 11.3 23
-11 18 0 33.1 21.1
7 11 0 24.4 27.6
-18 7 0 25.6 28.4
-7 -11 0 29.2 23.8
-18 7 0 5.2 25
18 -7 0 26.4 20.5
11 7 0 11 28.1
11 -18 0 34.7 18.6
-11 18 0 25.2 27
18 -7 0 39.2 23.5
-18 6 0 -22.9 15.3
18 -12 0 3.7 14.9
-18 12 0 -1.4 24.8
-18 6 0 17.9 25.9
6 12 0 13.6 28.2
12 6 0 -14.6 24.2
-12 18 0 3.2 19.4
-18 6 0 2.6 26.3
12 -18 0 24.1 18.1
-12 -6 0 -3.9 18.5
6 -18 0 1.1 17.7
18 -12 0 14.7 22.6
-18 12 0 8.1 22
18 -6 0 13.4 22.2
-12 -6 0 15.2 25.2
-12 18 0 -6.7 26.7
-6 -12 0 21.3 24.2
-5 -13 0 31.3 23.5
18 -5 0 21 22.1
-13 -5 0 31.9 25.2
-13 18 0 26.1 29.1
-13 -5 0 19.7 20
13 -18 0 36.4 19.1
-18 5 0 -3.9 20.7
13 5 0 16.8 27.4
-18 5 0 21.3 29.1
-18 5 0 23.9 28.3
-13 18 0 7.2 21.3
18 -13 0 20.2 25.2
5 -18 0 8.8 18.2
-18 13 0 34.1 22.4
-18 13 0 23.1 27.6
5 13 0 46.1 29.8
-14 18 0 8.5 21.2
-18 4 0 6.6 25.1
-18 14 0 18.1 19.2
-18 4 0 -6.9 20
-4 -14 0 40.8 24.5
14 -18 0 38.4 20.2
18 -14 0 15.8 23.8
-14 18 0 12 30.3
-14 -4 0 27.9 19.2
-18 14 0 42.8 28.8
4 14 0 51.49 29.1
-18 4 0 20.5 29
14 4 0 24.5 25.6
18 -4 0 26.4 22.9
-14 -4 0 33.3 25.1
-15 -3 0 -1 17.2
-18 15 0 19 28.7
18 -3 0 13.6 21.2
-18 15 0 14.2 19.2
3 15 0 -5.9 25.5
-15 -3 0 12.3 23.6
-18 3 0 2.4 25.4
-18 3 0 2.5 27.6
-15 18 0 -3.5 30.2
-15 18 0 17.6 20.5
15 -18 0 5.9 22.9
15 -18 0 8.5 17.8
-3 18 0 -4.4 16.6
15 3 0 14.7 23.8
-3 -15 0 6.6 21.7
-18 3 0 -3.8 18.6
18 -15 0 11.6 22.6
-18 16 0 29.1 18.4
-2 -16 0 22.3 24.6
-16 18 0 10.6 20.9
-16 18 0 33.5 31.7
-18 2 0 5.1 18.6
-2 18 0 5.5 19.6
16 -18 0 0.3 23.6
18 -2 0 20.2 20.9
-16 -2 0 16 24.9
-18 2 0 16.8 25.7
2 16 0 11.7 25.4
18 -16 0 34.1 24.3
-18 16 0 34.5 28.9
16 -18 0 20.7 17.9
-16 -2 0 32 19.3
16 2 0 10.2 23.4
-17 -1 0 16.3 24.1
-17 18 0 5.7 27
-17 18 0 25.8 20.8
-18 1 0 12.8 25.3
18 -1 0 14.3 20.9
-17 -1 0 6.4 17
-18 1 0 10.9 19.3
18 -17 0 8.4 24.8
-1 18 0 5.5 22.9
-1 -17 0 -15.5 20.4
-18 17 0 22 18.7
1 17 0 8.2 22.9
17 -18 0 -5.9 23.5
-18 17 0 2.1 28.6
17 1 0 20.9 21.6
0 18 0 4.8 21.2
-18 0 0 20.2 17.8
-18 18 0 62.79 20.5
-18 0 0 14.4 23.5
18 0 0 38.1 21.3
-18 18 0 -11.3 23.8
18 -18 0 21.4 25.2
-10 19 0 13.8 19.9
-10 19 0 -1.3 22.2
-19 10 0 23 27.7
10 -19 0 20.7 18
-9 19 0 6.2 14.4
9 -19 0 7.1 17.1
-9 -10 0 -1 22.8
-19 9 0 -14.8 27.3
19 -9 0 9.2 25.7
9 10 0 -12.8 27.4
-10 -9 0 5.9 22
19 -10 0 13.3 24.2
19 -9 0 -4.9 21.5
19 -10 0 24.6 21.7
10 9 0 13.3 28.9
-11 19 0 69.89 22.8
11 8 0 62.99 29.9
8 -19 0 52.09 19.1
-11 19 0 8.7 24.3
-8 -11 0 49.4 25.6
-19 11 0 53.59 29.7
11 -19 0 73.29 20.2
19 -11 0 55.59 22.8
-19 8 0 50.29 30.8
19 -8 0 59.39 22.8
-19 11 0 45.2 21.6
19 -11 0 63.99 26.9
8 11 0 67.69 29.2
19 -8 0 36.6 25.6
-8 19 0 -5.7 21.1
-12 -7 0 79.09 21.2
12 -19 0 160.78 23.6
19 -7 0 119.79 25.7
19 -12 0 162.38 30.2
7 -19 0 95.99 22.4
-19 12 0 94.59 33.1
-12 19 0 131.19 25.5
19 -7 0 152.58 30.2
19 -12 0 109.79 25.1
7 12 0 134.49 31.6
-12 19 0 82.29 30.1
-19 7 0 116.79 34
12 7 0 185.98 33.2
-19 12 0 126.69 25.3
-7 -12 0 103.79 28.3
13 6 0 54.99 26.7
6 13 0 28.7 27.1
-13 19 0 55.29 22.7
-19 6 0 -1.2 24.8
-13 -6 0 43.1 19.6
-19 6 0 49.4 29.3
-19 13 0 72.99 23.5
-13 -6 0 21.4 24.1
6 -19 0 35.4 20.1
19 -6 0 -1.1 20.9
-19 13 0 32.5 26.7
19 -13 0 40 25.9
-19 6 0 33.6 20.5
19 -6 0 32.9 21
-13 19 0 21.9 25.7
13 -19 0 56.89 19.8
-6 -13 0 45.2 26.1
-19 5 0 9.4 19.7
5 -19 0 4.7 18.3
14 5 0 3.1 24.8
-19 14 0 6.4 26.3
-19 5 0 0.3 24.8
14 -19 0 16.9 18.4
-5 -14 0 18.3 23.9
19 -14 0 -1.8 22.4
-19 5 0 7.9 25.5
5 14 0 15.5 26.4
-14 -5 0 19.4 18.8
-14 -5 0 16.8 25.3
-14 19 0 21.6 19.8
19 -5 0 30.8 21.3
-14 19 0 -4 26
-19 14 0 8.4 18.7
-15 19 0 47.4 27
4 15 0 118.69 29.6
-4 -15 0 105.79 28.8
-15 -4 0 188.98 24.6
19 -15 0 139.89 27
-19 4 0 87.59 23.6
-19 15 0 189.08 26.5
15 -19 0 136.79 23.4
-19 15 0 138.49 34.6
-19 4 0 53.69 26.8
15 4 0 188.78 31
-15 19 0 174.88 26.3
19 -4 0 112.29 24.1
-15 -4 0 104.89 30.4
-19 16 0 29.5 19
3 16 0 37.5 24.5
-16 -3 0 54.69 19.5
19 -3 0 28.6 20.8
-16 19 0 -5.7 25.3
-3 19 0 0.8 17.2
19 -16 0 27.3 22.4
-19 3 0 9.9 25.5
-3 -16 0 15.8 24.9
-19 16 0 37.8 28.1
-19 3 0 16 19.6
-16 19 0 25.7 19.2
16 3 0 25.1 23.9
16 -19 0 3.6 14.4
-16 -3 0 27.3 23.7
16 -19 0 38.9 18.5
-19 17 0 -11.6 24.9
17 2 0 9.6 21.1
17 -19 0 2 21.4
17 -19 0 1.6 16.4
19 -17 0 -4 21.6
-19 17 0 13.2 18.1
-17 19 0 29.3 19.4
-19 2 0 -1.4 22.2
-2 19 0 18.4 21.2
-17 -2 0 11.6 17.4
2 17 0 20 22.6
19 -2 0 5.7 20.7
-19 2 0 -0.8 18.4
-17 -2 0 5.4 21.2
18 1 0 246.08 31.2
19 -1 0 227.28 30.2
-18 19 0 172.28 24.6
1 18 0 146.59 28
-18 -1 0 185.68 28.1
18 -19 0 154.28 27
19 -18 0 186.88 30
-19 1 0 211.08 31.7
-19 18 0 125.19 22.8
19 -19 0 16.5 20
0 19 0 4.2 19.3
-19 0 0 8.3 17.2
19 0 0 11.7 19.6
-19 19 0 13.9 17.5
20 -10 0 341.77 38.9
-10 20 0 248.28 34.3
10 10 0 311.37 48.1
20 -10 0 265.67 38.7
-20 10 0 301.87 37
10 -20 0 278.27 34.9
-20 10 0 206.18 39.9
20 -11 0 130.49 29.4
20 -9 0 74.09 24
20 -11 0 80.19 23.9
9 -20 0 99.79 21.2
-11 20 0 66.09 21.9
11 -20 0 150.78 23.7
-20 9 0 49.8 29.4
-9 20 0 36 15.8
11 9 0 96.29 28.9
9 11 0 138.89 32.4
20 -9 0 158.88 31.7
-20 11 0 117.39 24.8
-20 11 0 95.69 32.5
-20 8 0 -9.5 13.8
12 8 0 -5.4 25
-20 12 0 30.4 28.9
20 -12 0 -18.2 23.5
8 -20 0 28.9 18.6
20 -8 0 1.4 20.9
-8 20 0 -5 12.3
20 -12 0 13.1 21.6
8 12 0 -14.1 25.1
-8 -12 0 5.5 23
-12 20 0 13.4 20.7
-20 8 0 2 26.5
20 -8 0 11 26.2
-20 12 0 15 20.9
-12 -8 0 11.1 17.1
12 -20 0 15.5 18.4
20 -7 0 19.2 25.4
20 -7 0 12 20.9
-13 20 0 9.6 20.6
-20 13 0 27.3 27.1
13 7 0 -3.1 25.6
7 -20 0 21.3 19
-7 -13 0 16.9 24.8
-20 7 0 -18.3 18
-13 -7 0 5.5 17.1
-20 13 0 -4.5 19.9
20 -13 0 10.4 22.7
-20 7 0 -3.8 30.8
13 -20 0 17.8 18.2
7 13 0 19.3 26.2
-14 -6 0 26.9 18.3
20 -6 0 10.7 20.3
6 14 0 34.9 25.7
20 -6 0 3.3 26.3
6 -20 0 23.1 18.8
14 6 0 15 23.9
-20 6 0 13.8 19.2
-6 -14 0 13.2 24.2
-20 14 0 7.6 25.4
20 -14 0 25.6 22.6
-14 20 0 34 20.6
14 -20 0 21.1 17.7
-20 14 0 31.9 19.7
-20 15 0 30.3 26.7
20 -15 0 64.79 23.3
20 -5 0 58.89 21
15 5 0 93.99 26.6
-15 20 0 87.99 22.7
5 -20 0 39.1 18.6
5 15 0 43.5 24.5
15 -20 0 80.79 20.1
-5 -15 0 28.8 24.6
-20 15 0 50.79 18.7
-15 -5 0 79.59 19.6
-20 5 0 40.9 20.1
4 16 0 5.8 22
-20 4 0 -7.3 17.6
-20 16 0 -4.9 25.8
-16 20 0 -8.7 17.3
-20 16 0 -12.2 16.3
16 4 0 6.2 22
-4 -16 0 -9.7 23
20 -4 0 15.1 20.1
-16 -4 0 17.6 17.7
-4 20 0 -5.8 14.4
20 -16 0 2.9 20.3
16 -20 0 3.2 16.6
17 -20 0 5.3 15.2
20 -3 0 55.19 21.6
20 -17 0 48.2 22.2
17 3 0 38 20.5
-17 20 0 40.3 18.1
-20 17 0 44.6 18.1
17 -20 0 27.3 16.8
-17 -3 0 65.99 18.7
3 17 0 34.2 21.2
-20 3 0 41.4 18.5
-18 20 0 1.4 16.8
18 -20 0 -4.1 19.6
2 18 0 7.2 19.8
18 2 0 -7.3 18.2
20 -2 0 -2 18.5
-2 20 0 -0.7 14.9
-20 18 0 -2.7 16.2
-18 -2 0 -0.8 15.2
-20 2 0 10 16.5
18 -20 0 -11.5 11.1
20 -18 0 23.2 20
-20 19 0 118.69 20.1
19 -20 0 105.59 22.2
-19 -1 0 168.48 22.7
-19 20 0 83.59 19
1 19 0 69.29 21
-20 1 0 98.69 19.7
20 -19 0 94.19 21.4
19 1 0 142.79 25.5
20 -1 0 143.09 24.3
20 -20 0 108.89 21.4
20 0 0 100.09 20.7
-20 20 0 100.99 18.7
-20 0 0 132.89 20.1
10 11 0 5.4 26.5
11 10 0 1.8 25
21 -10 0 1.2 25.7
-21 11 0 -0.9 20.3
-10 21 0 4 16.1
-21 10 0 -3.7 20.7
21 -10 0 15.6 20.7
21 -11 0 -7.1 24
-11 21 0 3.5 18.2
21 -11 0 7.9 20.1
10 -21 0 13.8 17
11 -21 0 7.8 17
21 -12 0 -19.4 22.2
9 -21 0 -2.3 16.2
-9 21 0 -3.6 12
-12 -9 0 -23.8 14
9 12 0 5.6 26.2
-21 12 0 -5.6 19.3
12 9 0 25.6 25.7
21 -12 0 -7.7 20.4
12 -21 0 11.9 16.7
-12 21 0 13 18.6
21 -9 0 16.6 25.5
21 -9 0 15.2 20.5
-13 21 0 15.1 18.9
21 -8 0 25 25.3
13 -21 0 26.6 16.7
8 -21 0 16 17.9
13 8 0 15.2 23.8
21 -8 0 16.1 20.5
21 -13 0 28.1 21.7
-21 13 0 -5 19.3
8 13 0 20.4 25.9
-21 8 0 -8.8 11.3
-13 -8 0 -7.1 16.2
14 7 0 152.48 29.3
-14 -7 0 81.69 20.3
21 -7 0 68.19 23.9
21 -14 0 112.99 24.6
21 -7 0 114.39 24.5
14 -21 0 155.28 22
7 14 0 137.79 28.8
-14 21 0 77.89 21.7
-21 14 0 154.88 24.2
7 -21 0 72.39 20.2
-21 7 0 108.59 21.6
6 -21 0 3.3 17.3
6 15 0 -5.5 21.2
15 -21 0 10.3 16.5
21 -6 0 -1.9 18.7
21 -15 0 11.5 20.3
-15 21 0 9.2 18.3
15 6 0 3.6 21
-21 15 0 3.7 16.2
-21 6 0 -14.3 16.7
-15 -6 0 22.6 18.4
-21 16 0 111.19 20.8
21 -16 0 118.39 24.8
16 5 0 94.89 25.2
21 -5 0 45.4 20.2
-21 5 0 66.79 19.3
-16 21 0 83.49 20.3
5 16 0 66.49 23
16 -21 0 80.29 18.4
-16 -5 0 76.29 19.1
-21 17 0 19.4 15.4
21 -4 0 24.9 18.2
17 -21 0 6.1 14.9
-17 -4 0 18.1 16
21 -17 0 14.1 19.9
17 4 0 24.5 20
-21 4 0 -2.5 16.2
-17 21 0 11 17.1
4 17 0 3.9 19.6
3 18 0 46.4 19.6
-18 21 0 55.19 17.4
21 -3 0 68.39 18.9
18 -21 0 40.6 14
-21 18 0 51.59 16.7
21 -18 0 38.3 18.7
18 3 0 110.79 23.1
-21 3 0 84.99 18.9
2 19 0 7.9 15.9
-21 2 0 37.9 15.8
21 -2 0 35 17.1
19 2 0 35.9 19.5
21 -19 0 39.4 17.4
-21 19 0 41.9 15.7
-19 -2 0 41.8 15.9
-19 21 0 23.8 14.9
19 -21 0 4.8 15.5
-20 -1 0 11.9 14.6
-21 20 0 -6.1 13.1
21 -20 0 11.2 15.8
20 -21 0 9.1 13.3
21 -1 0 -1.4 16
-20 21 0 12.6 13.7
20 1 0 3.2 15.9
-21 1 0 18.3 14.4
-21 0 0 139.09 18.9
21 0 0 80.69 19.5
-21 21 0 100.99 17.2
22 -11 0 95.79 22.8
11 -22 0 89.59 18.8
22 -11 0 96.19 25.5
-22 11 0 82.29 22
11 11 0 127.09 27.9
10 -22 0 9.5 15.8
22 -12 0 17.4 21.7
-12 22 0 11.5 16.4
-22 10 0 16.4 19.1
12 10 0 -5.8 22.7
-22 12 0 9 19
22 -10 0 9.6 21.7
22 -12 0 18 19.9
-10 22 0 -2.5 11.9
10 12 0 10.5 23.5
22 -10 0 4.7 19.1
12 -22 0 16 15.6
13 9 0 30.5 22.5
13 -22 0 33.9 15.9
22 -9 0 28.3 19.9
22 -9 0 6.8 21.7
9 13 0 36.3 23.7
22 -13 0 44 21.6
-22 9 0 58.09 20.8
-22 13 0 24.6 17.9
9 -22 0 41.9 17.2
-13 22 0 32.4 18.7
22 -8 0 11.2 18.2
-22 8 0 -6.2 11
14 8 0 -2.9 20.8
-14 -8 0 8.1 15.7
8 14 0 13 23.1
-14 22 0 11.4 16.9
-22 14 0 1.6 16.3
22 -14 0 -1.5 19.3
-22 8 0 5.1 18.5
14 -22 0 0.1 14.2
8 -22 0 3.5 16.3
22 -8 0 -7.6 20.1
-22 15 0 0.7 15.2
-15 -7 0 7.2 15.1
-22 7 0 13.9 16.6
7 -22 0 -6.3 15.3
22 -15 0 2 19.6
22 -7 0 15.9 18.5
15 -22 0 22.2 14.9
7 15 0 28.9 22.7
-15 22 0 1.5 16.7
15 7 0 0.5 20.5
22 -6 0 38.6 17.8
-22 16 0 45.2 16.8
-16 22 0 29.9 17.4
-22 6 0 29.9 17
-16 -6 0 46.8 16.7
16 -22 0 39.4 15.5
6 16 0 33.7 20.2
22 -16 0 49.4 19.3
16 6 0 37.1 21.4
-17 -5 0 2.7 16.5
17 -22 0 -2 12.7
-22 5 0 0.6 14.8
5 17 0 15.8 18.6
-22 17 0 -1.9 14.1
-17 22 0 3.7 15.5
22 -5 0 15.8 16.8
22 -17 0 3.8 17.5
17 5 0 -4.7 16.5
-18 -4 0 28.3 16.6
22 -18 0 15 15
4 18 0 16.6 16.6
22 -4 0 15.1 16.9
-22 18 0 10.5 14.8
-22 4 0 3.8 14.7
18 4 0 19.1 17.7
-18 22 0 11.5 14.9
18 -22 0 15.7 11.8
19 3 0 3.9 17.3
3 19 0 -3.4 20.1
-19 -3 0 13.6 14.9
-19 22 0 3.8 13.9
-22 19 0 -1 13.6
-22 3 0 0.9 13.5
22 -3 0 -7.5 15.6
22 -19 0 0.2 14.9
-20 -2 0 68.89 17.3
22 -2 0 41.3 16.6
-20 22 0 54.39 15.7
22 -20 0 34.8 16.5
-22 20 0 45.4 14.7
-22 2 0 44 14.4
20 2 0 56.99 18.9
-22 21 0 34 15.3
-22 1 0 66.09 16.8
-21 -1 0 32.5 16.2
-21 22 0 47.1 15.7
22 -1 0 36.4 18.1
21 1 0 48.2 19.1
22 -21 0 4 13.2
23 -11 0 49.3 21.1
12 11 0 63.99 22.6
-23 11 0 24 18
-23 12 0 48 19
23 -12 0 42.1 21.6
11 12 0 29.8 21.5
23 -11 0 32.7 18.7
11 -23 0 22.8 14.8
12 -23 0 41 15.5
-23 10 0 8.7 17.1
23 -10 0 -11.6 19.1
23 -13 0 -3.4 18.7
23 -10 0 3.1 17.9
10 -23 0 2.7 14.1
-23 13 0 1.1 15.8
-13 23 0 -0.6 11.3
10 13 0 22.4 20.7
13 -23 0 6.4 13.7
13 10 0 13.5 20.1
23 -9 0 1.3 17.3
-14 23 0 0.7 13.5
14 -23 0 3.1 13.6
9 -23 0 13.1 14.7
9 14 0 5.9 20.5
-23 14 0 11.7 15.7
14 9 0 -1.7 19.3
23 -9 0 6.4 18.3
23 -14 0 24 19.3
-23 9 0 15.1 17.5
-15 23 0 4.1 14.6
8 15 0 22.2 20.1
-23 15 0 -0.7 14.5
-23 8 0 11.1 15.5
8 -23 0 5.5 14.2
15 -23 0 20.4 14.1
-15 -8 0 -9.4 14.1
23 -15 0 16.4 17.6
15 8 0 12.6 19.6
23 -8 0 7.1 16.9
-16 23 0 -0.6 13.8
-23 16 0 9.2 14.4
16 -23 0 14.2 13.1
-23 7 0 16.6 15.5
23 -16 0 21.1 17.5
7 16 0 29.7 18
23 -7 0 9.9 16.7
16 7 0 9.2 17.6
-16 -7 0 -5 14.3
7 -23 0 -5.7 9.4
-23 7 0 -5.6 12.3
23 -17 0 5.7 15.5
-23 6 0 6.8 11.8
-23 6 0 -0.8 12.7
17 6 0 2.4 17.1
-17 -6 0 0.4 15.4
23 -6 0 4 15.6
17 -23 0 14.4 13.6
-17 23 0 5 13.9
6 17 0 14.9 18.5
-23 17 0 -0.6 14.5
-18 23 0 12 13.5
-23 5 0 7.6 13.2
23 -18 0 20.6 14.8
18 -23 0 9.6 11.3
18 5 0 25.4 18.9
23 -5 0 9.9 15.9
-23 18 0 23.5 15.4
5 18 0 -3.5 11.7
-18 -5 0 26.3 16
-19 -4 0 24.6 16.5
-19 23 0 5.2 12.7
-23 4 0 10.5 13.6
-23 19 0 0.7 14.3
23 -4 0 2.5 15.8
19 4 0 1.8 18.4
23 -19 0 10.2 15.6
-23 20 0 48.1 17.4
-23 3 0 36 15.4
20 3 0 44.3 20.1
-20 -3 0 45.3 17.2
23 -3 0 29.3 18
23 -20 0 32 17.9
-20 23 0 19.4 12.7
-24 12 0 9.2 16
24 -12 0 17.1 19.8
12 -24 0 13.3 13.4
12 12 0 18.1 18.6
11 13 0 9.8 17.9
13 -24 0 9.3 12.9
24 -11 0 -0.7 17.5
24 -13 0 -6.6 16.4
11 -24 0 4.6 12.7
-24 11 0 10.8 16.1
-24 13 0 16.8 16.1
13 11 0 6.9 18.9
-24 14 0 0.3 14.7
-24 10 0 8.1 16.6
10 -24 0 4.6 12.9
24 -14 0 -11.4 18
14 -24 0 15.1 12.8
10 14 0 16.2 19
14 10 0 3.1 19
24 -10 0 -6.1 12.7
9 -24 0 -9.1 12.1
-24 15 0 4.4 14.9
-24 9 0 4.8 15.6
15 -24 0 -3 12.5
15 9 0 -4.9 18.5
24 -15 0 9.4 17.6
9 15 0 24.7 19
24 -9 0 5.5 14.8
16 8 0 6.8 18.2
-24 8 0 -0.7 11.2
-24 16 0 5.6 15.3
8 16 0 -4.3 16.9
16 -24 0 2.9 13.5
24 -16 0 8.6 16.2
24 -8 0 -4.4 13.8
7 17 0 3.9 17.1
-24 17 0 -4.4 16.8
17 -24 0 -1.4 14
-17 -7 0 -12.1 10.2
24 -7 0 7.6 13.1
24 -17 0 -3.2 15.5
17 7 0 1.7 18.6
-24 18 0 3.3 16.1
24 -18 0 6.6 17.3
18 -24 0 -5 7.7
18 6 0 5.4 20.5
-18 -6 0 -9.2 10.6
24 -6 0 7.9 12.6
12 13 0 16.6 20.2
-25 13 0 -5.7 17.3
12 -25 0 -0.6 13.8
-25 12 0 -5.7 16.3
13 -25 0 4 14.6
13 12 0 11.6 21
25 -13 0 -5.7 16
14 -25 0 29.7 15.1
25 -14 0 21 19.2
14 11 0 39.9 22.4
-25 14 0 34.5 18.1
11 14 0 21.9 18.3
-25 11 0 2 11.2
11 -25 0 14.5 14.4
0 0 1 -0.3 5
0 0 1 0.6 5.5
0 0 -1 2.1 5.7
0 0 -1 -0.1 4.2
1 0 1 16.3 7.3
-1 1 1 21.6 7.8
-1 0 1 26.7 6.8
0 1 1 18.8 7.8
1 -1 -1 10.9 6.7
0 1 1 18.8 7.7
-1 1 1 17.1 8.1
0 1 -1 18.5 4.9
0 -1 1 15.3 5.9
1 0 1 21.8 7.4
1 -1 1 13 5.5
0 1 1 18.3 7.3
0 1 -1 15.7 4.2
-1 0 -1 17.6 7.2
0 -1 1 6.7 3.9
-1 1 -1 13 6.4
1 -1 1 21.1 7.2
0 -1 -1 11.6 8.6
-1 1 -1 14.5 5
-1 1 1 11.9 6.7
0 -1 -1 21.2 7.9
0 -1 1 10.5 5.7
1 -1 -1 16.6 8.1
-1 1 -1 10.9 5.9
1 -1 1 11.2 6.1
-1 0 -1 9.2 7.6
0 -1 -1 14.1 7.7
1 0 1 17 4.7
1 0 -1 13.1 6.5
1 1 -1 775.52 47.9
-1 -1 1 772.02 47.4
-1 2 -1 789.42 49.5
-2 1 1 849.72 49.99
-1 -1 -1 795.52 49.4
1 1 1 800.62 51.09
-1 -1 1 780.12 50.59
-2 1 1 747.33 50.99
-1 -1 -1 703.33 51.69
-2 1 -1 775.02 49.7
-1 2 -1 846.42 49.2
1 -2 1 764.82 49.3
1 1 1 740.73 49.7
2 -1 1 659.43 48.1
1 -2 -1 735.83 52.79
-1 2 1 787.02 51.49
1 1 -1 784.52 49.6
1 -2 1 749.92 49.5
-2 1 -1 782.32 48.2
-1 2 1 876.31 51.99
2 -1 -1 766.22 49.99
2 -1 1 830.72 49.7
-2 1 -1 841.82 50.19
1 1 -1 730.13 47.4
2 -1 1 694.33 49.8
-1 2 -1 764.92 48.5
1 1 1 818.92 49.7
2 -1 -1 632.24 50.69
-1 -1 -1 666.73 49.1
-1 -1 1 708.43 48
-2 1 1 801.42 49.3
-1 2 1 841.32 50.39
2 -2 -1 34.5 13.8
2 -2 1 35.4 8.5
2 0 -1 30.9 7.5
2 0 1 19.4 6.5
2 -2 1 18.9 11.1
-2 0 -1 12 9.6
-2 0 1 22.7 6.9
-2 0 1 19 9.4
0 2 1 14.2 10.5
0 -2 1 21.1 9.5
0 2 -1 29.2 8
0 2 1 27.5 10.9
-2 2 -1 39.2 11
0 -2 1 24.5 5.1
0 -2 -1 20.5 12.8
0 -2 1 24.3 10.7
0 2 -1 38 9.5
2 -2 -1 19.8 14.7
-2 2 -1 32.8 8.4
2 0 1 22.4 11
-2 0 -1 41.5 10.5
2 0 1 25.9 9.2
0 2 -1 25.5 4.3
2 -2 -1 27.1 8.7
-2 0 1 22.3 8.4
2 -2 1 24.9 10
0 -2 -1 26 12.2
-2 2 1 29.2 12.7
0 2 1 27.8 11
0 -2 -1 32 11.2
-2 2 1 32.7 12.9
2 0 -1 15.2 10.9
-2 2 1 18.3 8.2
-1 3 -1 662.03 42.9
-3 2 -1 554.74 39.1
-3 1 1 627.54 42.7
2 1 -1 606.14 37.5
-2 -1 -1 478.05 45.9
-2 3 1 682.23 47.1
-3 1 1 609.14 39.9
-1 3 -1 636.84 41.4
2 1 -1 655.53 43.2
1 -3 -1 498.75 44.3
-3 1 1 631.84 40.9
3 -1 1 518.05 38.9
-3 2 -1 601.64 42.7
2 -3 1 486.95 40.3
-3 2 -1 617.24 39.6
1 2 1 542.85 41.6
2 -3 1 550.74 40.4
3 -1 1 627.34 40.4
-2 3 1 639.94 41
1 2 1 633.84 45.4
1 2 1 667.73 42.2
-1 3 -1 536.25 38.8
3 -2 -1 562.34 42.7
-2 3 1 608.54 44.5
-2 -1 -1 606.74 41
2 1 -1 548.85 39.5
-1 -2 1 557.74 40.5
-3 1 -1 544.45 42
-3 2 1 595.64 44.7
3 -2 1 649.64 40.7
-1 3 1 614.24 44.5
-2 3 -1 588.64 41.5
-2 -1 1 572.04 39.1
1 2 -1 684.03 44.4
3 -1 -1 512.15 44.8
2 1 1 642.44 40.8
-3 2 1 657.33 40.1
-2 3 -1 657.03 43.7
-3 1 -1 681.73 39.5
-2 3 -1 667.73 40.4
2 1 1 501.95 41.5
-1 -2 -1 641.34 41.9
1 -3 1 548.75 41
-2 -1 1 589.94 38.8
1 2 -1 617.64 39.9
-3 1 -1 599.94 42.5
3 -2 1 492.25 41.3
-1 -2 -1 574.64 43.3
2 1 1 673.33 45.3
-1 3 1 667.63 44.3
3 -1 -1 603.34 41
2 -3 -1 558.44 42.8
-3 0 1 37.9 8.5
-3 3 -1 40.4 12.4
-3 0 1 26.8 6
0 -3 1 8.9 11.7
3 0 1 26.1 7
3 -3 -1 8.4 14.4
-3 3 1 52.19 19.4
3 -3 -1 25.5 10.3
-3 0 -1 25.8 13.5
3 -3 1 45 10.7
-3 3 -1 64.99 16.3
3 -3 1 2.3 11.1
0 3 -1 68.49 15.8
0 3 1 73.89 17.7
0 3 -1 30.5 6.8
-3 3 1 40 17.4
-3 0 -1 40.6 13.3
-3 0 1 36.7 11.6
-3 3 1 15 8.1
-3 0 1 12.8 10.6
0 3 1 17.5 11.2
3 0 -1 28.9 16.1
3 -3 1 36.5 8.8
0 -3 -1 12.9 16.5
0 3 1 55.39 18.5
3 0 1 46.5 13.3
3 0 -1 50.39 10.8
0 3 -1 50.69 13.2
3 0 1 1 9.8
-2 4 -1 674.83 50.99
-2 4 -1 818.92 56.09
-4 2 -1 711.93 50.59
-2 -2 -1 661.13 51.39
-2 -2 1 727.03 47.6
-4 2 -1 769.62 53.29
-2 4 1 794.12 60.39
-4 2 1 752.62 53.49
-4 2 -1 764.72 49.7
2 2 1 841.52 58.29
-4 2 1 692.43 48.3
-4 2 1 770.12 53.69
4 -2 1 783.52 49.9
2 2 -1 802.92 54.89
-2 4 -1 779.02 50.99
-2 4 1 821.52 54.49
-4 2 1 778.62 49.6
2 2 1 771.32 51.69
-2 4 1 753.22 55.79
-2 -2 -1 755.42 51.39
2 2 -1 741.93 48.3
-4 3 -1 239.88 26.7
-1 4 -1 178.48 25.3
-4 1 1 177.18 23.6
-3 -1 -1 145.79 20.3
3 1 -1 193.58 26.3
1 3 1 202.58 34.8
-3 4 1 165.68 26.6
-4 1 1 127.09 19.5
-1 4 -1 174.38 28.2
-4 3 -1 179.58 21.2
-3 4 1 194.58 30.8
1 3 1 173.88 23.9
4 -1 1 138.79 17.3
-1 4 -1 144.19 18.3
4 -1 1 183.08 24.7
-1 4 1 163.68 24.2
4 -3 1 171.88 17.6
1 3 -1 191.18 22.1
-1 4 1 202.68 32.9
-3 4 -1 154.38 23.7
-4 3 1 165.78 15.6
-4 3 1 199.58 29.2
-1 4 1 205.38 30.1
3 1 1 187.28 28.9
1 3 -1 149.59 13.4
4 -1 -1 160.98 16.1
3 1 1 164.58 17.1
1 3 -1 170.08 12.1
-3 4 -1 189.68 26.7
-4 1 -1 159.48 16.3
-3 -1 1 180.58 19.1
-4 1 -1 175.68 22.5
-1 -3 -1 151.88 20.3
-3 -1 1 135.89 14.9
4 -1 -1 147.29 17.5
-4 3 1 166.28 25.7
1 3 -1 165.78 27.1
1 -4 1 133.69 19.9
-4 0 -1 374.56 33.6
4 0 1 405.06 37.1
4 0 1 350.06 27.4
-4 0 1 418.96 32.5
4 0 -1 420.26 31.8
0 4 -1 377.86 37.5
-4 4 -1 350.16 34.5
0 4 1 377.16 40.1
-4 4 1 384.96 29.5
-4 0 1 398.56 26.2
-4 4 1 360.96 37.5
4 -4 1 375.16 30
0 4 -1 340.87 28.1
0 4 -1 326.67 26.2
-4 4 -1 424.56 34.9
0 4 -1 440.76 36.1
0 4 1 391.76 42.2
-4 4 1 366.16 44.7
-4 0 1 377.86 24.6
-5 2 1 242.58 30.5
-3 5 1 237.48 31.3
-3 -2 -1 235.38 26.6
-2 -3 1 237.78 18.6
-2 5 -1 243.38 28.1
-2 5 -1 233.08 25.5
-5 3 -1 286.67 24.9
5 -2 1 297.87 28.2
-2 5 -1 238.68 35.5
2 3 1 268.47 40.7
-3 5 1 287.87 34.7
-3 5 1 255.37 40.8
-5 3 -1 244.18 30.9
-5 3 -1 194.78 19.6
3 2 -1 238.58 18.8
2 3 1 256.67 29.2
3 2 -1 252.57 31.3
3 2 1 307.77 27.7
2 3 -1 355.16 26.9
-2 5 1 354.56 38.9
-2 -3 -1 310.07 28.6
-5 3 1 240.18 36.3
-3 5 -1 297.17 31
-5 3 1 328.77 24.1
-5 2 -1 341.37 32.2
-5 2 -1 315.87 25.4
-3 5 -1 334.97 37.9
-5 3 1 328.07 34.8
3 2 1 330.07 42.1
-3 5 -1 322.87 28.1
-2 5 1 326.37 42.1
2 3 -1 333.17 37.2
-3 -2 1 348.67 25.6
5 -3 1 352.66 26.1
-2 5 1 289.97 45.9
-1 5 -1 246.68 35.2
-5 1 1 295.07 31
-1 5 -1 264.37 35.3
1 4 1 300.37 38.4
-4 5 1 264.87 41.5
4 1 -1 275.57 29
-1 5 -1 216.78 24.2
-5 4 -1 270.67 27.4
1 4 1 251.77 36.2
-5 4 -1 235.48 31
-4 5 1 216.88 34.1
-4 -1 -1 254.37 29.1
-4 5 1 289.57 32.4
5 -1 1 267.87 33.3
-5 4 1 237.38 31
5 -1 -1 216.58 21.3
-1 5 1 246.38 36.8
1 4 -1 269.87 28.1
-5 4 1 187.18 17.5
-4 -1 1 217.48 15.9
-5 1 -1 239.38 18.4
4 1 1 272.47 37.6
-1 5 1 239.88 33
4 1 1 225.38 19.5
-1 -4 -1 224.68 25.9
1 4 -1 182.78 16.6
1 4 -1 210.18 19.2
-5 4 1 217.08 36.8
-4 5 -1 203.68 26.6
-1 5 1 224.88 33.1
-5 1 -1 229.78 26.7
1 4 -1 221.88 38
5 -4 1 222.98 19.6
-4 5 -1 245.48 32.1
5 0 -1 426.76 33.2
-5 5 1 250.87 47.3
-5 0 -1 369.96 33.5
-5 5 -1 434.06 37.7
-5 0 1 466.05 35.9
5 -5 1 394.16 30.2
0 5 -1 419.66 39.5
0 5 -1 335.27 29.9
0 5 1 282.07 48.4
-5 5 1 329.97 32.1
0 5 -1 377.46 41.3
-5 5 -1 377.96 37.3
0 5 1 308.67 47.5
-5 5 1 370.06 39.3
5 0 1 411.76 46.2
5 0 1 404.26 27.3
3 3 -1 158.68 17.2
-3 6 -1 179.38 31.3
-3 -3 1 155.38 17.5
-3 6 1 115.59 29.2
3 3 -1 210.08 30.2
-3 6 1 136.69 38.4
-6 3 -1 215.88 29.6
-3 6 1 152.88 27.9
-6 3 1 165.08 25.9
-3 6 -1 151.88 24.9
3 3 1 142.59 22.5
-6 3 1 151.98 17.7
3 3 1 173.88 33.8
6 -3 1 152.28 23.9
-3 6 -1 157.28 25.5
-3 -3 -1 149.39 22.8
-6 3 -1 172.18 19.5
-6 4 -1 178.28 24.2
-4 -2 -1 150.08 25.1
-2 6 -1 165.88 28.5
6 -2 1 155.68 24.2
-6 4 -1 245.08 30.9
-4 6 1 180.88 30
-4 6 1 117.59 38.1
-2 6 -1 167.48 31
2 4 1 148.29 34.1
4 2 -1 188.08 27.8
-2 6 -1 111.39 20.8
2 4 1 114.09 27.4
-6 2 1 166.48 26.8
-4 6 1 138.79 26.8
-4 6 -1 208.88 36.5
-2 -4 -1 255.37 26.7
-4 -2 1 239.48 23.3
2 4 -1 280.87 26.8
-6 2 -1 224.48 29.3
6 -4 1 226.68 19.1
4 2 1 226.48 39.6
-4 6 -1 227.38 22.9
-6 4 1 165.48 29.9
-4 6 -1 217.08 27.5
4 2 1 212.38 24.3
-6 2 -1 247.68 21
-2 6 1 233.58 35.5
-2 6 1 211.08 40.3
-2 6 1 208.48 31.6
2 4 -1 241.78 34.8
-6 4 1 218.88 30
1 5 1 34.5 29.2
-5 6 1 23.7 15.2
5 1 -1 51.19 18.8
-5 -1 -1 47.1 17.9
-5 6 1 66.39 24.4
-6 1 1 65.39 8.8
-6 1 1 71.29 21.2
-1 6 -1 44.6 24.4
-6 5 -1 55.89 16.8
-6 5 -1 47.1 22.6
6 -1 1 33.8 22.9
-1 6 -1 46.5 17.7
-1 6 -1 45.5 22.3
1 5 1 27.8 24.2
-5 6 1 41.1 33.6
-5 6 -1 79.49 23.6
-5 -1 1 82.49 16.9
1 5 -1 63.19 13.2
-1 6 1 64.79 34.4
1 5 -1 60.49 19.7
5 1 1 49.2 9.4
1 5 -1 63.89 28.4
-1 6 1 89.09 24.5
-6 5 1 73.79 21.9
-6 5 1 58.99 26.6
6 -1 -1 66.89 12.1
5 1 1 37.7 28.6
-6 1 -1 88.99 20.6
-5 6 -1 84.49 22
-1 6 1 59.09 28.9
6 -5 1 56.89 9.6
-6 0 -1 55.69 18.8
-6 0 1 70.99 19.3
6 0 1 5.4 25.6
0 6 -1 52.19 27.3
0 6 -1 25 14.7
-6 6 1 22.5 28.5
0 6 1 7.3 27.8
-6 6 -1 72.99 25.3
-6 6 -1 61.49 21.1
6 -6 1 55.29 11.5
0 6 -1 47.8 23.7
-6 6 1 62.89 24.6
0 6 1 46.6 19.3
6 0 -1 48.4 14.6
0 6 1 42.4 28.9
-3 7 -1 373.86 36.3
-7 3 1 382.06 29.2
-3 -4 1 376.56 27.7
-7 4 -1 382.66 41.2
3 4 1 300.87 48.3
4 3 -1 356.36 25.8
-4 7 1 396.06 45
-4 7 1 294.57 41.6
-7 4 -1 403.76 32.5
-7 3 1 391.66 38.7
-7 3 1 298.17 30.3
-4 -3 -1 383.56 33.7
4 3 -1 407.26 44.3
-4 7 1 290.07 49.5
-3 7 -1 390.96 36.9
-3 7 -1 349.47 48
-3 7 1 406.66 60.99
3 4 -1 534.75 54.09
-3 7 1 475.55 47.4
-7 3 -1 550.74 37.8
-4 7 -1 511.35 54.59
-7 4 1 550.24 48
-3 -4 -1 563.44 41.3
-4 7 -1 452.05 44.6
-4 -3 1 526.65 37.5
4 3 1 392.96 60.99
-7 3 -1 509.65 45.7
-4 7 -1 511.65 41.2
3 4 -1 574.54 38.5
-2 7 -1 290.17 32.1
5 2 -1 332.27 41.3
2 5 1 225.58 41.4
-7 5 -1 294.47 38.2
-5 7 1 292.77 38.3
-7 2 1 290.07 23.4
-5 -2 -1 301.27 32.8
-2 7 -1 304.07 41.6
-7 2 1 332.07 35
-7 5 -1 322.17 32.5
-5 7 1 279.87 45.2
-2 7 -1 281.97 45
-5 7 1 211.58 33.7
-7 2 -1 243.98 32.9
-5 7 -1 273.77 42.1
2 5 -1 332.27 35.2
2 5 -1 329.67 44.6
2 5 -1 268.37 23.7
-2 7 1 283.67 38.9
-7 5 1 190.38 35.2
-2 -5 -1 268.87 30.8
-5 7 -1 274.57 24.9
-2 7 1 206.18 44.6
-7 2 -1 303.47 23.3
-5 -2 1 326.37 28
-5 7 -1 253.17 35.2
-7 5 1 280.47 34
-1 7 -1 51.69 19.1
7 -1 1 7.3 19.5
-6 7 1 25 12.7
-7 1 1 90.59 24.1
-7 6 -1 85.09 21.5
-7 1 1 1.4 12
6 1 -1 64.29 20.7
-7 6 -1 37.7 14.6
-1 7 -1 55.09 28.2
1 6 1 42.2 26.5
-6 7 1 79.19 26.8
-6 7 1 61.99 31.8
-1 7 -1 71.19 28.4
-6 -1 -1 27 16.7
-7 6 -1 91.09 26.5
-1 7 -1 -0.4 12.8
1 6 1 38.1 30.7
-1 -6 1 38.4 15.5
-6 -1 -1 84.99 23.1
-1 7 1 59.19 31.3
-6 7 -1 55.09 16.4
-7 6 1 86.09 23.9
-1 -6 -1 22.1 15.9
1 6 -1 92.39 30.4
6 1 1 35.7 25.4
-7 1 -1 116.39 25.8
-1 7 1 82.79 26.4
-6 7 -1 84.89 25.9
-6 -1 1 46.1 16.8
-7 1 -1 71.39 20.5
-6 7 -1 83.89 24.9
7 -1 -1 59.29 13
-6 -1 1 95.09 18.6
1 6 -1 69.69 24.6
-1 7 1 55.19 27.2
-7 6 1 61.29 23.9
-7 0 -1 173.58 26.8
-7 7 1 134.79 22.7
7 0 1 77.19 29
-7 7 -1 149.88 24.8
0 7 1 107.79 31.7
-7 7 -1 139.29 28.2
7 0 -1 166.18 26.3
0 7 -1 158.68 36.7
-7 7 1 123.49 35
-7 7 1 157.98 30.3
-7 0 -1 170.28 27.2
-7 7 -1 179.78 32.1
-7 0 1 127.69 23.1
0 7 1 125.59 27.9
0 7 1 101.09 32.1
0 7 -1 156.28 32.5
-7 0 1 177.28 28.9
4 4 -1 104.29 32.2
-8 4 1 96.79 18.5
-4 -4 1 89.09 15.3
-4 8 -1 90.99 20.7
-4 8 1 89.19 27.5
-4 -4 -1 132.29 21.5
4 4 1 55.99 30.7
-8 4 1 115.59 27
-8 4 -1 132.49 21.1
4 4 -1 80.69 14.2
-4 8 -1 132.59 35.7
-4 8 1 115.99 30.6
-8 4 1 109.19 18.4
-4 8 -1 109.79 26.4
-8 4 -1 126.59 27.5
-4 -4 1 72.29 18.5
-4 8 1 104.89 37.5
-4 8 -1 78.39 19.2
-8 3 1 14.5 12.1
-8 3 1 50.39 27
-3 8 -1 24.8 16.5
3 5 1 51.49 29.1
-5 8 1 51.39 28.9
-8 5 -1 69.89 17.7
3 5 1 2.3 18.7
-8 5 -1 55.59 27.2
-3 8 -1 37.8 23.9
5 3 -1 34.1 26.3
-8 5 -1 44.7 16
-5 8 1 19.4 31.1
-5 -3 -1 66.39 20.5
-3 8 -1 27.9 30.5
-3 8 -1 40.3 20
5 3 -1 16.2 14.4
-5 8 1 16.7 20.2
-3 -5 1 71.29 19.1
-8 3 -1 59.79 12.4
-5 -3 1 84.49 16.7
3 5 -1 57.59 16.6
-8 3 -1 63.69 19.1
-8 3 -1 74.29 24.8
-8 5 1 91.59 25.2
-5 8 -1 105.79 21.6
-3 8 1 78.99 35.7
-8 5 1 90.89 20.1
-5 -3 1 71.19 18.2
-5 8 -1 99.79 27
3 5 -1 67.09 31.2
-3 -5 -1 64.49 18.8
5 3 1 37.7 31.8
-8 5 1 47.5 19.4
-5 8 -1 57.89 14.7
-3 -5 -1 85.69 20
-5 8 -1 58.69 31.5
-3 8 1 61.69 28.8
-3 8 1 90.59 31.5
-2 -6 1 90.39 18.9
-8 6 -1 89.39 20
6 2 -1 77.29 27.7
-6 -2 -1 81.79 22.7
-2 8 -1 59.29 36.1
2 6 1 40.1 29.8
-8 6 -1 84.79 22.7
2 6 1 23.2 23
-8 2 1 57.79 19.3
-8 2 1 86.59 27.5
-8 6 -1 123.29 31.6
-6 -2 -1 65.09 21.7
-2 8 -1 54.89 20.2
-2 8 -1 87.79 21.6
-6 8 1 81.09 33.8
-2 8 -1 76.99 28.4
-6 8 1 86.29 31
-2 -6 -1 105.29 20.3
-2 8 1 136.59 31
2 6 -1 134.19 26.7
6 2 1 91.09 32.6
-8 2 -1 166.68 25.9
-2 8 1 103.59 31.1
-6 8 -1 165.68 24.2
-8 6 1 150.98 30
-8 6 1 100.09 26.7
-2 8 1 116.39 37.4
-8 2 -1 176.68 29.9
-6 -2 1 162.88 25.7
-6 -2 1 147.29 23.5
-8 6 1 116.49 20.3
2 6 -1 147.79 40.2
-6 8 -1 128.19 34.3
-6 8 -1 157.28 32.4
1 -8 -1 14.8 13.9
-8 1 1 34.6 22.7
-7 -1 -1 58.49 24.8
-8 7 -1 32.9 28.4
-1 8 -1 38.2 31.8
1 7 1 34.4 29.6
-8 7 -1 54.89 24.1
-1 8 -1 25.6 18.8
1 7 1 12.6 24.1
7 1 -1 41.7 23
-7 8 1 56.99 19.9
-1 8 -1 40.2 32.8
-1 -7 1 42 16.7
-8 7 -1 59.39 20.3
8 -1 1 -5.6 21.6
-1 8 -1 -3 13.4
1 7 1 23.4 19.5
-7 8 1 18.3 30.8
-7 8 1 26.6 24.4
-7 -1 -1 41.3 21
-8 1 1 31 19.3
1 7 -1 59.69 20.6
-1 8 1 80.19 28.3
-1 8 1 28.4 28.6
-8 1 -1 54.59 23.5
-8 1 -1 89.79 23.7
-1 -7 -1 66.99 20.1
-8 7 1 96.79 21.2
1 7 -1 48.7 27.8
-7 8 -1 44.6 28.4
-7 8 -1 90.49 29.7
8 -1 -1 29 13.1
-8 7 1 87.39 29.7
7 1 1 28.3 29
-7 -1 1 52.79 19.7
-1 8 1 41.6 32.2
1 -8 1 55.19 16
-8 7 1 39.1 26.1
1 7 -1 73.79 33.7
-7 -1 1 76.69 20.8
-7 8 -1 81.09 21.1
0 8 -1 38 21.4
-8 8 1 18.4 29.3
-8 8 1 39.4 18.8
-8 0 -1 22.8 22.9
-8 0 1 56.89 22.9
-8 8 -1 36.8 24.5
-8 8 -1 44.2 19.1
-8 8 -1 51.89 30.6
8 0 -1 16.4 16.9
0 8 -1 35 29.5
0 8 1 18.3 29.8
0 -8 -1 48.9 19.5
0 8 1 52.99 32
0 8 -1 32.7 32.6
-8 0 1 30.4 22.9
-8 8 1 29.1 26.8
-8 0 -1 38.3 22.2
0 8 1 58.99 25.1
0 -8 1 77.79 19.8
8 0 1 1.7 26.7
-4 -5 1 111.29 20.1
-5 -4 -1 116.59 21.8
-5 -4 -1 179.18 29.2
5 4 -1 161.18 26.9
-4 9 -1 103.79 28.9
-5 9 1 188.38 39.9
-5 9 1 142.19 41.4
-9 5 -1 175.68 28.1
4 5 1 118.39 39.5
-9 4 1 176.68 34.9
-4 9 -1 194.58 27.6
-9 4 1 176.18 24.5
-9 5 -1 166.58 26.1
-4 9 -1 149.59 28.3
-9 5 -1 203.78 33.6
5 4 -1 153.18 41.8
-4 9 -1 154.28 44.9
-5 9 1 124.89 29.6
-5 -4 1 344.97 36.7
-4 9 1 339.17 51.79
-5 9 -1 278.37 34.8
-5 9 -1 291.27 47.9
5 4 1 236.68 47.7
-9 5 1 340.47 46.9
-4 -5 -1 292.67 32.8
4 5 -1 303.47 49.8
-9 5 1 221.98 29.5
-9 4 -1 257.47 38.8
-4 -5 -1 277.87 38.3
-4 9 1 251.77 45.1
-9 5 1 211.38 33.4
-4 9 1 189.28 37.1
-5 9 -1 195.18 36.1
-9 4 -1 233.18 31.1
-9 4 -1 249.97 31.5
-5 9 -1 251.17 31.9
4 5 -1 258.27 35
-5 -4 1 255.67 30.8
-6 -3 -1 109.29 25.9
-3 9 -1 113.29 41.5
-9 6 -1 154.78 35.3
3 6 1 71.29 35.6
-6 9 1 117.69 40.7
6 3 -1 139.99 35.1
-9 6 -1 131.59 23.8
-9 3 1 146.49 33.9
-9 6 -1 146.39 23.1
-3 9 -1 115.69 31.2
-3 9 -1 95.69 22.7
-6 -3 -1 128.59 24.8
-9 3 1 125.19 23.6
6 3 -1 177.68 27.8
-6 9 1 135.09 22.7
-6 9 1 130.49 36
-9 3 -1 57.49 29
-6 9 -1 39.7 34.8
3 6 -1 48.8 36.1
-9 3 -1 72.19 23.7
-9 3 -1 73.69 20.1
3 6 -1 48 19.2
-9 6 1 76.49 20.4
-3 9 1 85.09 36.5
6 3 1 57.19 35.5
-3 9 1 44.7 29.9
-3 9 1 21.7 30.7
-6 9 -1 52.39 27.2
-9 6 1 27.8 20.9
-9 6 1 84.99 29.8
-3 -6 -1 60.89 20.1
-6 -3 1 59.09 18.9
-6 9 -1 62.09 21.7
-9 7 -1 394.16 44
2 7 1 319.77 57.79
-2 9 -1 377.46 40.3
-9 2 1 361.46 44.1
-7 9 1 326.77 55.39
-2 9 -1 443.26 61.59
-9 7 -1 373.96 37.1
-7 9 1 377.76 38.2
-9 2 1 366.16 38.6
-9 7 -1 361.56 49
-2 9 -1 404.56 55.29
7 2 -1 400.96 54.89
-7 -2 -1 381.66 42
-7 -2 -1 413.56 43.8
-2 -7 1 453.05 43.8
-7 9 1 381.96 50.69
-7 9 -1 329.87 45.8
2 7 -1 353.36 38.2
-7 9 -1 343.47 49.9
-9 7 1 365.76 47.8
-9 2 -1 347.37 43.2
-2 9 1 307.27 52.79
-9 7 1 331.57 46.3
-2 9 1 313.87 46.7
7 2 1 216.48 46.6
2 7 -1 271.37 43.6
-7 9 -1 351.06 34.6
-2 -7 -1 382.56 41.6
-9 2 -1 309.97 33.8
-7 -2 1 364.46 35.6
2 7 -1 419.26 61.69
-9 2 -1 379.16 38
-2 9 1 264.37 46.4
-9 7 1 357.76 37.4
-1 9 -1 101.19 38.9
1 -9 -1 110.69 22
-9 8 -1 108.79 28
-8 9 1 73.79 30.9
-9 1 1 73.89 26.6
-8 9 1 76.99 37.2
-8 -1 -1 106.59 28.7
-8 9 1 121.69 23.8
-8 -1 -1 148.49 29.3
-1 9 -1 127.29 24.9
-9 1 1 112.09 24.2
-9 8 -1 117.69 23.1
1 8 1 34.5 28.8
-9 8 -1 133.29 37.1
1 8 1 99.79 38.8
8 1 -1 65.69 23.9
-1 9 -1 94.29 37.5
1 8 -1 60.89 31.5
-1 9 1 69.99 37.4
-1 -8 -1 88.29 20.2
-9 1 -1 116.79 30.5
-8 9 -1 120.59 22.8
1 8 -1 122.89 26.2
1 -9 1 160.08 28.7
-8 -1 1 90.79 24.2
-8 -1 1 49.6 22.4
-9 1 -1 134.39 28.6
-8 9 -1 95.89 34.7
1 8 -1 120.79 41.1
-1 9 1 62.79 36.2
-8 9 -1 86.39 33.7
-9 8 1 99.09 32.9
-9 8 1 129.09 24.8
-9 8 1 39.7 29.7
-9 0 -1 13.1 26.4
-9 9 -1 2.5 31.7
0 9 1 -23.2 26.5
0 9 -1 -26.1 26.5
0 9 -1 4.8 22.1
-9 9 -1 -16.8 28.7
-9 0 1 1.3 19
-9 0 -1 4.6 22.9
0 9 -1 -27.3 38.8
9 0 1 -59.99 34.9
-9 9 -1 10.7 18.3
0 -9 -1 15.9 18.2
0 -9 1 33.7 18.6
-9 0 1 -11.5 22
-9 9 1 -26.3 33.8
-9 9 1 6.8 18.9
-9 9 1 9.3 27.5
0 9 1 12.8 35.3
-5 10 -1 854.41 64.59
5 5 -1 870.91 65.79
-5 10 1 808.02 61.99
5 5 1 813.32 88.29
-10 5 -1 786.82 60.89
-10 5 1 877.91 75.89
5 5 -1 1004.6 86.59
-10 5 -1 843.22 72.29
-10 5 1 838.82 62.79
-5 10 -1 954.2 87.99
-5 10 1 895.21 78.99
-5 -5 1 921.31 65.89
-5 10 1 884.91 84.69
-5 -5 1 820.92 61.49
-5 -5 -1 900.61 67.09
-10 5 -1 728.23 60.09
-6 -4 -1 44.3 20.2
-4 10 -1 100.19 24.1
6 4 -1 15.4 38.8
-6 10 1 97.99 39.1
6 4 -1 100.99 26.6
-10 6 -1 69.49 29
-10 4 1 70.59 22.1
4 6 1 72.59 35.8
-4 -6 1 56.49 17.7
-6 10 1 73.39 21.5
-4 10 -1 57.69 41.6
-10 4 1 59.79 19
-6 10 1 31.1 37.8
-6 -4 -1 57.59 21.6
-10 6 -1 69.49 20.9
-10 4 1 48 33.2
-4 10 -1 24.2 26.1
6 4 1 38.1 36.4
4 6 -1 56.29 37.6
-6 10 -1 99.69 24.5
-4 10 1 36.2 35.9
-10 6 1 81.69 20.7
-4 10 1 27.7 30.6
-10 4 -1 70.59 23.6
-6 10 -1 26.5 39.2
-6 -4 1 68.39 20.5
-6 10 -1 22.7 28.8
4 6 -1 60.29 23
-10 4 -1 73.39 21.1
-10 6 1 55.69 32.1
-4 10 1 40.4 33.7
-4 -6 -1 70.49 19.8
-6 -4 1 67.49 18.9
-10 4 -1 51.29 30
-7 -3 -1 431.06 47.5
-3 10 -1 552.24 70.29
3 7 1 460.95 66.39
-3 10 -1 422.46 57.69
-10 3 1 506.35 46.3
-3 10 -1 510.55 47.3
-10 7 -1 560.14 59.09
-7 10 1 498.85 44.4
-7 -3 -1 558.14 47.8
-3 -7 1 568.54 47.3
7 3 -1 540.55 67.59
-10 3 1 437.16 51.79
-10 7 -1 555.84 45.7
-7 10 1 508.15 75.49
-7 10 1 475.55 58.79
-3 10 1 529.05 63.89
-3 10 1 483.65 66.29
-10 7 1 622.74 60.19
-10 3 -1 631.24 52.59
3 7 -1 674.63 76.29
-7 -3 1 645.74 50.19
3 7 -1 588.84 51.89
-10 3 -1 603.64 49.3
-10 3 -1 583.64 57.59
-7 10 -1 582.04 48.6
-3 -7 -1 639.74 54.09
-7 -3 1 508.35 48.9
-10 7 1 584.14 49
-7 10 -1 590.14 71.79
-7 10 -1 550.54 63.49
7 3 1 527.75 76.09
-10 2 1 276.47 42.1
2 8 1 229.18 47.4
-8 10 1 276.57 46.9
2 -10 -1 338.97 39
-10 2 1 358.36 40.6
-10 8 -1 328.97 55.79
-2 10 -1 255.37 48.9
-2 10 -1 343.37 40
-8 -2 -1 353.56 38.2
-2 -8 1 411.26 42.8
-8 10 1 245.78 50.99
-10 8 -1 348.47 35.6
-8 10 1 322.97 36.1
-2 10 -1 278.07 50.49
-8 -2 1 406.16 40.9
-10 8 1 310.67 48.7
-8 10 -1 361.86 58.79
-2 -8 -1 409.86 41
-2 10 1 254.37 51.39
-8 10 -1 318.47 55.39
-8 10 -1 355.36 37.3
2 -10 1 422.56 39.5
2 8 -1 441.56 74.09
-2 10 1 284.47 50.99
-10 8 1 426.76 40.6
2 8 -1 374.06 42
-10 2 -1 377.36 40.4
-10 2 -1 362.26 38.4
-10 2 -1 395.76 47
-10 1 1 72.19 21.9
1 -10 -1 61.69 18.8
-9 10 1 -13.5 38.4
-1 -9 1 86.09 18.4
-9 10 1 90.39 23.9
-9 10 1 62.49 31
-10 9 -1 99.89 25
-1 10 -1 41.3 38.8
-9 -1 -1 117.49 27.9
-10 9 -1 29.2 35.9
1 9 1 20.3 34.2
-1 10 -1 82.39 26.3
1 9 -1 64.19 24.8
-10 1 -1 24.8 27.8
-1 10 1 -13.8 31.5
1 -10 1 65.19 18.1
-1 -9 -1 50.09 18.1
-9 -1 1 67.49 23.3
-10 9 1 58.09 21.6
-9 10 -1 2 29.5
-10 1 -1 37.1 22.6
-9 10 -1 30.2 33.4
-10 9 1 25.3 31.3
1 9 -1 28.8 38.5
-9 10 -1 67.59 22.1
-10 10 -1 395.96 41.3
0 -10 -1 394.26 41.9
-10 10 1 308.97 37.5
0 10 -1 365.26 43.7
0 -10 1 387.46 40.6
-10 0 -1 404.26 43.9
-10 0 1 349.57 38.3
-6 -5 -1 130.49 23
5 6 1 74.39 42.9
-11 5 1 191.08 43.7
6 5 -1 175.78 29.6
-6 11 1 85.69 42.3
-5 -6 1 183.28 29.8
-11 6 -1 150.08 24.6
-5 11 -1 130.39 25.2
-6 -5 -1 129.99 24
-11 5 1 109.89 22.8
-11 5 1 221.48 28.9
-11 6 -1 130.39 36.2
-5 11 -1 153.88 47.3
-11 6 -1 177.38 30.4
-5 -6 1 150.18 27.4
6 5 -1 106.49 45.1
-6 11 1 135.69 24.5
-6 -5 1 119.79 22
6 5 1 29.3 36.7
5 6 -1 138.89 28.3
-6 11 -1 98.59 23.5
-6 -5 1 155.48 25
-11 5 -1 114.69 24.2
-5 11 1 119.09 24.6
-11 5 -1 144.59 25.5
-5 -6 -1 121.29 23.4
-6 11 -1 78.69 43.9
5 6 -1 76.29 45
-11 6 1 84.79 36.4
-11 6 1 170.98 26.3
-11 5 -1 96.49 36.3
-5 11 1 70.99 39.6
-7 -4 -1 174.78 27.1
4 7 1 94.29 39.6
-11 4 1 187.78 31.8
-11 7 -1 108.89 35.7
-4 -7 1 158.78 25.5
-4 -7 1 242.58 33.7
-4 11 -1 120.89 44.1
-11 4 1 168.78 39.4
-11 7 -1 177.58 30.8
-4 11 -1 164.38 28.1
-11 4 1 221.68 32.2
-7 11 1 131.99 45
-7 -4 -1 186.98 31.8
-7 11 1 189.28 31.7
-4 -7 -1 188.38 34.3
-7 -4 1 172.08 31.8
-11 4 -1 157.98 27.9
-7 11 -1 99.59 45.3
-11 4 -1 188.88 27.6
4 7 -1 186.18 30
-7 11 -1 207.88 30.1
-11 4 -1 172.58 39.3
-4 11 1 100.49 41.5
-4 11 1 138.79 25.1
-7 -4 1 205.18 31.2
4 7 -1 141.29 46.5
-11 7 1 143.29 39.3
-11 7 1 162.08 25.1
-8 11 1 158.48 26.4
-3 -8 1 182.78 32.9
3 -11 -1 103.99 21.6
-11 3 1 146.89 28.5
-11 8 -1 95.29 39.8
-8 -3 -1 160.58 28
-8 11 1 37.2 41.7
-3 11 -1 150.58 27.1
-3 11 -1 6.3 34.5
-8 -3 -1 102.19 22.8
-11 3 1 166.38 26.5
-11 8 -1 166.68 28.3
-3 11 1 63.39 18.4
-11 8 1 160.18 41.8
-8 11 -1 129.09 42.1
-8 -3 1 154.28 28.9
-3 11 1 17 32.9
-8 11 -1 -12.8 54.79
3 -11 1 96.39 18.1
3 8 -1 91.69 46.7
-11 3 -1 112.89 33.1
2 9 1 480.45 66.79
-11 9 -1 449.06 57.69
-9 -2 1 765.52 58.99
-11 2 -1 681.33 60.89
-9 11 -1 742.33 58.99
-11 2 -1 748.63 58.69
2 -11 1 696.53 57.49
-11 9 1 658.33 57.49
-2 -9 -1 776.32 60.49
2 9 -1 768.42 61.99
1 -11 -1 518.55 48.1
-10 -1 -1 550.34 50.09
-10 11 1 474.95 46.8
-1 -10 1 542.35 48.9
-11 1 1 463.65 45.9
-11 10 -1 551.94 49
-1 11 -1 503.55 50.49
-11 1 -1 610.44 53.99
1 10 -1 537.15 52.49
-11 10 1 496.65 49
-1 -10 -1 567.44 51.09
-10 11 -1 597.44 51.09
-10 -1 1 592.94 50.79
1 -11 1 541.95 49.1
-11 1 -1 505.75 49.99
-11 0 -1 199.78 33.4
0 11 -1 121.79 30.5
0 -11 -1 107.19 23.4
-11 11 -1 189.28 30.5
-11 0 1 154.88 29.4
-11 11 1 118.09 25
0 -11 1 104.99 21.7
-12 6 -1 192.08 30.6
-6 -6 1 239.08 31.3
-12 6 -1 168.98 30.2
-6 12 1 206.28 33.1
-6 -6 1 212.08 33.8
6 6 -1 184.58 29.8
-6 -6 -1 170.08 28.5
-6 12 -1 170.68 29.3
-12 6 1 213.18 32.5
-6 -6 -1 165.48 31.3
-12 6 1 145.29 25.1
-5 -7 1 148.39 27.4
-5 12 -1 160.08 27.5
-12 7 -1 130.69 24.5
-7 -5 -1 172.28 27.1
-7 -5 -1 171.48 31
-12 5 1 172.28 26.7
-12 7 -1 210.88 28.7
-7 12 1 124.49 24.7
-12 5 1 169.68 27.9
-5 -7 1 210.78 33.8
-7 12 -1 122.29 26.7
-7 -5 1 131.89 22.7
-7 -5 1 166.78 26.7
-5 -7 -1 124.49 23.3
-12 5 -1 176.98 28.1
-5 12 1 124.49 25.3
5 7 -1 172.38 31.3
-12 5 -1 112.89 23.7
-12 4 1 174.78 28.9
-12 8 -1 230.08 31
-8 -4 -1 179.58 29
-12 4 1 218.18 30.7
-8 -4 -1 158.28 27
-8 12 1 192.78 29.6
-4 12 -1 156.78 28.9
-4 -8 1 110.89 21.9
-4 -8 1 222.18 35.1
-4 12 1 69.69 23.2
-12 4 -1 104.39 24.5
-8 12 -1 78.59 22.6
-12 4 -1 124.89 27.6
-12 8 1 -11.6 32.1
-8 -4 1 68.49 19.4
-8 -4 1 110.69 23.1
-12 8 1 139.89 25.7
4 8 -1 77.49 26.5
-4 -8 -1 102.29 21.3
-12 3 1 197.58 34.5
-9 -3 -1 176.08 33.7
-9 12 1 189.88 32.6
-12 3 1 219.88 35.7
-3 -9 1 237.88 36.1
-9 -3 -1 237.28 34.7
-12 9 -1 220.78 34.4
3 -12 -1 174.68 31.3
-3 12 -1 216.38 33.5
3 9 -1 187.38 32.2
-3 -9 -1 235.68 36.2
-12 3 -1 182.98 30.5
-3 12 1 128.69 27.4
-9 12 -1 231.48 36.6
-12 3 -1 235.78 32.5
-12 9 1 199.18 32.7
3 -12 1 144.09 23.3
-9 -3 1 213.28 30
-10 -2 -1 170.48 30.5
2 -12 -1 96.49 22.3
-12 10 -1 147.89 28.1
-2 12 -1 92.39 27.9
-2 -10 1 145.19 24.4
-12 2 1 113.99 26.5
-10 12 1 105.19 24
-12 2 -1 171.68 29.2
-12 2 -1 242.08 35.6
-2 -10 -1 214.88 36.1
-10 12 -1 249.78 33.5
-12 10 1 219.88 31.2
2 -12 1 150.78 25.1
-10 -2 1 189.88 30.4
2 10 -1 163.48 33
-11 12 1 324.57 40.2
-12 11 -1 320.17 39.9
-1 -11 1 327.07 40.8
-11 -1 -1 297.57 40.3
-12 1 1 296.47 38
-1 12 -1 344.27 45.1
1 -12 -1 288.27 39.5
1 11 -1 215.08 36.3
-11 12 -1 303.47 38
1 -12 1 195.48 35.3
-12 11 1 265.97 36.3
-12 1 -1 134.59 28.9
-12 1 -1 291.97 39.9
-1 -11 -1 200.38 33.4
-11 -1 1 194.38 31.9
-12 0 -1 505.65 53.59
-12 0 -1 592.14 53.49
0 -12 1 625.14 54.19
0 -12 -1 546.25 53.59
0 12 -1 616.34 58.89
-12 12 -1 584.34 51.69
-12 12 1 561.74 53.09
-12 0 1 586.24 53.99
-7 13 1 8.1 20.4
-6 13 -1 19.9 20.1
-7 -6 -1 23.8 19
-6 -7 1 15.9 17.1
-13 7 -1 16.4 18.2
-13 6 1 17.2 17.2
-7 -6 -1 10.8 19.1
-6 -7 1 -3.2 17.4
-13 6 1 24.2 19.6
-13 7 -1 6.8 18.7
-7 -6 1 17.3 19.5
6 7 -1 14.4 23.4
-13 7 1 -4.4 13.6
-13 7 1 9.8 18.9
-6 13 1 23.7 21.5
-13 6 -1 19.1 18.3
-13 6 -1 14 19.8
-7 -6 1 22.9 17.9
-7 13 -1 20.7 20.6
-6 -7 -1 11.3 18.4
-6 -7 -1 10.1 17
-13 5 1 318.57 39.1
-13 5 1 293.07 38.4
-8 -5 -1 326.97 41.7
-5 -8 1 249.28 33.8
-8 13 1 316.07 39.7
-5 -8 1 366.16 41.8
-8 -5 -1 319.57 37.2
-13 8 -1 313.67 38.7
-5 13 -1 322.97 40.4
-13 8 1 276.47 33.7
-8 -5 1 325.97 36.6
-8 13 -1 281.87 36.9
-13 5 -1 272.97 38.2
-13 5 -1 275.07 38.1
-5 -8 -1 320.17 40.8
-8 -5 1 323.17 40.2
-5 13 1 290.47 37.5
5 8 -1 276.87 44.4
-9 -4 -1 42.1 20.1
-9 13 1 47.8 22.9
-9 -4 -1 60.79 22.3
-13 4 1 44.4 23
-4 13 -1 51.89 22.4
-13 4 1 47.9 24.8
4 -13 -1 10.5 14.9
-4 -9 1 82.39 21.7
-13 9 -1 59.49 20.7
-9 -4 1 46.1 20.1
4 9 -1 19.4 25.8
-9 -4 1 32.1 17.4
-4 13 1 60.79 23.2
-4 -9 -1 52.29 20.6
-13 4 -1 37.3 22.5
-13 9 1 55.79 22.2
-13 4 -1 52.69 22.6
-9 13 -1 46.7 23.9
-13 3 1 186.28 32.5
-10 -3 -1 185.38 34.2
-10 13 1 222.98 33.4
-13 10 -1 276.97 36.1
-3 -10 1 209.58 36.9
-3 13 -1 160.78 32.6
-13 3 1 206.28 32.4
-13 10 1 203.38 32.1
-10 -3 1 239.48 33.5
-13 3 -1 168.48 30.6
-10 13 -1 174.28 30.8
-3 -10 -1 168.78 27.2
-13 3 -1 200.78 35.1
3 10 -1 152.48 32
-13 11 -1 362.46 42.2
-2 13 -1 360.66 46.4
-2 -11 1 355.16 42.7
-11 -2 -1 337.17 39
-13 2 1 306.77 38.9
2 -13 -1 272.77 39.1
-11 13 1 317.57 41.3
-13 2 1 288.07 42.4
-13 11 1 313.27 40.2
2 -13 1 213.38 35.1
-2 -11 -1 279.97 39.2
-13 2 -1 292.07 39.4
-13 2 -1 250.77 41.8
-11 -2 1 280.47 37.5
2 11 -1 192.58 35.9
-11 13 -1 311.77 41.6
-12 -1 -1 124.19 30.6
-1 13 -1 90.09 30.8
-13 12 -1 91.29 26
-12 13 1 83.09 26.9
-1 -12 1 59.69 20.2
1 -13 -1 83.69 22.9
-13 1 1 75.39 24.8
-13 1 -1 117.49 29.2
1 12 -1 102.79 32.2
-12 -1 1 180.98 32.8
-13 12 1 120.79 28.2
1 -13 1 95.89 22.4
-1 -12 -1 120.69 25.2
-13 1 -1 134.29 29.9
-12 13 -1 166.68 31.6
-13 13 1 24 22.9
-13 0 1 32.8 23.5
-13 0 -1 24.2 25.9
0 -13 -1 10.9 17.8
-13 0 -1 41.4 24.8
0 -13 1 21.1 18.9
0 13 -1 53.79 30.6
-13 13 -1 28.3 25.3
-7 14 -1 36.6 24
-14 7 -1 16.5 21.6
-7 -7 1 34.8 17.8
-14 7 -1 20.5 19.9
-14 7 1 13.3 17.3
-7 -7 -1 37.5 19.6
-7 -7 -1 32.6 19.4
-7 14 1 21.3 21.6
-7 -7 1 37.5 20.1
-14 7 1 52.99 22.4
-8 -6 -1 248.88 34.8
-6 -8 1 228.78 33.5
-6 -8 1 345.07 42.3
-6 14 -1 283.97 40.1
-8 -6 -1 293.87 41.5
-14 8 -1 207.68 34.6
-14 8 -1 335.97 38.8
-14 6 1 240.68 36.6
-14 6 1 320.27 39.2
-8 14 1 304.77 39.2
-8 -6 1 268.17 35.9
-14 8 1 280.07 35.9
-8 14 -1 259.97 39.5
-8 -6 1 287.37 38.8
6 8 -1 270.57 39.2
-14 6 -1 263.47 37.5
-6 -8 -1 290.17 40.4
-14 6 -1 207.78 37.8
-6 14 1 222.38 38.4
-9 -5 -1 61.69 22.4
-5 -9 1 69.29 22.1
-5 -9 1 25.5 18.5
-14 9 -1 70.19 23.8
-9 -5 -1 25.4 19.2
-9 14 1 49.99 24.6
-5 14 -1 22.5 23
-14 5 1 51.89 23.4
-14 5 1 47.3 24.8
-9 -5 1 65.49 23.1
5 9 -1 54.99 30.3
-9 14 -1 49.2 25.8
-5 14 1 42 22.6
-9 -5 1 44.2 20
-14 5 -1 41.2 21.9
-5 -9 -1 73.09 22.7
-14 5 -1 57.59 24.1
-14 9 1 64.49 22.8
-14 4 1 705.33 63.69
-4 -10 1 813.32 65.89
-10 14 1 758.42 64.39
-10 -4 -1 609.84 62.79
-4 14 -1 795.42 65.79
-14 10 -1 823.02 63.99
-10 -4 -1 782.32 62.39
-14 4 1 792.32 64.39
-4 14 1 552.64 57.19
4 10 -1 653.73 62.69
-14 4 -1 686.93 60.49
-10 -4 1 565.74 56.69
-10 -4 1 724.43 57.89
-10 14 -1 705.83 59.89
-14 4 -1 699.23 59.79
-4 -10 -1 701.43 60.29
-14 10 1 719.23 58.29
-3 14 -1 133.29 31.4
3 -14 -1 69.49 20.9
-3 -11 1 152.28 27.9
-11 14 1 103.19 29.3
-11 -3 -1 123.29 28.9
-14 3 1 80.89 26.4
-14 3 1 105.39 27.5
-14 11 -1 104.19 26.4
3 -14 1 76.69 20.9
3 11 -1 95.39 31.2
-14 3 -1 115.99 28.9
-3 -11 -1 169.78 29.1
-11 -3 1 115.89 24.5
-14 3 -1 191.98 35.6
-12 -2 -1 89.29 28.1
-12 14 1 69.99 27.8
-2 -12 1 81.79 23.2
-14 2 1 70.89 25.7
-14 2 1 68.49 28.5
-2 14 -1 52.39 29.5
-14 12 -1 91.69 28.2
-12 14 -1 149.49 34
2 -14 1 72.39 22.3
-14 2 -1 107.39 30.4
-14 2 -1 110.99 30.9
-12 -2 1 116.99 27.8
-14 12 1 126.09 30.6
2 12 -1 116.49 34.7
-2 -12 -1 112.49 25.9
-13 -1 -1 95.09 28.8
-14 1 1 108.89 27.9
-14 1 1 90.39 30.3
-1 14 -1 79.19 31
-13 14 1 66.19 27.2
-13 -1 -1 66.59 27.3
-1 -13 1 123.79 26.6
-14 13 -1 105.79 29
1 -14 -1 65.99 21.3
-1 -13 -1 61.29 22.5
1 13 -1 64.69 32.4
-14 1 -1 94.99 31.1
1 -14 1 78.99 23.5
-14 13 1 93.59 27.5
-13 14 -1 67.49 28.7
-14 1 -1 56.09 28.5
-13 -1 1 83.89 27.1
-14 14 1 13.2 24.4
0 -14 -1 21.2 20.1
14 0 1 -1.3 19.9
-14 0 1 -34.1 17.8
-14 0 -1 0.6 23.4
0 14 -1 10.7 28.9
0 -14 1 12.6 21.5
-14 0 -1 -16.4 17.5
-14 0 1 3.4 21.5
-14 14 -1 9 17
-14 14 -1 19.5 26.6
-14 0 -1 -6.8 25.6
14 0 -1 13.6 19.9
-15 7 1 120.39 27.4
-8 15 1 73.89 25
-15 7 1 78.19 23.2
-7 -8 1 62.49 21.8
-7 15 -1 102.59 28.4
-8 -7 -1 82.89 23.4
-15 8 -1 103.79 26.8
-15 8 -1 52.19 22.2
-8 -7 -1 53.49 21.4
-7 -8 1 90.79 24.5
-7 -8 -1 23.7 18.5
-15 8 1 56.89 21.5
-15 7 -1 51.99 24.3
-8 -7 1 70.59 23.9
-8 15 -1 43.9 24.3
-7 15 1 40.9 24
-7 -8 -1 86.49 24.2
-15 7 -1 48.1 23
-8 -7 1 80.39 23.5
-9 -6 -1 15.3 20.2
-6 15 -1 -4.2 23
-15 6 1 8.1 20.5
-15 9 -1 9.9 20.5
-9 15 1 6.4 22.9
-9 -6 -1 7.5 19.4
-15 6 1 8.6 22.1
-15 9 -1 0.7 16.2
-6 -9 1 16.5 20.3
-6 -9 1 7.7 18.2
-15 9 1 14.5 20.3
6 9 -1 -5.4 26.9
-15 6 -1 15.7 23.6
-9 15 -1 20.1 24.1
-9 -6 1 -0.5 19.7
-6 -9 -1 20.5 18.2
-6 15 1 24.2 22.5
-9 -6 1 6.7 18.4
-15 6 -1 14.4 22.5
-15 5 1 137.39 31.4
-10 -5 -1 57.89 22.3
-15 5 1 106.69 30.3
-10 15 1 56.19 27
-10 -5 -1 105.79 27.2
-5 15 -1 83.19 28.5
-5 -10 1 146.29 28.2
-15 10 -1 92.99 26.3
-10 15 -1 53.79 26.9
-10 -5 1 34.2 20.5
5 10 -1 72.79 31
-10 -5 1 54.09 22.4
-15 5 -1 66.49 27.8
-5 15 1 44.8 25.1
-15 10 1 106.19 28.3
-15 5 -1 64.49 25.6
-5 -10 -1 75.79 23.3
-15 11 -1 103.79 27.5
-11 -4 -1 118.39 28
-4 15 -1 116.79 32.1
-15 4 1 90.69 30.4
-15 4 1 137.49 31.6
-11 15 1 105.29 30.4
-4 -11 1 111.79 25.8
-4 -11 -1 118.89 25.9
-11 15 -1 163.68 36.2
-11 -4 1 124.49 27
4 11 -1 98.69 32.9
-15 4 -1 119.69 31
-15 4 -1 137.39 32
-15 11 1 157.88 31.1
-15 3 1 153.88 34.7
-12 15 1 100.19 30.2
-3 -12 1 157.78 28.6
-15 3 1 102.59 30.4
-12 -3 -1 169.48 31.9
-3 15 -1 96.59 31.8
-15 12 -1 138.29 30.9
3 -15 -1 59.99 20.5
3 12 -1 171.48 38.5
-12 15 -1 179.58 37
-15 3 -1 158.28 35.8
-3 -12 -1 111.69 26.3
-12 -3 1 205.08 34.1
-15 12 1 171.08 32.8
-15 2 1 537.05 56.89
13 2 -1 498.95 47.4
-2 -13 1 551.14 55.39
-15 13 -1 526.45 44.6
-2 15 -1 517.65 59.39
-15 2 1 448.36 53.09
-15 13 -1 519.95 54.19
-13 15 1 517.85 55.49
-13 -2 -1 475.55 52.99
-15 2 -1 361.66 51.89
-13 15 -1 558.74 57.79
-15 13 1 496.05 51.19
2 13 -1 505.95 59.89
-15 2 -1 520.15 53.99
15 -2 -1 462.65 43.4
13 2 1 339.67 41.3
2 -15 1 365.66 48.8
-13 15 -1 470.55 41.2
-13 -2 1 502.55 48.7
-14 15 1 50.19 27.4
-14 -1 -1 3.3 23.7
1 -15 -1 19.3 19.1
-15 1 1 36.2 29.4
-14 -1 -1 25.4 19.6
-14 -1 -1 3.1 23.4
-1 -14 1 25.8 22.6
14 1 -1 39.5 22.9
-15 1 1 37.3 26.3
15 -1 1 36.6 20.8
15 -14 -1 44.4 24
1 14 1 -3.3 16.5
-1 15 -1 28.8 30.6
-15 14 -1 45.3 27.1
-15 1 1 8.9 19.1
-15 14 -1 23.3 20.4
-14 15 1 2.9 16.2
-15 1 -1 26.9 22.6
15 -1 -1 34.8 22.4
1 -15 1 20.2 21.5
15 -14 1 6.6 17
-14 -1 1 32.7 21.4
-15 1 -1 36.5 30.2
-1 -14 -1 43.1 22.2
-15 14 1 30.5 18.7
-15 14 1 53.69 27.7
-14 -1 1 40 23.9
1 14 -1 26.7 32.3
-14 15 -1 38.2 22.7
14 1 1 29.7 22.4
-14 15 -1 66.99 30.3
-15 1 -1 61.79 27.3
-15 0 1 340.27 45.5
-15 15 -1 356.96 39.6
15 -15 -1 263.97 36
-15 0 1 320.67 38.1
15 0 -1 348.17 43.4
-15 15 1 327.57 39
-15 0 -1 341.97 46.3
0 15 -1 245.08 43.3
0 -15 1 269.87 48.9
-15 15 -1 320.87 49.3
0 -15 -1 301.97 45.6
0 15 1 225.58 35.6
-15 0 -1 305.67 37.5
-15 15 1 324.37 48.3
15 0 1 350.56 42.8
-15 0 1 306.97 49.6
8 -16 1 -18.9 12.2
-8 16 1 -5.8 23.4
-8 -8 1 5.9 20.3
-8 -8 1 19.8 19.7
-8 -8 -1 -1.3 18.9
-16 8 -1 -11.9 22.8
-8 -8 -1 10.6 19.8
8 8 1 -3.8 18.3
-16 8 1 -7.2 18.8
8 -16 -1 -10.5 11.5
-8 16 -1 3.6 25.2
-16 8 -1 16.2 22
-9 -7 -1 129.89 26.5
-9 -7 -1 81.69 24.5
-16 9 -1 185.98 32.3
-7 16 -1 99.69 28.6
-7 -9 1 79.09 24.4
-9 16 1 140.19 29.9
-16 7 1 115.79 27.2
9 7 1 41.4 21.8
-16 7 -1 126.39 29.3
-9 -7 1 108.39 26.1
-9 16 -1 172.18 33.2
-16 7 -1 190.18 33.7
-9 -7 1 99.99 24.3
-7 16 1 90.59 26.7
-7 -9 -1 179.38 29.1
-6 -10 1 75.29 24.1
-6 16 -1 59.79 29
-16 6 1 99.49 28.6
-16 6 1 73.79 27.1
10 6 -1 -3.9 20.6
-10 16 1 64.09 27.2
10 -16 1 27.4 16.5
-10 -6 -1 46.5 22.6
-16 10 -1 48.9 24.4
-10 -6 -1 54.79 22.9
-6 16 1 17 23
-10 -6 1 71.89 25.7
-16 6 -1 78.29 28
-16 6 -1 74.29 28
-6 -10 -1 70.59 22.1
-16 10 1 88.69 28.2
16 -10 1 56.89 20.2
10 6 1 56.29 23.6
-10 -6 1 53.29 22.2
-10 16 -1 61.59 28.2
10 -16 -1 23.7 15.5
6 10 -1 64.99 31.8
-5 16 -1 285.77 46.4
-16 11 -1 233.58 30.4
11 5 -1 168.78 29
-5 -11 1 306.07 46.5
16 -11 -1 254.27 34
-16 5 1 299.77 44.2
-11 16 1 286.87 45.2
-11 -5 -1 234.78 39.5
-16 11 -1 277.67 42.3
-16 5 1 217.48 37.5
-11 -5 1 275.67 39.2
16 -5 -1 156.08 26.1
-5 -11 -1 273.67 42.5
-16 5 -1 160.18 33.3
5 11 -1 252.77 42.7
11 5 1 275.87 38.7
-11 16 -1 292.77 41.7
-16 11 1 231.88 40.4
-16 5 -1 189.58 36.5
16 -11 1 225.58 35.9
-16 12 -1 716.63 53.49
-16 4 1 606.14 63.19
-12 16 1 701.83 63.49
-4 16 -1 582.04 63.69
-12 -4 -1 648.14 59.69
-16 12 -1 720.23 62.69
-4 -12 1 718.43 65.39
12 4 -1 722.93 57.39
16 -12 -1 636.34 57.29
4 12 1 532.95 55.59
-16 4 1 694.23 65.29
-12 -4 1 657.03 60.49
16 -12 1 605.94 55.69
-16 12 1 732.03 63.09
-16 12 1 691.63 53.39
-12 16 -1 663.03 65.99
12 4 1 672.43 57.89
4 12 -1 685.93 71.49
-4 -12 -1 739.73 64.99
-16 4 -1 632.34 64.49
-16 4 -1 610.34 61.89
-12 16 -1 735.83 54.79
16 -4 -1 704.83 57.09
3 13 1 10.3 25.6
13 3 -1 -13.5 24
-16 13 -1 30.4 22.5
-16 13 -1 24.2 25.9
-3 -13 1 27.7 22.5
-3 16 -1 13.2 28.3
-13 16 1 -8.4 16.1
-16 3 1 15.1 28.5
16 -3 1 -3.9 16.5
-13 16 1 4.8 27.8
-13 -3 -1 20.2 24
16 -13 -1 5.2 23.4
-16 3 1 -20.8 18.4
3 -16 -1 -6.2 18.6
-13 -3 -1 4.3 17.6
13 -16 1 -23.5 12.3
-16 3 1 25.7 26.8
16 -3 -1 33.8 21.9
-16 3 -1 31.1 26.6
-13 -3 1 17.9 21.5
-16 13 1 16.2 24.6
-16 13 1 5.5 21.2
16 -13 1 19.5 23
-16 3 -1 -2.3 24.7
3 -16 1 -4.2 19.2
-13 16 -1 1 22.3
-13 16 -1 20 28.6
-3 -13 -1 17.3 22
-16 3 -1 -9 21.5
13 3 1 4.6 24.2
13 -16 -1 -19.4 13.8
3 13 -1 0.4 31.1
-14 16 1 283.17 36
-16 2 1 256.67 30.9
2 14 1 281.87 36.8
-2 -14 1 249.28 47.4
-16 2 1 227.68 40
-16 2 1 157.98 35.2
-14 16 1 202.28 38.9
14 2 -1 247.48 41.9
16 -2 1 270.67 39.8
-16 14 -1 302.27 43
-14 -2 -1 236.68 42
-2 16 -1 199.88 40.5
-16 14 -1 260.67 36.1
-14 -2 -1 238.08 34.1
16 -14 -1 275.27 35
-2 -14 -1 101.99 27.5
16 -14 1 151.18 29.1
-14 16 -1 175.18 38.5
-14 16 -1 143.09 27
2 -16 1 74.19 25.6
14 2 1 122.09 27.7
-16 2 -1 82.19 29.6
-16 2 -1 100.79 30.2
-14 -2 1 164.68 33.1
-14 -2 1 201.48 27.6
-16 14 1 162.48 27
-16 14 1 155.58 35.2
16 -2 -1 186.18 29.7
-16 2 -1 190.08 27.9
15 1 -1 162.28 29.7
-15 -1 -1 177.28 35.1
-15 16 1 186.08 37.9
16 -15 -1 185.18 32.5
1 15 1 139.29 30
-15 -1 -1 233.98 30.1
-16 15 -1 162.98 35.8
-1 -15 1 149.09 31.1
-16 15 -1 260.27 30.2
-16 1 1 174.58 38.6
-16 1 1 192.58 27.1
-15 16 1 242.78 29.9
-16 1 1 164.88 36.6
16 -1 1 200.58 31.2
-1 -15 -1 250.77 45.7
-16 15 1 181.48 35.7
15 1 1 266.37 41.5
16 -1 -1 248.98 40.7
-15 -1 1 266.47 34.2
-15 -1 1 251.47 42.9
-16 1 -1 260.37 42.2
15 -16 -1 239.88 34.7
-15 16 -1 317.17 47
-16 1 -1 227.88 35.5
16 -15 1 270.67 43.2
-16 15 1 257.07 36.7
-15 -1 1 162.18 35.7
-1 16 1 256.17 39.9
-15 16 -1 271.97 39.6
-16 0 1 125.39 23.8
-16 16 1 105.79 23.5
-16 0 -1 89.99 22.8
-16 16 -1 158.18 26.2
16 -16 1 103.89 28.6
-16 16 -1 117.89 35.3
-16 0 1 106.49 31.9
-16 0 1 69.49 31.6
0 16 1 113.79 29.5
16 -16 -1 83.79 28.1
16 0 -1 135.79 27.7
0 -16 1 94.09 28.8
-16 0 -1 125.29 33.4
-16 16 1 103.69 34.4
16 0 1 93.79 25.8
0 -16 -1 114.99 28.7
-8 -9 1 111.69 27.5
9 -17 1 123.59 21.9
17 -9 -1 70.79 21.2
-8 17 -1 82.29 30.5
-8 -9 1 29.9 22.2
8 -17 -1 85.59 20.2
-9 -8 -1 89.09 25.8
-17 9 -1 54.79 26.2
17 -9 -1 63.29 22.7
-17 8 1 66.99 24.8
-9 -8 -1 18.7 21.1
-9 17 1 54.59 26.2
8 9 1 101.79 31.5
9 8 -1 43.7 25.1
17 -8 1 104.99 25.1
8 9 -1 61.79 23.4
-17 8 -1 86.49 30.4
-17 9 1 123.69 30.4
-17 8 -1 69.49 26.6
-8 17 1 44.6 23.7
9 -17 -1 100.89 21.1
17 -9 1 102.79 25.7
9 8 1 89.89 28.7
-9 17 -1 90.99 30.5
-9 -8 1 67.89 25.5
8 -17 1 109.49 21.3
-8 -9 -1 64.29 23.9
17 -8 -1 90.59 22.6
-9 -8 1 113.79 28
-17 10 -1 66.89 28.4
-10 17 1 65.09 26.2
17 -10 -1 35.4 18.4
-10 -7 -1 37.6 23.4
-7 -10 1 62.49 24.2
-10 -7 -1 49.6 22.7
17 -7 1 27 18.5
-7 17 -1 93.29 31.6
7 10 1 92.49 32
10 -17 1 93.29 20.6
-17 7 1 29.6 24.2
-17 7 1 6.6 21.7
17 -10 -1 74.29 24.2
7 -17 -1 68.69 19.2
10 7 -1 87.09 29.9
17 -7 -1 75.09 22.4
-10 17 -1 60.19 20.8
17 -10 1 67.59 24.4
-10 -7 1 40.3 24.5
-17 7 -1 64.29 28.3
-7 -10 -1 76.09 24.7
-10 17 -1 86.39 31.9
7 -17 1 68.89 19.5
10 -17 -1 110.99 21.5
-10 -7 1 28.1 22.3
-17 7 -1 65.09 28.7
10 7 1 73.59 27.6
-17 10 1 72.59 27
-11 17 1 25 25.4
11 -17 1 55.29 19.9
-11 -6 -1 13.2 22.8
17 -6 1 -7.6 19.5
6 11 1 26.8 29.5
-6 -11 1 22 22.3
-17 6 1 30.3 25.8
-17 11 -1 20.6 26.5
-6 17 -1 66.29 29.7
17 -11 -1 30.3 23
-11 -6 -1 -0.4 18.1
6 -17 -1 28.9 17.6
17 -6 1 5.7 21.7
-17 6 1 33.5 26.1
11 6 -1 38.1 26.8
17 -11 -1 14.9 16.4
-17 11 -1 19.1 22.3
-17 6 -1 10.9 25.6
6 -17 1 11.8 16
-11 17 -1 33.6 27.1
-17 6 -1 18.3 24.8
-11 -6 1 34.2 25.3
17 -11 1 47.7 24.1
-6 -11 -1 30 22.3
6 11 -1 -7.7 18.6
11 -17 -1 44.4 19.1
-17 11 1 28.5 26
-11 17 -1 16.4 20.2
11 6 1 -3.2 26.2
17 -6 -1 29.1 21.6
-11 -6 1 -13.4 17.2
17 -5 1 4.4 17.3
-12 17 1 38.8 29.2
5 12 1 31.6 29.8
-17 5 1 27.3 27.7
12 5 -1 -0.5 23.7
17 -12 -1 22.1 18.4
-5 -12 1 42.5 25.5
-5 17 -1 8.2 28
12 -17 1 31.8 20.3
17 -12 -1 54.39 25.8
-17 5 1 31.7 27.4
-17 12 -1 40.9 27.5
-17 12 -1 50.09 22.2
-12 -5 -1 45.9 26.4
-12 -5 -1 -10.2 15.7
-12 17 -1 22.5 22.1
5 12 -1 -1.7 28.9
5 12 -1 -9.1 20.1
-17 5 -1 6 27.1
-17 12 1 13.8 21.2
-12 -5 1 25.6 23.4
17 -5 -1 12.7 21.8
-17 12 1 32.3 27.4
-5 -12 -1 28.1 22.6
-17 5 -1 19.7 25.8
17 -12 1 24.5 21.6
-12 17 -1 22.7 27.4
12 -17 -1 29.2 19.2
-17 5 -1 7.4 21.2
12 5 1 24.8 24.2
-13 -4 -1 10.5 17.3
13 4 -1 0.4 23.6
-17 13 -1 20.9 23.3
-17 13 -1 9.7 25.1
-4 17 -1 17.6 27.2
-17 4 1 -2 25.4
-13 17 1 3.9 19
-17 4 1 -15.9 19.8
-4 -13 1 10.7 23.5
-13 -4 -1 38.4 24.7
17 -13 -1 17 24
-13 17 1 7.8 28.9
4 13 1 10.6 27.2
13 -17 1 1.9 19.1
17 -4 1 18.3 21.5
-17 4 1 1.7 27.6
-17 4 -1 1.2 24.6
-4 -13 -1 14.8 22.4
-13 17 -1 5 21.7
-17 4 -1 5.3 28.8
13 -17 -1 20.1 18.8
4 13 -1 -7 21.1
-4 17 1 -7.7 16.4
-17 13 1 21.2 21.9
-13 17 -1 21.2 31.4
-13 -4 1 7.3 23.6
13 4 1 17.5 23.1
17 -4 -1 14.1 23.6
17 -13 1 25.5 22.7
-17 4 -1 -3.1 20.4
-13 -4 1 18.3 20.2
-17 13 1 18.6 26.6
14 3 -1 10.8 20.1
-17 3 1 10.7 27
-14 17 1 17.1 29.1
-14 -3 -1 -0.4 17.6
17 -14 -1 15.6 24.9
-14 17 1 -2.4 22
-3 -14 1 13.5 24.6
14 3 -1 5.9 24.1
-14 -3 -1 27.2 24.8
3 14 1 3.7 26.3
17 -3 1 8.2 22.2
-17 14 -1 10.5 25.3
-3 17 -1 -1.8 27.7
14 -17 1 12.6 19.2
-17 3 1 -2.2 28.5
-17 14 -1 2 20.7
-17 3 1 5.4 20.9
-14 17 -1 27.6 30.4
17 -14 1 11.6 24.1
-17 14 1 32.9 26.4
-3 -14 -1 50.99 25.7
-17 14 1 47.3 23.6
-17 3 -1 -1.2 24.3
14 3 1 28.8 24.3
3 14 -1 -6 20
-14 -3 1 41 21.5
-14 17 -1 62.29 24.5
-17 3 -1 2.3 20.3
-17 3 -1 30 29.5
-14 -3 1 37.2 26.4
14 -17 -1 6.5 18.3
14 -17 -1 28.1 19
-3 17 1 14.8 20.3
17 -3 -1 37.2 22.4
15 -17 1 -1.2 13.8
-17 15 -1 4.9 20
17 -2 1 13 22.2
17 -15 -1 41.3 25.7
-17 2 1 8 18.9
15 2 -1 16.6 24
2 -17 -1 -10.8 17.7
-15 -2 -1 35.6 25.6
-17 15 -1 14 26.9
-17 2 1 26.3 29.8
2 15 1 28.6 29.6
15 2 -1 22.8 17.4
-15 17 1 22.8 29.6
-15 17 1 16.9 22.6
-15 -2 -1 13.4 17.8
-17 2 1 22.8 27.2
-2 -15 1 33.7 24.8
2 15 -1 -7.9 21.9
15 -17 -1 -15.2 13.7
-17 2 -1 3.1 28.6
2 -17 1 -18.4 17.6
-15 -2 1 5.7 25.1
-17 15 1 14.9 26.2
17 -2 -1 12.6 21.8
-2 17 1 10.2 22.9
-2 -15 -1 36.9 24.4
-15 -2 1 11.3 25.5
-17 2 -1 7.1 20.3
-17 15 1 7.9 20.9
-15 17 -1 48.6 24.3
17 -15 1 39.8 25.8
-15 17 -1 37 31.5
-15 -2 1 18.1 19.2
15 -17 -1 7.9 24.4
15 2 1 25.1 24.5
-16 -1 -1 264.97 33.1
-16 -1 -1 167.28 34.3
17 -1 1 197.48 30.2
-17 1 1 203.88 26.6
-16 17 1 185.78 27.6
17 -16 -1 240.08 33.7
-17 16 -1 244.28 41.2
-1 -16 1 128.19 31.5
16 -17 1 181.08 31
1 16 1 271.17 44.6
-17 1 1 138.49 34.7
16 1 -1 251.57 32.2
-17 1 1 125.39 32.8
-16 17 1 243.18 41.9
-16 -1 1 331.87 36.5
-17 1 -1 255.77 35.5
-16 17 -1 297.77 40
16 1 1 259.47 43.1
-1 -16 -1 321.07 50.59
-17 16 1 288.07 36.6
16 -17 -1 367.96 45.9
-16 17 -1 313.97 52.59
-16 -1 1 278.97 46.4
17 -16 1 341.07 49.2
17 -1 -1 281.37 42.6
-17 1 -1 337.77 49.2
-17 16 1 331.17 47.1
-1 17 1 288.77 43.5
17 -17 1 95.59 28.3
-17 17 -1 94.79 23.2
17 0 1 110.89 25.9
-17 0 -1 120.89 22.5
-17 17 1 91.99 33.1
-17 17 -1 100.19 34.9
-17 0 -1 110.89 33.9
-17 17 1 137.99 23.7
0 17 1 98.69 28.3
17 -17 -1 92.19 28.3
-17 0 1 64.49 28.4
-17 0 1 75.49 20.1
17 0 -1 149.09 28.6
-9 18 1 -1.3 28.3
-18 9 -1 30.5 27.1
18 -9 1 93.09 27.3
-18 9 1 70.69 30.5
-9 18 -1 52.29 28.5
9 -18 1 100.89 22.5
9 9 1 79.19 29.6
9 9 -1 52.49 27.9
9 -18 -1 82.29 21.1
-9 18 -1 69.39 23.2
-9 -9 -1 69.89 26
18 -9 -1 40.2 26.3
-9 -9 1 47.2 24.3
18 -9 -1 52.59 23.3
8 -18 -1 95.09 21.8
10 8 -1 45.3 29.8
-8 -10 1 83.49 27.8
-10 -8 -1 66.59 25.1
18 -10 -1 131.39 29.1
8 10 1 86.49 29.4
-8 18 -1 70.59 21.6
-18 10 -1 95.49 24.7
-18 10 -1 52.59 29
-8 18 -1 66.09 29.8
18 -10 -1 77.09 24.7
-18 8 1 97.39 31.5
18 -8 1 94.59 26.9
10 -18 1 108.49 22
-10 -8 1 72.69 26.4
10 -18 -1 102.39 21.4
-18 8 -1 73.99 30.3
-10 -8 1 70.29 25
8 -18 1 104.19 21.9
10 8 1 142.59 32.2
-8 -10 -1 104.79 28.7
8 10 -1 90.79 30.1
18 -8 -1 88.99 24.3
-18 10 1 101.29 31.4
-10 18 -1 77.19 23.7
-10 18 -1 100.89 32.1
18 -8 -1 67.19 24.9
18 -10 1 75.69 25.2
-18 11 -1 125.19 32.4
-11 18 1 80.99 29.6
11 7 -1 188.18 34.1
18 -11 -1 118.49 25.4
-18 7 1 112.39 31.1
7 -18 -1 132.79 23.6
18 -11 -1 116.59 27.4
-11 -7 -1 70.69 25.7
18 -7 1 100.29 27.5
7 11 1 129.79 32.1
18 -7 1 118.89 23.1
-7 -11 1 79.39 26.5
-7 18 -1 128.49 34
-18 11 -1 184.78 27.2
-18 11 1 127.79 31.4
-18 7 -1 116.99 31.7
-11 18 -1 89.89 31.7
-11 18 -1 202.48 29.4
-11 -7 1 126.69 30.1
-18 7 -1 130.59 35.9
11 7 1 158.78 32.2
18 -11 1 147.69 27.5
7 11 -1 144.69 32.4
18 -7 -1 110.79 25.3
7 -18 1 137.69 22.6
11 -18 -1 207.28 25.5
-7 -11 -1 116.49 28.6
-18 6 1 -16.4 15.7
-6 -12 1 37.2 24.8
-18 12 -1 23.9 21.9
6 -18 -1 53.09 20.7
-12 18 1 -0.7 13.4
-12 -6 -1 19.7 24.3
12 -18 1 53.69 20
18 -6 1 17.6 22.2
-6 18 -1 46.1 28
-18 12 -1 55.09 29.9
18 -12 -1 58.99 26.2
6 12 1 54.79 31.3
-6 18 -1 -0.7 14.1
18 -6 1 49.9 21.9
-12 -6 -1 -9.4 15.9
-18 6 1 5.4 26.1
12 6 -1 46.1 27.1
-18 6 1 18.6 27.4
-12 18 1 24.9 25.5
18 -12 -1 45.5 23.1
12 6 1 12.1 24.3
-12 18 -1 8 27.1
-18 6 -1 5.6 20.1
-18 12 1 23.5 26.8
-12 -6 1 20.5 21.3
-18 6 -1 4.5 27.2
18 -6 -1 22.3 22.1
-6 18 1 2.6 15.5
-6 -12 -1 39.9 24.1
-12 18 -1 18.4 22.3
12 -18 -1 44.4 19.2
6 -18 1 9.6 17.7
6 12 -1 22.6 26.3
-18 6 -1 21 27
18 -12 1 15.2 22.7
-18 12 1 34.7 22.5
-12 -6 1 15.1 23.7
-18 5 1 85.39 23.8
13 -18 1 159.28 25.2
-13 -5 -1 97.79 30.5
-13 -5 -1 169.48 25
13 5 -1 189.88 32.5
18 -5 1 146.79 26.9
-18 5 1 127.49 33
-13 18 1 140.79 25.2
-18 13 -1 218.78 30
18 -13 -1 186.28 30.5
-18 13 -1 92.39 30.5
-18 5 1 146.69 35.1
5 13 1 177.28 34
-13 18 1 85.19 30.6
5 -18 -1 113.49 22.8
-5 -13 1 157.48 34.1
18 -13 1 152.98 27.8
13 5 1 128.39 28
-13 18 -1 195.58 28.5
-18 5 -1 52.39 27.7
5 13 -1 143.59 30.6
5 -18 1 79.69 20
13 -18 -1 168.48 24.8
-5 18 1 115.79 24.3
18 -5 -1 137.49 27
-18 13 1 184.08 27.5
-13 -5 1 85.69 27.6
-18 5 -1 111.39 34.1
-18 13 1 190.58 36.9
-5 -13 -1 152.28 32.7
-18 5 -1 98.79 24.5
-13 18 -1 123.59 34
-18 4 1 -13.3 27.2
4 14 1 22.2 29
-14 18 1 20.5 29.1
-18 4 1 -5.2 20.2
14 4 -1 3.7 25.9
18 -4 1 34.8 23.5
-18 14 -1 1.7 20
-4 -14 1 3.3 25.3
-18 4 1 8.5 25.8
-18 14 -1 5.6 26.4
14 4 -1 10.9 15.3
4 -18 -1 -13.6 13.2
-14 -4 -1 -13.2 18.1
14 -18 1 14 17.9
-14 18 1 6.8 20.6
18 -14 -1 7.1 23
-14 -4 -1 5.4 24.2
-18 14 1 24.5 20.8
-18 14 1 40.3 28
-14 -4 1 45 25.6
-14 -4 1 54.89 21.3
14 -18 -1 26.9 20.6
14 4 1 19.1 23.4
-18 4 -1 15.1 21.7
-14 18 -1 46.2 31.2
18 -14 1 10.4 23.7
-14 18 -1 28.7 20.9
-4 18 1 17.2 22.2
-18 4 -1 -2.7 24.5
18 -4 -1 40.8 22.5
-4 -14 -1 37.5 24.8
-18 4 -1 13.2 27.6
4 14 -1 39.9 25.4
18 -3 1 234.78 31.3
-15 -3 -1 182.98 34.4
-18 15 -1 191.98 25.4
-18 3 1 173.08 25.9
-18 15 -1 217.48 40.6
-18 3 1 130.99 33.6
-18 3 1 121.19 32.3
15 3 -1 140.49 23.7
-3 -15 1 128.79 31.4
-15 -3 -1 141.59 23.9
-15 18 1 239.58 35.6
3 15 1 247.98 34.8
15 -18 1 141.09 23.3
-15 18 1 159.98 36.5
18 -15 -1 226.88 30.8
-3 -15 -1 302.77 50.29
15 3 1 209.28 31.6
18 -3 -1 259.67 41.2
-18 3 -1 165.78 36.7
-18 3 -1 226.98 35.2
-18 15 1 237.68 40.8
15 -18 -1 246.18 36
-3 18 1 247.18 39.8
-18 15 1 215.08 27.5
3 15 -1 192.98 31.9
-15 -3 1 234.38 42.9
18 -15 1 288.37 34.3
-15 -3 1 317.37 34.7
-15 18 -1 237.88 36.5
15 -18 -1 293.57 40.5
-15 18 -1 284.17 45.2
2 16 1 43.3 26.1
18 -2 1 69.39 23.6
-16 -2 -1 65.29 27.9
-16 18 1 59.19 23.3
16 -18 1 62.49 18.8
-18 2 1 -5.7 25.8
-18 16 -1 74.49 33.3
16 2 -1 106.19 27.9
-16 -2 -1 89.79 21.8
18 -16 -1 69.79 25.4
-18 16 -1 47.1 20
-18 2 1 44.4 19.5
-18 2 1 43.2 27.6
16 -18 1 2.4 17.9
-16 18 1 21.2 28.9
-2 -16 1 54.09 26.2
-18 16 1 32.3 27.8
-18 2 -1 64.89 21.2
16 -18 -1 38.6 19
16 -18 -1 39.8 25
18 -2 -1 44.5 22.4
-16 -2 1 31.6 25.2
-16 18 -1 74.79 22.3
-2 18 1 41.8 23.3
16 2 1 48.6 23.2
-18 16 1 55.09 20
-2 -16 -1 35.7 23.1
18 -16 1 46.4 26.2
-18 2 -1 42.3 29.2
-16 -2 1 83.09 20.6
-16 18 -1 49.1 31.6
2 16 -1 22.3 20.3
-17 -1 -1 38.8 26.1
18 -1 1 43.2 21.4
18 -17 -1 30.6 23.7
-17 18 1 -8.6 24.6
17 -18 1 28.5 26.2
-17 -1 -1 53.39 18.9
-17 18 1 58.69 21.3
-18 17 -1 36.7 19.5
17 1 -1 52.19 23.3
-18 1 1 45.9 27.6
1 17 1 23.8 23.9
-18 1 1 44 18.4
-18 17 -1 44.3 30.9
17 -18 -1 25.1 23.9
-18 1 -1 36.9 20.5
-1 18 1 20.2 23.4
1 17 -1 -4.8 16.2
-18 1 -1 -1.6 26.4
17 1 1 21.1 21
-17 18 -1 45.6 21.1
18 -17 1 22.8 24.7
18 -1 -1 39 23.3
-17 -1 1 13.8 25.2
-17 -1 1 44.4 19.4
-17 18 -1 41.5 30.5
-1 -17 -1 -11.9 18.2
-18 17 1 31.6 18.6
-18 17 1 20.2 27.6
-18 18 1 269.27 35.4
0 18 1 254.77 41.3
18 0 -1 318.47 43.9
-18 0 1 329.07 34.3
-18 18 -1 275.47 37
18 0 1 267.27 40.4
18 -18 1 299.97 44.6
-18 0 -1 323.97 35.9
18 -18 -1 321.37 41.7
19 -10 -1 46.5 23
19 -9 1 43 26
-10 19 1 9.9 19.7
-19 10 -1 46.2 22.3
10 -19 1 47.2 18
19 -10 -1 39.1 28.6
-19 10 -1 38.2 29.1
9 -19 -1 46.8 19.3
10 9 -1 52.99 30.6
-10 -9 -1 22.8 21
-9 -10 1 9 22.7
19 -9 1 40.9 20.4
9 10 1 30.8 29
-9 19 -1 18.8 27
-19 9 1 27 28.1
-9 19 -1 34 22.1
-10 19 -1 48.3 28.8
10 -19 -1 84.69 19.6
9 10 -1 71.39 30.6
9 -19 1 57.79 18.3
19 -10 1 1.5 15.6
-9 19 1 8.4 16.5
-10 19 -1 41.5 22.2
-19 9 -1 45.4 30.9
-9 -10 -1 47.2 24.5
19 -9 -1 57.69 29.5
19 -10 1 40.2 25
-10 -9 1 -0.3 21.5
10 9 1 58.59 28.9
19 -9 -1 37.3 21.9
-19 10 1 32.2 26.9
-19 8 1 159.88 36.8
19 -11 -1 204.18 30.1
19 -8 1 176.28 32.7
11 8 -1 266.37 37.3
19 -8 1 162.58 28.1
-8 -11 1 142.39 32.2
19 -11 -1 236.98 34.7
8 -19 -1 147.69 24.5
-19 11 -1 109.19 33
8 11 1 269.07 37.8
-19 11 -1 236.28 30.6
-8 19 -1 183.18 27.6
11 -19 1 224.88 26.1
19 -8 -1 171.68 27.8
-11 -8 1 91.89 22.8
8 -19 1 176.78 24.1
-8 -11 -1 110.49 28.6
19 -8 -1 141.49 32.4
-11 19 -1 109.69 31.7
-19 8 -1 93.49 32.1
-19 11 1 103.19 31.3
11 8 1 168.18 33
8 11 -1 207.38 35.7
19 -11 1 176.78 28.2
-12 -7 -1 88.89 20
-12 19 1 66.59 20.9
-7 -12 1 105.09 28.2
19 -12 -1 162.08 27.7
7 12 1 169.98 32.5
19 -12 -1 169.48 30.2
-7 19 -1 2.4 37.2
19 -7 1 104.89 28.2
12 7 -1 193.08 34.7
7 -19 -1 168.88 25
-7 19 -1 117.29 24.2
-19 7 1 78.59 29.1
-19 12 -1 95.29 31.1
19 -7 1 145.09 26.1
19 -7 -1 14.9 23.8
-12 -7 1 85.49 22.6
-19 12 1 141.19 24.9
-19 12 1 149.09 34.6
-12 -7 1 54.09 25.9
12 -19 -1 117.89 22.1
7 12 -1 81.99 28.7
19 -7 -1 98.39 24.2
-7 -12 -1 97.99 29.4
-12 19 -1 82.29 32.6
-19 7 -1 42.7 29.4
7 -19 1 82.69 20
19 -12 1 99.99 25.6
-12 19 -1 140.59 25.7
-7 19 1 53.79 21.1
-19 7 -1 70.99 21.3
-13 19 1 11.7 19.9
-13 19 1 3.6 19.1
-19 13 -1 16.3 27.8
6 -19 -1 24.1 19.7
-19 13 -1 29.1 21.6
19 -6 1 23.9 24
-13 -6 -1 -0.3 21.5
19 -13 -1 53.09 25
-6 -13 1 31.6 25
6 13 1 76.29 29.9
13 6 -1 30 25.8
19 -6 1 38 21.7
13 -19 1 46.1 18.6
-13 -6 -1 29.8 18.7
-19 6 1 11 20.6
-6 19 -1 27.4 19.5
-19 6 1 36.1 27.4
6 13 -1 26.7 25.6
-19 6 -1 -6.1 29.1
13 -19 -1 17.5 18.7
-6 19 1 10.1 20
6 -19 1 26.4 18.6
-13 -6 1 24.4 20.4
-19 6 -1 -2.8 25.6
-13 19 -1 39.3 22.7
-19 13 1 22.6 26.8
-19 6 -1 6.9 19.4
-19 13 1 21.7 21.2
19 -6 -1 18.9 19.1
-13 -6 1 0.6 23.6
19 -13 1 -2.2 22.6
-13 19 -1 3.2 28.7
13 6 1 6.2 24.7
-6 -13 -1 27.6 24.3
-19 14 -1 -1 26.1
19 -5 1 1.1 19.8
-14 -5 -1 31.5 18.2
-14 19 1 13.1 19.5
-5 19 -1 3 13.8
-5 -14 1 4.1 22.5
-19 14 -1 36.5 20.9
-14 -5 -1 14.5 22.5
5 14 1 18.6 27.9
19 -5 1 8.2 22.1
-19 5 1 18.7 25.8
19 -14 -1 24.2 23.2
-19 5 1 -1.9 28.2
5 -19 -1 23.5 19.1
14 -19 1 27.8 18.9
-19 5 1 7.2 20
14 5 -1 7.7 13.1
-14 19 1 0.3 18.7
14 5 -1 30 26
-14 -5 1 24.2 20.4
19 -14 1 -2.3 22.6
5 14 -1 -0.7 23.4
-14 19 -1 -0.1 18.8
-14 -5 1 -6.8 25.2
-19 5 -1 0.1 25.6
5 -19 1 -13.8 18.2
-5 19 1 16.5 21.2
14 5 1 -13.9 23
-19 5 -1 -8.5 20
-19 14 1 3.2 25.8
-5 -14 -1 11.4 24.1
14 -19 -1 25 18.9
-19 14 1 10.8 20.7
-14 19 -1 13.1 29.3
19 -5 -1 10.6 20.8
-19 15 -1 14.7 17.9
15 4 -1 13.4 14.5
-4 19 -1 -4.3 12.4
-19 4 1 0.2 24.1
-19 4 1 -5.6 24
-19 4 1 5.2 19.6
19 -4 1 38.8 22.1
-15 -4 -1 12.8 19.7
4 15 1 35.9 27.2
15 -19 1 19 18
-4 -15 1 12.9 22.6
-15 19 1 8.6 19.4
-15 -4 -1 10.2 22.8
19 -15 -1 33.2 23
4 -19 -1 -12.2 11.2
-19 15 -1 17.5 29
15 4 -1 42.8 26.1
-15 19 1 12.8 19.1
15 -19 -1 5.9 15.6
15 4 1 2.8 22.7
-4 19 1 0.4 21.5
-19 4 -1 16.8 27
-19 15 1 20.3 26.9
19 -4 -1 13.9 21.1
-19 15 1 8.9 18
-15 -4 1 14.3 18.8
19 -15 1 20.5 22.3
15 -19 -1 32.9 19.4
-4 -15 -1 25.7 23.5
-15 19 -1 14.3 19.4
-19 4 -1 10.3 19.7
4 -19 1 -16.5 13.2
-15 19 -1 32.9 29.2
-15 -4 1 12.8 24.7
4 15 -1 3.6 23.2
-19 16 -1 245.08 28
-19 3 1 143.59 24.7
3 16 1 256.77 34.6
19 -3 1 223.88 30.4
19 -16 -1 173.78 27.6
16 -19 1 138.99 23
-16 19 1 186.78 26.6
16 3 -1 199.28 30.9
-3 -16 1 107.79 29.7
-19 16 -1 168.38 37.2
-16 -3 -1 210.38 30
19 -3 -1 254.77 38.1
-19 3 -1 242.88 32.5
3 16 -1 230.78 37.7
16 -19 -1 211.08 30.7
-16 19 -1 153.58 35.7
-16 -3 1 288.17 32
-16 -3 1 153.98 32.9
-3 19 1 208.98 30.2
-19 16 1 148.09 35.2
16 -19 -1 198.18 32
16 3 1 253.37 32.6
-16 19 -1 179.78 26.2
19 -16 1 245.08 31.1
-3 -16 -1 148.79 31.5
-19 16 1 223.38 32.4
-17 19 1 72.99 21.1
-19 2 1 50.69 19.1
-19 17 -1 120.79 22.2
2 17 1 110.29 28.3
17 2 -1 67.09 22.1
17 -19 1 18.5 16.3
-19 17 -1 -7.2 25.1
17 -19 1 25.1 17
-17 -2 -1 102.99 20.2
19 -17 -1 45.4 23
19 -2 1 28.5 21.5
-19 17 1 -5.9 29.1
-17 19 -1 54.39 19.9
17 -19 -1 35.8 17.4
17 2 1 29.3 21
-17 -2 1 9.3 21.7
-19 2 -1 76.09 21.9
-19 2 -1 6.2 22.8
-17 19 -1 -4.6 25.6
2 17 -1 33.4 20.5
17 -19 -1 51.39 23.5
19 -2 -1 23.2 21.2
-19 17 1 44.4 19.1
19 -17 1 45.9 23.7
-17 -2 1 80.29 20.5
-2 19 1 37.3 22.2
19 -18 -1 0.7 20
19 -1 1 11.4 20.3
1 18 1 14.5 22.8
18 -19 1 8.1 21.6
-19 1 1 -3.1 16.4
-18 -1 -1 9.9 17.1
-19 18 -1 8.3 18.8
-18 19 1 24.1 18.4
18 1 -1 12.3 21.3
-19 18 1 -3.3 17.3
-1 19 1 18.4 21.2
18 1 1 -2.6 19
1 18 -1 -3.5 15
-18 19 -1 5.1 17.6
-19 1 -1 10.1 17.6
-18 -1 1 -4.4 17
18 -19 -1 -2.4 20.7
19 -1 -1 13.3 20.2
19 -18 1 -3.5 22.6
-19 19 -1 37.4 17.7
-19 0 -1 25.9 17
19 -19 -1 19.7 20
19 0 1 22.2 20
19 -19 1 11.7 20.4
-19 0 1 45.2 17.9
-19 19 1 44.8 18.6
0 19 1 39.5 22.1
19 0 -1 30.8 21.4
-10 20 -1 57.79 21.8
20 -10 -1 33.9 22.4
10 10 -1 53.69 28.6
-20 10 -1 21 28.9
10 10 1 55.29 29.1
-10 20 1 21.2 17.9
10 -20 -1 73.99 19.4
10 -20 1 69.69 19.2
-20 10 1 10.5 28.3
20 -10 1 70.99 26.5
20 -10 1 56.09 22.1
-20 10 -1 55.19 23.5
20 -10 -1 54.49 28.7
-20 11 -1 33.9 22.6
-20 9 1 18.4 27.4
-20 11 -1 20.3 27.4
-9 -11 1 -6.7 18.8
20 -9 1 45.4 25.9
-9 20 -1 35.6 20.3
20 -11 -1 41.8 26.3
20 -11 -1 29 21.9
-11 20 1 10.5 16.6
9 11 1 31.3 27.7
-11 20 1 -2.5 12
11 -20 1 25.7 18
9 -20 -1 18.4 17.9
20 -9 1 24.1 21.5
11 9 -1 48.8 28.3
-11 20 -1 10.1 21.2
-11 -9 1 -19.4 17.5
-20 11 1 9.8 27.6
-20 9 -1 -7.5 25.9
-9 20 1 12.9 18.5
-20 9 -1 39.5 22.7
20 -11 1 4.5 14.9
11 -20 -1 17.6 18.1
20 -9 -1 29.9 27.3
-9 -11 -1 9.8 17.9
9 -20 1 33.1 17.4
20 -9 -1 4 20.6
20 -11 1 27.2 23
11 9 1 11.9 27.5
-20 11 1 22.5 20.2
9 11 -1 -1.6 27.4
-20 12 -1 52.99 28.2
-8 20 -1 64.39 21.7
20 -12 -1 58.09 24
-20 12 -1 95.49 24.1
-12 20 1 39.1 17.8
12 -20 1 98.39 21
-8 -12 1 16.3 22.9
8 -20 -1 82.49 20.9
-12 20 1 8.6 17.9
20 -8 1 63.39 25
8 12 1 80.09 28.9
20 -12 -1 52.69 26
12 8 -1 85.39 29.8
-20 8 1 53.19 31.2
20 -8 1 64.69 23.1
12 -20 -1 94.49 21.1
-12 20 -1 -1.7 27
20 -8 -1 54.19 22.6
-20 12 1 84.89 22.7
8 12 -1 97.79 29.8
8 -20 1 79.19 20.3
-20 12 1 67.19 31.3
-8 -12 -1 46.4 23.5
-12 -8 1 53.19 20
20 -12 1 53.89 24.9
20 -8 -1 60.59 28.3
-12 20 -1 84.89 23.7
12 8 1 101.59 30.1
-20 8 -1 39.4 17.8
-8 20 1 40.2 21.8
20 -13 -1 62.79 24.1
-20 13 -1 30 27
-20 13 -1 53.79 22.7
-13 20 1 5.2 17.5
7 13 1 81.29 29.6
20 -7 1 45.7 21.9
7 -20 -1 34.2 19.4
13 -20 1 53.99 17.9
-7 20 -1 36.3 20.6
13 7 -1 70.59 27.6
-13 -7 -1 29.8 17.8
-7 -13 1 32.3 24.6
-20 7 1 17.3 25.9
-13 20 1 14.1 19.4
20 -7 1 61.79 25.6
-13 -7 1 34.9 18.4
7 13 -1 33.9 25.7
20 -13 1 60.99 24.5
-7 20 1 4.6 20.8
13 7 1 58.09 26.3
7 -20 1 49.9 19.1
-20 7 -1 27.3 19.5
-7 -13 -1 32.1 23.8
-20 13 1 31.9 27.3
-20 13 1 61.19 21.5
-13 20 -1 69.59 22.8
13 -20 -1 45.6 18.3
20 -7 -1 13.7 20.8
20 -7 -1 36.7 21.2
-13 20 -1 -2.4 27.4
20 -6 1 90.19 25.3
-14 -6 -1 38.7 18.6
20 -14 -1 95.69 24.7
14 -20 1 61.79 18.4
-6 -14 1 25.6 23.2
-20 6 1 -4.3 30.9
-20 14 -1 54.09 28.1
-14 20 1 9.9 17.9
20 -6 1 70.39 22.1
6 14 1 120.69 29.7
-14 20 1 101.79 22.5
-6 20 -1 57.49 18.1
-20 14 -1 71.49 20.6
6 -20 -1 58.19 20.6
-20 6 1 49.6 20.3
14 6 -1 71.19 25.8
-6 20 1 31.9 21.3
-20 14 1 18.5 25.9
6 -20 1 38.8 19.7
14 6 1 64.19 25.9
-20 14 1 67.69 21.2
-14 20 -1 32.6 20.9
-6 -14 -1 31.6 22.8
6 14 -1 51.79 25.4
20 -14 1 58.39 24.3
14 -20 -1 52.79 18.6
20 -6 -1 46.1 21
-20 6 -1 18.1 19.4
-14 20 -1 -1.1 38.6
-14 -6 1 67.89 20.5
5 15 1 314.17 44
-20 5 1 288.57 34.6
-15 -5 -1 311.47 33.9
15 -20 1 299.87 34
-20 15 -1 254.07 34.9
20 -15 -1 331.97 35.2
20 -5 1 244.88 37.7
5 -20 -1 208.58 33.7
-15 20 1 222.18 35.2
15 5 -1 293.07 44.4
15 -20 -1 331.57 34.6
15 5 1 285.27 42.5
-20 5 -1 285.97 35.5
-20 15 1 257.57 34.6
20 -5 -1 272.97 38.9
5 -20 1 206.18 32
-15 -5 1 308.87 32.7
-5 20 1 214.88 36.8
-15 20 -1 268.77 36
20 -15 1 295.67 40.5
5 15 -1 229.48 39.1
4 16 1 128.69 28.6
-20 4 1 122.09 23.4
16 -20 1 78.99 19.4
-20 16 -1 77.59 19.3
16 4 -1 107.39 26.1
-20 16 -1 -5.3 32.4
20 -4 1 112.29 24.2
-16 -4 -1 67.79 19
-16 20 1 56.99 19.7
20 -16 -1 113.39 25.3
20 -16 1 61.19 22.8
16 4 1 78.59 24.1
-16 20 -1 46.7 19.5
20 -4 -1 96.79 22.5
-16 -4 1 102.39 20.7
-4 -16 -1 -6.1 26.7
16 -20 -1 9.8 15.3
4 16 -1 43.6 22
-20 16 1 85.19 19.6
-4 20 1 34.7 21.1
-20 4 -1 72.99 20.9
16 -20 -1 41.9 17.9
-17 20 1 25.3 18.4
20 -17 -1 20.4 21.8
-20 17 -1 27.7 17.4
17 -20 1 10 15.9
-17 -3 -1 19.3 17.8
-20 3 1 17.1 18.7
20 -3 1 2.6 19.4
17 3 -1 10.1 19.4
-17 20 1 10 15.9
3 17 1 11.3 22.7
-20 3 -1 4.1 17.3
17 -20 -1 1.4 15.6
20 -3 -1 1.8 19.8
20 -17 1 26 21.1
-17 20 -1 13.1 17.9
-3 20 1 27.7 21
-17 -3 1 11.6 15.9
-20 17 1 1.5 16.7
17 3 1 -7 19
3 17 -1 3.4 17.9
17 -20 -1 7.6 21.4
18 2 -1 196.18 27.9
-20 2 1 192.78 25.6
2 18 1 205.08 29.1
20 -18 -1 224.78 34.1
-18 20 1 144.79 23.2
-18 -2 -1 194.88 27.5
20 -2 1 200.78 27.8
20 -18 1 188.58 28
18 2 1 156.18 25.1
-18 -2 1 184.88 28.7
20 -2 -1 238.58 29
-2 20 1 138.49 25.4
-18 20 -1 163.28 23.5
18 -20 -1 172.98 27.6
-20 2 -1 173.68 23.9
-20 18 1 214.88 25.3
19 -20 1 67.19 18.5
-19 -1 -1 67.59 17.4
-19 20 1 44.9 17.1
20 -1 1 48.7 19.9
1 19 1 59.19 21.4
20 -19 -1 55.99 19.8
-20 19 -1 60.19 17.9
-20 1 1 69.29 18.9
19 1 -1 80.69 21.5
19 1 1 50.59 21
20 -19 1 37.9 20.3
-19 -1 1 82.49 18.5
-20 19 1 36.5 16.6
-19 20 -1 54.89 18.2
-1 20 1 34.9 20.2
20 -1 -1 47.7 20.5
19 -20 -1 34.2 21.1
-20 1 -1 68.39 17.2
-20 0 -1 7.5 14.7
-20 20 -1 17.2 15.1
20 0 -1 3 16.8
20 -20 1 15.3 16.9
20 -20 -1 5.7 18.8
-20 0 1 9 15.6
20 0 1 -1.1 16.3
0 20 1 -5.2 17.4
-20 20 1 -1.1 14.4
10 -21 -1 23.6 17
10 11 1 26.2 26.3
11 10 -1 21.5 25.4
21 -11 -1 26.5 21.4
11 -21 1 47.7 17.1
-11 21 1 -3.4 14.9
-10 21 -1 27.4 19.2
21 -10 1 32 20.7
21 -11 -1 9.5 25.1
-21 11 -1 32 21.4
-21 10 1 -6.9 29.8
21 -10 1 16.1 24.1
-11 21 -1 3.5 19.2
-21 11 1 39 21.1
-21 11 1 -4.6 23.7
21 -11 1 14.5 24.1
-10 21 1 3.5 16.1
11 -21 -1 35 17.8
21 -11 1 27.6 18.9
-21 10 -1 22.3 21.9
21 -10 -1 48.2 21.3
10 -21 1 58.59 19.3
21 -10 -1 19.8 25.4
10 11 -1 47.1 27.6
11 10 1 23.6 25.1
9 -21 -1 129.99 22.3
21 -12 -1 189.78 30.2
-9 21 -1 135.89 24.2
9 12 1 253.17 36
21 -12 -1 166.38 27.4
-21 12 -1 138.49 25.1
21 -9 1 157.58 30
12 9 -1 164.88 31.5
21 -9 1 95.59 24.9
12 -21 1 209.48 24.4
9 12 -1 131.99 29.1
9 -21 1 134.79 22.4
12 9 1 166.18 29.8
-12 -9 1 73.49 19.7
12 -21 -1 162.88 22.6
21 -9 -1 116.59 24.4
-21 9 -1 87.89 23.3
21 -12 1 119.19 27.3
-12 21 -1 100.79 23.2
21 -9 -1 91.69 27.9
-21 13 -1 49 20.1
13 8 -1 75.29 26.3
21 -13 -1 77.79 23.9
-8 21 -1 46.8 19.3
-13 21 1 3.8 15.3
21 -8 1 43.8 25.3
13 -21 1 74.39 19.2
8 -21 -1 64.19 19.6
21 -8 1 46.5 21.8
-13 21 1 31.1 17.3
-13 -8 -1 -0.2 15.8
8 13 1 75.79 26.4
8 -21 1 64.79 20.4
8 13 -1 60.09 25.5
21 -8 -1 48.6 24.3
-21 8 -1 29.4 20.3
21 -13 1 86.89 24.2
-8 21 1 41 19.2
13 -21 -1 75.59 18.5
13 8 1 62.19 26.4
-13 21 -1 60.89 21.6
-21 8 -1 58.89 19.2
21 -8 -1 52.69 21.8
-21 13 1 111.39 22.6
-13 -8 1 29.8 17.4
-21 13 1 -6.8 36.5
-21 7 1 13.9 14.9
14 7 -1 64.39 24.8
-14 21 1 5.7 20.4
7 14 1 64.79 25.5
21 -14 -1 91.19 23.6
21 -7 1 60.99 25
-14 -7 -1 53.09 17.9
-7 21 -1 33.3 16.3
21 -7 1 62.09 21.8
14 -21 1 78.19 18.9
-14 21 1 38.5 18.7
-21 14 -1 54.79 19.1
7 -21 -1 37.1 18.7
7 -21 1 26.1 17.9
14 -21 -1 37 17.1
14 7 1 19.1 22.2
-21 7 -1 28.3 20
-14 21 -1 26.9 19.2
7 14 -1 37.4 24
-14 -7 1 29.2 17.5
21 -7 -1 26.1 20.1
-21 14 1 42.9 19.8
21 -14 1 33.2 21.3
-7 21 1 21.6 18.9
21 -15 -1 49.9 22.2
-6 21 -1 -3.8 11.2
15 6 -1 27.1 23.1
-15 21 1 29 18.5
21 -6 1 4.7 17.1
6 15 1 48.1 24.5
15 -21 1 28.7 16.9
-21 15 -1 19.1 16.5
21 -6 1 25.4 20.2
-15 -6 -1 21.4 16
6 -21 -1 24.4 17.1
-21 6 1 -4.9 17.2
6 15 -1 52.89 22.3
-15 21 -1 52.99 19.8
21 -15 1 54.79 21.8
-6 21 1 20.5 18.9
21 -6 -1 44.2 20.7
15 6 1 83.89 25.1
-21 15 1 37 18
-21 6 -1 32.1 19.1
6 -21 1 44.1 18.1
-15 -6 1 48.1 18.1
15 -21 -1 63.49 18.3
16 -21 1 31.3 17
21 -5 1 12.2 19
-16 -5 -1 30.5 17.9
-21 16 -1 23.3 16.7
21 -16 -1 17.4 19.4
5 16 1 18.6 22
16 5 -1 35.3 22.3
-21 5 1 10.9 17.3
5 -21 -1 -10.7 10
-16 21 1 18.1 17.9
-21 16 1 13.3 15.7
5 -21 1 -11.2 10.7
21 -16 1 3.8 19.6
-5 21 1 9.9 18.7
21 -5 -1 7.2 18.9
-21 5 -1 14.2 17.1
16 -21 -1 1.1 15.6
-16 -5 1 5.8 16.2
-16 21 -1 19.3 17.9
16 5 1 4.7 20.9
5 16 -1 2.4 19.7
-21 17 -1 107.19 19.2
21 -4 1 52.39 19.7
17 4 -1 132.89 24.8
4 17 1 81.69 23.4
17 -21 1 58.89 16.9
-21 4 1 72.89 18.8
-17 21 1 102.69 20
-17 -4 -1 94.99 19.6
21 -17 -1 118.19 23.2
-4 21 1 54.49 21.3
-21 4 -1 50.69 18.1
-17 -4 1 97.79 19.6
4 17 -1 65.39 19.5
17 4 1 117.79 23.4
21 -4 -1 82.09 21.7
-21 17 1 103.09 19.4
17 -21 -1 68.09 16.9
-17 21 -1 67.29 19.4
21 -17 1 64.79 21.9
21 -18 -1 42.8 18.2
-18 -3 -1 28.9 16.1
3 18 1 41.7 19.5
21 -3 1 30.4 18.1
18 3 -1 46.4 21.1
-18 21 1 23.8 16.4
18 -21 1 26.6 14.2
-21 3 1 36.3 16.4
-21 18 -1 34.9 17.2
-21 3 -1 78.69 18.2
-18 21 -1 39.9 17.1
21 -3 -1 73.09 19.8
18 3 1 73.19 20.6
-21 18 1 65.69 17.8
-3 21 1 40.8 19.2
21 -18 1 68.59 21.2
-18 -3 1 82.19 17.8
21 -19 -1 8.6 16.3
21 -2 1 -1.7 16.9
-21 2 1 -4.5 14.2
-19 21 1 -11.7 13.9
19 2 -1 9.8 18.9
2 19 1 15.5 17.6
-21 19 -1 -0.6 14.4
-19 -2 -1 -1.5 15.3
-21 2 -1 -2.5 14.3
-19 21 -1 8 14.6
-2 21 1 2.3 16.8
21 -19 1 6.3 16.8
19 -21 -1 -11.4 16.9
-19 -2 1 -8.3 15.4
21 -2 -1 -4.9 16
-21 19 1 -3.4 13.6
19 2 1 -4.3 17
1 20 1 38.5 16.9
20 1 -1 42.9 18.7
-20 21 1 32.7 14.4
-20 -1 -1 50.99 15.6
-21 1 1 33.6 15.2
-21 20 -1 25.9 14.4
21 -20 -1 49.9 18.4
21 -1 1 29.8 16.6
-20 -1 1 36.2 15.4
21 -20 1 30.3 16.4
-20 21 -1 49.4 15.7
20 1 1 45.1 17.6
-21 1 -1 56.59 16.2
-21 20 1 43.7 14.8
21 -1 -1 26.2 16.3
-1 21 1 3.6 12.7
20 -21 -1 60.09 18.2
-21 21 1 47.3 14.3
-21 0 -1 71.89 17.2
21 0 1 51.39 17.4
-21 21 -1 43.2 15.2
21 0 -1 41.6 17.1
21 -21 -1 40.7 16.4
-21 0 1 63.19 16.4
22 -11 -1 84.39 26
11 -22 1 139.59 21.5
22 -11 -1 93.89 23.3
-22 11 1 153.68 24.1
-22 11 -1 104.29 23.1
22 -11 1 123.49 25.3
-11 22 -1 84.99 21.1
11 -22 -1 107.79 19.7
11 11 1 140.39 28.1
11 11 -1 81.69 25.7
-22 10 1 14.1 19.3
22 -12 -1 34.3 20.5
22 -10 1 27.2 18.5
22 -12 -1 -2 22
10 -22 -1 17.3 16.2
12 10 -1 38 23.3
-10 22 -1 14.2 17.3
-22 12 -1 20.5 19
12 -22 1 13.3 15.9
22 -10 1 37.6 23.3
10 12 1 13.3 23.4
-12 22 -1 12.3 17.3
12 -22 -1 11.2 15.4
12 10 1 14.3 23.1
10 -22 1 13.8 16.3
22 -10 -1 11.2 18.8
22 -10 -1 17.6 22.7
10 12 -1 0.2 21.9
-12 -10 1 -19.4 12.2
22 -12 1 -2.4 20.5
-22 12 1 8.6 18
-22 10 -1 20.8 19.2
22 -9 1 117.69 23.3
9 13 1 159.88 29.2
22 -13 -1 105.29 25.1
13 -22 1 182.88 22.4
-22 9 1 158.88 23.8
22 -9 1 77.19 25.3
9 -22 -1 140.89 21.9
-9 22 -1 103.79 19.9
13 9 -1 137.89 26.7
-22 13 -1 153.88 23.6
-22 9 -1 110.09 22.2
9 -22 1 131.19 20.9
22 -9 -1 112.59 23.5
22 -13 1 111.69 24.2
9 13 -1 126.19 25.7
13 9 1 160.68 28.5
-13 22 -1 102.19 21.6
-22 13 1 115.09 21.8
13 -22 -1 157.08 21.9
-13 -9 1 70.89 19.1
22 -9 -1 80.59 25.5
22 -8 1 9.6 18.7
-8 22 -1 -4.3 10.8
-14 22 1 1.8 12.2
-22 14 -1 13.4 17.1
8 -22 -1 21.3 16.1
14 8 -1 13.5 20.9
14 -22 1 21.7 15.3
8 14 1 4.8 23.2
-14 -8 -1 -16.6 14.3
22 -8 1 7.3 21.6
22 -14 -1 20 20.6
14 -22 -1 8.6 15.2
-14 22 -1 -0.8 16.7
14 8 1 20.2 21.3
-8 22 1 -8.9 14.1
-22 8 -1 32.3 18.5
-14 -8 1 4.9 15.9
-22 14 1 10.1 16.3
22 -14 1 14.7 19.3
8 14 -1 19.2 20.3
8 -22 1 6.3 16
-22 8 -1 8.1 15
22 -8 -1 13 19.1
7 15 1 67.09 22.9
7 -22 -1 40.1 16.9
22 -7 1 13 16.4
22 -7 1 53.09 20.7
15 7 -1 71.19 23.8
22 -15 -1 54.09 20.2
15 -22 1 51.09 16.4
-15 -7 -1 49.1 16.9
-15 22 1 33.6 16.7
-22 15 -1 64.99 18.2
7 -22 1 35.8 17
-22 15 1 49.4 17.1
-22 7 -1 37.7 17.5
7 15 -1 35.1 21.5
-15 -7 1 44.5 17.2
22 -15 1 42.5 19.9
15 7 1 39.5 21.6
22 -7 -1 23.1 18.8
-22 7 -1 26.1 17.5
15 -22 -1 48.8 16.1
-15 22 -1 33.9 17.7
22 -16 -1 76.39 21
6 16 1 57.39 22.1
16 6 -1 77.79 22.7
-22 16 -1 91.89 18.8
22 -6 1 42.8 19
-16 -6 -1 52.19 16.3
16 -22 1 60.39 16.9
-16 22 1 41.4 17.3
-22 6 1 41.9 16.8
22 -16 1 86.19 20.5
6 16 -1 52.19 20.6
-22 6 -1 51.69 18.2
-16 22 -1 57.09 18.2
22 -6 -1 53.69 19.5
16 6 1 96.59 23.7
-22 6 -1 17.3 14.5
-16 -6 1 101.79 19.7
-22 16 1 61.49 17.2
16 -22 -1 75.29 17.3
5 17 1 36.8 20.3
-22 17 -1 13.4 14.9
-17 22 1 10.5 15.5
22 -17 -1 35.1 16.6
22 -5 1 20.6 17.9
17 5 -1 21.9 18.5
17 -22 1 17.4 13.2
-17 -5 -1 25.2 15.6
-22 5 1 19.6 15.7
5 17 -1 10.3 14.8
-5 22 1 -7.1 18.4
-22 5 -1 44 16.7
-22 17 1 58.39 16.5
22 -5 -1 51.39 18.4
22 -17 1 59.29 18.9
-17 -5 1 40.6 16.4
17 -22 -1 34.1 13.9
-17 22 -1 27 16.3
17 5 1 41.4 18.1
18 -22 1 18.4 12.8
-18 22 1 35.6 15.5
-22 4 1 28.6 15.2
22 -18 -1 33.9 16
22 -4 1 15 16.7
-18 -4 -1 39.1 15.7
18 4 -1 24 19
4 18 1 29.3 17.8
-22 18 -1 36.2 17
18 -22 -1 25.8 12.6
-22 4 -1 23.1 15.3
-18 22 -1 19.6 14.9
-22 18 1 42.9 15.5
-18 -4 1 51.89 16.3
22 -18 1 46.1 18.5
18 4 1 22.6 17
22 -4 -1 22.9 16.5
-22 19 -1 61.99 16.3
-19 -3 -1 69.99 17.6
-19 22 1 23.9 14.4
22 -3 1 19.9 15.5
-22 3 1 47.9 15.3
19 3 -1 36.4 18.7
3 19 1 41.4 17.8
22 -19 -1 58.39 16.8
-19 22 -1 33.3 14.7
22 -3 -1 32.6 16.8
-22 19 1 24.9 14.4
-19 -3 1 35.7 16.4
-22 3 -1 28.8 14.9
19 3 1 33.5 17.8
22 -19 1 26.7 16
22 -2 1 16.5 15.5
-20 -2 -1 26.1 15.2
22 -20 -1 25.9 16.9
20 2 -1 16.3 17.5
-22 20 -1 15 15.4
-20 22 1 18.3 13.4
-22 2 1 13.7 13.5
2 20 1 3.5 10.8
22 -20 1 28.7 14.9
-22 20 1 31.2 14.2
20 2 1 14.8 16.5
-20 22 -1 25.2 14.3
-20 -2 1 36 15.8
-22 2 -1 31.4 14.6
22 -2 -1 19.4 16.2
-21 22 1 7.7 12.6
22 -21 -1 14.4 14.2
-22 21 -1 30.5 16.4
-21 -1 -1 26 16.8
22 -1 1 21.1 17
21 1 -1 14.2 18.5
-22 1 1 25.4 16
-22 21 1 21.4 15.6
-21 22 -1 18.9 15.9
22 -1 -1 16.4 18
-22 1 -1 24.3 16.3
-21 -1 1 26.7 17.1
21 1 1 16.5 17.9
-23 11 1 79.69 19.2
23 -12 -1 63.89 23.6
-23 12 -1 64.39 19.1
12 -23 1 57.89 16.2
11 12 1 73.19 22.7
12 11 -1 54.69 22.2
11 -23 -1 80.59 16.7
23 -11 1 74.89 21.9
-11 23 -1 46.4 16.6
23 -11 -1 56.59 20.1
12 -23 -1 51.59 15.6
12 11 1 90.79 24
-23 12 1 86.49 19.6
23 -11 -1 62.39 21.9
11 12 -1 67.59 22.2
11 -23 1 93.79 17.7
-23 11 -1 55.69 18.7
23 -12 1 57.69 20.5
-12 23 -1 65.59 18
23 -10 1 83.09 21.4
-23 13 -1 132.69 21.5
13 -23 1 112.99 18.4
10 13 1 131.59 25.4
10 -23 -1 126.49 19
13 10 -1 107.89 23.5
23 -13 -1 120.89 23.6
-23 10 1 145.09 21.6
13 -23 -1 92.89 17
13 10 1 138.19 24.8
10 -23 1 111.09 18.9
-23 13 1 115.49 19.7
10 13 -1 95.39 22.7
23 -10 -1 88.09 23.2
23 -10 -1 84.09 21.3
23 -13 1 100.59 21.9
-23 10 -1 81.79 19.4
-13 23 -1 99.99 19.5
9 -23 -1 27 14.7
-23 9 1 47.3 18.4
23 -9 1 32.6 19.2
23 -9 1 23.8 16.5
9 14 1 34.9 21.6
-23 14 -1 32.3 16.3
23 -14 -1 31.6 19.1
14 9 -1 49.5 21.5
14 -23 1 31.9 14.1
9 14 -1 18.6 19
-23 14 1 4.2 15.3
-14 -9 1 -6.1 13.7
14 -23 -1 23.8 13.7
23 -14 1 32.5 18.5
-14 23 -1 15.4 15.7
9 -23 1 12 14.7
14 9 1 6.5 19.3
-23 9 -1 2.1 16.1
23 -9 -1 28.5 17.3
23 -15 -1 95.89 21.4
8 15 1 118.19 24.5
8 -23 -1 61.69 16.2
23 -8 1 53.39 17.8
15 8 -1 60.59 21.6
15 -23 1 65.89 15.9
-23 8 1 79.99 19
-23 15 -1 56.29 16.8
-15 23 -1 94.89 18.5
23 -15 1 128.79 21.4
-23 15 1 66.79 16.3
23 -8 -1 82.69 18.8
15 8 1 134.59 24.1
8 -23 1 59.79 16.6
-23 8 -1 71.99 17
-15 -8 1 47.6 16.1
15 -23 -1 77.09 16.2
8 15 -1 67.39 19.9
7 -23 -1 -6.8 9.4
16 -23 1 23.3 13.6
23 -16 -1 5.7 16.6
-23 16 -1 10 15.2
16 7 -1 5.2 17.4
7 16 1 19 19.9
-23 7 1 19.8 16.1
-16 -7 -1 3.4 13.5
23 -7 1 5 16.1
-23 7 -1 2.9 13
-16 23 -1 20.8 14.7
23 -7 -1 12.5 16.2
-16 -7 1 6.6 14.8
16 7 1 4.4 18.6
16 -23 -1 20.1 13.6
-23 16 1 24.7 14.9
7 -23 1 -9.4 9.3
7 16 -1 6.1 14.8
23 -16 1 14.1 18.1
-23 17 -1 136.19 20.2
23 -6 1 75.59 17.6
6 17 1 79.89 21.6
-17 -6 -1 75.19 16.1
17 6 -1 109.79 22.5
23 -17 -1 81.79 17.9
-23 6 1 87.09 17.2
17 -23 1 77.59 16.5
-17 23 -1 72.39 17.4
23 -17 1 97.09 20.3
23 -6 -1 62.69 18.3
-23 17 1 48.8 15.6
-23 6 -1 74.09 16.1
17 6 1 83.99 20.3
-17 -6 1 79.99 18.5
17 -23 -1 65.59 15.4
5 18 1 37.9 19
23 -5 1 29.1 15.6
18 5 -1 37 19.2
-18 23 1 -1.6 10
-23 18 -1 36.2 15.5
23 -18 -1 20.2 15.4
18 -23 1 23.8 11.9
-23 5 1 12.4 11.3
-18 -5 -1 31.2 15.8
-18 23 -1 19.5 13.5
23 -5 -1 -6.4 15.8
-23 18 1 15.6 14.8
18 5 1 11 16.9
18 -23 -1 0.2 10.7
23 -18 1 15.3 15.4
-18 -5 1 16.5 16.1
-23 5 -1 8.8 13.5
-23 4 1 20.2 12.7
19 4 -1 27.3 19
-19 -4 -1 25.4 15.9
4 19 1 9.2 13.1
23 -19 -1 28.9 16.8
-23 19 -1 16.6 15.7
23 -4 1 23.6 14.5
23 -19 1 24.7 15.3
19 4 1 41.1 19.7
-23 19 1 27.7 15.2
-23 4 -1 31.1 14.7
23 -4 -1 44.9 18.1
-19 23 -1 34.8 14.6
-19 -4 1 67.99 18.6
-23 20 -1 21.5 16.1
23 -20 -1 31.5 19
20 3 -1 26.8 21.3
-20 -3 -1 48.7 17.4
23 -3 1 0.2 10
-23 3 1 22.7 14
23 -3 -1 11.9 19
-20 -3 1 15.4 16.8
-23 3 -1 9.8 15.7
20 3 1 -10.8 18.5
-23 20 1 29.6 16.6
23 -20 1 5.3 11.6
-20 23 -1 14 15.3
24 -12 1 138.59 23.3
12 12 -1 132.69 23.2
12 -24 1 141.49 18.2
-24 12 -1 132.99 20.5
24 -12 -1 81.89 21
12 -24 -1 89.19 16.5
-24 12 1 173.38 21.8
12 12 1 167.18 25.5
-24 13 -1 9 15.5
11 13 1 12.3 18.9
11 -24 -1 9.7 13
13 -24 1 0.5 13.1
24 -11 1 -2.1 18.2
13 11 -1 6.4 18.8
-24 11 1 15.1 16.7
24 -13 -1 -2.1 17
13 -24 -1 12.8 12.8
-13 24 -1 -0.8 13.5
13 11 1 3.6 18.7
24 -11 -1 4.4 12.5
11 -24 1 -1.4 12.9
-24 11 -1 13.4 15.4
24 -13 1 10.4 17.6
-24 13 1 8.1 15.7
11 13 -1 16.3 18
14 -24 1 47.5 14.9
10 14 1 66.99 21
-24 10 1 36.6 18.3
24 -14 -1 44.4 18.2
-24 14 -1 34.3 16.8
10 -24 -1 20.9 13.6
14 10 -1 47.9 20.4
24 -10 1 30.1 16.4
-24 10 -1 16.2 14
14 10 1 45.9 19.7
10 -24 1 33.3 13.6
-24 14 1 14.7 15.4
-14 24 -1 -0.9 10.1
10 14 -1 31.1 17
14 -24 -1 35.8 13.5
24 -14 1 24.1 19.2
24 -10 -1 38.5 16.8
-24 9 1 84.09 18.7
-24 15 -1 105.29 19.4
15 -24 1 71.09 15.7
15 9 -1 92.99 21.6
9 -24 -1 45.6 14
24 -15 -1 66.09 18.7
9 15 1 96.39 21.9
-24 15 1 76.69 17.6
15 -24 -1 96.59 16.8
-15 24 -1 55.99 14.3
15 9 1 98.09 23.1
24 -9 -1 62.59 17.6
24 -15 1 105.99 20.2
9 -24 1 49.6 14.1
8 16 1 11 19.5
24 -16 -1 19.2 17
16 -24 1 8.9 13.7
-24 16 -1 5.7 16.6
16 8 -1 12 19.3
-24 8 1 19.9 16.8
-24 16 1 16.6 15.3
24 -8 -1 11.3 15.4
-16 24 -1 -5.5 12.3
16 8 1 12.3 19.1
-16 -8 1 -17.2 15
16 -24 -1 3.3 13.9
24 -16 1 17.4 17.4
7 17 1 73.69 21.6
-24 17 -1 93.89 20.2
17 7 -1 91.89 23.1
-24 7 1 40.1 14.5
17 -24 1 46.4 15
24 -17 -1 67.29 18.6
24 -17 1 48.5 16.8
17 7 1 114.69 22.3
-17 -7 1 51.19 15.3
-17 24 -1 63.39 14.7
17 -24 -1 65.59 15.2
-24 17 1 67.19 17.3
24 -7 -1 68.49 18.4
6 18 1 -2.2 10.6
24 -18 -1 14 18.4
18 -24 1 -8.4 8.3
-24 18 -1 4.9 16.7
18 6 -1 12.8 20.8
18 6 1 -2.4 20
-18 24 -1 1.2 9.9
-24 18 1 16 18.1
24 -18 1 2.5 16.4
24 -6 -1 -3.1 16.5
-18 -6 1 11.7 16.7
12 -25 -1 15.1 15.5
13 -25 1 16.9 14.7
12 13 1 32.1 20.4
25 -13 -1 2.2 14.8
-25 12 1 31.1 17.4
13 12 -1 12.5 13.7
25 -12 1 -4.1 11.5
-25 13 -1 -5.8 10.4
25 -13 1 7.9 19
-25 13 1 20.8 17.4
12 -25 1 9.7 14.5
13 -25 -1 16.7 14.7
12 13 -1 4.9 15.4
13 12 1 22.9 22.3
14 -25 1 34.8 15.7
11 -25 -1 6.8 13.7
25 -14 -1 28.6 16.3
14 -25 -1 40.6 15.5
11 -25 1 25.7 14.1
25 -14 1 45.8 20.4
0 0 2 -0.3 10.1
0 0 2 -4.4 8.1
0 0 -2 3 12.6
0 0 2 4.6 10.9
0 0 -2 -1.2 9
0 -1 2 911.81 61.69
0 1 -2 966.9 61.49
0 -1 2 815.42 62.29
-1 1 2 1080.79 64.99
-1 1 2 839.32 63.79
1 0 2 833.12 62.19
0 1 2 865.51 63.79
-1 0 -2 992 66.29
0 -1 -2 945.41 65.79
1 0 2 838.12 63.29
1 -1 -2 893.91 64.79
-1 1 -2 1074.59 62.69
0 -1 2 1093.19 65.79
1 -1 2 1016.7 65.29
0 1 -2 1042.4 62.39
0 -1 -2 999.5 63.59
-1 1 -2 865.31 64.59
-1 0 2 1029.3 63.49
0 1 2 1075.59 64.09
1 0 2 1119.99 65.59
-1 0 2 976 62.59
-1 1 -2 1083.69 63.39
1 -1 2 940.11 63.29
-1 0 2 1074.39 64.89
-1 1 2 1053.29 64.39
-1 0 -2 1022.6 63.29
0 1 2 1051.19 65.69
1 -2 2 2142.29 160.08
-2 1 2 2654.63 161.88
-2 1 2 2596.84 161.78
-1 2 -2 2645.34 160.98
-2 1 -2 2844.92 160.98
-2 1 2 2582.34 163.08
-2 1 -2 2673.03 161.78
-1 2 2 2847.81 163.38
1 -2 2 2790.22 163.38
-2 1 -2 2249.27 162.28
-1 2 2 2544.45 162.68
1 1 2 2602.34 161.98
-1 -1 -2 2604.34 161.78
-1 -1 2 2631.54 159.78
1 1 -2 2765.72 160.58
1 1 2 2806.22 163.98
-1 2 -2 2641.94 160.38
2 -1 2 2684.53 162.78
2 0 2 993.6 61.99
0 -2 -2 863.11 60.39
-2 0 2 778.82 57.29
0 -2 2 830.62 56.19
0 2 2 999 62.09
-2 0 -2 954.7 60.29
-2 2 2 977.9 60.89
0 2 2 932.61 61.19
-2 2 -2 939.91 59.69
-2 2 2 912.21 62.89
-2 2 -2 932.61 58.69
-2 2 2 981.3 61.39
2 -2 2 883.81 60.39
0 2 -2 877.71 57.99
2 -2 -2 733.73 59.89
-2 0 2 889.51 59.59
0 2 -2 879.61 56.19
2 -3 2 529.95 38.3
-3 2 -2 567.44 40.1
-2 -1 2 493.75 33.7
-3 3 -2 2323.47 149.59
-3 3 -2 2307.97 150.48
0 3 -2 2474.05 150.68
3 -3 2 2451.75 150.98
-3 0 2 2610.44 149.79
3 0 2 2402.56 151.68
0 3 -2 2399.06 149.59
-3 3 2 2696.83 151.18
-3 3 2 2753.02 153.68
0 3 2 2471.45 152.18
0 3 2 2499.45 152.78
-3 3 2 2316.97 153.08
-3 0 -2 2379.26 150.78
0 3 -2 2309.47 146.39
-3 0 2 2383.76 150.18
0 -3 2 2062.59 146.49
-4 2 2 1500.15 99.89
2 2 -2 1486.45 94.69
4 -2 2 1530.75 97.69
-4 2 -2 1451.55 97.79
-2 4 -2 1434.96 96.09
-2 4 2 1525.85 98.19
-2 4 -2 1508.65 97.29
-2 4 2 1519.65 101.79
-4 2 -2 1560.24 95.59
-2 -2 -2 1473.65 97.49
-2 4 2 1662.83 101.69
2 2 -2 1508.15 97.79
-4 2 2 1684.43 98.19
-2 -2 2 1332.97 92.59
-4 2 2 1577.74 97.09
2 2 2 1612.84 97.79
2 2 2 1508.95 100.29
-1 4 -2 1466.15 90.89
3 1 -2 1440.36 90.09
-4 3 -2 1377.46 89.19
-3 4 2 1505.55 95.39
4 -1 2 1480.25 92.09
-3 4 2 1288.67 94.79
-4 1 2 1375.66 91.49
-3 -1 -2 1394.26 91.89
-1 4 -2 1428.26 87.79
-1 4 -2 1408.96 91.09
1 3 2 1413.26 94.99
-4 3 -2 1315.67 91.49
1 3 2 1434.56 91.79
-3 4 2 1396.46 90.69
-4 1 2 1381.26 90.29
-1 4 2 1358.06 88.09
-4 1 -2 1349.77 82.19
-4 1 -2 1224.18 84.59
-1 4 2 1337.97 87.79
1 3 -2 1306.97 84.79
-3 4 -2 1222.68 83.89
4 -3 2 1315.07 83.79
-3 -1 2 1178.78 81.69
-4 3 2 1351.06 83.79
1 3 -2 1275.97 82.09
-1 -3 -2 1274.77 84.69
-4 3 2 1454.75 87.39
3 1 2 1351.66 87.89
3 1 2 1299.77 83.59
-4 3 2 1205.58 87.09
-3 4 -2 1264.37 84.49
4 -4 2 237.18 27.3
-4 0 2 225.28 22.7
-4 4 2 233.98 32.7
-4 4 -2 211.78 28.1
-4 4 2 178.18 30.9
0 4 -2 225.68 25.9
-4 4 -2 226.48 23.2
0 4 -2 230.88 25.2
4 0 2 215.08 29.2
-4 0 -2 191.78 28.6
0 4 2 217.38 30
-4 0 2 192.58 23.1
0 4 2 232.48 29.2
-4 4 2 169.98 22.5
-2 5 -2 1528.35 100.29
-3 5 2 1723.53 107.69
-5 2 2 1561.04 103.49
2 3 2 1588.54 106.49
-2 5 -2 1565.44 102.59
-3 5 2 1649.33 102.49
2 3 2 1616.34 101.79
5 -2 2 1546.75 101.09
3 2 -2 1554.34 101.49
-5 2 2 1675.93 101.19
-5 3 -2 1506.25 102.39
-2 5 -2 1541.65 99.89
-3 5 2 1470.25 106.09
3 2 -2 1550.24 97.49
-5 3 -2 1595.44 99.79
-3 -2 -2 1491.15 101.69
-5 2 2 1580.14 101.89
-3 -2 2 1328.37 85.79
-2 5 2 1333.77 91.99
-5 3 2 1363.56 88.79
3 2 2 1388.06 94.19
-2 5 2 1476.05 95.79
5 -3 2 1444.46 89.79
2 3 -2 1375.16 91.49
-2 -3 -2 1364.86 90.89
-3 5 -2 1401.66 91.69
-3 5 -2 1370.76 90.69
-5 3 2 1341.57 93.29
3 2 2 1443.66 89.79
-5 2 -2 1352.56 88.09
2 3 -2 1338.47 87.39
-5 2 -2 1312.77 91.19
-2 5 2 1426.76 95.79
-5 3 2 1556.04 93.49
-5 4 -2 915.71 67.49
-4 -1 -2 903.01 65.29
-5 1 2 967.5 63.49
-1 5 -2 976.5 66.69
-1 5 -2 942.41 60.99
4 -5 2 974.1 66.09
1 4 2 935.51 69.59
5 -1 2 976 66.69
1 4 2 908.51 66.39
4 1 -2 888.91 63.39
-1 5 -2 971.8 66.39
-5 1 2 929.31 65.59
-4 5 2 970.7 64.09
-4 5 2 911.91 69.99
-5 4 -2 928.11 63.49
-4 5 2 1042.6 72.99
4 1 2 770.82 52.39
4 1 2 768.82 57.79
-4 5 -2 764.12 54.69
-1 5 2 780.52 58.19
-5 4 2 723.03 51.09
1 4 -2 760.72 51.69
-5 1 -2 689.93 54.39
-4 -1 2 742.23 50.39
-1 5 2 805.82 59.29
5 -4 2 752.32 52.99
1 4 -2 769.82 56.39
-1 -4 -2 747.53 54.19
-5 4 2 750.02 58.79
-4 5 -2 713.33 54.89
-5 4 2 840.42 59.39
-4 -1 2 684.63 51.29
-5 5 2 2934.51 194.58
-5 0 2 2957.1 190.28
-5 0 2 3069.89 187.88
-5 5 2 2932.91 188.48
-5 5 -2 3052.29 191.08
5 0 2 3220.38 193.98
0 5 2 3169.48 194.88
0 5 2 2996.3 195.68
0 5 -2 3131.29 193.28
5 0 -2 2963.6 189.18
-5 5 -2 2825.92 192.08
-5 0 -2 3026.9 191.78
0 5 -2 3309.97 191.68
5 -5 2 3171.18 190.18
5 0 2 3158.68 188.98
-5 5 2 3208.08 197.18
3 3 -2 391.16 36.9
-6 3 2 356.86 31.5
3 3 2 362.76 41.3
-6 3 -2 371.76 30.4
-3 -3 -2 337.97 32.6
-3 -3 2 331.47 23.7
6 -3 2 362.16 32.4
-3 6 2 408.46 45.6
-3 6 -2 380.76 38.3
-6 3 -2 370.06 36.1
-6 3 2 351.56 36.1
-6 3 2 350.26 35.8
3 3 2 347.27 33.4
-3 6 -2 343.47 34.4
-3 6 2 361.66 41.9
3 3 -2 348.77 27.8
-3 6 2 412.36 37.1
-4 -2 -2 1256.27 87.09
-6 2 2 1353.66 86.89
6 -2 2 1406.46 88.09
-6 4 -2 1208.38 88.79
-4 6 2 1408.26 88.39
-6 4 -2 1328.67 85.59
-6 2 2 1342.07 89.39
-4 6 2 1249.28 92.29
-2 6 -2 1392.16 90.79
4 2 -2 1292.67 87.39
2 4 2 1299.97 93.19
-4 6 2 1305.67 95.99
2 4 2 1296.77 88.29
-6 2 2 1250.77 86.09
-2 6 -2 1287.17 85.49
-2 6 -2 1276.17 86.69
-6 2 -2 1200.68 75.19
2 4 -2 1167.98 75.49
-6 4 2 1150.88 82.59
-4 6 -2 1115.29 80.09
-4 6 -2 1186.18 81.09
-6 4 2 1194.28 83.09
-6 4 2 1152.68 74.59
-2 6 2 1154.48 85.49
4 2 2 1198.58 85.59
-6 2 -2 1113.09 80.09
-2 6 2 1162.98 83.29
-2 -4 -2 1201.78 78.99
6 -4 2 1115.69 75.29
2 4 -2 1152.38 81.39
-4 -2 2 1130.19 73.69
-2 6 2 1168.48 83.89
4 2 2 1131.19 76.19
5 1 -2 792.82 59.29
-1 6 -2 791.52 55.29
6 -1 2 895.51 63.99
-5 6 2 920.21 60.19
-5 -1 -2 815.92 62.19
1 5 2 827.02 64.79
-6 5 -2 801.92 59.59
-5 6 2 807.82 66.29
-6 5 -2 819.12 62.99
-1 6 -2 851.61 62.39
-5 6 2 837.52 71.49
5 -6 2 905.21 61.29
-6 1 2 893.61 61.69
-6 1 2 772.42 56.29
1 5 2 804.52 67.59
-1 6 -2 949.6 64.19
5 1 2 738.83 50.29
-1 6 2 677.73 59.19
1 5 -2 785.32 58.19
-1 6 2 735.03 60.59
-6 5 2 708.43 61.39
-5 6 -2 725.43 56.29
1 5 -2 805.62 53.39
-6 5 2 602.64 47.6
6 -5 2 711.33 50.19
-6 1 -2 691.03 53.69
-5 6 -2 661.93 54.49
-6 5 2 747.83 58.69
5 1 2 713.73 58.49
-5 -1 2 728.53 51.29
-1 6 2 739.73 59.59
-5 -1 2 683.63 47.4
-6 0 -2 90.49 23.2
-6 6 2 70.49 31.9
0 6 -2 92.19 23.2
-6 6 -2 80.59 19.8
0 6 2 89.39 27.7
6 0 -2 67.89 14.7
6 0 2 91.19 25.7
-6 6 -2 105.59 29.1
-6 0 2 104.59 21.7
-6 6 2 78.59 15.1
0 6 -2 74.39 22.4
-6 6 2 97.69 27.7
0 6 2 107.19 28.6
6 0 2 66.89 13.9
6 -6 2 71.09 15.9
-3 7 -2 662.93 58.09
4 3 -2 836.62 61.49
-4 7 2 736.43 71.49
-3 7 -2 788.22 57.79
-7 3 2 807.12 56.09
-4 -3 -2 826.12 59.29
-3 7 -2 841.42 65.09
-7 4 -2 812.02 55.69
-7 4 -2 812.92 61.49
-4 7 2 808.62 65.79
4 3 -2 768.12 51.29
3 4 2 694.73 57.49
-4 7 2 812.62 62.99
3 4 2 806.62 68.19
7 -3 2 814.72 58.19
-7 3 2 790.02 60.99
-7 3 -2 857.81 63.89
-7 4 2 650.13 62.89
3 4 -2 827.92 54.99
-7 4 2 769.72 53.89
7 -4 2 848.62 56.79
3 4 -2 880.41 65.19
-4 7 -2 907.41 66.19
-3 7 2 688.33 71.49
4 3 2 863.31 69.49
-7 3 -2 878.61 56.49
-4 -3 2 702.13 51.79
-3 7 2 900.51 67.89
-3 7 2 892.61 67.49
-4 7 -2 822.02 62.49
-3 -4 -2 861.31 60.19
-7 4 2 812.42 63.09
4 3 2 728.93 57.09
-5 7 2 1666.03 111.69
-2 7 -2 1853.21 116.29
-7 5 -2 1769.52 108.69
-5 -2 -2 1742.33 110.69
-7 5 -2 1804.12 113.69
-5 7 2 1774.12 116.69
2 5 2 1583.94 117.79
2 5 2 1659.03 112.49
5 2 -2 1741.43 110.99
-5 7 2 1381.86 120.39
-2 7 -2 1529.05 108.29
-2 7 -2 1862.41 112.99
-7 2 2 1810.12 112.99
-2 7 -2 1618.44 107.89
5 2 -2 1408.56 106.89
7 -2 2 1654.43 111.79
-2 7 2 1421.56 102.99
-7 2 -2 1486.35 98.59
-2 -5 -2 1248.58 98.09
5 2 2 1422.06 92.89
-2 7 2 1610.64 104.79
-7 5 2 1172.38 100.89
-5 7 -2 1535.55 101.09
7 -5 2 1185.98 91.19
-5 7 -2 1237.28 93.59
2 5 -2 1654.53 103.99
-2 -5 -2 1516.65 97.29
5 2 2 1584.94 107.59
-5 7 -2 1539.95 101.29
-2 7 2 1356.86 106.09
-5 -2 2 1543.15 92.79
2 5 -2 1660.53 95.69
-7 2 -2 1569.94 92.49
-7 5 2 1525.75 100.89
-1 7 -2 16.2 22.6
1 6 2 20.6 26.9
-7 6 -2 31.4 16.3
-6 7 2 18.3 34.2
7 -1 2 22.9 22.9
-6 7 2 47.8 18.1
1 6 2 51.69 24
-6 -1 -2 14.7 19.7
6 -7 2 30.1 15.7
-7 6 -2 37.7 24.6
-6 -1 -2 25.3 20
-1 7 -2 23.8 26
-1 7 -2 40.4 19
-6 7 2 29.4 27.5
-1 -6 2 27.9 15.2
-7 1 2 70.89 21.2
-7 6 -2 20.3 15
-7 1 2 18.8 14.6
6 1 -2 31.9 15.6
1 -7 2 0.9 8
-7 6 2 1.1 8.8
-6 -1 2 6.4 15
-1 7 2 14.9 25.5
-7 6 2 -9 7.8
-6 7 -2 7.4 23.9
-1 -6 -2 -6.1 17.5
1 6 -2 -1 16.3
7 -6 2 2.4 9.8
-7 6 2 2.9 23.9
-7 1 -2 21.5 18.9
6 1 2 1.3 9.7
-1 7 2 3 28.3
6 1 2 39.7 28.4
-7 6 2 35.2 30.4
1 6 -2 12.2 16.4
-6 7 -2 8.9 18.8
-1 7 2 11.8 23.6
-7 1 -2 8 18
-6 7 -2 11.2 17
1 6 -2 9.5 22.7
-7 7 2 120.49 32.9
-7 0 -2 140.69 28.4
-7 0 2 119.09 22.7
-7 0 -2 115.79 24.7
-7 0 2 188.48 28.5
7 0 -2 88.59 17.6
0 7 -2 122.49 30.2
0 7 2 111.29 34
0 7 -2 136.29 25
-7 7 -2 120.89 22.2
7 0 2 86.39 31.2
-7 7 -2 124.09 24.4
-7 7 2 53.39 38.5
-7 7 -2 148.99 33
0 7 2 119.99 33.7
0 7 2 120.79 28.5
0 -7 -2 99.49 23.9
0 7 -2 91.69 26.4
-4 -4 -2 743.13 55.79
4 4 -2 862.21 64.19
-4 8 -2 808.42 66.19
-4 8 -2 730.93 53.69
-8 4 -2 771.32 59.99
-8 4 2 721.33 52.99
-4 -4 2 584.94 56.29
-8 4 -2 788.22 52.39
-8 4 2 746.63 59.59
4 4 2 679.63 69.69
4 4 -2 775.92 55.69
-4 8 2 532.45 71.39
-4 -4 -2 731.93 60.09
-4 8 -2 623.14 57.69
-4 8 2 645.94 64.99
4 4 2 578.34 53.89
-4 8 2 879.41 69.29
-4 8 -2 716.73 53.39
-8 4 -2 610.04 51.49
3 5 2 192.18 31.5
-5 8 2 202.28 47
-3 8 -2 165.38 29.5
-8 3 2 264.37 35.8
-3 8 -2 229.98 39.5
-8 5 -2 243.08 37.1
3 5 2 265.37 42.6
-5 -3 -2 286.97 34
-3 8 -2 223.98 32.6
-8 5 -2 273.97 29.4
5 3 -2 253.37 37.4
-5 8 2 254.67 43.1
-3 8 -2 258.17 32.2
5 3 -2 283.17 35.6
-3 -5 2 214.58 37.4
3 5 -2 275.37 41.1
-8 3 -2 297.37 27.5
-5 8 -2 249.08 41.1
-5 -3 2 258.87 28.6
-8 5 2 272.47 29.4
3 5 -2 236.38 27.5
-8 5 2 195.58 35.9
-8 5 2 284.77 38.3
-5 8 -2 310.87 32.2
3 5 -2 272.37 33.8
-5 8 -2 277.57 44.2
-3 -5 -2 248.08 40.4
-3 8 2 252.97 41.1
-8 3 -2 251.97 29.5
-3 -5 -2 296.47 31.9
-3 8 2 324.47 44
-3 8 2 271.07 47.6
5 3 2 290.77 51.19
-8 3 -2 315.57 40.6
-8 6 -2 71.99 18.7
-6 8 2 97.89 35.7
-8 2 2 63.09 20.8
2 6 2 67.99 29.3
2 6 2 57.79 33.3
8 -2 2 48.9 25.2
-2 8 -2 68.19 20.7
-8 6 -2 84.39 27.8
-6 8 2 48.2 41.1
-2 8 -2 82.79 25.6
6 2 -2 89.69 21
-2 -6 2 90.29 22.1
-6 -2 -2 68.49 22.6
-8 2 2 114.79 27.4
-8 6 -2 80.29 20.7
-6 -2 -2 107.19 26.7
-6 8 2 29.8 23.9
-2 8 -2 63.79 31.3
6 2 -2 89.59 23.3
-8 6 2 110.39 20.9
-8 6 2 111.79 28.8
-6 8 -2 118.49 24.2
-6 -2 2 90.99 20.9
-8 2 -2 122.89 29.1
2 6 -2 99.09 22.9
-8 6 2 67.39 34.8
-2 8 2 59.19 33
-6 8 -2 124.39 34
-2 8 2 71.59 36.6
-2 8 2 115.19 35.3
-6 -2 2 64.49 16.7
6 2 2 60.69 33.1
2 6 -2 64.49 29.9
2 6 -2 65.89 20.3
-6 8 -2 103.99 29
-8 2 -2 72.39 21.9
-2 -6 -2 52.19 20.9
-1 8 -2 432.96 52.29
-7 -1 -2 407.66 46
-8 1 2 427.86 40.3
-1 8 -2 365.06 49.8
-1 -7 2 350.46 41.4
-1 8 -2 394.26 42
-8 1 2 488.55 46.9
-7 8 2 390.36 51.19
1 7 2 283.37 51.19
-8 7 -2 413.56 42.7
-8 7 -2 372.56 36.2
-7 8 2 319.87 58.09
-8 7 -2 381.66 46.4
1 -8 -2 371.06 40.5
-7 -1 -2 411.16 41.2
7 1 -2 459.85 40.9
-7 8 -2 365.06 36.1
-7 -1 2 368.66 35.6
-7 8 -2 394.46 44.7
-7 -1 2 341.77 33.9
1 -8 2 293.77 39.4
7 1 2 260.77 48.7
-1 8 2 225.68 45.5
-1 8 2 230.38 46.1
1 7 -2 358.86 38.5
-8 1 -2 369.46 41.9
-8 7 2 251.87 50.79
-8 1 -2 372.36 38.2
-8 7 2 348.97 35.4
1 7 -2 327.77 52.59
1 7 -2 340.47 43
-7 8 -2 338.77 46.2
-8 7 2 327.17 42.9
-1 8 2 415.26 48.8
-1 -7 -2 307.97 39.8
-8 8 2 -0.4 23.5
0 8 -2 -7 18.9
0 8 2 13 26.9
-8 0 2 2.4 19.6
8 0 2 -38.9 30.9
-8 8 2 27.2 38.7
8 0 -2 -1.2 13.4
-8 0 -2 -22.2 24
-8 8 -2 -9.4 21.8
0 8 2 -16.1 31.7
-8 8 2 11.8 18.4
-8 8 -2 9.6 30.4
0 8 -2 -14.1 27.9
0 -8 -2 4.9 18.4
0 -8 2 14.2 17
0 8 2 -6.5 37.2
-8 0 -2 -1.6 23.4
0 8 -2 -29.6 28.3
-8 8 -2 -7.1 17
-8 0 2 19.9 21.4
-5 9 2 68.39 34.3
-5 -4 -2 62.19 23.2
-4 9 -2 49.1 34.2
-4 -5 2 73.89 22.6
4 5 2 49.1 40.3
-4 9 -2 35.3 19.6
5 4 -2 42.7 28.6
-9 5 -2 47.2 17.2
5 4 -2 96.59 25.7
-9 5 -2 74.39 19
-4 9 -2 -2.9 24.1
-9 4 2 92.79 21.5
-9 5 -2 65.59 20.4
-5 -4 -2 71.29 24.4
-9 4 2 60.09 28.4
-9 5 -2 67.89 31.1
-4 9 -2 85.59 23.1
-5 9 2 25.8 29.6
-5 9 2 34.9 44.2
-4 9 2 43.5 32
-9 5 2 14.4 19.3
-9 5 2 56.69 28
-9 5 2 73.89 21.3
-4 9 2 77.59 34.7
-9 4 -2 94.59 22.8
5 4 2 53.59 37.2
4 5 -2 58.39 31.2
-9 4 -2 48.3 16.3
-4 9 2 35.9 41.7
4 5 -2 83.99 24.2
-5 9 -2 55.59 34
-4 -5 -2 54.69 23.1
-5 -4 2 79.19 20.3
-9 4 -2 91.69 29
-5 9 -2 71.79 21.9
-5 9 -2 33.5 29.2
-5 -4 2 67.79 19.7
-4 -5 -2 45.7 20.6
-3 -6 2 494.45 47.6
3 6 2 331.17 62.39
-3 9 -2 433.16 47
-9 6 -2 485.15 51.69
-3 9 -2 487.65 61.39
-9 6 -2 448.26 41.2
-9 3 2 546.25 50.89
-6 9 2 400.86 70.99
-3 9 -2 484.95 45.9
-6 -3 -2 492.75 49
-6 9 2 539.95 59.39
-6 -3 -2 467.45 46.3
6 3 -2 507.25 47
-9 3 2 474.55 42.7
6 3 -2 482.65 51.49
-6 -3 -2 489.25 45.2
-9 6 -2 477.75 42.7
-3 9 2 343.37 60.39
-3 9 2 336.37 59.39
-3 -6 -2 520.05 51.19
6 3 2 391.96 66.39
-6 -3 2 512.85 43.3
3 6 -2 489.15 67.39
-3 9 2 568.74 59.89
-9 6 2 530.45 52.89
-9 3 -2 502.85 43.5
-6 -3 2 451.65 46.6
-6 9 -2 418.26 55.59
-6 9 -2 515.25 59.79
-9 3 -2 556.54 51.69
-6 9 -2 508.85 43.9
-9 6 2 561.54 44.9
3 6 -2 538.35 47.2
-7 -2 -2 1601.94 104.49
7 2 -2 1566.54 105.69
-9 7 -2 1398.56 102.89
-9 2 2 1521.85 101.99
-9 7 -2 1542.65 109.89
-9 2 2 1654.83 109.79
-7 -2 -2 1565.94 106.49
-2 9 -2 1584.04 115.49
-2 9 -2 1503.75 102.59
-2 -7 2 1405.06 102.79
-7 9 2 1550.14 113.89
2 -9 -2 1469.75 103.19
-7 9 2 1356.66 98.69
-9 7 -2 1553.74 101.09
-2 9 -2 1572.44 111.79
-7 9 -2 1389.06 103.49
2 7 -2 1426.46 94.69
2 -9 2 1154.38 92.69
-7 -2 2 1361.76 92.39
2 7 -2 1328.37 108.99
-9 2 -2 1481.65 95.69
-2 9 2 1395.66 104.79
-7 9 -2 1349.66 104.49
-2 -7 -2 1373.86 96.79
-9 7 2 1428.16 92.59
-7 9 -2 1426.86 93.59
-9 2 -2 1416.46 98.99
-9 7 2 1317.37 100.89
-1 9 -2 278.47 49.99
-9 8 -2 308.87 34.3
-1 9 -2 301.57 48.5
-8 9 2 307.57 50.19
-9 1 2 266.57 41.4
1 -9 -2 343.57 41.4
-8 -1 -2 327.37 46.3
-1 -8 2 354.36 44.6
-8 9 2 326.57 37.4
-8 -1 -2 331.17 42.2
-1 9 -2 317.37 40.1
-9 1 2 343.27 39
-9 8 -2 326.87 51.29
-9 8 -2 279.47 38.5
-1 9 2 266.87 46.6
-8 -1 2 341.17 37.3
-9 1 -2 337.07 44.5
1 8 -2 275.27 36.5
-8 9 -2 287.77 50.19
-8 9 -2 351.46 37.8
-9 1 -2 342.17 39.3
-9 8 2 347.57 38.1
1 -9 2 358.76 42.6
-9 8 2 370.76 50.89
1 8 -2 297.27 51.09
-1 -8 -2 334.07 43.7
-8 9 -2 306.37 50.49
0 9 -2 97.29 36.7
-9 9 -2 113.69 38.9
0 9 -2 190.98 31
-9 9 2 76.49 37.8
-9 9 2 133.09 34.8
0 -9 2 198.68 37.8
0 9 2 58.99 37.9
-9 9 2 193.08 28.5
-9 0 -2 127.49 31.1
-9 9 -2 119.39 30.3
-9 0 -2 205.68 33
-9 0 2 158.18 27.3
-9 9 -2 195.88 29.2
0 -9 -2 185.58 28.6
-10 5 -2 336.47 46.9
-5 10 -2 307.17 52.39
-10 5 -2 347.27 38
-5 -5 2 465.65 48.2
-10 5 2 376.66 38.2
-5 10 -2 342.77 39
-10 5 -2 340.67 36.4
5 5 -2 360.76 41.8
-5 -5 2 360.96 36.7
-5 -5 -2 358.76 45.4
-5 10 2 428.26 59.79
-10 5 2 355.36 52.69
5 5 -2 314.17 56.09
-5 10 2 288.47 56.19
-10 6 -2 43.5 17.1
6 4 -2 29.6 31.7
6 4 -2 68.19 23.7
-10 4 2 57.99 19.2
-10 6 -2 72.19 31.8
-10 6 -2 60.19 20
-10 4 2 45.7 31.4
-6 -4 -2 27.1 19.1
-10 4 2 33.5 18.1
4 6 2 19.7 36.5
-10 6 -2 0.7 13
-6 10 2 18.2 41.5
-4 10 -2 20.4 21.5
-6 10 2 -0.5 11.8
-4 10 -2 26.7 42
-4 10 -2 40.1 19.9
-6 10 2 69.29 38.2
-6 -4 -2 65.39 21.9
-6 -4 -2 27.7 22.2
-4 -6 2 74.39 19.5
-4 10 2 41.8 39
4 6 -2 81.59 22.6
-10 6 2 84.69 31.8
-4 10 2 23.7 29.6
-6 10 -2 10.2 39.5
-10 6 2 110.09 23.3
-6 10 -2 82.19 22.7
-6 -4 2 96.49 22.6
4 6 -2 56.39 35.8
-6 -4 2 110.09 24
-4 -6 -2 84.29 22.9
-10 4 -2 116.49 25.4
-10 4 -2 86.79 31.5
-4 10 2 87.79 38.5
6 4 2 12 36.7
-10 4 -2 76.49 20.8
-10 7 -2 154.68 27.7
-10 3 2 236.88 40
-7 -3 -2 232.18 37.7
-3 10 -2 153.98 31.6
-3 10 -2 241.88 35.3
-3 10 -2 208.88 45.7
-7 -3 -2 149.59 30.3
-7 10 2 191.18 51.09
7 3 -2 162.48 34.6
-10 7 -2 184.28 39.1
3 7 2 120.49 39.6
-7 -3 -2 274.17 35.1
-7 10 2 213.38 28.8
-3 -7 2 277.77 36.9
-7 10 2 227.98 45.5
-10 7 -2 260.27 33.2
-10 3 2 253.27 34.2
-10 3 -2 266.37 32.5
-10 3 -2 247.88 42.2
-7 -3 2 300.37 40
-7 10 -2 281.67 37.8
-10 3 -2 309.07 34.9
-3 -7 -2 306.77 42.4
-7 10 -2 243.48 46.3
3 7 -2 303.27 38.9
-10 7 2 302.07 35.3
-7 -3 2 240.28 31.3
-10 7 2 283.87 48.4
3 7 -2 193.08 45.6
-8 10 2 352.46 60.79
-2 10 -2 337.07 39.6
-10 8 -2 305.07 49.5
-10 2 2 406.86 41.4
-2 10 -2 236.88 47.8
-10 8 -2 367.46 39.2
2 -10 -2 402.56 43.4
-2 10 -2 292.47 50.09
-8 10 2 367.86 38.4
-8 -2 -2 401.86 44.3
-2 -8 2 435.16 42.9
-8 -2 2 402.96 40.1
-10 8 2 362.86 37.3
2 -10 2 434.56 42.9
-8 10 -2 423.86 40
-8 10 -2 334.57 54.19
2 8 -2 312.07 55.89
-10 2 -2 367.86 41.2
2 8 -2 372.66 43
-2 -8 -2 407.96 43.5
-10 2 -2 358.96 47.8
-10 8 2 384.36 54.49
-1 10 -2 122.39 39.4
-9 10 2 114.99 35.3
-10 9 -2 90.09 37
-9 10 2 33.4 36.8
1 9 2 65.79 38.6
-1 -9 -2 239.28 38.4
-9 10 -2 194.48 33.3
1 9 -2 115.39 43.7
-10 9 2 106.79 36.2
-10 9 2 200.98 33.1
-10 1 -2 196.58 34.4
-9 -1 2 178.68 31.9
-9 10 -2 123.89 33.1
-10 1 -2 112.39 33.7
1 -10 2 244.78 38
1 9 -2 161.78 27.8
0 10 -2 -29.2 30.3
-10 10 2 4.2 29.6
0 10 -2 23.4 20.4
-10 10 -2 -6.6 32.9
-10 0 2 15.4 19.8
-10 0 -2 5.6 17
-10 10 -2 -0.6 23.5
-10 10 -2 13.5 20.5
-10 10 2 15 20.4
-10 0 -2 11.2 25.6
0 -10 -2 27.4 20
0 -10 2 33.3 19.2
-11 6 -2 250.37 32.3
6 5 -2 236.28 36.2
-6 -5 -2 224.78 32
-11 5 2 243.98 33.3
-5 -6 2 249.58 31.5
-5 11 -2 154.78 46.3
-5 -6 2 290.87 39.6
-6 -5 -2 207.68 39.1
-5 11 -2 206.28 33.8
-11 6 -2 243.88 33
-11 6 -2 240.28 42.5
-11 5 2 193.08 41.1
-6 11 2 175.18 47.7
5 6 -2 215.48 35.2
-6 11 -2 142.89 46.5
-5 -6 -2 240.08 40
-11 5 -2 259.27 32.8
-11 6 2 220.28 32.7
5 6 -2 137.89 44
-6 11 -2 227.88 34.1
-6 -5 2 264.47 32.4
-11 5 -2 271.57 44.2
-11 6 2 257.47 46
-6 -5 2 294.97 40.2
-11 5 -2 227.68 30.8
-4 -7 2 363.46 36.9
7 4 -2 336.77 40
-4 -7 2 416.86 44.3
-7 -4 -2 345.17 39.6
-11 4 2 360.16 39.2
-11 7 -2 402.86 39.8
-11 7 -2 316.87 50.19
-7 11 2 344.77 37
-11 4 2 358.16 39.3
-4 11 -2 314.77 39.6
-11 7 -2 313.97 36.1
-7 -4 -2 368.56 44.9
-11 4 -2 372.06 40.9
-11 4 -2 377.36 49.2
-7 -4 2 435.26 44.1
-4 -7 -2 365.86 44.8
-11 4 -2 388.16 39.3
-11 7 2 332.57 38.3
-7 11 -2 326.47 54.39
4 7 -2 377.76 43.4
-11 7 2 328.17 56.09
-7 11 -2 401.46 41.6
-7 -4 2 419.26 39.3
-11 3 2 46 21.5
-11 8 -2 -2.1 14
-3 -8 2 62.79 19.6
-8 11 2 41.4 19.3
-8 11 2 -2.6 28.5
-3 11 -2 37.6 22.5
-8 -3 -2 41.7 21.8
3 8 2 -37.9 31.3
3 -11 -2 26.2 18.7
-11 8 -2 3.9 32.8
-3 11 -2 -28.7 30
-8 11 2 -52.49 34.2
-8 -3 -2 51.09 24.4
-3 -8 2 25.8 17
-11 8 -2 56.79 22.5
-8 -3 2 58.29 22
-11 8 2 31.9 18.5
3 -11 2 46.7 18.1
-11 3 -2 21.5 28.8
3 8 -2 -29 34.6
3 8 -2 38.7 23.2
-8 11 -2 -6.1 32.1
-11 3 -2 66.59 23.8
-8 11 -2 56.89 22.1
-11 3 -2 41.5 20.4
-3 -8 -2 87.69 23.6
-8 -3 2 56.59 19.6
-11 8 2 29.5 31.2
-2 11 -2 307.47 39.9
-11 2 -2 299.97 38.5
-9 -2 2 290.67 34.1
-2 -9 -2 281.17 37.5
-9 11 -2 313.97 38.6
2 9 -2 262.67 39.7
-11 2 -2 251.37 37
2 -11 2 297.07 39.1
-11 9 2 264.87 34.6
-1 -10 2 367.66 43.8
-10 11 2 282.27 38.5
-10 -1 -2 328.67 43.7
-1 11 -2 289.27 41.6
1 -11 -2 322.77 40.8
-11 1 2 283.07 35.5
-11 10 -2 344.67 39.7
-10 -1 2 318.07 38.3
-11 10 2 260.97 37.2
-11 1 -2 338.97 40.4
-10 11 -2 325.87 40
1 -11 2 343.07 41.8
-1 -10 -2 334.67 38.6
-11 1 -2 221.08 34.6
1 10 -2 290.07 40.8
0 11 -2 1.8 23.1
0 -11 2 5.8 17.8
-11 0 -2 10.6 22.2
-11 0 2 1.8 20.4
-11 11 -2 8.9 20.9
-11 0 -2 6.9 17.9
-11 11 2 4 20.4
0 -11 -2 7 17.6
-6 12 2 -51.39 29.9
-12 6 2 -4.8 14.9
-6 -6 -2 -8.3 17.3
-6 12 -2 -11.2 19.8
-12 6 -2 13.4 19.5
-6 -6 2 14.5 16.1
-12 6 -2 -1.5 32.2
-6 -6 -2 -0.7 16.4
-6 -6 2 10.4 18.6
-6 12 2 -6.9 17.8
-12 6 -2 17.7 18.7
-6 12 -2 -16.6 34.6
-12 6 2 6.7 17.8
6 6 -2 0.9 22.2
-5 12 -2 213.58 31.1
-12 7 -2 242.58 34.2
-12 5 2 223.48 34.2
-7 -5 -2 201.18 38.4
-5 -7 2 222.08 31.2
7 5 -2 199.58 32.5
-7 -5 -2 196.68 32.1
-12 7 -2 195.68 30.7
-5 -7 2 234.08 39.5
-7 12 2 208.48 32.8
-12 5 2 176.48 30.7
5 7 -2 180.78 30.8
-7 12 -2 272.97 34.6
-12 7 2 168.18 28.5
-7 -5 2 165.68 27.9
-7 -5 2 199.58 36.7
-12 5 -2 189.28 30.5
-12 5 -2 188.58 32.8
-5 -7 -2 205.88 36.4
-12 8 -2 88.09 22.8
-4 -8 2 59.49 20.2
-8 -4 -2 55.09 22.6
-8 12 2 109.29 24.6
-12 8 -2 103.59 23.4
-4 12 -2 122.39 26.5
-12 4 2 106.79 24
-12 4 2 86.09 23.6
-4 -8 2 105.79 22.7
-8 -4 -2 108.79 27.2
-4 -8 -2 109.49 23.2
-8 -4 2 70.49 20
4 8 -2 78.89 25.5
-12 4 -2 98.69 26.8
-12 4 -2 90.99 23.7
-8 12 -2 98.79 25
-12 8 2 90.79 21.4
-8 -4 2 124.89 25.2
-9 -3 -2 126.69 25.5
-12 3 2 157.68 28.1
-12 9 -2 209.58 33.8
-9 -3 -2 187.68 30.1
-3 -9 2 116.79 22.3
-3 12 -2 135.49 27.5
-9 12 2 186.08 31.7
3 -12 -2 105.89 23.2
-9 -3 2 219.38 33
-3 -9 -2 213.98 34.6
-12 3 -2 180.38 33.3
-12 9 2 251.67 32.6
3 9 -2 206.78 34.7
-9 12 -2 226.88 37.4
-12 3 -2 189.08 30
-2 12 -2 74.89 26.3
-12 10 -2 68.79 23.5
2 -12 -2 74.99 21.3
-2 -10 2 104.69 23.5
-10 -2 -2 83.09 25.3
-12 2 2 90.89 25.4
-10 12 2 92.19 24.9
2 10 -2 49.4 26.4
-12 10 2 32.2 20.7
-10 12 -2 40 24.1
-10 -2 2 42.3 19.8
2 -12 2 37.2 18.4
-12 2 -2 43.6 23.2
-2 -10 -2 48.6 20.6
-12 2 -2 36.9 23
-12 1 2 294.97 39.4
-11 12 2 282.67 39.4
-1 12 -2 258.57 43.6
-1 -11 2 348.57 41.2
-12 11 -2 289.57 39.2
-11 -1 -2 307.27 42
1 -12 -2 281.27 38.8
-12 1 -2 250.47 38.3
-12 1 -2 295.77 43
1 11 -2 266.97 44.1
-11 -1 2 292.47 37.3
-1 -11 -2 300.67 40.2
1 -12 2 262.47 38.4
-12 11 2 258.57 39
-11 12 -2 250.57 36.8
-12 0 2 41 20.7
-12 12 2 51.09 24.8
-12 0 -2 64.59 28.6
-12 0 -2 8.3 20.7
0 -12 -2 26.8 17.1
0 12 -2 55.69 29.2
0 -12 2 39.4 19
-12 12 -2 78.79 27.4
-13 7 -2 10.6 20.9
-6 13 -2 5 20.2
-6 -7 2 17.1 18.6
7 6 -2 5.8 23
-13 6 2 -0.4 20
-13 6 2 -6.6 18
-7 -6 -2 16.8 19.1
-7 13 2 13.5 20.5
-7 -6 -2 -3.1 18.2
-6 -7 2 4.3 16.5
-13 7 -2 16.9 20.2
-6 -7 -2 -3.1 15
-6 13 2 8 16.2
-6 -7 -2 8.4 17.3
-13 6 -2 18.9 20.4
-7 13 -2 13.1 21
-7 -6 2 23.2 17.8
6 7 -2 17.1 24
-13 7 2 9.6 17.4
-7 -6 2 10.8 17.3
-13 6 -2 16.4 21.2
-8 13 2 59.99 22.5
-5 -8 2 78.39 21.9
-13 5 2 79.09 24.3
-8 -5 -2 96.39 24.4
-13 8 -2 93.59 24.1
-8 -5 -2 75.59 22.8
-5 13 -2 82.39 23.1
-13 8 -2 72.09 22.5
-13 5 2 130.69 28.2
-5 -8 2 76.09 20
-8 13 -2 117.39 28.4
5 8 -2 62.79 26.4
-5 -8 -2 93.09 23.7
-13 8 2 128.59 25.5
-13 5 -2 88.39 24.3
-8 -5 2 60.69 20
-13 5 -2 88.69 24.9
-8 -5 2 115.69 25.4
-4 -9 2 445.36 46.3
-13 9 -2 429.86 43.9
-9 -4 -2 391.26 48.3
-9 -4 -2 444.06 45.3
-4 13 -2 347.27 46.1
-13 4 2 390.46 44.4
-9 13 2 386.86 43.2
-13 4 2 426.96 45.2
-13 4 -2 452.45 46.9
-9 -4 2 482.65 46.3
4 9 -2 534.05 53.59
-9 13 -2 511.15 51.29
-4 -9 -2 513.95 50.39
-9 -4 2 448.16 48.5
-13 4 -2 522.55 51.49
-13 9 2 506.55 47.2
3 -13 -2 117.59 24.8
-10 13 2 193.28 30.6
-13 10 -2 233.98 33.2
-3 13 -2 164.18 31.8
-13 3 2 141.39 29.5
-3 -10 2 160.08 26
-10 -3 -2 135.19 29.4
-3 -10 -2 206.08 38.5
-13 3 -2 212.38 38.8
-10 -3 2 187.38 33.6
-10 13 -2 238.68 35.2
-13 10 2 252.37 34.8
3 10 -2 234.98 37.5
-13 11 -2 24.2 21.9
-11 -2 -2 14.2 22.3
2 -13 -2 17.9 18.6
-2 13 -2 6.6 25.8
-11 13 2 13.4 21.5
-2 -11 2 23.9 19.3
-13 2 2 24.3 23.5
-13 2 -2 10.7 25.1
-11 -2 2 17.1 20.1
-2 -11 -2 7.6 17.7
-13 11 2 8.6 20.4
2 11 -2 28.2 27.3
2 -13 2 2.3 17
-13 2 -2 24.6 22.6
-11 13 -2 21.2 25.5
-12 13 2 55.69 23.9
-12 -1 -2 112.59 29.3
-1 13 -2 69.29 29
-13 12 -2 95.09 27.9
-1 -12 2 65.59 20.7
-13 1 2 79.99 26
1 -13 -2 56.49 20.8
-12 -1 2 29.1 20.1
-1 -12 -2 35.4 19.8
1 12 -2 43.7 28.6
-13 1 -2 17.9 24.1
-13 1 -2 34.2 26.1
-13 12 2 20.1 23.9
-12 13 -2 23 23.3
1 -13 2 30.9 20.2
-13 13 -2 2.2 24.9
0 -13 -2 14 18.9
-13 0 -2 2.8 23.6
-13 0 2 1.8 22.1
0 -13 2 16.8 19
0 13 -2 21 29.5
-13 13 2 10 23
-13 0 -2 3 24.2
-14 7 2 15.6 20.6
-7 -7 -2 -1.2 17.8
-7 -7 2 2.1 18.1
-7 -7 2 10.1 21.1
-7 -7 -2 2 18.2
-14 7 -2 16.5 21
-7 14 2 -0.6 18.9
7 7 -2 -4.2 22.9
-14 7 -2 9.6 22.7
-7 14 -2 18.2 23.9
-6 -8 2 141.19 25.5
-14 8 -2 150.78 28.4
-8 -6 -2 128.09 27.2
-6 14 -2 178.28 31.4
-14 8 -2 163.08 29.3
-14 6 2 223.28 33.2
-8 14 2 116.49 26.6
-8 -6 -2 151.38 28.7
-6 -8 2 119.59 25.9
-14 6 2 83.09 25.7
-14 6 -2 142.19 29.2
6 8 -2 120.49 30.9
-14 8 2 182.98 29.8
-8 -6 2 125.69 25.4
-8 -6 2 149.69 27.9
-14 6 -2 110.99 26
-8 14 -2 151.78 30.1
-6 -8 -2 117.99 25.2
-9 -5 -2 70.79 25.2
-14 9 -2 60.79 22.4
-9 -5 -2 87.49 24.7
-14 5 2 136.59 28.4
-5 -9 2 102.09 24
-5 14 -2 84.39 26.5
-14 5 2 66.79 24.7
-5 -9 2 68.89 22.4
-14 9 -2 110.39 26.8
-9 14 2 36.8 23
-9 14 -2 102.29 28.9
5 9 -2 43.9 27.9
-5 -9 -2 72.39 22.4
-14 5 -2 77.89 25
-14 5 -2 76.59 26.9
-9 -5 2 95.69 25.6
-14 9 2 58.79 21.4
-9 -5 2 72.89 21
-14 4 2 125.29 30.1
-4 14 -2 86.59 28.4
-14 4 2 71.89 26.8
-14 10 -2 106.09 27.8
-4 -10 2 111.49 25
-10 14 2 84.99 27
-10 -4 -2 88.39 28.1
-10 -4 -2 49.2 22.4
-10 -4 2 45.4 20.4
-14 4 -2 117.29 32.1
4 10 -2 84.69 29.6
-10 -4 2 79.89 24.2
-14 10 2 102.59 25.8
-14 4 -2 100.49 26.1
-10 14 -2 138.69 32.7
-4 -10 -2 94.99 23.6
-11 -3 -2 344.97 43.6
-3 -11 2 362.36 46.6
3 -14 -2 268.87 42.5
-14 3 2 287.07 41.2
-11 14 2 328.67 43.2
-3 14 -2 333.97 46.9
-14 3 2 351.36 44.5
-14 11 -2 345.67 43.1
-14 3 -2 294.17 45.3
-11 -3 2 271.57 38.2
3 11 -2 281.27 48.4
-11 14 -2 273.17 43.5
-14 3 -2 240.58 40.1
-14 11 2 291.47 40.7
-3 -11 -2 265.57 41.1
-2 14 -2 47.7 27.9
-2 -12 2 63.49 21.2
-14 2 2 74.99 27.9
-12 -2 -2 81.69 27.4
2 -14 -2 61.49 21.9
-14 12 -2 100.39 29.2
-14 2 2 66.09 26.1
-12 14 2 83.89 28.1
-2 -12 -2 66.19 21.6
2 12 -2 56.89 30.7
-12 -2 2 102.09 27.9
-14 2 -2 81.29 29.1
-14 12 2 94.29 28.8
-14 2 -2 25.2 23.7
2 -14 2 34.9 21
-12 14 -2 107.99 32.5
-14 1 2 10.2 23.3
-1 14 -2 28.2 29.4
1 -14 -2 23.3 20.1
-13 14 2 -1.1 23.4
-1 -13 2 -2.8 20.5
-14 13 -2 13.3 23.8
-13 -1 -2 -1.6 24.1
-14 1 -2 -18.4 13.2
1 13 -2 21.3 29.9
-1 -13 -2 13.5 20.5
-14 13 2 -2.5 24.1
-14 1 -2 4.5 22.4
-13 14 -2 -6.7 16.9
-13 14 -2 -6.8 26
1 -14 2 6 20.6
-14 1 -2 2.4 24.3
-13 -1 2 32 23.7
-14 14 -2 38.8 27.5
0 14 2 -3.7 16
-14 14 -2 26.8 20.3
-14 0 2 30.4 23.3
14 0 -2 31.9 20.2
0 14 -2 40.5 30.4
-14 0 -2 65.69 27.4
0 -14 -2 65.59 23.4
0 -14 2 40.1 23.1
-14 0 -2 25.8 20.8
-14 14 2 37.3 26.1
14 -14 -2 15 17.7
-15 8 -2 235.38 37.7
-15 8 -2 269.37 40.1
-7 15 -2 245.58 42.6
-7 -8 2 187.28 35.7
-8 -7 -2 262.87 43.1
-15 7 2 248.48 37.8
-7 -8 2 292.07 43.7
-8 15 2 203.38 34.6
-15 8 2 279.27 38.1
-8 -7 2 310.77 39.5
-15 7 -2 280.87 41.8
-8 15 -2 301.77 44.2
-8 -7 2 308.27 44.4
-7 -8 -2 293.57 44.4
7 8 -2 299.77 47.2
-15 7 -2 260.97 40.4
-9 -6 -2 57.29 24.2
-9 -6 -2 99.79 26.3
-6 -9 2 63.79 23
-15 6 2 82.29 25.8
-6 15 -2 111.19 29.8
-15 9 -2 49.6 23.3
-15 9 -2 75.99 25.4
-15 6 2 138.49 29.6
-9 15 2 65.69 25
-6 -9 2 105.09 26.1
-9 -6 2 123.39 28
-9 15 -2 98.49 28.7
-9 -6 2 76.49 23.5
-15 6 -2 99.39 29.4
6 9 -2 93.29 32.6
-15 9 2 100.49 25.3
-6 -9 -2 106.79 26
-15 6 -2 106.89 28.5
-5 15 -2 376.66 48.4
-5 -10 2 430.26 50.19
-15 10 -2 381.76 46.2
-10 15 2 338.67 45.6
-15 5 2 453.35 49.6
-10 -5 -2 321.67 43.2
-15 5 2 364.06 46
-10 -5 -2 380.86 47.2
5 10 -2 430.86 57.29
-10 -5 2 397.36 47.9
-10 15 -2 502.65 52.09
-15 5 -2 381.76 47.7
-5 -10 -2 518.25 52.49
-15 5 -2 462.15 50.79
-15 10 2 464.95 48.4
-10 -5 2 466.55 47.6
-15 4 2 280.77 40.6
-11 15 2 213.58 34.9
-4 15 -2 172.98 35.4
-4 -11 2 208.98 32.2
-11 -4 -2 133.29 30.4
-15 11 -2 254.77 38.2
-15 4 2 225.58 37.1
-15 4 -2 289.77 45.5
-4 -11 -2 280.97 43.1
-15 11 2 269.47 41.8
-11 15 -2 266.07 45.1
-11 -4 2 272.27 38.5
4 11 -2 255.67 43
-15 4 -2 237.98 42.1
3 -15 -2 101.49 23
-3 15 -2 193.98 36.9
-12 15 2 179.48 33.1
15 -12 -2 60.09 20.7
-15 3 2 111.89 28.8
-12 15 -2 188.88 35.2
-3 -12 -2 219.98 40.8
3 -15 2 113.89 25.3
-12 -3 2 205.48 36.4
-12 15 -2 74.49 21.3
-15 3 -2 148.29 31.3
3 12 -2 233.58 42.3
-15 3 -2 220.98 39
2 -15 -2 65.39 21.9
-15 13 -2 145.79 33.6
-15 13 -2 58.19 18.6
-15 2 2 82.39 27.5
13 2 -2 73.09 22.2
-15 2 2 85.49 29.9
-2 -13 2 111.99 28.1
-13 -2 -2 122.69 31.5
-13 15 2 92.39 29.6
-2 15 -2 150.08 37.3
-13 -2 -2 24.8 17.8
2 13 2 67.09 22.2
15 -13 -2 109.09 25.7
-15 2 -2 150.98 26.1
2 -15 2 107.29 26.4
-2 -13 -2 182.48 31.7
2 13 -2 196.48 40.8
-13 15 -2 213.38 39.6
-13 -2 2 171.18 32.3
-13 15 -2 148.89 25
15 -2 -2 176.18 27.9
-15 13 2 156.58 33.1
-15 2 -2 182.08 36.5
-14 -1 -2 119.89 32.5
15 -14 -2 125.99 28.2
1 14 2 111.19 27.3
-15 1 2 155.08 33.9
1 -15 -2 105.09 26.1
-15 1 2 124.59 24.9
-1 -14 2 111.19 29.6
-15 1 2 145.99 33.1
-15 14 -2 117.29 23
14 1 -2 191.88 30.7
-15 14 -2 180.48 36.7
-14 -1 -2 142.09 25.5
-14 15 2 104.69 30.3
-1 15 -2 142.39 36.5
15 -1 -2 141.69 27
14 1 2 53.79 22.7
-14 -1 2 144.19 32
-15 1 -2 100.69 24
-1 -14 -2 82.09 25
-1 15 2 89.79 24.7
1 -15 2 88.29 25.8
-14 15 -2 167.08 37.1
14 -15 -2 93.99 25.7
15 -1 -2 101.19 22.5
1 14 -2 109.39 37.7
-15 1 -2 133.29 35.3
-14 15 -2 96.19 23.6
-15 14 2 82.59 20.8
-15 14 2 107.79 30
-15 0 2 78.79 30.7
-15 15 2 70.69 29.6
0 15 2 94.69 28.5
-15 15 -2 131.19 26.2
-15 0 -2 54.59 22.1
0 -15 2 71.89 27.2
0 15 -2 55.59 35.1
15 0 -2 97.59 24.5
15 0 2 61.99 23.8
15 -15 -2 97.49 28.2
-15 15 -2 110.79 32.7
-15 0 2 105.69 30.7
0 -15 -2 85.49 25.2
-15 0 -2 88.49 30.7
-15 15 2 83.19 23.3
15 0 -2 95.29 26.7
-15 0 2 82.79 23.1
-8 -8 -2 -4.1 20.7
8 -16 -2 17 16.3
8 -16 2 11.4 15.5
-8 16 -2 38.1 25.7
-8 -8 2 48.1 23.1
-16 8 -2 52.29 26.6
-8 -8 2 42.6 22.4
16 -8 -2 2.4 14.4
-16 8 2 27.8 21.4
-8 16 2 2 19.5
8 8 2 25.8 23.2
-8 -8 -2 42.2 22.4
-16 8 -2 29.6 24.7
16 -8 2 11.2 15.1
7 9 2 257.87 37.8
-9 -7 -2 157.18 29.7
-9 16 2 140.69 27.6
-16 9 -2 138.89 29.7
-7 -9 2 214.58 36.4
9 -16 2 239.58 30.6
9 7 2 349.47 41.8
-16 9 2 387.86 44.3
-7 -9 -2 403.36 50.59
16 -9 2 320.57 36.5
-16 7 -2 330.97 47.3
-16 7 -2 366.56 46.7
-9 16 -2 387.66 49.6
-9 -7 2 381.76 45
-9 -7 2 392.46 48.5
9 -16 -2 337.17 36.7
6 10 2 97.39 27.4
-10 16 2 74.59 26.4
-6 16 -2 108.79 30.5
-6 -10 2 157.28 30.4
-10 -6 -2 78.49 25
10 -16 2 103.29 20.4
-10 -6 -2 93.59 24.6
-6 -10 2 48.2 22.7
-16 6 2 149.39 31.3
-16 6 2 99.39 28.8
-16 10 -2 158.08 33
-6 -10 -2 140.89 29
-10 -6 2 54.99 23.4
6 10 -2 63.09 33.9
10 6 2 78.09 24.3
16 -10 2 97.19 22.4
10 -16 -2 72.99 19
16 -6 -2 128.69 24
-16 6 -2 131.09 32.5
-16 10 2 154.38 31.9
-10 16 -2 101.69 30.6
-10 -6 2 96.79 27.5
-10 16 -2 47.1 18
-16 6 -2 83.19 29
16 -11 -2 68.69 24.6
-5 -11 2 91.09 25.3
-16 5 2 75.89 29.3
-5 16 -2 110.49 32.8
-16 11 -2 78.19 27.8
5 11 2 73.89 26.9
-11 16 2 69.59 29
-11 -5 -2 53.59 24.8
11 -16 2 73.79 19
-16 5 2 110.59 32.4
16 -11 2 110.09 24.7
-11 16 -2 94.39 22.6
-5 -11 -2 166.48 31
16 -5 -2 150.68 26.6
-16 5 -2 103.59 33.5
5 11 -2 130.29 37.3
-11 16 -2 160.78 35.8
-16 5 -2 84.69 27.3
-11 -5 2 136.59 30.9
11 5 2 106.69 26.9
-16 11 2 137.89 30.5
11 -16 -2 97.09 21.5
16 -12 -2 302.57 43.5
-16 4 2 249.48 44.8
-4 -12 2 313.47 48.5
12 -16 2 195.68 30
16 -12 -2 227.08 34.9
-4 16 -2 301.67 49.2
4 12 2 301.57 45.6
-12 16 2 263.67 39.7
-12 -4 -2 289.17 42.5
12 4 -2 308.37 38.2
-16 12 -2 301.77 44.3
-16 4 2 310.07 49.3
-16 12 -2 286.97 35.6
16 -4 -2 326.77 43.1
-12 16 -2 378.66 51.29
16 -12 2 329.27 40.4
4 12 -2 300.27 49.1
-12 16 -2 381.06 41.6
-16 12 2 322.27 46.6
-16 4 -2 301.67 38.4
-4 -12 -2 343.37 48.2
-12 -4 2 369.16 44.8
12 4 2 353.56 43.9
-16 12 2 363.26 36.8
-16 4 -2 352.46 50.69
13 3 -2 120.69 28.2
-16 3 2 129.09 34.9
-13 16 2 88.59 31
3 13 2 92.89 29.3
-13 -3 -2 74.39 20.8
-16 13 -2 98.39 22.8
-16 3 2 106.79 31.4
-3 16 -2 106.19 34.8
-3 -13 2 107.59 28.7
-13 -3 -2 97.29 28.6
-16 13 -2 148.49 34.4
16 -13 -2 132.39 28.4
-16 13 2 99.89 30.8
-3 16 2 72.19 23.1
3 13 -2 71.79 36.2
-16 3 -2 72.99 23.6
-16 13 2 78.99 23
16 -13 2 61.79 24.5
-3 -13 -2 106.19 28.1
-13 -3 2 93.39 28.2
-13 16 -2 105.89 33.4
16 -3 -2 71.19 23.7
13 3 2 81.09 26
-16 3 -2 87.89 32.4
-13 16 -2 129.49 26.6
-16 2 2 80.49 31.2
-2 16 -2 102.49 35.1
-16 2 2 91.99 22.8
16 -2 2 82.09 22.1
16 -14 -2 148.19 28.8
-16 2 2 126.19 32.9
-2 -14 2 126.09 30.2
14 2 -2 177.28 31.2
2 -16 -2 48.2 20.3
2 14 2 112.49 29.2
-14 -2 -2 86.19 27.5
-16 14 -2 93.69 22
-14 -2 -2 99.69 22
14 2 -2 78.39 22.4
-14 16 2 114.09 33.3
-16 14 -2 169.58 36.2
-16 2 -2 111.59 25
-16 14 2 201.48 27.6
2 -16 2 69.39 25.2
-16 14 2 136.19 31.1
14 -16 -2 125.49 26.7
-14 -2 2 115.09 28.6
16 -2 -2 219.48 30.5
16 -14 2 147.49 29.2
-2 -14 -2 125.39 28.2
-14 16 -2 157.88 35.7
-2 16 2 137.29 28.7
14 2 2 140.59 28.4
-16 2 -2 178.08 37.9
2 14 -2 166.88 41.9
-1 -15 2 17.1 23.6
-16 1 2 32.2 31.3
-15 -1 -2 37.1 20.5
-16 1 2 37.6 26.4
-15 -1 -2 58.89 29.6
-16 1 2 28.5 20.9
1 15 2 46.4 27.2
15 1 -2 35.6 22.6
-15 16 2 45.9 20.9
1 -16 -2 19.4 19
16 -1 2 33.1 23.3
15 1 -2 58.49 26.8
-1 16 -2 -5.5 15.8
-15 16 2 32.6 29.1
-16 15 -2 43.3 21.2
16 -15 -2 55.29 25.6
-1 16 -2 59.79 33.5
-16 15 -2 81.79 33.5
-1 -15 -2 42.1 23.3
-15 16 -2 19.9 28.5
-16 1 -2 29.8 22.3
16 -1 -2 31.3 22.7
-1 16 2 46.6 26.6
16 -15 2 15.5 24.5
15 1 2 32.4 24.6
-15 -1 2 25.9 24.4
1 15 -2 26.5 32.2
-15 16 -2 51.09 24
1 -16 2 11.6 22.1
15 -16 -2 26.9 25.7
-16 15 2 19 26.6
-16 1 -2 38.1 28.7
-15 -1 2 39.1 21.7
-16 15 2 25.9 21.8
0 -16 2 -12.3 23.8
16 -16 2 20.2 23.3
-16 16 2 4.4 19.5
0 -16 -2 7.6 20.1
-16 0 2 22.9 26.6
16 -16 -2 -10.7 25.4
0 16 2 13.1 24.9
-16 0 -2 -3.2 20.5
-16 0 2 15.8 19.1
-16 16 -2 24.4 21.4
-16 0 -2 6.2 27.3
16 0 -2 11.4 23.3
-16 16 2 20 29.1
-16 0 2 30.1 30.7
0 16 -2 7.9 29.1
16 0 2 -3.3 23.1
-16 16 -2 23 30.2
0 16 -2 0.8 15.6
-17 8 2 376.46 45.2
-8 -9 2 242.78 42.2
9 -17 2 359.16 41.8
-8 17 -2 335.77 48.5
8 9 2 361.66 49.5
-9 -8 -2 336.57 47.9
-8 17 -2 346.07 39.3
-8 -9 2 373.36 50.49
8 -17 -2 357.96 38
17 -8 2 359.26 42
-17 9 -2 364.56 50.29
17 -9 -2 397.86 43.1
-17 9 2 246.58 42.3
9 -17 -2 302.07 36.7
-17 8 -2 254.97 41.8
-9 -8 2 180.78 34.5
9 8 2 308.47 44.4
-9 17 -2 278.47 37.7
-9 -8 2 265.47 48.1
-9 17 -2 238.78 39.5
17 -9 2 297.47 38.9
-8 -9 -2 296.47 46.5
8 -17 2 301.37 37
-17 8 -2 242.98 40.1
17 -8 -2 268.97 39.9
-17 7 2 47.6 24.6
-10 -7 -2 58.79 23
7 -17 -2 77.69 21
-7 17 -2 79.19 23.7
-10 17 2 17.2 19
-17 10 -2 73.39 29.5
-17 10 -2 81.29 21
7 10 2 71.89 30.5
17 -10 -2 126.09 26.1
17 -7 2 63.59 23.7
10 7 -2 53.99 23.5
-10 -7 -2 20.2 22.5
-7 -10 2 52.39 25.1
17 -10 -2 81.29 27.2
10 -17 2 98.19 22.4
-7 17 -2 60.59 29.4
-10 17 -2 107.69 33.3
-10 -7 2 145.19 32.7
-17 7 -2 91.69 30.8
10 -17 -2 156.68 24
17 -10 2 145.59 27.6
10 7 2 151.88 31.9
-17 10 2 102.59 28.5
-10 17 -2 134.19 26.5
-10 -7 2 105.19 27.1
17 -7 -2 137.09 25.6
-7 -10 -2 115.19 28.1
-17 7 -2 118.09 33.1
7 -17 2 169.28 24.9
6 11 2 464.45 54.99
-17 11 -2 436.36 42.2
17 -11 -2 423.46 45.4
17 -11 -2 424.66 48.3
-6 -11 2 417.46 56.29
-6 17 -2 403.36 40.9
-6 17 -2 451.65 55.79
11 6 -2 441.26 49.8
-17 6 2 428.46 51.39
17 -6 2 349.87 41.6
6 -17 -2 412.16 41.2
11 -17 2 410.16 42.3
6 -17 2 441.86 42.9
17 -11 2 481.55 47.1
-17 6 -2 399.56 54.29
11 -17 -2 491.15 45.4
-11 17 -2 542.85 46.2
-6 -11 -2 480.95 55.99
-6 17 2 349.57 41.7
17 -6 -2 464.15 46.9
-17 6 -2 473.85 56.09
11 6 2 483.95 49.99
6 11 -2 376.96 59.19
-17 11 2 433.16 51.89
-11 -6 2 459.15 50.79
-11 17 -2 462.55 55.59
-17 12 -2 205.68 38
-12 -5 -2 119.49 29.6
-5 17 -2 203.08 39.4
-17 12 -2 192.18 28.2
5 12 2 205.88 34.8
17 -12 -2 236.28 32.8
-5 -12 2 225.18 36.7
12 -17 2 228.58 27.6
-17 5 2 151.78 34.7
12 5 -2 153.68 31.3
-12 17 2 143.19 33.2
17 -12 -2 189.08 29.3
-5 17 -2 135.19 25.2
-17 5 2 243.98 39.9
-17 12 2 111.29 30.1
-5 -12 -2 144.19 31.4
-12 17 -2 194.68 29.6
-12 17 -2 116.29 32.7
17 -5 -2 123.59 26.7
12 -17 -2 135.69 24.9
-17 12 2 209.78 27.4
-5 17 2 167.38 29.1
12 5 2 207.08 34.5
17 -12 2 184.78 30.1
-12 -5 2 154.78 32.4
5 12 -2 138.09 38.5
-17 5 -2 106.69 33.1
-17 5 -2 144.39 27.1
-4 17 -2 99.79 34.1
17 -13 -2 138.99 28.2
-17 4 2 98.89 34.4
13 4 -2 87.29 23.1
-13 17 2 76.79 30.6
4 13 2 146.59 34.1
-4 -13 2 81.19 28.7
13 4 -2 161.38 31.5
-17 4 2 93.79 32.2
-17 13 -2 149.19 25.7
-4 17 -2 55.59 22.2
-17 4 2 50.29 20.2
-13 -4 -2 96.39 28.9
-13 -4 -2 69.09 20.2
13 -17 2 123.19 23.6
-17 13 -2 93.29 29.9
-17 13 2 75.99 28.9
4 13 -2 100.39 36.1
17 -4 -2 131.19 28
-13 17 -2 140.29 36.7
-4 -13 -2 101.59 28.3
-13 17 -2 102.09 24.3
13 -17 -2 116.39 23.9
-17 4 -2 87.89 24.1
-17 13 2 136.89 25.5
-13 -4 2 136.29 32.1
-17 4 -2 120.09 36.5
17 -13 2 143.69 28.2
13 4 2 95.79 26.9
-4 17 2 88.79 26.5
17 -14 -2 157.58 29.1
-3 -14 2 144.39 33.3
-14 17 2 135.19 33.9
17 -3 2 107.09 24.9
-17 3 2 153.58 39
14 3 -2 188.08 32.9
-14 -3 -2 82.09 27.9
-17 3 2 118.49 24.2
-17 14 -2 177.18 26.4
3 14 2 212.48 36.4
14 -17 2 116.89 22.8
-14 -3 -2 149.59 24.9
-3 17 -2 104.79 23.9
-14 17 2 57.19 20
14 3 -2 108.69 23.9
-17 3 2 131.99 34.8
-17 14 -2 108.59 32.2
-3 17 -2 112.79 34.7
-14 -3 2 93.49 27.7
17 -3 -2 113.39 27
14 -17 -2 129.79 27.6
14 3 2 97.09 27.1
-14 17 -2 181.18 27.7
-14 17 -2 132.99 37.7
3 14 -2 46.9 35.9
14 -17 -2 96.39 22.5
17 -14 2 117.79 27.4
-17 14 2 143.79 25.1
-17 3 -2 118.99 24.4
-3 -14 -2 117.39 28.1
-3 17 2 139.89 28.1
-17 3 -2 170.48 38.7
-17 14 2 123.99 32.8
-17 2 2 19 26.7
17 -2 2 17.7 21.8
15 2 -2 30.3 21.9
17 -15 -2 22.4 22.9
15 2 -2 51.29 26.7
-17 15 -2 68.09 21.9
-15 -2 -2 62.89 21.7
-15 17 2 32 21.6
-17 15 -2 48.1 30.8
15 -17 2 19.8 18.3
-2 -15 2 24.7 24
-17 2 2 29.6 19.8
-17 2 2 47.3 31.5
-15 17 2 39.2 29.6
2 15 2 50.59 29.3
2 -17 -2 -5.9 16.2
-15 -2 -2 43.2 26.2
-2 17 -2 33.9 21.5
-2 17 -2 15.9 28.4
2 15 -2 -3.9 16.8
-2 17 2 38.8 25.9
17 -15 2 36.1 26.4
15 2 2 34 24.5
15 -17 -2 1.6 15.2
-15 -2 2 50.69 22.6
-15 -2 2 43.6 26.3
17 -2 -2 36.7 23.9
2 15 -2 -1.8 39
-15 17 -2 55.29 33.9
15 -17 -2 27.4 25.6
-17 2 -2 44.1 22.8
-15 17 -2 42.6 22
-17 15 2 52.69 21.9
-17 15 2 21.7 26.7
-17 2 -2 28.1 28.6
-2 -15 -2 45.1 23.7
-16 17 2 26.1 28.5
-1 -16 2 35.5 25.1
1 -17 -2 8.6 17.5
-16 -1 -2 69.69 20.6
17 -16 -2 67.39 25.1
16 -17 2 4.3 18.4
-1 17 -2 30.8 21.5
16 1 -2 45.3 22.9
-16 -1 -2 53.79 27.4
16 1 -2 88.29 27.1
16 -17 2 -22.3 20.4
-17 16 -2 72.09 22.3
-17 1 2 28.4 26.8
-16 17 2 77.09 22
-17 16 -2 50.79 32.6
-17 1 2 74.69 21
-17 1 2 28.5 30.7
1 16 2 85.19 29.3
17 -1 2 67.79 23.5
17 -16 2 46.1 25.9
-16 17 -2 80.19 25.6
-17 1 -2 50.39 21.2
-1 -16 -2 33.8 21.8
1 -17 2 -15.8 20.4
16 1 2 66.79 24.1
-16 17 -2 57.19 32
-17 16 2 59.89 30.5
-16 -1 2 74.29 21.3
17 -1 -2 66.99 25.1
-17 1 -2 43.7 29.8
1 16 -2 18.5 18.1
-16 -1 2 8.7 27.3
-16 -1 2 26.9 26.2
-17 16 2 30.9 19.6
16 -17 -2 63.69 25.8
-1 17 2 33.6 25.4
-17 0 2 0.2 26.9
17 -17 -2 8.8 21.8
-17 0 -2 7.8 19.9
-17 0 -2 29 27.6
0 17 -2 16.2 20
17 0 -2 3.6 22.4
-17 17 2 18.5 19.7
-17 17 -2 6.3 28.7
-17 0 2 5.6 17.4
0 17 2 27.3 26
17 0 2 10.8 21.2
-17 17 -2 23.9 22.4
-17 0 2 9.7 25
17 -17 2 5.5 25.1
0 -17 -2 -6.3 18.1
-17 17 2 0.3 26
0 -17 2 -26 20.8
18 -9 -2 16.7 27
-9 18 -2 41.5 22.6
18 -9 -2 36 22.9
-9 -9 -2 51.69 22.9
-18 9 -2 12.8 28.9
18 -9 2 61.69 25.3
-9 18 2 26.4 25.4
9 9 -2 6 18.3
-18 9 2 41.9 28
9 -18 -2 61.49 20.2
-9 -9 2 4.8 21.6
9 9 -2 22.3 28.1
-9 -9 2 37.7 24.2
9 9 2 57.79 29
-9 18 -2 38.1 29.8
-18 9 -2 44.7 21.3
9 -18 2 58.89 21.2
18 -10 -2 326.87 48.8
-18 10 -2 311.57 49.8
18 -8 2 276.17 43.2
-10 -8 -2 235.28 44
10 -18 2 280.77 38.5
18 -10 -2 271.07 40.5
8 -18 -2 276.97 37.2
-18 8 2 267.27 44.6
-8 18 -2 284.87 39.9
-8 -10 2 272.17 50.79
8 10 2 314.37 47.8
10 8 -2 283.57 47.8
-10 18 2 261.67 43.8
-18 10 -2 286.37 40.8
-10 18 -2 273.47 47.5
8 -18 2 331.47 39
-10 -8 2 263.57 44
8 10 -2 271.27 44.1
18 -8 -2 317.27 41.9
10 -18 -2 337.67 38.1
-10 18 -2 396.76 41.7
10 8 2 297.97 46.7
-18 10 2 322.17 49
-8 -10 -2 358.66 48.6
18 -10 2 321.37 42.4
-10 -8 2 265.67 49.6
-8 18 2 295.17 42.3
18 -7 2 93.99 26.2
11 7 -2 73.89 30.3
18 -11 -2 104.89 28.7
-7 -11 2 67.99 26.4
11 -18 2 139.79 23.6
-11 18 2 75.79 27.2
-18 7 2 54.89 27.7
-18 11 -2 56.59 23.3
18 -11 -2 82.49 24.6
7 -18 -2 64.39 20.7
-7 18 -2 83.59 31.9
-7 18 -2 58.29 22.9
11 7 -2 19.8 17.1
-18 11 -2 78.09 32
7 11 2 150.48 34.6
11 -18 -2 101.49 22.1
11 7 2 92.39 29.8
-11 -7 2 74.99 29.5
-18 7 -2 55.79 29.8
-18 7 -2 35.4 19.8
18 -7 -2 128.09 26.4
-11 18 -2 71.19 24.6
-7 -11 -2 66.09 24
-18 7 -2 59.79 30
-11 18 -2 94.19 34.3
-7 18 2 83.89 24.9
-18 11 2 83.29 30.8
7 -18 2 92.79 22.1
18 -11 2 124.39 27.3
18 -6 2 46.1 24.2
6 -18 -2 80.69 22.3
-18 12 -2 51.79 29.8
18 -6 2 5.2 15.2
12 6 -2 85.59 23.8
-12 18 2 55.29 27.6
18 -12 -2 98.19 27.4
18 -12 -2 41.7 23.8
-18 12 -2 56.09 23.5
12 6 -2 38.3 27.8
-18 6 2 47.3 29.2
-6 18 -2 35.8 21.8
12 -18 2 80.69 21
-6 -12 2 57.99 27.4
-6 18 -2 78.39 32.2
-12 -6 -2 25.8 23.3
6 12 2 71.89 31
-18 6 -2 55.69 30.3
-6 18 2 58.59 25.1
18 -6 -2 84.39 24.3
12 -18 -2 86.19 22.1
-18 6 -2 -1.3 26.6
-18 12 2 91.39 21.7
-18 12 2 78.69 29.1
6 -18 2 68.99 21
18 -12 2 91.79 25
-18 6 -2 67.89 23
-12 18 -2 80.29 34.5
12 6 2 83.69 30.3
-6 -12 -2 79.89 25.4
-12 -6 2 69.99 28
-12 18 -2 98.69 25.4
5 -18 -2 34 19.9
18 -13 -2 52.29 26
5 13 2 51.89 31.5
13 5 -2 22.9 21.5
18 -5 2 7 21.5
-13 -5 -2 31.5 24.3
-13 18 2 -2.2 15.5
-18 5 2 8.9 23.4
13 5 -2 38.8 28
-18 5 2 18.2 27
-5 18 -2 22.7 22.3
-18 13 -2 23.6 27.4
-13 -5 -2 38 19.8
18 -5 2 26.9 21.1
-18 5 2 -15.7 16.7
-5 -13 2 40.2 26
-5 18 -2 18.5 28.9
-18 13 -2 41.2 22.3
13 -18 2 43.2 19.9
-13 18 -2 70.99 23.5
-13 -5 2 49.99 25.9
-18 13 2 74.99 22.4
-5 18 2 51.49 24.5
-18 5 -2 38.1 21.5
13 -18 -2 69.89 21.9
5 13 -2 1 19.2
-5 -13 -2 64.19 24.3
-18 5 -2 50.59 30.6
18 -13 2 52.39 24.2
18 -5 -2 57.79 22.9
13 5 2 53.39 25.5
5 -18 2 41.2 19
-18 13 2 64.99 28.4
-13 18 -2 44.2 28.9
-18 4 2 50.59 29.2
-18 14 -2 81.59 32.5
18 -14 -2 72.39 24.7
-18 4 2 60.19 21.9
-18 4 2 -0.5 24.3
14 4 -2 30.1 20.7
4 14 2 101.69 31.3
-4 18 -2 27.2 27.3
-18 14 -2 53.49 20.3
-14 18 2 -8.7 38.9
18 -4 2 76.29 25.4
-14 18 2 59.99 20.4
14 -18 2 74.49 22.1
-14 -4 -2 58.59 20.7
14 4 -2 53.69 26.5
-4 18 -2 72.69 23.4
-14 -4 -2 40.3 25.9
-4 -14 2 49.4 26.9
-14 -4 2 42.1 21.2
18 -14 2 43.2 24.3
-14 18 -2 47.5 21.2
-18 14 2 59.79 28.6
14 -18 -2 47 25.4
14 4 2 39.9 24.1
-18 14 2 65.29 21.5
-4 -14 -2 42.4 23
-14 -4 2 40.4 27.3
-4 18 2 28.1 24.2
18 -4 -2 50.09 23.1
14 -18 -2 37.4 21
-14 18 -2 55.09 32
4 14 -2 1.1 16.2
-18 4 -2 26.6 29.1
-18 4 -2 42.9 22.2
-18 3 2 40 26.5
-15 -3 -2 82.39 21.4
3 15 2 108.89 30.8
-18 15 -2 94.29 32.5
18 -15 -2 74.29 24.5
15 3 -2 34.6 21.4
-3 -15 2 55.09 27.3
18 -3 2 58.69 23.4
-18 3 2 81.09 31.2
-3 18 -2 72.49 22.8
15 -18 2 63.69 21.1
-15 18 2 70.69 22.4
-18 15 -2 78.19 21.8
-15 -3 -2 56.79 27.4
-18 3 2 46.4 20.3
15 3 -2 58.29 26.3
-15 18 2 -6.6 34.5
-3 18 2 50.19 25.4
18 -3 -2 84.69 24.6
-15 18 -2 74.59 22
-18 3 -2 28.5 20.2
-3 -15 -2 52.99 22.5
15 -18 -2 43.1 20.4
-15 -3 2 32.3 25.6
-15 18 -2 47.6 31
3 15 -2 -1.3 14.7
15 -18 -2 28 25.1
-18 3 -2 18.3 27.8
15 3 2 42 22.8
-18 15 2 50.49 19.6
18 -15 2 56.09 25.2
-18 15 2 68.29 30
-15 -3 2 86.79 23
-18 2 2 69.29 20.9
-18 2 2 69.39 30.7
-18 16 -2 65.89 32.2
18 -16 -2 88.29 25.4
16 2 -2 68.29 23.2
-2 18 -2 58.09 22.1
16 -18 2 63.29 18.7
-16 -2 -2 57.29 27.2
-18 16 -2 126.19 23.9
-18 2 2 54.99 28.3
2 16 2 99.99 28.6
-2 -16 2 44.5 26.1
-16 18 2 113.59 24.5
-16 -2 -2 112.29 22.8
16 2 -2 77.89 26.6
18 -2 2 88.69 25.2
-16 -2 2 6.3 36.6
-16 18 -2 30.7 30.3
16 2 2 74.59 24.5
16 -18 -2 47.3 25.2
-16 18 -2 90.89 23.4
18 -2 -2 52.99 23.4
-18 2 -2 84.49 32.7
-16 -2 2 33.9 27.7
-18 16 2 61.79 20.4
2 16 -2 5.6 15.1
16 -18 -2 43.3 20.5
-2 18 2 57.89 26.2
18 -16 2 65.59 25.3
-18 16 2 27.1 27
-2 -16 -2 51.29 23.1
-18 2 -2 46.3 20.2
-16 -2 2 95.99 22.5
-17 18 2 26 21.1
-1 -17 2 -19.9 19.5
17 1 -2 24.2 23.2
-17 -1 -2 45.4 19.4
-18 17 -2 -15 27.2
-1 18 -2 27.1 19.8
-18 1 2 2.9 24.6
17 -18 2 21.8 21.6
18 -17 -2 30 21.4
1 17 2 25 27
-18 17 -2 43.7 20.8
-17 -1 -2 24.8 24.9
-18 1 2 27 18.2
18 -1 2 29.2 22.6
-18 1 -2 11.5 18.4
-17 18 -2 15.8 28.7
-18 17 2 -6 28.6
-17 -1 2 4.1 25.2
1 17 -2 0.8 15.6
17 1 2 8.2 20.6
-17 -1 2 26.7 18.9
-17 18 -2 21.8 21.1
-1 -17 -2 -4 20.1
17 -18 -2 27.9 23.1
-18 17 2 27 18.9
-18 1 -2 10.5 26.5
18 -17 2 23.5 24.5
-1 18 2 6.5 23.5
18 -1 -2 21.6 22.4
-18 0 2 66.29 18.8
-18 0 2 -4.6 20.8
18 0 -2 58.29 24.1
-18 18 -2 71.49 21.3
0 18 -2 25.1 16.3
18 -18 2 32.3 24.3
-18 0 -2 80.59 21.1
-18 0 -2 -1.8 22.3
18 -18 -2 31.6 21.2
-18 18 2 53.69 20.5
18 0 2 53.19 22.2
-18 18 -2 -12.8 25.2
0 18 2 75.99 27.3
10 -19 2 77.09 20.8
9 -19 -2 58.49 19.1
19 -10 -2 70.59 24.1
19 -10 -2 75.19 29.6
10 9 -2 61.79 30.1
-10 19 2 86.29 28.6
10 9 -2 43.4 19.1
-10 -9 -2 22 21.1
-9 19 -2 58.59 23.2
-19 10 -2 39.9 23.3
9 10 2 56.09 28.6
-19 9 2 73.99 30.4
19 -9 2 74.29 26.2
-19 10 -2 38.7 30.5
-9 -10 2 19.4 24.2
-9 19 -2 28.8 28.6
-19 9 -2 8.9 28
9 10 -2 4.8 16.7
10 9 2 31 27.5
-19 10 2 34.8 28
19 -10 2 63.39 25.1
9 10 -2 43.7 29.3
10 -19 -2 65.69 20.6
-10 19 -2 52.09 32
19 -9 -2 46.4 22
-9 19 2 40.1 23.5
-19 9 -2 70.89 23.9
9 -19 2 35.2 18.6
19 -9 -2 19.7 27.2
-9 -10 -2 39.1 22.3
-10 -9 2 -5.8 25.9
-10 19 -2 31.6 21.6
-19 11 -2 53.39 31
11 8 -2 94.69 30.9
-11 19 2 43 27.1
19 -8 2 54.29 24.8
-19 11 -2 77.79 24.4
-8 19 -2 58.39 23.1
11 8 -2 71.79 23.1
8 -19 -2 49.1 19.7
-8 19 -2 58.49 31
-8 -11 2 51.79 28.2
19 -11 -2 79.39 24
19 -11 -2 81.39 28.9
-19 8 2 64.19 30.6
11 -19 2 99.39 22.3
8 11 2 102.29 30.3
-11 19 -2 39.3 29.7
19 -8 -2 43.2 21
8 -19 2 55.99 19.5
-19 11 2 74.89 30.5
8 11 -2 48.7 28.1
11 8 2 100.39 29.8
11 -19 -2 105.09 22.3
-8 -11 -2 47.2 23
-11 -8 2 18.8 23.4
-8 19 2 50.49 23
19 -8 -2 45 26.2
-11 19 -2 63.99 22.6
-19 8 -2 51.99 20.2
19 -11 2 91.79 26.7
8 11 -2 7.5 15.8
-19 8 -2 -8.1 27.3
12 -19 2 100.59 21.4
12 7 -2 77.49 24.4
12 7 -2 124.69 31.8
7 12 2 139.79 33.7
-19 7 2 43.5 26.8
-19 12 -2 66.39 31.5
-12 19 2 82.09 28.3
19 -12 -2 94.59 27.9
7 -19 -2 75.59 21.2
-7 19 -2 38.4 27.9
-7 -12 2 72.49 30.4
19 -12 -2 71.59 24.6
-19 12 -2 100.99 25.3
19 -7 2 87.49 27.4
-7 19 -2 91.39 24.5
-19 12 2 35.9 27.1
19 -12 2 67.99 24.5
-7 19 2 58.69 23.7
-12 -7 2 47.1 26.5
-19 7 -2 44.9 21.2
7 12 -2 2.2 15.6
7 -19 2 50.69 18.8
19 -7 -2 24.3 20.2
-19 7 -2 -6.1 27.2
-7 -12 -2 57.59 24.4
12 7 2 44.3 26.1
-12 19 -2 49.1 22.2
-19 12 2 66.89 21.7
-12 19 -2 41.6 30.4
12 -19 -2 87.19 21
7 12 -2 54.59 26.2
6 -19 -2 2.6 19.4
-13 19 2 8 26.3
-19 13 -2 2.4 28.5
19 -6 2 12.8 20
-19 6 2 5 26
-19 6 2 -29.4 12.9
19 -13 -2 9.1 23.8
13 6 -2 -9.1 19.9
19 -6 2 19.3 23.5
-6 19 -2 2.2 27.8
-6 -13 2 -2.4 24.9
6 13 2 24 28.1
13 6 -2 6.1 25.8
-13 -6 -2 14.2 17.5
-19 13 -2 14.4 20
13 -19 2 10.2 18.8
-6 19 -2 3.7 21
-13 19 2 -1.8 12
6 13 -2 1.7 15.6
-6 19 2 11.3 22.4
6 -19 2 18.4 18.2
-13 -6 2 19.7 20.9
-19 13 2 8.9 27
13 6 2 8 22.2
-13 -6 2 7 24.9
-13 19 -2 3.5 20.2
19 -6 -2 23.8 20.8
-6 -13 -2 27.1 22.7
13 -19 -2 18.5 19.2
-19 6 -2 -14 19
-19 13 2 14.3 19.5
-19 6 -2 -1.9 26.7
-13 19 -2 4.3 31
19 -13 2 5.4 21.1
6 13 -2 7.5 21.6
19 -5 2 16.6 23
14 -19 2 18.5 19.3
14 5 -2 -6.8 19.7
-5 19 -2 31 20.6
19 -5 2 -4.9 21.9
-14 -5 -2 8.7 17.5
-14 19 2 6.8 16.6
-19 14 -2 29.6 19.9
14 5 -2 8.6 24.9
-19 14 -2 17.7 28.8
-5 -14 2 27.9 26.8
5 14 2 31.1 27.8
19 -14 -2 15.7 24.2
-19 5 2 13.1 26.4
5 -19 -2 2.6 18.2
-14 -5 -2 -7.1 22.6
-19 5 2 5.9 19.5
-14 19 2 27.5 26.4
-19 14 2 7.6 26
-14 -5 2 5.9 24.8
14 5 2 13.7 22.5
19 -5 -2 22.6 20.5
-14 19 -2 24.2 20.1
-5 19 2 14.8 21.9
19 -14 2 27.4 22.1
5 14 -2 2.7 13.3
-19 5 -2 10.7 28.5
-14 19 -2 24.5 30
-19 5 -2 1.1 19.4
-19 14 2 5.8 18.5
-5 -14 -2 17.5 21.7
14 -19 -2 9.4 15.1
5 14 -2 -1.8 17.7
5 -19 2 4.7 16.9
-14 -5 2 22.6 21.1
14 -19 -2 33.9 19.7
15 4 -2 20.8 24.9
-4 19 -2 9.1 19.9
-15 -4 -2 20.1 17.8
-19 15 -2 27.4 20
19 -4 2 23.6 22.6
19 -4 2 -4.7 18.1
4 15 2 55.59 28.4
4 -19 -2 -9.2 10.7
15 4 -2 25.2 21
19 -15 -2 20 22.9
-19 4 2 27.7 26.9
-19 15 -2 20.5 28.4
-15 19 2 41.9 19.3
-15 -4 -2 4.9 21.9
-19 4 2 20.3 20.1
-4 -15 2 28.2 26.5
15 -19 2 49.3 18.3
-19 4 -2 6.9 18.6
-15 -4 2 29.5 26.8
19 -15 2 19.8 23
-19 15 2 22.4 18.3
4 15 -2 -3.4 22.7
-15 -4 2 12.2 18.9
-15 19 -2 0.2 18.9
15 -19 -2 25.2 25.7
19 -4 -2 5.9 21.3
15 -19 -2 18.8 19.1
15 4 2 8.6 21.8
4 15 -2 3.1 13.3
-4 19 2 20.5 22.8
-19 15 2 22.7 26.2
-15 19 -2 15.1 29.1
-19 4 -2 12.5 27.6
4 -19 2 -20.9 16.2
-4 -15 -2 23.3 21.4
16 -19 2 103.99 20.6
-19 16 -2 51.79 29
19 -16 -2 134.69 27
-19 16 -2 144.09 24.2
-16 -3 -2 120.89 22.7
16 3 -2 71.19 23.3
-3 19 -2 98.09 22.3
3 16 2 109.39 29.6
19 -3 2 111.29 25.9
-16 19 2 129.59 23.7
-19 3 2 125.99 23.9
16 3 -2 166.18 30
-16 -3 2 155.58 23.5
19 -3 -2 147.19 27.9
-16 19 -2 70.79 31
-19 16 2 92.19 20.2
16 -19 -2 82.79 27.9
-3 19 2 147.69 28.1
16 3 2 98.79 25
-16 19 -2 78.79 21.4
-16 -3 2 53.29 27
19 -16 2 101.19 25.7
-19 3 -2 146.99 24.8
16 -19 -2 90.39 20.6
-19 3 -2 43.9 27.9
17 2 -2 14.5 22.4
-19 2 2 16.1 18.1
-2 19 -2 24.6 17.5
-17 19 2 2 18.5
2 17 2 14.6 23.7
-17 -2 -2 0.5 32.5
-19 17 -2 -15.5 24.1
19 -17 -2 13.6 20
-19 17 -2 19.7 17.6
19 -2 2 6.9 21.2
-17 -2 -2 11.8 17.3
17 -19 2 -2 15.3
-19 2 -2 20 18.3
2 17 -2 1.5 12.5
-2 19 2 11 22.6
17 -19 -2 14.5 15.3
17 2 2 23.2 21.4
-17 19 -2 27 19.3
-19 17 2 37.1 18.5
-17 -2 2 -13.1 21.7
-19 2 -2 0.6 22.9
19 -2 -2 24.2 20.8
-17 19 -2 -3.9 25.3
19 -17 2 27.8 24.1
-17 -2 2 17.3 17.8
17 -19 -2 18.1 24.2
-1 19 -2 8.5 13.3
19 -1 2 34.1 20.9
1 18 2 19 22.8
-19 18 -2 13.8 17.5
19 -18 -2 11.4 19.3
-18 -1 -2 8.9 16.6
18 1 -2 17.3 21.8
18 -19 2 20.6 17.1
-19 1 2 18.7 17.8
-18 19 2 4.8 17.9
19 -1 -2 4.5 19.8
18 -19 -2 24.5 22.7
-18 19 -2 8.4 17.6
18 1 2 -10 18.6
19 -18 2 4.4 22.8
-18 -1 2 9.8 17.3
1 18 -2 -1 11.8
-19 18 2 5 17.5
-1 19 2 2.6 21.9
-19 1 -2 16.9 17.5
19 -19 -2 -6.6 19.4
-19 19 -2 2.7 15.9
19 -19 2 18 20.9
0 19 2 -2.3 20.4
19 0 -2 0.1 19.5
-19 19 2 17.7 18.3
19 0 2 4.6 19.5
-19 0 -2 -3.5 15.7
-19 0 2 4.7 16.5
-20 10 2 118.59 32.8
20 -10 -2 170.58 28.3
-10 20 -2 209.68 28.7
10 10 -2 174.88 31.8
20 -10 -2 156.68 32.4
-20 10 -2 177.38 27.5
10 -20 2 154.48 23.1
20 -10 2 250.67 32.6
-10 20 2 168.58 29.1
10 -20 -2 216.18 32.2
11 9 -2 186.78 35.2
9 -20 -2 156.48 23.3
20 -11 -2 163.78 26.8
-20 9 2 120.89 33.1
20 -9 2 129.89 27.9
11 -20 2 187.98 30.4
11 9 -2 119.59 25
20 -11 -2 156.48 31.8
-20 11 -2 122.79 26.1
-9 20 -2 166.38 26.4
-11 20 2 133.19 28
9 11 2 207.18 33.8
-20 9 -2 142.99 26.1
-20 11 2 74.89 30.8
9 -20 2 129.99 21.2
20 -11 2 143.49 26.3
-9 20 2 73.09 24.3
11 -20 -2 157.88 22.9
9 11 -2 101.59 29.7
20 -9 -2 119.69 30.8
-11 20 -2 179.28 27.4
-11 -9 2 97.19 23.1
20 -9 -2 130.99 25.8
11 9 2 204.98 34.2
12 -20 2 97.99 19.9
8 12 2 162.38 32.4
-20 12 -2 113.79 25.8
-20 8 2 98.19 32.2
12 8 -2 83.59 23.4
8 -20 -2 86.39 21.2
20 -12 -2 132.09 29.2
12 8 -2 148.09 32.4
-8 20 -2 69.39 23
-12 20 2 112.39 28.2
20 -12 -2 101.79 25.1
20 -8 2 142.99 29
8 -20 2 140.79 22.5
-12 20 -2 217.68 28.7
20 -8 -2 126.59 28.3
20 -8 -2 183.08 28.4
-20 8 -2 111.09 25.5
12 -20 -2 195.78 30.7
-12 -8 2 158.68 25.5
-20 8 -2 140.79 24.1
-20 12 2 91.59 30.6
8 12 -2 129.99 30.2
-8 20 2 124.69 26.3
12 8 2 213.98 33
13 -20 2 129.29 21.7
7 -20 -2 117.69 22.4
-7 -13 2 15.3 22.8
-20 13 -2 95.09 23.5
20 -13 -2 118.69 26.1
13 7 -2 142.89 30.8
-13 -7 -2 58.69 18.4
20 -7 2 59.39 24.6
-13 20 2 82.59 26.9
20 -7 2 64.89 22.3
-20 7 2 49.7 29.4
-7 20 -2 81.39 22.6
13 7 -2 76.79 21.8
-20 13 -2 2.4 26.2
7 13 2 103.59 29.3
7 13 -2 64.79 26.8
-13 20 -2 77.99 22.1
-7 -13 -2 51.09 22.8
-13 20 -2 5.4 25.8
20 -7 -2 67.39 22.3
20 -13 2 122.39 26.3
-20 13 2 57.89 28.8
-7 20 2 62.69 23.2
13 7 2 134.79 28.6
-20 13 2 116.89 22.7
-20 7 -2 59.19 21.9
-13 -7 2 134.29 25
7 -20 2 107.39 21.4
20 -6 2 2.2 20.5
6 14 2 32.5 26.4
6 -20 -2 20.5 18.3
14 -20 2 18.5 17.3
20 -14 -2 29.7 23.6
-20 14 -2 -7.3 26.4
20 -6 2 9.8 22.6
14 6 -2 -5.5 19.6
-6 -14 2 -14.2 21.9
-20 14 -2 9 18.5
-14 20 2 4.4 24.1
-20 6 2 -11.3 18.4
-20 6 2 -7.6 23
-14 20 2 -2.9 12.4
-14 -6 -2 -6.3 15.6
14 6 -2 -8.7 23.2
-6 20 -2 1.6 18.9
6 14 -2 6.9 22.9
14 -20 -2 10.6 18
-14 20 -2 2.2 19.8
6 14 -2 2.3 13.4
-6 -14 -2 5.4 20.6
-6 20 2 3.3 20.9
-20 6 -2 3.4 19.7
14 6 2 -12.4 22.9
20 -6 -2 -0.2 20.3
6 -20 2 9.3 17.9
-14 -6 2 -7.4 28.1
-20 14 2 13.5 19.4
-20 14 2 0.4 22.8
20 -14 2 -3.3 22.4
-14 20 -2 0.7 24.9
-14 -6 2 5.6 19.2
15 5 -2 56.49 21.2
-15 20 2 79.89 20.6
-15 -5 -2 118.99 21.5
-15 20 2 91.09 26.3
-5 20 -2 77.49 21.1
-20 15 -2 118.19 21.7
-20 5 2 85.69 22
5 -20 -2 84.19 20.1
15 5 -2 139.39 29.1
20 -5 2 125.69 24.5
20 -15 -2 152.28 26.1
15 -20 2 124.89 20.6
20 -5 2 108.79 24.3
5 15 2 145.69 29.5
15 5 2 138.39 27.2
-15 -5 2 214.98 31.4
15 -20 -2 151.68 22.9
-5 20 2 99.59 24.3
-20 5 -2 125.59 23.4
20 -15 2 176.38 27.7
5 -20 2 113.09 20.8
-4 20 -2 15.7 17.4
-16 -4 -2 19.3 17.5
4 16 2 14.9 23.9
16 -20 2 14.6 15.4
16 4 -2 21.9 22.8
20 -16 -2 4.8 19.2
-16 20 2 7.5 17.1
-20 4 2 -6.7 17.8
-16 20 2 -0.6 22.4
-20 16 -2 14 17.7
20 -4 2 7.2 20.2
-20 16 2 -6.7 16.3
16 -20 -2 0.4 21.7
16 4 2 -13.9 20.7
20 -4 -2 -8.6 18.7
16 -20 -2 8.4 15.7
-20 4 -2 3.3 18.2
-16 20 -2 7.5 19.3
-16 -4 2 18.1 17.6
4 16 -2 2.4 17
20 -16 2 5.8 21.5
-4 20 2 2.3 19.9
20 -17 -2 54.69 19.9
-20 3 2 62.89 19.3
20 -3 2 28.9 20.5
-17 20 2 36.1 22.7
3 17 2 69.49 25.3
17 -20 2 38.1 17.3
17 3 -2 82.39 23.7
-3 20 -2 39.5 16.7
-17 -3 -2 62.79 17.9
-20 17 -2 58.89 18.3
-17 20 2 47.2 18.7
-17 20 -2 75.59 20.1
20 -17 2 74.39 23
-20 3 -2 93.89 21.3
17 -20 -2 32.2 16.5
-17 -3 2 70.89 18.6
20 -3 -2 98.99 23.2
-3 20 2 66.19 22.4
17 -20 -2 57.09 24
17 3 2 72.99 23.1
-20 17 2 69.99 19.3
-18 -2 -2 21.4 16.4
2 18 2 17.7 22.2
-2 20 -2 -1.9 11
20 -2 2 17.7 19
-20 18 -2 9.9 16.5
18 2 -2 4.6 20.2
20 -18 -2 9.2 17.9
-20 2 2 10.2 16.3
18 -20 2 -8.8 11.2
-18 20 2 -8 16.3
-20 18 2 5.2 16.6
18 -20 -2 7.9 20.9
20 -2 -2 11.8 19.2
-2 20 2 29.3 21
-18 -2 2 4.9 14.9
-18 20 -2 -8.8 15.8
-20 2 -2 6.8 16.6
18 -20 -2 -9.1 14.5
18 2 2 11.4 18.7
20 -18 2 -4.8 20.5
-19 -1 -2 9.3 15
-20 1 2 1.7 15.2
-19 20 2 18.3 16
1 19 2 29.9 21
20 -19 -2 8.9 18.9
19 1 -2 3 18.5
-20 19 -2 10.4 15.4
20 -1 2 4.4 17.9
19 -20 -2 -3.7 19.4
20 -19 2 -3.8 20
20 -1 -2 6.5 18.5
-19 20 -2 5.6 15.9
-19 -1 2 4.4 16
19 1 2 18.7 18.9
-20 19 2 12.2 16.5
-20 1 -2 12.4 15.4
-1 20 2 15.4 19.3
-20 0 2 31.9 15.9
20 -20 2 3.3 11.7
0 20 2 31.1 19.4
-20 20 -2 21.7 14.4
-20 20 2 25.2 15.4
20 -20 -2 23.5 19.5
20 0 -2 42.9 19.5
-20 0 -2 34.3 15.6
20 0 2 7.4 16.6
11 10 -2 7.2 23.4
10 -21 -2 30.8 17
21 -11 -2 11.6 20.6
11 10 -2 7 14
-21 11 -2 35.1 21.4
-10 21 -2 19.4 19.7
10 11 2 45 27.1
21 -11 -2 2.1 24.1
-21 10 2 -1.7 39
-11 21 2 28.9 20.8
11 -21 2 53.99 18
21 -10 2 29.1 22.7
-11 -10 2 -12.5 16.9
-21 11 2 -5 28
10 11 -2 28.8 24.4
21 -10 -2 15.8 20.5
21 -11 2 50.69 23
-10 21 2 30 20.7
21 -10 -2 31.5 26
10 -21 2 32.4 16.9
-21 10 -2 27.6 20.6
-21 11 2 31.1 19.7
-11 21 -2 39.6 20.6
11 10 2 58.69 27.7
11 -21 -2 43.9 17.7
10 11 -2 8.2 14.7
9 12 2 93.69 27.8
-9 21 -2 63.39 21.6
21 -12 -2 92.39 27.9
-21 12 -2 74.19 22.2
12 9 -2 21.6 15.1
-12 21 2 41.6 21.6
21 -12 -2 57.49 22.7
12 -21 2 114.99 20.1
21 -9 2 81.99 24.7
9 -21 -2 57.59 18.2
12 9 -2 68.59 26.8
9 -21 2 45.1 17.8
12 -21 -2 71.19 19.1
-9 21 2 41.9 21.3
-21 12 2 74.59 20.8
-12 -9 2 34.1 19.2
21 -12 2 62.79 23.4
9 12 -2 61.89 24.8
21 -9 -2 68.99 22.6
-21 12 2 -5.6 34.3
21 -9 -2 51.09 25.7
12 9 2 71.79 27.8
-21 9 -2 54.69 21
-21 9 -2 20.7 16
-12 21 -2 52.49 21.1
21 -13 -2 79.09 25.8
13 8 -2 27.6 16.3
13 8 -2 85.69 26.7
-13 21 2 37 21.5
-21 13 -2 25.7 19.4
21 -8 2 26 17.2
21 -8 2 40.8 21.6
13 -21 2 82.89 18.3
8 -21 -2 42.2 17.9
8 13 2 121.39 28.5
-8 21 -2 39.1 19
8 -21 2 22.5 17.2
-13 21 -2 32.4 20
13 8 2 37.2 24.8
21 -8 -2 7.4 21
-21 13 2 51.59 19.4
-21 8 -2 3.6 18
-21 8 -2 28.8 20
21 -8 -2 19.3 20.6
21 -13 2 58.79 22.6
13 -21 -2 34.8 16.8
-8 21 2 29.5 20.2
8 13 -2 32.3 23.1
-13 -8 2 18.6 18.9
-21 14 -2 22.5 18.6
7 14 2 43.1 25.3
21 -7 2 30.7 19.3
-14 21 2 2.1 20.7
14 7 -2 35.9 25.3
21 -7 2 33.4 21.4
14 -21 2 57.59 17.8
-7 21 -2 30.8 18.4
-14 -7 -2 17 16.2
7 -21 -2 35.3 17.7
21 -14 -2 30.3 21.4
14 7 -2 20.9 17
-21 14 2 26.1 18.7
14 -21 -2 31.4 16.1
7 14 -2 29.1 22
7 -21 2 5.2 17.8
-21 7 -2 3.8 16.6
21 -14 2 23.6 21.5
-14 21 -2 9.6 18.8
14 7 2 14.9 22.2
-7 21 2 6.1 19.5
-14 -7 2 33.3 18.6
21 -7 -2 13.9 20.7
-21 7 -2 12.1 18.2
21 -15 -2 44.3 20.5
-6 21 -2 23.3 17.3
15 6 -2 27.8 24
-21 15 -2 19 17.5
-15 21 2 2.4 11.9
-15 -6 -2 7.2 15.8
-15 21 2 20.2 20.7
21 -6 2 17.6 20.2
15 6 -2 11.4 17.2
15 -21 2 57.89 17.7
21 -6 2 26.2 19.8
6 -21 -2 33.9 18
6 15 2 30.5 23.8
-21 6 2 2.8 16.2
6 15 -2 2.7 17.6
21 -15 2 27.4 20.4
21 -6 -2 25.7 20.6
15 -21 -2 33.3 15.8
-6 21 2 27.1 20.2
-21 6 -2 7.9 18.6
15 6 2 23.6 22.4
-15 -6 2 37.3 18.4
-15 21 -2 21.8 18.6
-21 15 2 24.4 17.2
6 -21 2 11.7 16.8
-21 16 -2 77.09 19
-21 5 2 43.3 17.8
21 -5 2 47.1 20.6
-16 21 2 26.2 16.6
21 -16 -2 108.79 22.7
16 -21 2 78.39 19
-16 -5 -2 90.79 18.8
-5 21 -2 43.4 17.4
5 16 2 107.19 25.9
-16 21 2 64.99 22.2
16 5 -2 52.49 22.3
-16 21 -2 52.29 19.4
21 -16 2 58.19 21.1
-21 5 -2 44.4 19.3
-21 16 2 54.99 18
-16 -5 2 86.99 20
-5 21 2 24.5 19.7
16 -21 -2 52.29 17.4
21 -5 -2 90.49 22.4
16 5 2 75.99 23.8
-17 21 2 38.2 20.7
17 4 -2 61.59 22.8
-21 17 -2 108.29 20.2
17 -21 2 63.89 17
4 17 2 97.29 23.7
-17 -4 -2 66.49 17.6
21 -4 2 59.59 19.8
-21 4 2 46.4 17.7
21 -17 -2 76.79 19.3
-17 21 2 32.7 16.9
-4 21 2 39.2 19.8
-21 4 -2 49.7 18.2
17 4 2 71.19 22.5
-17 -4 2 93.99 18.9
17 -21 -2 37.8 16.5
-17 21 -2 76.99 19.1
21 -17 2 68.39 20.9
-21 17 2 54.59 17
21 -4 -2 62.59 20.6
17 -21 -2 33.4 15.1
21 -3 2 49.6 18.5
-18 -3 -2 42.8 16.5
18 -21 2 49.5 15
-18 21 2 33.1 17.6
18 3 -2 81.39 23.1
-21 18 -2 65.09 18.2
-21 3 2 65.49 17.9
3 18 2 87.79 22.5
-18 21 2 50.39 17
21 -18 -2 57.49 17.8
21 -18 2 42.8 19.3
-18 21 -2 44 17.2
18 3 2 19.2 17.3
-3 21 2 43.1 20.7
18 -21 -2 49.99 20.4
-21 18 2 38 15.8
-21 3 -2 40.8 16.8
21 -3 -2 48.6 19.3
18 -21 -2 8.1 11.5
-18 -3 2 70.09 18.5
-19 -2 -2 140.59 19.3
-21 19 -2 113.79 18.6
2 19 2 123.59 22.6
-19 21 2 84.59 17.6
19 2 -2 136.99 23.9
-21 2 2 109.39 19
21 -19 -2 110.99 21.1
21 -2 2 64.19 18.8
19 -21 -2 112.29 22
21 -2 -2 111.99 21.3
-2 21 2 75.79 20.1
-19 21 -2 72.89 17.8
-19 -2 2 150.78 20.1
19 2 2 111.59 22.1
21 -19 2 100.29 20.7
-21 2 -2 94.29 18
-21 19 2 97.69 19.3
20 1 -2 5.1 17.6
-21 1 2 -10.8 13.3
1 20 2 7.3 18.1
21 -20 -2 3.6 16.1
-20 -1 -2 11.8 14.2
-21 20 -2 3.7 13.9
21 -20 -2 -0.1 8.1
21 -1 2 7.3 15.9
-20 21 2 -1.5 12.9
-21 1 -2 7.4 14.1
21 -20 2 0.4 11.9
-1 21 2 6.6 17.3
20 -21 -2 6.5 16.1
-20 21 -2 13.9 14.3
-21 20 2 10.7 13.7
-20 -1 2 18.8 15.7
21 -1 -2 1.5 16.5
20 1 2 -7.6 15.2
-21 0 2 81.49 16.7
0 21 2 38 17.1
-21 21 2 31.1 13.2
21 0 -2 44.3 18.2
-21 21 -2 62.59 16.6
21 -21 -2 57.69 17.2
-21 0 -2 63.49 16.1
21 0 2 56.19 17.1
22 -11 2 177.88 27.5
-11 22 -2 125.29 22.9
11 -22 -2 111.89 19.2
-22 11 2 167.38 23.8
-22 11 -2 60.99 20.5
22 -11 -2 136.99 24.2
11 11 -2 92.09 24.5
22 -11 -2 83.59 24.6
-11 22 2 87.49 21.6
11 -22 2 170.28 22.8
22 -12 -2 6.1 22.6
-22 10 2 15.9 17.6
12 10 -2 2.2 20.9
10 -22 -2 1.1 15.7
22 -10 2 3 20.9
-10 22 -2 0.7 17.4
10 12 2 11 23.9
12 -22 2 6.1 14.9
-12 22 2 5.3 18.1
-22 12 -2 2.6 18.6
10 12 -2 12.3 20.5
12 10 2 29.9 22.6
-22 12 2 18.1 18.1
-22 10 -2 23.2 19.1
22 -12 2 7.4 20.6
22 -10 -2 17.4 19
12 -22 -2 15.3 15.4
-10 22 2 13.8 18.9
22 -10 -2 1.6 20.9
-12 -10 2 -10.4 14.6
10 -22 2 15.6 17.1
-12 22 -2 15.7 18.5
22 -13 -2 42.7 21.5
22 -9 2 32.7 22.5
-22 13 -2 33.7 18.9
-9 22 -2 39.8 17.7
13 9 -2 24.4 22.1
9 -22 -2 49.3 16.8
-13 22 2 28.4 18.4
9 13 2 85.99 26.2
13 -22 2 44 17.5
22 -9 -2 3.9 16.6
-13 22 -2 18.8 18.4
-22 9 -2 -5.6 11
-13 -9 2 21.3 16.1
9 13 -2 22.2 20.5
22 -13 2 24.5 20.4
13 -22 -2 33 15.4
-22 9 -2 17.5 18.2
-22 13 2 29 18
9 -22 2 13.3 16.6
22 -9 -2 27.5 19.7
-9 22 2 25.4 18.6
13 9 2 51.69 23.6
14 8 -2 12.6 17.5
22 -14 -2 51.89 21.2
8 -22 -2 39.3 16.9
8 14 2 71.49 24.8
-14 22 2 24.5 18
14 -22 2 47.5 17.1
22 -8 2 3.3 12.9
14 8 -2 20.6 22.5
22 -8 2 29.3 20.7
-8 22 -2 40.1 17.5
-22 14 -2 43.5 18.1
22 -8 -2 22 18.6
-22 8 -2 42.7 18.2
-22 14 2 49.3 17.7
22 -14 2 43.9 20.1
-14 22 -2 22.2 17.7
14 -22 -2 62.09 16.4
8 -22 2 33.5 17
8 14 -2 54.29 20.6
-22 8 -2 4.3 15.2
-8 22 2 6.7 18.2
-14 -8 2 14.9 15.9
14 8 2 62.19 23.2
-7 22 -2 5.8 14.9
15 -22 2 15.7 15.4
22 -15 -2 -2.4 17.4
-22 15 -2 -12.4 15.8
22 -7 2 2.2 19.4
22 -7 2 12.1 15.8
-15 -7 -2 -1.4 14.2
15 7 -2 14.1 14.1
7 15 2 17.6 21.3
15 7 -2 1 20.3
-15 22 2 7.1 16
7 -22 -2 -11.8 15.4
7 15 -2 -1.4 13.8
22 -15 2 6.5 17.1
15 7 2 -5.7 19.5
-7 22 2 9 17.2
7 -22 2 10.8 15.7
-22 15 2 4.9 15.6
22 -7 -2 2.8 18
-15 22 -2 4.7 16.4
15 -22 -2 15.6 14.4
-15 -7 2 25.4 17.1
-22 7 -2 0.7 16.5
16 -22 2 14.5 15
-16 -6 -2 6.1 14.6
22 -16 -2 8.8 16.1
-16 22 2 -1.1 13.3
-22 16 -2 -1.3 15.9
-22 6 2 -10.8 10.6
16 6 -2 10.6 19.8
6 16 2 32.7 21.1
6 -22 -2 -5 11.1
22 -6 2 7.3 17.4
-6 22 -2 3.6 11.3
6 -22 2 -9.4 9.5
16 6 2 17.6 19.7
-16 -6 2 28.1 16.5
22 -16 2 21.2 18.6
-22 6 -2 1.4 15.8
22 -6 -2 17 18
-16 22 -2 13.7 16
-22 16 2 14.7 14.8
-6 22 2 15.1 17.5
16 -22 -2 18.5 14.1
-22 17 -2 -1.5 16.4
-17 -5 -2 -1.4 14.4
22 -17 -2 9.5 15.9
17 5 -2 2 19
22 -5 2 0.3 16.1
-22 5 2 -1.6 14
-17 22 2 -3 19.2
17 -22 2 7.4 13.4
5 17 2 6.5 18.6
-17 22 -2 8 14.9
-22 5 -2 8.2 15.3
-22 17 2 21.4 14.7
22 -5 -2 2.1 16.9
-5 22 2 14.2 17.2
22 -17 2 3.1 17.4
17 -22 -2 7.8 12.8
17 5 2 21.3 17.5
-17 -5 2 7.4 16.4
-18 22 2 -0.8 12.5
4 18 2 9.7 18.3
22 -4 2 9.4 15.7
-22 18 -2 -1.9 14.4
18 -22 2 8 11.9
-18 -4 -2 5.3 13.9
22 -18 -2 6.2 15.7
18 4 -2 -6 18.7
-22 4 2 -1.5 13.9
18 -22 -2 2.6 10.9
22 -18 2 7.3 17.7
-22 4 -2 12.4 14.6
-18 -4 2 15.7 16
22 -4 -2 -2.6 15.9
18 4 2 -0.4 16.1
-18 22 -2 5.4 14.7
-22 18 2 13.3 14.6
-4 22 2 -5 15.5
-19 -3 -2 101.29 17.9
-22 3 2 49.99 14.9
22 -3 2 53.19 17
-22 19 -2 57.99 16.3
22 -19 -2 73.19 18.2
19 3 -2 79.99 20.1
3 19 2 71.19 19.5
22 -19 2 59.19 17
-3 22 2 16.4 17.1
-22 19 2 49.6 15.2
22 -3 -2 40.8 17
-22 3 -2 35.4 14.5
-19 -3 2 75.79 16.9
-19 22 -2 50.89 15.3
19 3 2 35.2 16.7
22 -2 2 3.8 12.9
20 2 -2 -9.9 18.2
22 -20 -2 14.1 16.2
-20 -2 -2 4.8 15.2
-22 2 2 2.1 13.7
-22 20 -2 4.2 14.6
2 20 2 3.9 17.8
-2 22 2 -6.4 14.2
-22 20 2 0.9 13
-20 22 -2 3.9 14.2
22 -20 2 2.2 9.6
-22 2 -2 8.2 14.4
-20 -2 2 -0.7 15.7
20 2 2 4.3 16.4
22 -2 -2 -3.4 16.8
21 1 -2 93.39 22.6
-22 21 -2 100.79 19.2
22 -21 -2 78.29 18.8
-22 1 2 89.99 18.2
-21 -1 -2 83.79 19.1
-21 -1 2 71.89 18.5
-22 1 -2 92.79 18.2
21 1 2 37.9 17.3
22 -1 -2 51.59 20.8
-21 22 -2 79.09 18.3
-11 23 -2 23.1 15.5
-23 11 2 42.8 17.8
-12 23 2 -5.9 13.3
23 -11 2 36.7 20.2
12 -23 2 25.2 15
12 11 -2 29.8 18.4
11 12 2 41.7 21.7
-23 12 -2 23.2 16
11 -23 -2 39.9 15.1
23 -12 -2 24.5 18.3
12 11 2 80.29 24
23 -11 -2 43.5 19
11 -23 2 66.69 16.7
11 12 -2 27.9 19
-12 23 -2 40.9 17.7
-11 23 2 6 13.6
-23 11 -2 41.3 17.6
-23 12 2 48.3 17
23 -11 -2 41.2 20.3
23 -12 2 40.3 20.3
12 -23 -2 48 14.6
10 -23 -2 77.99 16.9
23 -10 2 78.19 22.1
13 10 -2 85.59 22.4
-23 10 2 138.89 21
-23 13 -2 55.49 18.2
10 13 2 107.59 24.7
13 -23 2 69.59 16.6
-10 23 -2 89.09 17.9
23 -13 -2 50.79 21
10 13 -2 27.8 18
13 10 2 89.79 22.9
23 -10 -2 50.79 19.1
23 -13 2 53.39 19.2
13 -23 -2 53.09 14.7
-23 10 -2 35 16.1
10 -23 2 48.8 16.2
23 -10 -2 3.6 19.8
-13 23 -2 40.9 17.6
-23 13 2 47.1 17.8
-23 9 2 45.5 17.6
23 -14 -2 23.5 17.9
9 14 2 79.49 23.9
9 -23 -2 30.5 15.1
-23 14 -2 39.5 17.7
14 9 -2 46.9 21.3
14 -23 2 62.99 15.6
-9 23 -2 28.6 14.7
23 -9 2 47.3 20
9 14 -2 26.7 16
-14 23 -2 33.4 16.8
14 -23 -2 18.2 14
-23 9 -2 -0.2 13.5
23 -9 -2 19.8 17.1
9 -23 2 25.4 15
23 -14 2 22.5 18
14 9 2 20.6 19.7
-23 14 2 28.8 16.5
-14 -9 2 9.8 14
-9 23 2 -2.8 13.2
-8 23 -2 -2.8 10
-23 8 2 6.7 15.4
8 -23 -2 10.1 14
-23 15 -2 9.5 16
23 -15 -2 22 16.9
15 8 -2 8.4 19.2
8 15 2 19.6 21
23 -8 2 17.6 17.2
15 -23 2 16.2 14.1
8 -23 2 -3 13.9
23 -8 -2 1.7 16.1
-15 -8 2 4.5 14.4
15 -23 -2 -0.9 13.2
23 -15 2 10.3 17.4
15 8 2 10.8 18.3
-8 23 2 0.3 13.4
-23 8 -2 0.6 11.9
-15 23 -2 7.2 14.9
-23 15 2 4.9 14.4
23 -16 -2 41.8 17
7 16 2 61.79 21.7
16 7 -2 27.7 19.3
-23 16 -2 25.7 16.4
16 -23 2 44.9 14.8
16 -23 -2 50.49 14.4
-23 7 -2 31.8 14.4
-7 23 2 -6.6 13.2
23 -7 -2 26.3 16.7
-23 16 2 21 14.3
23 -16 2 45 17.3
-16 23 -2 17.5 15.7
16 7 2 30.7 18.2
-16 -7 2 48.3 17.6
17 6 -2 -0.2 18.2
-23 17 -2 3.3 15.4
23 -17 -2 10.1 15.6
6 17 2 -2.3 19.5
17 -23 2 7.1 13.4
-17 -6 -2 9.8 13.5
-17 -6 2 16.3 15.7
23 -17 2 11.7 15.8
17 6 2 -14 15.7
-23 17 2 4.3 13.2
17 -23 -2 14 13.4
-17 23 -2 5.9 14.2
23 -6 -2 -1.6 15.5
-23 6 -2 14.8 12.8
-6 23 2 -6.9 18.5
23 -18 -2 77.19 19
-18 -5 -2 63.09 15.8
-23 18 -2 84.59 18.3
5 18 2 82.79 21.2
18 5 -2 79.99 22.4
-23 18 2 52.79 15.5
-18 -5 2 96.19 18.3
23 -18 2 68.59 18
-18 23 -2 72.69 16.8
18 5 2 69.79 19.3
-23 5 -2 78.69 16.3
23 -5 -2 72.39 18.9
19 4 -2 7.1 19.8
-19 -4 -2 -13.4 15.4
23 -19 -2 16.8 18.3
4 19 2 2.3 18.7
-23 19 -2 -5.7 16.1
-23 4 2 -8.9 13.8
23 -4 -2 -2.3 16.8
19 4 2 3.1 17.7
-19 -4 2 4.6 17.4
23 -19 2 7.5 14.9
-23 4 -2 -3 14.4
-19 23 -2 2.8 14.9
-23 19 2 -4 14.2
24 -12 2 24.5 18.7
-24 12 -2 11.4 13.4
12 12 -2 17.2 16.1
12 12 2 27.2 20.1
-12 24 -2 11.6 12.7
12 -24 2 30 14.1
-24 12 2 27.1 16.2
12 -24 -2 27.6 13.6
24 -12 -2 4.3 13
13 -24 2 46.5 14.4
11 -24 -2 54.79 15
13 11 -2 41.8 18.3
-24 13 -2 30.5 16
24 -11 2 26 19.3
11 13 2 41.4 20.5
-24 11 2 47.4 17.1
24 -13 -2 28.8 17.8
-24 11 -2 -4.6 14.1
24 -13 2 44.7 18.3
-13 24 -2 21.5 13.7
13 11 2 36.4 20.4
13 -24 -2 48.2 14.6
11 -24 2 37.9 14.1
-24 13 2 63.09 17.1
10 -24 -2 8.8 12.9
-24 14 -2 4.7 16
-24 10 2 -1.5 15.6
14 -24 2 9.1 13.3
24 -14 -2 -5.7 16.9
10 14 2 12.4 19.5
24 -10 2 -9.6 16.6
14 10 -2 13.7 18.4
24 -10 -2 24.2 16.3
24 -14 2 0.7 17.7
14 -24 -2 6.5 13
-14 24 -2 9.5 13.9
10 -24 2 -3.1 13
14 10 2 10.3 17.9
-24 14 2 8.3 14.8
24 -9 2 2.2 17.8
-24 15 -2 6.6 16.7
24 -15 -2 4 17
15 -24 2 14.7 13.8
9 -24 -2 5.5 12.2
9 15 2 39.9 20.6
15 9 -2 11.4 18.9
-24 9 2 30.5 17
15 9 2 7.9 19.5
-15 24 -2 7.1 14.4
-24 15 2 -8.3 14.1
9 -24 2 3.5 11.6
24 -9 -2 4 16.5
15 -24 -2 -2.1 12.6
24 -15 2 5 17.4
16 -24 2 11.4 14.4
16 8 -2 12.9 19.6
-24 8 2 27.5 18.2
8 16 2 24.2 21.2
-24 16 -2 25.8 18.2
24 -16 -2 24.7 17.2
16 -24 -2 18 13.9
-24 16 2 36.4 16.2
-16 -8 2 4.9 12.3
-16 24 -2 23.8 15
16 8 2 11.1 18
24 -16 2 24 17.3
24 -8 -2 -1.6 15
24 -17 -2 53.59 19.8
17 -24 2 21.2 14.4
17 7 -2 34.7 20.9
7 17 2 45.6 21
-24 17 -2 64.29 19.3
-24 7 2 45.3 18.1
24 -17 2 34.1 19
-17 24 -2 33.7 15.9
-17 -7 2 45.5 18
24 -7 -2 31.6 18
17 7 2 43.6 21
-24 17 2 41.6 16.5
17 -24 -2 36.3 14.1
0 0 3 5.6 15
0 0 -3 9.8 13.6
0 0 3 -0.3 7.4
-1 1 3 5.3 15.5
-1 1 -3 -0.4 13.5
0 1 3 4.4 15.5
0 1 -3 0.2 11.4
0 -1 3 -5.1 7.6
-1 0 3 -7 14.1
1 -1 3 5.6 15
-1 0 3 1.2 7.8
-1 0 -3 -2.3 13.5
1 0 3 -2.4 14.5
0 1 3 -2.1 15.1
0 1 -3 13.6 11.6
-1 1 -3 4.5 11.8
0 -1 3 14.7 16.2
0 -1 -3 -2 14.7
-1 1 3 -5.2 15
1 -1 3 -0.7 8.1
-1 -1 -3 57.59 16
-1 -1 3 53.49 18.4
1 1 3 49.1 18.3
-1 2 3 40.5 17.1
-1 2 -3 26.3 13.2
-1 2 -3 35.4 13.2
-2 1 3 31.2 17.3
-1 2 3 39.5 17
1 1 3 35 17.1
-2 1 -3 34.3 16.1
1 -2 3 40.3 17
-2 1 3 31.3 15.7
-2 1 3 34.8 15
2 -1 3 34.6 16.4
-2 1 -3 36.4 13.3
0 2 -3 178.38 20.1
-2 2 -3 176.68 21.6
2 0 3 208.38 29
0 2 3 168.38 25.7
-2 0 3 178.48 25.4
-2 2 -3 174.28 25.7
0 -2 -3 165.88 24.9
2 -2 3 167.88 26.5
0 -2 3 205.48 29.8
-2 2 3 175.78 26.4
-2 0 3 176.98 27.3
-2 2 3 226.18 30.1
0 2 3 200.08 29.5
-2 2 3 204.58 24.6
0 2 -3 177.78 21.2
-2 0 -3 188.98 23.6
-3 1 3 154.28 25.1
2 -3 3 166.38 23.9
-3 2 -3 147.69 23.1
-3 1 3 185.28 26.7
-1 3 -3 149.29 20
-2 -1 -3 144.29 23.8
-2 3 3 191.68 29.3
1 2 3 187.78 25.4
1 2 3 170.48 23.7
-3 2 -3 161.88 21.2
-3 1 3 156.18 22.4
-2 3 3 144.39 25.8
3 -1 3 174.58 29
-1 3 -3 147.39 21.1
-2 3 3 224.28 29.7
-3 1 -3 159.38 24.7
-3 2 3 163.78 25.8
-2 3 -3 164.88 20.8
3 -2 3 176.58 28.3
-3 2 3 159.38 25.2
1 -3 3 198.88 26.6
-1 3 3 153.88 26.4
-1 3 3 169.28 27.7
2 1 3 155.38 24.8
-3 1 -3 162.28 21.1
-2 -1 3 173.88 23.7
-3 2 3 211.68 28.6
-1 -2 -3 177.78 25.1
1 2 -3 148.49 18.7
-2 3 -3 165.88 22.8
2 1 3 156.68 27.3
0 3 -3 718.13 50.09
3 -3 3 690.73 52.99
0 3 -3 669.43 47.5
0 -3 -3 736.43 53.69
-3 0 3 748.83 55.19
-3 3 -3 754.52 52.29
0 3 3 788.72 56.79
-3 0 -3 746.33 53.09
0 3 3 709.33 54.19
3 0 3 690.83 54.29
-3 3 3 789.32 54.29
-3 3 -3 731.53 50.59
-3 3 3 699.53 57.09
-3 0 3 723.43 52.79
-3 3 3 749.82 55.39
-3 0 3 716.53 51.49
-2 4 -3 136.69 22.2
-2 4 3 169.18 25.6
-4 2 -3 141.69 19.9
-4 2 3 126.79 21.1
-2 -2 3 121.49 19
-2 4 3 163.28 26
2 2 -3 123.89 18.9
-2 4 3 173.38 28.9
2 2 3 151.18 22.2
-4 2 3 165.08 27.6
4 -2 3 119.89 20.5
-2 4 -3 133.49 21
-4 2 3 140.89 21.2
-4 2 -3 160.28 24
-2 -2 -3 172.08 24.9
2 2 3 160.58 26.1
-3 4 3 741.93 51.89
-1 -3 3 632.84 43.7
-4 1 3 681.93 50.29
-3 -1 -3 657.83 49.9
-4 1 3 689.73 51.79
-3 4 3 722.33 53.69
-1 4 -3 621.34 45.9
-3 4 3 648.34 55.49
-4 1 3 715.93 51.09
1 3 3 679.83 51.19
-4 3 -3 642.94 49.9
1 3 3 671.53 53.99
3 -4 3 685.53 51.99
-4 3 -3 665.73 47.8
4 -1 3 685.43 52.69
-1 4 -3 644.44 48
-3 4 -3 863.91 59.29
4 -3 3 837.42 60.89
-3 -1 3 872.71 58.49
-1 4 3 919.11 62.89
-1 4 3 841.32 62.19
3 1 3 920.21 60.99
3 1 3 809.62 62.49
1 3 -3 847.52 56.59
-3 4 -3 812.42 57.89
-4 3 3 895.61 61.79
-4 1 -3 840.02 59.99
-4 3 3 780.32 63.19
-4 3 3 761.22 59.39
-1 -3 -3 787.12 59.89
-4 4 3 421.96 36.9
0 4 3 417.86 39.1
4 0 3 405.56 38.7
0 4 -3 398.56 34.2
-4 4 -3 425.16 37.8
0 4 3 446.46 41.1
4 -4 3 406.66 38.6
-4 0 3 448.16 36
-4 4 3 434.56 41
-4 4 3 384.96 42.5
-4 0 3 382.96 37.5
-4 0 -3 417.66 37.3
-4 4 -3 423.96 34.6
-5 2 3 210.38 31.1
-3 -2 -3 173.38 26.2
5 -2 3 164.28 27.2
-5 2 3 154.18 26.6
-5 2 3 188.08 29.8
-5 3 -3 168.98 21.9
2 3 3 171.48 27.3
-3 5 3 211.58 34.7
-2 5 -3 177.68 24.3
2 3 3 182.18 26.3
-5 3 -3 166.08 25.7
-3 5 3 203.28 28.7
-3 5 3 191.18 32.5
-2 5 -3 169.88 23.7
-3 5 -3 24.8 16.8
3 2 3 33.4 17.5
-5 2 -3 28.3 13
-2 5 3 47.3 20.3
-2 5 3 54.59 19.5
-3 5 -3 60.29 15.5
2 3 -3 38.1 13
-5 3 3 35.9 16.6
-2 -3 -3 35 18.4
-2 5 3 35.5 23.2
5 -3 3 36.2 16.5
3 2 3 36.1 18.3
-5 2 -3 43.1 19.1
-3 -2 3 32.3 10.9
-5 3 3 44.4 22.9
-5 3 3 44.9 17
-5 1 3 216.28 29.6
-4 5 3 172.88 26.3
-5 1 3 180.28 29.3
-4 5 3 204.38 34
-4 -1 -3 159.08 26.6
-5 1 3 168.58 27.2
-1 5 -3 174.68 23.9
5 -1 3 190.28 29.7
1 4 3 187.48 28.3
-5 4 -3 172.48 26.6
4 -5 3 138.59 23.5
-1 5 -3 155.88 18.8
1 4 3 177.58 27.6
-5 4 -3 179.08 23.5
-4 5 3 200.48 29.9
-5 4 3 217.38 30.4
-1 -4 -3 170.08 27.4
-5 1 -3 194.28 27.1
-4 -1 3 133.39 21.9
-5 4 3 252.37 35.1
5 -4 3 186.48 27.4
-1 5 3 204.48 31.2
-1 5 3 193.08 31.2
4 1 3 195.28 26.3
-4 5 -3 204.88 29.2
-5 4 3 160.18 27.1
4 1 3 203.98 30.3
-4 5 -3 177.28 24.1
1 4 -3 181.88 22.3
-5 5 -3 1685.33 112.39
-5 5 3 1670.13 109.69
-5 5 -3 1672.63 109.59
0 5 -3 1770.72 109.99
-5 0 3 1549.45 109.49
5 0 3 1643.04 109.59
-5 5 3 1667.43 116.09
-5 0 -3 1671.33 111.79
-5 0 3 1786.32 109.49
0 5 3 1747.33 115.29
5 0 3 1754.62 113.79
5 -5 3 1719.73 111.89
-5 5 3 1767.22 115.69
0 5 3 1713.43 113.89
3 3 -3 29.1 14.8
3 3 -3 -0.4 8.9
-3 6 -3 28.5 17.9
3 3 3 10.3 18.9
-3 6 3 15.5 18.1
-6 3 3 23.9 16.1
-3 -3 -3 8.7 18.3
6 -3 3 22.3 14.7
3 3 -3 24.4 11.2
3 3 3 23.7 15.9
-6 3 3 19 21.8
-6 3 -3 19.3 19.1
-6 3 3 26.1 18.3
-6 3 -3 10 14.3
-3 6 3 36 26.4
-3 6 3 31.5 22
-3 6 -3 11.7 16.6
-4 6 3 2348.86 151.18
2 4 3 2322.37 155.28
-6 4 -3 2275.97 148.99
2 4 3 2434.46 152.48
6 -2 3 2262.67 151.38
-2 6 -3 2507.25 151.88
-4 -2 -3 2368.56 151.48
-6 2 3 2337.17 153.58
-6 2 3 2376.26 151.78
-4 6 3 2443.56 156.68
-2 6 -3 2508.15 148.29
-6 4 -3 2279.17 151.98
4 -6 3 2391.06 153.48
-4 6 3 2361.46 157.08
-6 2 3 2345.17 150.38
-6 2 -3 2684.43 160.28
6 -4 3 2409.96 161.98
-2 6 3 2604.54 167.28
-6 2 -3 2487.65 163.58
-6 4 3 2747.93 165.58
-6 4 3 2520.45 161.18
-6 4 3 2509.45 166.58
4 2 3 2530.75 166.98
4 2 3 2745.63 162.78
2 4 -3 2564.44 163.58
-2 6 3 2512.15 165.28
-2 6 3 2581.64 168.98
2 4 -3 2658.33 160.38
-4 6 -3 2598.24 163.18
-4 6 -3 2560.04 163.08
-2 -4 -3 2564.44 163.38
-4 -2 3 2408.96 157.68
-6 1 3 686.93 54.69
-6 1 3 744.13 53.89
1 5 3 704.03 57.49
-6 5 -3 672.13 56.69
-5 6 3 737.23 53.79
-5 6 3 734.13 62.79
5 -6 3 765.72 57.89
-5 -1 -3 731.53 56.19
-1 6 -3 743.43 55.59
1 5 3 684.63 61.19
-6 5 -3 717.43 54.29
6 -1 3 771.92 58.59
-5 6 3 717.93 62.79
6 -5 3 709.53 59.89
-5 -1 3 801.62 57.19
-5 -1 3 829.62 57.79
-5 6 -3 804.92 60.19
-6 5 3 780.72 68.79
-1 6 3 827.22 65.49
-6 1 -3 823.82 62.49
1 5 -3 883.31 62.69
5 1 3 756.32 58.29
-6 5 3 912.01 69.49
-6 5 3 763.02 57.69
1 5 -3 953.2 60.09
5 1 3 846.42 66.59
-1 6 3 830.22 65.49
-5 6 -3 861.61 63.99
-6 6 -3 397.16 41.9
0 -6 -3 342.77 39
-6 6 3 365.46 35.2
0 6 -3 440.16 41.4
0 6 -3 388.26 39.4
-6 6 3 468.75 54.29
-6 0 3 434.96 37.3
6 0 3 377.96 36.4
-6 0 -3 397.96 38.8
-6 0 3 404.46 34.2
-6 0 -3 414.86 43.6
0 -6 3 352.26 39.4
6 -6 3 362.36 39.5
0 6 3 465.65 47.2
0 6 -3 475.25 41.1
-6 6 3 449.26 48.6
6 0 3 404.96 45
0 6 3 479.25 45.2
-6 6 -3 423.16 37.8
3 4 3 438.86 41.5
-7 4 -3 421.66 42.4
4 3 -3 390.56 37.9
-4 7 3 472.85 44.3
3 4 3 454.45 49
-7 4 -3 474.35 38.7
-7 3 3 471.75 45.8
-7 3 3 439.86 42.5
-3 7 -3 431.46 40.3
-3 7 -3 450.85 43.2
-7 4 -3 397.36 37.3
-3 7 -3 408.96 39.2
4 3 -3 476.95 42.9
-4 7 3 470.95 51.89
-7 3 3 456.05 40.8
-4 -3 -3 475.95 43.4
-4 7 3 469.55 54.49
7 -3 3 366.46 40
-3 -4 3 393.16 39.4
-7 3 -3 548.75 47.6
7 -4 3 444.86 42.1
3 4 -3 473.35 39.4
-7 3 -3 598.84 42.5
4 3 3 551.94 52.69
-4 7 -3 579.54 47.7
-3 7 3 590.24 59.39
-7 4 3 516.35 41.9
3 4 -3 464.65 42.1
-3 -4 -3 581.74 48.7
-3 7 3 550.14 49.4
-3 7 3 564.94 55.29
-4 7 -3 498.75 42.9
4 3 3 510.65 44.1
-3 -4 -3 544.75 47.9
-7 4 3 570.74 49.7
3 4 -3 589.44 47.9
-7 3 -3 467.55 41.5
-4 7 -3 468.55 47.5
-7 4 3 549.65 51.79
2 5 3 482.55 46
-7 2 3 406.36 38.9
-5 7 3 479.55 54.19
-7 2 3 506.45 44.4
-7 5 -3 478.05 41.2
-2 -5 3 396.26 40.6
2 5 3 459.65 50.59
-2 7 -3 381.36 38.8
-5 7 3 448.66 51.99
-5 7 3 459.95 43
-7 2 3 543.65 45.9
-2 7 -3 485.15 44.7
5 2 -3 434.76 41.9
5 -7 3 405.66 45.7
-7 5 -3 443.66 44.1
7 -2 3 357.86 43.3
-5 -2 -3 463.55 41.7
-5 7 -3 437.36 44.7
-5 -2 3 381.26 33.9
-5 7 -3 429.86 41.2
-7 5 3 478.95 47
2 5 -3 441.06 43.4
7 -5 3 377.66 37.8
-5 7 -3 380.16 36.9
-7 2 -3 409.46 42.1
-2 7 3 456.55 46.1
-2 -5 -3 413.96 39.9
-2 7 3 461.25 49.2
-7 5 3 460.45 48
2 5 -3 432.86 37.2
-2 -5 -3 403.36 46.4
-2 7 3 527.45 54.59
5 2 3 418.86 46.9
5 2 3 350.26 37.2
2 5 -3 380.36 39
-7 2 -3 398.06 37.8
-7 5 3 350.56 33.5
-6 7 3 2251.47 145.99
-6 7 3 2107.69 133.39
-6 -1 -3 2037.9 134.39
1 6 3 2215.38 143.09
6 -7 3 1972.3 134.89
-6 7 3 2203.48 143.29
-7 1 3 2110.49 135.39
1 6 3 2156.28 138.79
-7 1 3 1849.71 131.59
-6 -1 -3 2208.38 136.99
-7 6 -3 2177.98 138.79
-1 -6 3 1788.72 133.99
7 -1 3 2053.29 138.09
-1 7 -3 2011.4 133.69
-7 6 -3 2258.77 134.69
1 -7 -3 1777.22 134.49
-1 7 -3 2252.47 137.69
-1 -6 -3 2090.39 139.79
-7 6 3 2208.78 145.29
-6 -1 3 2077.39 134.39
-6 7 -3 2050.09 140.19
6 1 3 2334.17 144.59
-7 6 3 2049.99 144.29
-1 7 3 2109.49 143.29
-7 1 -3 2063.79 136.59
1 6 -3 2392.66 138.29
-1 7 3 1991.8 142.49
-7 1 -3 2027.2 138.79
1 6 -3 2133.59 140.89
-6 7 -3 2175.08 138.59
1 6 -3 2065.59 135.89
-6 7 -3 2027.8 134.99
-1 7 3 2085.49 142.99
-7 0 -3 371.86 39.5
0 7 3 437.36 53.49
0 7 3 397.76 52.29
-7 7 -3 428.66 43.8
0 -7 3 347.57 44.1
-7 7 -3 425.16 49.99
0 7 -3 417.66 42.6
-7 7 3 394.96 56.89
0 -7 -3 373.86 48.3
0 7 -3 432.26 49.5
0 7 -3 349.96 38.4
-7 0 3 364.96 35.6
-7 7 -3 342.17 35.1
-7 7 3 407.86 52.39
-7 0 3 406.16 39.2
-7 0 -3 411.56 47.3
7 0 3 376.16 49.6
-4 8 3 161.98 39.2
-4 8 -3 99.09 27.4
-8 4 -3 185.68 32
-8 4 -3 149.49 25.6
-4 8 -3 199.38 28.1
4 4 -3 132.59 27.2
-4 -4 -3 175.68 29.7
-4 -4 -3 154.28 29.4
-8 4 3 131.59 27.5
-4 8 3 178.88 39.6
4 4 -3 182.38 27
4 4 3 183.18 35.3
-4 8 -3 163.38 30.8
4 4 3 132.99 24.8
-8 4 3 174.78 34.1
-8 4 -3 160.68 27.4
-4 8 3 173.48 31.2
-3 8 -3 510.15 50.79
3 5 3 403.86 46.6
-5 8 3 514.55 62.39
-3 8 -3 474.65 43.2
-8 5 -3 475.55 49.3
-3 -5 3 400.96 48.6
-5 -3 -3 512.65 48.7
-8 3 3 547.95 49
-8 5 -3 536.05 44.4
3 5 3 491.15 61.59
5 3 -3 499.05 45.9
-5 8 3 496.35 48.2
-8 5 -3 452.15 42.1
5 3 -3 469.05 45.9
-5 8 3 501.75 68.09
-5 -3 -3 504.55 49
5 3 3 245.28 40.9
-3 8 3 299.97 50.29
-8 3 -3 244.88 28.2
3 5 -3 232.38 26.7
3 5 -3 254.37 39.3
-3 8 3 321.37 49.6
-5 8 -3 165.28 32.4
-3 8 3 272.67 42
-8 5 3 246.68 30.5
-8 5 3 245.08 38.3
3 5 -3 240.58 31.3
-8 3 -3 248.68 36.8
-5 8 -3 270.27 37.8
-3 -5 -3 246.08 38.9
-5 -3 3 221.68 36.6
-8 3 -3 243.38 33.7
-5 8 -3 236.18 35.7
-3 -5 -3 265.07 38.1
-8 5 3 273.27 43.8
-8 6 -3 669.53 54.19
-8 2 3 886.51 63.99
-8 2 3 638.14 54.79
-6 -2 -3 747.53 60.19
-2 8 -3 812.52 65.49
-8 2 3 739.03 59.79
-2 -6 3 642.54 61.69
2 6 3 786.22 64.89
6 -8 3 666.33 59.59
-6 8 3 738.13 77.49
6 2 -3 787.32 56.39
-6 -2 -3 770.32 59.89
2 6 3 737.63 71.39
-8 6 -3 676.53 55.29
-8 6 -3 861.61 60.29
-8 6 -3 785.62 64.39
-6 8 3 771.52 70.99
-2 8 -3 764.02 57.09
-8 2 -3 1024.7 73.09
-8 6 3 968.8 80.89
6 2 3 1009.4 81.99
2 6 -3 1021.2 78.89
2 6 -3 1024.7 72.09
-6 8 -3 1084.39 76.89
2 6 -3 885.11 70.09
-2 8 3 1078.49 85.49
-8 6 3 912.11 68.59
-6 8 -3 1006.7 71.59
-8 6 3 958 84.49
-2 8 3 926.41 83.69
-8 2 -3 992.9 76.09
-2 -6 -3 1006.2 77.59
-2 8 3 926.41 79.99
-6 8 -3 1005.3 78.99
-7 -1 -3 862.21 67.19
-8 7 -3 805.82 63.19
-7 8 3 920.01 80.29
-7 8 3 673.13 81.99
1 7 3 805.72 77.49
-8 1 3 814.02 65.39
-8 1 3 855.71 61.99
-7 -1 -3 820.32 64.19
-8 7 -3 802.32 60.79
1 -8 -3 848.12 69.59
-1 8 -3 760.32 61.79
-1 8 -3 925.91 70.89
-1 8 -3 853.51 72.59
-8 7 -3 872.71 73.89
1 7 3 765.32 70.29
1 -8 3 503.45 54.99
-8 1 -3 670.73 57.69
-1 -7 -3 645.24 59.89
1 7 -3 711.33 56.59
-7 8 -3 641.44 59.79
-8 7 3 525.55 73.49
-1 8 3 750.92 64.19
-8 7 3 672.73 65.19
7 1 3 630.14 63.69
1 7 -3 650.33 53.79
-7 -1 3 628.94 49.2
-8 1 -3 633.14 52.59
-1 8 3 622.04 65.99
-1 8 3 590.54 65.89
-8 7 3 617.54 49
1 7 -3 614.44 61.19
-7 8 -3 663.53 52.69
-7 8 -3 619.04 55.99
0 8 3 1064.49 101.89
0 8 -3 1301.07 98.49
0 8 -3 1311.67 90.49
-8 0 -3 1394.66 92.39
-8 0 3 1244.28 86.99
-8 8 -3 1336.07 97.99
-8 8 -3 1341.77 92.79
0 -8 -3 1385.36 95.19
0 8 -3 1504.65 98.79
0 8 3 1231.28 103.39
0 8 3 1212.28 97.39
-8 8 -3 1320.47 88.19
-8 0 -3 1311.67 94.89
-8 8 3 1126.29 85.59
-8 8 3 1236.68 100.49
-4 9 -3 1938.21 137.69
-5 -4 -3 2177.48 134.59
-9 5 -3 1945.21 127.89
5 4 -3 2166.88 137.59
5 4 -3 1909.71 128.19
-9 4 3 2046.1 135.69
-5 9 3 2192.48 145.09
4 5 3 1913.51 141.79
-4 9 -3 2096.69 129.79
-9 5 -3 1808.02 127.59
-5 9 3 1575.24 142.69
-9 5 -3 1990 135.29
-5 -4 -3 1971.2 131.49
-4 -5 -3 2141.59 142.49
-5 9 -3 2297.07 140.69
-9 5 3 2190.08 138.59
-9 4 -3 2198.08 139.99
-9 5 3 2342.67 148.69
-4 9 3 1758.92 153.58
5 4 3 2135.49 154.88
4 5 -3 2215.88 140.69
-9 4 -3 2166.88 146.09
-5 9 -3 2195.38 148.59
-4 -5 -3 2272.77 144.09
-4 9 3 1890.41 147.69
4 5 -3 2227.28 148.49
-4 9 3 2316.67 152.58
-3 9 -3 828.62 76.19
-6 9 3 650.13 82.89
-9 6 -3 791.72 59.99
-9 6 -3 755.92 60.49
-9 3 3 951.6 71.79
-9 6 -3 838.02 62.79
-3 -6 3 656.53 66.09
3 6 3 797.52 78.49
6 3 -3 865.91 69.09
-9 3 3 732.43 59.49
-6 -3 -3 783.82 63.79
6 3 -3 862.71 63.09
-9 6 -3 810.62 71.69
-6 -3 -3 927.21 69.39
-6 -3 -3 865.21 66.39
-3 9 -3 853.01 63.79
-6 9 3 937.81 82.69
-3 -6 -3 798.82 61.99
-6 9 -3 760.92 58.59
-9 6 3 755.72 66.19
3 6 -3 687.73 66.89
-9 3 -3 706.53 62.69
-6 9 -3 705.83 65.09
3 6 -3 694.33 56.29
-9 6 3 745.53 55.99
-3 9 3 823.92 72.59
-9 3 -3 774.72 59.09
-6 -3 3 579.14 59.79
-3 -6 -3 683.83 61.29
-3 9 3 656.73 68.69
6 3 3 719.13 77.79
2 -9 -3 2026.8 130.69
-2 9 -3 2055.89 137.19
-9 7 -3 1949.9 128.99
-7 9 3 2116.39 143.79
-9 2 3 1987.2 132.79
-7 -2 -3 2016.3 129.79
-9 7 -3 1856.91 134.69
-9 7 -3 1690.03 124.59
2 7 3 1587.54 139.59
-2 9 -3 1934.31 127.09
-2 9 -3 1959.8 134.39
-9 7 -3 2005.6 125.99
-9 2 3 2056.49 126.99
-7 -2 -3 1941.51 130.89
-9 2 -3 2424.36 146.59
2 7 -3 2350.16 145.29
-9 2 -3 2369.26 151.08
7 2 3 2089.89 157.98
-9 7 3 2036.2 151.98
-7 -2 3 2261.87 143.09
-9 7 3 2315.27 142.59
-7 9 -3 2269.77 143.29
-2 9 3 2343.67 156.88
-2 -7 -3 2332.27 148.89
-2 9 3 1813.52 155.78
2 7 -3 2079.29 153.88
-7 9 -3 2212.18 150.48
-1 -8 3 393.66 49.9
-1 9 -3 449.86 46.9
-9 8 -3 435.56 47.5
-1 9 -3 426.06 52.49
1 -9 -3 490.35 49
-9 8 -3 521.35 44
-9 8 -3 433.26 54.69
-8 9 3 330.27 66.79
-9 1 3 468.35 41.4
-1 9 -3 405.06 54.49
-8 9 3 526.35 65.19
-8 -1 -3 489.65 49.5
-8 -1 -3 513.25 54.29
-8 9 3 411.16 40.9
-9 1 -3 456.95 49.8
-8 -1 3 435.46 40
-9 8 3 460.65 52.79
1 8 -3 443.76 56.89
-1 -8 -3 486.85 48.5
-8 9 -3 402.66 48.6
-1 9 3 383.56 62.09
-8 9 -3 365.06 56.19
-9 1 -3 531.25 48.4
-8 9 -3 496.75 45.2
-9 8 3 508.35 42.7
1 -9 3 411.66 48.4
1 8 -3 453.15 46.1
-1 9 3 290.67 53.49
-1 9 3 390.36 54.59
-9 0 -3 194.68 36.9
-9 9 3 250.17 49.5
-9 0 3 195.38 31.7
0 9 -3 224.08 33.5
0 9 -3 173.98 38.9
-9 0 -3 274.97 39.3
-9 9 -3 147.69 30.5
0 -9 3 226.78 40.3
-9 9 -3 260.17 34.9
-9 9 3 250.67 33.5
0 9 3 105.49 46.3
0 -9 -3 267.47 43.3
-10 5 3 18.8 19
-5 -5 -3 3.6 23.3
-10 5 -3 14.3 28.3
-10 5 3 2.1 30.2
-5 10 3 15.6 36.3
-5 -5 -3 12.9 23.1
-5 -5 3 7.9 21.1
5 5 3 1.4 35.3
-10 5 -3 9.2 19.1
-5 10 3 4.7 31
-10 5 -3 8.2 18
5 5 -3 -5.6 18.4
-5 10 -3 22.8 21.6
5 5 -3 -6.5 27.9
-5 10 -3 -13.8 31.5
-5 10 3 -36 39.3
-10 6 -3 25.3 29.8
-10 4 3 2.7 13.9
6 4 -3 -1.7 23.6
-10 4 3 22.3 32.1
-6 -4 -3 17.7 20.7
-6 -4 -3 43.4 24.3
-6 -4 -3 35.1 22.4
-4 10 -3 64.39 24.5
-6 10 3 -9.2 42.8
6 4 -3 51.29 21.6
4 6 3 8 35.1
-10 6 -3 32 20.1
-4 -6 3 33.4 22.7
-4 10 -3 -6.8 29.7
-6 10 3 36.4 40.5
-10 6 -3 43.6 20.6
6 4 3 1.8 34.7
-10 6 3 90.99 22.2
-6 10 -3 47.3 21.2
-6 -4 3 62.39 23.4
-4 10 3 52.99 36
4 6 -3 32.5 32.2
-6 -4 3 82.69 21.2
-10 4 -3 50.89 28.9
-10 4 -3 67.39 22.7
-4 -6 -3 2.7 22.1
4 6 -3 61.49 21.7
-10 6 3 41.5 30.2
-4 10 3 28.7 39.7
-6 10 -3 26.2 28.8
-4 -6 -3 65.39 25.6
-7 -3 -3 357.66 42.1
-3 10 -3 349.57 40
-10 7 -3 338.97 47.7
3 7 3 226.38 50.79
-10 3 3 340.37 38.1
-7 10 3 382.36 58.59
-7 -3 -3 342.47 43.2
-3 10 -3 283.67 50.49
-10 7 -3 381.86 38.2
-3 -7 3 326.87 42.4
-7 10 3 210.98 61.59
3 -10 -3 297.57 41
-10 7 -3 364.56 37.6
-10 7 3 228.38 43.4
-7 -3 3 247.68 42.4
-7 10 -3 189.88 38.2
3 -10 3 188.08 34.1
-10 7 3 286.37 33.3
-7 -3 3 289.57 33.4
-10 3 -3 229.98 33.6
-10 3 -3 290.37 45.3
3 7 -3 223.68 35.9
-7 10 -3 257.37 35.8
-3 10 3 139.79 46.3
3 7 -3 140.19 38
-3 -7 -3 218.78 41.6
-8 10 3 -2.9 44.5
-8 -2 -3 14.6 25.3
-10 8 -3 53.39 20.2
-8 -2 -3 41.3 17.8
-8 10 3 51.29 19.1
-10 8 -3 28.7 29.9
-10 8 -3 85.39 23.4
2 -10 -3 50.39 23.1
-8 -2 -3 58.39 27.3
-8 10 3 57.19 40.9
-10 2 3 87.39 24.4
2 8 3 -45.8 36.5
-2 10 -3 74.59 24
-2 10 -3 -14.4 23.2
-2 10 -3 -18.9 28.7
-2 -8 3 67.19 22.7
-10 8 -3 1.1 17.3
8 2 3 -0.9 40.6
-2 10 3 -24.6 34.9
2 -10 3 70.99 22.1
-2 -8 -3 74.89 24.7
-10 2 -3 71.49 32.9
-8 -2 3 114.99 24
-2 10 3 -24.1 35.2
-8 10 -3 39.2 26.9
2 8 -3 77.29 25.3
2 8 -3 45.1 33.5
-10 2 -3 69.19 25
-8 10 -3 125.59 27.1
-10 8 3 61.89 20
-10 8 3 79.09 35.3
-10 1 3 494.45 46.8
-9 10 3 370.86 60.79
-9 10 3 467.85 46.5
-1 10 -3 468.15 49.3
-9 -1 -3 580.24 52.89
-10 9 -3 513.05 46.4
1 -10 -3 596.34 54.59
-1 -9 3 556.74 53.89
-10 1 -3 401.86 43.3
-10 9 3 317.77 50.79
-9 10 -3 380.86 41.9
1 9 -3 314.67 39.9
-9 -1 3 367.46 39.1
1 -10 3 413.56 47.4
-10 9 3 384.76 40.3
-1 -9 -3 414.66 48
-10 10 -3 1006.6 72.19
0 -10 -3 1049.99 77.19
-10 0 3 808.22 68.89
0 10 -3 794.12 73.09
-10 0 -3 1067.19 77.29
0 -10 3 1014.1 76.39
-10 10 3 993.6 71.09
-11 5 3 187.18 31.3
-11 6 -3 124.39 36.4
6 5 -3 239.18 33.1
-5 11 -3 225.58 36.5
-11 6 -3 215.28 32.5
-5 -6 3 256.27 32.8
-11 6 -3 228.78 32.3
-6 -5 -3 248.28 33.9
-5 -6 3 229.48 41.5
-6 -5 -3 151.08 28.2
-6 11 -3 234.08 34.7
5 6 -3 258.27 34.2
-6 -5 3 234.58 42.7
-11 5 -3 149.09 37.9
-11 5 -3 180.68 31.2
-11 5 -3 155.18 26.1
-5 -6 -3 207.88 31.2
-6 -5 3 240.68 32.1
-11 6 3 158.38 28.1
7 4 -3 117.49 23.4
-7 11 3 -8.2 34.9
7 4 -3 5.5 35.3
-11 7 -3 49.99 30.3
-11 4 3 104.19 21.9
-7 11 3 0.2 41.3
4 7 3 -25 33.4
-4 11 -3 -27.9 31
4 7 -3 -0.2 31.9
-11 4 -3 68.19 19.4
-7 11 -3 34.2 31.8
7 4 3 -13.7 50.79
-11 7 3 12.4 29.2
-7 -4 3 130.69 26.5
-11 4 -3 85.59 31.3
-11 8 -3 135.39 25
3 -11 -3 77.39 22.5
-11 8 -3 -7.2 32.4
-8 11 3 -6.5 39.2
-8 -3 -3 126.19 27.9
-11 3 3 126.09 25.8
-11 8 -3 144.59 26.4
-8 11 3 86.59 19.6
-8 -3 -3 119.59 25.7
-3 -8 -3 149.19 27.5
-11 3 -3 203.68 33.1
-11 8 3 148.39 25.3
3 8 -3 131.69 29.3
3 -11 3 103.29 22.8
-8 -3 3 99.89 23.8
-8 11 -3 135.09 27.4
-2 11 -3 213.48 33.5
-11 9 -3 206.78 29.8
-11 9 -3 125.99 25.3
-9 11 3 133.19 24.5
-11 2 3 172.78 29
2 -11 -3 125.39 26.4
-9 -2 -3 217.78 35.7
-9 -2 3 210.48 32.5
2 9 -3 154.98 28.8
-2 -9 -3 230.58 33.3
2 -11 3 162.48 28.3
-9 11 -3 206.98 31.9
-11 2 -3 290.47 39.5
-11 9 3 190.48 30.1
-11 1 3 164.88 28.8
-10 11 3 106.49 25
-10 -1 -3 199.28 34.5
-1 11 -3 128.19 28.3
1 -11 -3 137.39 27.8
-11 10 -3 170.78 27.9
-1 -10 3 124.59 24.9
1 -11 3 111.29 23.9
-10 -1 3 122.99 24.7
1 10 -3 108.29 27.1
-1 -10 -3 94.49 23.9
-11 10 3 149.29 27.9
-10 11 -3 175.98 30.3
-11 0 -3 113.19 30.5
0 -11 -3 72.19 23.8
0 -11 3 60.99 21.7
-11 11 -3 120.49 27.7
-11 11 3 79.59 24.8
-11 0 3 65.99 21.5
0 11 -3 75.79 28.5
6 6 -3 9.7 21.1
-6 12 -3 40 23
-12 6 -3 18.8 20.4
-12 6 3 17.5 20
-12 6 -3 39.1 20.7
-6 -6 3 37.8 20.8
-6 -6 -3 22.2 23
-6 -6 3 31.6 21.1
-6 -6 -3 -1 16.5
-7 -5 -3 11.1 20.4
-12 5 3 19 18.9
-12 7 -3 10.6 20.1
-5 -7 3 29.1 20.3
-7 -5 -3 23.5 21.4
-5 12 -3 38.7 24.1
-12 7 -3 27 22
-5 -7 3 19.9 20.7
-12 5 3 32.7 21.3
7 5 -3 28.3 22.4
-7 12 -3 38.4 22.1
-12 5 -3 14.1 20.8
-5 -7 -3 9.5 21.5
-7 -5 3 27.3 19.9
-12 7 3 11.3 17.3
-7 -5 3 23.6 19.6
5 7 -3 5 21.7
-12 5 -3 7.9 19.4
-12 4 3 189.08 34
-4 -8 3 246.48 40.6
-4 -8 3 204.68 32.3
-8 -4 -3 173.58 30.9
-12 8 -3 241.08 36.2
-12 8 -3 195.78 33.3
-8 -4 -3 192.18 30.8
-4 12 -3 225.28 36.9
-8 -4 3 152.48 27.1
4 8 -3 143.49 29.6
-12 8 3 207.78 29.4
-12 4 -3 222.78 34.7
-4 -8 -3 185.08 30.2
-8 -4 3 163.68 28.6
-8 12 -3 262.17 35.8
-12 4 -3 129.59 25.1
-3 12 -3 47.5 22.4
3 -12 -3 34.9 19.5
-9 12 3 32.6 19.2
-9 -3 -3 53.59 21.4
-12 3 3 53.99 23.7
-12 9 -3 40.3 20.1
-9 -3 -3 46.4 25.6
-3 -9 3 77.39 24
-12 9 -3 63.89 23.7
-9 -3 3 37.9 19.4
-9 12 -3 72.49 26.5
3 9 -3 54.39 25.1
-12 9 3 40.4 18.9
3 -12 3 26.2 17.7
-9 -3 3 57.29 21.2
-12 3 -3 5.9 17.4
-3 -9 -3 59.39 22.4
-12 3 -3 34.9 23.7
-10 12 3 64.59 22.7
-12 2 3 46.7 21
2 -12 -3 55.99 21.4
-12 10 -3 87.49 25.6
-2 -10 3 83.89 24.4
-2 12 -3 67.59 28.3
-10 -2 -3 87.39 28
-12 10 3 79.39 25
2 -12 3 53.69 19.7
-10 12 -3 98.39 27.1
-12 2 -3 63.39 26.7
-2 -10 -3 90.69 24.8
-10 -2 3 90.69 25.6
2 10 -3 64.19 26.3
-12 11 -3 547.55 52.09
-11 -1 -3 625.04 57.39
-12 1 3 522.25 51.19
-11 12 3 519.65 51.69
-1 12 -3 538.15 55.69
1 -12 -3 585.14 55.19
-1 -11 3 580.64 56.09
1 11 -3 587.94 58.99
-12 1 -3 680.93 60.79
-11 12 -3 583.24 55.89
-1 -11 -3 594.24 57.89
1 -12 3 613.84 58.09
-11 -1 3 591.04 53.19
-12 11 3 581.34 54.29
-12 0 -3 367.16 47.6
0 -12 3 332.47 46.3
-12 12 -3 320.87 44.1
-12 0 3 321.87 39
-12 12 3 360.86 43.1
0 12 -3 380.56 48.7
0 -12 -3 322.07 45
-7 -6 -3 39.6 21.5
-13 6 3 35.4 21.9
7 6 -3 41.6 23.5
-6 13 -3 39.9 25.6
-13 7 -3 44.3 21.4
-6 -7 3 27.7 21.4
-13 7 -3 47.8 23.8
-7 -6 -3 18.3 19.7
-6 -7 3 28.1 19.8
-6 -7 -3 32.4 22.2
-7 -6 3 44.2 22
-13 6 -3 37.5 22.3
-7 13 -3 25.8 21.3
-13 7 3 38.8 20.9
-7 -6 3 46.4 22.4
6 7 -3 47.6 24.6
-13 6 -3 29.6 21.2
-13 8 -3 33.8 21.8
-13 5 3 21.4 20.7
-5 -8 3 27.5 19.7
-8 -5 -3 21.9 21.4
-8 13 3 -6.5 14.8
-13 5 3 65.39 24.2
-5 -8 3 57.69 23.3
-8 -5 -3 25.1 20.6
-13 8 -3 51.79 23.3
-5 13 -3 53.89 25.3
5 8 -3 36.9 25.9
-8 -5 3 36.1 21.4
-13 5 -3 34 22
-8 13 -3 59.39 25.2
-13 8 3 18.3 18.7
-8 -5 3 44.4 22.2
-13 5 -3 55.89 25
-5 -8 -3 38.4 20.7
-4 -9 3 118.09 25.6
-9 13 3 154.78 27.5
-13 9 -3 142.59 27.8
-9 -4 -3 195.78 34.1
-9 -4 -3 163.58 28.9
-4 13 -3 206.78 33.6
-13 9 -3 218.28 35.8
-13 4 3 179.68 31.2
-13 4 3 191.98 29.6
-4 -9 3 243.58 33.4
-9 13 -3 214.08 33.8
-13 4 -3 189.38 33.5
-13 9 3 141.49 24.6
4 9 -3 165.08 33
-4 -9 -3 199.28 31.2
-13 4 -3 95.69 24.7
-9 -4 3 109.39 24.2
-3 13 -3 156.98 33.7
3 -13 -3 76.69 21.7
-13 3 3 111.89 26.9
-3 -10 3 79.19 22.4
-10 -3 -3 134.89 30
-10 -3 -3 53.29 20.9
-13 10 -3 111.19 26.4
-10 13 3 75.09 23.3
-10 -3 3 173.38 31
-13 10 3 114.59 27.1
-3 -10 -3 116.79 26
-13 3 -3 184.38 36.1
-10 13 -3 152.88 33.3
3 10 -3 145.39 34.5
-11 -2 -3 160.78 32.2
-11 13 3 98.99 25.4
-2 13 -3 182.78 35.8
-13 2 3 148.79 30.4
-13 11 -3 88.19 25.3
2 -13 -3 86.59 22.5
-11 -2 3 242.28 34.8
2 11 -3 125.99 31.6
-11 13 -3 212.28 34.2
-2 -11 -3 233.68 34.1
2 -13 3 133.89 27.3
-13 11 3 205.68 33.1
-13 2 -3 173.58 34.1
-13 12 -3 92.29 26.7
-12 -1 -3 70.29 26.6
1 -13 -3 77.79 22.6
-13 1 3 69.59 23.7
-1 13 -3 62.19 28.9
-12 13 3 69.79 24.8
-1 -12 3 93.69 25.1
1 12 -3 61.29 29
-12 -1 3 97.79 25.3
1 -13 3 62.99 22
-13 1 -3 98.39 31
-12 13 -3 126.99 32.8
-13 12 3 54.29 25
-1 -12 -3 94.59 25.1
-13 0 -3 276.27 45.4
-13 13 -3 278.47 44.7
0 -13 -3 282.87 41.8
-13 0 3 274.37 40
-13 13 3 240.58 41.2
0 13 -3 306.47 48.7
0 -13 3 281.77 44.1
-7 14 -3 120.39 28.3
-14 7 -3 120.59 29
-14 7 3 160.08 28.9
-7 -7 3 135.29 27.8
-7 -7 -3 131.99 27.6
7 7 -3 107.09 29.8
-14 7 -3 116.89 27.8
-7 -7 3 95.39 23.9
-14 8 -3 42.3 23.5
-6 -8 3 63.89 23.9
-8 -6 -3 38 21.8
-14 8 -3 44.6 23.3
-6 14 -3 96.19 28.2
-6 -8 3 46.2 21.9
-14 6 3 60.19 24.7
-8 -6 -3 38.5 21
-14 6 -3 55.79 25.2
6 8 -3 90.59 29
-14 6 -3 50.89 23.6
-8 14 -3 61.59 24.5
-6 -8 -3 76.39 25
-14 8 3 55.49 22.2
-8 -6 3 65.89 23.6
-8 -6 3 34.1 20.9
-9 -5 -3 96.39 24.7
-5 -9 3 120.09 26.6
-14 9 -3 136.09 28.9
-14 9 -3 127.29 28.3
-9 -5 -3 107.89 26.5
-14 5 3 188.78 32
-5 -9 3 176.78 29.7
-14 5 3 99.29 26.2
-5 14 -3 123.69 28.9
-9 -5 3 159.08 29.1
-14 5 -3 93.69 26.9
-9 14 -3 135.69 28.6
-5 -9 -3 132.39 26.4
-9 -5 3 90.99 23.2
5 9 -3 135.89 34.3
-14 5 -3 74.19 25.5
-14 9 3 177.48 30
-4 14 -3 161.28 31.4
-4 -10 3 108.49 26
-14 4 3 207.18 31.9
-10 14 3 172.18 29.2
-4 -10 3 190.38 31.1
-14 4 3 139.89 30.6
-10 -4 -3 152.88 29.9
-10 -4 -3 107.89 26
-14 10 -3 209.28 34
4 10 -3 228.78 39.8
-14 10 3 187.18 32.7
-10 -4 3 200.28 32.5
-4 -10 -3 155.08 28.9
-14 4 -3 252.77 40.9
-10 14 -3 273.07 39.9
-3 14 -3 50.39 27.1
-11 14 3 53.89 24.3
-3 -11 3 48.2 23
-14 3 3 60.79 26
-14 11 -3 72.39 27.1
3 -14 -3 42.7 19.8
-14 3 3 41.5 24.3
-11 -3 -3 63.29 27.1
-14 3 -3 61.19 28.7
-3 -11 -3 32.1 21.7
3 -14 3 -2.7 17.5
3 11 -3 47.3 30.5
-11 -3 3 38.5 23.6
-11 14 -3 52.79 29.5
-14 11 3 39.3 24.2
-14 3 -3 -0.4 20.6
-2 14 -3 292.27 48.9
-14 12 -3 297.97 44.6
-12 14 3 272.07 42.6
2 -14 -3 272.17 40.8
-14 2 3 291.07 42.3
-2 -12 3 298.17 45.6
-12 -2 -3 296.67 42.9
-12 -2 3 326.57 42.7
-14 12 3 338.67 45.3
-2 -12 -3 354.66 46.1
-14 2 -3 400.86 51.39
-12 14 -3 345.37 47.2
2 12 -3 338.17 53.39
14 -13 -3 114.39 21.5
1 13 3 95.09 21.4
-14 1 -3 124.09 22.5
-14 14 3 154.68 31.7
-14 14 -3 212.38 39.4
14 0 -3 128.89 24.4
0 14 3 147.19 28.6
-14 0 -3 184.58 27.1
14 -14 -3 126.19 26.5
0 14 -3 139.49 36.8
-14 0 3 163.08 32.9
0 -14 3 131.79 30.7
0 -14 -3 94.29 23.9
-14 14 -3 109.19 22.8
14 0 -3 187.58 25.4
-14 0 -3 128.29 32.9
-7 -8 3 227.28 37.5
-8 -7 -3 209.28 40.2
-7 15 -3 211.48 34.7
-15 7 3 262.07 36.2
-15 8 -3 126.09 30.2
-7 -8 3 172.18 30.2
-15 8 -3 167.38 32.1
-8 -7 3 138.69 28.5
-15 7 -3 158.78 32
-8 15 -3 199.08 34.2
-7 -8 -3 228.88 41.8
-15 8 3 258.77 36.7
-15 7 -3 189.98 34.7
-8 -7 3 224.18 38.2
7 8 -3 188.78 37.2
-6 -9 3 27.6 22.7
-15 6 3 -3.1 19
-15 9 -3 29.1 24.1
-9 -6 -3 34.4 21.6
-6 15 -3 28.9 26.6
-6 -9 3 14.5 20.5
-15 9 -3 49.4 26.4
-15 6 3 42.7 24.4
-9 -6 -3 25.4 21.4
-9 15 -3 39.7 26.4
-15 6 -3 19.6 24.4
-6 -9 -3 21.4 21.1
-9 -6 3 50.69 24.7
-15 9 3 38.6 21.9
6 9 -3 50.29 29.1
-9 -6 3 -6.4 20.3
-15 6 -3 19.1 25.1
-5 -10 3 56.99 24.3
-5 15 -3 41.2 25.3
5 10 3 -7.3 22.4
-15 5 3 34.8 24.7
-10 -5 -3 22.7 21.9
-15 5 3 14.7 23.2
-15 10 -3 18.2 19.7
-10 -5 -3 13.3 21.2
-5 -10 3 41.5 23.2
-10 15 3 -8.5 19.1
-15 10 -3 38.9 25.6
-15 5 -3 28.2 24.7
-10 -5 3 40.1 24.7
5 10 -3 31.2 31
-10 -5 3 12.5 20.6
-10 15 -3 -4.4 16.6
-15 5 -3 37.2 27.1
-10 15 -3 44.4 26.2
-5 -10 -3 50.59 23
-15 10 3 29.7 22.2
-11 -4 -3 3.9 22.5
-15 11 -3 0 24.8
-11 -4 -3 -0.1 16.9
15 -11 -3 4.5 15.6
-15 4 3 8.5 23.3
4 11 3 -0.4 18.3
-11 15 3 -13.3 22.1
-4 -11 3 -4.7 19.6
-4 15 -3 28.1 27.5
-15 4 3 -4.9 24.1
15 -11 -3 -2.3 15.5
-4 -11 3 0 18.2
4 -15 -3 -0.7 16.5
-11 15 -3 16 16.1
-15 4 -3 -13.5 16.9
-15 11 3 32.9 24.1
-15 4 -3 2.1 21.7
-4 -11 -3 28.9 21.7
-15 4 -3 6.9 26.7
15 -4 -3 18 15.6
4 11 -3 36.5 32.4
-11 -4 3 3.7 19.3
4 -15 3 -31.5 16.2
-11 15 -3 36 27.2
-4 15 3 2.5 20.6
-11 -4 3 -13.2 16.2
-12 15 3 26.4 25.4
-3 15 -3 42.1 29.4
-15 12 -3 10 25.3
3 -15 -3 20.6 19.5
-3 -12 3 6.5 22
15 -12 -3 26.7 18.4
-12 -3 -3 42.1 26.8
15 -12 -3 13.2 21.8
12 3 -3 1.2 17.1
3 12 3 21.5 24
-15 3 3 8 25.2
-15 3 3 25.3 27.8
-15 3 -3 -5.8 19.3
-3 15 3 18.5 19.2
-12 15 -3 37.9 21
-12 15 -3 22.8 26.1
-15 12 3 33.7 26.7
-15 3 -3 31.3 29.1
3 12 -3 41.6 34
-3 -12 -3 38.8 20.3
-12 -3 3 32.8 23.7
15 -3 -3 22 18.7
3 -15 3 -13.1 18.8
-13 15 3 29.9 26
-15 13 -3 24.1 18.4
13 2 -3 27.8 19.7
-15 2 3 8.3 24.1
-15 13 -3 28.8 26.6
-13 -2 -3 -3.8 17.5
2 -15 -3 12.7 18.5
13 2 -3 49.5 20.7
15 -13 -3 31.9 24.1
-2 -13 3 13.9 23.5
-2 15 -3 50.99 33.2
-13 -2 -3 31.9 25.7
-15 2 3 53.99 29.6
-2 15 -3 -5.2 15.1
2 13 3 43.8 25.2
2 13 -3 88.59 34.9
15 -2 -3 69.09 21.9
-15 2 -3 46.5 29.3
-2 -13 -3 65.59 22.3
15 -2 -3 62.59 23.8
13 -15 -3 24.3 18.2
-13 15 -3 75.39 33
-13 -2 3 68.39 26.4
-15 13 3 53.69 28.1
-2 15 3 31.9 23
-13 15 -3 66.59 22.1
-15 2 -3 56.89 23.4
-14 15 3 254.47 44.1
-15 1 3 295.87 44.1
14 1 -3 248.28 41.1
-1 15 -3 303.77 51.99
1 14 3 262.67 44.6
-1 -14 3 252.67 38.4
-14 -1 -3 264.97 35.4
14 1 -3 245.08 34.9
-14 -1 -3 191.88 38
-15 14 -3 271.17 36.3
-15 1 3 225.88 41.8
-15 14 -3 198.08 37.8
15 -14 -3 233.88 32.6
1 14 -3 293.87 48
15 -1 -3 231.58 35.5
-15 1 -3 252.17 38.2
-14 15 -3 346.27 47.4
-15 1 -3 288.07 48.5
14 -15 -3 259.97 40.9
-14 15 -3 225.98 30.7
-15 14 3 258.57 44
15 -1 -3 295.47 41.3
-1 -14 -3 275.67 43.6
-1 15 3 259.77 43.6
-14 -1 3 249.38 43.2
-15 0 -3 43.6 22.5
0 15 -3 24.3 22.6
0 15 -3 55.09 35.2
15 0 -3 48.2 21.7
15 -15 -3 6.4 23.5
-15 0 -3 39.9 27.8
15 0 -3 56.29 25.1
-15 15 -3 26.6 28.6
-15 0 3 59.49 28.1
0 15 3 37.9 26.9
0 -15 3 11.2 24.5
-15 15 3 32.8 26.9
0 -15 -3 31.2 20.9
15 0 3 14.7 19.5
-15 15 -3 53.49 23.9
-15 15 3 -0.8 14.1
-8 -8 3 50.99 25.1
-8 16 -3 56.59 20.9
16 -8 3 48.1 20.1
-8 -8 -3 68.19 23.6
16 -8 -3 56.49 21.1
-16 8 -3 48 27.6
-8 16 3 16.1 18.4
-16 8 -3 59.79 27
8 8 3 39.5 25.6
8 -16 -3 88.79 21.2
-8 -8 3 30.5 22.5
8 -16 3 55.69 19.4
-16 8 3 114.29 27.9
-8 16 -3 68.09 29
-16 9 -3 12 26.2
9 -16 3 6.9 17.6
7 9 3 6.7 26.1
-7 -9 3 -2.5 22.2
-16 9 -3 -6.3 23.3
-7 16 -3 11.5 18.8
-9 -7 -3 -0.6 18.3
16 -7 3 3.2 18.4
-7 16 -3 14.2 26.1
-16 7 3 6.3 21.7
7 -16 -3 5.4 18.2
-9 16 3 14.1 17.8
16 -9 -3 25.1 20
-9 -7 -3 7.5 20.8
-7 -9 3 25.5 23.1
-7 16 3 16.1 18.7
-16 7 -3 24.1 26.4
-9 -7 3 26.5 24.7
-7 -9 -3 23.1 20.9
7 -16 3 9.6 16
9 7 3 -10.9 22.4
-9 16 -3 26.3 21.5
9 -16 -3 30.6 20.1
-9 16 -3 31.4 28.2
16 -7 -3 24.9 20.7
-16 9 3 8.4 21.1
-9 -7 3 -5.6 21.3
-16 7 -3 21.9 26.1
16 -9 3 4.4 18.9
6 -16 -3 25.5 16.9
-6 -10 3 119.39 29.6
-6 16 -3 88.59 30.9
-10 -6 -3 73.79 25.3
-6 -10 3 61.99 25.2
-6 16 -3 62.59 20.2
10 -16 3 80.39 20.8
6 10 3 83.79 28.2
-16 6 3 92.49 28.6
-16 10 -3 104.39 31.1
-10 -6 -3 56.99 23.5
16 -10 -3 21.6 18.3
16 -10 -3 105.89 23.9
16 -6 3 49.4 18
-16 6 -3 52.89 27.8
-16 10 3 74.39 26.5
-10 -6 3 53.79 25
16 -6 -3 66.99 21.1
-6 16 3 34.3 20.8
-16 6 -3 43.4 27.1
-10 16 -3 88.29 24.9
16 -10 3 107.79 24
10 -16 -3 109.29 23.5
6 10 -3 72.69 34.1
10 6 3 56.49 23.3
-10 -6 3 98.39 30.2
-6 -10 -3 61.59 22.1
-10 16 -3 79.59 29.7
11 5 -3 33.8 18.9
5 11 3 88.59 28.9
-5 -11 3 49.5 23.5
-5 16 -3 48.8 28.2
16 -11 -3 118.39 25.9
-16 5 3 81.39 28.5
-16 11 -3 -4.4 19.9
-16 5 3 51.79 27.3
-5 16 -3 91.29 23
-11 16 3 -5.5 22.4
-5 -11 3 -5.8 19.8
-11 -5 -3 81.49 25.8
11 -16 3 87.19 20.9
16 -11 -3 87.99 25.5
-16 11 -3 67.39 28.3
-16 11 3 106.09 29.5
-16 5 -3 58.29 29
-16 5 -3 57.09 21.7
-11 -5 3 112.59 30
5 11 -3 47.6 33.4
11 -16 -3 79.19 21.7
11 5 3 79.79 25.6
-11 16 -3 88.79 29.2
-5 16 3 101.69 25.7
16 -11 3 96.29 23.9
-5 -11 -3 66.59 23.3
-11 16 -3 115.49 24.8
16 -5 -3 85.59 23.6
12 4 -3 8.8 18.8
-4 16 -3 26.6 20.9
-16 4 3 18.8 26.1
-12 -4 -3 -15.7 14.7
16 -12 -3 37.4 24.9
12 -16 3 17.4 18.1
4 12 3 26.6 28.2
-4 16 -3 27.8 30
-16 12 -3 6.3 16.8
16 -4 3 -8.7 20.6
-12 -4 -3 17.8 25.1
-16 12 -3 13 27.1
-4 -12 3 7.6 22.7
16 -12 -3 43.7 23.2
-12 16 3 -10.4 20.9
12 4 -3 31.5 22.8
-16 4 3 13.5 28.7
-12 -4 3 15.3 23.7
-16 4 -3 29.4 21.8
-4 16 3 45.6 24.4
4 12 -3 56.69 35.1
-16 12 3 32 25.2
-12 16 -3 43 22.5
12 -16 -3 34.5 19.4
12 4 3 26.4 23.8
4 -16 3 -13.6 20.1
-16 4 -3 24.8 29.3
16 -12 3 44.3 23.4
4 12 -3 -1.8 16.9
-12 16 -3 59.09 29.4
-4 -12 -3 67.49 23.4
16 -4 -3 39.5 22.3
-16 13 -3 401.76 51.99
-16 3 3 438.86 54.79
-13 -3 -3 400.76 51.29
-13 -3 -3 404.16 39.8
3 13 3 506.25 52.29
-3 16 -3 459.85 43.1
13 -16 3 346.57 39.4
13 3 -3 448.26 46.9
-16 3 3 324.47 49.3
-13 16 3 300.47 46.9
13 3 -3 366.06 42.6
-3 16 -3 422.66 56.89
-16 13 -3 383.86 41.6
-3 -13 3 431.06 56.99
16 -13 -3 383.36 47.7
16 -13 3 345.67 45.4
-13 -3 3 318.47 45.5
13 -16 -3 333.77 43.1
-16 13 3 328.67 39.8
-13 16 -3 364.56 51.49
-3 -13 -3 368.86 49.2
-16 3 -3 345.67 51.39
-16 3 -3 404.76 42.5
16 -3 -3 366.36 45.6
-3 16 3 380.16 44.9
13 3 3 357.56 42.6
3 13 -3 233.88 46.8
-16 13 3 311.67 47.8
-13 16 -3 437.26 41.8
-16 2 3 49.4 28.4
-14 -2 -3 18.3 19.5
2 14 3 34.4 26.9
-16 2 3 62.19 31.9
14 -16 3 2.7 14.5
-16 14 -3 21.8 28.1
14 2 -3 31.1 22.1
14 2 -3 51.19 27
16 -14 -3 32.5 26
-16 14 -3 53.59 22.6
2 -16 -3 15.6 18.8
-14 16 3 3.3 27.2
-2 16 -3 34.5 30.7
-16 2 3 21.5 21.7
-14 -2 -3 38.7 27.5
-2 16 -3 41.2 23.9
-2 -14 3 11.2 24.8
14 2 3 21.6 24.2
16 -2 -3 -2 23
-16 14 3 11.5 26.5
-2 -14 -3 19.2 19.9
14 -16 -3 21.8 24.7
2 14 -3 17.7 22.2
-16 14 3 3.1 20.2
-14 16 -3 29.4 30.4
-2 16 3 24.5 24.9
-16 2 -3 21.3 27.9
-16 2 -3 4.7 21.5
-14 16 -3 16.8 21.9
16 -14 3 34.5 23.2
2 -16 3 -13.3 20.8
14 -16 -3 -13.7 20
2 14 -3 -3.8 34.4
-14 -2 3 29.7 25.3
-16 1 3 32.8 26.3
-15 -1 -3 43.9 21.7
-16 1 3 53.89 22
-15 16 3 16.6 26.4
-1 16 -3 61.49 25.4
15 1 -3 65.99 26.4
-16 1 3 53.09 29.8
-16 15 -3 47 31.4
16 -1 3 35.2 22.5
-15 -1 -3 51.89 28.5
-16 15 -3 77.89 23.3
1 -16 -3 39.8 21.4
16 -15 -3 58.79 25.2
-1 16 -3 25.7 30.6
15 1 -3 49.5 22.3
1 15 3 52.19 27.4
-1 -15 3 21.8 26.7
1 -16 3 12.6 23.2
15 -16 -3 34 25.3
15 1 3 35.1 24.5
-1 -15 -3 35.6 22.7
16 -15 3 38.6 24.4
-16 1 -3 54.69 31.5
-15 16 -3 41.1 31.1
-15 -1 3 38.4 25.4
-16 15 3 42.1 27.7
-16 1 -3 38 21.1
-15 16 -3 32.3 24.6
1 15 -3 65.99 35.8
-16 15 3 35.5 21.2
16 -1 -3 33.8 21.7
1 15 -3 36.8 23.1
-1 16 3 62.69 27.9
16 -1 -3 55.59 24.3
0 -16 -3 102.99 26.7
-16 16 -3 135.99 26.6
-16 0 3 131.59 24.6
-16 0 3 96.19 32.2
0 16 3 126.89 29.1
16 -16 -3 130.69 27.3
16 0 3 126.09 27.8
-16 0 -3 125.39 34.9
-16 16 3 108.09 23.6
0 -16 3 64.79 27.7
-16 16 -3 137.89 36.8
0 16 -3 105.29 35.8
16 0 -3 180.78 31.1
0 16 -3 170.48 28.7
-16 0 -3 120.29 24.1
16 0 -3 139.99 25.3
-16 16 3 87.69 30.5
-16 0 3 119.69 32.8
-8 17 -3 36.3 22.3
17 -9 -3 9.7 19.5
-9 -8 -3 14.5 21.4
-8 -9 3 8.4 24.6
8 9 3 10.2 27.2
-17 9 -3 -3 26.4
-8 17 -3 26.3 29.5
9 8 -3 21.4 20.9
17 -9 -3 53.49 24.1
-8 -9 3 13.4 23.6
9 -17 3 44.5 21
-17 9 -3 40.6 26.3
-17 8 3 24.6 25
8 -17 -3 58.69 20.9
17 -8 3 33.5 23.3
-9 17 3 17.7 26.8
-9 17 -3 25.3 26.3
-17 9 3 16.8 22.9
9 -17 -3 28.1 20.2
-8 17 3 17 26.9
17 -9 3 24.8 21.7
-17 8 -3 6.3 26.4
-8 -9 -3 13.8 20.1
-9 -8 3 15.2 23.6
17 -8 -3 22.3 21.8
8 -17 3 23.1 19.9
8 9 -3 13.2 20
-17 8 -3 13.7 27.3
-9 -8 3 21.1 24.9
9 8 3 21.4 27
-9 17 -3 16.5 24
-7 -10 3 43.9 25.4
7 -17 -3 110.59 23.4
10 7 -3 3.6 23.2
17 -10 -3 107.19 28
-7 17 -3 57.79 23.1
-10 -7 -3 -3.6 24.3
-17 10 -3 58.39 29
-10 -7 -3 51.89 23.2
-17 7 3 135.49 32.9
-7 -10 3 31.8 23.6
17 -10 -3 103.69 24.4
-17 10 -3 4.6 22.1
-7 17 -3 72.49 31
7 10 3 106.69 31.8
17 -7 3 102.09 24.4
10 7 -3 93.09 24.7
-10 17 3 89.69 27.5
10 -17 3 123.19 23.3
10 7 3 112.29 30.7
7 10 -3 76.89 21.3
-7 17 3 118.89 29.1
-10 -7 3 74.39 27.2
-17 7 -3 105.69 33.2
-10 17 -3 95.39 32.8
17 -10 3 114.29 25.1
-10 -7 3 64.29 27.8
-10 17 -3 122.19 26
-17 10 3 67.19 26.7
-17 7 -3 46.3 18.3
7 -17 3 128.79 24.3
-17 7 -3 64.49 30.1
17 -7 -3 130.39 26.2
-7 -10 -3 79.29 23.7
10 -17 -3 96.39 23
-17 6 3 240.38 38.8
11 -17 3 241.68 36.4
11 6 -3 127.69 28
17 -11 -3 201.98 30.3
-17 11 -3 105.69 32.7
17 -6 3 212.48 29.9
-6 -11 3 166.98 33.1
11 6 -3 234.18 31.6
-6 17 -3 223.48 40.9
17 -11 -3 236.48 34.2
6 -17 -3 180.28 26.5
6 11 3 314.07 40.3
-17 11 -3 189.28 28
-6 17 -3 171.48 27.6
6 11 -3 115.09 38.3
11 -17 -3 214.28 34
-11 17 -3 192.38 29.7
-6 -11 -3 132.49 28.6
-11 17 -3 210.68 39.1
11 6 3 219.48 34.2
-17 6 -3 117.59 25.2
-6 17 3 223.38 33.2
-17 11 3 155.38 33.3
-17 6 -3 181.68 40
-11 -6 3 190.48 35.7
6 11 -3 175.18 27.8
17 -11 3 210.38 29.5
17 -6 -3 202.08 28.6
6 -17 3 149.39 25.6
17 -12 -3 167.98 29.7
5 12 3 103.49 30.4
17 -12 -3 167.08 29.8
-5 17 -3 115.99 33.8
5 -17 -3 112.39 22.5
-5 17 -3 172.38 28.5
-17 12 -3 97.99 24.4
-17 12 -3 127.39 33.5
-17 5 3 95.89 31.1
-12 -5 -3 93.49 29.9
-17 5 3 54.89 27.9
17 -5 3 89.59 24.5
-5 -12 3 128.59 32
12 5 -3 171.28 32.8
12 5 -3 101.89 27.4
12 -17 -3 97.49 24
5 12 -3 102.69 25.3
-12 17 -3 67.89 23.1
17 -5 -3 120.89 26.8
-17 5 -3 75.69 23.1
17 -12 3 103.99 27.3
-17 5 -3 103.69 35.4
-5 17 3 94.89 26.8
-12 -5 3 100.79 29.5
-12 17 -3 131.49 35.5
12 5 3 96.99 28.9
-5 -12 -3 54.19 22.6
5 12 -3 49 34
-17 12 3 63.89 27.1
-17 13 -3 12.7 20
17 -13 -3 15.1 24.5
4 -17 -3 -8.4 11.7
17 -4 3 0 19.9
-4 17 -3 -1.9 22.2
13 -17 3 18.9 19.8
-13 -4 -3 10.2 17.9
-4 17 -3 14.9 31.8
13 4 -3 -0.1 22.6
-4 -13 3 -22.2 24.2
13 4 -3 -14.7 23.8
-17 4 3 -13.6 25.6
-13 -4 -3 22.5 27.6
-17 4 3 -25.2 13.6
-17 4 3 23.7 28.6
-17 13 -3 13.5 28.3
4 13 3 -9.7 30.6
-4 17 3 10.1 23
13 4 3 7.4 24.3
-13 17 -3 19 22.8
-17 13 3 30.5 21
-17 4 -3 15.7 21.5
-17 13 3 1.7 26.1
17 -13 3 11.1 23.3
4 13 -3 9.7 22
17 -4 -3 -10.6 21.2
-13 17 -3 20.4 28.1
-4 -13 -3 23.2 21.8
13 -17 -3 16.1 22
-17 4 -3 -5.5 27.8
4 13 -3 -0.6 33.7
-13 -4 3 10.1 24.7
13 -17 -3 14.7 26.4
14 3 -3 222.98 29.6
14 3 -3 208.08 34.1
3 14 3 323.27 40.9
-3 -14 3 151.58 33.8
-17 14 -3 180.18 38
14 -17 3 239.48 29.5
-17 14 -3 217.18 28.8
-14 -3 -3 213.08 32.9
-17 3 3 212.48 39.9
-17 3 3 135.29 35.9
-3 17 -3 249.97 32.2
-3 17 -3 119.89 36.3
-17 3 3 191.98 27.9
17 -14 -3 281.97 35
-14 17 -3 243.58 31.1
-17 3 -3 246.78 31.5
-17 3 -3 163.48 38.2
17 -3 -3 203.98 30.7
14 -17 -3 98.69 25.1
-17 14 3 183.78 27.4
-14 17 -3 149.29 35.7
14 3 3 202.28 32
-14 -3 3 143.79 32.6
-3 17 3 216.58 32.1
14 -17 -3 173.28 32.6
-3 -14 -3 133.09 28.8
3 14 -3 216.98 31.2
-17 14 3 146.79 34.4
3 14 -3 146.69 41.8
17 -14 3 152.78 29.3
-17 15 -3 30.6 30
-2 17 -3 45 30.9
-2 -15 3 36.2 27.2
15 2 -3 24.8 21.4
-17 15 -3 44.2 22.2
-15 17 3 -6 15.6
-17 2 3 51.89 32.4
-17 2 3 34.7 28.1
-15 -2 -3 46.9 22
15 -17 3 33.4 19
17 -15 -3 37.5 23
2 15 3 36.2 27.6
-17 2 3 16 19.6
-15 -2 -3 70.99 29.7
17 -2 3 39.4 22.4
15 2 -3 60.69 27.6
-2 17 -3 62.89 24.1
2 -17 3 -14 18.6
-15 -2 3 16.7 25.6
-17 2 -3 29.3 29.1
-15 17 -3 31.4 30.4
15 -17 -3 11.1 16.8
2 15 -3 24.8 34.4
-2 17 3 55.49 26.3
-17 2 -3 15.3 20.1
-15 17 -3 22.5 22.2
-2 -15 -3 68.69 24.9
15 -17 -3 15.6 24.3
17 -15 3 14.4 24.7
17 -2 -3 14.4 23.2
15 2 3 14.3 23.6
2 15 -3 53.19 24.6
-17 15 3 3.2 26.5
-17 15 3 37.2 20.9
-17 1 3 3.6 18.5
1 -17 -3 -1.4 20.7
-17 1 3 10.1 25.8
-17 1 3 23.2 31
1 16 3 37.9 26.9
-17 16 -3 15.7 20.6
16 1 -3 -5 19.5
17 -16 -3 7.6 21
-16 -1 -3 17.8 26.9
-1 -16 3 -2.3 24.8
17 -1 3 -11.1 21.6
-16 17 3 13.6 19.4
-1 17 -3 3.7 29.7
16 -17 3 -17.6 13.2
16 1 -3 15.9 24.8
-1 17 -3 18.8 21.7
-16 -1 -3 8.9 20.2
-17 16 -3 -5.6 27.9
-16 -1 3 36.4 29.6
-1 -16 -3 32 21.7
17 -1 -3 64.89 25.8
1 16 -3 0.2 32.1
-17 16 3 -1.6 25
-1 17 3 48.5 25.5
-17 1 -3 56.29 22.1
-17 16 3 52.19 21
17 -16 3 18.3 25.1
-16 17 -3 44.5 21.7
16 -17 -3 33.3 23.2
-16 -1 3 38.6 25.7
16 1 3 20.2 23.5
-17 1 -3 5.9 26
-16 17 -3 49.99 32.2
-16 -1 3 30.2 20.6
1 16 -3 45.6 23.8
-17 17 3 28.4 20.3
-17 0 3 29.1 28.6
-17 17 -3 27.4 31.6
17 0 -3 39.2 24.8
-17 0 -3 49.99 20.4
-17 17 -3 36.7 20.4
17 -17 3 24.7 23.3
-17 0 -3 26.6 26.2
0 -17 -3 -1 19.9
17 -17 -3 24.5 21.7
-17 0 3 26.5 27.2
0 -17 3 -21.4 19.9
0 17 -3 23.7 21.7
0 17 3 46 26
17 0 3 30.9 22.5
-17 0 3 32.5 18.7
18 -9 -3 21.8 21.5
-9 -9 -3 31.8 22.4
-18 9 3 12.4 26.5
-9 18 -3 19.6 28.1
-18 9 -3 1.2 25.3
-9 -9 3 -3 23.7
9 -18 3 24 20.6
9 9 -3 -1.6 19.4
9 9 -3 4.4 22
18 -9 -3 21.6 27
9 -18 -3 32.7 19.9
-9 -9 3 19.3 24.1
-18 9 -3 -13.1 26.4
-9 18 -3 4.2 21.8
-18 9 -3 -5.8 15.1
18 -9 3 29.4 23.3
9 9 3 15.2 26.8
-9 18 3 5.5 27.6
-18 10 -3 57.99 22.3
8 -18 -3 78.29 21.5
10 8 -3 72.59 27.9
-18 8 3 79.89 29.2
8 10 3 117.69 32.5
-10 18 3 70.09 28.8
-10 -8 -3 41.9 22.3
18 -10 -3 100.69 26.2
-8 18 -3 117.49 26
10 8 -3 76.69 25
-8 18 -3 67.99 31.7
18 -10 -3 82.19 30.4
-18 10 -3 58.69 30.8
18 -8 3 75.19 23.9
-8 -10 3 40.9 27.9
10 -18 3 103.29 22.7
-18 8 -3 -6.2 28.8
8 10 -3 41.3 23
-10 -8 3 10.1 24.1
-8 18 3 37.1 24.1
-10 -8 3 37.3 28
-18 8 -3 18.1 19.1
18 -10 3 53.79 23.8
-18 8 -3 53.69 28.9
18 -8 -3 48.9 23.2
-8 -10 -3 52.69 24.5
-10 18 -3 29.5 28.7
10 -18 -3 47 20.4
-10 18 -3 50.79 24.5
18 -8 -3 7.9 24.8
8 -18 3 50.49 23
-18 10 3 50.69 27.7
10 8 3 24.6 26.8
-7 18 -3 21.2 30
7 -18 -3 5.2 19.1
18 -7 3 24.8 22.4
11 -18 3 21.3 20.3
-11 18 3 4.4 27.6
11 7 -3 16.1 24
7 11 3 37.1 29.5
-11 -7 -3 -2.9 28.7
-18 11 -3 30.7 22.4
11 7 -3 22 26.2
-18 11 -3 10.9 28.3
-7 -11 3 6.8 25.6
-7 18 -3 17.5 21.1
-18 7 3 9 26.1
18 -11 -3 17.5 26.9
18 -11 -3 25.7 22.9
11 -18 -3 50.99 21.3
-18 11 3 27.3 27.8
7 -18 3 45.8 22.2
7 11 -3 23.9 22.1
-11 18 -3 35.3 23.1
18 -7 -3 55.09 23.7
-11 -7 3 38.9 26.6
-18 7 -3 35.2 21.6
18 -11 3 53.59 24.4
-18 7 -3 24 30.3
11 7 3 11.6 25.9
-7 18 3 22.1 22.2
-7 -11 -3 15.2 21
-11 18 -3 51.59 31.6
-6 18 -3 4.3 30
6 12 3 8.3 28.5
-18 12 -3 -15.7 28.4
6 -18 -3 17.8 19.1
12 -18 3 30.5 21.4
-6 -12 3 6.4 25
18 -12 -3 5.8 23
-12 18 3 -9.6 27.3
-18 6 3 10.3 25.7
-12 -6 -3 -17.7 11.7
12 6 -3 -5.8 23.1
-18 12 -3 12.9 21.3
18 -12 -3 11.8 26.7
-6 18 -3 -2.1 21.3
18 -6 3 0.7 23.3
-12 -6 -3 -4.7 22.1
12 6 -3 15.9 28
-18 6 -3 -8.9 29.4
12 -18 -3 13.9 20.2
-18 12 3 -5.6 25.7
18 -12 3 7 21.9
-6 18 3 -3.5 22.1
12 6 3 -12.3 24.4
-18 6 -3 -3.8 20.2
6 -18 3 5.3 19.5
-12 18 -3 0.1 22.2
-6 -12 -3 20.4 21.4
18 -6 -3 6 21
-12 -6 3 7.9 25.5
-12 18 -3 9.4 29.8
6 12 -3 -2.8 21.3
13 5 -3 81.99 28.9
18 -5 3 86.59 26.4
13 -18 3 132.69 23.9
-5 18 -3 141.29 27
-18 13 -3 91.39 33.4
5 13 3 178.18 36.1
18 -13 -3 117.39 28.5
13 5 -3 63.19 23.5
-5 18 -3 75.79 32
-13 -5 -3 64.29 19.7
-18 13 -3 86.39 22.4
5 -18 -3 76.19 20.8
-18 5 3 80.99 31.7
-13 -5 -3 14.3 23.9
-5 -13 3 103.59 31.5
-5 -13 -3 79.79 25.4
18 -5 -3 116.29 25
5 13 -3 64.79 24.7
5 -18 3 102.19 21.9
-13 -5 3 70.79 28.5
-13 18 -3 108.59 24.6
-13 18 -3 133.49 36.4
-18 13 3 81.49 22
-18 13 3 79.89 30.3
18 -13 3 89.99 24.8
13 5 3 60.19 25.4
-5 18 3 88.49 25.7
5 13 -3 87.29 38.2
-18 5 -3 76.89 22.4
-18 5 -3 119.19 36.4
13 -18 -3 72.19 24.3
13 -18 -3 126.99 24.8
-18 4 3 14.8 27.4
18 -4 3 4.9 16.1
14 4 -3 24.8 27.3
4 14 3 32.5 28.1
18 -4 3 12.6 22.3
-18 4 3 -3.6 24.2
-14 -4 -3 27.8 24.2
18 -14 -3 29.1 22.1
-4 18 -3 -5.2 28.7
4 -18 -3 -2.9 14.8
-4 -14 3 3.6 26.4
-18 14 -3 49.7 21.5
-18 4 3 5.4 18.9
-4 18 -3 15.1 20.9
-18 14 -3 20.4 29.7
14 4 -3 25.7 20.9
-14 -4 -3 28.4 19.5
14 -18 3 49.2 20.2
4 14 -3 1.3 22
4 14 -3 -3.8 31.4
-4 18 3 16.8 23.3
-18 4 -3 9.5 28.7
4 -18 3 -16.7 11.7
14 4 3 12.4 23.6
-14 18 -3 -1.4 28.4
14 -18 -3 -5.4 24.5
14 -18 -3 13.2 19.2
-18 14 3 4.7 26.9
-14 18 -3 15.4 20.8
18 -4 -3 23.4 22.3
-14 -4 3 13.2 26.6
-18 14 3 18.7 19.9
18 -14 3 18.8 21.9
-4 -14 -3 12.2 22.2
-18 4 -3 -11.4 18.6
-3 -15 3 3.4 23.8
-3 18 -3 9.2 21.2
-18 15 -3 20.2 19.7
-18 3 3 -5.8 23.8
-15 -3 -3 8 25.7
-18 15 -3 1.2 30.3
15 3 -3 -3 20.6
3 15 3 19.2 27
18 -3 3 11.9 21.7
18 -3 3 -9.2 17.1
-18 3 3 43.3 30.6
15 3 -3 4.2 24.9
18 -15 -3 15.1 21.6
-15 18 3 -2 13
-15 -3 -3 0.5 19
-3 18 -3 4.2 26.5
-18 3 3 -3.2 18.3
15 -18 3 18.2 18.1
-15 -3 3 30.1 21.1
-3 18 3 18.1 23.6
-18 15 3 5 25
18 -15 3 9.1 24.1
3 15 -3 14.2 22.1
-15 18 -3 -3 20.3
-15 -3 3 10.9 24.3
15 3 3 8.1 22.9
-18 3 -3 6.6 19.1
-18 3 -3 6 27.4
15 -18 -3 12.7 18.7
-3 -15 -3 24.9 21.7
-18 15 3 16.7 19.8
-15 18 -3 38.3 29.6
15 -18 -3 4.1 26.6
18 -3 -3 16.5 22.7
16 -18 3 1.6 17.5
-18 16 -3 2.5 27.9
-18 16 -3 24.9 20.5
-2 -16 3 -7.8 24.1
-16 -2 -3 17.4 25.1
-2 18 -3 27.9 21.5
-18 2 3 21.2 28
16 2 -3 7.5 19.6
16 2 -3 -4.3 23.2
-16 -2 -3 10.6 17.9
18 -16 -3 6.4 20.5
2 16 3 4.2 27.1
18 -2 3 15.1 22.2
-18 2 3 -8.1 21.8
-16 18 3 20.2 20.5
-18 2 3 12.7 18
-16 -2 3 5.3 20.4
-16 18 -3 16.2 29.2
2 16 -3 22.1 21.8
16 2 3 19.8 23.3
-2 18 3 30.6 24.6
-16 -2 3 3.6 25.2
-18 2 -3 -8.1 19.7
-16 -2 3 10.1 24.7
16 -18 -3 3.7 24.8
18 -16 3 1.7 24
-18 2 -3 18.7 29.3
-2 -16 -3 21.9 20.4
-18 16 3 2.3 18.4
-16 18 -3 36.3 20.7
16 -18 -3 11.7 17.9
18 -2 -3 30.5 23
-18 16 3 -7.8 29.1
-17 -1 -3 2.9 23.7
18 -1 3 -11.8 20.9
-18 1 3 12.1 17.2
1 17 3 24.5 25.1
-18 1 3 2.9 30.5
17 -18 3 6.7 23
-18 17 -3 14.2 20
18 -17 -3 9 20.1
-18 17 -3 -12.8 26.6
-17 18 3 21.2 20.2
-18 1 3 -6.2 22.9
17 -18 3 -10.2 10.7
-17 -1 -3 13.3 17.9
17 1 -3 14.7 23.5
-1 18 -3 15 20.2
1 17 -3 9 21
-17 18 -3 2.8 28.2
18 -1 -3 4 22.2
-1 18 3 13.8 23.2
-18 17 3 -4.2 18.3
-17 -1 3 -8.4 22.8
-17 -1 3 6.2 18.6
-18 1 -3 9 26.4
17 -18 -3 -5.1 22.5
17 1 3 -12.6 20.4
18 -17 3 -11.1 23.1
-17 18 -3 -0.3 18.5
-18 1 -3 9.3 18.8
0 18 3 66.29 26.3
18 0 -3 67.69 24.6
-18 0 -3 73.59 19.9
-18 0 -3 -1 33.3
18 -18 -3 32.8 22
0 18 -3 64.09 21.6
-18 18 -3 -3.2 34.2
-18 0 3 64.09 18.8
-18 18 -3 71.09 20.6
-18 18 3 56.09 20.7
18 -18 3 52.69 22.3
18 0 3 38.8 22.1
-10 19 3 6.8 26.3
19 -10 -3 2.1 26.5
19 -9 3 3.3 21.9
-9 19 -3 17.4 20.2
9 10 3 1.3 25.6
-19 9 3 7.2 25.9
-9 -10 3 -12.5 23.9
-19 10 -3 21.2 21.9
-9 19 -3 12.7 30.7
-10 -9 -3 -1 19.9
19 -10 -3 25.4 21
9 -19 -3 -0.3 17.1
10 9 -3 5.9 26.5
10 -19 3 19.4 18.4
-19 10 -3 -3 33.6
10 9 -3 15.9 22.5
10 9 3 33.4 26.2
-19 9 -3 2.7 17.2
-10 19 -3 23.1 20.3
9 -19 3 25.4 18.1
-10 -9 3 -21.4 21
19 -10 3 16.3 22.2
9 10 -3 5.2 23
-19 9 -3 19.9 20.1
19 -9 -3 32.2 28
-9 -10 -3 25.8 21.3
-9 19 3 12.8 23.6
10 -19 -3 19.1 18.5
19 -9 -3 -2.2 20.4
-10 -9 3 -6.1 22.7
-10 19 -3 1.2 27.8
-19 10 3 12.2 27.2
9 10 -3 10.6 24.6
-8 -11 3 4.6 24.8
-19 8 3 13 26.1
-11 19 3 19.4 27.1
19 -8 3 12.1 22.7
11 -19 3 32.4 19.2
8 -19 -3 19.9 17.9
-8 19 -3 29.9 28.7
19 -11 -3 29.2 21.5
-8 19 -3 6.5 20
19 -11 -3 14.9 28.2
8 11 3 40.2 28.3
11 8 -3 19.3 26
-19 11 -3 -6 28.1
11 8 -3 25.2 23.6
-19 11 -3 13.8 22.3
-11 19 -3 19.6 28.3
-19 8 -3 3 28.9
11 8 3 9.8 24.5
8 11 -3 -4.4 20.2
19 -11 3 14.2 22.9
-19 11 3 16.7 27.9
8 -19 3 33 18.7
-11 19 -3 21.3 21
19 -8 -3 10.4 23.8
11 -19 -3 29.7 19.2
-8 19 3 13.3 22.1
19 -8 -3 -0.5 20.9
-19 8 -3 -1.9 19.3
-8 -11 -3 20.2 22.1
-11 -8 3 4.3 24.9
-19 8 -3 -4.4 17
8 11 -3 17.9 22.4
19 -7 3 52.09 23.4
12 7 -3 25.5 26.7
-7 19 -3 39.5 30
7 -19 -3 48.3 19.2
19 -12 -3 65.09 23.8
-19 12 -3 5.7 27.2
-19 12 -3 51.59 22.7
12 -19 3 104.19 22.1
7 12 3 100.89 31.8
19 -12 -3 76.89 28.1
12 7 -3 36.6 23.4
-7 19 -3 79.39 23.8
-19 7 3 81.09 30.8
-7 -12 3 44.8 27.1
-12 19 3 88.59 30.3
12 -19 -3 90.29 21.9
-19 12 3 39.2 19.8
-12 19 -3 32.1 29.8
7 12 -3 41.2 23.6
19 -12 3 43.2 22.9
12 7 3 63.19 27.6
-19 12 3 47.9 27.7
7 -19 3 58.29 20.1
-19 7 -3 54.39 22.7
-7 19 3 71.59 24.7
-12 19 -3 48.5 21
-19 7 -3 16.5 27.3
-12 -7 3 41.8 27.5
-7 -12 -3 47.7 23.3
19 -7 -3 68.79 23
6 -19 -3 148.09 24.5
-6 19 -3 181.38 28
13 6 -3 139.59 25.5
-13 -6 -3 119.79 22.8
6 13 3 268.17 37.6
-19 6 3 147.59 35.4
19 -6 3 169.78 28.9
-19 13 -3 183.68 27.3
13 6 -3 161.68 32.5
13 -19 3 211.68 25.8
19 -13 -3 186.68 30.3
-6 -13 3 143.39 34.9
-13 19 3 163.68 32.9
-13 19 -3 179.28 28.2
13 6 3 163.28 30.5
19 -6 -3 218.38 30.7
-13 -6 3 116.89 31.7
19 -13 3 155.58 27.1
-19 13 3 131.89 24.6
-19 13 3 108.39 32.4
-13 19 -3 140.99 37.4
6 -19 3 158.28 24.2
-6 -13 -3 107.49 27.7
-19 6 -3 80.99 33.1
-19 6 -3 183.88 27.7
-6 19 3 174.08 29.9
6 13 -3 155.18 27.6
13 -19 -3 174.68 24.9
19 -14 -3 41 23.4
19 -5 3 45.5 22.4
-14 -5 -3 28.6 17.8
-19 5 3 20.4 28.9
14 5 -3 21.4 19.6
-19 14 -3 -3.8 27.4
-5 19 -3 1.6 26.1
5 14 3 37.7 27.9
19 -5 3 4.3 13.9
-5 -14 3 20.4 25.9
-19 14 -3 33.9 21.2
5 -19 -3 8.5 17.7
14 5 -3 32.1 27.7
-5 19 -3 37.5 20.8
-19 5 3 2.2 18.9
14 -19 3 44.4 20.2
-14 19 3 24.8 27.9
-5 -14 -3 47 24.5
-14 19 -3 53.19 32.2
19 -5 -3 46 22.9
-5 19 3 49.1 23.9
-14 -5 3 36.7 25.6
5 14 -3 36.7 21.9
14 -19 -3 35 19.4
14 5 3 28.5 23.9
14 -19 -3 40.5 25
5 -19 3 24.4 17
-19 5 -3 6.7 19.6
-19 14 3 40.3 19.9
19 -14 3 38.9 22.4
-19 5 -3 39.3 31.5
-19 14 3 26.7 26
-14 19 -3 34.6 21.5
19 -15 -3 82.99 22.7
-19 4 3 73.89 20.4
-15 -4 -3 83.89 20.3
4 15 3 135.89 31.9
19 -4 3 66.89 22.6
-19 15 -3 8.2 28.4
-4 -15 3 38.3 28.2
-19 4 3 54.09 28.4
15 -19 3 87.09 21.2
-4 19 -3 88.19 22.7
19 -4 3 60.19 22.5
15 4 -3 53.19 21.1
-19 15 -3 44.8 20
15 4 -3 77.49 27.1
-15 19 -3 36.6 21
-19 4 -3 47.2 30.5
-15 -4 3 31.9 27
15 -19 -3 57.39 25.8
-15 -4 3 100.49 23.7
-19 4 -3 35 20.2
15 -19 -3 33.3 18.2
-19 15 3 71.09 20.9
-4 19 3 47.7 23.7
19 -15 3 76.89 25.1
19 -4 -3 66.19 23.5
-15 19 -3 44 31.6
4 15 -3 44.5 21.8
-19 15 3 -5.9 24
-4 -15 -3 39.2 23
15 4 3 72.19 24.9
16 3 -3 1.8 19.3
-16 -3 -3 10.9 17.7
-19 16 -3 -12.6 27.9
19 -3 3 14.3 21.4
-19 16 -3 13.8 19.6
19 -16 -3 27.5 19.9
-3 -16 3 -17.6 20
-16 19 3 10.2 16.4
-19 3 3 -0.7 25.4
16 3 -3 13.2 23.3
16 -19 3 16.9 15.7
3 16 3 30.1 25.2
-19 3 3 -2.3 17.1
-3 19 -3 14 19.2
-16 -3 3 32.5 20
16 -19 -3 19.1 17.7
16 -19 -3 13.4 23.2
-16 19 -3 27.9 20.5
3 16 -3 13.6 19.4
-16 19 -3 1.7 25.1
-19 3 -3 -2.4 25.6
-3 19 3 40 23.6
-3 -16 -3 -1.3 18.6
16 3 3 23.5 21.4
19 -3 -3 51.19 23.5
19 -16 3 20.5 23.3
-19 16 3 21.8 19
-16 -3 3 1.2 23
-19 3 -3 24.3 20.6
-19 17 -3 20.2 18.5
17 2 -3 6.3 23.4
-19 2 3 8.8 17.3
17 -19 3 4.9 14.6
2 17 3 8.4 23
-17 -2 -3 5.4 16.8
19 -2 3 4.3 21.4
-2 19 -3 -11.3 17.4
19 -17 -3 7.4 19
-17 19 3 -16.5 17.3
17 2 3 7 20.7
-17 19 -3 7.8 17.3
-17 -2 3 12.7 17.5
-19 2 -3 5.8 17.7
-19 17 3 13.9 17.8
19 -17 3 13.2 22.9
2 17 -3 -10.8 17.8
-19 2 -3 0.5 37.5
17 -19 -3 -2.3 14.9
17 -19 -3 -6.2 22.1
-2 19 3 29.4 22.3
19 -2 -3 3.1 21.3
-1 19 -3 54.39 19.3
18 1 -3 46.3 22.7
19 -18 -3 69.59 21.7
-18 -1 -3 56.49 18.6
-18 19 3 37.1 18.3
19 -1 3 25 20.9
-19 1 3 40.3 17
-19 18 -3 41.7 18.4
1 18 3 38 21.9
-18 -1 3 36.7 17.4
-19 1 -3 69.69 19.3
-18 19 -3 58.99 18.6
-19 18 3 30.1 18.6
19 -1 -3 60.49 23
18 -19 -3 32.8 22.5
1 18 -3 46 18.5
18 1 3 34.5 20.2
-1 19 3 44.3 23.5
19 -18 3 27.3 22
-19 0 -3 28.9 16.3
19 0 3 20.5 19.8
0 19 -3 30.7 15.7
-19 0 3 46.4 17.1
-19 19 -3 40.2 17.7
19 -19 3 4.6 14.3
19 -19 -3 20.1 20.8
-19 19 3 36.8 17.8
0 19 3 41.3 21.3
19 0 -3 28.9 21.2
10 10 3 15.7 25.6
10 10 -3 -16.6 22.8
-10 20 3 8.6 22.3
20 -10 -3 5.8 27.1
-10 20 -3 28.1 20.2
-10 20 -3 6.2 29
10 -20 -3 31.2 17.1
20 -10 3 17.3 21.9
20 -10 -3 23.5 22.1
-20 10 -3 20.9 22.3
-20 10 3 12.1 27
10 -20 3 14 17.9
10 10 -3 46 26.4
-20 10 -3 -5 11
11 -20 3 38.4 18.8
20 -9 3 19.3 22.5
11 9 -3 -5.1 21.5
-11 20 3 27.1 24.9
-9 20 -3 38.3 20.9
-20 11 -3 -0.7 19.9
-20 9 3 -6.8 26.4
-9 20 -3 5.5 26
20 -11 -3 15.6 26.6
20 -11 -3 36.6 21.8
9 11 3 29.1 26.2
9 -20 -3 43.9 18.1
11 9 -3 23.2 25.3
9 11 -3 36.1 22.9
-20 9 -3 32.8 20.8
-20 11 3 8.7 26.1
-20 9 -3 40.5 18.7
20 -9 -3 39.4 28.7
-9 20 3 35.2 22.5
-11 20 -3 -5.6 27.1
11 -20 -3 60.49 19.3
20 -9 -3 39.1 22.1
9 11 -3 53.19 25.8
9 -20 3 40.1 18.8
11 9 3 43.6 26.8
20 -11 3 42.6 21.9
-11 20 -3 15.7 19.5
-9 -11 -3 -1.7 22.7
-8 20 -3 32.7 20.9
8 -20 -3 32.5 17.9
20 -12 -3 34.6 22.4
12 8 -3 22.7 23
-20 8 3 1.9 27.3
-8 -12 3 -23.9 21.5
20 -8 3 22.9 23.2
-20 12 -3 41.4 21.6
12 8 -3 11.5 24.8
12 -20 3 39.9 18.5
-8 20 -3 3.7 32.8
20 -12 -3 15.9 23.9
-12 20 3 22.3 25.2
8 12 3 48.1 27.7
12 8 3 35 26.2
8 12 -3 4.6 19.3
-20 8 -3 -7.4 15.4
8 -20 3 39.7 18.6
-20 12 3 42.1 19.9
12 -20 -3 45.4 18
-8 20 3 26.9 22.2
-12 20 -3 -0.6 27.8
20 -12 3 17.9 20.8
20 -8 -3 54.19 23.2
-8 -12 -3 -5.5 18.4
8 12 -3 26.7 22.4
-20 8 -3 25.7 20.3
-20 12 3 12.5 25.1
-12 20 -3 30.8 20.7
13 7 -3 91.59 27.2
7 -20 -3 78.79 20
-7 20 -3 85.79 21.9
-20 13 -3 92.69 22.8
13 7 -3 62.89 21.3
-20 7 3 51.39 26
20 -13 -3 141.09 27
20 -7 3 113.69 26.3
-13 20 3 84.89 27.1
7 13 3 141.99 30
7 13 -3 116.09 24.9
7 -20 3 132.49 21.8
20 -7 -3 127.09 26.3
13 -20 -3 131.49 22.2
13 7 3 92.59 27.1
-7 20 3 133.79 27.3
20 -13 3 143.09 26.8
-13 20 -3 147.89 26
-20 7 -3 134.49 24.6
-20 13 3 113.29 23
6 14 3 190.08 32.6
-14 20 3 124.89 29.3
20 -14 -3 109.39 24
14 6 -3 98.49 22
-6 20 -3 110.79 23
-20 14 -3 139.49 24.3
14 -20 3 154.28 23.4
-14 -6 -3 79.39 19.8
20 -6 3 111.09 25.5
6 -20 -3 91.99 21.7
14 6 -3 106.39 29.4
-14 20 -3 178.38 27.2
14 6 3 120.69 28
20 -14 3 114.49 25.8
-6 20 3 120.79 26.1
-20 6 -3 106.49 23.9
14 -20 -3 97.49 21
-14 -6 3 134.69 25.4
6 14 -3 99.19 24.3
-20 14 3 99.59 22.5
20 -6 -3 181.48 28.1
6 -20 3 125.99 21.7
-5 20 -3 5.7 18.8
5 15 3 28.8 25.4
5 -20 -3 11.7 16.7
-20 15 -3 16.2 18.8
15 -20 3 4.8 15.4
-5 -15 3 -13.3 22.1
20 -5 3 5.7 20.1
15 5 -3 -8.9 18.8
-15 20 3 0.1 23.2
-15 -5 -3 6.7 16.1
15 5 -3 13.3 24.8
20 -15 -3 1.3 18.5
-20 5 3 -8.4 17.6
20 -5 3 14.7 15.8
-5 20 3 20 21.3
-5 -15 -3 -1.4 28.6
15 -20 -3 12 22.3
15 5 3 8.3 21.9
15 -20 -3 17 17.9
-15 20 -3 4.4 19.7
-15 -5 3 2 19.3
5 -20 3 -4.4 13.9
-20 15 3 15.3 18.3
5 15 -3 9.5 20
20 -5 -3 10.6 20.2
-20 5 -3 1.1 18.7
20 -15 3 -11.3 21
20 -16 -3 49.3 20
4 -20 -3 -3.5 18.7
16 4 -3 20.9 19.6
-4 20 -3 36.8 18.2
16 -20 3 30 15.8
16 4 -3 46.2 24.4
-16 -4 -3 34.4 17.3
20 -4 3 10.2 16.4
-16 20 3 11 23.2
-20 16 -3 34.4 19.4
20 -4 3 34.8 20
20 -16 -3 -4 14.5
4 16 3 61.39 25.5
-20 4 3 17 17.9
-16 20 3 -1.6 11.2
-16 -4 3 77.19 21
16 4 3 9.5 21.2
20 -4 -3 29.2 20.5
16 -20 -3 48.6 18.2
16 -20 -3 9.9 23
-20 4 -3 32.5 19.9
-16 20 -3 65.49 20.4
20 -16 3 29.2 22.3
-4 20 3 27.7 21.4
4 16 -3 53.29 19.5
-20 16 3 40.6 18.3
20 -3 3 -2.5 18.8
3 17 3 15.6 22.6
17 -20 3 2.5 14.7
-17 20 3 -5.6 21.7
-20 17 -3 4 17.3
-3 20 -3 -2.4 16.7
17 3 -3 -6.2 21.9
-17 20 3 -1.4 13.4
-20 3 3 -2.9 16.8
-17 -3 -3 23.4 16.1
20 -17 -3 8.4 17.8
-17 20 -3 4 17.6
-3 20 3 0.7 19.8
17 3 3 -12 19.4
17 -20 -3 5.1 15.8
-20 17 3 11.2 16.7
-20 3 -3 -7.5 17.2
17 -20 -3 4.6 20.8
-17 -3 3 12.5 16.6
20 -3 -3 14.8 19.4
3 17 -3 1.3 16.3
20 -17 3 10.5 20.5
20 -18 -3 17.3 19
-20 2 3 2.2 16.2
-20 18 -3 6.6 16.3
2 18 3 13.1 21.4
-2 20 -3 21 17
18 2 -3 -9.3 20.6
-18 -2 -3 21.7 15.6
-18 20 3 14.8 16
18 -20 3 -9.6 11.4
20 -2 3 -6.1 18.5
2 18 -3 17.1 15.6
20 -18 3 -8.4 19.7
-18 -2 3 29.9 16.5
20 -2 -3 -3.4 18.3
18 -20 -3 15 19.5
-20 2 -3 9.7 16.6
-20 18 3 0.9 16.3
18 2 3 0.6 18
-2 20 3 13.2 21.5
-18 20 -3 21.6 16.8
-20 19 -3 -9.5 15
-19 20 3 -1.9 14.9
1 19 3 6.2 19.5
-20 1 3 3.1 15.2
-1 20 -3 8.3 13.2
20 -19 -3 2.2 18.4
20 -1 3 4.5 17.8
-19 -1 -3 16.1 15
19 1 -3 -2.8 19.3
20 -1 -3 3.8 17.3
1 19 -3 -2.6 10.6
-20 19 3 1.6 16.6
-19 20 -3 4.2 15
-20 1 -3 17.6 15.5
20 -19 3 9.3 18.9
-1 20 3 7.6 18.4
19 1 3 9.4 18.4
19 -20 -3 7.7 18.6
-19 -1 3 2.9 14.9
20 0 3 42.6 18.4
-20 20 3 37.3 14.8
20 0 -3 43.6 19.2
-20 0 -3 71.29 16.8
20 -20 -3 50.39 17.5
-20 0 3 65.49 16.2
-20 20 -3 72.69 17.3
0 20 3 70.09 20.8
-10 -11 3 -35.7 14.5
11 -21 3 28.9 16.5
21 -10 3 22.1 21
21 -11 -3 12.7 21.2
21 -11 -3 1.3 22.9
10 11 3 12.4 25.7
11 10 -3 -5.3 22.5
-11 21 3 -6.9 19
-10 21 -3 2.5 19.2
-21 11 -3 18.2 19.7
10 -21 -3 23 16.5
11 10 -3 -9.9 20.5
11 10 3 12 25
-21 10 -3 9.3 19.2
21 -11 3 -8.9 18.3
10 -21 3 10.8 15.9
-11 21 -3 10.4 19
-11 -10 3 -10.5 18.3
21 -10 -3 11.6 20.6
10 11 -3 11 20.5
21 -10 -3 11.7 24.3
-21 10 -3 -5.4 10.9
11 -21 -3 16.8 15.8
-10 21 3 13.8 20
10 11 -3 15 22.5
21 -12 -3 32.3 21.7
21 -12 -3 11.7 23.2
-21 12 -3 7.1 18.7
12 -21 3 39.8 16.7
-9 21 -3 28.2 20
12 9 -3 19.9 23.5
-12 21 3 1 19.9
9 -21 -3 31.7 17.3
12 9 -3 1.5 20.5
21 -9 3 14 21.3
9 12 3 33.4 24.9
9 12 -3 10.3 20.4
-21 9 -3 2.2 16.6
12 9 3 2.2 23.6
12 -21 -3 14.4 15.8
21 -9 -3 4.9 19.6
9 12 -3 23.5 20.6
21 -9 -3 11 20.3
21 -12 3 18.6 20.2
-21 12 3 15.6 19
-12 -9 3 6 19.5
-12 21 -3 2.5 19.6
9 -21 3 8 16
-9 21 3 14.3 20
-21 9 -3 8.3 17.3
8 13 3 259.47 34.3
8 -21 -3 186.28 29.8
13 8 -3 188.48 25.5
-8 21 -3 122.89 23.3
13 -21 3 174.18 27.9
-21 13 -3 169.18 25
21 -13 -3 162.48 26.8
13 8 -3 143.59 29.1
-13 21 3 166.58 28.2
21 -8 3 174.18 27.6
8 -21 3 190.08 30.5
21 -13 3 262.77 31.7
-21 13 3 199.28 30.7
-13 -8 3 240.18 36.4
13 8 3 233.58 32.6
-21 8 -3 135.79 24.1
-13 21 -3 213.08 28.3
-8 21 3 201.88 29.3
13 -21 -3 183.08 28
21 -8 -3 256.07 30.7
8 13 -3 225.48 33.9
14 7 -3 6.3 17.6
7 -21 -3 45.4 18.5
14 7 -3 46.1 24.6
14 -21 3 61.99 17.8
21 -7 3 44.9 21.2
-14 -7 -3 8 13.9
-21 14 -3 72.19 21
7 14 3 83.89 26.8
-7 21 -3 35.2 18.4
-14 21 3 44.6 22
21 -14 -3 77.59 22.4
14 7 3 70.69 24.7
-7 21 3 35.8 21.2
-21 14 3 42.7 19.1
7 14 -3 39.1 19.6
-14 21 -3 36.3 19.4
21 -7 -3 59.89 21.9
-14 -7 3 44.9 20.9
21 -14 3 59.59 21.8
7 -21 3 21.9 16.9
-21 7 -3 23.1 19.5
14 -21 -3 44 16.7
-15 21 3 36 21.6
21 -15 -3 41.8 19.5
6 -21 -3 20.8 16.5
-6 21 -3 25.2 17.6
6 15 3 45.2 23.8
21 -6 3 19.7 19.9
-15 -6 -3 16.5 15.7
15 6 -3 18.3 22.7
-21 15 -3 36.6 18.7
-21 6 3 -11.5 11
15 -21 3 37.1 15.8
15 6 -3 19.7 17.9
-21 6 -3 22.2 17.9
-15 -6 3 19.7 18.7
21 -6 -3 15.6 19.4
-21 15 3 27.4 18
21 -15 3 1.7 19.9
-15 21 -3 3.9 17.8
15 6 3 26.6 21.9
15 -21 -3 21.5 16.2
6 -21 3 8.1 16.9
-6 21 3 15.3 20.2
6 15 -3 15.2 17
-16 21 3 37.1 21.9
21 -16 -3 85.39 20.6
21 -5 3 36.8 18.5
-21 16 -3 52.39 19.3
16 -21 3 61.89 16.9
-16 -5 -3 41.5 16.3
16 5 -3 62.79 23.5
-5 21 -3 57.29 18.4
5 16 3 107.79 25.4
-21 5 3 22.5 17.9
21 -16 3 67.59 21
-16 -5 3 98.89 20.3
16 -21 -3 35.6 16.8
21 -5 -3 99.39 23.7
-21 16 3 87.99 19
16 5 3 90.79 23.1
-21 5 -3 76.19 20
5 16 -3 49.1 17
-5 21 3 71.69 21.9
-16 21 -3 73.09 19.9
16 -21 -3 61.49 19.7
4 17 3 60.79 22.2
17 -21 3 32.7 15.5
-21 4 3 34.7 17.7
17 4 -3 53.79 23
21 -17 -3 34.4 17.5
21 -4 3 16.5 15
-21 17 -3 53.39 18.4
-4 21 -3 31.7 16.2
-17 -4 -3 50.69 17.4
-17 21 3 48.2 20.9
-21 17 3 56.89 17.2
17 -21 -3 36.6 15.3
21 -4 -3 60.09 20.1
-4 21 3 34.1 19.9
17 -21 -3 52.39 22
17 4 3 41.8 20.4
21 -17 3 47.9 20.6
-17 21 -3 28.5 16.8
4 17 -3 11.1 11.3
-21 4 -3 38.9 17.4
-17 -4 3 63.99 17.9
-21 3 3 0.2 15.9
21 -18 -3 23.4 18
3 18 3 22 20
-3 21 -3 1.4 14.3
-21 18 -3 15.9 15.7
18 3 -3 14.1 20.3
18 -21 3 10.1 13.1
-18 -3 -3 11.1 15.1
21 -3 3 20.8 15.8
-18 21 3 8.9 19.2
18 3 3 8.6 17.2
-3 21 3 8.1 19.2
21 -18 3 5 18.7
18 -21 -3 16.4 20
-18 -3 3 10.7 15
21 -3 -3 -3.9 17.2
18 -21 -3 -2.5 10.4
-18 21 -3 19.5 15.5
-21 18 3 0.3 15.5
-21 3 -3 27.6 15.7
-2 21 -3 -0.4 13.1
-19 21 3 18.6 18.2
21 -2 3 12.5 14.9
21 -19 -3 24.9 17
2 19 3 32.3 18.8
21 -19 -3 -0.7 8.7
19 2 -3 22.4 19.3
-21 2 3 14.7 15.5
-21 19 -3 31.9 15.2
-19 -2 -3 42.8 15.9
-2 21 3 26.6 18.3
21 -2 -3 20.9 17.2
19 -21 -3 28.6 18.1
-21 19 3 2.1 15.3
21 -19 3 22.2 17.3
-19 -2 3 20.3 15.9
-19 21 -3 17.3 14.9
19 2 3 2.2 17
-21 2 -3 27.5 15
21 -20 -3 5.4 9.1
21 -1 3 -5.1 11.3
-20 21 3 11.5 15.3
21 -20 -3 7.2 16
-21 20 -3 7.2 14.8
-20 -1 -3 8.7 14.2
20 1 -3 -1.5 17.1
-21 1 3 3 14.8
1 20 3 10 17.7
-21 1 -3 15.7 14.3
21 -1 -3 -7.7 17.3
-20 -1 3 3.7 13.9
-21 20 3 1.9 12.8
-20 21 -3 6.2 14.5
20 1 3 2.6 15.6
20 -21 -3 7.2 17.4
-1 21 3 17 17.9
20 -21 -3 14.2 12.8
-21 0 3 9.9 14.6
21 0 3 2.5 11.2
21 -21 -3 4.6 8.5
-21 0 -3 25 15.4
21 0 -3 13.4 18.7
-21 21 -3 17.2 15.5
21 -21 -3 30.6 17.2
0 21 3 7 16.9
-22 11 3 47.3 19.2
11 11 -3 32.1 19.1
22 -11 -3 18.8 21
11 -22 3 35.2 16.4
11 11 -3 21.4 20
22 -11 -3 22.7 20
11 -22 -3 21.3 15.4
-22 11 -3 17.8 17.1
22 -11 3 12 18.9
-11 22 -3 19.5 18.7
-11 22 3 17.9 18.1
11 11 3 18.3 23.2
-22 12 -3 28.4 17.7
-12 22 3 37.8 19.5
-10 22 -3 31.6 18.7
10 -22 -3 55.89 17
12 10 -3 42.2 22.5
22 -12 -3 59.29 21.4
12 -22 3 57.29 16.9
12 10 -3 44.2 18.6
10 12 3 88.89 25.9
22 -10 3 58.99 20.8
22 -10 -3 60.29 21.2
-10 22 3 52.79 19.5
10 12 -3 52.19 19
10 -22 3 69.99 17.5
12 -22 -3 71.09 17
-12 -10 3 45.4 18.1
-22 12 3 70.09 19.5
10 12 -3 26.9 18.5
12 10 3 86.49 24.7
-22 10 -3 15.1 15.1
22 -10 -3 29.6 19.1
22 -12 3 77.19 22.6
-12 22 -3 66.59 20
-9 22 -3 -0.1 16.5
13 9 -3 -9.7 20.4
13 -22 3 5 14
22 -13 -3 -6.2 19.5
9 -22 -3 1 15.1
-13 22 3 3.7 17.2
9 13 3 21.5 23.4
22 -9 3 -2.1 19.5
13 9 -3 0.7 15.6
-22 13 -3 1.6 16.6
9 13 -3 11.9 15.5
9 -22 3 20.6 16
-13 22 -3 -1.5 17.4
13 -22 -3 1.3 14.3
22 -9 -3 3.9 18
-9 22 3 5.6 17.4
-13 -9 3 8.1 16.9
-22 13 3 7.3 16.7
22 -13 3 5.5 19.3
13 9 3 8.3 22.2
9 13 -3 1 16
-22 9 -3 -2.9 15.2
22 -14 -3 111.69 22.6
-22 14 -3 43.6 18.3
14 8 -3 59.09 18.6
14 -22 3 90.89 17.5
-8 22 -3 77.19 19
8 -22 -3 95.69 19.4
8 14 3 137.99 26.9
14 8 -3 76.89 22.6
22 -8 3 70.69 20.4
-14 22 3 82.39 21.5
-22 8 -3 65.29 18.3
-8 22 3 47.1 19.5
-22 14 3 84.09 19.3
-14 -8 3 89.29 19.8
8 -22 3 68.79 18.2
22 -8 -3 71.59 21.2
-14 22 -3 81.39 20.6
22 -14 3 73.89 21.6
14 8 3 73.99 22.6
14 -22 -3 108.39 18.9
15 -22 3 62.89 16
15 7 -3 39.4 17.8
-7 22 -3 39.9 17
7 15 3 79.09 23.2
22 -15 -3 62.39 18.6
22 -7 3 61.39 19.5
-22 15 -3 50.99 19.2
15 7 -3 74.59 23.5
-15 22 3 50.29 19.2
7 -22 -3 28.5 16.1
22 -7 -3 69.09 20.7
15 7 3 76.99 22.9
-7 22 3 64.39 19.7
22 -15 3 71.29 20.3
-15 -7 3 87.79 19.3
-22 7 -3 39.9 17.1
7 -22 3 55.79 17
-15 22 -3 56.89 18.1
15 -22 -3 62.29 17
-22 15 3 77.59 18.8
-16 -6 -3 9.6 14
-16 22 3 21.2 17.6
22 -6 3 10.8 15.1
6 16 3 38.8 21.4
22 -16 -3 26.4 16.4
-6 22 -3 21.6 15.3
16 -22 3 13.7 14.9
-22 16 -3 3.4 17.5
6 -22 -3 2.9 11
16 6 -3 17.8 20.5
-22 6 -3 34.4 16.9
-16 -6 3 52.09 18
-22 16 3 45.8 15.9
22 -6 -3 37.2 18
16 6 3 35.9 19.9
-6 22 3 23.4 17.4
-16 22 -3 18.4 16.2
16 -22 -3 21.2 14.7
22 -16 3 31 17.8
-22 17 -3 10.6 16.2
-17 22 3 -5.4 16.8
-5 22 -3 10 13
22 -17 -3 11.8 16.9
-17 -5 -3 6.9 14
17 5 -3 6.2 20.4
5 17 3 25.3 19.5
-22 5 3 -12 9.5
17 -22 3 16.7 13.8
17 -22 -3 5.2 13.2
-17 22 -3 19.8 15.7
22 -17 3 7.4 17.4
-22 5 -3 7.7 15.1
17 5 3 2.5 16.4
-17 -5 3 16.9 16
22 -5 -3 -4.4 17.2
-22 17 3 -1.4 14
-5 22 3 0.1 17.2
-18 -4 -3 66.49 16.8
-4 22 -3 -2.8 13.8
18 -22 3 28.6 13.1
-18 22 3 42.7 16.8
-22 18 -3 54.69 16.6
4 18 3 72.19 20.7
-22 4 3 37 14
18 4 -3 63.99 21
22 -18 -3 75.59 18.8
18 4 3 48.7 17.9
22 -18 3 43 17.9
-4 22 3 47.6 19.9
-18 22 -3 63.99 17
22 -4 -3 56.09 19.2
-22 18 3 56.59 16.3
-18 -4 3 81.29 18.1
-22 4 -3 62.09 16.2
-22 3 3 22.2 13.3
19 3 -3 3.2 18.7
-19 22 3 5.2 15.1
-22 19 -3 18.5 15.4
-19 -3 -3 33.9 15.5
3 19 3 27.1 18.3
22 -19 -3 17.5 16
19 -22 -3 9.8 11
-22 19 3 17.9 14.4
-19 -3 3 33.6 15.7
-19 22 -3 17.2 14.7
22 -19 3 12.9 14.5
-3 22 3 23.3 18
-22 3 -3 11.7 14.2
22 -3 -3 40.5 17.9
19 3 3 26.9 17
-20 -2 -3 11.7 15.7
-22 20 -3 1.8 16.4
22 -20 -3 11.7 16.8
20 2 -3 1.1 18.5
2 20 3 3.9 18
-22 2 3 -8 13.1
-22 2 -3 18.3 15.3
-22 20 3 3.4 8.9
20 -22 -3 13.3 12.9
-20 -2 3 4.7 17.3
-20 22 -3 -4.3 14.9
20 2 3 4.4 13.3
20 -22 -3 9.7 13
-2 22 3 9.9 17.6
22 -2 -3 -23.6 18
12 11 -3 6 16.4
-23 11 3 8.9 16.4
-23 12 -3 5 14.1
11 12 3 14 20.1
-11 23 -3 26.2 16
-12 23 3 6.7 16.4
12 -23 3 10.2 14.6
11 -23 -3 6.4 13.5
23 -11 3 16.7 18.7
23 -12 -3 8.7 17.9
12 -23 -3 5.9 13.2
12 11 3 9 20.6
-23 12 3 10.4 15.9
23 -12 3 9.5 18.5
23 -11 -3 4.9 14.5
-11 23 3 -0.3 16.6
-12 23 -3 8.9 16.1
11 12 -3 5.5 17.9
11 -23 3 3.3 14.1
13 10 -3 21.2 18.1
-23 10 3 32.3 17.1
10 -23 -3 10.6 14.2
23 -13 -3 1.5 16.9
10 13 3 10.5 21
-10 23 -3 11.6 15
-23 13 -3 -3.3 15.6
23 -10 3 22.4 19
13 -23 3 22.2 14.4
-13 23 3 14.1 16.2
-13 -10 3 -5.6 13.5
-10 23 3 16.7 17
23 -13 3 11.4 18.3
-23 13 3 7.3 15.5
23 -10 -3 16.8 17.5
-13 23 -3 24.9 17.1
13 -23 -3 18 13.5
10 -23 3 16.7 14.9
13 10 3 36 20.8
14 9 -3 10.2 17.6
23 -14 -3 20.8 18
14 -23 3 9.6 14.2
9 -23 -3 4.7 13.8
-14 23 3 14.3 15.6
-23 9 3 15 16
9 14 3 28.2 21.5
-23 14 -3 -3.4 16
23 -9 3 2.7 18.4
-9 23 -3 3.1 14.4
14 -23 -3 16.2 13.4
14 9 3 8.4 18.6
9 -23 3 -1.6 13.8
-9 23 3 12.2 16.5
23 -9 -3 1.3 17.1
-23 14 3 1.7 14.4
23 -14 3 13.5 17.4
-23 9 -3 -3 10.7
-14 -9 3 -14.4 14.1
-14 23 -3 6.8 15.8
-8 23 -3 8.9 13.7
23 -15 -3 14.6 16.7
15 8 -3 20.7 18.6
8 -23 -3 -0.7 13.5
8 15 3 10.9 19.8
-23 15 -3 4.3 16.4
23 -8 3 4.3 18.6
-15 23 3 6.3 14.9
15 -23 3 16.7 14.7
-23 8 -3 6.3 13.1
-8 23 3 11.3 16.3
23 -15 3 15.6 17.1
15 -23 -3 21.8 13.7
23 -8 -3 15.6 16.5
-15 23 -3 10.3 14.9
15 8 3 10.7 18
8 -23 3 10.6 13.7
-15 -8 3 1.5 16.2
-23 15 3 13 14.4
16 -23 3 3.8 13.7
-16 23 3 3.2 11
-7 23 -3 1.2 11.7
23 -16 -3 -11.4 16.4
7 16 3 -10.4 19
16 7 -3 1 19.2
7 -23 -3 -5.6 9.1
-23 16 -3 -5.1 16.3
-7 23 3 1.4 16
23 -16 3 7.5 16.4
-16 23 -3 1.2 14.3
-23 16 3 1.6 13.1
-16 -7 3 10.5 15
16 -23 -3 2.9 13.3
-23 7 -3 4 13.1
16 7 3 6 17
23 -7 -3 -2.6 15.7
23 -17 -3 32.5 18.3
17 -23 3 20.4 14.6
6 17 3 40.2 20.2
17 6 -3 33 21.3
-23 17 -3 20.9 16.9
17 6 3 13.3 16.7
-6 23 3 6.5 16.5
17 -23 -3 7.6 14.1
-17 -6 3 24.9 17.3
-17 23 -3 22.7 15.5
-23 17 3 12.5 13.9
23 -6 -3 23.6 17.4
-23 6 -3 28.6 14.6
23 -17 3 31.7 17.2
-18 -5 -3 -1.5 10
18 5 -3 -2.6 19.4
23 -18 -3 14.4 17.5
-23 18 -3 5.3 16.7
18 -23 3 -0.9 9.4
5 18 3 18.5 19
-18 -5 3 12 15.7
-18 23 -3 9.2 15.5
-23 18 3 -3.5 13.9
-5 23 3 18.5 15.6
18 5 3 -1.2 15.4
23 -18 3 13.1 16.1
-23 5 -3 2.1 12.7
23 -5 -3 -11.6 16.9
23 -19 -3 51.79 19.6
19 4 -3 40.6 22
4 19 3 59.79 22.4
-19 -4 -3 22.7 12.3
-23 19 -3 51.49 18.7
-19 23 -3 37.5 16.4
19 4 3 24.8 17.6
23 -4 -3 22.9 18.9
-4 23 3 -1.4 11.5
-23 19 3 22.1 13.7
-23 4 -3 32.1 14.6
23 -19 3 8.9 10.1
-19 -4 3 62.89 19.3
24 -12 3 45 18.6
12 -24 -3 12 13.1
-12 24 -3 20.2 14
-24 12 3 44.5 17.1
12 -24 3 25.5 13.6
12 12 3 43.2 21.1
11 -24 -3 2.7 12.8
24 -11 3 5 17.7
-24 11 3 21.8 15.9
-11 24 -3 7.3 13.1
11 13 3 15 20.7
24 -13 -3 -1.3 12.8
13 -24 3 5.9 13
-24 13 3 0.8 15.5
13 -24 -3 18.8 14.2
11 -24 3 12.3 13.3
-13 24 -3 21.6 14.4
24 -13 3 18.3 18.2
13 11 3 13.8 19.3
24 -10 3 -3.9 17.7
24 -14 -3 23.2 19.1
-10 24 -3 15.2 11.6
10 14 3 38.2 21.3
14 -24 3 8.6 13.6
-24 14 -3 -1.9 14.9
10 -24 -3 6.7 13.1
-24 10 3 23.2 16.4
-24 14 3 9.8 15.8
14 10 3 38.5 20.9
24 -14 3 13.1 17.7
10 -24 3 11 12.9
-14 24 -3 22.3 15.4
14 -24 -3 24.7 14
15 9 -3 -2 13.6
24 -15 -3 -5.1 19.7
9 -24 -3 1.2 9.9
-24 9 3 11.6 16.9
9 15 3 9.8 20
-24 15 -3 4.5 11.4
-9 24 -3 -2.4 12.3
24 -9 3 -1.2 12.2
15 -24 3 3.7 14.3
24 -9 -3 -15.5 16.8
-15 24 -3 -0.7 15.8
24 -15 3 7.8 17.8
-15 -9 3 -17.7 10.5
-24 15 3 1.4 15.3
15 -24 -3 9.6 14.9
15 9 3 9 19.8
9 -24 3 -11.6 8.7
16 -24 3 5.4 14.1
8 16 3 13.2 20.7
-24 8 3 15.9 17.7
24 -16 -3 -3.2 19.9
-24 16 -3 5.1 13.3
16 8 -3 4.1 12.3
16 8 3 -4.5 17.9
-24 16 3 9.3 15.3
16 -24 -3 -0.4 14.2
24 -8 -3 -8.8 17.8
-16 -8 3 -7.2 14.9
24 -16 3 -9.1 18.6
-16 24 -3 -4 16
-24 7 3 63.99 19.1
17 7 -3 5 11
17 -24 3 29.5 14.9
7 17 3 41.7 21.1
-24 17 -3 8.1 13.8
24 -17 -3 50.19 20.2
-17 -7 3 61.79 19.3
24 -17 3 66.99 20.3
24 -7 -3 47.5 20
17 -24 -3 32.6 13.3
-17 24 -3 39.6 16.5
-24 17 3 30.3 16.5
17 7 3 41.2 20.1
0 0 -4 0.2 16.6
0 0 4 -5.9 16.8
0 1 -4 58.19 17.3
0 -1 4 63.99 20.8
-1 1 -4 49.6 16.2
-1 0 -4 65.89 18.3
-1 1 4 65.29 20.9
1 -1 4 49.6 19.9
0 1 4 67.79 21.3
1 0 4 59.89 19.3
0 1 4 58.99 19.1
-1 1 4 66.29 19.1
0 -1 -4 73.29 19.4
-1 0 4 52.49 20.1
1 -2 4 24.2 18.4
-1 2 4 14.1 17.9
-1 -1 -4 0.1 16.6
-1 2 -4 13.8 10.5
-1 2 -4 6.6 13.1
2 -1 4 9.3 17.4
-1 -1 4 17.5 19.9
1 1 4 16.4 18.8
1 1 4 15.7 18.2
-1 2 4 13.8 16.8
-2 1 -4 12.2 16
-2 1 4 19.4 18.6
-2 1 4 15.3 17.8
0 -2 -4 13.4 18
-2 0 4 -11.6 14.5
0 2 4 19 18.3
-2 0 4 16.6 19.5
-2 2 4 19.9 15.7
-2 2 -4 5.1 12.7
-2 0 4 -8.2 13.9
2 -2 4 9.4 17.5
0 2 -4 6 12.4
-2 2 4 13.5 17.4
-2 0 -4 8.3 16.2
0 2 4 -2.9 17.4
0 2 -4 10 13.7
2 0 4 12.9 17.5
0 -2 4 4.9 18.7
-2 2 -4 11.7 16.5
2 -3 4 1789.82 116.99
-3 1 4 1714.33 112.59
1 2 4 1747.33 115.59
-3 2 -4 1745.93 110.59
-3 1 4 1624.84 113.29
3 -1 4 1760.02 115.49
-3 1 4 1639.04 113.09
-1 3 -4 1704.93 109.79
-2 -1 -4 1644.54 111.99
-2 3 4 1827.12 115.09
-3 2 -4 1712.43 112.19
1 2 4 1715.93 113.59
-1 -2 4 1768.92 116.79
-2 3 4 1775.12 114.69
-1 3 -4 1706.13 110.29
-3 2 4 1605.34 112.19
-1 3 4 1746.13 112.99
2 1 4 1742.13 114.09
-1 3 4 1703.03 111.89
3 -2 4 1608.04 111.19
1 2 -4 1621.54 107.19
-2 3 -4 1658.53 107.79
-3 2 4 1660.43 110.89
-1 -2 -4 1643.54 109.69
1 -3 4 1723.23 113.69
-3 2 4 1634.14 110.49
-2 3 -4 1798.52 109.39
-2 -1 4 1692.13 109.59
-3 1 -4 1624.84 109.79
-2 -1 4 1745.53 114.09
2 1 4 1689.83 111.19
-3 0 4 168.68 25.5
0 3 -4 137.09 20.7
0 3 4 182.58 27.6
-3 3 4 180.08 32.3
0 -3 4 223.68 30.8
-3 3 -4 204.18 28.1
0 3 4 154.28 26.6
3 0 4 143.49 26
-3 0 -4 184.58 26.4
-3 0 4 189.38 31.8
-3 0 4 169.18 26.6
0 3 -4 174.88 23
3 -3 4 181.78 27.9
-3 3 4 192.98 28.4
-3 3 -4 156.28 23.8
-3 3 4 156.58 26.8
-2 -2 -4 1414.16 98.89
-4 2 4 1393.16 100.69
-4 2 -4 1447.56 99.19
-2 -2 4 1464.35 96.59
-2 4 -4 1463.95 96.89
-2 4 4 1615.74 102.99
-2 4 4 1506.75 101.49
-4 2 4 1469.25 99.49
2 -4 4 1473.25 102.69
-4 2 4 1519.05 100.29
4 -2 4 1398.46 100.09
2 2 4 1534.25 100.99
-2 4 -4 1561.94 97.49
-4 2 -4 1545.95 97.09
2 2 4 1518.05 102.69
-4 3 -4 133.09 22.8
1 3 4 172.28 27.8
4 -1 4 129.99 24
-3 4 4 140.69 31.8
1 3 4 138.79 25.6
-3 -1 -4 178.08 26.9
-1 4 -4 126.59 21
-4 1 4 128.59 25.9
-3 4 4 184.78 27.7
-4 1 4 128.19 21.4
-4 1 4 160.68 26.1
-4 3 -4 123.39 23.9
-1 4 -4 130.19 21.8
-3 4 4 149.09 26.5
3 -4 4 140.69 27.2
3 1 4 217.08 31.7
-3 -1 4 221.48 30
-4 3 4 242.48 30.8
1 -4 4 250.47 39.7
-1 -3 -4 204.08 30.7
-4 3 4 257.47 38.4
-3 -1 4 189.28 34
-1 4 4 219.38 33.7
-4 1 -4 196.48 29.7
1 3 -4 208.48 25.8
-3 4 -4 217.08 25.8
3 1 4 209.48 30
-3 4 -4 223.88 30.8
4 -3 4 190.78 33.7
-1 4 4 222.38 32.3
-4 3 4 205.28 29.4
4 0 4 533.15 45.1
-4 4 4 542.45 47.3
-4 4 -4 522.75 42.4
-4 0 4 623.44 46.5
0 4 4 563.14 50.29
-4 0 -4 527.15 45.8
4 0 4 535.65 49.5
-4 0 4 551.54 46.3
-4 0 4 506.25 50.19
4 -4 4 545.95 49.99
-4 4 -4 504.65 45.3
0 4 4 490.55 47.4
-4 4 4 516.15 52.69
0 4 -4 554.44 43.7
-4 4 4 515.25 48.9
-2 5 -4 1356.36 97.99
-5 2 4 1448.36 100.39
-5 3 -4 1469.95 97.79
-3 -2 -4 1431.36 99.99
-2 5 -4 1579.74 97.79
5 -2 4 1545.85 102.79
-5 2 4 1414.76 99.49
3 -5 4 1571.34 105.39
-3 5 4 1482.85 102.79
2 3 4 1547.15 102.59
-5 2 4 1480.95 102.29
-3 5 4 1581.34 102.39
2 3 4 1584.14 104.99
-5 3 -4 1497.95 101.69
-3 5 4 1445.56 106.29
-3 -2 4 1627.54 105.39
5 -3 4 1720.23 111.89
-3 5 -4 1790.32 108.89
-2 -3 -4 1542.65 109.59
3 2 4 1702.73 113.39
-2 5 4 1716.53 115.49
3 2 4 1665.93 110.79
-3 5 -4 1596.84 107.59
2 -5 4 1685.73 115.19
-5 3 4 1499.15 108.79
-2 5 4 1742.23 113.49
-5 3 4 1697.13 110.59
-2 5 4 1674.13 112.59
2 3 -4 1615.54 106.19
-5 3 4 1581.34 112.79
-5 2 -4 1613.44 109.89
-4 5 4 61.49 19.3
1 4 4 41.6 21.1
-1 -4 4 35.6 13.5
1 4 4 56.49 24.4
-4 5 4 62.69 28.3
4 -5 4 33.7 20.1
-4 5 4 64.39 23.3
-5 1 4 95.19 26.6
-1 5 -4 66.19 17.4
5 -1 4 51.79 21
-5 4 -4 57.09 22.1
-5 4 -4 20.6 15.4
-5 1 4 56.49 19.3
-1 5 -4 46.2 13
-5 1 4 64.39 22
-5 4 -4 60.49 17.2
-4 -1 -4 63.59 21.6
-4 5 -4 111.39 25.6
-5 1 -4 125.49 25.6
-4 -1 4 122.89 22.3
4 1 4 119.09 24.2
4 1 4 94.29 24.3
5 -4 4 92.49 23.4
-5 4 4 75.69 20.5
-1 5 4 108.19 24.9
-4 -1 4 171.88 26.6
-5 4 4 117.19 31.9
-4 5 -4 102.49 20.1
1 4 -4 102.99 18.3
-1 5 4 100.79 24.7
-5 4 4 108.99 24.9
-1 -4 -4 105.79 25.1
-5 5 -4 319.37 39.5
-5 5 4 342.17 40.4
-5 5 -4 303.77 32.5
0 5 -4 342.27 32.4
5 -5 4 364.46 40.3
0 5 -4 235.58 33.2
-5 0 4 317.07 38.1
-5 5 4 300.97 42.5
5 0 4 350.26 41.8
-5 0 4 327.47 34.8
-5 5 4 326.37 35
-5 0 -4 320.67 36.6
0 -5 4 309.57 33.9
5 0 4 348.37 37
-5 0 4 304.97 36.1
0 5 4 307.67 38.2
0 -5 -4 252.27 31.7
0 5 4 323.17 40.5
-6 3 -4 24.2 19
-3 6 4 53.69 22.5
-3 -3 -4 24.2 15.5
-6 3 4 31.9 26.5
-3 6 4 19.4 21.9
3 -6 4 36.6 23.6
-6 3 4 26.8 18.8
-6 3 -4 31.4 17.4
-6 3 4 33.2 18.2
-3 -3 4 25.3 15.8
-3 6 -4 37.1 19.3
3 3 4 11.6 21.8
-3 6 -4 -4 11.2
6 -3 4 40.1 20.3
-3 6 4 36.3 31.5
-3 -3 -4 29.7 20.3
3 3 4 40.2 20.1
-3 6 -4 25.5 17.9
3 3 -4 14.7 15.6
-6 3 -4 32.5 23
-6 4 -4 65.79 24.1
4 2 -4 42.2 18.1
-4 -2 -4 30.1 13.4
-6 2 4 43.3 19.9
-6 2 4 84.19 26.4
-4 6 4 50.29 18.4
-2 -4 4 70.19 18.1
-6 4 -4 49.4 19.3
-6 4 -4 55.79 18.1
-4 6 4 43 30.4
-4 -2 -4 76.79 23.8
4 -6 4 62.49 24.2
2 4 4 47 21.9
-2 6 -4 56.69 16.3
-2 6 -4 19.6 15.6
6 -2 4 48.6 20.2
-6 2 4 35 18.9
-4 6 4 61.99 24.8
2 4 4 39 23.9
-2 6 -4 58.49 19.2
-6 2 -4 24.9 21.2
-4 6 -4 4.8 21.6
-4 6 -4 -2.3 10.4
2 4 -4 4.9 15.5
-2 -4 -4 11.1 15.5
2 4 -4 22.1 13.5
-6 4 4 19.8 25.5
-2 6 4 17.6 24.6
-6 4 4 22.8 19.6
-4 -2 4 -12.7 9.4
-2 6 4 12.8 20.3
-4 -2 4 -3.9 10.4
-2 6 4 29.5 23.5
4 2 4 4 20.8
-6 4 4 7.6 16.5
4 2 4 9.8 17.3
-6 2 -4 13.9 19.1
-2 -4 -4 20.1 23.3
-4 6 -4 12.6 17.4
6 -4 4 1.7 17.9
-4 6 -4 3.4 10.8
6 -1 4 220.88 37.8
-6 5 -4 209.08 28.8
1 -6 -4 146.29 27.1
-6 5 -4 213.98 33.1
-6 1 4 224.98 37.1
-1 6 -4 254.47 30.9
5 1 -4 197.78 26.7
5 -6 4 227.38 37.5
-1 6 -4 190.88 31.7
1 5 4 224.88 40
-6 1 4 231.58 35.9
-5 6 4 224.48 31.6
-5 6 4 264.37 41.3
1 5 4 200.68 33.1
-1 -5 4 237.48 34.2
-6 5 -4 185.98 29.4
-6 1 4 228.88 31
-5 6 4 224.98 38.5
-5 -1 -4 218.78 32.3
1 5 -4 221.18 32
-5 6 -4 280.67 35.1
-5 -1 4 315.97 34.4
-1 6 4 262.27 40
-6 5 4 234.68 32.2
1 -6 4 265.47 33.2
1 5 -4 275.27 32.5
-6 5 4 333.97 46.3
-5 -1 4 207.08 27.6
-1 6 4 264.17 39.7
-5 6 -4 280.57 32.4
-6 1 -4 241.88 35.2
-6 1 -4 247.18 33.9
-1 -5 -4 237.88 33.6
-6 5 4 317.77 43.3
6 -5 4 260.27 34.8
5 1 4 277.77 34.3
5 1 4 238.78 38.8
0 6 4 571.44 59.29
6 -6 4 517.05 50.29
6 0 4 552.94 54.89
-6 6 4 520.15 57.99
-6 0 -4 531.85 46.3
-6 0 4 499.35 49.7
0 -6 -4 525.85 50.89
0 6 -4 552.94 48.8
6 0 4 473.45 46.5
-6 0 4 502.45 45.1
-6 0 -4 507.55 49.5
-6 6 -4 545.45 52.29
-6 6 4 478.15 45.7
-6 6 -4 544.95 45.9
-6 6 4 535.25 55.29
0 6 -4 531.55 47.2
-6 0 4 502.35 45.7
0 -6 4 621.34 49.8
0 6 4 602.34 57.29
-6 6 -4 459.65 42.5
0 6 -4 612.24 49.8
-4 7 4 248.08 43.3
-7 3 4 304.87 45.3
4 3 -4 213.98 32.2
-7 3 4 185.98 33
-7 4 -4 225.48 30.3
-4 -3 -4 226.58 33.1
-4 7 4 246.08 44.6
3 4 4 199.68 35.8
3 4 4 239.88 34.3
-3 7 -4 225.48 37.8
-3 7 -4 197.28 34.4
-7 4 -4 231.08 36.8
-7 4 -4 208.58 32.2
4 -7 4 179.58 32.3
7 -3 4 206.18 35
-3 -4 4 279.17 34.9
-4 -3 -4 222.28 35.4
-7 3 4 230.08 37.1
-4 7 4 224.78 37.3
3 4 -4 251.77 34
-4 7 -4 280.47 35
7 -4 4 208.68 35.1
-7 4 4 256.27 33.7
-7 4 4 288.37 39.2
-3 -4 -4 259.67 37.1
-7 3 -4 252.27 33.2
-7 4 4 289.97 47.5
-4 -3 4 361.06 39.2
-3 7 4 274.67 45.5
-7 3 -4 263.57 34.3
-4 7 -4 237.08 35.8
-4 7 -4 274.67 36
-3 -4 -4 272.97 39.4
-3 7 4 255.47 38.9
-3 7 4 259.87 43.3
3 4 -4 228.88 28.2
-7 3 -4 284.97 39.1
4 3 4 288.27 44
4 3 4 260.07 36.3
7 -2 4 247.58 39.1
-5 -2 -4 298.67 38.6
-7 2 4 266.97 35.8
2 5 4 265.17 44.3
-7 5 -4 234.08 30.6
-5 7 4 299.67 47.1
-5 -2 -4 230.88 31.3
-7 2 4 253.87 34.8
5 2 -4 270.57 35.5
-5 7 4 284.27 46.5
-5 7 4 278.57 35.5
-2 7 -4 262.07 36.4
-7 5 -4 292.57 35.8
5 -7 4 288.87 42.7
-2 -5 4 316.87 37.1
-2 7 -4 295.27 41.1
2 5 4 315.47 38.7
-7 2 4 329.67 41.1
-7 5 -4 261.47 38.1
-2 -5 -4 385.16 41.1
-5 -2 4 345.87 39.5
2 -7 4 312.87 34.8
-7 2 -4 371.76 39.4
2 5 -4 370.36 39.4
-7 5 4 385.96 50.69
-2 -5 -4 358.96 41.7
-5 -2 4 299.57 35.9
2 5 -4 376.06 37.1
-2 7 4 389.76 47.3
-2 7 4 389.06 48.5
5 2 4 340.77 39.5
-5 7 -4 352.16 38.6
-5 7 -4 422.76 40.9
-7 5 4 497.65 50.49
5 2 4 352.76 51.09
-7 2 -4 405.46 42.6
7 -5 4 316.87 40.9
-7 5 4 323.07 37
-5 7 -4 337.47 43
-2 7 4 427.26 52.29
-6 -1 -4 230.38 33.9
1 6 4 224.78 39.8
1 6 4 240.98 40.4
-6 7 4 181.68 31.7
7 -1 4 170.48 31
-7 6 -4 218.28 32.2
1 -7 -4 187.18 34.4
-1 7 -4 203.48 32
-1 -6 4 302.97 41
-1 7 -4 186.58 33.9
7 -1 4 157.58 30.8
-7 6 -4 254.57 41.8
-6 7 4 228.18 39.8
6 -7 4 148.29 29
-6 -1 -4 268.07 37.6
-6 7 4 276.47 45.3
-7 1 4 221.18 35.1
-1 7 -4 251.27 35.9
-7 6 -4 199.88 30.7
-1 7 4 201.88 37.3
-7 6 4 274.67 44.8
1 6 -4 285.67 35.9
-7 1 -4 237.58 37.1
6 1 4 199.58 34.9
-7 6 4 282.47 45.5
-1 7 4 252.87 44
1 -7 4 313.87 39.3
1 6 -4 186.48 31.9
-6 7 -4 254.67 42
-6 7 -4 236.08 35
-7 1 -4 252.77 36.4
6 1 4 188.88 31
-1 -6 -4 237.48 42
-1 7 4 164.78 37.2
-6 7 -4 196.28 29.3
-6 7 -4 218.58 30.5
0 7 -4 1012.9 72.29
-7 7 4 938.11 80.49
0 -7 -4 894.51 72.49
-7 7 4 969.5 80.79
-7 7 -4 866.11 74.29
-7 0 -4 923.11 73.99
-7 7 -4 862.71 65.29
0 -7 4 859.51 67.29
0 7 4 872.51 75.09
0 7 -4 875.01 67.69
-7 7 -4 821.22 67.59
0 7 4 890.61 78.59
-7 0 -4 898.11 67.99
7 0 4 774.22 73.89
-7 7 -4 883.61 65.49
-4 8 -4 665.13 53.19
-4 -4 4 717.63 58.69
-8 4 -4 659.93 59.69
-4 -4 -4 677.13 60.99
4 4 -4 643.14 52.39
-4 8 4 656.33 62.69
-4 8 4 681.43 69.99
-4 -4 -4 711.33 60.19
4 4 4 641.54 65.69
-4 8 -4 670.13 58.99
-8 4 4 600.64 58.39
-8 4 -4 691.33 52.39
-8 4 4 727.43 64.69
-8 4 -4 607.34 52.09
-4 8 4 625.94 66.29
5 -8 4 22.5 23.6
-8 5 -4 55.19 22.1
-5 -3 -4 66.69 28.5
-3 8 -4 54.09 25.4
-5 8 4 52.89 38.4
-5 -3 -4 44.8 21
3 5 4 50.59 22.9
5 3 -4 58.79 21.9
-3 8 -4 56.49 24.3
-8 5 -4 53.29 20.8
-5 8 4 67.29 33.3
-5 8 4 34.4 23.2
3 5 4 54.49 30
-8 5 -4 53.29 27.5
-8 3 4 68.99 28.5
-3 -5 4 78.89 23.2
-3 -5 -4 54.39 26.8
5 3 4 51.29 31
-8 5 4 32.4 16.7
-8 5 4 74.89 33.3
-5 8 -4 59.09 24.2
-5 8 -4 59.09 21
3 5 -4 18.9 14.4
-8 5 4 58.29 27.6
-3 8 4 50.09 33.7
-5 -3 4 68.49 21
3 5 -4 56.49 23.4
-8 3 -4 55.89 29.7
-5 8 -4 -1.7 24.5
-3 8 4 53.89 30.3
5 3 4 12.2 18.4
-8 3 -4 81.29 23.3
-3 8 4 35.7 26
-3 -5 -4 51.49 21.2
-8 6 -4 130.29 24.4
-2 8 -4 64.79 20.6
-6 -2 -4 99.59 29
-6 8 4 130.59 40.6
-6 8 4 138.89 38.8
-2 8 -4 114.39 29.3
-8 6 -4 89.29 23.4
-2 8 -4 136.49 27.9
-6 -2 -4 88.69 21.6
-8 6 -4 108.59 31.2
-2 -6 4 112.69 23.3
2 6 4 87.69 29.9
6 2 -4 106.99 22.7
-6 -2 -4 88.49 25.9
2 -8 -4 102.99 23.8
2 6 4 123.19 35
-8 2 4 108.39 23.1
-8 2 4 148.49 31
-6 8 -4 85.59 29.8
2 6 -4 77.19 21.5
-2 8 4 108.39 34
-6 -2 4 97.49 22.4
6 2 4 94.29 32.8
-2 8 4 86.69 40.1
-8 2 -4 103.29 30
-8 6 4 112.19 31.7
-6 8 -4 90.39 26.4
-2 8 4 97.89 33.8
-8 6 4 85.29 19.1
-8 2 -4 121.09 25
-8 6 4 113.99 39.9
-2 -6 -4 83.89 23.9
-6 8 -4 123.19 27.4
2 -8 4 114.19 23
2 6 -4 130.59 26.6
-7 -1 -4 261.67 37.4
-7 8 4 228.38 46
1 -8 -4 161.68 29.8
-7 -1 -4 221.58 38.1
-8 7 -4 185.98 31.7
-1 8 -4 185.18 29.6
-8 1 4 197.48 31
-8 7 -4 150.88 34.3
-8 7 -4 215.78 36.5
-7 8 4 218.58 44.2
-1 -7 4 217.68 41.3
1 7 4 190.58 39.6
-8 7 -4 126.69 24.4
-1 8 -4 184.98 33.8
1 7 4 170.68 36
-1 -7 -4 132.59 26.1
-7 8 -4 125.99 35.4
-1 8 4 134.99 35.5
-7 8 -4 175.08 28.9
-8 1 -4 141.89 28.2
1 7 -4 169.08 27.5
-8 7 4 170.38 41.2
-8 7 4 139.79 38
-7 8 -4 152.78 27.1
1 7 -4 104.79 25.8
-1 8 4 193.78 42.4
-8 1 -4 139.29 33.8
-7 8 -4 175.68 29.8
1 -8 4 133.39 26
7 1 4 95.79 33
-1 8 4 155.88 36.7
-8 0 -4 219.28 36
-8 8 4 158.98 43.3
-8 8 4 127.39 41.5
0 8 -4 78.79 29.8
0 8 -4 184.88 30.7
0 8 4 132.39 37.4
0 -8 -4 169.98 30.1
-8 8 -4 192.98 29
-8 0 4 170.48 26.5
-8 0 -4 161.48 34.5
0 -8 4 169.98 28.3
-8 8 -4 73.69 31
-8 8 -4 116.79 24.4
-8 8 -4 143.19 28.8
0 8 4 152.08 39.2
-5 -4 -4 895.91 68.89
4 5 4 837.92 80.29
5 4 -4 901.91 66.49
-5 9 4 919.81 84.49
-9 4 4 1008.4 77.49
-4 9 -4 910.21 67.99
-5 -4 -4 892.01 69.69
-5 9 4 841.82 80.79
-9 5 -4 750.02 71.89
-4 -5 4 760.82 70.39
-4 9 -4 878.81 73.99
-9 5 -4 808.62 63.39
-4 -5 -4 832.22 65.89
-4 9 4 839.62 79.69
-9 4 -4 796.42 69.29
-4 -5 -4 837.22 68.79
-9 4 -4 795.12 62.19
5 4 4 727.63 75.19
-5 9 -4 827.32 62.79
-9 5 4 779.82 58.99
4 5 -4 812.92 62.49
-9 5 4 853.81 73.89
-5 9 -4 856.11 70.69
-4 9 4 627.54 69.79
-4 9 4 844.12 78.89
-5 -4 4 729.93 66.59
-6 9 4 211.28 46.6
-9 6 -4 169.98 27.5
-9 3 4 219.48 36.9
-6 -3 -4 237.78 37.5
3 -9 -4 218.58 35.7
3 6 4 174.88 40.8
-3 9 -4 229.58 36.5
-6 9 4 254.17 53.29
-9 6 -4 201.18 39.9
6 3 -4 261.17 34.7
-6 -3 -4 218.58 39.2
-6 -3 -4 225.58 35
-9 6 -4 132.49 26.8
-9 6 -4 225.48 33.6
-9 3 4 164.48 28.7
-3 9 -4 171.38 36.1
-3 -6 4 227.98 37.8
-3 9 4 198.28 40.8
-3 -6 -4 313.47 40
3 -9 4 289.97 39.6
-3 9 4 324.67 55.99
-9 3 -4 302.27 45
-6 9 -4 307.47 44.6
6 3 4 307.47 50.79
-9 3 -4 278.67 37.8
-6 9 -4 320.27 39.4
-3 9 4 326.87 54.19
-9 6 4 318.07 35.1
-3 -6 -4 308.07 45.2
3 6 -4 334.17 40.5
-9 6 4 305.37 50.69
-6 -3 4 307.87 45
-9 7 -4 125.49 27
-7 9 4 143.79 44.7
-2 9 -4 241.18 32.9
-9 2 4 167.58 30.7
-9 7 -4 181.38 31.8
-9 7 -4 145.49 24.5
-2 -7 4 170.08 29.5
-7 -2 -4 185.38 34.6
2 -9 -4 181.88 30.7
-9 7 -4 143.19 35.3
-7 -2 -4 171.48 36.1
2 7 4 135.29 40.9
-2 9 -4 139.39 35
-7 -2 -4 186.58 31.8
-7 9 4 186.98 49.2
2 -9 4 206.68 39.3
-7 9 -4 237.38 36.5
-9 2 -4 263.17 42.6
-2 -7 -4 209.28 39.3
-9 7 4 190.58 29.9
-9 2 -4 233.98 37.5
-9 7 4 250.27 46.6
2 7 -4 215.28 32.8
-7 9 -4 174.28 33.3
-2 9 4 156.98 40.2
-2 9 4 144.49 42.8
-2 9 4 210.48 46.5
-8 -1 -4 61.09 31.8
1 8 4 34.4 34.9
-1 9 -4 89.49 25.9
-8 9 4 77.99 44.4
-9 8 -4 71.79 23.4
-8 9 4 20.2 40.7
-9 8 -4 78.39 23.7
1 -9 -4 61.09 24.7
-8 -1 -4 80.69 29.5
-9 8 -4 12.9 21.8
-1 -8 4 37.5 21.4
1 8 4 -7.8 26.3
-1 9 -4 -12.7 26.7
-9 1 4 85.29 22.7
-9 8 -4 1.4 30.4
-8 9 -4 -2.3 33.6
8 1 4 -3.2 28.2
-8 9 -4 84.29 21.1
-1 -8 -4 83.39 23.4
-1 9 4 27.6 33.4
1 8 -4 128.99 27.5
-9 8 4 -36 37.8
-8 9 -4 61.79 25.8
-9 8 4 62.69 37.8
-1 9 4 27.8 32.7
-9 1 -4 111.89 27.9
1 -9 4 70.09 24
-8 -1 4 136.29 24.8
-9 8 4 115.89 22.2
-8 9 -4 122.99 26.1
-9 1 -4 80.69 32.1
-1 9 4 45.3 33.5
-9 0 -4 167.08 31.8
0 -9 4 82.29 22.1
-9 9 4 122.99 46.5
-9 9 -4 137.39 25.9
0 9 -4 161.38 28.8
0 9 4 17.1 33.7
-9 0 -4 43.8 28.3
-9 0 4 147.59 25.5
-9 9 -4 116.69 24.4
-9 9 4 96.79 22.3
0 -9 -4 152.08 28.4
-9 9 4 -14.3 41.7
-5 -5 -4 631.54 58.79
5 5 4 476.85 72.39
-10 5 -4 637.24 62.29
-5 10 4 547.25 74.39
-10 5 4 571.84 49.1
-5 10 -4 720.53 55.29
-10 5 -4 574.14 51.69
-5 10 -4 564.94 62.89
-5 10 4 494.35 79.69
5 5 -4 691.83 53.89
4 6 4 133.99 39.9
6 4 -4 224.58 34.3
-6 10 4 165.58 45.3
-6 -4 -4 202.28 30.5
-6 10 4 135.79 48.1
-6 -4 -4 132.79 27.9
-4 10 -4 100.59 33.9
-4 10 -4 227.58 35.5
-10 6 -4 190.48 39.7
-10 6 -4 182.88 28.8
-4 -6 4 146.99 27.7
-10 6 -4 174.78 28.9
-10 4 -4 140.89 36.9
-10 6 4 155.08 24.8
-10 4 -4 159.28 28.4
-6 10 -4 232.08 31
-4 10 4 29.1 39.3
4 6 -4 176.78 28.6
-10 6 4 77.59 34
-4 -6 -4 150.48 28.8
-4 10 4 128.49 43.1
-6 -4 4 121.39 26.4
-6 10 -4 118.19 36.5
-3 10 -4 137.49 28.6
-10 7 -4 18.6 28.5
-10 7 -4 73.79 21.5
-10 7 -4 87.99 21.3
-7 10 4 15.4 41.5
3 -10 -4 82.59 24.3
-7 10 4 69.29 40.2
-7 -3 -4 63.89 21.5
3 7 4 61.89 36.8
-7 -3 -4 63.79 25.6
-3 -7 4 56.79 21.4
-10 3 4 97.89 24.6
-7 -3 -4 2.4 24.1
3 -10 4 26.7 19.7
7 3 4 3 29.5
-7 -3 4 35.3 21
-3 -7 -4 80.79 25.6
-7 10 -4 36.7 27.5
-3 10 4 13 56.49
-3 10 4 1.4 39.6
3 7 -4 85.69 26.1
-3 10 4 -1.2 34.4
-10 3 -4 56.49 31.6
-10 7 4 59.99 20.6
-7 10 -4 95.99 26
-10 7 4 43.2 33.9
-2 -8 4 96.09 25.9
2 8 4 12.6 35.7
-2 10 -4 119.59 26.5
2 -10 -4 85.59 25.7
-10 2 4 84.99 22.2
-8 10 4 28.6 37.6
-10 8 -4 107.69 24.1
-10 8 -4 133.29 26
-10 8 -4 -0.3 33.3
-8 -2 -4 126.69 32.1
-8 -2 -4 59.69 20.5
-8 -2 4 61.89 22.3
-10 2 -4 36.4 29.1
2 8 -4 134.09 27.2
-8 10 -4 156.88 26.3
-10 2 -4 173.58 30.3
-10 8 4 23.8 30.2
2 -10 4 92.79 23.7
-10 8 4 108.49 22.3
-2 10 4 -12 42.6
-10 9 -4 66.29 24.7
-9 10 4 37.1 18.5
-1 -9 4 61.79 22.2
1 -10 -4 57.39 23.5
-10 1 4 64.69 22
-10 9 -4 83.29 24.2
-1 10 -4 125.69 30.4
-9 10 4 -8.9 41.1
-9 -1 -4 81.59 31.3
-10 1 -4 81.29 28.7
1 -10 4 39.3 23
-10 9 4 -3.9 35.6
-9 -1 4 76.79 22.6
-1 -9 -4 50.39 22.5
-9 10 -4 67.29 25
1 9 -4 69.39 26.9
-10 9 4 61.89 21.6
0 -10 4 -9.3 17.7
-10 10 -4 10.2 18.8
-10 10 -4 19 22.5
-10 10 4 24.9 20.8
0 -10 -4 4.3 20
-10 0 -4 3.3 25.2
0 10 -4 19 22.7
-10 0 4 13.2 17.6
-11 5 4 60.49 20.8
6 5 -4 104.09 27.6
-5 11 -4 1.9 47.8
-5 -6 4 38.3 23
-5 11 -4 58.29 23.2
-6 -5 -4 16.5 18.6
-11 6 -4 53.79 21.3
-6 11 4 -26.6 45.8
-11 6 -4 52.49 21.2
-6 -5 -4 39.4 22.5
-11 6 -4 -3.6 30.8
-5 -6 -4 52.99 22.5
-6 11 -4 -3.9 30.8
-11 5 -4 -7 30.6
-11 5 -4 58.29 22.5
-5 11 4 -20.1 43.3
5 6 -4 71.69 24.7
-6 -5 4 47.4 23.8
-6 11 -4 54.89 21.6
-11 6 4 53.89 20.7
-11 7 -4 250.97 34.7
-7 -4 -4 231.38 37.8
-11 4 4 263.77 34.4
-11 7 -4 282.47 36.6
-4 -7 4 234.78 34.6
-4 11 -4 281.77 36.2
7 4 -4 304.67 36
-7 -4 -4 276.47 43.5
-7 11 -4 256.77 37.2
-7 -4 4 223.28 43.4
-4 -7 -4 238.28 42.8
-7 -4 4 251.57 34.8
-11 4 -4 243.78 36.8
-11 7 4 210.68 33.5
4 7 -4 237.68 38.2
-11 3 4 73.69 24.4
-11 8 -4 88.59 24.8
-3 11 -4 89.89 27.2
-3 -8 4 103.69 26.6
3 -11 -4 76.89 23.3
-8 -3 -4 50.69 22.5
-8 -3 -4 65.79 26.3
-11 8 -4 72.69 23.7
-3 -8 -4 83.49 25.8
3 8 -4 100.29 28.9
-8 -3 4 107.49 25.1
-8 -3 4 60.69 24
-11 8 4 81.29 23.1
-11 3 -4 74.69 25
-8 11 -4 113.09 27.5
3 -11 4 30.8 20.1
-11 2 4 103.59 26
-2 11 -4 130.49 31
-11 9 -4 93.89 24.6
2 -11 -4 129.79 27.7
-9 -2 -4 82.19 22.1
-2 -9 4 97.49 24
-11 9 -4 95.39 25
-9 -2 -4 100.99 30.6
-9 -2 4 152.78 27.7
-11 9 4 104.59 25.1
2 -11 4 91.49 25.2
-11 2 -4 149.49 33.2
-9 11 -4 132.19 29.4
2 9 -4 149.19 31.7
-2 -9 -4 99.19 27
-1 11 -4 24.7 23.1
-10 -1 -4 47.8 26.8
-11 10 -4 27 21.6
-11 10 -4 30.7 22.5
-10 11 4 34.8 20.9
-11 1 4 31.2 22.3
1 -11 -4 34.3 20.4
-1 -10 4 24.5 21.3
1 -11 4 43.7 22.2
-10 -1 4 56.79 22.3
-11 1 -4 52.09 25.8
-11 10 4 19.4 21.7
1 10 -4 58.49 28.3
-10 11 -4 51.29 24
-1 -10 -4 35.1 19.6
-11 11 4 199.28 34.1
0 -11 -4 119.79 26.5
-11 0 -4 252.87 41.5
-11 11 -4 159.58 29.7
0 -11 4 163.98 30.2
0 11 -4 258.87 39.2
-11 0 4 213.98 32.5
-6 -6 -4 6.6 21.2
-12 6 -4 6.8 21.1
-12 6 -4 7.9 20
6 6 -4 4.7 22.2
-6 12 -4 7.5 22
-6 -6 4 9.6 21.3
-12 6 4 -13.5 18.7
-6 -6 4 10.6 20.5
-5 12 -4 212.88 33.4
-12 7 -4 146.29 28.5
-12 7 -4 100.59 24.5
-7 -5 -4 123.09 28.1
-7 -5 -4 91.59 25.7
7 5 -4 179.68 30.7
-12 5 4 196.98 30.2
-5 -7 4 160.08 29.4
-12 5 -4 210.48 33.1
-7 -5 4 205.48 31.1
-7 -5 4 130.89 28.2
5 7 -4 226.58 35.2
-12 7 4 110.79 24.6
-5 -7 -4 164.08 30.8
4 -12 -4 77.69 23.7
-12 8 -4 112.79 25.7
-12 8 -4 111.19 27
-8 -4 -4 105.49 27.1
-12 4 4 86.19 25
-12 4 4 162.68 28.7
-4 12 -4 152.88 30.9
-4 -8 4 144.49 27.7
-8 -4 -4 66.19 25.3
-8 -4 4 147.89 29.9
-8 -4 4 228.88 32.8
4 8 -4 220.38 35.5
-8 12 -4 174.58 31.6
-12 4 -4 247.18 37.3
-12 8 4 202.88 30.6
-4 -8 -4 177.98 30.8
-12 9 -4 0 21.6
-12 3 4 8.2 21.6
-9 -3 -4 6.8 26.4
-3 -9 4 11.2 19.8
-3 12 -4 15.1 24.8
-12 9 -4 7.1 21
3 -12 -4 12.6 19.9
-9 -3 -4 2 20.6
3 -12 4 13.8 18.8
-9 12 -4 4 24
-3 -9 -4 20.5 20.4
-12 9 4 19.4 19.3
-12 3 -4 11.8 22.1
-9 -3 4 15.9 21.2
3 9 -4 13.8 25.1
-9 -3 4 5.8 20.6
-2 12 -4 132.39 32.8
-10 -2 -4 104.79 32.5
-12 10 -4 82.29 26.9
-2 -10 4 95.69 26
-12 2 4 72.79 25
2 -12 -4 69.19 23.5
-12 10 -4 72.79 24.9
-10 -2 4 38.9 21.6
-12 2 -4 33.3 24.5
-12 10 4 29.7 22.6
-10 -2 4 -4.6 19.9
2 -12 4 25.3 22.2
-10 12 -4 44.3 22.9
2 10 -4 27 23.6
-2 -10 -4 22.8 18.4
-11 -1 -4 360.36 48.2
-12 1 4 317.37 41.3
-11 12 4 289.07 40.3
-1 12 -4 372.96 48.1
-12 11 -4 346.57 44
-1 -11 4 315.77 45
1 -12 -4 347.37 47.5
1 11 -4 430.76 51.29
1 -12 4 385.96 47.9
-12 1 -4 414.36 52.19
-12 11 4 339.07 44.7
-11 12 -4 373.16 46.3
-1 -11 -4 367.36 47.3
-11 -1 4 381.16 44
-12 0 -4 32.6 28.7
-12 0 4 19.6 23.1
0 12 -4 34.4 28
-12 12 -4 45 27.2
0 -12 -4 30.3 20.5
0 -12 4 25.7 21.9
-12 12 4 29.1 23.7
-6 -7 4 32.4 22.4
-7 -6 -4 33.3 22.5
-13 6 4 45.4 22.8
-7 -6 -4 -5.9 18.7
-13 7 -4 27.5 23.2
-13 7 -4 1.8 21
-6 -7 4 40.3 23.6
-6 13 -4 53.39 25.7
7 6 -4 9.4 22.5
-13 7 4 5.1 20
-7 13 -4 16.4 23.6
-7 -6 4 17 20.2
-13 6 -4 -1 21.8
-6 -7 -4 10.5 22.1
-7 -6 4 17.5 22.8
-13 6 -4 11.3 22.6
6 7 -4 2.3 24.7
-8 -5 -4 94.19 26.9
-5 -8 4 157.18 30
-13 5 4 75.99 22.9
-5 13 -4 104.09 26.2
-13 8 -4 108.19 27.2
-13 5 4 144.99 28.9
-5 -8 4 97.79 25.5
-13 8 -4 98.39 25.7
-8 -5 -4 101.39 27.3
-8 13 -4 88.79 26.3
-13 5 -4 96.49 26.9
-8 -5 4 71.69 25.1
-13 8 4 80.49 23.3
5 8 -4 93.79 27.6
-8 -5 4 129.79 26.9
-5 -8 -4 121.99 27.7
-13 9 -4 194.58 32.2
-9 -4 -4 162.98 33.2
-13 4 4 122.99 27.7
-4 -9 4 122.69 26.5
-9 -4 -4 135.19 28.8
-13 9 -4 134.89 27.7
4 -13 -4 103.89 25.2
-13 4 4 183.08 29.5
-13 9 4 96.19 24.6
-9 13 -4 178.88 33
-9 -4 4 148.89 27.9
-9 -4 4 105.19 26.4
4 9 -4 157.08 33.2
-13 4 -4 187.68 36.4
-4 -9 -4 136.69 28.6
-13 3 4 386.06 43.9
-10 -3 -4 409.16 49.4
3 -13 -4 321.27 47.5
-13 10 -4 322.37 42.4
-10 -3 -4 323.87 45.6
-3 13 -4 384.76 48.5
-13 10 -4 376.16 44.2
-3 -10 4 384.36 50.99
-13 10 4 434.26 46.4
-13 3 -4 486.15 54.19
3 10 -4 461.55 52.69
-3 -10 -4 458.85 51.59
-10 13 -4 401.36 47.9
-10 -3 4 440.06 44.4
-11 13 4 15.6 19.6
-13 11 -4 -0.8 18.5
-11 -2 -4 53.09 29.7
2 -13 -4 25.5 21.1
-2 -11 4 14.2 22.5
-2 13 -4 52.19 29.2
-13 11 -4 25.2 25.7
-13 2 4 -1.2 22.2
-2 -11 -4 29.7 20.2
-13 11 4 33.7 23.8
2 -13 4 18.8 19.7
-13 2 -4 32.9 28.6
-11 13 -4 54.99 27
2 11 -4 49.99 28
-11 -2 4 58.29 24.4
-13 1 4 185.28 33.3
-1 -12 4 233.08 35.5
-12 -1 -4 148.49 33.8
-1 13 -4 251.47 42.4
1 -13 -4 185.48 32.1
-13 12 -4 253.57 38.7
-12 13 4 147.79 29.2
-1 -12 -4 232.78 41.7
1 -13 4 223.78 34.6
1 12 -4 200.18 37.3
-12 13 -4 293.07 41.5
-13 12 4 239.68 35.9
-12 -1 4 197.48 36.7
0 13 4 0.8 17.2
-13 0 -4 -18 15.9
13 -13 -4 5.3 14.2
-13 13 4 27.7 24.6
0 13 -4 54.59 31.6
-13 0 -4 40.6 30.3
-13 0 4 34.3 24.4
0 -13 4 23.6 23.7
0 -13 -4 34.9 21.5
13 0 -4 5.8 14.6
-13 13 -4 27.9 27.9
-7 -7 4 0.7 21.6
7 7 -4 -16.3 23.8
-14 7 4 4.9 20.1
-14 7 -4 2.4 22.5
-7 -7 4 2.5 22.1
-14 7 -4 -11.9 21.7
-7 -7 -4 5.8 20.7
-7 14 -4 2.9 21.7
-14 6 4 229.38 38.8
-14 8 -4 248.38 39.5
-6 14 -4 262.07 41.6
-6 -8 4 259.57 45.8
-8 -6 -4 237.18 45
-6 -8 4 263.17 40.3
-14 8 -4 229.98 36.4
-14 8 4 196.08 31.3
-14 6 -4 211.38 35.5
-8 14 -4 180.58 31.8
-6 -8 -4 185.18 31.9
-8 -6 4 187.68 32.5
6 8 -4 181.48 34
-14 6 -4 112.09 29.6
-8 -6 4 265.07 38.2
-9 -5 -4 170.98 32.4
-5 -9 4 232.88 44.3
-14 9 -4 232.08 39.2
-14 5 4 167.88 30.4
-9 -5 -4 184.68 32.7
-14 9 -4 134.09 29.5
-5 -9 4 161.88 30.8
-5 -9 -4 353.06 48
-9 -5 4 298.17 48.6
-9 14 -4 305.57 43.9
-14 5 -4 345.87 47.3
-14 9 4 266.57 40.2
-9 -5 4 336.87 42.5
5 9 -4 298.27 46.2
-14 10 -4 264.27 37.8
-10 -4 -4 193.28 35.8
-4 -10 4 179.68 32.6
-14 4 4 238.68 40.2
-14 4 4 226.78 38.9
-4 14 -4 192.08 35.1
-14 10 -4 225.28 39.1
-10 -4 -4 254.37 43.9
-4 -10 4 259.17 46.5
4 10 -4 304.27 43.4
-10 -4 4 258.27 40.2
-14 10 4 234.28 39.4
-14 4 -4 229.28 39.7
-4 -10 -4 265.97 43.9
-10 14 -4 237.38 42
-14 3 4 364.96 45.6
-14 11 -4 367.46 46.7
-3 -11 4 241.18 40.8
-3 -11 4 383.76 53.09
3 -14 -4 306.07 46.4
-3 14 -4 395.06 50.59
-11 -3 -4 360.36 49
-14 3 4 361.56 47.4
-14 11 4 317.77 46.8
-14 3 -4 428.86 52.69
3 11 -4 365.36 51.39
-3 -11 -4 370.76 48.9
-11 14 -4 373.56 49.3
-11 -3 4 382.46 45.7
-12 -2 -4 45.9 28.1
-12 14 4 3.8 20.6
12 2 -4 11.6 16.5
2 -14 -4 11.2 19.6
-14 2 4 11.9 23.6
14 -12 -4 26.2 18.9
-2 14 -4 1.4 15.5
-2 14 -4 41.1 31.6
2 12 4 1.9 19.6
-2 -12 4 29.7 22.7
-14 12 -4 2.8 25.1
2 -14 4 -2.9 20.3
-2 -12 -4 39.5 21.6
-12 14 -4 28.2 29.6
-14 2 -4 -7.5 19.8
-12 -2 4 50.19 25.4
-14 12 4 21 24.8
-12 14 -4 -2.8 14.4
-2 14 4 18.8 19.6
2 12 -4 6.2 28.7
14 -2 -4 17.6 16.7
-14 2 -4 32.1 29.2
-13 14 4 107.79 27.9
14 -13 -4 126.79 24.6
-14 13 -4 159.78 35.7
13 1 -4 111.19 22.6
-13 -1 -4 199.68 39.9
-1 14 -4 88.39 22.4
-1 -13 4 120.89 29.7
-14 1 4 123.79 30.5
-1 14 -4 166.68 37.8
1 -14 -4 91.19 24.7
1 13 4 186.88 31.6
-1 -13 -4 99.99 25.5
-14 13 4 111.29 30.8
1 -14 4 82.89 25.1
13 -14 -4 79.79 22.6
-13 -1 4 79.29 26.1
14 -1 -4 133.39 24.1
-14 1 -4 98.99 25.5
-14 1 -4 124.49 34.6
1 13 -4 57.09 20.1
-13 14 -4 132.69 33.8
-13 14 -4 106.59 21.4
-1 14 4 103.29 25.6
1 13 -4 146.29 38.7
0 14 -4 43.6 32.5
0 -14 4 26.5 23.6
-14 14 -4 59.89 31.2
-14 14 4 47.2 26.1
0 -14 -4 42.6 22.5
14 0 -4 39.2 21.2
-14 0 -4 90.39 33.8
0 14 4 65.69 26.9
-14 0 -4 30.8 21.3
14 0 -4 11.3 19.1
14 -14 -4 44.7 23.6
-14 14 -4 53.79 21.8
0 14 -4 42.6 23
-14 0 4 52.49 26.3
-7 -8 4 68.39 26.5
-7 15 -4 77.19 28.3
-8 15 4 9.5 18.5
-7 -8 4 51.99 25.2
-15 8 -4 76.89 28.9
-8 -7 -4 69.09 24.8
-15 8 -4 64.79 28
-15 7 4 55.09 24.6
-15 7 -4 1.9 24.8
-7 -8 -4 18.9 22.6
-8 15 -4 38 25
15 -8 4 -10.2 13.7
7 8 -4 17.1 27.8
-8 15 -4 7 15.7
8 -15 -4 -4.6 14.7
15 -7 -4 2.5 13.8
-8 -7 4 32.8 25.3
-15 8 4 24 22.9
-8 -7 4 -3.6 20.9
-7 15 4 8.7 17.6
-15 7 -4 35.6 25.6
-6 -9 4 45 25.3
9 -15 4 3.6 13.5
-6 -9 4 46.1 24.9
-15 6 4 31.2 26.2
15 -6 4 0 12.7
-15 9 -4 21.4 24.2
-15 9 -4 20.9 25
15 -9 -4 14.2 17.2
-6 15 -4 11.7 25.5
-9 -6 -4 36.3 24.1
-9 -6 -4 7 22.6
-6 15 -4 1.3 16.2
-9 -6 4 61.59 26.5
-6 15 4 10.1 17.9
15 -9 4 -2.4 14
15 -6 -4 15.4 14.1
-9 15 -4 58.09 29.2
-9 -6 4 9.5 21.7
-6 -9 -4 34.9 23.3
-15 9 4 37.7 22
-9 15 -4 21.1 16.8
6 9 -4 24.2 27.5
-15 6 -4 -6.2 23.4
9 -15 -4 0.8 15.2
-15 6 -4 22.3 26.4
-15 5 4 117.69 29.4
-10 -5 -4 77.09 25.4
-10 -5 -4 92.09 29
5 10 4 46.8 22
-5 -10 4 104.89 29.1
-5 15 -4 88.99 21.1
-15 10 -4 93.69 28.4
-5 -10 4 149.49 31.4
-15 10 -4 100.89 28.9
10 -15 4 79.19 17.9
-15 5 4 56.79 24.2
15 -10 -4 82.99 21.1
-5 15 -4 102.99 30.3
-10 15 -4 147.59 23.9
-5 -10 -4 149.49 29.9
5 10 -4 185.98 40.9
-10 -5 4 103.99 27.8
-15 10 4 192.28 33.3
-10 -5 4 176.48 32.3
-10 15 -4 137.99 30.6
-15 5 -4 186.78 39
-5 15 4 97.19 23.8
-15 4 4 85.19 29.6
-4 15 -4 70.59 21.3
15 -11 -4 102.89 25.3
-15 11 -4 93.09 29.9
-4 -11 4 43.2 24.1
15 -11 -4 61.19 21.3
4 11 4 97.49 27.6
-4 15 -4 137.19 35.5
11 -15 4 25.7 15.3
11 4 -4 86.29 22.1
-11 -4 -4 98.49 29.8
-15 4 4 49.7 26.4
-4 -11 4 107.29 28.9
-15 4 -4 53.39 22.7
-11 15 -4 105.49 23.3
-11 -4 4 91.79 28
4 11 -4 61.99 31.3
-15 11 4 84.39 27.4
4 11 -4 26.5 17.9
-4 -11 -4 93.69 26.8
-11 15 -4 66.19 27.2
-15 4 -4 104.49 34.8
15 -4 -4 80.59 20
-4 15 4 114.69 26.3
-15 3 4 63.49 28.5
-3 15 -4 83.09 25.1
3 12 4 94.99 28.8
-15 3 4 88.59 30.6
-12 -3 -4 76.59 30.3
-15 12 -4 86.39 31.3
-3 15 -4 58.39 29
15 -12 -4 56.89 22.8
3 -15 -4 57.79 22.6
-3 -12 4 65.49 27.2
12 3 -4 102.09 26
15 -3 -4 46.9 21.1
-12 -3 4 68.99 28.3
3 12 -4 27.4 30.8
15 -3 -4 73.39 21.9
-15 3 -4 82.79 33.8
12 -15 -4 6.6 21
-12 15 -4 54.49 29.6
-3 15 4 54.99 24.4
-15 12 4 20.1 25.9
-15 3 -4 36.1 21.9
-12 15 -4 65.99 21.3
-3 -12 -4 71.49 24.5
3 12 -4 72.59 23.4
2 -15 -4 81.59 24.6
-13 -2 -4 193.78 39.6
-2 15 -4 135.49 37.1
-2 15 -4 198.28 29.2
-15 2 4 224.38 40.2
15 -13 -4 139.39 27.1
-15 2 4 108.79 30.2
-15 13 -4 125.19 22
-15 13 -4 145.19 35.2
13 2 -4 137.59 25.3
-13 -2 -4 143.69 25.1
-2 -13 4 82.69 26.4
2 13 4 219.48 34.9
2 13 -4 135.89 39.5
-13 -2 4 113.29 30.4
15 -2 -4 132.99 26.3
-15 13 4 103.89 30.2
-13 15 -4 170.88 27.7
-15 2 -4 177.68 38.5
-2 -13 -4 137.99 29.9
-2 15 4 159.58 30.4
13 -15 -4 150.58 29.3
15 -2 -4 190.78 26.8
-13 15 -4 136.39 33.8
-15 2 -4 151.68 27.4
2 13 -4 86.79 25
-14 -1 -4 38.1 29.7
15 -14 -4 12.8 21.7
1 -15 -4 29.4 21.7
-1 15 -4 20.6 22.9
-15 1 4 35.2 27.2
-15 14 -4 40.2 22.8
1 14 4 32.7 27.6
-1 -14 4 -4 22.6
14 1 -4 26.7 21.9
-15 14 -4 30.9 28.4
-14 15 4 -9.1 22.2
-14 -1 -4 13.6 20.5
-1 15 -4 31 32
14 1 -4 24.7 23.4
-15 14 4 6.3 24.2
-1 -14 -4 16.8 20.4
15 -1 -4 19.5 22.4
-15 1 -4 10.6 21.1
1 14 -4 18.3 32.4
-14 -1 4 27.3 25.4
15 -1 -4 15.6 21.8
1 14 -4 12.8 23.1
-14 15 -4 37.8 22.2
-14 15 -4 18.4 29.1
14 -15 -4 18.2 23.7
-1 15 4 26 26.7
1 -15 4 -16.9 22.9
-15 1 -4 50.39 32.7
0 15 -4 16.1 22.7
-15 15 4 -3.5 24.1
-15 0 4 26 26.1
-15 15 -4 9 22
15 0 -4 22.4 23.3
-15 15 -4 35.1 31.5
0 15 -4 42.1 35.8
15 -15 -4 3.8 23
0 15 4 41.3 25.8
0 -15 4 3.1 24.6
-15 0 -4 22.1 21.3
-15 0 -4 53.09 29.7
0 -15 -4 31.2 22.5
15 0 -4 34.1 21.8
8 -16 -4 18.6 20.9
-8 -8 4 -1.3 23.5
-8 16 -4 38.5 23.4
-16 8 -4 18.5 27.4
16 -8 -4 41 22.6
8 8 -4 24.6 21.3
-8 -8 -4 23.8 23.2
-8 16 -4 21.5 26.3
-8 16 4 20.2 25
-16 8 -4 9.8 26.9
-16 8 4 16 23.9
8 8 4 26.5 26.1
16 -8 4 26.3 19.8
-8 -8 4 24.3 27.8
8 -16 4 23.3 20.1
9 -16 4 299.57 37
7 -16 -4 286.07 36.2
7 9 4 318.97 46.8
-9 16 4 329.27 47.6
-7 16 -4 320.17 38
-7 -9 4 283.17 44.8
16 -9 -4 329.37 40.1
-7 16 -4 301.27 47.6
-9 -7 -4 254.77 48.7
16 -7 4 330.07 38.9
-16 9 -4 268.57 45
9 7 -4 283.07 37.8
-16 7 4 258.47 43.6
-16 9 -4 247.68 41
-16 9 4 240.28 42.9
-7 -9 -4 303.37 47.9
-9 -7 4 333.37 51.69
9 7 4 327.47 41.8
16 -9 4 292.77 40.2
16 -7 -4 318.47 39.4
7 9 -4 302.17 46.2
-7 16 4 323.97 48.2
-16 7 -4 291.37 46.9
7 -16 4 340.47 39.2
7 9 -4 313.27 37.7
9 -16 -4 305.07 40
-9 -7 4 371.16 47.1
-9 16 -4 328.27 39.3
-9 16 -4 345.97 48.4
6 -16 -4 53.19 19.9
16 -6 4 65.39 22.6
16 -10 -4 55.99 22.5
-6 16 -4 103.49 34.1
-16 10 -4 58.79 28.5
-6 -10 4 46.5 25.2
6 10 4 88.79 30.4
16 -10 -4 123.39 26.5
10 6 -4 86.09 24.8
-16 10 -4 60.39 27.5
-10 -6 -4 16.8 22.4
-10 -6 -4 50.29 23.7
-16 6 4 44.5 26.1
-6 -10 4 46.2 24.4
-6 16 -4 88.89 23.3
10 -16 4 108.99 22.6
6 10 -4 48.1 22
-6 16 4 73.19 26.1
-10 -6 4 80.69 29.1
16 -10 4 90.19 23.2
-10 16 -4 104.39 26.7
10 6 4 59.19 24.5
-10 -6 4 49.7 26.2
-16 6 -4 83.49 32.7
-10 16 -4 65.69 29
-16 10 4 91.89 29.3
6 -16 4 65.49 20.1
10 -16 -4 102.99 24.6
-16 6 -4 77.89 23.3
16 -6 -4 67.59 22.4
6 10 -4 68.99 34.2
-6 -10 -4 69.09 25.2
-16 5 4 368.66 51.99
11 -16 4 441.86 42.6
5 11 4 476.55 53.49
5 -16 -4 309.97 36.5
16 -5 4 400.06 40.5
-5 16 -4 329.97 51.29
-11 -5 -4 291.97 44.8
16 -11 -4 430.06 44.4
16 -11 -4 385.46 46.7
-16 11 -4 313.37 49
-5 16 -4 447.66 43.1
11 5 -4 407.46 43.1
-5 -11 4 437.56 56.39
-11 16 -4 352.46 50.19
11 -16 -4 428.66 44.8
16 -5 -4 376.66 43.3
-11 -5 4 407.66 49.6
-16 5 -4 379.46 55.99
-11 16 -4 446.46 44.3
-16 11 4 334.17 49.3
-5 16 4 412.56 46.4
-16 5 -4 395.46 42.7
5 11 -4 417.96 42.4
16 -11 4 374.96 42.3
11 5 4 295.87 40.9
-5 -11 -4 371.56 50.99
16 -4 4 318.17 37.7
16 -12 -4 357.06 45.1
-16 4 4 331.17 51.29
12 4 -4 366.76 43
-4 -12 4 347.87 54.39
12 -16 4 373.46 41
-16 4 4 268.87 44.4
-12 -4 -4 268.57 47.1
-4 16 -4 420.06 42.4
4 12 4 429.56 50.29
-16 12 -4 309.97 51.49
-16 12 4 312.77 46.3
-4 16 4 354.76 44.9
12 4 4 258.67 39.3
12 -16 -4 339.77 40.1
12 -16 -4 329.67 42.8
-12 16 -4 342.07 39.7
-16 4 -4 318.17 54.79
16 -12 4 317.77 43
16 -4 -4 288.37 41.6
-4 -12 -4 310.37 47.1
-12 16 -4 329.47 49.3
4 12 -4 342.37 41.2
4 12 -4 225.38 45.9
-12 -4 4 341.57 45.8
-16 4 -4 354.86 40.9
-16 13 -4 40.2 20.9
-3 -13 4 36.7 26.8
3 13 4 63.29 29.9
-13 -3 -4 66.49 29.3
-3 16 -4 51.09 33.3
13 3 -4 59.69 24.6
13 -16 4 41.2 20
-16 3 4 55.09 30.9
-3 16 -4 50.69 22.8
-16 13 -4 46 31.8
16 -13 -4 38.6 22.3
-16 3 4 38.9 27
3 -16 -4 0.6 18.6
16 -3 4 39.1 18.1
13 3 -4 56.39 24.8
-13 -3 -4 37.2 20
13 3 4 60.89 22.9
13 -16 -4 81.59 29.8
-16 3 -4 101.29 26.2
-3 -13 -4 103.09 27
16 -3 -4 86.59 25.1
16 -13 4 91.19 26.4
-13 -3 4 42.8 25.8
3 13 -4 79.09 38.1
3 13 -4 52.69 24.4
-16 13 4 72.39 29.5
-3 16 4 55.39 25.4
-13 16 -4 86.39 25.3
-16 3 -4 126.69 37.7
-16 13 4 62.59 19.2
-13 16 -4 65.49 29.1
13 -16 -4 55.59 21.4
-16 2 4 162.88 34.9
-16 2 4 295.77 45
16 -14 -4 265.57 39.4
-14 -2 -4 279.87 36
14 -16 4 208.38 32.9
14 2 -4 245.98 34.5
-2 16 -4 199.78 40.6
-16 14 -4 188.68 39.3
2 14 4 299.57 44.8
-16 14 -4 271.97 37.1
-2 -14 4 224.98 37.9
-14 -2 -4 261.77 46.7
14 2 -4 243.08 36
-2 16 -4 292.57 38.2
-14 16 -4 143.19 35.4
-16 2 -4 169.78 39.8
2 -16 4 84.69 28.6
16 -14 4 210.78 30.2
14 -16 -4 251.77 33.9
-14 -2 4 133.29 31.4
2 14 -4 248.08 31.5
16 -2 -4 216.48 31.1
-16 14 4 132.69 32.3
2 14 -4 153.88 39.6
14 2 4 172.38 29.3
-2 -14 -4 233.38 42.9
-16 14 4 137.39 23.2
-1 -15 4 -26.1 24.2
-1 16 -4 6.3 30.6
-16 15 -4 1.4 21.7
-1 16 -4 7.7 22.6
1 -16 -4 22 19.5
-15 -1 -4 8.2 19.8
-15 -1 -4 4.8 27.8
-16 1 4 10.5 27.6
1 15 4 21 26.5
-16 1 4 -3.4 25.7
16 -15 -4 -8.1 20.1
15 -16 4 -14.9 13.2
15 1 -4 -7 20.1
-16 15 -4 -4.4 30.2
15 1 -4 4.4 23.8
16 -15 4 -4.2 17.6
-1 -15 -4 13.3 20.7
1 15 -4 15.6 22.4
-16 1 -4 29 21.1
16 -1 -4 3.9 19.3
-15 -1 4 29.1 27.3
16 -1 -4 10.2 23.8
1 15 -4 9.7 33.2
-1 16 4 9.1 24.5
-15 16 -4 36.3 31
-16 15 4 -9.3 22.3
-15 16 -4 20.3 21
15 -16 -4 13.9 23.2
-16 1 -4 29.8 31.7
15 1 4 14.9 22.1
1 -16 4 -28.6 21.3
-16 15 4 3.6 16.2
-16 16 -4 43.9 22
16 0 -4 15.9 24.7
-16 0 -4 28.9 20.4
0 16 -4 20.3 21.3
16 -16 -4 7 20.2
-16 16 4 -2 13.7
0 16 -4 3.9 32.8
16 0 -4 36.9 19.4
0 -16 4 -15.5 24.2
0 -16 -4 28.4 20.4
0 16 4 40.6 26.7
-16 0 4 1.7 24.1
-16 0 4 43.1 29.3
-16 0 -4 29.2 29.8
16 0 4 31.7 23.1
-16 16 -4 3.7 29.5
9 -17 4 60.19 21.4
9 8 -4 19.6 21.9
17 -9 -4 67.09 24.9
-8 -9 4 -1.5 24.6
-17 8 4 18.4 23.9
17 -9 -4 9.8 21.4
8 9 4 42.8 29.1
17 -8 4 62.59 24.2
-8 17 -4 46.8 29.4
-8 17 -4 56.69 24.1
-17 9 -4 49.2 27.5
8 -17 -4 63.49 20.8
-8 -9 4 47.1 28.2
-9 17 4 32.8 27.4
-17 9 -4 4.8 27.9
-9 -8 -4 35.6 24
17 -9 4 57.69 23.3
-9 -8 4 18.3 25.6
-9 17 -4 58.09 30.2
9 -17 -4 62.39 21.3
9 8 4 57.89 28.3
-9 17 -4 50.49 22.8
17 -8 -4 58.09 23.3
-17 8 -4 44.1 18.5
-17 9 4 46.5 26.2
8 -17 4 45.1 22.7
-8 -9 -4 40.9 24.5
-17 8 -4 29.4 28.7
-9 -8 4 28.7 26.6
-8 17 4 39.1 28.1
8 9 -4 49.2 24.2
10 7 -4 11 22.2
7 -17 -4 28.2 19.3
7 10 4 14.2 29.9
-17 10 -4 4.5 26.7
17 -10 -4 36.3 24.1
-7 -10 4 5 25
-17 7 4 10.9 24.3
-7 -10 4 7.8 24.8
17 -10 -4 18.5 27.1
-10 -7 -4 16.6 22.4
-10 17 4 24.3 26.9
10 -17 4 29.6 20.3
-7 17 -4 25.5 20.9
-17 10 -4 0.5 24.2
17 -7 4 26.3 21.4
-7 17 -4 18.3 29.7
7 10 -4 8.9 21.4
-17 10 4 6.9 24.5
-7 -10 -4 37.4 23.4
-17 7 -4 4.6 20
-17 7 -4 21.7 29
-10 -7 4 -10.2 23
10 7 4 3.3 25.5
17 -7 -4 25.8 21.2
-10 17 -4 39.8 23.7
10 -17 -4 34.3 20.9
-7 17 4 22.3 25.9
17 -10 4 25.6 22
7 -17 4 19.3 20.7
-10 -7 4 29.1 27.5
-10 17 -4 8.7 26.3
-17 6 4 33.3 26.1
17 -11 -4 81.99 26.5
-17 11 -4 -4.4 15.1
-6 -11 4 -2.8 24.1
-11 -6 -4 1 20.3
11 6 -4 38.4 22.9
17 -6 4 47.9 22
6 11 4 78.99 31.3
-17 11 -4 42 29.1
-6 17 -4 94.29 33.5
17 -11 -4 67.99 25.1
11 -17 4 88.39 23.2
11 6 -4 0.9 26.6
-6 17 -4 50.59 22.5
6 -17 -4 57.69 20.8
-6 -11 4 4.7 24.4
-11 -6 -4 -3.1 35.5
11 -17 -4 91.89 22.3
-17 6 -4 180.38 29.5
6 11 -4 176.38 29.2
-6 -11 -4 86.49 26.3
17 -11 4 134.09 26.4
6 11 -4 90.49 37
11 6 4 116.89 29.2
17 -6 -4 113.79 25.1
-6 17 4 137.99 29
6 -17 4 162.78 25.9
-11 17 -4 188.68 29.7
-11 -6 4 155.38 35.4
-17 6 -4 108.39 35.5
-11 17 -4 92.09 31.7
-17 11 4 112.19 31.5
12 5 -4 21.9 22.3
-12 -5 -4 17.6 23.6
17 -5 4 16.9 21.3
-5 17 -4 29 22.3
-17 12 -4 21.2 19
-12 -5 -4 -10.9 12.5
-17 5 4 51.39 31.6
-17 12 -4 26.8 29.5
-5 -12 4 33.3 26.5
12 5 -4 21 22.1
5 12 4 51.99 30.8
17 -12 -4 39 24.3
17 -12 -4 27 24.2
-5 17 -4 49.3 32.3
12 -17 4 62.09 22.1
5 -17 -4 16.2 18.5
17 -5 -4 68.99 23.5
12 -17 -4 66.19 22.2
-17 5 -4 56.19 23.5
-12 -5 4 63.69 28
-17 12 4 70.99 30.4
12 5 4 69.59 27.9
5 -17 4 67.79 21.5
-17 5 -4 42.2 32.8
-5 17 4 98.99 27.5
-12 17 -4 81.59 24.2
-5 -12 -4 69.09 25.1
-12 17 -4 67.89 33.7
17 -12 4 67.49 24.3
5 12 -4 65.29 25
5 12 -4 21.4 33.9
12 -17 -4 57.69 24.6
-4 17 -4 106.79 25.3
-13 -4 -4 57.99 26.9
-4 17 -4 63.39 33.1
-17 13 -4 85.79 23.8
13 4 -4 82.39 25.4
-17 13 -4 52.99 31.7
4 13 4 132.39 32.9
-4 -13 4 63.19 29.9
17 -4 4 60.39 23.8
13 -17 4 120.49 24.3
4 -17 -4 72.69 19.5
17 -13 -4 81.99 24.2
-17 4 4 80.09 33.3
13 4 -4 61.09 27.3
-13 -4 -4 40.6 19.4
-13 -4 4 69.49 30.5
4 13 -4 48.1 23
13 4 4 27.3 25.6
-17 4 -4 73.99 36.5
13 -17 -4 49.99 26.7
-17 13 4 84.79 23.2
-17 13 4 44.3 28
17 -4 -4 46.4 24.1
4 13 -4 69.89 37.6
-13 17 -4 54.69 28.6
-4 17 4 50.99 25
13 -17 -4 38.4 21.3
17 -13 4 70.69 26.2
-17 4 -4 22.1 22.4
-4 -13 -4 51.09 24.3
-13 17 -4 75.49 24.4
17 -3 4 52.59 22
17 -14 -4 91.19 25.2
-17 14 -4 58.49 33.7
-14 -3 -4 52.19 20.5
14 3 -4 56.99 21.7
-3 17 -4 64.39 22.6
14 3 -4 77.69 28.8
-17 3 4 34.3 27.2
-3 17 -4 75.19 32.6
-3 -14 4 24.9 26.4
3 14 4 98.59 31
14 -17 4 80.99 22.8
-17 14 -4 79.79 24.1
-17 3 4 64.89 33.1
-17 3 4 47.3 21.4
-14 -3 -4 78.29 30.2
-14 -3 4 38.7 26.7
-17 3 -4 35.4 21.6
3 14 -4 25.9 23.1
14 -17 -4 22 21.3
17 -14 4 39.5 24.9
-14 17 -4 37.7 28
-3 -14 -4 30.7 23.7
17 -3 -4 46.9 24
3 14 -4 65.09 37.7
-17 14 4 17.5 26.5
14 -17 -4 45 29
-14 17 -4 39.7 22.7
-3 17 4 46.5 24.7
-17 3 -4 81.59 36.3
-17 14 4 32.4 21.1
14 3 4 20.5 24.8
15 2 -4 33.4 25.8
-17 2 4 61.49 32.3
15 2 -4 32.1 19.6
-17 15 -4 39.3 21.6
-2 17 -4 22.8 31.8
15 -17 4 48.9 20.3
-17 2 4 32.2 21.5
-15 -2 -4 36.2 28.2
17 -15 -4 34.6 22
17 -2 4 13.6 17.5
-2 -15 4 2.6 25.8
-17 2 4 5.2 24.5
-17 15 -4 30 31
-2 17 -4 57.89 22.8
2 15 4 95.09 30
-15 -2 -4 55.19 21.3
-17 15 4 43.4 20.9
-17 15 4 -5.2 25.2
2 15 -4 19.4 33.7
-2 17 4 58.09 25.9
-17 2 -4 49.1 23.4
17 -2 -4 30.8 23.4
-17 2 -4 31.3 31.8
15 2 4 28.3 24.6
17 -15 4 35.3 24.9
-15 -2 4 50.39 27.8
-2 -15 -4 52.99 24
15 -17 -4 31.3 20.7
2 15 -4 63.59 24.1
-15 17 -4 48.2 22.2
15 -17 -4 49.6 26.9
-15 17 -4 47.9 30.7
16 1 -4 7.9 24.4
-1 -16 4 -15.7 23.7
1 16 4 19 25.4
17 -16 -4 7.4 20.9
-16 -1 -4 7.4 27.1
-16 -1 -4 25.8 20
17 -1 4 16.8 19.8
-17 1 4 5.8 29.1
-16 17 4 -5.5 12.1
-17 1 4 -7.1 19.4
-17 16 -4 -11.5 29
16 -17 4 2.5 15.9
-17 16 -4 -2.7 20
-1 17 -4 18.2 20.3
16 1 -4 -11.1 18.3
-1 17 -4 0.2 31.6
-17 1 4 5.8 24.9
17 -16 4 23.8 24
-17 16 4 12.5 18.8
1 -17 4 -14 26.7
16 1 4 4.2 22.7
17 -1 -4 28.4 23.6
-16 -1 4 25.2 26.7
-1 -16 -4 3.1 19.4
1 16 -4 -0.2 21.3
-16 -1 4 16 30.4
-17 1 -4 18.4 30.4
-16 17 -4 10.4 27.7
-17 1 -4 9.9 20.4
-1 17 4 13.8 24.6
-16 17 -4 17.1 21.1
16 -17 -4 -4.8 22.8
1 16 -4 16 31.4
-17 0 4 14.4 19.5
-17 17 -4 7.4 27.2
-17 17 4 4.3 18.5
17 -17 4 3.8 15
-17 0 -4 -5.9 19
0 17 -4 12.1 20.3
17 -17 -4 -17.5 20.8
17 0 4 18.5 21.9
-17 0 4 13.1 27.7
-17 17 -4 -3.7 19.7
-17 0 4 -6.3 22.3
17 0 -4 -3.4 22.9
0 17 4 20.8 24.3
-17 0 -4 11.8 27.1
9 -18 4 115.29 23
-9 18 -4 79.59 32.8
-9 -9 4 47.4 27.4
9 9 -4 102.09 24.9
9 -18 -4 128.79 23.9
-9 -9 -4 66.39 25
-9 -9 4 52.89 27
9 9 4 119.39 31.6
-9 18 4 173.88 32.7
18 -9 4 100.49 24
-18 9 -4 96.29 21.2
-18 9 4 95.19 30.2
18 -9 -4 53.29 23.6
18 -9 -4 114.29 25.6
-9 18 -4 98.89 23.8
8 10 4 172.28 33.5
18 -8 4 278.87 32.3
-18 8 4 209.58 39.3
-8 18 -4 253.57 31
10 8 -4 184.98 29.5
-8 18 -4 191.68 40.5
18 -10 -4 238.98 31.9
18 -10 -4 191.78 33.7
-10 18 4 166.58 32.4
8 -18 -4 168.68 26
-10 -8 -4 120.29 27.9
-8 -10 4 158.98 36.2
10 -18 -4 238.08 28.2
-8 -10 -4 121.79 30
-18 10 4 151.28 33.9
10 8 4 142.99 30.6
-10 18 -4 202.18 29.1
-10 -8 4 199.18 38.6
-18 8 -4 109.09 33.3
-18 8 -4 194.28 27.7
18 -8 -4 172.68 28.3
8 10 -4 173.78 28.6
18 -10 4 197.68 27.9
-8 18 4 154.08 28.9
-10 18 -4 128.79 34.9
11 -18 4 88.99 22.2
-7 -11 4 48.9 29.3
11 7 -4 12.2 21.5
11 7 -4 77.29 25.4
18 -11 -4 77.79 29.2
-11 18 4 66.89 28.9
18 -11 -4 93.59 25.8
7 -18 -4 52.09 19.6
18 -7 4 77.29 24.4
-7 18 -4 86.39 34.2
7 11 4 71.39 29.7
-18 7 4 69.59 30
-18 11 -4 -5.7 26.4
-7 18 -4 38.3 21.4
-18 11 -4 48.8 19.9
-11 18 -4 138.59 26.1
-7 18 4 140.39 28.3
7 11 -4 149.99 27.4
-18 7 -4 96.59 35.3
7 -18 4 162.38 26
18 -11 4 88.59 24.1
11 7 4 101.19 28.4
-18 11 4 70.39 29.8
-7 -11 -4 90.99 27
18 -7 -4 97.49 25.2
-18 7 -4 88.69 23.4
-11 18 -4 88.29 32.1
-11 -7 4 78.49 29.7
-18 12 -4 65.89 22.4
-12 18 4 118.79 30.7
18 -12 -4 73.19 24.9
6 -18 -4 76.09 20.5
12 6 -4 101.29 27.8
-6 18 -4 72.69 22.8
12 6 -4 109.59 26.6
-18 6 4 82.49 30.1
6 12 4 144.79 33.6
-6 18 -4 92.59 34.9
12 -18 4 157.68 25.3
-18 12 -4 2.3 28.3
18 -12 -4 82.19 26.1
-6 -12 4 36.7 28
18 -6 4 116.09 26.5
-18 12 4 86.49 30.4
12 6 4 87.49 28.5
-18 6 -4 65.69 34.2
-18 6 -4 61.19 22.9
-12 -6 4 48.4 28.3
12 -18 -4 80.99 26.1
-6 18 4 109.49 26.9
18 -6 -4 117.29 26.6
18 -12 4 94.99 24.6
-6 -12 -4 68.39 24.7
6 12 -4 99.29 24.7
-12 18 -4 88.59 23.8
12 -18 -4 49.7 20
6 -18 4 96.79 23.9
-12 18 -4 96.59 34.1
-5 18 -4 125.69 37.8
5 -18 -4 122.39 23.2
18 -5 4 150.48 27.9
-18 5 4 91.09 31.2
5 13 4 141.99 32.1
-13 -5 -4 105.19 21
13 5 -4 157.18 27.5
13 5 -4 105.09 30
-5 18 -4 97.09 23.1
-18 13 -4 115.79 24.4
-5 -13 4 124.19 33.6
18 -13 -4 193.18 29.4
-5 18 4 227.08 30.9
5 13 -4 137.99 27.1
13 -18 -4 133.89 24.1
-5 -13 -4 145.39 30.3
-13 18 -4 123.59 35.3
-18 13 4 93.29 30.4
18 -5 -4 167.68 27.7
5 13 -4 150.08 41.5
13 -18 -4 127.29 28.8
-18 5 -4 170.88 27.8
13 5 4 112.29 28.4
-13 -5 4 189.48 35.7
5 -18 4 150.78 24.5
-18 5 -4 194.88 43.4
18 -13 4 196.38 28.9
14 4 -4 61.29 21.3
-14 -4 -4 63.39 19.3
14 4 -4 67.69 27.5
18 -4 4 67.09 24.2
-4 -14 4 52.99 29.4
18 -14 -4 85.49 24.2
4 14 4 91.59 29.1
-14 -4 -4 -4.2 23.6
-18 14 -4 105.49 24.6
4 -18 -4 48.2 18.6
-18 4 4 44.9 20.1
-18 14 -4 25.3 29.4
-18 4 4 53.69 28.9
-4 18 -4 33.3 31.2
14 -18 4 82.59 21.8
-4 18 -4 65.29 21.6
18 -14 4 80.69 25.6
-18 14 4 93.39 23.1
-18 4 -4 71.59 23.1
4 14 -4 71.89 34.8
-4 18 4 121.09 27.2
18 -4 -4 95.79 24.7
-14 -4 4 96.59 31.8
-14 18 -4 145.59 27.1
-14 18 -4 54.69 30.5
14 4 4 129.29 29.6
-18 4 -4 94.09 36.4
4 14 -4 115.29 24.9
-4 -14 -4 89.99 26.9
14 -18 -4 99.99 23.6
14 -18 -4 87.79 27.5
-15 -3 -4 0.1 22.7
-18 3 4 68.99 32.5
-18 3 4 21.9 19
18 -3 4 35.7 21.5
-3 -15 4 14.3 25.2
-18 15 -4 10.7 28
18 -15 -4 44.6 21.2
15 3 -4 31 26.9
3 15 4 73.49 27.2
-3 18 -4 59.89 21.3
-15 -3 -4 45.4 20.2
15 -18 4 65.09 20.3
-18 15 -4 70.29 23.1
15 3 -4 27.8 19.9
-3 18 -4 38 28.9
-3 18 4 77.29 24.9
3 15 -4 84.99 23.3
-3 -15 -4 64.49 24.1
-15 -3 4 84.29 31.3
3 15 -4 0.9 29.7
-18 15 4 105.09 23
18 -3 -4 76.99 23.7
15 -18 -4 74.19 25.1
-18 3 -4 63.29 35
15 3 4 59.69 25.4
-15 18 -4 77.19 30.5
-15 18 -4 94.09 22.9
18 -15 4 94.39 25.8
15 -18 -4 71.99 22.3
-18 3 -4 108.79 24.4
-16 -2 -4 11.1 17.6
-18 2 4 32.6 29.2
-16 -2 -4 -3.4 23.4
-2 -16 4 -36.1 21.1
16 2 -4 10.7 17.9
-18 16 -4 6 19.5
-18 2 4 5.8 17.6
16 2 -4 6.4 24.5
-18 16 -4 -10.8 28
2 16 4 17.7 26
18 -2 4 -1.3 14.9
16 -18 4 8.7 17
18 -16 -4 8.8 19.8
-2 18 -4 24.7 20.3
18 -2 4 -12.8 15.6
16 -18 -4 5 18.4
16 -18 -4 8.9 22.9
18 -16 4 -1.8 23.7
-16 18 -4 14.4 19.4
16 2 4 0.2 23.1
-16 -2 4 0.8 26.3
-16 -2 4 -9.9 25.4
-2 18 4 20.4 22.9
-18 16 4 6.1 18.6
18 -2 -4 10.1 22.7
-16 -2 4 20 19.6
-2 -16 -4 4.4 17.8
-18 2 -4 10.2 19.1
-16 18 -4 15.4 27.1
-18 2 -4 8.4 28
2 16 -4 16.1 21.2
-18 17 -4 34.3 19.8
1 17 4 90.19 27.6
-17 -1 -4 0 33.4
18 -1 4 29.1 21.7
18 -17 -4 80.89 24
-17 18 4 4.2 14.1
-18 1 4 2.3 29.5
17 1 -4 21.8 24.2
-18 1 4 61.19 18.8
17 -18 4 7.5 13.8
-1 18 -4 50.69 20.3
-17 -1 -4 52.69 19.1
-17 -1 4 67.59 21.4
18 -1 -4 80.99 26
-18 17 4 44.7 19.4
-18 1 -4 -5.7 24.2
-17 18 -4 -1.8 25.9
17 1 4 61.29 23.1
17 -18 -4 37.6 22.6
-17 18 -4 37.3 19.1
18 -17 4 56.59 23.1
-1 18 4 72.89 25
1 17 -4 41.4 21.4
-17 -1 4 -5.1 22.1
-18 1 -4 71.99 20.9
18 0 -4 -7.6 21.4
18 -18 -4 8.3 21.5
-18 18 -4 13.3 18.7
0 18 -4 4.5 18.8
18 0 4 4.1 20.2
-18 0 -4 -0.7 16.5
-18 18 4 4.1 17.6
18 -18 4 7.3 18.5
-18 0 4 6.4 17.1
0 18 4 10.1 23.3
9 -19 -4 62.49 19.1
19 -10 -4 72.19 24.5
-19 10 -4 25.6 14.8
-10 19 4 61.49 26.6
9 10 4 54.79 26.4
10 -19 4 89.29 22.7
10 9 -4 51.09 22.7
-19 9 4 76.59 30.8
-9 19 -4 49.9 20.6
-9 19 -4 73.39 34.2
19 -9 4 117.89 25.5
19 -10 -4 69.39 27
-19 10 4 58.29 31.2
-10 19 -4 75.99 22.5
-19 9 -4 95.79 22
19 -9 -4 42.3 24.3
-9 -10 -4 59.79 22.4
10 9 4 79.79 27.1
9 10 -4 73.39 24.4
10 -19 -4 119.69 22.1
-9 19 4 79.29 25.1
19 -9 -4 110.59 25.1
9 -19 4 94.59 22.7
19 -10 4 104.09 25.5
-10 19 -4 88.39 32.7
-11 19 4 278.47 35.5
19 -11 -4 243.08 32.1
-8 -11 4 120.39 32.5
-19 8 4 216.08 38.6
-8 19 -4 251.67 30.9
-19 11 -4 145.59 26
8 -19 -4 205.28 26.3
11 8 -4 195.28 30.6
-8 19 -4 100.19 33.8
19 -8 4 239.48 30.6
8 11 4 173.58 32.3
11 8 -4 164.28 32.1
19 -11 -4 156.78 30.1
-11 19 -4 225.08 42.4
19 -8 -4 266.37 32.7
11 -19 -4 247.78 33.6
-19 8 -4 186.18 29
11 8 4 248.88 35.8
-8 -11 -4 235.18 44.2
19 -11 4 281.27 39.8
8 -19 4 229.98 36.3
8 11 -4 244.48 36.9
-11 19 -4 224.78 30.3
-8 19 4 265.37 33.2
19 -12 -4 101.89 26
-19 12 -4 41.5 20.8
12 7 -4 60.89 29.1
19 -7 4 118.09 25.2
12 -19 4 145.69 24.3
-19 7 4 61.09 27.8
7 -19 -4 78.49 20.5
-12 19 4 100.29 29.3
-7 -12 4 41.7 28.1
-7 19 -4 80.29 22.7
7 12 4 124.09 32
19 -12 -4 114.69 26.8
-7 19 -4 80.39 33.6
12 7 -4 87.29 25.4
19 -12 4 126.49 26.7
-19 7 -4 109.19 25.2
-7 -12 -4 62.39 24.7
12 7 4 118.19 30.1
19 -7 -4 166.98 28.5
-7 19 4 124.29 27.2
-19 12 4 98.49 32
7 -19 4 95.19 22.5
-12 19 -4 151.88 26.6
7 12 -4 103.09 25.1
-12 -7 4 81.39 30.7
-12 19 -4 99.29 35
12 -19 -4 153.48 24.6
6 13 4 54.59 29.5
-19 6 4 36.8 28.8
-19 13 -4 13.9 20.3
-6 19 -4 24.3 19.4
19 -13 -4 47.7 24
-6 -13 4 -13.2 25.3
-6 19 -4 16.6 29.1
-13 19 4 25.3 26.6
13 -19 4 56.79 20.7
-13 -6 -4 4.4 14.3
6 -19 -4 36.7 19.7
13 6 -4 7.7 26.4
19 -6 4 34.3 22
13 6 -4 8.8 21.2
-19 6 -4 14.4 20.1
-13 19 -4 28.4 29
13 6 4 22.5 24.7
19 -13 4 16.1 21.6
-6 -13 -4 22.2 21.7
6 13 -4 24.1 21.9
-19 6 -4 19.6 28.9
19 -6 -4 14.1 21.5
-19 13 4 36.5 20.2
-6 19 4 17.4 22.3
13 -19 -4 28.9 18.6
-13 19 -4 19.4 20.5
6 -19 4 16.7 18.4
-13 -6 4 33 27.8
-19 13 4 -7 24.2
13 -19 -4 17.1 24.2
5 14 4 54.29 28.5
14 5 -4 6.2 18
-14 -5 -4 23.1 16.9
14 5 -4 29.2 26.8
-19 5 4 3.8 26.3
-5 19 -4 20.7 19.3
5 -19 -4 19.5 18.3
-5 19 -4 -1.8 27.6
19 -14 -4 26.3 21.7
-14 19 4 24 26.4
14 -19 4 37.8 18.8
19 -5 4 15.8 20.9
-19 14 -4 9.3 20.3
-5 -14 4 -8.5 25.5
19 -5 -4 21.4 21.6
5 14 -4 17.9 20.7
14 -19 -4 21.3 19.5
-14 19 -4 15.5 20.6
14 -19 -4 -0.1 24.9
-19 14 4 -1 19.1
14 5 4 19.5 24
19 -14 4 9.4 20.8
5 -19 4 14.5 17.6
-19 5 -4 7.4 29.2
-5 -14 -4 7.8 21.5
-14 -5 4 10.7 26.9
-14 19 -4 6.3 27.2
-5 19 4 15.4 22.2
-19 5 -4 22.9 21
15 4 -4 90.89 21.4
19 -15 -4 80.79 18.3
-19 4 4 53.39 26.7
-19 15 -4 143.99 24.6
-19 4 4 94.19 21
-4 19 -4 160.48 25
4 -19 -4 93.99 19.4
-15 -4 -4 104.09 20.2
15 -19 4 140.79 22.3
19 -4 4 80.89 22.5
-15 19 -4 61.29 29.7
15 -19 -4 114.19 27.1
15 4 4 127.09 28.1
-19 4 -4 155.48 26.4
-19 15 4 133.39 23.6
19 -15 4 151.28 27.4
4 15 -4 111.39 24.2
15 -19 -4 81.89 21.6
19 -4 -4 136.39 26.4
-15 19 -4 169.48 25.7
-4 19 4 123.09 25.6
16 3 -4 34.4 25.9
16 -19 4 32.1 17.6
-19 3 4 32.8 18.7
3 16 4 99.29 28.2
-16 -3 -4 70.89 19.7
19 -16 -4 44 17.9
19 -16 -4 72.59 21.2
-19 16 -4 53.09 20.5
19 -3 4 3.6 16.3
-3 19 -4 40 19.3
16 3 -4 7.7 18.1
19 -3 4 54.49 20.1
-16 19 -4 -0.5 31.1
-16 -3 4 -6 22.4
-3 19 4 88.39 24.1
19 -3 -4 99.39 24.2
16 -19 -4 75.89 25
-16 19 -4 107.79 22.7
-19 3 -4 1 29
16 -19 -4 54.19 19.3
16 3 4 74.99 24.7
-19 3 -4 121.19 23.7
-19 16 4 52.49 19.8
3 16 -4 45.7 20.5
19 -16 4 37.2 23.4
2 17 4 50.89 23.1
-19 17 -4 44.8 19.4
17 2 -4 22.6 24.3
19 -2 4 9 16.1
-2 19 -4 36.4 18.9
-19 2 4 10.7 17.2
19 -17 -4 60.79 21.8
17 -19 4 20.3 16.3
-17 -2 -4 39 17.8
17 -19 -4 1.7 14.1
-19 17 4 29.9 18.1
17 -19 -4 4.1 21
-17 -2 4 26.2 18.6
19 -2 -4 39.5 21.7
-19 2 -4 23.9 18.7
-2 19 4 46.4 22.2
2 17 -4 14.3 17.9
19 -17 4 4.5 21.5
-17 19 -4 28.9 18.5
17 2 4 10.9 20.7
-19 1 4 0.7 16.4
-18 19 4 -2.3 11.1
19 -18 -4 -4.9 19.8
18 1 -4 -3.2 21.3
19 -1 4 4.4 19.3
-1 19 -4 8.5 17.8
-18 -1 -4 18.8 16.9
-19 18 -4 3.9 17.6
1 18 4 5 19.6
-18 19 -4 8.1 17.3
19 -18 4 27 19.3
-19 1 -4 17.9 16.9
1 18 -4 14.1 16.5
-18 -1 4 26.2 17.1
18 -19 -4 3.3 19.8
19 -1 -4 14.7 20.3
-1 19 4 8.6 21.5
-19 18 4 -3.1 16.8
18 1 4 -2.6 19.2
0 19 -4 14.1 15.7
19 0 4 17.5 19.3
0 19 4 33.5 19.2
-19 19 4 9.3 13
19 -19 -4 21.3 19.4
-19 0 -4 26.9 16.4
19 0 -4 22.6 20.1
-19 0 4 25.5 16.2
-19 19 -4 29.4 16.9
10 10 -4 185.78 29.1
10 -20 4 251.87 34.5
10 -20 -4 232.68 31.6
-10 20 4 245.78 32.2
-10 20 -4 241.78 36.1
20 -10 4 214.78 29.2
10 10 4 263.17 35.7
20 -10 -4 179.88 32.1
20 -10 -4 213.78 36.1
9 -20 -4 243.28 31.9
11 9 -4 176.98 29
9 11 4 276.27 43.8
11 -20 4 266.17 34.7
-20 11 -4 234.88 34.6
20 -11 -4 250.47 38.5
-11 20 4 266.07 42.3
11 9 -4 151.58 30.8
-9 20 -4 252.37 34.8
20 -9 4 268.37 36.8
20 -11 -4 169.18 30.2
11 -20 -4 272.37 33.2
11 9 4 281.87 44
20 -9 -4 254.77 37.2
9 -20 4 253.27 34.7
-11 20 -4 308.57 38.5
9 11 -4 249.18 38
-20 9 -4 227.28 34.6
20 -11 4 266.87 38.6
-9 20 4 260.87 39.9
20 -8 4 174.68 27.6
12 8 -4 212.78 29.7
12 8 -4 140.29 30.4
8 -20 -4 163.78 24.3
-8 20 -4 124.39 24.8
12 -20 4 194.78 24.6
8 12 4 159.48 31.2
-12 20 4 170.68 30.4
20 -12 -4 141.29 29
8 -20 4 107.29 22.4
12 -20 -4 193.78 25.6
20 -8 -4 182.78 29.4
-20 8 -4 155.88 25.1
12 8 4 152.28 31
-12 20 -4 219.18 30
20 -12 4 149.99 25.9
8 12 -4 93.29 24.3
-8 20 4 159.88 27.6
-20 12 4 153.48 24.6
-13 20 4 48.1 25
7 -20 -4 35.8 18
20 -13 -4 48.5 21.8
-20 7 4 -3.1 22.8
-20 13 -4 51.89 20.7
13 7 -4 47.7 26.3
-7 -13 4 -12.2 28.2
7 13 4 92.69 29.3
-7 20 -4 57.59 20.8
13 -20 4 71.39 19.2
20 -7 4 43.2 22.1
13 7 -4 32.7 20.1
20 -7 -4 70.69 23.4
-7 -13 -4 0.9 20.4
7 13 -4 63.29 22.4
-13 20 -4 27.4 20.2
-20 13 4 41 20
-20 7 -4 41.6 21.3
-13 20 -4 -0.2 26.1
13 7 4 42.7 24.4
7 -20 4 38.3 18.9
13 -20 -4 34.5 17.9
-7 20 4 41.9 21.7
20 -13 4 38.6 20.8
13 -20 -4 15.5 15.7
-14 -6 -4 14.9 15.8
6 14 4 94.69 29
6 -20 -4 36.8 18
14 6 -4 28.1 18.5
-14 20 4 56.49 26.1
14 -20 4 52.59 18.6
-20 14 -4 36 20.1
20 -6 4 49.5 21.4
20 -14 -4 54.89 22
-20 6 4 -4 33.6
14 6 -4 21.5 24.2
-6 20 -4 25.8 19.6
-6 20 4 102.59 24.4
14 6 4 69.29 24.3
20 -6 -4 76.69 24.1
-20 6 -4 83.29 22.2
14 -20 -4 63.39 24.1
14 -20 -4 74.29 19.6
6 14 -4 61.79 21.8
6 -20 4 74.79 18.7
-14 20 -4 80.39 21.6
20 -14 4 82.49 23.1
-20 14 4 100.19 21.6
20 -15 -4 39.3 20
15 5 -4 25 18.8
-15 20 4 43.2 25.4
-20 15 -4 32.2 20.1
5 -20 -4 40.5 18
5 15 4 56.69 25.8
-5 20 -4 27.5 18.9
-20 5 4 -19.7 14.4
-15 -5 -4 19 16.1
15 -20 4 23.2 17.4
20 -5 4 22.9 20.2
15 5 -4 10.2 23.2
-20 15 4 12.8 18
15 5 4 -9.6 21.2
15 -20 -4 9.3 17.1
-15 -5 4 37 20.6
-20 5 -4 19.5 19.1
20 -15 4 9.1 21.5
5 -20 4 -5 12.3
-15 20 -4 7.1 18.1
-5 20 4 19.6 20.5
20 -5 -4 26.8 21.4
15 -20 -4 5.7 23.5
5 15 -4 21 19.1
16 4 -4 2.2 18.3
-16 -4 -4 12 15.8
-20 4 4 4.5 17.3
4 -20 -4 -3.2 13.9
4 16 4 36.6 23.7
20 -16 -4 0.7 10.4
20 -4 4 15.7 19.3
20 -16 -4 23 18.5
16 -20 4 20.5 16.5
16 4 -4 19.4 23.9
-16 20 4 28.4 23.7
-4 20 -4 20.1 17.2
-20 16 -4 11.8 18.9
-16 -4 4 52.39 21.2
16 4 4 17.8 21.4
-16 20 -4 51.59 20.1
16 -20 -4 33.5 22.7
-4 20 4 35.5 20.8
4 16 -4 37.9 18.9
16 -20 -4 19.9 16.4
-20 4 -4 44.8 19.2
20 -16 4 35.2 21.9
20 -4 -4 32.1 21.4
-20 16 4 23.9 17.4
-20 17 -4 23.2 18.2
3 17 4 21.6 21.7
-17 20 4 19.4 22.8
17 3 -4 3.4 23
17 -20 4 18.5 14.3
-3 20 -4 23.7 17.1
20 -17 -4 18.2 19
-20 3 4 28.8 17.4
-17 -3 -4 38.1 16.9
20 -17 -4 11.5 13.5
-20 17 4 21.7 16.7
3 17 -4 20.4 16.8
-17 -3 4 20.8 17.2
20 -3 -4 18.9 20
17 -20 -4 -1.6 21
-17 20 -4 19.8 17.1
20 -17 4 16 20.9
-3 20 4 13.5 20.1
-20 3 -4 12.6 17.8
17 -20 -4 8.4 15.4
17 3 4 2.3 19.2
-2 20 -4 27.5 16.9
18 2 -4 43.3 22.4
20 -18 -4 37.6 19.3
-18 20 4 50.89 23.8
-18 -2 -4 50.79 16.4
20 -18 -4 14.9 14.4
2 18 4 60.29 21.8
-20 18 -4 41.7 17.4
20 -2 4 3.8 18.4
-20 2 4 48.9 17.8
18 2 4 29.8 19
20 -18 4 32.3 20.1
-18 -2 4 49 17.4
-2 20 4 40.7 21.3
18 -20 -4 43 20.8
-20 18 4 36 17.2
2 18 -4 16.3 16.2
-20 2 -4 41.4 17.1
-18 20 -4 41.2 17.7
20 -2 -4 47.7 21.2
-1 20 -4 7.9 14
20 -1 4 3.6 13.3
1 19 4 14.2 18.9
-19 -1 -4 38 16
20 -19 -4 15.4 12.7
-20 19 -4 0 15.6
-20 1 4 8.7 15.3
20 -19 -4 28.4 17.2
19 1 -4 10.4 18.6
-1 20 4 41.4 18.4
-19 -1 4 21.8 15.5
19 1 4 7.3 16.8
1 19 -4 24.7 15
19 -20 -4 29.6 18
20 -1 -4 14.5 18.6
-20 19 4 8.5 13.6
-20 1 -4 22.1 15.1
-19 20 -4 35.6 16.3
20 -20 -4 26.3 16.7
0 20 4 -3.5 17.4
20 0 -4 -11.9 17.7
-20 20 -4 15.7 15.4
-20 0 4 3 14.7
-20 0 -4 5.1 14.3
20 -20 -4 1.6 13.4
0 20 -4 10.6 12.5
10 11 4 140.89 30.1
11 10 -4 75.99 23.6
10 -21 -4 104.49 19.8
21 -11 -4 78.39 24.3
-10 21 -4 135.99 24.4
-11 21 4 106.49 23.5
21 -11 -4 92.69 24.1
11 -21 4 100.49 19.9
21 -10 4 92.79 22.8
21 -11 4 153.38 25.4
21 -10 -4 118.99 25.4
-11 21 -4 173.68 25.7
10 -21 4 143.99 22.6
10 11 -4 93.69 24.2
21 -10 -4 68.89 23.2
11 -21 -4 137.59 21.4
-10 21 4 122.79 24.9
11 10 4 168.68 30.9
-21 12 -4 36.9 19.3
12 9 -4 52.29 23.1
21 -12 -4 39 21.5
-12 21 4 52.19 21.9
12 -21 4 89.99 18.8
9 12 4 62.29 25.6
21 -9 4 49.4 21.4
12 9 -4 74.19 22.9
9 -21 -4 46.2 17.2
-9 21 -4 55.69 20.4
12 -21 -4 99.79 19.3
21 -12 4 99.99 22.1
12 9 4 72.29 25.6
-21 9 -4 59.39 19.1
21 -9 -4 104.29 23.7
-21 12 4 107.39 21.7
9 -21 4 77.49 18.6
-9 21 4 70.49 22
-12 21 -4 70.59 21.2
9 12 -4 89.49 23.2
13 8 -4 130.79 24
13 -21 4 186.38 23.3
-8 21 -4 188.88 25
-13 21 4 153.58 27.5
21 -8 4 152.88 26.1
13 8 -4 133.79 28.2
8 -21 -4 161.38 22.9
-21 13 -4 83.39 21.9
21 -13 -4 110.69 25.1
8 -21 4 134.79 22.2
8 13 -4 172.48 26.6
-13 -8 4 236.98 28.7
-21 13 4 167.68 24.5
13 -21 -4 173.28 28.2
-21 8 -4 160.28 24.4
13 8 4 160.78 29.9
-13 21 -4 252.57 30.1
-8 21 4 170.18 26.8
21 -13 4 219.68 28
21 -8 -4 207.58 29
-7 21 -4 28 18.3
-21 14 -4 55.49 19.8
-14 21 4 32.2 22.3
14 -21 4 44.8 17.3
21 -7 4 31.6 21.1
21 -14 -4 52.29 20.8
14 7 -4 35.8 18.6
14 7 -4 31.5 22.7
7 14 4 111.29 27.4
7 -21 -4 60.59 18
-14 21 -4 90.29 21.3
-14 -7 4 106.69 23.5
7 14 -4 99.59 22.4
-21 14 4 102.19 20.8
14 7 4 54.09 23.3
-21 7 -4 49.7 18.9
21 -7 -4 82.29 22.8
-7 21 4 65.79 21.8
21 -14 4 64.99 22.3
14 -21 -4 64.29 17.7
7 -21 4 55.49 18.1
15 -21 4 10.7 14.8
21 -15 -4 3.1 18.3
-15 21 4 20.1 21.7
-15 -6 -4 7.7 13.8
6 15 4 28.6 22.8
6 -21 -4 11.9 16.1
-6 21 -4 20.3 17.2
-21 15 -4 16.9 18.7
21 -6 4 -6.6 18.7
15 6 -4 -0.6 16.7
15 6 -4 7.7 21.6
-6 21 4 10.8 18.8
-21 15 4 12.8 17.1
21 -15 4 8.2 19.9
-15 21 -4 28.5 18.2
15 -21 -4 31.8 18.6
15 -21 -4 20.9 16
6 15 -4 28.8 18.7
-15 -6 4 32.4 19.8
15 6 4 6.9 20.7
6 -21 4 3 14.6
21 -6 -4 16.4 19.5
-21 6 -4 21.4 17.4
5 16 4 117.29 24.3
21 -16 -4 97.99 21.5
16 5 -4 53.59 23.1
16 -21 4 67.89 16.9
-21 16 -4 86.39 20.5
-16 -5 -4 88.89 17.9
-16 21 4 90.19 24.7
21 -5 4 55.19 20.1
-5 21 -4 84.69 18.9
16 5 -4 73.89 19.9
21 -16 4 84.89 22.8
-16 -5 4 205.28 25.3
-16 21 -4 139.99 21.4
16 -21 -4 64.59 23.3
16 5 4 86.59 23.6
5 16 -4 98.69 20.7
21 -5 -4 138.29 24.6
-21 5 -4 159.88 23.5
-21 16 4 125.69 21.1
-5 21 4 144.39 23.1
-4 21 -4 129.09 20.6
-21 4 4 105.29 19.6
-21 17 -4 147.49 22.5
4 17 4 127.69 24.8
-17 21 4 106.39 25.3
-17 -4 -4 100.49 18.9
21 -17 -4 172.58 23.8
17 4 -4 153.18 27.9
-4 21 4 146.79 23.5
21 -17 4 104.39 21.5
17 -21 -4 83.89 18.2
-17 -4 4 153.78 21.2
-21 4 -4 128.99 20.8
17 -21 -4 138.59 23.9
-17 21 -4 176.28 23.5
4 17 -4 126.99 20.6
-21 17 4 86.59 18.9
17 4 4 108.09 22.7
21 -4 -4 135.39 24
-21 18 -4 19.2 16.7
21 -18 -4 12.4 17.7
18 3 -4 -8.2 20.3
-18 -3 -4 17.9 15.3
-3 21 -4 19.3 15.3
18 -21 4 1.8 11.2
21 -18 -4 -0.2 10.3
-21 3 4 -1.5 14.5
-18 21 4 3.6 19.9
3 18 4 16.2 18.7
-18 -3 4 12.3 14.9
-18 21 -4 16.5 15.3
18 3 4 -10.1 16.4
18 -21 -4 29.4 19.1
21 -3 -4 7.8 18.3
-21 3 -4 13.1 15.1
-3 21 4 22.9 18.9
-21 18 4 16.6 15.4
21 -18 4 14.5 17
3 18 -4 15 14.3
19 2 -4 70.49 21.1
-2 21 -4 56.09 14.7
21 -19 -4 81.09 19
-19 -2 -4 79.19 16.4
-21 2 4 70.89 16.6
2 19 4 94.89 21.5
-19 21 4 58.69 21.5
-21 19 -4 107.89 20
-19 -2 4 110.29 18.2
-21 2 -4 71.99 16.3
19 2 4 31.3 16.9
19 -21 -4 73.29 15
19 -21 -4 61.49 18.6
-2 21 4 50.69 18.2
21 -2 -4 86.39 21.6
-19 21 -4 71.49 16.9
20 1 -4 -4.6 18.8
21 -20 -4 3.3 9.7
-20 -1 -4 19.7 15.3
21 -20 -4 22.7 16.1
-1 21 -4 0.5 12
-21 1 4 13.6 14.4
-20 21 4 7.7 20.2
1 20 4 26 18.8
-21 20 -4 11.3 15.5
20 -21 -4 13.3 16.1
-20 -1 4 6.5 14
-20 21 -4 -0.1 14.7
20 -21 -4 8.4 12.5
-21 1 -4 6.1 14.3
21 -1 -4 0.3 19.4
-1 21 4 6.8 17.7
21 0 -4 84.89 24.7
0 21 4 114.49 21.4
21 -21 -4 128.99 20.7
-21 0 4 134.19 19.9
-21 21 -4 130.29 21.2
-21 0 -4 127.89 18.3
11 11 4 80.19 24.6
22 -11 -4 72.79 21.2
22 -11 -4 34.5 19.8
11 11 -4 59.09 20.3
11 -22 4 57.49 16.4
-11 -11 4 37.2 18
-11 22 -4 77.19 20.9
11 -22 -4 64.79 17
-11 22 4 44.5 19.6
-22 11 4 68.29 18.7
22 -11 4 55.19 19
12 -22 4 -3.1 13.7
-22 12 -4 -2.6 12.7
10 -22 -4 7.3 14.2
22 -10 4 -10.3 16.6
-10 22 -4 3.3 16.5
-12 22 4 -9.7 18.2
12 10 -4 1 15.8
10 12 4 0.5 22.6
22 -12 -4 9.1 19.3
12 10 -4 6.8 17.1
10 -22 4 5.7 14.5
12 -22 -4 1.8 13.7
-12 22 -4 0.6 17.4
-12 -10 4 4.3 17.4
22 -12 4 15 18.4
12 10 4 5.3 20.9
10 12 -4 -3.5 18.4
22 -10 -4 -1.2 18.7
-10 22 4 4.5 18.1
-22 10 -4 -7.5 13
-22 12 4 -9.6 16.6
9 -22 -4 67.69 17.4
9 13 4 113.99 26.7
13 -22 4 52.69 15.5
-9 22 -4 37.4 16.9
13 9 -4 28 17.1
22 -13 -4 41.9 19.3
-13 22 4 53.49 19.6
-22 13 -4 24.7 17.5
22 -9 4 47.8 19.5
13 9 -4 35.7 18.4
-13 22 -4 109.89 21.2
9 -22 4 56.09 17.1
9 13 -4 114.49 21.7
22 -9 -4 121.19 23.4
22 -13 4 92.69 22.3
13 -22 -4 110.49 19.2
-22 9 -4 94.59 19.2
13 9 4 103.59 24.8
-9 22 4 67.39 20.6
-13 -9 4 100.99 20.6
-22 13 4 86.99 19.5
8 14 4 111.69 25
14 8 -4 31.7 20
-22 14 -4 44.7 17.8
14 -22 4 85.09 17.3
22 -14 -4 70.69 20.9
-8 22 -4 61.89 17.8
14 8 -4 44.8 18.2
8 -22 -4 50.79 16.8
22 -8 4 50.39 20.3
-14 22 4 46.1 19.9
-14 -8 4 115.09 21.5
14 -22 -4 76.79 16.9
-22 8 -4 66.89 17.6
22 -14 4 103.59 21.7
22 -8 -4 96.29 20.7
-8 22 4 91.49 21.4
-22 14 4 84.19 18.7
-14 22 -4 63.99 18.8
14 8 4 67.19 22
8 -22 4 60.69 16.9
8 14 -4 83.89 20.4
15 7 -4 18.6 16.7
7 15 4 35.2 22.5
-15 22 4 20.1 18.1
-7 22 -4 19 15.9
22 -7 4 9.8 17.5
15 -22 4 31.5 14.9
15 7 -4 14.4 20.4
7 -22 -4 15 15.4
-22 15 -4 25.2 18.3
22 -15 -4 27.4 18.9
7 -22 4 14.5 15
-22 15 4 25.8 16.5
-15 -7 4 37.2 17.3
15 7 4 8.1 18.9
-15 22 -4 39.3 17.4
-22 7 -4 41.6 16.3
-7 22 4 21.8 17.9
22 -7 -4 54.39 18.8
15 -22 -4 38.5 15.1
22 -15 4 22.9 18.7
7 15 -4 12.5 16.4
16 6 -4 84.59 24
22 -16 -4 115.89 22.2
16 -22 4 54.49 15.4
22 -6 4 44.3 17.6
-16 22 4 82.09 21.4
-6 22 -4 63.39 16.9
6 16 4 99.39 22.3
-22 16 -4 41.7 17
-22 16 4 77.69 17.8
-16 -6 4 126.99 20.2
16 -22 -4 73.69 16.7
22 -6 -4 115.89 22.7
-22 6 -4 91.79 18.6
-6 22 4 85.29 20.3
-16 22 -4 120.19 19.9
16 6 4 53.89 20.5
6 16 -4 91.99 17.7
22 -16 4 56.69 19.2
22 -17 -4 62.49 20.3
-5 22 -4 61.29 15.9
-17 22 4 32.1 19
17 -22 4 39.9 15.6
-17 -5 -4 57.89 14.6
-22 17 -4 46.6 17.7
5 17 4 62.79 20.5
17 5 -4 51.29 20.5
22 -17 4 36.6 17.8
-5 22 4 51.99 18.2
17 5 4 46.7 17.5
22 -5 -4 50.49 19.4
17 -22 -4 16.1 19.7
-17 22 -4 61.19 16.2
17 -22 -4 41 14.6
5 17 -4 5.9 11.7
-17 -5 4 80.69 18.1
-22 5 -4 42.5 15
-22 17 4 30.1 15
4 18 4 24.8 18.3
-4 22 -4 3.9 12.8
-22 18 -4 15.9 16
-18 -4 -4 16.9 13.7
18 -22 4 1.8 10.6
-18 22 4 8.4 18.3
22 -18 -4 13.7 16.1
18 4 -4 20.5 20.3
-18 -4 4 31.5 16.3
-4 22 4 26.7 18.5
18 -22 -4 11.6 11.8
-22 18 4 25.6 14.7
-18 22 -4 15.8 14.8
22 -4 -4 22.6 18.3
22 -18 4 30.4 17.1
-22 4 -4 30.8 14.1
18 4 4 14.6 15.8
3 19 4 80.69 20.7
-19 22 4 60.69 19.1
-22 19 -4 94.39 20
-19 -3 -4 98.39 18.2
22 -19 -4 66.39 17.8
19 3 -4 68.59 21.8
22 -3 -4 59.69 19.9
-22 3 -4 83.39 16.1
-19 -3 4 114.79 21
-19 22 -4 72.49 17.5
19 -22 -4 71.89 15
19 -22 -4 26.7 13.4
-3 22 4 53.49 18.1
22 -20 -4 33 19.4
20 2 -4 6.5 20.2
2 20 4 13.5 19.2
-22 20 -4 15.2 17.7
-20 22 4 3.3 12.4
-22 2 4 -10.1 8.3
-20 -2 -4 24.5 14.8
-20 -2 4 15.7 17.1
-20 22 -4 18.7 16.4
20 -22 -4 14.1 10.5
-2 22 4 29.2 18.5
22 -2 -4 8.6 20.7
-22 20 4 -4.4 15.4
20 -22 -4 11.6 12.8
-22 2 -4 17.5 15.2
23 -12 -4 7.9 16.8
23 -11 4 44.7 19.3
12 11 -4 38.1 14.5
-23 11 4 60.79 17.6
12 -23 4 34.1 14
-12 23 4 24.4 17.5
11 12 4 58.89 21.4
-11 23 -4 38.9 15.8
11 -23 -4 29.2 14
11 12 -4 41.1 14.3
-23 12 4 27.6 15.4
11 -23 4 32.3 14.3
-11 23 4 45 18.4
12 -23 -4 57.59 16.3
12 11 4 62.39 21.2
-12 23 -4 37.1 16.5
23 -12 4 57.99 19.6
-13 23 4 33.4 17.3
-23 10 4 51.99 17.1
23 -10 4 36.8 19.1
13 10 -4 20.1 15
10 13 4 32.3 20.9
23 -13 -4 28.6 21.2
-10 23 -4 20.5 15.4
10 -23 -4 27.8 14
13 -23 4 44.9 14.6
-13 -10 4 21.5 15.1
10 13 -4 23.8 13.6
13 -23 -4 55.29 15.3
23 -10 -4 26.3 18
13 10 4 36.3 19.7
10 -23 4 26.4 14.9
-23 13 4 27.9 15.9
-13 23 -4 40.9 16.2
-10 23 4 45 18.2
23 -13 4 30.8 18
23 -14 -4 26.2 18.7
-14 23 4 3.2 16.8
9 14 4 27.5 21.3
14 9 -4 13.7 14.5
-23 14 -4 -3 19.2
23 -9 4 13.3 18.7
-9 23 -4 10.9 14.7
14 -23 4 17.7 14.5
9 -23 -4 15.9 14.2
-23 9 4 14.5 15.2
9 14 -4 5.9 12.1
14 9 4 28.5 19
-9 23 4 15 17.1
23 -9 -4 5.4 17.3
-23 14 4 27.6 15.1
-14 -9 4 11.7 15.9
23 -14 4 28.3 17.8
-23 9 -4 16.6 11.8
-14 23 -4 16.8 15.9
9 -23 4 23.9 15.2
14 -23 -4 11.1 13.1
-15 23 4 18.4 16.6
8 15 4 27.9 20.4
15 8 -4 19 14.4
-23 15 -4 0.6 11.9
-8 23 -4 23.4 14.3
23 -8 4 14.9 17.7
15 8 -4 4.3 14.6
15 -23 4 40.5 15.1
23 -15 -4 40.2 20.4
8 -23 -4 31.4 13.9
-15 -8 4 48.6 16.9
23 -8 -4 59.79 18.9
23 -15 4 47.4 17.5
15 8 4 36.4 18.9
-15 23 -4 35.3 16.1
15 -23 -4 31.8 14.1
-23 15 4 45.3 15.7
-23 8 -4 39.1 14.6
8 -23 4 35.1 12.7
-8 23 4 35.8 17.1
7 16 4 49.5 21.4
16 7 -4 7.1 12.1
-7 23 -4 6.3 13.1
-16 23 4 16.3 15.7
23 -7 4 6.7 12
16 -23 4 23.5 14.5
23 -16 -4 13 19.9
-23 16 -4 7.6 14.8
16 -23 -4 5 13.7
-23 7 -4 16.7 12.9
23 -7 -4 -6.7 16.6
-7 23 4 5.7 17
23 -16 4 20.9 16.6
-16 -7 4 18 17.3
16 7 4 12.3 17
-16 23 -4 23.8 15.3
-23 16 4 1.7 13.5
6 17 4 18.6 19.1
-23 17 -4 3.8 15.9
23 -17 -4 12.4 18.9
17 6 -4 3.2 13.3
-6 23 -4 3.3 11.5
-17 23 4 5.9 15.1
17 -23 4 2.8 14.1
-23 17 4 -2.9 12.9
17 -23 -4 -1.6 12.5
-23 6 -4 5.1 12.8
-17 23 -4 -10.7 14.6
17 6 4 -2 15.5
-17 -6 4 0 15.7
-6 23 4 8.6 17.8
23 -17 4 -3 15.9
23 -6 -4 0.2 17.2
18 -23 4 -10.5 10.3
18 5 -4 7.1 13.1
-23 18 -4 21.6 16.6
-18 23 4 1.6 11.4
5 18 4 54.09 21
23 -18 -4 46.8 18.3
23 -5 -4 23.2 19.4
-18 23 -4 8.5 16
18 5 4 4.3 12.9
18 -23 -4 21.2 13
-23 18 4 -4.6 10.1
-5 23 4 32.1 18.9
-18 -5 4 35.8 18.2
23 -18 4 13.9 14.9
-23 5 -4 22.8 14.4
-24 12 4 -12.7 15.4
-12 24 4 3.4 14.6
12 -24 4 5.9 13.6
12 12 4 21 19.9
-12 24 -4 -1.9 14.8
24 -12 4 14.1 18.8
12 -24 -4 7.6 14.4
-13 24 4 20.7 14
24 -11 4 22.8 19.6
-24 11 4 21.6 16.3
13 -24 4 25.8 14.8
-11 24 -4 24.5 14.9
11 -24 -4 24.4 14
11 13 4 59.79 22
13 -24 -4 21.3 14.4
24 -13 4 1.3 18.3
13 11 4 19.6 20
-13 24 -4 16.6 15
11 -24 4 20.1 13.8
-24 13 4 13.3 16
-11 24 4 8 15.1
10 -24 -4 -4.7 12.9
-14 24 4 1.2 10.4
14 -24 4 0.3 14.6
-24 10 4 12.4 17.3
10 14 4 16 21.6
24 -10 4 -6.1 19.6
-10 24 -4 13 14.2
24 -14 -4 5.7 15.2
24 -14 4 13.4 18.1
14 -24 -4 15 14.2
10 -24 4 2.6 13
-10 24 4 9.6 15.2
-14 24 -4 15.4 16.1
-24 14 4 20.2 16.6
14 10 4 7.3 19.3
15 -24 4 29.7 15.3
24 -15 -4 34.6 19.3
24 -9 4 12.5 14.5
9 -24 -4 6.3 9.2
9 15 4 49.99 22.3
-9 24 -4 27 12.1
-24 9 4 32.8 17.6
24 -15 4 31.9 19.3
-9 24 4 3 13.3
-24 15 4 26.5 15.1
-15 24 -4 55.79 18.6
15 -24 -4 40.5 15.1
15 9 4 56.39 20.3
16 -24 4 8.9 14.7
24 -16 -4 16.2 20.3
8 16 4 13.5 21.4
16 -24 -4 24.8 15.2
16 -24 -4 5.9 11.8
16 8 4 3.8 19.2
-8 24 4 -4.7 9.4
24 -8 -4 11.3 20
24 -16 4 22.8 19.2
0 0 -5 10.5 17.1
0 0 5 4.7 18.7
-1 1 5 36.9 22.6
0 -1 -5 34.6 19.3
0 -1 5 18.6 21
1 0 5 16.2 18.6
-1 1 5 22.2 19.7
-1 0 5 28.2 20
-1 0 -5 30.6 19.6
0 1 5 5.3 18.8
-1 0 5 33.4 20.5
1 -1 5 18.2 20.6
0 1 5 13.9 20.8
0 1 -5 28.1 17.9
-1 1 -5 15.6 17.7
1 1 5 372.06 39.6
1 -2 5 308.57 40.9
1 1 5 328.77 39.6
-1 -1 -5 293.97 34.6
2 -1 5 331.47 37.9
-2 1 -5 316.87 34.5
-1 2 5 295.67 38.3
-1 -1 5 307.07 41.8
-1 2 -5 307.27 33.3
-2 1 5 338.57 39.9
-1 2 5 324.77 38.8
-2 1 5 300.17 40.1
-2 0 -5 30.2 21.1
-2 2 -5 0.3 8.7
2 0 5 20.1 19.9
0 2 -5 26.7 16.5
-2 0 5 31.2 21.8
0 2 5 36.7 21
-2 2 5 33.4 19.1
-2 2 -5 25.3 20.1
-2 2 5 20.2 20.1
2 -2 5 19.8 21.1
0 2 5 13.7 19.8
0 -2 5 20.8 22.3
0 -2 -5 27 20.6
-2 0 5 11.5 20.2
1 2 5 187.58 31.6
-3 1 5 159.88 27.7
-1 3 -5 169.98 26.4
2 -3 5 153.18 28.8
3 -1 5 190.48 30.5
-1 3 -5 111.99 22.9
-2 3 5 182.38 30.5
-3 2 -5 184.98 29.2
-3 1 5 168.48 29.3
-2 3 5 149.69 28.6
-2 -1 -5 168.58 28.3
1 2 5 195.58 31.5
-3 1 5 148.79 28.6
-1 -2 5 187.18 32.6
-1 3 -5 148.99 25
-3 2 5 146.59 31.5
2 1 5 179.48 29.3
3 -2 5 145.09 27.4
-1 -2 -5 169.08 28.5
-3 2 5 136.69 27.1
-2 3 -5 163.08 24.5
1 -3 5 178.48 31.6
-2 -1 5 219.88 30.9
-2 3 -5 95.39 21.9
-1 3 5 154.98 28.3
-3 2 5 137.29 27.4
-1 3 5 154.88 28.5
-2 -1 5 152.88 31.5
-3 1 -5 180.18 29.4
-2 3 -5 166.58 26.2
2 1 5 145.49 29.6
0 3 -5 48.9 20.5
0 -3 5 63.19 25.4
-3 3 -5 54.79 22.7
3 0 5 65.09 22.7
-3 0 5 37.7 21.2
-3 3 -5 30.8 17.1
-3 3 5 43.2 27.9
-3 3 5 65.59 22.1
3 -3 5 54.09 25
0 3 -5 69.49 19.2
0 3 5 53.19 21.7
-3 0 -5 60.19 24.6
-3 3 -5 74.39 17.9
-3 3 5 67.49 23.9
0 3 5 60.99 23.4
-3 0 5 58.59 25.8
-3 0 5 50.79 23.1
3 0 5 37.9 21.2
-2 4 5 316.67 39.5
4 -2 5 332.57 40.4
-4 2 5 291.57 44.4
-2 4 -5 318.27 33
2 2 -5 270.07 34.5
-2 4 5 345.67 40.4
-2 -2 5 317.87 43.9
2 2 5 366.46 41.1
-2 4 -5 319.97 37
-2 -2 -5 331.07 37.9
-4 2 5 352.06 38.6
-4 2 -5 282.87 32.5
-4 2 5 331.97 37.6
-2 -2 5 392.76 38.2
2 -4 5 334.97 44.4
-4 2 -5 338.77 38.2
-2 -2 -5 285.57 33.3
2 2 5 353.56 43.3
-2 4 -5 330.37 34
1 3 5 22.5 20.9
-3 4 5 13.1 27.1
-3 4 5 13.8 21.3
-4 1 5 32.3 24.7
-1 4 -5 25.9 16.3
-3 -1 -5 34.6 21.5
-4 1 5 17 18.5
-4 3 -5 41.8 24.6
-1 4 -5 18.8 18.8
-4 3 -5 30 16.5
-1 4 -5 28.6 15.8
-4 1 5 18.7 19.5
-3 -1 -5 11.8 12
-1 -3 5 29.2 24.4
3 -4 5 8.9 21.8
4 -1 5 23.5 23.3
-3 4 5 48.3 20.3
1 -4 -5 19.3 11.5
1 3 5 34.1 21.9
-4 3 -5 27.4 17.6
4 -3 5 46 21.6
-3 -1 5 77.79 25.5
-1 4 5 31.2 20.9
-4 1 -5 34.6 17.5
-1 -3 -5 36.8 16
-1 -3 -5 41.5 22.7
-1 4 5 39.5 21.4
-3 4 -5 47.2 23.6
-4 3 5 35.9 21.2
-4 3 5 48.8 20.4
1 3 -5 40.5 22.2
1 -4 5 49.9 27.1
-3 4 -5 33.4 18.4
-3 4 -5 37.8 17.2
-4 3 5 39.4 28.7
3 1 5 44.4 22.3
-3 -1 5 20.8 22.6
-4 1 -5 39 23.5
3 1 5 19.1 19.6
0 4 -5 664.03 50.59
-4 0 5 672.93 56.69
-4 4 -5 744.63 57.99
0 4 -5 646.94 53.69
-4 4 5 682.53 57.69
0 4 5 600.44 56.09
-4 4 -5 636.64 51.99
-4 0 5 685.13 60.19
-4 0 -5 617.54 54.49
-4 4 -5 676.83 51.39
0 -4 -5 546.85 49.7
-4 4 5 613.44 56.89
4 -4 5 686.13 58.99
-4 0 5 647.24 54.39
-4 4 5 630.84 63.69
4 0 5 648.94 58.99
0 -4 5 700.33 62.49
4 0 5 664.43 58.49
0 4 5 711.13 60.09
-5 3 -5 1181.18 82.69
-2 5 -5 1164.98 83.19
-2 -3 5 1113.29 90.49
2 3 5 1304.37 92.39
-5 2 5 1164.58 84.99
-3 5 5 1137.19 91.99
-2 5 -5 973.6 79.89
-5 2 5 1198.38 86.79
2 3 5 1255.27 87.59
-3 5 5 1303.07 89.29
-3 5 5 1212.68 89.09
-2 5 -5 1203.78 82.99
3 -5 5 1274.97 93.09
-3 -2 -5 1181.08 85.29
5 -2 5 1269.07 89.99
-5 2 5 1279.37 90.29
-5 3 -5 1243.78 87.59
-5 3 -5 1088.09 80.69
-2 5 5 1183.68 87.69
-2 -3 -5 1123.59 84.19
-3 5 -5 1172.08 81.99
-5 2 -5 1230.48 86.79
3 2 5 1198.18 86.89
3 2 5 1148.49 88.09
-5 3 5 1148.59 89.69
-3 5 -5 1104.99 83.09
-5 2 -5 1033.3 79.49
2 -5 5 1198.18 89.69
-5 3 5 1228.18 85.99
5 -3 5 1229.68 88.29
-5 3 5 1221.58 86.99
-2 -3 -5 1110.99 80.39
-3 5 -5 1193.18 82.29
-3 -2 5 1197.28 90.29
-2 5 5 1284.87 90.49
1 -5 -5 503.05 48
-4 5 5 608.64 53.69
-4 5 5 557.14 54.49
-5 1 5 580.54 53.99
-5 1 5 586.14 52.09
-1 5 -5 562.14 47.8
-4 5 5 521.15 57.49
-4 -1 -5 450.55 43.4
4 -5 5 624.94 58.49
1 4 5 575.94 52.59
-1 5 -5 553.24 47
-5 4 -5 575.04 46.8
-4 -1 -5 576.04 51.29
-5 4 -5 608.14 52.09
-1 -4 5 522.85 57.49
-5 1 5 571.14 55.09
5 -1 5 563.84 54.39
1 4 5 604.14 56.09
-5 4 -5 502.35 45.3
-4 5 -5 661.83 55.39
5 -4 5 624.24 56.79
-5 4 5 567.44 58.39
-4 -1 5 578.94 57.99
1 4 -5 561.34 47.8
-4 -1 5 598.14 51.39
1 4 -5 644.94 53.99
-5 4 5 611.54 53.69
1 -5 5 582.44 60.19
-5 1 -5 555.84 50.49
-1 -4 -5 590.14 53.09
4 1 5 615.64 56.79
-4 5 -5 598.74 50.29
-5 4 5 582.44 55.29
-4 5 -5 547.85 49.2
-1 -4 -5 575.54 50.89
-1 5 5 644.64 56.99
-4 -1 5 600.14 53.39
-5 1 -5 626.54 53.99
-1 5 5 596.24 57.49
4 1 5 608.74 55.69
-5 5 -5 233.28 32.7
-5 0 -5 220.08 37.5
-5 5 5 193.78 41.6
-5 0 -5 201.18 31.2
0 -5 -5 193.78 34.3
0 -5 5 185.18 35.8
0 5 5 190.58 34.3
-5 5 5 251.67 39
5 0 5 211.48 35.1
0 5 -5 200.18 32.9
-5 5 -5 192.68 32.1
0 5 -5 191.78 30.7
-5 5 -5 223.58 36.6
5 0 5 234.38 39.6
5 -5 5 205.98 34.4
-5 0 5 175.68 32.2
0 5 5 217.48 36.3
-5 5 5 192.18 31.7
-5 0 5 227.08 34.9
0 -5 5 282.67 35.5
0 5 -5 154.18 26.4
-5 0 5 188.28 33.9
-3 -3 -5 7.3 17.6
-3 -3 -5 -10.5 23.1
-3 6 -5 4.5 18.7
3 3 5 5.7 23.8
-6 3 5 0.4 21.8
-3 6 -5 3.8 14.5
3 -6 -5 0.3 8.6
-3 6 -5 10.5 20.7
3 -6 5 12.6 24.1
-3 6 -5 -0.7 22.6
-3 6 5 13.1 31.9
-6 3 5 2.3 18.8
-3 6 5 25.4 21.9
-6 3 -5 11.6 27.6
3 3 -5 -4.9 17.7
-3 -3 5 17.6 17.5
-6 3 -5 -1.5 18.6
-6 3 5 -0.7 27.5
-3 6 5 14.4 23.7
3 3 5 -14.2 23.2
6 -3 5 21.8 23.5
4 2 -5 118.69 23.6
2 4 5 125.89 31.2
-4 -2 -5 132.99 29.3
-6 4 -5 127.09 25.9
-2 6 -5 119.69 24.9
-2 6 -5 91.89 24.4
-4 6 5 141.79 31.5
-4 -2 -5 126.89 23
-4 6 5 151.18 38.5
-2 6 -5 139.69 27
4 -6 5 135.99 32.9
-6 4 -5 136.19 33
2 4 5 130.89 30.9
-6 2 5 94.99 23.5
-2 -4 5 215.78 33.9
6 -2 5 114.29 27.2
2 -6 -5 82.29 20.5
-6 4 -5 167.28 27.4
-6 2 5 135.69 29.3
-6 2 5 131.59 31.6
-4 6 5 132.09 26.6
-2 -4 -5 113.29 23.3
-4 -2 5 130.59 21.7
-4 6 -5 97.59 28.4
-6 4 5 72.99 22.9
-6 2 -5 152.58 28.1
-4 6 -5 126.19 24.6
2 -6 5 73.59 32
2 4 -5 67.69 20
-4 -2 5 111.99 30.2
4 2 5 66.19 27.5
6 -4 5 96.89 27.4
2 -6 5 108.89 20.3
2 4 -5 111.99 22.8
-6 2 -5 144.59 30.5
-6 4 5 116.39 29.2
-2 6 5 110.39 32.9
4 2 5 88.19 25.1
-4 6 -5 109.49 23.8
-2 6 5 100.09 28.5
-2 -4 -5 110.59 30.4
-6 4 5 96.29 34.6
-2 6 5 92.69 28.9
-6 5 -5 761.02 59.49
-6 5 -5 808.32 62.39
-6 1 5 730.13 63.29
-6 1 5 848.32 68.09
1 5 5 812.32 70.09
-6 1 5 827.12 70.59
-5 6 5 780.22 69.69
-1 -5 5 820.92 60.19
6 -1 5 814.62 69.39
-5 6 5 776.32 73.79
1 5 5 831.82 71.59
-1 6 -5 746.13 61.39
-1 6 -5 864.91 63.29
5 -6 5 782.12 67.09
-1 6 -5 825.42 62.79
-5 6 5 807.72 64.59
-5 -1 -5 750.92 59.99
1 -6 -5 792.72 62.79
-5 -1 -5 732.83 60.19
5 1 -5 681.93 57.89
-6 5 -5 807.32 67.79
-5 -1 -5 835.22 68.49
-5 -1 5 868.51 61.29
5 1 5 821.72 69.59
1 5 -5 703.43 60.19
1 -6 5 757.52 72.19
-5 -1 5 808.72 64.09
-5 6 -5 764.12 62.39
-6 1 -5 782.62 66.29
-1 6 5 833.32 73.59
1 5 -5 874.61 63.09
-6 5 5 718.53 63.39
6 -5 5 684.83 65.79
-5 6 -5 845.02 61.69
5 1 5 816.62 65.79
-6 5 5 841.32 73.99
-5 6 -5 805.82 67.09
1 -6 5 907.71 62.59
-6 5 5 826.22 68.59
-6 1 -5 800.02 63.59
-1 6 5 808.32 68.89
-5 -1 5 719.83 69.09
-1 -5 -5 824.82 64.59
-6 0 -5 2.3 10.6
0 -6 5 47.2 19.8
-6 6 5 32.5 27.5
-6 0 5 -1.5 15.3
0 6 5 -7.1 25.5
0 6 -5 9.9 19.5
0 -6 -5 24 20.5
6 0 5 15.8 23.5
-6 0 5 18.3 23.3
-6 6 -5 29.4 29.6
0 6 5 34.9 26.1
0 6 -5 34 21.4
6 0 5 14.6 21.4
-6 0 -5 19.9 24.9
-6 6 5 31.7 34.1
6 -6 5 9.5 24.5
-6 6 -5 33 20.9
-6 6 5 9.8 18.5
-6 6 -5 32.6 21.9
0 6 -5 23.3 25.4
-6 0 5 10.8 18.4
-6 0 -5 19.9 25.4
-7 4 -5 333.77 36.3
-7 4 -5 357.86 48.1
-3 7 -5 358.76 40.3
3 4 5 343.47 43.5
3 4 5 346.87 54.69
-4 -3 -5 358.96 42.6
-7 3 5 310.57 43.4
4 -7 5 358.16 51.89
-7 3 5 408.46 52.29
-3 7 -5 308.97 36.4
-7 3 5 347.67 43.4
-4 7 5 367.76 49.3
-7 4 -5 358.16 38.9
-3 7 -5 350.06 42.6
4 3 -5 321.47 38.4
-4 7 5 382.56 47.5
-4 7 5 401.66 54.29
-4 -3 -5 333.57 43.7
-3 -4 5 452.35 44.7
7 -3 5 271.77 40.9
-4 7 -5 440.56 42
4 3 5 446.46 58.79
3 -7 5 490.15 59.79
3 4 -5 415.56 43.4
3 -7 5 454.95 42.1
-3 7 5 421.26 52.79
-3 -4 -5 445.86 47.3
4 3 5 384.86 46.7
-4 7 -5 471.85 46.9
-7 3 -5 409.76 41.7
-7 4 5 534.25 59.49
-4 7 -5 450.15 45.3
-3 7 5 434.56 50.79
7 -4 5 333.67 46.4
-3 7 5 468.45 57.89
-7 3 -5 467.65 49.9
-4 -3 5 507.55 44.3
-7 4 5 468.35 50.39
-3 -4 -5 443.06 48.1
-2 7 -5 39.7 23.9
-5 7 5 47 30.1
-7 2 5 36.5 29.6
-5 -2 -5 31.4 22.8
-7 2 5 35.6 23.8
-5 7 5 53.19 36.1
7 -2 5 19.4 22.8
-7 5 -5 34 20
2 -7 -5 14.3 17.5
-7 5 -5 41.9 21.2
-2 7 -5 27.4 23
2 5 5 -1.9 27.2
2 5 5 46 28.5
-2 7 -5 44.7 22.6
5 2 -5 55.59 21.2
-5 7 5 43.1 21.8
-2 -5 5 68.59 21.2
5 -7 5 7.3 22.6
-7 5 -5 44.1 28.4
-5 -2 -5 36.1 25.9
-5 -2 -5 30.6 18.6
-7 2 5 2.1 19.6
2 5 -5 10.2 18.8
-2 -5 -5 20.7 20.2
-5 7 -5 19.4 22.4
-5 7 -5 1.4 21.3
7 -5 5 -8.3 22
-2 -5 -5 15.4 26
-7 5 5 -3.6 17.9
-7 5 5 44.6 34
5 2 5 8.4 25.9
-5 -2 5 9.6 25.6
5 2 5 16.2 22.3
-5 7 -5 5.6 21.8
-5 -2 5 14.8 18.9
-2 7 5 6.1 34.2
2 -7 5 49.8 19.3
-2 7 5 22.2 28.2
-7 2 -5 24.8 25.6
-7 2 -5 28.3 21.8
2 5 -5 8.8 18
-7 5 5 60.89 29.1
2 -7 5 22.9 27.5
-5 7 -5 -5.6 25.5
-5 -2 5 28.8 18.1
-2 7 5 3.5 25.2
1 6 5 1132.19 86.29
-1 7 -5 1157.68 84.19
-1 -6 5 1242.48 81.49
-7 6 -5 1098.19 78.19
1 -7 -5 1162.08 82.49
-6 7 5 1056.59 92.09
-6 -1 -5 1063.59 78.09
-7 1 5 1013.1 86.19
-7 6 -5 1055.39 85.29
-6 7 5 1105.09 89.59
-7 6 -5 1003.1 79.59
-1 7 -5 1007.7 77.79
-1 7 -5 1194.68 80.49
1 6 5 1075.39 90.59
-6 -1 -5 1078.49 78.99
7 -1 5 959.5 84.39
-6 -1 -5 1050.09 83.29
-7 6 5 1166.78 97.49
-1 7 5 1170.18 90.19
1 6 -5 1144.09 81.49
-6 7 -5 1155.48 80.29
1 6 -5 1059.99 79.49
-6 -1 5 1160.58 80.29
-1 -6 -5 1191.18 84.89
1 -7 5 1199.78 80.39
6 1 5 1055.99 91.29
-6 -1 5 1074.69 90.99
-1 7 5 1200.88 92.79
-6 7 -5 1051.09 79.29
-7 1 -5 1125.29 86.19
-6 7 -5 1086.89 82.99
-7 6 5 1125.19 91.99
-7 1 -5 1199.28 83.09
-6 7 -5 981.2 86.39
-7 0 5 153.88 34.5
-7 7 -5 194.08 40.6
-7 7 -5 242.08 34.1
-7 7 5 221.58 41.4
0 -7 -5 252.67 42.2
-7 7 -5 247.58 36.6
0 7 -5 252.97 37.9
-7 7 5 308.97 50.69
-7 0 -5 230.38 36.2
0 7 -5 279.27 36.6
-7 7 -5 223.08 33
0 7 5 301.57 47
0 7 5 220.78 42.2
-7 0 -5 226.48 38.4
4 4 -5 939.91 69.99
-8 4 -5 923.71 70.69
4 -8 5 778.42 76.69
-4 8 -5 995.2 72.29
-4 8 -5 939.01 69.69
-4 8 5 896.71 81.19
-4 8 5 901.41 86.79
-4 -4 -5 1004.7 78.69
-4 -4 -5 1006.4 74.39
-4 8 5 766.12 74.29
-4 -4 5 1090.79 74.89
4 4 5 895.41 85.49
-8 4 -5 931.71 76.29
-4 8 -5 983.3 76.19
-8 4 5 1050.49 82.69
-5 8 5 151.68 43.7
-3 8 -5 153.48 32.4
-3 8 -5 148.19 26
-8 5 -5 160.38 28.8
-8 3 5 109.99 35.7
5 3 -5 198.28 29.2
-5 8 5 156.48 38.1
-8 5 -5 183.88 35.9
-5 -3 -5 139.69 32.6
-5 -3 -5 190.18 28.6
3 -8 -5 123.09 24.5
-3 8 -5 126.59 27.3
3 5 5 125.09 39.2
-8 5 -5 172.18 29.5
-3 -5 -5 142.99 26.8
-8 3 -5 174.68 36.9
-5 8 -5 214.58 31.4
-5 8 -5 215.98 31.9
3 5 -5 231.18 31.8
-5 8 -5 172.78 32.2
-5 -3 5 249.48 41.6
-3 -5 -5 196.68 35.1
-3 8 5 165.88 37.4
3 -8 5 233.38 36.1
3 -8 5 104.09 32.5
-3 8 5 108.19 35
-3 8 5 164.98 47.8
-8 3 -5 223.88 32
-8 5 5 160.58 40.9
-8 6 -5 852.01 77.49
6 2 -5 941.01 69.09
-8 6 -5 939.71 73.39
-2 8 -5 1019.6 76.79
2 -8 -5 1021 75.19
-6 8 5 865.81 82.69
-6 8 5 953.4 86.79
-6 -2 -5 921.11 77.89
-2 -6 5 1014 74.59
-6 -2 -5 914.01 72.99
-6 -2 -5 981.1 72.19
2 6 5 904.11 83.99
-8 2 5 797.32 66.29
-2 8 -5 1009.7 72.99
-8 6 -5 883.61 67.89
-2 8 -5 978.9 71.09
-2 8 5 813.12 80.99
-6 8 -5 967.5 70.49
-8 2 -5 987.6 72.99
-2 8 5 903.61 81.09
-2 -6 -5 946.21 74.09
-6 -2 5 989.7 72.59
2 6 -5 925.11 70.59
-6 8 -5 953.2 71.19
2 -8 5 1010.5 72.59
-2 8 5 940.11 85.89
-8 6 5 960.1 85.19
-8 2 -5 887.11 76.49
-6 8 -5 874.91 74.39
-1 8 -5 355.96 42.1
1 7 5 175.88 42.7
-7 -1 -5 287.87 46.8
-7 8 5 331.47 56.69
-1 -7 5 332.27 44.5
1 -8 -5 320.77 45.2
-7 8 5 198.88 43.4
-8 7 -5 236.18 35
-8 7 -5 264.27 37.6
-7 -1 -5 295.37 37.6
-7 -1 -5 307.67 42.6
-8 7 -5 285.07 36.4
1 -8 5 398.96 45.5
-7 -1 5 269.87 39.5
-1 8 5 237.88 45.9
-1 8 5 311.17 50.19
-7 8 -5 298.37 41.9
-8 1 -5 334.37 43
1 7 -5 336.77 41.4
-8 7 5 309.97 56.09
-8 1 -5 277.47 45
-1 -7 -5 279.67 45.5
-1 8 5 205.68 43.6
-7 8 -5 348.17 38.2
-7 8 -5 334.17 41
0 8 5 -6.7 34.3
-8 0 -5 14.6 27
-8 8 -5 56.09 21.4
-8 8 5 -7.5 33.7
-8 8 -5 39.3 22.6
-8 0 -5 53.09 27.7
0 8 5 -10 25.7
-8 8 -5 25.9 21.8
-8 0 -5 2.7 11.2
0 8 -5 55.99 23
0 -8 -5 24.5 20.8
-8 8 5 38 40.2
0 -8 5 62.49 23.2
-5 9 5 695.73 71.79
-4 -5 5 645.04 58.09
-4 9 -5 593.54 60.99
-5 9 5 677.13 72.79
4 5 5 544.55 68.09
-9 5 -5 555.94 50.89
5 4 -5 745.33 55.99
-4 9 -5 706.23 56.79
-5 -4 -5 557.74 58.69
-4 9 -5 658.03 52.79
-5 -4 -5 655.93 58.39
-9 5 -5 624.74 65.29
-4 9 5 744.83 79.99
-9 4 -5 713.83 66.89
-9 4 -5 779.72 59.29
-4 -5 -5 632.54 63.79
5 4 5 574.44 75.29
4 -9 5 630.34 58.69
-4 9 5 816.12 75.89
-5 9 -5 880.71 63.89
-9 5 5 781.32 57.69
-5 -4 5 781.12 62.59
-4 -5 -5 785.82 65.99
4 5 -5 862.21 62.09
-5 9 -5 732.53 68.49
-5 9 -5 808.12 60.19
-6 -3 -5 434.96 51.99
-3 9 -5 588.84 49.7
-6 -3 -5 578.84 53.09
-9 6 -5 519.95 48.2
-9 6 -5 388.26 54.79
-3 -6 5 562.54 51.69
-9 3 5 452.95 44.1
3 6 5 528.75 67.39
-3 9 -5 637.44 54.09
6 3 -5 614.14 49.9
-6 -3 -5 511.05 52.39
3 -9 -5 593.14 54.39
-6 9 5 574.34 69.49
-6 9 5 562.74 68.29
3 6 -5 626.14 54.39
-9 3 -5 713.83 56.29
-3 9 5 435.16 64.19
-6 9 -5 662.43 54.49
-9 3 -5 560.84 61.09
-6 -3 5 618.34 56.69
3 -9 5 592.14 54.79
-9 6 5 475.85 65.99
-6 9 -5 669.63 53.59
-6 9 -5 580.14 58.79
-3 9 5 516.35 64.39
-3 -6 -5 639.94 57.29
-9 6 5 629.54 49.99
-2 -7 5 189.88 29.9
-9 7 -5 192.08 32.8
-7 9 5 121.19 44.5
-2 9 -5 202.28 35.5
2 7 5 90.69 38
-9 7 -5 163.98 27.8
-9 2 5 185.68 31.2
2 -9 -5 230.68 42.5
-7 -2 -5 195.28 36.9
-2 9 -5 258.67 36.2
-7 -2 -5 209.28 35.6
2 7 -5 255.07 34.8
-7 -2 5 203.98 38.7
-9 7 5 111.49 43.1
-9 2 -5 160.28 39.8
-7 9 -5 201.78 33.7
2 -9 5 242.38 40.6
-9 2 -5 306.07 39.5
-2 -7 -5 240.08 35.9
-9 7 5 173.08 27.4
-7 9 -5 217.28 35
-9 8 -5 202.58 31.6
1 -9 -5 238.38 43.6
-8 -1 -5 229.58 42.3
-1 9 -5 262.77 40.9
-9 8 -5 231.48 35.1
-8 -1 -5 233.08 36.6
-9 1 5 192.58 32.4
-1 -8 5 201.58 38.6
-8 9 -5 205.98 34
-8 9 -5 224.68 37.4
-8 -1 5 187.58 30.9
-1 -8 -5 253.97 36.4
-9 1 -5 221.88 40.2
1 8 -5 255.87 39.1
1 -9 5 149.69 28
-9 0 5 939.91 78.39
-9 9 -5 1113.99 81.19
0 -9 -5 1183.08 88.49
-9 0 -5 1232.08 87.39
-9 9 -5 1050.49 80.99
0 9 -5 1195.78 85.39
-10 5 -5 215.18 32.1
-5 -5 -5 135.49 27
-5 10 -5 145.89 26
-5 10 -5 220.48 33.4
-10 5 5 189.48 31.1
-5 -5 5 141.99 28.1
-4 -6 5 84.29 25.1
-4 10 -5 124.89 25.4
-6 -4 -5 37.7 23.1
-6 -4 -5 107.79 25
-4 10 -5 131.09 28.6
6 4 -5 148.99 27.3
-10 6 -5 139.49 26.9
4 -10 -5 85.79 22.7
-4 10 -5 4 44.3
-10 6 -5 -6 48.8
-6 10 5 0.6 43
-4 -6 -5 73.49 25.9
-6 10 -5 62.99 22.4
-4 10 5 -6.7 32.7
4 -10 5 29.6 18.7
4 6 -5 115.29 27.6
-6 10 -5 75.59 23.2
-10 4 -5 -2.4 27.8
-6 -4 5 37.5 21.8
-6 10 -5 -0.1 26.1
-10 4 -5 99.39 26
-10 6 5 76.69 22.6
-7 -3 -5 225.68 35.4
-3 -7 5 166.08 29.2
-10 7 -5 161.68 27.5
3 -10 -5 145.29 28.6
-10 7 -5 205.98 32.9
-3 10 -5 226.18 37.9
-10 3 5 193.38 31
-3 10 -5 217.78 35.2
-7 -3 -5 249.08 41.1
-3 -7 -5 178.98 31.5
-10 7 5 201.08 33.3
-7 10 -5 226.28 37
-10 3 -5 225.08 35.4
-7 10 -5 216.48 34.3
-7 -3 5 152.58 30.4
3 7 -5 295.47 37.9
-10 8 -5 664.53 58.19
-10 8 -5 610.64 57.19
-8 -2 -5 722.53 62.79
2 -10 -5 793.22 66.39
-8 -2 -5 715.83 64.19
-2 10 -5 748.53 60.69
-10 2 5 701.93 57.29
-8 10 -5 568.74 53.39
-10 2 -5 614.34 57.69
-10 8 5 541.85 48.8
-8 10 -5 642.34 54.49
2 8 -5 589.04 53.29
-8 -2 5 564.44 50.99
-2 -8 -5 612.94 61.69
-10 1 5 182.48 28.3
-9 -1 -5 104.99 22.7
-1 -9 5 121.59 25.3
1 -10 -5 141.19 28.2
-9 -1 -5 168.98 31.8
1 9 -5 223.88 35.1
-9 10 -5 235.18 35.5
1 -10 5 149.69 30.3
-9 -1 5 231.98 32.2
-10 9 5 174.88 30.1
-9 10 -5 206.78 35.5
-10 1 -5 301.87 42.2
-1 -9 -5 170.08 30.9
0 -10 -5 327.07 49.9
0 10 -5 387.46 47.7
-10 10 -5 338.27 41.7
-10 0 5 323.37 39.2
0 -10 5 268.47 46.7
-10 10 -5 338.97 42.9
-10 0 -5 343.87 45
-5 11 -5 416.46 44.2
-11 5 5 407.46 40.7
-5 11 -5 299.97 37.6
-6 -5 -5 418.76 50.59
-5 -6 5 262.67 47.2
-11 6 -5 376.66 41.8
6 5 -5 451.15 44.2
5 6 -5 462.75 48.4
-5 -6 -5 418.36 54.09
-11 5 -5 470.25 45.6
-11 6 5 489.15 46.6
-6 11 -5 506.95 49.9
-4 -7 5 233.78 40.9
-7 -4 -5 377.46 48.2
-7 -4 -5 267.27 40.8
-4 11 -5 353.26 43.4
-4 11 -5 285.77 36.1
-11 7 -5 309.07 38.6
-11 7 -5 243.18 35.3
-11 4 5 213.28 34.3
7 4 -5 350.66 40.1
4 -11 -5 320.77 44.2
4 7 -5 462.55 49.4
-11 4 -5 475.25 46.9
-4 -7 -5 436.36 54.69
-11 7 5 440.56 44.2
-7 11 -5 438.46 46.3
-3 11 -5 356.56 45.5
-11 8 -5 364.36 40.9
-11 8 -5 280.67 39.2
3 -11 -5 353.56 49.5
-3 -8 5 238.18 45.1
-11 3 5 292.07 39.5
-8 -3 -5 301.47 43.4
-8 -3 -5 384.16 49.4
-8 -3 5 467.25 44.3
-8 -3 5 289.27 49.2
-3 -8 -5 397.76 52.19
-8 11 -5 314.27 40.2
-11 8 5 388.96 42.9
-8 11 -5 378.26 43.5
3 8 -5 406.86 44
-11 3 -5 455.15 48.7
-2 -9 5 314.27 49.9
-9 -2 -5 395.76 50.09
-9 -2 -5 458.55 49.7
-11 9 -5 436.36 45.7
-11 9 -5 330.07 43.4
2 -11 -5 467.05 53.09
-11 2 5 382.86 42.9
-2 11 -5 496.55 50.79
-11 9 5 414.26 41
-2 -9 -5 442.76 53.09
-9 11 -5 436.26 45.9
2 -11 5 286.17 48.5
-11 2 -5 445.56 47.4
-9 -2 5 427.76 43.6
-9 -2 5 272.77 49.3
2 9 -5 390.26 46.6
-9 11 -5 319.67 41.6
-1 11 -5 6.1 25.3
-10 -1 -5 -9.1 24.8
-11 10 -5 6 24.1
-11 1 5 -2.9 21.3
1 -11 -5 5.6 21.5
-10 -1 -5 2.3 17.2
-1 -10 5 7.8 20.5
-11 10 -5 8.3 22.8
-11 10 5 39.1 22.1
1 10 -5 56.09 28.7
-11 1 -5 34 29.2
-10 -1 5 24.5 21.5
-10 11 -5 43.9 24.8
-10 11 -5 24.7 23.6
1 -11 5 9.4 22.2
-1 -10 -5 25.4 22.6
-11 11 -5 36.3 25.5
-11 0 5 43.5 23.5
-11 0 -5 46.5 28.7
-11 11 -5 71.29 26.2
0 11 -5 74.19 29.9
0 -11 5 13.9 20.7
0 -11 -5 44 23.8
-11 11 5 4.2 17.1
-12 6 -5 45 24.4
6 6 -5 32.8 21.1
-6 -6 -5 35.1 24.2
-6 12 -5 36.3 25.1
-12 6 5 42.1 23
-6 -6 5 26.5 23.2
7 5 -5 171.58 30.7
-12 5 5 144.69 26.9
-12 7 -5 108.89 26
-12 7 -5 42.5 22.8
-5 12 -5 110.69 27.1
-7 -5 -5 77.09 24.7
-5 -7 5 105.49 25.7
-7 -5 -5 84.69 25.9
-7 12 -5 136.09 30.5
-5 -7 -5 104.89 29.3
-7 -5 5 62.09 26.1
-12 5 -5 103.49 27
-12 7 5 85.79 25.5
5 7 -5 171.88 32.9
-7 -5 5 148.69 29.2
-12 4 5 191.48 35.2
-12 4 5 208.08 31.4
-12 8 -5 174.88 30.8
-4 -8 5 270.97 37.7
-12 8 -5 215.58 36.1
4 -12 -5 181.98 32.3
-4 12 -5 244.98 40.2
-8 -4 -5 195.98 34.8
-8 -4 -5 245.88 45.3
-12 4 -5 211.28 36
-4 -8 -5 172.78 34.8
-12 8 5 137.59 27.3
-8 -4 5 249.18 35
-8 12 -5 196.78 34.4
4 8 -5 163.58 32.3
-12 3 5 50.49 23.6
3 -12 -5 34.3 23.2
-9 -3 -5 65.39 27.9
-12 9 -5 44.1 24.5
-3 12 -5 76.99 27.8
-3 -9 5 67.99 25.7
-9 -3 -5 44 24.6
-12 9 -5 71.89 26.8
-9 12 -5 26 23.5
-3 -9 -5 28.9 24.3
-9 -3 5 10.1 22.9
-12 3 -5 23 26.3
-9 -3 5 72.79 25.8
-12 9 5 39.4 21.2
3 -12 5 -4 20
3 9 -5 8.6 25
2 -12 -5 163.08 31.1
-12 10 -5 176.98 32
-2 -10 5 172.78 32.1
-12 2 5 160.18 31.2
-12 10 -5 125.09 29.6
-10 -2 -5 202.18 38.1
-2 12 -5 140.59 31.3
-12 2 -5 174.48 34.5
-12 10 5 123.09 27.8
2 -12 5 119.99 29.2
-2 -10 -5 186.88 34.4
-10 -2 5 138.79 27.6
-10 12 -5 201.28 34.3
1 -12 -5 435.16 51.69
-1 -11 5 347.47 51.89
-12 1 5 351.26 43.9
-1 12 -5 410.86 50.89
-12 11 -5 335.67 44.3
-12 11 -5 343.37 46.9
-11 -1 -5 397.26 52.99
-12 1 -5 375.26 52.89
1 11 -5 393.96 50.79
-11 12 -5 339.97 47.4
-1 -11 -5 364.66 50.79
1 -12 5 313.27 51.89
-11 -1 5 378.86 43.7
-12 11 5 312.57 42.7
-12 12 -5 2.2 21.3
0 12 -5 26.9 28.8
0 -12 5 -0.7 21.7
-12 12 -5 30.2 27.1
-12 0 5 10.3 22.3
-12 12 5 -10.4 18.7
-12 0 -5 -9.1 28.9
0 -12 -5 27 23.3
-13 7 -5 107.29 29.3
-13 6 5 136.59 29.7
-6 -7 5 78.59 25.9
-6 -7 5 124.89 30.6
-6 13 -5 100.09 28.1
-7 -6 -5 99.99 29.5
7 6 -5 132.79 32.7
-6 -7 -5 90.19 26.8
-7 13 -5 167.48 31.8
6 7 -5 119.59 28.9
-13 6 -5 163.78 33
-7 -6 5 119.49 29.6
-13 7 5 87.99 25.1
-8 -5 -5 109.89 27.9
-13 8 -5 104.19 27.8
-8 -5 -5 160.08 31.1
-5 13 -5 183.98 31.2
-8 -5 5 282.97 40.4
5 8 -5 226.38 36.5
-5 -8 -5 216.08 35.5
-13 8 5 216.98 37
-13 5 -5 271.47 42.9
-8 13 -5 240.58 39.2
-8 -5 5 155.28 32.4
-4 -9 5 186.08 31.3
-13 9 -5 134.59 30.1
4 -13 -5 140.99 29.2
-9 -4 -5 115.99 30.1
-13 4 5 118.99 27.9
-13 9 -5 190.28 33.2
-13 4 5 249.68 35.9
-9 -4 -5 174.48 32.6
-9 -4 5 268.07 50.29
4 9 -5 285.77 45.9
-13 4 -5 290.47 43.1
-4 -9 -5 303.07 48.7
-9 -4 5 299.27 38.5
-9 13 -5 276.67 42.3
-13 9 5 230.58 39.8
-13 10 -5 237.08 36.4
-13 3 5 221.08 37.9
-10 -3 -5 160.18 31.9
3 -13 -5 224.58 43.3
-13 10 -5 234.58 40.2
-3 -10 5 241.98 44.3
-3 13 -5 294.57 45.4
-10 -3 -5 226.68 38.3
-3 -10 -5 288.57 49.2
-10 13 -5 270.07 43.6
3 10 -5 401.46 50.39
-13 3 -5 309.67 46.8
-13 10 5 263.77 40.3
-10 -3 5 349.57 42.7
-2 -11 5 11.7 22.5
-13 11 -5 38.3 26.6
-2 13 -5 29.6 27.8
-11 -2 -5 4 27.1
-13 11 -5 18.9 24.3
-13 2 5 15.4 23.8
2 -13 -5 27.4 21.4
2 11 -5 17.6 30.5
-13 2 -5 15 30.5
2 -13 5 1.1 21.6
-11 -2 5 24.9 24.2
-13 11 5 4.2 23.7
-11 13 -5 4.1 26
-2 -11 -5 8.4 21.9
1 12 5 -0.7 23.8
13 -12 -5 15.3 16
1 -13 -5 61.29 24
12 1 -5 34.2 17
-13 12 -5 80.79 30.2
-13 12 -5 0.3 23
-13 1 5 54.89 24.8
-1 -12 5 44.2 24.2
-1 13 -5 113.49 35.9
-12 -1 -5 66.59 30.1
-1 13 -5 10.5 16.1
-12 -1 5 118.69 30
-13 12 5 62.89 25.9
-13 1 -5 169.88 39.4
-1 -12 -5 86.09 25.1
-12 13 -5 101.79 30
1 12 -5 176.58 38.5
1 -13 5 89.89 28
0 13 -5 83.79 24.5
13 -13 -5 68.59 22.8
13 0 -5 86.09 22
-13 0 5 66.09 26.1
0 -13 5 66.29 26.8
-13 13 -5 112.69 32.3
-13 0 -5 113.79 37.2
0 13 -5 110.99 34.7
0 -13 -5 71.29 25.2
-13 0 -5 27.4 20
0 13 5 88.59 25.9
-14 7 5 -1.1 22.5
-7 -7 -5 -10.4 21.7
-7 -7 5 2.4 23.2
-14 7 -5 5.8 23.2
-7 -7 5 16.4 25.7
7 7 -5 7.5 25.6
-7 14 -5 10.7 24.6
-14 8 -5 -0.2 25.1
-6 -8 5 -4 20.9
-14 8 -5 -10.8 23.7
-6 14 -5 0.1 23.9
-8 -6 -5 15.4 23.4
-8 -6 -5 -1.6 26.6
-6 -8 5 9.2 25.7
-14 6 5 -0.5 24.1
-8 14 -5 22 25.3
-6 -8 -5 11.9 21.9
-8 -6 5 1.6 23.6
-14 8 5 5.4 22.3
6 8 -5 10.1 26.2
-14 6 -5 2.3 23.5
-8 -6 5 21.9 25.1
-5 -9 5 47.6 24.9
-5 -9 5 62.39 27.7
-5 14 -5 71.29 30.4
-14 5 5 -3 18
9 -14 5 -9.2 15.5
-9 -5 -5 30.7 24.1
-14 5 5 44.6 25.5
-9 -5 -5 19.1 24.4
9 5 -5 4.6 19.2
-14 9 -5 14.8 25.6
-14 9 -5 51.19 26.9
-9 14 -5 63.39 27.1
-9 -5 5 28.8 25
-14 5 -5 77.39 32.1
-14 9 5 49.4 24.9
5 9 -5 54.89 29.6
-5 -9 -5 65.49 27.6
-9 -5 5 32.7 24.1
-4 -10 5 5 24
10 4 -5 1.6 15
14 -10 -5 9.6 15.8
-14 4 5 17.1 24.8
-4 -10 5 2.9 22
-14 10 -5 16.7 25.9
-10 -4 -5 4.1 23.6
-4 14 -5 7.3 26.6
-14 10 -5 8.5 25.4
10 -14 5 -10.1 13.9
-10 -4 -5 9 25.1
-14 4 5 -1.4 22.9
4 -14 -5 -0.2 20.7
-4 14 -5 -2.6 16.2
4 -14 5 -20.8 19.6
-14 4 -5 39.1 30.7
-14 10 5 25.6 24.2
-10 -4 5 -18 21.5
-4 -10 -5 29.3 24.2
-4 14 5 13.2 16.9
4 10 -5 29.8 30.5
4 10 -5 -1.1 14.4
-14 4 -5 -5.5 13.8
-10 -4 5 19.9 24.7
-10 14 -5 6.5 23
-3 14 -5 145.59 33.8
-3 14 -5 202.58 27.8
-14 3 5 157.98 33.3
-14 11 -5 158.18 34.5
-3 -11 5 148.39 31.2
3 -14 -5 125.59 28.8
-14 11 -5 102.39 29.6
-11 -3 -5 144.19 33
11 3 -5 215.28 27.2
-3 -11 5 79.99 27.3
-14 3 5 176.38 33.7
3 11 -5 229.58 39.8
-14 3 -5 118.99 24.7
-3 14 5 216.88 34.5
-11 14 -5 138.49 30.5
3 11 -5 168.08 25.3
14 -3 -5 108.09 19
3 -14 5 92.29 26.9
-14 11 5 142.49 30.8
-14 12 -5 29.4 28.5
2 -14 -5 22.7 21.1
-2 -12 5 -0.9 20.8
-12 -2 -5 37.7 29.2
-14 2 5 25.7 25.2
-2 14 -5 45.2 32.3
12 2 -5 47.2 21.9
-2 14 -5 45 22.1
-2 -12 5 50.59 25.3
2 12 5 17.7 23.3
14 -12 -5 31.4 21
2 12 -5 6.5 31.2
-12 14 -5 -2.2 13.5
14 -2 -5 19.6 18.7
-14 2 -5 25.9 32.7
-2 14 5 13.6 24.5
-2 -12 -5 21.7 21.6
-14 12 5 14.2 25.1
-14 2 -5 6.6 20.5
-12 -2 5 27.6 23.5
2 12 -5 7.5 20.3
2 -14 5 -3.8 21.7
-12 14 -5 22.4 27.9
12 -14 -5 21.6 23.9
-1 -13 5 60.89 28.8
-13 -1 -5 35 20.5
-1 14 -5 83.89 33.1
1 -14 -5 39.2 22.2
-14 13 -5 55.69 30.4
-14 1 5 57.99 27
14 -13 -5 56.09 22.7
-13 -1 -5 92.99 34.1
13 1 -5 57.39 21.4
1 13 5 96.49 28.3
-14 13 -5 -5.6 19.6
-1 14 -5 63.99 24
1 13 -5 123.69 27.9
-13 14 -5 97.99 33
-14 1 -5 154.18 40
-13 -1 5 125.09 31.8
1 13 -5 106.79 34
13 -14 -5 90.59 26.5
-13 14 -5 69.49 19.6
-14 1 -5 73.89 24
-1 14 5 114.59 28
1 -14 5 41.4 26.3
14 -1 -5 72.09 22.3
-1 -13 -5 70.39 24.5
-14 0 -5 3.5 28.4
14 -14 -5 -14.3 22.1
14 0 -5 0.2 19.9
0 14 -5 -19 23.2
-14 14 -5 -8.7 19.3
0 14 -5 -5.7 28.1
14 0 -5 -0.5 16.8
0 -14 -5 21 22.5
0 -14 5 -13.3 22.9
-14 0 5 1 25
-14 14 -5 6.9 29.7
-14 0 -5 20.6 22.7
0 14 5 3.9 24.7
8 7 -5 27.3 19.3
-7 -8 5 1.2 23.5
15 -7 5 40.3 19.2
-7 15 -5 64.39 29.2
8 -15 5 41.4 20.1
-8 15 5 39.3 25
-15 7 5 46.3 25.6
-7 15 -5 40.6 22.5
7 -15 -5 39.1 20.8
-7 -8 5 46 27.1
-8 -7 -5 23.1 24.2
15 -8 -5 29.6 20.1
-15 8 -5 21.2 25.5
-8 15 -5 42.9 21.4
7 8 -5 35.6 29.7
-15 7 -5 14.8 25.2
-8 -7 5 5.1 24.1
7 8 -5 31.8 20
-8 15 -5 29.6 25.7
7 -15 5 17.7 18
-7 15 5 21.5 23.4
-15 8 5 26.8 25.6
8 -15 -5 27.5 19.6
15 -7 -5 30.7 17.9
15 -8 5 57.99 20.9
-8 -7 5 30.6 26.3
-15 7 -5 -3.8 16.9
-7 -8 -5 31.7 25
-15 9 -5 -2.7 25.4
6 -15 -5 -12.4 17.3
-6 15 -5 -3.1 26.7
-9 -6 -5 14.3 24.3
-6 -9 5 1.4 23
-6 15 -5 -2.2 19.9
6 9 5 -9.3 17.3
9 6 -5 -3.1 19.3
-15 6 5 6.3 24.8
15 -9 -5 7.1 20.7
9 -15 5 10.5 18.4
-15 9 -5 -14.4 25.5
15 -6 5 -2.8 18.1
-6 -9 5 25.2 27.7
-9 15 -5 19.1 20.3
-15 6 -5 -7.1 16.6
-9 -6 5 -4.6 23.7
-6 -9 -5 20.7 23.5
15 -6 -5 14 17.1
6 9 -5 5.1 20.4
-15 9 5 12.2 23.5
-6 15 5 -6.1 23.5
9 -15 -5 -2.4 19.3
-9 15 -5 26.5 26.3
6 -15 5 -5.8 13.9
15 -9 5 -4.4 18.3
-15 6 -5 0.4 25.3
6 9 -5 -2.5 29.2
-9 -6 5 2 25.6
10 5 -5 43.9 23.2
-15 10 -5 45.9 28.3
5 10 5 53.29 25.3
15 -10 -5 3.2 14.9
-10 -5 -5 29.9 25
-5 15 -5 45.8 22.7
-10 -5 -5 32.6 26.1
-15 10 -5 33.1 28.5
15 -5 5 51.19 19.4
-15 5 5 -7.1 24.6
10 -15 5 51.89 20.8
15 -10 -5 58.59 23.9
-15 5 5 42.6 27.9
5 -15 -5 16.6 15.7
-5 -10 5 47.5 28
-5 -10 5 63.39 28.1
-5 15 -5 60.59 31.2
15 -10 5 46.7 19.5
10 -15 -5 64.29 23.1
-15 5 -5 50.69 23.9
-10 15 -5 56.29 22.1
-10 -5 5 17.7 24.9
-5 -10 -5 52.99 25.2
5 10 -5 73.79 23.4
-5 15 5 93.59 27.6
-15 5 -5 60.89 32.3
-15 10 5 91.49 28.8
15 -5 -5 59.39 19.4
-10 15 -5 90.49 32.5
-10 -5 5 99.49 32
5 10 -5 67.49 31.8
-4 -11 5 167.28 34.7
-15 11 -5 111.49 32.7
11 -15 5 127.59 22.9
-4 15 -5 133.99 35.4
-15 4 5 105.39 30.2
15 -11 -5 176.18 29.3
15 -4 5 130.89 23.4
4 11 5 198.48 32.9
-15 4 5 127.69 32.3
11 4 -5 160.88 26.8
-4 15 -5 210.88 30.5
-11 -4 -5 119.79 31.5
15 -11 -5 149.39 27.1
-4 -11 5 125.09 31.3
-15 11 -5 91.49 28.9
4 11 -5 178.58 29.8
-11 15 -5 163.98 26.4
-11 -4 5 199.28 35.3
11 -15 -5 95.99 25.3
-15 4 -5 178.88 39.8
-4 -11 -5 117.09 28
15 -4 -5 123.49 23.3
15 -11 5 63.69 19.6
11 -15 -5 84.39 23
-15 4 -5 181.48 30.3
-4 15 5 106.79 25.9
-15 11 5 111.09 31.4
4 11 -5 83.29 33.4
-11 15 -5 133.49 32.8
3 -15 -5 99.49 27.1
-15 3 5 137.49 32.7
-3 -12 5 186.08 36
-3 15 -5 150.58 26.9
-15 12 -5 139.79 36.2
-3 15 -5 158.98 36.9
15 -12 -5 159.18 28.4
3 12 5 143.99 30.3
-12 -3 -5 128.59 34.4
12 3 -5 201.88 29.3
12 -15 5 162.78 24.7
-15 3 5 164.38 36.2
3 12 -5 92.89 35.6
-12 -3 5 150.68 32.6
12 -15 -5 148.29 30.3
3 12 -5 156.58 28.3
15 -3 -5 115.89 23.3
-12 15 -5 131.79 24.6
-15 12 5 125.69 31.3
-15 3 -5 134.39 27
-15 3 -5 223.28 45.6
-12 15 -5 135.49 33.2
-3 15 5 194.48 32.5
15 -3 -5 85.39 23.8
-3 -12 -5 153.68 31.7
-15 2 5 69.39 28.3
-15 2 5 69.19 32
-15 13 -5 45.3 29.8
2 13 5 121.19 31.3
15 -2 5 60.89 19
2 -15 -5 37.5 22.6
-2 15 -5 91.69 25.2
-15 13 -5 13.5 16.9
-13 -2 -5 92.19 34
-2 15 -5 91.79 35.1
-2 -13 5 42.3 24.8
-13 -2 -5 76.09 22
15 -13 -5 88.49 25.9
13 -15 5 51.29 17.9
13 2 -5 104.89 23.8
15 -2 -5 125.49 25.8
-2 15 5 128.19 27.8
-2 -13 -5 99.79 27.5
13 -15 -5 124.59 30.7
-15 13 5 67.49 27.9
-13 15 -5 65.99 29.6
-15 2 -5 138.59 41.4
2 13 -5 118.39 38.8
15 -2 -5 107.89 22.3
-13 -2 5 113.59 31.3
2 13 -5 118.89 26.8
-15 2 -5 98.89 25.9
-13 15 -5 132.59 26.1
1 14 5 104.99 30.1
-1 -14 5 39.9 25.5
14 1 -5 72.09 23.8
-15 1 5 99.09 31
15 -14 -5 103.99 25.6
14 1 -5 128.89 24.8
1 -15 -5 79.59 24.9
-15 14 -5 103.39 25.6
-14 -1 -5 111.59 26
-15 14 -5 101.59 35.5
-1 15 -5 97.59 35.1
-1 15 -5 113.09 26.8
-14 -1 -5 83.89 33.2
-1 -14 -5 82.89 26.5
-14 15 -5 60.09 30.9
-15 1 -5 89.69 37.4
1 14 -5 80.79 36.9
14 -15 -5 104.19 29
15 -1 -5 76.09 25.1
-14 -1 5 52.29 26.8
1 -15 5 44.8 25.8
-14 15 -5 85.09 23.7
-15 1 -5 106.79 27.2
1 14 -5 71.09 24.3
-1 15 5 93.69 28.7
15 -1 -5 96.09 23.4
-15 0 -5 210.98 29.2
15 -15 -5 272.47 34.5
15 0 -5 150.88 25.1
-15 0 5 178.78 36.2
-15 0 -5 231.58 44.6
15 0 -5 172.88 31.2
0 15 -5 221.78 44.9
0 -15 5 132.59 33.1
0 -15 -5 122.89 28.5
-15 15 -5 137.79 36.6
0 15 -5 215.68 30.3
0 15 5 230.48 34.3
-15 15 -5 171.88 27.2
16 -8 5 70.19 22.8
-8 -8 5 47 27.1
-8 -8 -5 43.5 24.4
16 -8 -5 62.29 24
-8 16 -5 51.69 30.7
8 -16 5 87.29 22.9
8 8 5 57.99 27.4
8 8 -5 76.79 25.4
-8 16 -5 111.09 26.2
-16 8 -5 44.4 17.9
-16 8 -5 35.5 28.2
8 -16 -5 31.2 20.8
-16 8 5 69.39 29.2
-8 16 5 80.19 28.5
-8 -8 5 74.49 31
16 -9 -5 15.7 22.8
9 7 -5 6.2 22.8
-9 -7 -5 48.9 25.9
-9 16 5 16.5 24.1
9 -16 5 43.7 21.2
7 -16 -5 16.9 19.5
-7 16 -5 29.7 29
-16 7 5 8.8 24.8
16 -7 5 15.8 20.1
7 9 5 -6.8 25.8
-7 16 -5 26 21.6
-7 -9 5 41.8 28.7
-7 -9 5 -21.2 22.4
-16 9 -5 26.1 27.5
16 -9 5 15.4 20.2
16 -7 -5 18.9 22.6
-16 9 5 35.9 25.9
7 -16 5 3.9 20.9
-9 -7 5 -22.1 23.3
-16 7 -5 4.2 20.1
-7 -9 -5 17.8 21.9
-9 16 -5 13.1 21.2
9 -16 -5 7.3 19.8
-7 16 5 14.8 26.4
9 7 5 11.6 22.4
-9 16 -5 21.4 28.1
-9 -7 5 27.2 29
7 9 -5 -7.9 20.4
-16 7 -5 7.8 28
-16 10 -5 -8 28.2
16 -10 -5 28.8 21.5
-6 16 -5 35.4 23.4
-6 16 -5 29.5 27.7
6 10 5 43.5 28.3
6 -16 -5 32.7 20.2
10 6 -5 33.7 23.9
16 -6 5 59.49 22.4
-6 -10 5 34.7 26.7
16 -10 -5 19.3 22.6
-6 -10 5 21.8 24.1
10 -16 5 55.59 21.4
-16 6 5 16.7 27.7
-16 10 -5 17.6 26.6
-10 -6 -5 24.3 25.1
10 -16 -5 7.2 18.2
16 -10 5 29.7 22.9
-16 10 5 27.2 27.2
-10 16 -5 24 27.8
-16 6 -5 20.6 21.6
-6 -10 -5 29 24.1
10 -16 -5 29.2 21
-10 -6 5 19.8 28.3
10 6 5 -3.8 18.7
6 -16 5 46.8 21.6
16 -6 -5 17.9 21.1
-10 16 -5 21.7 20.6
6 10 -5 35.5 24.6
-6 16 5 28.8 25.6
-16 6 -5 25.6 31.4
6 10 -5 20.3 31.6
-10 -6 5 -13.3 23.6
-5 16 -5 48.6 29.9
16 -5 5 59.09 21.3
11 -16 5 78.09 22.4
-5 -11 5 23.5 24.9
5 11 5 55.89 31.8
16 -11 -5 63.99 24.8
16 -11 -5 58.39 24.5
-16 5 5 38.2 28.8
11 5 -5 46.8 23.7
-5 -11 5 45.8 26.4
-11 -5 -5 -5 24.2
-5 16 -5 72.29 24.9
-11 -5 -5 0.8 21.9
-16 11 -5 5.3 23
5 -16 -5 54.59 21.3
-16 11 -5 16.7 28.7
-11 -5 5 54.59 27.7
16 -5 -5 83.89 24
-16 5 -5 79.99 25.3
-5 16 5 94.39 27
5 -16 5 58.99 20
16 -11 5 103.99 25.1
-16 11 5 60.69 28
5 11 -5 89.39 26.7
-16 5 -5 120.49 37.7
11 -16 -5 102.79 25.9
5 11 -5 52.99 34.4
-11 16 -5 75.89 32.3
11 -16 -5 78.39 26.9
-11 16 -5 58.29 23.6
-5 -11 -5 46.9 24.1
16 -4 5 71.19 22.6
12 -16 5 107.69 23
-16 4 5 113.89 33.9
4 -16 -5 49.2 19
-12 -4 -5 65.09 27.9
4 12 5 77.89 29.5
-16 12 -5 8.3 29.1
12 4 -5 67.09 22.7
-4 -12 5 66.49 28.7
-4 16 -5 68.09 32.9
-4 16 -5 79.39 24.6
16 -12 -5 78.59 24.5
-12 16 -5 83.49 25.3
-12 16 -5 49.7 28.9
16 -4 -5 64.39 22.7
-4 16 5 60.89 24.6
-16 4 -5 90.69 27.1
12 -16 -5 55.59 24.9
-16 4 -5 28.5 32.8
16 -12 5 54.09 23.7
-4 -12 -5 60.99 26.1
-16 12 5 21.4 26.9
-12 -4 5 98.59 31.4
12 -16 -5 41 25.9
4 12 -5 52.49 34.7
4 12 -5 84.29 26.8
13 -16 5 161.78 24.3
16 -13 -5 180.08 28
-16 3 5 217.58 38.9
-13 -3 -5 102.69 31.3
-16 3 5 135.89 32.1
-16 13 -5 111.29 34.1
-13 -3 -5 154.18 24.8
-3 -13 5 143.29 32.6
-3 16 -5 252.97 44.4
16 -3 5 152.18 25.2
-16 13 -5 193.98 26.8
-3 16 -5 184.48 28.1
3 13 -5 192.18 31.3
3 13 -5 220.28 45.9
-13 -3 5 233.98 41.5
16 -13 5 239.08 32.2
-3 16 5 244.18 40.9
-16 3 -5 302.97 36
-16 3 -5 301.87 51.99
13 -16 -5 214.68 32.9
16 -3 -5 253.37 33.7
-13 16 -5 214.08 29.9
-13 16 -5 216.68 40.7
16 -2 5 66.19 20.7
-16 14 -5 95.69 25
-16 2 5 61.59 28.6
-2 16 -5 91.49 34
14 2 -5 79.09 26.5
-2 16 -5 143.09 27.4
-14 -2 -5 88.19 22.8
-2 -14 5 75.19 30.3
14 2 -5 114.99 23.9
-16 2 5 100.99 34.3
2 14 5 137.29 31.8
-14 -2 -5 71.89 31.2
16 -14 -5 102.79 25.9
14 -16 5 62.49 20.6
-16 14 -5 54.69 32.8
2 14 -5 39.5 34.2
-2 16 5 75.39 26.9
16 -2 -5 66.69 25.6
2 14 -5 66.19 24.1
-16 2 -5 40.4 34.5
16 -14 5 43 23.1
-14 16 -5 64.39 30.3
-16 2 -5 104.09 26.5
-2 -14 -5 41.5 22.4
14 -16 -5 67.99 26.9
-14 16 -5 78.09 22.6
-14 -2 5 71.49 29.4
14 -16 -5 18.6 19.7
-15 -1 -5 75.09 33.8
-1 16 -5 86.09 36.6
16 -15 -5 84.49 24.6
-16 1 5 61.69 29.8
-15 -1 -5 75.29 23.1
15 -16 5 30.2 17.7
15 1 -5 36.5 24.8
-16 15 -5 50.99 22.6
1 15 5 69.69 26.6
-1 -15 5 21.2 26.8
16 -1 5 52.39 19.4
-16 1 5 47.5 29.4
15 1 -5 55.29 20.7
1 -16 -5 25 20.9
-1 16 -5 58.79 21.4
-16 15 -5 58.79 32.4
15 -16 -5 56.89 26.9
-15 16 -5 79.99 23.5
-1 -15 -5 59.89 24.9
16 -1 -5 51.89 25
1 15 -5 50.09 21.8
-15 16 -5 58.59 30.9
1 15 -5 112.19 38.3
-16 1 -5 86.99 36.2
16 -1 -5 109.69 23.6
-15 -1 5 62.59 28.6
-16 1 -5 68.69 23.3
-1 16 5 100.79 27.2
0 16 -5 67.79 34.5
-16 0 -5 75.29 22.2
16 -16 -5 93.69 27.2
0 -16 -5 28 20.4
16 0 -5 92.99 23.6
16 0 -5 99.69 27.6
-16 0 5 54.19 26.7
-16 16 -5 43.4 28.8
-16 0 5 51.19 30.5
0 16 5 130.09 29.6
-16 16 -5 77.29 23.5
0 16 -5 83.69 23.8
-16 0 -5 89.19 34.4
17 -9 -5 4 17.4
-8 17 -5 54.89 32.2
-17 9 -5 42.5 18.8
-17 8 5 56.29 27.2
-8 17 -5 42.9 21.7
-9 17 5 44.5 27.8
17 -9 -5 34.8 23.8
-9 -8 -5 34.9 24.5
8 -17 -5 44.3 21.7
-8 -9 5 -2.2 24.9
8 9 5 0.8 26.6
9 8 -5 40.7 22.8
-17 9 -5 19.9 29.4
9 -17 5 66.39 22.1
-8 -9 5 30.2 28.4
17 -8 5 66.59 23.1
8 9 -5 58.89 24.3
-9 -8 5 64.49 31.5
-8 -9 -5 44.8 24.2
-9 17 -5 58.89 22.9
8 -17 5 64.79 22.3
9 8 5 33.2 26.9
-9 -8 5 16.7 26.9
-17 8 -5 21.6 19.8
-17 9 5 26.6 26.1
-17 8 -5 32.8 30.9
17 -8 -5 45.5 23.1
-9 17 -5 28 28.1
17 -9 5 56.99 23.4
-8 17 5 54.29 26.1
9 -17 -5 63.09 22.1
-7 -10 5 17.6 27.3
17 -10 -5 10.9 22.3
-7 17 -5 15.9 22
-10 17 5 29.7 26.2
10 7 -5 15.5 21.7
-10 -7 -5 8.7 23.3
17 -7 5 24.9 21.3
7 -17 -5 19.2 21.4
-7 17 -5 20.7 28.1
-7 -10 5 -10.8 24.2
-17 10 -5 15.3 25.6
7 10 5 33.7 29
-17 7 5 13.8 27.1
10 -17 5 49.4 21.4
17 -10 -5 8.2 22.5
-17 10 -5 -5.2 12.1
17 -7 -5 12.2 21.9
-10 -7 5 12.3 27.2
-10 17 -5 14 26.8
-17 10 5 15.1 26.1
10 -17 -5 25 21.1
-7 -10 -5 25.3 22.4
10 7 5 14.9 26.2
-10 -7 5 -38.3 22.6
-17 7 -5 13.6 22.2
17 -10 5 10.4 22
-10 17 -5 47.4 23.2
10 -17 -5 10 16.8
7 -17 5 13.9 21.4
-7 17 5 18.6 24.2
-17 7 -5 10.3 31.7
7 10 -5 4.5 22.5
11 6 -5 55.09 23
-6 17 -5 103.19 26
17 -11 -5 112.19 27.7
11 -17 5 111.59 23.5
-6 -11 5 36.7 26.3
17 -11 -5 64.49 25.8
-6 17 -5 84.09 34.5
-17 6 5 81.59 31.2
17 -6 5 98.29 25.2
6 11 5 120.19 33
6 -17 -5 79.29 22.1
-11 17 5 85.59 29.2
17 -6 -5 80.59 24.2
-17 6 -5 67.59 36.5
-6 -11 -5 70.09 26.9
-6 17 5 94.99 26.5
-11 17 -5 75.29 30.6
-11 -6 5 41.2 28.5
-17 6 -5 50.79 23.9
6 -17 5 85.39 23.1
11 6 5 71.19 27
11 -17 -5 72.79 28.2
6 11 -5 56.69 24.2
-11 17 -5 66.39 23.1
-17 11 5 73.79 30.2
17 -11 5 69.89 23.8
6 11 -5 70.19 37.4
11 -17 -5 106.79 25.6
-5 17 -5 16.2 21.2
-5 17 -5 -6.2 29.5
17 -12 -5 10.1 22.6
5 12 5 21.4 27.8
-5 -12 5 -14.9 24.2
-17 12 -5 -4.7 29.1
12 5 -5 4.9 20.5
17 -5 5 -1.5 20.9
12 -17 5 21 20.8
17 -12 -5 -1.5 12.9
-17 12 -5 -5.7 15.1
-17 5 5 14.2 28.1
5 -17 -5 15.6 19.4
12 -17 -5 13.1 25.8
5 12 -5 26.1 22.8
-17 12 5 0.4 25.7
-17 5 -5 16.3 22.2
5 -17 5 19.1 20.8
-12 17 -5 22.3 29.3
-12 17 -5 8.2 22.4
12 -17 -5 18.2 21.8
-5 -12 -5 35.7 23.5
-12 -5 5 16 28.7
17 -12 5 16.2 22.7
12 5 5 -4.2 25.9
5 12 -5 -9.9 33.5
-5 17 5 31.4 23.8
17 -5 -5 29.4 22.6
-17 5 -5 -4.5 32.8
4 13 5 13 28.1
-17 4 5 0.2 28.5
-17 13 -5 -19 27.4
-4 17 -5 12.5 20.2
17 -13 -5 11.9 16.3
-4 17 -5 36 32.2
17 -13 -5 13.3 22.1
-13 -4 -5 -1.9 23.8
13 -17 5 17.8 19.8
13 4 -5 19.6 22.1
-17 13 -5 5.7 20.6
-4 -13 5 -17.4 25
17 -4 5 10.3 21.1
4 -17 -5 10.5 18.3
13 4 -5 21.7 20.2
-13 -4 -5 6.3 17
-17 4 5 -12.3 15.1
-17 13 5 -1 23.8
17 -13 5 32.9 24.2
-17 4 -5 25.7 21.9
13 -17 -5 27.3 25
-13 17 -5 29.6 30.9
-4 17 5 22.3 23.3
17 -4 -5 35.3 23.1
-13 17 -5 50.59 22.7
4 13 -5 34.1 34.9
13 4 5 23.2 24.3
-13 -4 5 31.9 27.8
-17 4 -5 23.1 32.9
13 -17 -5 64.89 24.1
-4 -13 -5 28.4 22
-17 13 5 48.7 21.3
4 13 -5 0.4 19.8
14 3 -5 49.2 25.8
-17 3 5 77.09 32.5
-14 -3 -5 73.29 20.6
17 -3 5 64.39 21.6
-14 -3 -5 34.4 26
3 14 5 105.39 30.2
-3 -14 5 28.6 26
-17 14 -5 62.89 23.6
-17 14 -5 -13.1 28.4
-3 17 -5 99.49 24.1
14 -17 5 107.49 23.1
-3 17 -5 79.39 33.8
-17 3 5 50.29 22
17 -14 -5 102.69 24.7
14 3 -5 91.29 21.8
-17 3 5 -5.8 32.7
14 -17 -5 73.89 24.9
17 -14 5 81.09 26.3
-17 3 -5 139.79 39.8
3 14 -5 81.69 37.6
-14 -3 5 83.89 30.2
17 -3 -5 123.19 26.3
3 14 -5 109.59 26
-17 14 5 92.69 22.5
-14 17 -5 87.69 23.4
14 -17 -5 67.19 23.3
-3 -14 -5 64.59 24.9
-3 17 5 146.99 28.3
14 3 5 88.09 26.5
-14 17 -5 124.69 35.6
-17 3 -5 124.69 26.4
-17 15 -5 54.39 22.4
2 15 5 90.39 29.2
15 -17 5 55.19 20.2
15 2 -5 27.5 25.7
-15 -2 -5 20.7 27.4
15 2 -5 74.39 22
-2 17 -5 48 34.2
-2 -15 5 15.3 25.9
17 -2 5 51.89 21.7
-2 17 -5 34.8 20.2
-15 -2 -5 49.8 20.2
-17 15 -5 -5.2 27.6
-17 2 5 63.39 32.8
-17 2 5 54.49 22
-17 2 5 -6.8 25.1
17 -15 -5 56.89 23.8
-2 -15 -5 30.6 21.7
17 -15 5 39.8 23
17 -2 -5 73.99 25.7
-17 2 -5 46.8 23.9
-17 2 -5 45.9 34.6
-15 17 -5 54.49 22.2
-17 15 5 14.3 15.3
15 -17 -5 35.1 23.6
15 -17 -5 26.1 21.1
-15 -2 5 26.9 27.2
-2 17 5 59.89 25.6
2 15 -5 54.99 22.7
2 15 -5 28.4 33.6
15 2 5 37.8 22.5
-15 17 -5 35.4 27.8
-17 1 5 154.88 36.6
-16 -1 -5 233.48 32.6
16 -17 5 127.29 23.1
16 1 -5 168.68 30.6
17 -1 5 131.99 24.2
-1 17 -5 139.29 36.9
-1 17 -5 208.08 27.6
-17 16 -5 203.88 27.6
16 1 -5 185.58 24.8
17 -16 -5 227.08 31.1
1 16 -5 110.19 24.1
16 -17 -5 165.78 28.2
-16 17 -5 113.49 22.8
1 16 -5 103.79 35.8
17 -1 -5 161.08 30.2
-16 -1 5 69.29 29.5
-17 1 -5 110.69 36.5
-1 17 5 167.18 29.2
-16 -1 5 126.09 34.1
-17 1 -5 139.09 25.4
-16 17 -5 46.7 28.6
17 0 -5 291.47 37
0 17 5 260.87 40.3
0 17 -5 230.88 34.7
17 -17 -5 242.48 32.3
-17 0 -5 271.97 37
-17 17 -5 262.77 35
-17 0 5 237.88 36.8
9 9 -5 26.4 21
-9 -9 5 47.5 29.8
-9 -9 5 -4.4 25.2
-18 9 5 26.2 26.7
-9 -9 -5 37.5 24
-18 9 -5 35.6 20
18 -9 -5 23.3 22.6
18 -9 5 40.9 21.4
9 -18 5 52.89 20.8
9 -18 -5 43.5 19.3
-9 18 -5 42.5 23.3
-9 18 5 18.6 24.5
-9 18 -5 10.2 29
-18 9 -5 3.3 28
18 -9 -5 6.8 19.5
9 9 5 27 26.1
-8 -10 5 -20.4 24.9
-10 18 5 43.2 26.8
18 -8 5 27.1 22.7
-10 -8 -5 6.6 21.1
10 -18 5 33.2 20.2
8 10 5 26.9 27.1
10 8 -5 7.1 20.1
-18 10 -5 26.6 17.9
8 -18 -5 20.8 19.4
-8 -10 5 -2.2 25.3
-18 8 5 27 28.4
-8 18 -5 22.9 20.9
18 -10 -5 42.7 23.7
18 -10 -5 9.4 23.2
-8 18 -5 38.9 30.6
18 -10 5 42.7 20.9
-10 -8 5 -17.5 21.3
-18 8 -5 25.3 20
-10 -8 5 41.2 28.6
-8 -10 -5 17.2 23.2
8 10 -5 12.7 20.4
-10 18 -5 21.7 28.8
10 -18 -5 55.69 21.7
-18 10 5 18.1 26.9
18 -8 -5 42 23.3
-8 18 5 52.59 24.9
-18 8 -5 15.8 30.1
8 -18 5 35.3 20.2
-10 18 -5 56.89 23.7
10 8 5 16.5 25.8
-7 18 -5 56.89 32.8
-7 18 -5 116.29 25.8
7 -18 -5 90.89 21.9
-7 -11 5 12 26.9
7 11 5 66.19 29.4
18 -7 5 66.79 23
11 -18 5 131.49 24.1
-11 18 5 128.69 30.3
18 -11 -5 86.09 26.1
11 7 -5 66.49 24.5
-18 7 5 68.99 31.2
18 -11 -5 85.99 25.5
-11 -7 5 85.89 33
-7 -11 -5 72.79 26.6
-18 7 -5 70.49 22.9
11 -18 -5 42.1 25.7
11 7 5 77.79 28.1
7 11 -5 45.3 21.8
-7 18 5 99.29 25.1
18 -11 5 58.29 22
18 -7 -5 87.49 24.4
11 -18 -5 101.19 23.2
-18 11 5 52.39 27.7
7 -18 5 93.39 22.7
-11 18 -5 55.59 30.2
-18 7 -5 49.99 34.2
-11 18 -5 114.19 25
-18 6 5 -2.1 26.4
-6 -12 5 -1.4 25.5
-6 18 -5 16.3 31.8
-12 18 5 0.2 25.4
6 -18 -5 6.7 18
12 -18 5 30.9 20.3
6 12 5 15.5 26.7
-6 18 -5 5.5 19.7
12 6 -5 -6.4 21
18 -6 5 23.4 21.3
12 6 -5 3.6 23.4
-18 12 -5 -2.4 16.5
18 -12 -5 14.3 23.2
-6 -12 -5 32.3 23.3
-18 6 -5 5.7 21.5
-12 -6 5 1 28.1
18 -6 -5 18 22.8
-6 18 5 31.4 22.5
-12 18 -5 17 30.5
-18 6 -5 -5.1 30.2
-12 18 -5 10.1 20.8
12 -18 -5 31.1 20.6
-18 12 5 -5.5 24
6 -18 5 27.7 21.8
12 -18 -5 6 25.6
12 6 5 -12.3 26
18 -12 5 11.2 20.8
6 12 -5 8.8 20.3
-5 18 -5 65.79 20.7
13 5 -5 96.59 27.5
-18 5 5 90.49 31.8
-5 -13 5 23.6 26.8
18 -13 -5 102.59 25.1
18 -5 5 113.29 25.2
5 -18 -5 62.59 20.1
-13 -5 -5 53.69 18
-18 13 -5 36.9 21.9
13 -18 5 124.39 22.9
-5 18 -5 105.19 35.1
5 13 5 70.49 28.2
13 5 -5 60.29 22.7
-13 18 -5 83.89 31.5
5 13 -5 68.39 36
-18 13 5 107.99 23.1
-18 5 -5 77.59 23.2
13 -18 -5 117.99 29.9
5 13 -5 82.99 23.4
18 -13 5 97.09 25.5
13 5 5 94.09 26.8
-13 18 -5 84.79 22.8
18 -5 -5 92.29 24.8
5 -18 5 116.29 23.7
-13 -5 5 69.49 30.2
-5 18 5 91.99 25.5
-5 -13 -5 88.79 27.7
13 -18 -5 106.39 23.6
-18 5 -5 95.29 37
4 -18 -5 169.68 24.7
-4 -14 5 73.79 28.7
18 -4 5 150.18 26.1
14 4 -5 150.68 31.2
-18 4 5 100.49 33
14 -18 5 177.48 25.6
4 14 5 145.29 29.8
-4 18 -5 105.39 23.1
-14 -4 -5 112.89 21.2
14 4 -5 142.99 24.3
-4 18 -5 132.79 36.1
18 -14 -5 114.39 21.1
-14 18 -5 116.69 24.3
18 -4 -5 126.99 26.3
14 4 5 116.89 28.3
-18 4 -5 214.28 29.5
-4 -14 -5 69.89 25.1
-18 14 5 142.89 24.8
4 14 -5 105.29 25.3
-4 18 5 116.79 27
14 -18 -5 163.48 26.1
-14 18 -5 91.99 31.9
4 14 -5 79.69 36.2
-18 4 -5 56.09 34
-14 -4 5 108.79 33.8
18 -14 5 124.09 27.3
14 -18 -5 132.19 29.5
15 3 -5 139.49 30.1
3 15 5 302.97 43.1
-3 18 -5 90.89 32.9
-3 -15 5 90.89 30.6
18 -3 5 219.08 28.1
-18 3 5 162.18 36.1
-3 18 -5 220.38 32.3
-18 3 5 201.98 31.7
-15 -3 -5 210.48 31.1
-18 15 -5 143.89 25.2
18 -15 -5 159.78 24.2
15 -18 5 169.58 24
18 -15 5 163.48 28.5
-15 -3 5 136.69 35
-15 18 -5 244.08 35.1
15 -18 -5 162.48 27.9
15 3 5 151.98 29.4
3 15 -5 217.38 29.1
-18 15 5 147.59 24.8
18 -3 -5 255.17 32.3
-3 18 5 245.98 30.9
-15 18 -5 104.99 33.2
-18 3 -5 173.08 39.4
15 -18 -5 191.38 27.8
-2 -16 5 -12.7 24.5
16 2 -5 26.7 19.3
-16 -2 -5 50.49 20.1
18 -16 -5 41.3 22.9
-18 2 5 13.2 18.5
2 16 5 54.19 26.5
-18 16 -5 42.3 20.8
-18 2 5 -8.2 26.1
-2 18 -5 51.49 20.9
16 2 -5 40.4 25.1
18 -2 5 34.6 20.3
18 -16 -5 27.7 19.1
16 -18 5 33.7 18
18 -16 5 26.6 23.2
-16 -2 5 -3.2 21.8
16 2 5 20.5 22.5
-2 18 5 43 23.5
2 16 -5 24.4 19.3
16 -18 -5 19.6 22
-18 2 -5 8.4 26.6
18 -2 -5 10.6 21.6
-18 2 -5 49.5 21.9
16 -18 -5 15.8 18.9
-16 -2 5 4.2 25.1
-18 16 5 18.5 17.3
-16 18 -5 33.3 20.1
18 -1 5 -9.1 14
18 -17 -5 3.1 17.7
17 1 -5 15 22.9
1 17 5 25.3 22.8
-1 18 -5 12.5 18.1
-18 17 -5 9.8 19.5
17 -18 5 7.8 13.8
-18 1 5 0.2 17.5
18 -17 -5 20.8 21.5
-17 -1 -5 37.7 18.5
17 1 5 12.3 16.5
17 -18 -5 5 20.3
18 -1 -5 14.9 22
-17 18 -5 9.9 18.7
-1 18 5 30.2 22.6
1 17 -5 14.4 19.2
-17 -1 5 33 20.6
-18 17 5 -4.6 11.9
18 -17 5 9.8 14.3
-18 1 -5 31.6 19.8
0 18 -5 94.19 21.3
18 0 -5 96.49 26
-18 0 5 113.89 21.6
-18 0 -5 99.99 20.6
18 -18 -5 106.19 21.5
-18 18 -5 99.69 21.5
0 18 5 153.88 27.6
18 -18 -5 121.19 25.1
10 -19 5 4.2 19.5
-9 -10 5 -13.9 25.1
10 9 -5 0.9 19.8
19 -10 -5 4.9 22
-10 19 5 29.5 26.1
9 10 5 -20.1 23.8
-9 19 -5 28.2 29.5
-19 9 5 -1.8 25.5
9 -19 -5 11.2 17.4
19 -9 5 30.4 21.3
19 -10 -5 14.3 23.8
-19 10 -5 3.2 18.2
-9 19 -5 11.6 21.9
-19 10 5 15.6 27.4
-9 -10 -5 0.2 19.3
-9 19 5 24.3 21.7
9 -19 5 22.7 19.2
-10 19 -5 1.5 21.3
-19 9 -5 5.5 19.3
-10 -9 5 -5.9 26.4
10 9 5 -4.9 24.3
9 10 -5 -5.5 19.6
19 -9 -5 2.9 21.7
19 -10 5 26.5 20.8
10 -19 -5 21.5 18.4
-10 19 -5 -11.3 29.3
19 -9 -5 6.9 20
-11 19 5 128.49 29.6
-8 19 -5 121.19 25.3
8 -19 -5 97.49 21.4
19 -11 -5 97.19 26.5
11 -19 5 131.49 23.6
-8 19 -5 70.29 32.4
19 -11 -5 63.99 26.1
8 11 5 101.19 28.2
11 8 -5 109.69 25.6
-19 8 5 59.39 28.4
19 -8 5 99.59 23.8
19 -11 5 91.19 23.9
-11 19 -5 35.6 28.9
19 -8 -5 80.69 24.1
8 11 -5 45.5 20.8
-11 -8 5 4.7 26
-8 19 5 60.99 22.9
-19 8 -5 44.5 20.6
-8 -11 -5 41.3 23.4
11 8 5 61.29 26.9
-11 19 -5 114.19 24
-19 8 -5 1.2 40.9
11 -19 -5 89.99 21.1
-19 11 5 -3.8 22.9
8 -19 5 58.49 21.3
12 7 -5 54.99 22.6
12 7 -5 3.3 22.1
-19 12 -5 6.3 17
-12 19 5 88.69 27.9
-19 7 5 33.3 26.4
-7 -12 5 -24 22.5
-7 19 -5 98.09 24
7 -19 -5 31.1 18.3
7 12 5 98.09 29.7
19 -7 5 100.19 24.3
19 -12 -5 63.49 24.8
-7 19 -5 29.8 30.2
12 -19 -5 41 25.6
-7 -12 -5 42.5 23
-7 19 5 69.49 23.6
7 12 -5 49.7 21.2
19 -12 5 52.39 21.6
12 -19 -5 53.49 19.6
-12 19 -5 56.49 21.8
19 -7 -5 67.79 23.9
-12 -7 5 26.6 27.5
7 -19 5 73.79 23.2
-12 19 -5 34.2 30.9
12 7 5 48.2 25.5
-19 7 -5 7.1 28.9
-19 7 -5 32.2 20.4
19 -13 -5 3.4 21.2
-13 19 5 18.6 25.3
19 -6 5 23.9 21.2
6 13 5 26 26.6
-6 19 -5 1.5 27.6
13 -19 5 7.2 18.4
-6 19 -5 8.8 18.8
6 -19 -5 14.6 18
-6 -13 5 -38.4 23
13 6 -5 9.5 23.4
13 6 -5 -7 19.2
-19 13 -5 4.5 20.6
-13 -6 -5 -8.5 12.3
-19 6 5 7.2 26.4
-13 19 -5 11.2 19
19 -6 -5 16.6 21.8
-13 19 -5 21.5 27.3
-6 19 5 -4.1 21.8
13 6 5 5.8 23.7
6 -19 5 15.8 19.1
-6 -13 -5 17.4 21.5
-19 6 -5 13.5 18.9
6 13 -5 19 20.4
-13 -6 5 6 25.6
-19 6 -5 1.7 29.4
13 -19 -5 24.7 19.1
19 -13 5 12.1 21.3
13 -19 -5 11.2 25.3
-19 13 5 18.2 20.3
-19 14 -5 3.3 21.1
19 -14 -5 27.5 21.2
5 -19 -5 10.2 18
19 -5 5 25.7 21.9
-14 19 5 24.1 25.6
-19 5 5 0.5 24.7
-5 19 -5 10.6 18.6
19 -14 -5 9.6 12.7
14 5 -5 0.3 24.2
-14 -5 -5 10.7 15.9
-5 19 -5 2.6 26.8
5 14 5 41.1 27.2
14 -19 5 28.5 19.8
14 5 -5 11.9 18
-5 -14 -5 9.4 20.8
-5 19 5 24.3 21.9
-14 19 -5 14.7 19
-19 14 5 29 19.7
14 -19 -5 2.6 24.7
14 -19 -5 30.8 19.5
19 -14 5 16.5 21.6
14 5 5 4.4 23
19 -5 -5 32.3 21.9
-19 5 -5 2.6 20.4
5 -19 5 18.9 17.8
-14 19 -5 4.1 24.5
5 14 -5 30.9 20.2
-19 5 -5 3.9 26.4
-14 -5 5 0.5 24.8
-19 4 5 -0.3 37
19 -15 -5 14.5 21
4 15 5 29.8 26.1
15 -19 5 18.3 18.3
19 -15 -5 6.3 15.1
-4 -15 5 -12 24
-19 4 5 -1.7 16.5
4 -19 -5 0.2 16
15 4 -5 2.3 18.2
-4 19 -5 26.6 18.6
15 4 -5 7.7 24.5
-15 19 5 23.5 25.4
-15 -4 -5 26.1 17.4
19 -4 5 9.5 19.7
-19 15 -5 -7.1 19
4 15 -5 24.4 19.9
19 -4 -5 11 21.6
-4 19 5 23 21.1
15 -19 -5 4 17.8
15 -19 -5 15.3 23.4
-15 -4 5 -5.2 26.3
15 4 5 1.6 22.4
-19 4 -5 4.2 44.6
-19 15 5 15.8 18.8
-19 4 -5 23.5 20.2
-15 19 -5 42.4 19.5
19 -15 5 14.3 22
-19 3 5 128.39 21.8
19 -16 -5 134.89 21.4
-3 19 -5 177.48 24.3
16 3 -5 165.08 30.1
16 -19 5 109.09 20.4
-16 -3 -5 191.08 28.9
16 3 -5 171.38 23.4
19 -3 5 129.49 24.1
-19 16 -5 150.68 24.1
16 3 5 119.29 26.3
-19 16 5 84.39 20.9
16 -19 -5 95.79 22.4
19 -16 5 69.69 24.3
-16 19 -5 158.68 24.1
19 -3 -5 97.59 24.6
3 16 -5 109.39 22
-19 3 -5 153.48 24.6
16 -19 -5 150.88 27.1
-17 -2 -5 96.69 19.7
-19 17 -5 97.59 22.1
17 -19 5 75.69 17.7
-19 2 5 74.59 18.9
2 17 5 119.19 26.3
19 -17 -5 74.19 18.2
19 -17 -5 92.89 22.8
17 2 -5 85.19 24.5
-2 19 -5 94.99 20.8
19 -2 -5 88.59 24.2
-17 -2 5 114.49 22.4
19 -17 5 66.19 21.9
-2 19 5 127.89 24.7
-19 2 -5 110.89 21.6
-17 19 -5 115.59 21.6
2 17 -5 94.69 20.9
17 -19 -5 120.39 25
17 2 5 72.89 22
-19 17 5 48.9 16.8
-1 19 -5 19.9 17.1
19 -18 -5 17.4 19.1
-19 18 -5 25.2 18
18 1 -5 13.3 21
-18 -1 -5 33.8 16.6
1 18 5 35.2 20.8
-19 1 5 15.3 15.8
19 -18 -5 14.9 16
18 1 5 3.1 12.7
-19 1 -5 33.9 17.4
18 -19 -5 24.9 16.3
-1 19 5 13.4 20.9
18 -19 -5 12.4 20.3
1 18 -5 22.7 16.8
-18 -1 5 18.4 16.5
19 -1 -5 21.3 21.5
-18 19 -5 3.6 16.7
-19 0 -5 26.9 15.8
19 -19 -5 18.8 18.7
0 19 5 7.6 17.6
19 0 -5 -11.4 20
19 -19 -5 2.5 14.2
0 19 -5 2 14.8
-19 0 5 19.3 15.7
-19 19 -5 4.4 16.2
-10 20 5 91.69 23.9
-20 10 -5 63.59 19.8
10 -20 5 103.39 21.9
20 -10 5 108.39 23.4
20 -10 -5 39.1 22.6
10 -20 -5 124.89 22.2
10 10 -5 59.69 21.8
10 10 5 87.59 27.1
-10 20 -5 123.99 25.1
20 -10 -5 99.49 25.3
-9 20 -5 86.29 22.9
20 -11 -5 70.39 24
20 -9 5 55.19 20.5
11 9 -5 40.9 21.2
-20 11 -5 24.5 16.6
-11 20 5 74.09 23.2
11 -20 5 96.89 21.2
9 -20 -5 46.1 18.2
9 11 5 63.69 26.1
20 -11 -5 68.89 24.7
-9 20 5 53.49 22.6
-20 9 -5 36.7 19.4
9 11 -5 56.39 21.4
20 -11 5 56.39 20.9
20 -9 -5 52.99 22.5
-11 20 -5 66.69 21.3
-11 20 -5 4.6 35
11 9 5 54.69 26.6
9 -20 5 81.59 20.6
11 -20 -5 76.39 18.9
-12 20 5 25.3 24.1
-20 12 -5 -6 15.6
8 12 5 29.7 25.7
20 -12 -5 16.2 21.4
20 -8 5 30 19.8
8 -20 -5 13.5 16.8
-8 20 -5 15.5 18.5
12 -20 5 19.2 18.1
12 8 -5 21.1 21.5
20 -8 -5 16.2 20.6
-12 20 -5 12.5 19.3
8 -20 5 23.8 17.8
-8 20 5 9.3 20.1
12 8 5 -1 23.5
8 12 -5 14 20.6
-20 12 5 18.6 18.7
20 -12 5 16 19.9
12 -20 -5 12.1 16.4
-20 8 -5 2.5 18.4
-13 20 5 114.79 26.3
13 7 -5 68.59 20.6
20 -13 -5 101.99 24.8
7 13 5 128.99 29
7 -20 -5 92.09 20.3
-20 13 -5 88.99 22
-7 20 -5 152.28 24.6
20 -7 5 86.69 21.9
13 7 5 86.19 25.6
7 13 -5 109.49 23.3
7 -20 5 126.19 21.9
-7 20 5 120.79 24.3
13 -20 -5 86.89 19.6
-13 20 -5 57.99 20.7
20 -13 5 104.49 23.8
20 -7 -5 103.59 24.2
-20 13 5 91.69 22
-20 7 -5 95.99 22.4
14 6 -5 1.1 17.5
-14 -6 -5 -9.4 11.3
20 -14 -5 2.8 20.4
6 14 5 10.1 24.6
-20 14 -5 16.6 20.7
14 6 -5 4.6 21.9
20 -6 5 2.5 19.2
-14 20 5 -4.3 22.3
6 -20 -5 9.3 17.3
14 -20 5 16.7 16.8
-6 20 -5 7.7 18
20 -14 5 13.5 19.5
-20 6 -5 1.4 17.9
-20 14 5 11.1 18.8
14 -20 -5 -9.9 22.9
-6 20 5 -3.2 19.2
-14 20 -5 -1.2 17.5
6 -20 5 -1.9 16.8
14 6 5 -12.2 21.2
20 -6 -5 4.8 20.3
14 -20 -5 4.5 16.6
6 14 -5 13.5 18.9
20 -15 -5 145.49 25.1
-5 20 -5 94.59 20.9
-15 -5 -5 105.49 19.1
15 5 -5 103.49 26.9
5 15 5 138.39 28
15 -20 5 105.19 19.6
-20 15 -5 55.19 20.6
-15 20 5 185.58 30.1
20 -5 5 61.19 20.4
15 5 -5 120.29 22.3
5 -20 -5 102.79 20.7
20 -15 5 128.79 25.7
15 -20 -5 154.38 27.9
-5 20 5 163.28 25.9
15 -20 -5 143.29 23.1
-15 20 -5 139.49 22.9
-20 15 5 111.19 22.6
-20 5 -5 112.29 21.8
15 5 5 96.99 25.3
20 -5 -5 166.48 27.4
5 15 -5 165.08 25
16 4 -5 233.48 26.7
-20 16 -5 227.38 32.3
-16 -4 -5 187.98 27.6
-16 20 5 205.08 31.1
20 -16 -5 250.97 29.1
-4 20 -5 231.08 30.1
20 -4 5 167.88 25.7
16 4 -5 165.98 30
16 -20 5 191.18 29.7
4 16 5 272.07 38.7
-16 -4 5 299.87 35.3
20 -16 5 152.28 26.4
-20 16 5 152.58 23.6
-20 4 -5 216.68 29.9
-16 20 -5 213.28 30.9
20 -4 -5 187.38 28.5
16 -20 -5 228.98 29.7
16 -20 -5 199.98 29.5
4 16 -5 216.08 29.2
-4 20 5 228.98 34.6
16 4 5 198.98 29
20 -17 -5 81.19 21.3
17 -20 5 26.9 13.7
-17 -3 -5 43.5 16
-17 20 5 43.5 24
20 -17 -5 25.5 14.5
3 17 5 74.89 23.2
20 -3 5 23.4 16.3
-20 17 -5 18.1 16.7
17 3 -5 32.7 22.4
-20 3 5 20.3 16
-3 20 -5 42.3 17.2
17 -20 -5 26.8 16.2
17 3 5 37.1 19.5
-20 3 -5 39.8 17.7
20 -3 -5 32.5 20.9
-17 20 -5 51.89 18.2
17 -20 -5 46.8 20.6
-17 -3 5 82.09 19.9
-20 17 5 5.4 15.6
20 -17 5 47.9 20.2
3 17 -5 40.9 17.3
-3 20 5 42.6 20
-2 20 -5 72.19 18.3
-20 18 -5 104.39 20.6
-20 2 5 106.89 18.8
18 2 -5 84.39 22.2
20 -18 -5 105.09 19.9
2 18 5 163.88 25.7
-18 -2 -5 121.99 18.9
-18 20 5 119.69 26.5
20 -18 -5 63.39 16
-18 20 -5 90.09 19.2
-2 20 5 133.79 23.4
-20 2 -5 66.89 16.9
20 -2 -5 98.89 23
18 -20 -5 141.59 19.4
18 -20 -5 130.19 23.4
-18 -2 5 125.29 20.4
2 18 -5 120.29 19.7
-19 -1 -5 89.99 17
1 19 5 71.49 19.7
20 -19 -5 105.89 20.3
-20 1 5 54.29 16.1
19 1 -5 72.89 22.1
-1 20 -5 61.59 15.8
-19 20 5 74.99 23.1
20 -19 -5 63.79 14.8
-20 19 -5 65.59 18.6
-19 20 -5 71.99 18
19 -20 -5 85.79 19.9
-1 20 5 83.39 19.8
20 -1 -5 35.8 20.9
-19 -1 5 53.19 16.4
19 -20 -5 61.09 15.2
-20 1 -5 79.29 16.1
1 19 -5 44.8 15.4
0 20 5 10 17.4
-20 0 5 3.1 14.8
20 0 -5 -0.2 20
0 20 -5 6.1 12.8
-20 20 5 -2.7 20.7
20 -20 -5 15.2 16.6
-20 0 -5 13 12.8
-20 20 -5 6.7 15.1
20 -20 -5 4.4 12.5
10 11 5 97.99 27.2
21 -10 5 155.98 24.2
11 -21 5 97.19 19.1
-11 21 5 95.19 22.6
-10 21 -5 87.59 21.2
-21 11 -5 66.79 16.4
21 -11 -5 66.29 24.3
11 10 -5 66.39 21.9
10 -21 -5 89.09 18.6
11 10 5 115.19 27.8
-21 10 -5 110.29 21.8
-11 21 -5 117.59 23
11 -21 -5 141.19 21.3
10 11 -5 78.09 22.6
21 -11 5 87.29 21.3
10 -21 5 149.49 22.2
-10 21 5 83.69 22.4
21 -10 -5 129.99 25.2
12 9 -5 157.58 26.4
12 -21 5 200.38 24.4
-9 21 -5 209.18 31.3
-12 21 5 229.68 29.4
9 12 5 261.07 33.3
21 -12 -5 147.99 28.7
21 -9 5 197.48 27.5
12 9 5 216.18 31.6
9 12 -5 181.78 26.1
9 -21 5 177.28 23.8
21 -12 5 178.18 25.6
-12 21 -5 271.27 29.5
-21 9 -5 120.49 22.8
21 -9 -5 207.78 28.3
-21 12 5 159.88 24.3
-9 21 5 169.98 26
12 -21 -5 171.48 27.4
-13 21 5 3.1 20.1
13 -21 5 10.5 16.1
8 -21 -5 7.9 15.7
21 -13 -5 9.2 21.7
13 8 -5 -18.2 16.8
-21 13 -5 -0.6 15.8
-8 21 -5 4.9 17.5
8 13 5 10.3 22.7
21 -8 5 4.8 17.9
8 13 -5 6.2 18.1
13 -21 -5 18.6 15.2
-8 21 5 1 17.6
13 8 5 -0.8 21.6
-13 21 -5 -5.7 17.1
-21 13 5 -4.8 17
21 -8 -5 -12.9 18.5
-21 8 -5 -7.7 16.2
8 -21 5 20 16.8
21 -13 5 -11.9 17.1
14 7 -5 20.6 16.3
-14 21 5 37.8 21.6
-7 21 -5 14.1 16.9
14 7 -5 3.2 16.5
21 -7 5 27 19.1
7 14 5 62.99 24.2
14 -21 5 41.8 16.4
21 -14 -5 46.9 22.2
-21 14 -5 29.8 17.5
7 -21 -5 21.3 16.7
21 -7 -5 9.3 18.6
21 -14 5 16.4 19.2
-7 21 5 25.1 18.9
7 -21 5 22.1 15.8
14 7 5 -7.2 20.3
-21 7 -5 15.5 16.8
7 14 -5 12.3 18.3
-14 -7 5 29.9 20.4
14 -21 -5 12 15.2
-14 21 -5 18.9 17.7
-21 14 5 7.9 17.4
15 6 -5 58.59 19.3
21 -6 5 27 18.6
15 6 -5 28.3 20.3
-6 21 -5 36.1 16.9
15 -21 5 52.89 17
6 -21 -5 55.69 17.8
-15 21 5 66.39 22.2
6 15 5 67.19 23.6
-21 15 -5 24.7 18
21 -15 -5 80.79 22.5
6 -21 5 7.9 13
15 6 5 10.2 20
21 -6 -5 39.5 20.6
21 -15 5 41 20.3
15 -21 -5 34.8 16.6
-21 6 -5 35.5 17.4
-15 21 -5 31.7 17.3
6 15 -5 41.2 17.8
-15 -6 5 77.89 21.8
-6 21 5 33 18.7
-21 15 5 21.7 17.2
-16 -5 -5 15.6 13.8
-16 21 5 9.7 20.4
16 5 -5 9.8 19.9
21 -16 -5 16.7 18.8
5 -21 -5 1.9 9.6
16 5 -5 -2.3 15.7
-21 16 -5 1.1 16.7
5 16 5 23.9 20.9
-5 21 -5 5.4 14.5
16 -21 5 9.4 13.5
21 -5 5 9.7 17
-16 -5 5 11.9 18.2
16 -21 -5 2.6 21.8
16 5 5 5.7 18.7
21 -16 5 2.4 18.8
-21 5 -5 -9 14.2
-16 21 -5 11.5 15.7
21 -5 -5 4.5 18.7
-21 16 5 14.2 15.3
5 16 -5 4.4 15.8
-5 21 5 11.8 17.3
16 -21 -5 1.9 13.9
-17 21 5 116.29 24.3
-4 21 -5 63.59 16.4
-17 -4 -5 51.19 15.4
17 4 -5 52.89 21.6
21 -4 5 27.7 15.1
17 -21 5 36.4 13.9
-21 17 -5 52.89 17.3
-17 -4 5 118.09 19.9
17 -21 -5 46.1 15.6
-17 21 -5 76.49 18
-21 4 -5 65.49 16.2
17 -21 -5 75.19 20.6
17 4 5 56.19 18.1
-21 17 5 53.59 16.5
-4 21 5 89.79 19.9
4 17 -5 66.49 17.1
21 -17 5 69.09 19.6
21 -4 -5 63.09 20.4
-3 21 -5 37.7 15
3 18 5 39.1 20.1
18 3 -5 13.8 18.7
-18 21 5 30 20.6
21 -18 -5 28.6 16.4
-18 -3 -5 31.9 14.9
-21 3 5 4.1 12
-21 18 -5 28.2 17.2
18 -21 -5 42.6 18.4
18 3 5 3.7 16.3
-18 -3 5 53.99 16.7
18 -21 -5 51.29 13.7
3 18 -5 21.4 14.3
21 -3 -5 31.3 19.8
-21 3 -5 28.6 14
21 -18 5 4.5 12.2
-18 21 -5 25.9 15.4
-3 21 5 37.3 18.6
-21 2 5 -3.8 12.6
-2 21 -5 2 12.6
-21 19 -5 9.8 16.3
2 19 5 17 17.9
21 -19 -5 27.4 16.8
19 2 -5 -0.9 19
-19 21 5 -9.3 19.9
21 -19 -5 4.9 8.2
-19 -2 -5 7.2 12.7
2 19 -5 -2.3 12.3
21 -2 -5 -12 18.6
-21 2 -5 3.5 13
19 -21 -5 9.3 16.8
-2 21 5 8.7 15.9
19 -21 -5 5.1 12
-19 -2 5 -3.1 13.9
-19 21 -5 -0.2 14.8
20 1 -5 23.9 20.3
-1 21 -5 9.9 9.4
-21 20 -5 37.1 17.4
21 -20 -5 5.2 7.8
-20 21 5 27.2 22.1
-20 -1 -5 43.9 15
21 -20 -5 50.99 18.4
-21 1 5 28.1 13.8
1 20 5 16.8 18.3
-21 20 5 31.4 22.9
-20 -1 5 30.4 15.8
-20 21 -5 26.3 16.9
-1 21 5 47.1 19.3
20 -21 -5 49.7 18.6
20 -21 -5 35.3 14.8
21 -1 -5 24.3 21.1
-21 1 -5 41.9 15.5
11 11 -5 222.78 25.9
11 -22 5 197.58 26.4
-11 22 5 179.08 28.6
-22 11 5 201.08 24.3
11 11 5 199.58 33.2
11 -22 -5 193.08 26
22 -11 5 193.48 25.1
-11 -11 5 178.88 28.8
-11 22 -5 219.48 29.6
10 12 5 9 20.8
-12 22 5 4 17.6
12 10 -5 16.1 16.8
10 -22 -5 4.9 14.2
22 -10 5 12.1 16.9
12 -22 5 2.5 13.4
22 -12 -5 28.1 21.9
-10 22 -5 27.3 16.1
22 -12 5 19.2 16.3
-10 22 5 7.6 16.9
-22 12 5 -2.3 16.2
-12 -10 5 0.6 16.5
-12 22 -5 2.9 16.4
-22 10 -5 0 15.5
10 12 -5 4.1 17.5
22 -10 -5 3.4 18.1
12 -22 -5 9.8 14.1
12 10 5 17 20.6
10 -22 5 1.9 13.5
9 -22 -5 69.99 16.3
13 9 -5 61.59 17.8
9 13 5 89.99 24.1
22 -13 -5 53.59 22.7
-13 22 5 55.19 19.5
13 -22 5 63.89 15.7
22 -9 5 56.59 19.5
-9 22 -5 71.49 17.5
13 -22 -5 84.59 16.7
-13 -9 5 77.09 20.6
13 9 5 41 21.2
-22 13 5 63.09 17.3
-13 22 -5 80.19 19.9
22 -13 5 57.69 18.9
9 -22 5 39.7 15.6
-22 9 -5 50.79 18
22 -9 -5 38.9 20.2
9 13 -5 86.79 20.2
-9 22 5 60.19 19.4
8 14 5 79.49 22.7
22 -14 -5 68.49 23.4
22 -8 5 68.39 19.6
14 8 -5 61.29 17.9
-14 22 5 70.69 19.9
-8 22 -5 83.09 17.8
8 -22 -5 56.29 16.4
14 -22 5 75.99 16.5
-14 -8 5 59.09 20.5
22 -14 5 32.5 18.7
-22 14 5 37.7 17.2
14 -22 -5 34.2 15
8 -22 5 23.8 14.8
-8 22 5 44.8 18.6
22 -8 -5 33.4 19.6
14 8 5 35.3 19.7
-14 22 -5 59.99 18.1
8 14 -5 46.8 18.8
-22 8 -5 31.5 16.2
-7 22 -5 1.7 14.4
15 7 -5 -7.4 15.1
22 -7 5 -11.2 16.9
-15 22 5 7.7 17.5
7 -22 -5 -4 14.4
22 -15 -5 6 19
7 15 5 7.3 19.2
15 -22 5 12.2 13.6
7 15 -5 19 16.1
-22 15 5 7.1 15.1
7 -22 5 1.2 11.6
15 -22 -5 8.5 14.1
-7 22 5 -15.8 15.6
15 7 5 -3.7 17
22 -15 5 2 17.4
22 -7 -5 -5.6 17.3
-15 -7 5 17.1 18.4
-22 7 -5 1.6 14
-15 22 -5 0.6 15.1
22 -6 5 63.29 19.1
6 16 5 139.79 24.1
-6 22 -5 82.19 17
-16 22 5 76.49 20.1
22 -16 -5 83.79 19.8
-22 16 -5 23.8 15.2
16 -22 5 73.39 15.1
-22 16 5 84.39 16.9
-22 6 -5 123.69 18.4
22 -16 5 67.79 18.9
16 -22 -5 82.79 17.2
-6 22 5 79.19 19.2
6 16 -5 101.89 18.4
22 -6 -5 108.19 22.1
16 6 5 80.39 19.9
-16 22 -5 115.79 18.5
17 -22 5 20.6 13.5
22 -17 -5 42.5 17.9
17 5 -5 4 15.8
-22 17 -5 30.6 15.1
5 17 5 45.2 19.6
-5 22 -5 23.5 14.7
-17 22 5 8.6 18.8
5 17 -5 33.6 14.9
-17 -5 5 59.39 16.7
-17 22 -5 39.6 16.1
22 -5 -5 28 18.2
-22 17 5 4.2 10.6
-5 22 5 38.5 17.8
-22 5 -5 39.4 14.1
17 -22 -5 25.2 14.1
22 -17 5 30.6 17.1
17 -22 -5 40 12.4
17 5 5 15.1 13.4
-22 18 -5 -14.3 14.3
-4 22 -5 12.1 13.3
18 -22 5 -11.1 10.7
18 4 -5 3 17.7
4 18 5 20.8 18.4
-18 -4 -5 -2.2 9.2
-18 22 5 9 19
22 -18 -5 20.9 17.4
22 -18 5 4.6 12
-4 22 5 12.5 17.7
-22 4 -5 17.9 13.7
4 18 -5 6 10.8
-18 -4 5 7.9 16.3
18 -22 -5 3.4 12.1
22 -4 -5 5.2 19.4
-18 22 -5 5.2 16.3
3 19 5 67.49 20.2
-19 22 5 69.59 21.7
22 -19 -5 101.49 21.3
19 -22 -5 36.1 14.2
-3 22 5 35.1 18.6
-19 22 -5 23.4 17.3
-19 -3 5 76.79 18.6
-22 3 -5 34.1 14.5
22 -3 -5 27.5 21.6
-23 11 5 83.19 17.7
12 11 -5 96.09 16.9
-11 23 -5 76.19 17.3
-12 23 5 73.19 18
23 -11 5 74.79 19.1
12 -23 5 92.59 16.9
11 12 5 114.59 22.4
11 -23 -5 72.49 15.6
11 -23 5 77.89 16.1
11 12 -5 102.99 18.1
-23 12 5 109.59 18.6
23 -12 5 118.29 21.5
12 11 5 123.79 23.1
-12 23 -5 84.29 17.5
-11 23 5 64.89 18.9
12 -23 -5 112.69 16.7
23 -13 -5 7.9 20.6
-10 23 -5 65.99 16.7
-23 10 5 79.79 18.1
13 -23 5 88.79 16
23 -10 5 75.39 19.3
10 13 5 109.49 23.1
10 -23 -5 61.69 15.3
-13 23 5 66.89 19.2
13 10 -5 75.19 17.1
-10 23 5 74.09 19.1
10 13 -5 76.29 17.5
10 -23 5 52.09 14.7
-13 23 -5 78.59 18.3
23 -13 5 62.59 19.3
13 10 5 68.79 19.9
13 -23 -5 83.39 15.8
-23 13 5 87.09 17.4
-13 -10 5 82.39 18.9
-9 23 -5 14.8 14.8
14 9 -5 20.2 14.2
-14 23 5 22.8 17.3
14 -23 5 22.3 13.7
23 -14 -5 -5.3 17.1
9 14 5 42.8 21.3
9 -23 -5 19.9 13.5
-23 9 5 28.2 15.6
23 -9 5 10.9 17.8
14 -23 -5 14.9 10.7
14 -23 -5 22.6 13.9
-14 -9 5 30.4 16.8
14 9 5 23.2 17.7
-23 9 -5 17.6 12.5
23 -9 -5 10.7 18.4
-23 14 5 13 14.5
9 14 -5 36 15.5
9 -23 5 26.9 14.3
23 -14 5 12.8 16.8
-9 23 5 23.1 17.2
-14 23 -5 48.6 17.1
-8 23 -5 96.99 17.8
23 -8 5 85.69 20.8
8 -23 -5 54.89 13.4
8 15 5 149.39 25.6
-15 23 5 90.49 20.6
23 -15 -5 85.09 22.2
15 8 -5 75.59 16.9
15 -23 5 88.19 16.6
-15 -8 5 78.59 18
-8 23 5 78.09 18.7
8 15 -5 55.09 14.4
23 -15 5 54.59 18.3
15 8 5 50.69 17.8
15 -23 -5 50.19 15.6
-23 15 5 67.99 15.8
-23 8 -5 76.19 16.3
23 -8 -5 50.39 19.9
15 -23 -5 42 12.2
-15 23 -5 85.89 18.5
23 -7 5 -1 13.4
16 -23 5 34 15.7
7 16 5 22.5 20.3
-16 23 5 29.3 17.9
-7 23 -5 41.7 14
23 -16 -5 38.1 20.5
-16 -7 5 22.9 17.3
-23 16 5 12.1 12.4
-16 23 -5 9.7 16.3
-23 7 -5 18.8 14.3
16 -23 -5 18.4 14.3
16 -23 -5 21.7 11.8
23 -7 -5 0.1 18.6
-7 23 5 19.8 16.8
23 -16 5 16.1 17.5
7 16 -5 3.4 9.8
16 7 5 6.1 14.1
-6 23 -5 28.4 15.2
23 -17 -5 13 20.3
17 -23 5 12.9 15.1
-17 23 5 25.4 18.6
6 17 5 15.1 20
23 -17 5 22 16.2
-17 23 -5 28.6 17.7
17 -23 -5 4.8 7.8
-23 6 -5 29.2 15.8
-6 23 5 31.8 20.1
23 -6 -5 12.5 20.6
17 -23 -5 15.3 11.9
-17 -6 5 43.1 19.1
-24 12 5 117.09 20.4
12 12 5 106.19 22.7
-12 24 5 107.09 20.8
12 -24 5 104.69 18.1
-12 24 -5 133.49 20.8
12 -24 -5 108.89 17.9
24 -12 5 146.39 24.1
-24 11 5 10 17.9
13 -24 5 26.4 16.1
11 13 5 35.4 22.8
11 -24 -5 17.3 14.9
-13 24 5 14.9 17.9
-11 24 -5 34.1 17.4
24 -11 5 1.2 20.4
11 -24 5 11.3 14.2
24 -13 5 32.8 20.8
-11 24 5 25.7 17.7
13 11 5 14.3 19.8
13 -24 -5 9.3 13.7
-13 24 -5 20.1 17.2
-24 13 5 -4.9 16
10 -24 -5 45.1 13.8
14 -24 5 79.09 17.8
24 -14 5 93.29 21.6
14 -24 -5 75.29 15.7
0 0 -6 7589.54 465.15
0 0 6 8162.48 472.65
0 0 6 7155.38 470.45
1 -1 -6 702.63 54.59
-1 1 -6 709.93 54.19
0 -1 6 721.93 67.19
0 1 6 705.73 61.39
-1 1 6 693.03 62.89
1 -1 6 676.63 62.29
-1 0 -6 739.63 59.59
-1 0 6 754.02 62.89
-1 1 -6 568.24 52.99
-1 1 6 700.03 62.89
-1 0 -6 720.23 55.89
0 -1 -6 652.43 53.69
-1 1 -6 717.13 58.39
1 0 6 751.72 63.79
0 1 6 733.53 63.69
1 0 6 756.42 64.09
-1 0 6 704.03 64.19
-1 -1 -6 438.06 45.3
-2 1 -6 426.16 39.7
-1 2 6 449.06 48
-2 1 6 422.16 48.3
-2 1 -6 357.76 38.4
-1 2 -6 441.16 41.7
-1 -1 6 492.85 52.89
1 1 6 507.85 51.49
-2 1 -6 436.16 43.1
-2 1 6 489.75 50.09
2 -1 6 426.76 48.1
1 -2 6 457.35 52.89
-1 -1 -6 442.76 40.4
-1 2 6 446.36 49.2
1 1 6 435.66 48.8
1 1 -6 367.36 40.2
1 -2 -6 467.95 43.2
-1 2 -6 448.26 43.4
0 -2 6 388.46 49.4
-2 0 6 339.27 48.3
0 2 -6 374.96 40.1
2 -2 -6 360.86 38.1
0 2 6 371.26 49.7
2 0 6 368.76 46.9
0 -2 -6 346.97 39.7
-2 2 -6 363.96 42.2
-2 0 6 395.96 47.2
-2 2 6 364.26 45.2
-2 2 -6 348.87 39.6
-2 0 -6 378.26 42.3
0 2 6 405.06 46.9
2 0 6 376.26 48.5
2 -2 6 379.26 47
-2 2 6 348.97 43.1
-2 0 -6 395.26 40.7
-1 3 -6 12.3 19.5
-2 3 6 25.5 26.9
-1 -2 6 24.4 26.2
-2 -1 -6 10.4 15
-3 1 6 15.6 27.8
-3 1 6 20 25.8
-3 2 -6 9.8 23.6
-3 1 6 29.8 26.9
3 -1 6 25.4 25.7
2 1 -6 20 22.1
1 2 6 26 23.5
1 2 6 12 25
-2 3 6 31.8 23.8
1 -3 -6 22.9 17.4
-3 2 -6 25.5 17.9
-3 2 -6 31.1 21.4
-1 3 -6 43.9 21.7
-2 -1 -6 8.8 24.3
2 -3 6 33.1 26.2
-2 3 -6 61.19 24.8
-1 -2 -6 39.1 25
-3 1 -6 40.1 17.6
-3 2 6 15.3 30.2
-3 2 6 49.9 22.4
-3 1 -6 56.89 25.6
-1 -2 -6 43.6 16
-2 -1 6 45.2 25.7
2 1 6 33 28.8
2 -3 -6 30.4 16
1 2 -6 51.09 22.7
1 -3 6 40.8 26.3
2 1 6 28 23.8
-1 3 6 73.89 27.5
-2 -1 6 37.1 22.2
-2 3 -6 26.3 22.3
-2 -1 6 36.5 28.2
3 -2 6 32.3 23.2
-1 3 6 41.1 25.1
-3 2 6 17 24.7
-3 1 -6 21.6 19.1
-3 0 6 1605.04 115.29
0 -3 6 1650.73 117.49
-3 0 6 1666.73 112.29
3 -3 -6 1329.17 103.19
-3 0 6 1522.75 111.89
-3 0 -6 1392.96 104.99
0 3 -6 1662.53 107.29
-3 3 -6 1755.52 111.89
3 0 6 1662.33 113.09
-3 3 -6 1624.44 106.59
0 3 6 1672.43 112.89
-3 0 -6 1580.44 109.49
0 3 6 1546.25 112.49
3 0 6 1536.75 112.59
-3 3 6 1469.55 113.89
-3 3 6 1566.04 112.69
-3 0 -6 1579.34 105.69
3 -3 6 1729.13 116.59
0 -3 -6 1580.64 105.89
-3 3 6 1630.04 113.09
-2 -2 -6 85.79 18.3
-2 4 -6 97.49 24.4
-2 4 6 108.59 28.9
-2 -2 6 60.39 24
-4 2 -6 115.39 31.7
4 -2 6 93.69 28
-2 4 -6 97.19 23.9
-4 2 -6 90.89 20.5
-4 2 6 109.59 28.8
-2 -2 -6 126.09 32.1
2 -4 6 81.89 30
-4 2 -6 103.69 23.8
2 2 6 100.49 29.5
-4 2 6 124.79 29.5
2 -4 -6 79.39 19.6
-2 4 6 97.09 28.6
-4 2 6 104.69 31.5
-2 -2 6 145.99 38
2 2 -6 135.99 29.8
-2 4 -6 151.18 29.1
2 2 6 99.79 27.1
-4 1 6 148.39 32.6
-4 1 6 162.68 33.3
1 3 6 115.09 31
-3 -1 -6 134.19 30.6
-3 4 6 153.08 31.6
-3 4 6 169.28 31.6
-3 -1 -6 144.49 23.6
3 -4 6 104.09 31.6
-4 3 -6 185.08 29.5
4 -1 6 134.29 32
1 3 6 105.49 28.6
-3 4 6 151.48 38.8
1 -4 -6 160.18 29.6
-1 4 -6 199.48 30.8
-1 -3 6 156.38 36.4
-4 3 -6 150.68 33.1
-4 1 6 125.99 32.9
-1 4 -6 142.29 26.1
-1 4 6 173.98 32.2
-3 4 -6 189.68 31.8
-1 4 6 154.38 32.1
3 1 6 178.48 33.7
-3 -1 6 182.68 34.7
-4 3 6 147.49 31.9
-1 -3 -6 191.48 31.5
3 -4 -6 178.78 30.2
-4 1 -6 170.58 28.3
4 -3 6 153.98 31.6
-4 1 -6 171.78 34.4
-3 -1 6 146.39 32.2
1 3 -6 211.78 32.4
-4 3 6 195.18 32.7
3 1 6 152.28 30.7
-4 1 -6 180.48 33.2
-3 4 -6 177.68 33.2
-3 4 -6 238.48 32.2
-4 3 6 178.18 37.8
-1 -3 -6 220.78 37
-3 -1 6 196.68 38.5
1 -4 6 152.68 36.4
4 0 6 77.69 28.8
-4 0 6 109.49 30
-4 0 6 106.79 32.7
-4 4 -6 72.69 23.3
-4 4 6 95.09 26.1
-4 4 -6 82.09 29.2
4 0 6 77.79 28.2
-4 0 -6 119.99 27.7
0 -4 6 90.99 32.7
-4 0 6 80.59 28.8
-4 4 6 103.79 38.4
4 -4 6 96.39 31.3
0 4 6 104.89 29.6
-4 0 -6 92.29 28.9
-4 0 -6 75.59 19.7
-4 4 -6 100.49 23.4
-4 4 6 77.29 29
0 4 6 81.79 28.2
0 -4 -6 76.89 20
0 4 -6 112.39 26.9
-2 5 -6 238.98 34.2
2 -5 -6 247.98 33.3
-3 -2 -6 247.38 40.3
-2 5 -6 242.68 34.7
-5 2 6 181.38 35.6
-3 -2 -6 233.08 31.9
-3 5 6 276.87 47.9
-2 -3 6 239.78 43.4
-5 2 6 246.08 41.8
5 -2 6 295.97 48.4
-3 5 6 251.17 40.5
2 3 6 274.47 42.4
-5 3 -6 277.07 39.6
-5 2 6 262.77 39.5
3 -5 6 198.28 37.5
-3 5 6 223.08 38.5
-5 3 -6 256.77 33.7
2 3 6 264.37 44.2
-5 2 -6 185.78 30.8
3 2 6 197.38 36.7
-3 5 -6 202.68 31.9
-2 -3 -6 220.28 38.9
-2 5 6 176.58 34.5
-2 5 6 166.18 33.2
5 -3 6 187.78 35.9
-3 5 -6 128.19 29
-3 -2 6 202.18 40.8
-2 -3 -6 191.98 29.9
-5 3 6 195.38 39.6
-2 5 6 187.08 40.6
2 -5 6 155.98 37.3
-5 3 6 227.28 39.8
2 3 -6 226.98 39.2
3 2 6 169.98 33.9
3 -5 -6 195.88 31.2
-5 3 6 178.58 33.2
-5 2 -6 177.18 36
-5 2 -6 207.98 35.8
-3 5 -6 198.98 35.9
-4 -1 -6 336.07 40.9
1 4 6 282.97 43.9
-1 -4 6 345.37 53.09
1 -5 -6 292.27 37.6
-1 5 -6 346.77 38.5
-4 -1 -6 328.67 37.7
-5 1 6 337.27 45.4
-5 4 -6 331.17 39.7
5 -1 6 312.77 47.1
4 -5 6 268.57 44.9
-5 1 6 327.27 49.4
-4 -1 -6 292.97 42.2
-1 5 -6 320.47 37.8
-4 5 6 335.77 51.29
-5 4 -6 316.97 49.2
-4 5 6 370.46 47.1
-4 5 6 341.97 48.1
-5 1 6 346.07 48.1
-5 4 -6 323.67 38.9
1 4 6 318.37 47.8
-4 -1 6 353.86 53.29
-1 5 6 356.56 51.19
1 4 -6 344.27 39.9
-4 5 -6 281.27 42.7
-1 -4 -6 314.77 39.1
-5 4 6 331.67 46.3
-4 5 -6 337.77 38.7
1 -5 6 345.87 51.79
-1 5 6 350.46 47.6
-4 -1 6 329.27 47.7
-5 4 6 333.27 53.39
-5 1 -6 315.17 38.4
4 1 6 353.26 48.1
-5 1 -6 324.87 43.3
5 -4 6 355.16 45.7
-5 1 -6 296.57 38.8
4 1 6 317.27 47.9
-5 4 6 331.07 45.3
-4 5 -6 333.87 37.3
-5 5 6 691.43 77.39
-5 0 6 818.92 74.89
0 5 -6 726.23 61.09
0 -5 6 822.32 79.09
0 5 -6 753.82 59.49
-5 5 6 786.62 67.09
-5 0 -6 780.32 61.19
-5 5 -6 778.82 59.29
-5 5 6 790.32 73.09
-5 0 -6 753.32 66.09
-5 5 -6 811.22 67.69
5 0 6 728.23 65.49
0 5 -6 816.62 61.89
5 0 6 751.32 69.09
0 5 6 783.32 69.89
0 -5 -6 718.13 59.69
5 -5 6 777.92 72.69
-5 0 6 734.43 65.99
-5 0 -6 691.73 57.89
-5 5 -6 789.72 64.59
0 5 6 803.02 71.39
-6 3 6 177.38 42.2
-3 6 6 146.29 31.5
-6 3 6 127.39 30.1
6 -3 6 100.29 30.7
3 3 6 123.59 35.8
-3 6 -6 181.38 30.3
3 3 -6 147.09 24.2
-6 3 6 143.39 32.2
-3 6 6 125.19 34
-6 3 -6 148.79 35.3
-3 -3 -6 142.19 24.8
-3 -3 -6 177.18 35.3
-3 -3 6 140.19 36
3 -6 6 165.28 38.7
-6 3 -6 173.38 28.4
-3 6 6 130.19 41.5
3 3 6 147.19 32
-3 6 -6 142.59 28.3
-4 6 6 90.89 30.6
-6 4 -6 121.49 26.5
4 2 -6 84.29 22.2
2 4 6 62.39 30.1
-6 2 6 77.49 32.9
-2 6 -6 93.69 26.1
-2 6 -6 113.49 26.5
-4 -2 -6 67.49 19.3
2 -6 -6 61.49 18.1
-6 4 -6 114.79 32.5
-4 6 6 98.49 38.4
4 -6 6 67.69 29.1
2 4 6 94.29 28.7
-2 -4 6 99.79 36.4
-2 6 -6 89.49 25
-6 2 6 51.19 23.6
-4 -2 -6 31.7 20.7
-4 -2 -6 96.29 29.9
-2 -4 6 108.79 22.3
-4 6 6 87.89 27.8
-6 2 6 92.09 30
6 -2 6 60.39 24.7
-2 6 6 26.5 30.6
-2 -4 -6 24.1 27.1
-2 6 6 41.3 32.1
-6 2 -6 52.29 26.2
-4 6 -6 34.2 22.4
2 -6 6 24.5 31.8
-2 6 6 30.8 26.3
-6 2 -6 3.6 12.1
-6 4 6 27.1 22.1
-6 4 6 16.3 25.6
2 4 -6 32.2 20.6
6 -4 6 45.3 27.2
-6 4 6 9.6 33.2
-4 -2 6 45 17.8
-4 6 -6 1.1 23.2
-4 -2 6 25.9 28.6
-2 -4 -6 22.5 18.1
-4 6 -6 35.9 22
4 2 6 31.2 29
-4 -2 6 19.1 24.2
4 2 6 41.6 26.8
-6 2 -6 29.7 29.3
4 -6 -6 9.6 12.3
-1 6 -6 76.49 23.5
1 -6 -6 57.69 19.9
-1 6 -6 150.98 29.9
-5 6 6 43.9 21.4
-5 -1 -6 78.79 19.7
-5 6 6 79.69 30.4
-1 -5 6 64.39 32.5
-6 1 6 78.19 30.2
5 -6 6 70.49 32.2
-5 -1 -6 120.99 30.3
-6 5 -6 74.29 22.4
-5 6 6 119.99 44.2
-5 -1 -6 125.69 32.3
1 5 6 59.09 30.1
-1 6 -6 115.69 27.3
6 -1 6 76.39 28.8
-6 5 -6 91.89 24.5
1 5 6 87.29 30.9
-6 1 6 -9.4 30.8
6 -1 6 37.3 25
-6 5 -6 63.59 30.3
-5 -1 6 94.39 32.8
1 -6 6 98.49 36.2
-6 5 6 111.99 31.1
-5 6 -6 119.99 25.1
-6 1 -6 68.79 18.6
-1 6 6 100.19 32.1
1 5 -6 108.59 24.6
-6 5 6 94.89 38.2
-5 -1 6 101.99 20.2
1 5 -6 101.39 25.4
-6 1 -6 106.39 30.8
5 1 6 90.59 29.8
1 -6 6 149.79 24.2
-6 1 -6 132.19 28.7
1 5 -6 172.38 32.9
-1 6 6 113.19 32.6
-5 6 -6 89.49 25.2
-1 -5 -6 121.79 23.8
5 1 6 86.69 28.3
6 -5 6 38.5 25.5
0 6 6 6.5 30.3
0 6 6 8.6 29.1
-6 0 -6 10 26.9
-6 6 -6 -10.9 28.4
6 0 6 8.6 21.4
-6 0 6 11.4 17.7
0 -6 6 4.4 29.9
-6 0 -6 3.9 15.7
6 0 6 -2.1 26.5
0 -6 -6 4.4 21
-6 6 6 -0.8 23.2
-6 6 6 29.6 30.6
-6 6 -6 24.3 21.2
0 -6 6 14.1 19
-6 6 6 -22.6 36.6
-6 0 6 -13.7 29.5
0 6 -6 8.1 22.3
0 6 -6 -3.7 21.5
6 -6 6 -0.1 24.5
-6 6 -6 4.6 22.3
-6 0 -6 9 26.8
0 6 -6 24 22.6
3 4 6 317.07 51.39
-3 -4 6 283.87 48.8
-7 4 -6 319.97 39.5
3 -7 -6 324.07 39
4 -7 6 212.98 41.3
-4 7 6 311.57 50.29
4 3 -6 319.37 36.8
-7 4 -6 322.97 45.9
-4 -3 -6 326.07 45.7
-4 -3 -6 301.27 40.8
-4 7 6 298.07 52.49
-3 7 -6 324.07 40.9
-3 7 -6 350.46 39.5
-3 7 -6 322.67 42.3
-3 7 6 315.17 49.1
-3 -4 -6 272.27 37.8
-4 7 -6 273.27 37.4
3 -7 6 235.28 43.6
-3 -4 -6 311.77 44.2
-3 7 6 269.67 50.99
-7 3 -6 293.57 49.5
-4 7 -6 300.97 41
4 -7 -6 207.78 33.3
4 3 6 262.87 47.4
-4 7 -6 283.67 35.3
-4 -3 6 310.37 36.8
3 -7 6 356.76 39.2
-7 4 6 226.48 45.2
-4 -3 6 201.88 40.5
-3 7 6 171.08 35.9
-7 3 -6 298.67 39.8
3 4 -6 274.87 35.5
7 -2 6 -11.5 23.8
-2 -5 6 2.6 29.5
-2 7 -6 12.1 22.5
-7 2 6 3.2 27.1
2 -7 -6 11.3 19.3
-5 -2 -6 1.5 17.4
2 5 6 -31 27.4
-2 7 -6 18.5 25.1
-5 7 6 12.8 37.9
5 2 -6 32.3 21.1
2 5 6 1.3 25
5 -7 6 -0.1 27.6
-7 5 -6 5 28.5
-7 5 -6 1.5 20.5
-7 5 -6 7 22.2
-5 7 6 -5.5 19.1
-2 -5 6 23.3 17.7
-5 7 6 10.7 30.3
-5 -2 -6 20.7 27.7
-2 7 -6 -9.9 20.5
-5 -2 -6 1 24.4
-7 5 6 27.2 36.8
5 2 6 -17.3 24.7
2 -7 6 41.3 19.1
-2 7 6 32.8 33.6
-7 5 6 17.2 27.8
-2 7 6 15.2 29.2
-5 7 -6 26.4 23.3
-2 7 6 5.9 27.3
-5 -2 6 0.1 30.3
-5 -2 6 32.8 18.6
-7 2 -6 0 11.3
-5 7 -6 21.9 22.8
5 2 6 0.4 23.4
2 5 -6 15.2 21.5
-7 2 -6 38.9 29.2
2 -7 6 -15.7 28.3
-5 7 -6 16.7 22.5
-2 -5 -6 4.2 19.3
-7 2 -6 15.1 22.2
-7 6 -6 573.74 52.99
-1 7 -6 672.43 56.59
-6 7 6 603.34 69.49
-6 -1 -6 594.84 58.59
-6 7 6 569.74 63.29
-6 -1 -6 645.64 53.59
-7 6 -6 527.65 49.7
-6 -1 -6 650.53 55.59
1 -7 -6 661.13 59.39
-1 -6 6 506.75 67.19
1 6 6 560.24 67.29
-1 7 -6 627.84 52.49
-1 -6 -6 713.33 61.69
-7 1 -6 594.24 58.69
-7 1 -6 658.83 55.79
-7 1 -6 502.45 49.2
-6 7 -6 582.74 53.19
-6 7 -6 640.14 57.49
-1 7 6 519.45 64.49
1 -7 6 731.33 56.49
-1 7 6 573.84 62.89
-6 -1 6 749.13 55.89
-7 6 6 622.64 75.29
1 -7 6 494.55 71.59
1 6 -6 688.73 56.09
-7 0 -6 547.75 62.89
-7 7 6 559.24 70.69
0 -7 -6 700.23 61.89
-7 7 -6 561.74 50.89
-7 0 6 607.34 53.19
0 -7 6 760.82 58.09
-7 0 -6 684.23 59.59
-7 7 -6 465.45 53.69
0 7 -6 682.33 57.79
-7 0 -6 598.44 52.49
-4 8 -6 415.16 45.3
4 -8 6 372.56 40.6
-8 4 -6 259.47 46
-8 4 -6 440.06 43.8
-4 8 -6 403.86 41.8
4 -8 -6 296.87 38.5
-4 -4 6 438.06 45.9
-4 8 6 346.57 59.39
-4 8 6 321.87 51.89
4 4 -6 378.16 40.3
-4 8 -6 331.47 45.6
-4 -4 -6 356.16 46.3
-4 -4 -6 383.36 51.29
-5 8 6 272.47 56.79
-8 5 -6 321.37 39.2
5 3 -6 350.96 38.2
-3 8 -6 245.08 40.9
3 -8 -6 390.56 43.5
-3 -5 6 401.46 44.8
-5 8 6 243.68 46.8
-5 -3 -6 248.78 38.3
-5 -3 -6 350.86 43.6
-3 8 -6 352.16 43.3
3 5 6 191.98 46.4
-5 -3 -6 279.57 45.1
-3 8 -6 340.87 38.9
-3 -5 -6 403.66 49.6
-3 8 6 336.57 58.19
-5 8 -6 401.26 45.6
-5 8 -6 393.36 43.3
3 5 -6 374.56 41.4
-3 8 6 249.18 47.4
-8 3 -6 420.16 45.1
-5 8 -6 325.07 45.7
-8 3 -6 323.27 47.9
3 -8 6 445.56 44.5
-5 -3 6 468.85 47.2
-3 -5 -6 292.67 49.2
-8 6 -6 34.7 19.7
2 6 6 -51.99 29.8
-8 6 -6 -1.2 29.6
-2 -6 6 65.09 23.3
-2 -6 6 -5.9 32.3
-6 -2 -6 37.8 27.6
-6 8 6 -3.6 30.5
-2 8 -6 23.3 23.8
-6 8 6 42.5 43.5
-2 8 -6 36.7 24.2
-8 6 -6 3.4 20.1
-2 8 -6 0.1 22.9
-6 -2 -6 25.1 27
-6 -2 -6 35.5 19.8
2 -8 -6 59.79 24.2
-2 8 6 28.9 37.4
2 -8 6 35.6 19.7
-2 8 6 -24.2 28.7
-6 8 -6 23.9 23.6
-6 -2 6 -3.5 31.8
2 -8 6 -2.9 32.8
6 2 6 -16.2 25.4
-8 2 -6 35.9 26.8
-8 6 6 -9.3 40.8
-2 8 6 0.9 26.8
2 6 -6 38.6 22.8
-2 -6 -6 28.1 23.9
-6 8 -6 31.8 23.2
-6 -2 6 32.5 21
-6 8 -6 29.8 22.1
-8 2 -6 27.1 33
-8 0 -6 256.57 44.5
0 -8 6 267.97 44
-8 0 -6 276.27 36
0 -8 -6 285.47 48.5
-8 8 -6 255.47 37.1
0 8 -6 250.57 43.1
-5 -4 -6 2.6 29.1
-4 9 -6 10.8 40.8
4 -9 -6 27.6 18.6
-4 9 -6 64.09 22.3
-9 5 -6 69.59 25.4
-5 -4 -6 29.1 20.6
-5 9 6 -5.5 32.4
4 5 6 -30 49.9
-4 9 -6 58.69 27.1
-4 -5 6 34.9 19.9
-5 9 6 1.6 43
5 4 -6 78.19 25.2
4 5 -6 72.49 24.4
-4 9 6 -13.7 34.5
-5 9 -6 73.89 25.6
-9 4 -6 120.09 26.9
-9 5 6 65.39 20.2
-4 -5 -6 89.79 27.5
-5 -4 6 93.69 24.6
-5 9 -6 86.39 23.9
4 -9 6 58.19 20.2
-5 9 -6 9 26
-3 9 -6 144.99 31.7
-6 -3 -6 79.79 25.1
-3 9 -6 120.19 27.9
-6 -3 -6 73.99 28.3
-9 6 -6 129.39 27.4
-9 3 6 67.89 21.3
6 3 -6 128.89 25.9
-3 -6 6 111.89 24.6
3 -9 -6 83.49 24.8
-6 9 -6 88.29 27.4
3 -9 6 91.59 23.8
-6 9 -6 64.79 27.7
-9 3 -6 75.19 25.6
-6 -3 6 56.59 22.9
-3 -6 -6 80.99 28.1
3 6 -6 78.29 25.8
-9 2 6 628.24 54.19
2 -9 -6 768.02 67.79
-2 -7 6 668.93 60.79
-2 9 -6 707.13 59.39
-9 7 -6 557.74 55.59
-2 9 -6 765.12 62.19
-7 -2 -6 674.83 62.19
-7 -2 -6 620.04 61.99
-7 9 -6 659.93 57.09
-7 9 -6 530.35 54.99
2 -9 6 639.54 59.29
2 7 -6 660.93 57.79
-9 2 -6 716.03 61.39
-2 -7 -6 716.23 66.09
-7 -2 6 626.24 60.29
-1 -8 6 24.7 21.9
-8 -1 -6 20.2 19.6
-9 8 -6 23.8 21.6
-1 9 -6 13.8 26
-9 1 6 6.3 19.1
-9 8 -6 16.8 23.8
1 -9 -6 20.7 22.4
-8 -1 -6 13.8 26.5
1 8 -6 36 26.1
-8 -1 6 -3.8 20
-8 9 -6 24.6 21.6
-9 1 -6 11.6 25.9
-8 9 -6 20 22.5
1 -9 6 22 19.6
-1 -8 -6 37.3 25.6
0 -9 -6 449.46 55.49
0 -9 6 333.37 45.7
-9 0 6 400.06 42
0 9 -6 423.96 49.8
-9 9 -6 397.16 44.3
-9 0 -6 405.76 51.99
-9 9 -6 355.56 44.3
-10 5 -6 841.92 66.79
5 5 -6 820.72 66.19
-5 10 -6 834.52 64.49
-5 10 -6 813.42 67.89
-10 5 6 806.82 62.19
-5 -5 -6 785.92 69.29
-5 -5 6 738.33 68.89
6 4 -6 281.57 38.9
-6 -4 -6 283.47 46.6
4 -10 -6 235.58 42.4
-4 -6 6 252.27 44
-10 6 -6 308.97 36.4
-4 10 -6 312.17 42.3
-4 10 -6 281.17 38.3
-6 -4 -6 195.98 34.5
-6 10 -6 362.26 44.9
-10 4 -6 385.46 45.5
4 6 -6 387.36 45
-4 -6 -6 403.86 53.49
-10 6 6 353.96 41.3
-6 -4 6 333.07 49
-6 10 -6 376.46 42.6
-7 -3 -6 6.3 22.7
-3 -7 6 9.7 19.3
-3 10 -6 -2.6 25.5
3 -10 -6 -1.6 22.6
-3 10 -6 -3.4 22
-10 7 -6 -8.6 20.3
-10 3 6 -3.4 18.6
-7 -3 -6 18 25.7
3 -10 6 12.7 21
-7 -3 6 7.5 22.6
-7 10 -6 26.9 24.6
3 7 -6 20.1 23.5
-10 3 -6 31.4 26
-3 -7 -6 6.1 21.9
-7 10 -6 19.6 24.4
-10 7 6 14 18.3
-10 2 6 496.35 48.9
-8 -2 -6 545.05 55.49
-2 10 -6 612.54 57.79
-2 -8 6 416.06 55.59
-10 8 -6 566.54 52.39
2 -10 -6 630.74 63.09
-8 -2 -6 530.95 58.49
-8 -2 6 456.35 58.49
-10 2 -6 681.53 57.19
2 8 -6 646.94 58.09
-8 10 -6 633.94 55.59
2 -10 6 445.36 55.99
-2 -8 -6 621.44 63.99
-8 10 -6 587.24 53.99
-1 -9 6 77.39 24
-10 9 -6 105.99 28.9
-10 9 -6 147.19 30.4
1 -10 -6 104.09 28.7
-10 1 6 113.69 25.7
-1 10 -6 190.38 37.4
-9 -1 -6 114.79 33.1
-9 -1 -6 79.79 23
-9 -1 6 88.19 24.8
-9 10 -6 103.39 29
-9 10 -6 116.59 29.4
1 -10 6 61.59 26.3
1 9 -6 138.59 33.3
-1 -9 -6 96.19 29.7
-10 1 -6 125.79 34
0 10 -6 231.38 37.7
-10 10 -6 134.59 32.3
-10 10 -6 212.78 35.9
-10 0 -6 236.88 43.2
-10 0 6 201.98 32.6
0 -10 -6 250.07 39.7
-11 5 6 25.7 21.7
-5 11 -6 20.9 24
-5 11 -6 31.5 23.3
5 -11 -6 3.3 17.6
6 5 -6 42.5 24
-5 -6 6 25.1 24.9
-6 -5 -6 24.4 24.2
-11 6 -6 40.5 22.9
-6 -5 6 54.49 26.3
-11 6 6 92.99 25.5
5 6 -6 93.99 26.3
-5 -6 -6 96.69 30.7
-6 11 -6 79.89 27.1
-11 5 -6 168.18 32.6
-6 11 -6 80.59 24.7
-4 -7 6 322.07 47.3
4 -11 -6 437.66 53.79
-11 7 -6 426.16 46.5
-4 11 -6 365.96 44.8
-7 -4 -6 357.16 48.2
-7 -4 -6 467.05 54.89
-4 11 -6 509.95 51.59
4 7 -6 648.74 57.69
-11 7 6 557.84 51.79
-7 11 -6 519.95 53.99
-7 11 -6 613.14 57.59
-4 -7 -6 617.34 64.99
-11 4 -6 617.44 58.09
-3 -8 6 210.28 36
-3 11 -6 316.37 45
-8 -3 -6 324.77 49.4
-8 -3 -6 292.77 45.5
-11 3 6 284.37 37.2
-11 8 -6 290.47 40.4
3 -11 -6 320.67 53.59
-8 11 -6 274.07 42.6
3 8 -6 274.27 43.8
-3 -8 -6 291.27 50.59
-11 8 6 252.87 36.9
-8 -3 6 349.47 41.5
-11 3 -6 312.97 45.9
-8 11 -6 275.67 41.2
-9 -2 -6 22.7 29.7
-11 9 -6 26 24.8
-11 2 6 10.9 22.2
-2 -9 6 -4.9 21.8
-11 9 -6 21.8 25
2 -11 -6 23 26.8
-9 -2 -6 5.4 21.4
-2 11 -6 42.8 28.3
-11 9 6 -4.1 15.8
2 9 -6 14.4 27.5
-9 11 -6 20.5 26
-9 -2 6 3.6 21.7
-2 -9 -6 12.2 22.8
-11 2 -6 34.6 28.2
-9 -2 6 7.9 23.4
2 -11 6 -15.3 21.8
-9 11 -6 8.4 23.7
-1 -10 6 62.59 24.4
-11 10 -6 142.59 31.9
-10 -1 -6 180.98 40.1
-1 11 -6 211.88 39
1 -11 -6 142.99 33.5
-11 1 6 101.39 26.2
-11 10 -6 119.29 31.3
-10 -1 6 181.08 30.9
-11 1 -6 212.28 42.6
-1 -10 -6 191.58 36.4
1 -11 6 106.49 29.5
-10 11 -6 123.19 31.6
-10 11 -6 133.99 31.1
1 10 -6 158.58 32.6
-11 0 6 133.89 28.8
0 -11 -6 187.38 35.3
-11 11 -6 182.88 35.8
0 11 -6 153.48 34
-11 0 -6 252.17 45.1
-11 11 -6 151.08 33
-6 -6 -6 570.24 61.99
6 6 -6 519.35 53.99
-12 6 -6 613.44 56.59
-6 12 -6 587.64 55.99
-12 6 6 520.15 52.29
-6 12 -6 421.06 49.9
-5 12 -6 554.84 54.99
-5 12 -6 491.45 51.19
-7 -5 -6 563.84 62.79
-12 7 -6 554.54 52.69
-5 -7 6 405.66 56.39
-12 5 6 538.35 51.89
-7 12 -6 634.84 58.39
5 7 -6 611.54 59.29
-5 -7 -6 658.23 66.99
-12 7 6 610.64 54.49
-7 12 -6 488.65 52.89
-12 5 -6 645.64 60.09
-8 -4 -6 343.97 53.99
-12 8 -6 295.67 43.6
4 -12 -6 325.57 53.49
-8 -4 -6 247.18 43.6
-4 -8 6 324.87 43.1
-12 4 6 344.07 43.6
-4 12 -6 353.46 47.2
-8 12 -6 370.96 49
4 8 -6 389.56 48.7
-12 8 6 380.06 43.7
-8 12 -6 282.77 41.1
-12 4 -6 415.96 47.4
-4 -8 -6 380.16 51.59
-8 -4 6 410.36 44
-12 3 6 157.38 30.3
-9 -3 -6 194.88 34.8
-12 9 -6 173.58 32.3
-9 -3 -6 133.09 33.9
-12 9 -6 119.39 31.4
-3 -9 6 221.38 36.7
3 -12 -6 160.58 33.9
3 9 -6 335.57 46.4
-3 -9 -6 292.37 50.09
-12 3 -6 311.77 47.8
-12 9 6 285.37 37.4
-9 -3 6 321.37 42.3
-9 12 -6 270.27 42.1
-9 12 -6 234.08 41
-9 -3 6 183.98 36
-10 -2 -6 7.8 21.3
2 -12 -6 11.4 24.9
-2 12 -6 25.2 26.1
-12 10 -6 0 26
-12 2 6 -15.3 21.8
-12 10 -6 16.2 25
-2 -10 6 -0.6 21.2
-10 -2 -6 -11.7 28.6
-10 -2 6 6.2 18.3
-2 -10 -6 -0.2 21.9
-10 12 -6 -7.1 24.7
2 10 -6 12.7 28.1
-12 10 6 0.2 18.2
-12 2 -6 -3.7 27.4
-10 12 -6 23.7 25.8
2 -12 6 2.9 23.6
-10 -2 6 -7.7 22.2
-11 -1 -6 216.78 43.4
-12 1 6 222.48 36.7
-1 12 -6 285.37 46.1
-1 -11 6 199.78 36.2
-12 11 -6 209.48 38.7
-12 11 -6 187.88 37.8
1 -12 -6 243.58 39.2
-1 -11 -6 307.77 50.59
-11 12 -6 152.68 33.5
1 11 -6 315.27 45.1
-11 12 -6 172.28 35.3
-11 -1 6 241.08 40.2
1 -12 6 222.18 37.3
0 12 -6 30 20.3
0 -12 6 9.6 23.1
-12 12 -6 16.8 27
0 -12 -6 51.89 27.3
0 12 -6 44.1 29.7
-12 12 -6 24.3 27.3
-12 0 -6 35.1 33.8
12 0 -6 7.2 14.2
-12 0 6 48.2 26.2
12 -12 -6 39.6 21.3
-6 -7 6 115.79 30.7
-6 13 -6 267.97 41
-13 7 -6 230.48 39
-7 -6 -6 199.08 37.4
7 6 -6 215.78 36.7
-13 6 6 147.39 31.5
-7 13 -6 220.68 37.5
-13 7 6 259.57 41
-7 -6 6 271.57 44.6
-13 6 -6 277.77 44.7
-7 -6 6 241.08 39.1
-6 -7 -6 280.77 42.4
-13 5 6 168.58 33.3
-5 13 -6 272.07 42.6
-5 -8 6 202.18 36.6
-8 -5 -6 213.18 39.1
-13 8 -6 187.38 35.2
-8 13 -6 138.09 32.7
5 8 -6 274.17 43.9
-5 -8 -6 219.18 39
-13 8 6 173.78 32.1
-8 -5 6 207.08 38.2
-13 5 -6 192.38 36.7
-4 -9 6 117.49 28.9
4 -13 -6 92.39 29.2
-13 9 -6 137.69 31
-13 4 6 113.19 29.1
-9 -4 -6 102.29 31.1
-9 -4 -6 87.89 30.6
-4 13 -6 181.68 35.7
-9 -4 6 121.29 31.6
-4 -9 -6 167.58 32.5
-9 13 -6 138.29 31.1
4 -13 6 123.99 28.2
-13 9 6 179.18 30.9
-10 -3 -6 -6.3 23.2
-10 -3 -6 9.7 27.6
-13 10 -6 -7.1 26.1
13 -3 6 -2.5 12.4
-3 -10 6 0.8 21.8
-13 10 -6 15.4 26.3
-3 13 -6 22.2 26.7
3 -13 -6 13.4 25.7
-13 3 6 6.3 22.5
10 3 -6 2.6 14.3
-3 13 -6 -1.5 17.8
-13 3 -6 21.5 30.7
-10 13 -6 -1.1 23.6
-10 -3 6 -28.9 21.6
-3 -10 -6 18.4 23.4
3 10 -6 17.2 29.6
10 -13 -6 4.8 16.6
-10 -3 6 12.4 22.2
3 10 -6 8.3 14.8
-13 3 -6 -12.8 16.3
-13 10 6 -2.8 22.3
3 -13 6 -20.9 21.6
11 2 -6 58.09 18.6
2 -13 -6 82.89 29.2
-2 -11 6 125.69 32.5
-13 11 -6 71.39 31.7
-2 13 -6 136.49 37.6
-13 11 -6 119.79 31.9
-13 2 6 87.19 28.2
-2 13 -6 63.79 21
-11 -2 -6 131.69 37.5
-13 2 -6 97.79 36.3
-11 13 -6 99.69 29.9
11 -13 -6 118.39 25.3
2 11 -6 143.89 37
-13 2 -6 47.4 22.2
-2 -11 -6 102.19 29.9
-11 -2 6 146.19 33.1
2 11 -6 78.79 22.1
2 -13 6 67.39 28.1
1 12 6 33.7 22.4
-1 -12 6 67.19 28.8
-13 12 -6 51.79 29.9
12 1 -6 67.99 20.5
1 -13 -6 60.59 26.9
-1 13 -6 70.19 31.6
-13 12 -6 21.9 25
-13 1 6 29.1 24.7
-1 13 -6 97.09 26.3
-12 -1 -6 88.09 36.4
13 -12 -6 72.09 25.1
1 12 -6 79.69 34.4
1 12 -6 36 22.9
-13 1 -6 19.6 22.7
-1 13 6 38.3 22.7
-1 -12 -6 46.1 25.6
-12 13 -6 23.6 26.7
-12 -1 6 31 25.3
13 -1 -6 62.19 19.2
12 -13 -6 30.7 23.6
-13 1 -6 54.39 33.8
1 -13 6 44.5 28.2
-13 0 6 160.58 32.8
-13 13 -6 123.19 33.9
13 0 -6 214.28 32.4
0 13 -6 269.47 45.5
-13 0 -6 176.88 29.4
0 -13 -6 170.48 34.4
0 13 -6 165.08 28.5
-13 0 -6 278.37 49.8
0 -13 6 208.68 37
0 13 6 214.78 33
-14 7 6 492.75 53.39
7 7 -6 562.74 43.9
14 -7 6 397.06 40.7
-7 -7 6 542.05 64.39
-7 -7 -6 521.65 62.19
7 7 -6 515.25 54.59
-7 14 6 463.95 46.9
7 -14 -6 514.55 46.4
-14 7 -6 515.25 55.99
7 -14 6 369.86 42.8
-6 14 -6 19.8 17.2
8 6 -6 67.79 21.1
-6 14 -6 74.99 31.3
-8 -6 -6 43.1 28.3
-14 6 6 44.7 27.3
-6 -8 6 76.69 29.4
6 -14 -6 27.3 19.7
8 -14 6 66.29 21.8
-14 8 -6 46.2 28.5
-6 -8 6 68.99 28.9
14 -6 6 77.39 19.3
-14 8 6 19.3 25.4
-8 14 -6 14 27.1
-6 -8 -6 27 25.7
6 8 -6 29.4 20.2
6 8 -6 1.6 19.1
-14 6 -6 20.3 27.2
-8 -6 6 8.4 26.5
14 -8 6 7.7 13.7
8 -14 -6 15.4 21.8
-6 14 6 19.5 22.9
6 8 -6 36 28.5
-14 6 -6 0.7 15.1
6 -14 6 4.6 13.4
-8 -6 6 12.8 28
-8 14 -6 -1.3 15.7
14 -9 -6 7.9 14.9
-14 5 6 24.6 27.5
-14 9 -6 34.9 27.4
-5 14 -6 20.8 19.9
9 -14 6 14.4 20.9
14 -5 6 13.9 16.7
5 -14 -6 2.5 16
-5 14 -6 35 29.3
9 5 -6 4.9 18.3
-5 -9 6 7.7 24.3
-9 -5 -6 25.1 27.7
-9 -5 -6 -3.6 23.1
-5 -9 6 6.5 27.2
-14 5 -6 32 29.9
-14 9 6 22.4 23.8
-9 14 -6 1.6 16.3
-9 -5 6 29 26.7
14 -9 6 -8.9 14.8
5 9 -6 12.8 19.4
-9 14 -6 19.5 25.9
9 -14 -6 5.9 17.1
9 -14 -6 16.2 21.7
-5 -9 -6 30.3 27.2
-9 -5 6 -9.2 25.9
-5 14 6 19.4 22.4
-14 5 -6 7.6 21.3
5 -14 6 -7.4 21.3
5 9 -6 41.2 30.9
-4 14 -6 196.98 40.1
-10 -4 -6 105.19 31.5
-14 4 6 98.09 30.2
10 4 -6 153.78 26
-4 14 -6 135.09 25.8
-14 10 -6 84.29 30.1
14 -10 -6 95.69 23.7
10 -14 6 84.19 23
-4 -10 6 134.19 33
-10 -4 -6 92.99 31.9
14 -4 6 109.99 20.4
-4 -10 -6 210.58 36.9
-14 10 6 216.48 34.1
-10 -4 6 251.37 43.7
-4 14 6 254.07 39.1
-14 4 -6 214.08 30.2
4 10 -6 172.88 36.4
-10 -4 6 119.19 32.5
4 10 -6 285.07 32.7
10 -14 -6 171.38 28.1
-10 14 -6 183.68 36.5
14 -11 -6 -2.4 11.4
11 -14 6 13.2 19.8
-3 14 -6 0.4 28.7
-3 14 -6 7.4 22.4
3 11 6 0.8 21.2
11 3 -6 28.2 20.9
-14 3 6 9.4 26.8
14 -3 6 -1.8 16.2
-14 3 6 16.2 24.9
-14 11 -6 -8 25.9
14 -11 -6 -0.4 20.5
-14 11 -6 -20.5 28.5
-11 -3 -6 26.7 29.3
-3 -11 6 -7.7 23.1
3 -14 -6 2.3 24.8
3 11 -6 -1.4 23
11 -14 -6 -3.6 15.8
-11 14 -6 -0.9 13.8
-14 11 6 -8.3 20.8
-3 14 6 10.4 23.4
3 11 -6 6 29.5
-3 -11 -6 25.5 26
-11 -3 6 5.3 25.7
11 -14 -6 15.9 24.7
-14 3 -6 3.5 30.6
3 -14 6 -9.7 21.4
14 -3 -6 20.3 16.3
-14 3 -6 -7.5 23.3
-11 14 -6 27.8 29.2
14 -12 -6 4.8 23.7
12 -14 6 -0.6 16.4
-2 14 -6 11.4 22.5
-12 -2 -6 12.3 30.9
2 12 6 1 24.3
-14 2 6 -14 23.8
-14 12 -6 14.7 29.2
2 -14 -6 15.9 24
12 2 -6 0.7 21.5
-2 14 -6 10.7 29.5
-12 -2 -6 -12.7 14
-2 -12 6 9.8 24.4
14 -2 6 3.6 17.6
-14 12 -6 -2.6 22.4
2 -14 6 -16.2 23.1
-14 2 -6 15.1 33.2
-12 -2 6 15.7 24.4
12 -14 -6 -4.2 25.1
12 -14 -6 -1.6 22.2
2 12 -6 6.3 22
-2 -12 -6 25.5 24.2
2 12 -6 27.2 31.2
-14 2 -6 10.9 25.3
-12 14 -6 4.6 13.7
-2 14 6 2.7 25.4
14 -2 -6 19.1 19.9
-12 14 -6 24.3 27.3
1 -14 -6 67.39 26.3
-1 14 -6 156.18 40.4
-14 1 6 75.49 29.2
14 -1 6 67.79 19.6
-13 -1 -6 87.19 35.6
-13 -1 -6 72.29 23.4
14 -13 -6 138.49 29.4
13 1 -6 136.59 25.1
1 13 6 107.29 30.4
-1 -13 6 55.39 26.3
-14 13 -6 72.79 31.5
-1 14 -6 76.69 24.5
-13 14 -6 44 19
-14 1 -6 60.79 34.2
1 13 -6 77.09 34.6
-13 14 -6 55.59 29.8
13 -14 -6 75.19 26.7
1 13 -6 122.39 28.1
-1 -13 -6 46.3 25.3
-13 -1 6 84.39 30
14 -1 -6 97.09 23.2
-1 14 6 78.09 26.1
1 -14 6 46.5 27.4
-14 1 -6 94.49 27.7
0 -14 6 12.9 27.5
0 14 -6 2.8 24
14 -14 -6 3.7 26
0 14 -6 19.4 31.1
-14 0 6 14.6 26.1
14 0 -6 -7.6 18.5
-14 0 -6 3.6 22.8
14 0 6 -4.7 15.7
14 0 -6 4.1 15.5
0 -14 -6 7.3 24.1
-14 14 -6 27.8 29.6
-14 14 -6 12.2 18.9
0 14 6 13.3 25.2
-14 0 -6 19.3 34.1
-7 -8 6 41.4 28.9
7 -15 -6 70.09 24
-8 -7 -6 76.69 30.4
-7 15 -6 52.19 29.2
-15 8 -6 30.1 18.2
-15 7 6 70.29 27.4
8 -15 6 81.09 23.4
-7 -8 6 46.4 29.9
-7 15 -6 57.79 23.7
8 7 -6 44.9 21.7
15 -7 6 77.89 21.8
-8 15 6 76.79 27.8
-15 8 -6 53.19 30.8
15 -8 -6 59.69 21.9
8 -15 -6 12.6 18.9
-7 15 6 85.39 29.5
-8 -7 6 41 29.1
-8 15 -6 97.99 25.2
-15 7 -6 136.69 37.2
7 8 -6 77.69 23.7
-8 -7 6 62.59 30.2
7 -15 6 93.69 24.4
-7 -8 -6 70.29 29.5
15 -7 -6 70.19 22.4
8 -15 -6 67.89 24
15 -8 6 82.89 23.1
-15 7 -6 69.19 21
-8 15 -6 88.39 31.6
-15 8 6 56.69 27.2
15 -6 6 233.28 28.4
-6 -9 6 203.28 39.1
-9 -6 -6 222.58 39.3
-6 15 -6 187.58 38.1
-6 15 -6 280.17 33.4
-6 -9 6 289.77 44.4
6 -15 -6 177.58 28.5
9 6 -6 166.78 27
15 -9 -6 157.38 28
-15 6 6 210.58 38.8
-15 9 -6 137.19 35.4
9 -15 6 263.97 30.9
-6 -9 -6 230.28 40.3
-15 6 -6 193.68 39.5
-9 15 -6 243.28 41.8
-6 15 6 292.47 37
15 -9 6 207.08 28.9
-15 9 6 231.28 36.9
6 9 -6 212.18 41.5
9 -15 -6 247.48 38.8
6 9 -6 310.47 35.1
-9 15 -6 181.28 29.1
15 -6 -6 197.28 33.4
-9 -6 6 291.07 48.4
6 -15 6 230.68 29.5
-15 6 -6 257.27 36
9 -15 -6 218.28 30.4
-9 -6 6 203.28 38.8
15 -10 -6 -1.1 16.5
-5 -10 6 -6.1 27.2
-15 5 6 -17.4 26.9
15 -10 -6 25.6 23.5
-15 10 -6 11 26.9
5 10 6 -14 24.2
-10 -5 -6 11.6 26.6
-5 15 -6 -9 29.2
-5 -10 6 -6.7 23.6
5 -15 -6 2.1 19.9
-5 15 -6 -1.6 22.4
-10 -5 -6 -0.5 25.8
15 -5 6 2.1 17.9
10 5 -6 -0.2 20.6
10 -15 6 24.7 21.6
-10 -5 6 45.3 30.2
-15 10 6 13.5 24.7
15 -10 6 22.6 20.5
-10 15 -6 9.2 27.8
15 -5 -6 22.1 18.6
-15 5 -6 -27.5 22.9
5 10 -6 7.4 21.8
5 -15 6 9.6 19.1
-10 -5 6 -27.2 24.6
-5 15 6 13 23.9
5 10 -6 12.2 32.8
10 -15 -6 -2.7 24.2
-5 -10 -6 19.6 24.1
10 -15 -6 -1.9 23.2
-15 5 -6 -3.5 28.4
-10 15 -6 7.1 20.6
-4 -11 6 9 25
15 -4 6 7.8 18.6
-11 -4 -6 6.8 26.7
-4 15 -6 -4.3 29.1
11 4 -6 5.7 23.2
-15 4 6 -16 27.3
-15 11 -6 10.1 26.3
-15 11 -6 -11.1 33.7
11 -15 6 26.5 21.9
4 11 6 -3.1 25.9
-4 15 -6 7.5 22.4
15 -11 -6 11.9 23.1
4 -15 -6 9.9 18.6
-4 -11 6 9.3 26.2
15 -11 -6 1.8 11.8
-15 4 6 -5.9 32.8
-15 4 -6 10.9 32
-11 15 -6 8.5 27.4
-11 -4 6 7.6 26.9
-4 -11 -6 19.7 23.7
4 11 -6 16.6 22.6
-4 15 6 -1.9 23
4 -15 6 -10.7 13.9
-15 11 6 8.2 24.6
-11 15 -6 1.8 22.4
15 -4 -6 17.2 18.6
4 11 -6 -8.6 33.7
15 -11 6 12.6 20.8
11 -15 -6 5.3 26.2
4 -15 6 -17.3 17.8
-15 4 -6 2.7 22.9
11 -15 -6 1.8 22.6
-15 3 6 38.7 28.6
15 -12 -6 10.5 18.8
-3 15 -6 48.8 32.8
15 -3 6 40.2 19
-12 -3 -6 -12.9 14.2
-12 -3 -6 34.2 30.3
-15 3 6 11.2 24.2
12 3 -6 30.6 22
-3 15 -6 53.49 23.8
3 -15 -6 7.4 23.6
12 -15 6 23.4 20.2
15 -12 -6 17.6 23.1
-3 -12 6 23.3 25.5
-3 -12 6 25.3 24.8
-15 12 -6 -18.9 29.8
3 -15 -6 -1.8 13.1
3 12 6 27.1 26.9
-15 3 -6 90.59 39
12 -15 -6 29.5 24.4
-12 15 -6 31 21.9
15 -12 6 5.8 15.6
-3 15 6 96.39 28.3
-15 3 -6 51.79 26.5
3 12 -6 62.59 35.6
15 -3 -6 92.89 22.7
-12 -3 6 47.8 29.6
-12 15 -6 52.39 32
3 12 -6 85.19 26.9
-3 -12 -6 79.79 28.6
12 -15 -6 78.19 28.3
15 -3 -6 51.59 19.6
15 -13 -6 71.09 26.2
-15 2 6 44.8 31
2 -15 -6 34 24.1
13 2 -6 75.89 23.3
2 13 6 81.69 29.2
-2 -13 6 35.4 29.1
13 -15 6 63.19 22.1
-2 15 -6 57.09 25.4
-15 13 -6 5.6 28.2
-13 -2 -6 53.59 22.2
15 -13 -6 48.2 22.4
-2 15 -6 55.99 33
-13 -2 -6 64.89 34
15 -2 6 58.19 20.1
-15 13 -6 -4.9 23.9
-15 2 6 28.7 26.3
13 -15 -6 82.19 27.9
13 -15 -6 33.1 20.8
2 13 -6 101.09 38
-2 -13 -6 49.1 25.4
15 -2 -6 79.39 22
-13 15 -6 25.9 20.9
-2 15 6 56.99 24.9
-15 2 -6 105.49 28.6
-13 15 -6 40.3 29.6
-13 -2 6 107.59 32.6
2 13 -6 49 22.8
2 -15 6 -7 24.5
15 -2 -6 48.1 20.3
-15 2 -6 84.09 38.9
14 -15 6 22.8 17.7
-1 -14 6 11.6 26.4
-15 14 -6 4.2 28.1
14 1 -6 12.6 19.4
1 -15 -6 21.6 23
-1 15 -6 25.1 33.2
-15 14 -6 25.2 20.3
-1 15 -6 2.5 20.5
1 14 6 51.49 27.3
15 -14 -6 -3.7 24.6
15 -1 6 24.4 18.4
14 1 -6 7.9 16.4
-14 -1 -6 28.7 22.4
-14 -1 -6 29 33.2
-15 1 6 8.1 25.3
1 14 -6 36.9 33.9
-15 1 -6 30 33.2
14 1 6 7.6 13.3
14 -15 -6 27.5 24.2
15 -1 -6 23.7 20.3
-15 1 -6 33.1 24.2
-14 -1 6 22.7 26.2
15 -1 -6 29.1 22.8
1 -15 6 -0.2 23.7
-1 -14 -6 31.5 25
-14 15 -6 29.6 28.8
1 14 -6 21.2 21.4
-1 15 6 30.4 25.6
-14 15 -6 6.4 19.9
-15 0 6 41.5 27.7
-15 0 -6 34.1 32.4
15 -15 -6 38.4 25.1
0 -15 6 8.6 24.7
0 15 6 44.2 24.5
-15 15 -6 38.4 28.4
0 15 -6 69.89 22.5
15 0 -6 94.99 22.6
-15 0 -6 88.19 25.5
-15 15 -6 26.5 21.4
0 15 -6 91.39 37.6
15 0 6 42.6 18.7
15 0 -6 42.5 22.6
0 -15 -6 33.6 24.4
-8 -8 6 166.18 37.8
-8 -8 6 75.99 32.6
16 -8 6 114.49 23.8
8 8 -6 185.98 29.1
-16 8 -6 68.49 21.9
8 8 6 116.59 27.9
-8 -8 -6 67.09 28.9
-8 16 -6 154.98 27.8
-8 16 -6 86.89 31
8 -16 6 152.38 26.4
-16 8 6 83.79 28.5
-8 16 6 107.99 28.5
8 -16 -6 138.09 26.2
-16 8 -6 151.48 37.9
16 -8 -6 117.59 25
7 -16 -6 221.68 29.9
-9 -7 -6 147.29 35.1
-7 16 -6 210.78 41.6
9 7 -6 203.78 29.6
-16 9 -6 190.58 40.2
16 -7 6 147.79 25.6
-7 -9 6 152.58 35.9
16 -9 -6 170.58 29.5
-16 7 6 163.88 36.4
-7 16 -6 162.58 27.2
9 -16 6 149.59 25.7
-7 -9 6 164.28 37.4
-16 9 -6 127.59 23.5
7 9 6 111.59 29.9
-7 -9 -6 124.69 31.7
-9 16 -6 153.38 28.4
9 -16 -6 93.69 28.1
16 -9 6 153.48 26.1
9 -16 -6 188.68 29.8
-16 9 6 80.79 28.7
-16 7 -6 153.48 40.4
-9 -7 6 201.78 40.6
16 -7 -6 101.89 25.2
-7 16 6 148.49 29.7
7 -16 6 139.99 24.9
-9 16 -6 74.79 31.2
7 9 -6 124.29 25.8
-9 -7 6 90.09 32.2
-16 7 -6 147.89 26.3
-10 16 6 8.3 26
16 -10 -6 11.6 23.3
6 10 6 -2.3 27.2
-6 16 -6 15.8 29.1
-6 16 -6 13.3 22.8
-6 -10 6 18.3 28.5
-16 10 -6 -3.5 14.8
-16 10 -6 -5.9 26.6
16 -10 -6 20.3 22.3
16 -6 6 -1.4 20.7
-10 -6 -6 0 25
6 -16 -6 -3.6 20.7
-16 6 6 6.6 26.6
-6 -10 6 -7.2 26.5
10 -16 6 27.2 21.3
10 6 -6 1.9 21.3
6 10 -6 -17.3 29.6
10 -16 -6 21.5 22.8
-10 -6 6 -46.9 23.2
-6 -10 -6 23 24.4
-10 16 -6 14.9 22.7
-16 10 6 -0.4 24.3
-16 6 -6 -6.7 20.2
16 -10 6 10.2 21.1
6 10 -6 27.2 22.6
-16 6 -6 33.2 34
10 6 6 -0.7 19
-6 16 6 10.2 23.6
-10 16 -6 -1.9 25.9
-10 -6 6 2.8 28.5
16 -6 -6 20.2 21.6
6 -16 6 16.2 20.4
10 -16 -6 8.5 26.2
-16 11 -6 7 25.2
5 11 6 9.7 27.2
-5 16 -6 16.9 23.6
-5 16 -6 6 29.4
16 -11 -6 3.7 23.8
-5 -11 6 4.8 25.8
-5 -11 6 17.8 26.6
-16 5 6 15.6 30.3
11 -16 6 26 20.1
5 -16 -6 6.9 19.2
16 -5 6 7.6 20.1
11 5 -6 14.8 23.5
16 -11 -6 0.5 10.6
5 -16 6 11.1 21.1
16 -5 -6 21.2 21.5
-11 -5 6 12 27.9
16 -11 6 7 22.1
-11 16 -6 11.7 28.2
-11 16 -6 18 21.3
5 11 -6 21 21.6
-16 5 -6 -5.8 22.6
5 11 -6 12.3 31.6
11 -16 -6 21.9 23.4
-16 5 -6 29.4 35.3
-5 16 6 4.4 22.6
11 -16 -6 13.9 25.6
-16 11 6 6.8 25.1
-5 -11 -6 27.2 24.8
4 -16 -6 127.59 24.5
16 -4 6 238.68 28.4
12 -16 6 149.39 24.8
4 12 6 245.58 36.3
-4 16 -6 172.28 40.1
16 -12 -6 199.48 30.3
-16 4 6 174.08 39.2
-4 -12 6 147.89 33.6
16 -12 -6 140.29 22.7
4 12 -6 168.48 28.6
12 -16 -6 261.67 39.4
-16 4 -6 160.48 41.3
16 -4 -6 191.78 29.4
-4 16 6 214.48 31.4
4 12 -6 260.27 47.4
-12 16 -6 249.38 37.4
-4 -12 -6 156.78 32.3
-12 -4 6 176.68 36.7
-12 16 -6 122.29 33.8
16 -12 6 227.38 29.9
16 -13 -6 109.29 28.6
13 -16 6 90.19 22.8
-13 -3 -6 34.3 29.4
16 -3 6 71.29 21
-13 -3 -6 78.79 22.1
13 3 -6 127.89 25.1
3 13 6 100.09 29.2
16 -13 -6 86.79 22.9
-3 16 -6 98.69 36.3
-3 -13 6 75.39 30
-16 3 6 98.39 35
-3 16 -6 138.09 27.4
3 -16 -6 64.49 19.6
16 -3 -6 99.79 25
-3 -13 -6 82.59 28.6
16 -13 6 91.29 25.2
-16 3 -6 80.69 39.2
-13 16 -6 83.89 32.7
-16 3 -6 159.58 30.7
-13 16 -6 101.69 25.5
13 -16 -6 76.39 25.7
3 13 -6 116.29 27
-13 -3 6 76.59 30.9
-3 16 6 92.69 25.6
3 13 -6 17.4 33.6
13 -16 -6 112.79 28.1
-2 16 -6 35.2 22.4
16 -14 -6 43.1 26.2
-16 2 6 -7.5 22.9
-16 14 -6 -1 19.8
-14 -2 -6 45.7 21.7
16 -2 6 11.8 19.2
14 2 -6 3.9 18.4
14 2 -6 13.2 18.8
14 -16 6 36 19.4
16 -14 -6 4.5 19.3
2 14 6 22 24.9
-14 -2 -6 37.6 29.8
-16 2 6 16.2 30.3
-2 16 -6 16.9 30.5
-2 -14 6 -8.8 24
-14 -2 6 25.2 27.2
16 -2 -6 17.6 21.3
-14 16 -6 33.2 22.6
14 -16 -6 11.2 21.9
-16 2 -6 31.8 23.5
2 -16 6 -24.7 20.2
-2 -14 -6 40.5 25.4
-16 2 -6 22.2 33.2
2 14 -6 14.2 22.3
14 -16 -6 2.6 22
16 -14 6 6.7 18.5
-14 16 -6 9.2 28.2
-2 16 6 28.5 23.5
2 14 -6 47.1 35.2
15 1 -6 27 23.4
-15 -1 -6 59.29 31.3
15 1 -6 97.79 23
-15 -1 -6 88.89 23.6
-1 16 -6 71.79 34.6
-1 16 -6 85.69 22.3
1 15 6 70.29 26.2
16 -15 -6 110.79 27.8
15 -16 6 39.2 18.7
-16 1 6 1.3 22.9
-16 15 -6 32.6 21.5
1 -16 -6 7.5 41.2
16 -1 6 58.39 20.6
16 -15 -6 60.79 21.8
-1 -15 6 11.9 25.9
-16 1 6 62.49 30.7
16 -1 -6 59.49 20.5
16 -1 -6 52.79 23.5
1 15 -6 37.8 33.8
-1 16 6 74.39 24.9
-16 1 -6 130.09 27.1
15 -16 -6 67.49 24.5
-1 -15 -6 52.89 24.1
-16 1 -6 66.19 35.8
-15 16 -6 33.8 27.1
1 15 -6 95.79 24.3
-15 -1 6 72.99 30.2
15 1 6 50.09 17.2
-15 16 -6 78.69 23.4
16 0 -6 20.1 18.9
0 16 -6 39.7 20.7
-16 0 6 -6.8 22.1
0 -16 6 -20.5 19.8
-16 0 -6 57.89 22.5
-16 0 -6 27.7 30.2
16 -16 -6 38.6 22.9
16 0 -6 24.3 23.6
0 -16 -6 3.8 31.1
16 0 6 36.6 18.9
16 -16 6 -8.6 12.1
0 16 -6 18.4 33.8
-16 16 -6 28.8 20.1
-16 0 6 26.4 28.8
0 16 6 45.6 25.4
-17 9 -6 10.8 19.2
9 8 -6 -18.2 18.7
-8 -9 6 -31 24.9
-17 9 -6 13.4 31.2
17 -8 6 0.8 20.5
9 -17 6 3.2 19.1
17 -9 -6 16.6 22.7
-17 8 6 0.8 26.5
-9 17 6 7.6 24.1
-8 -9 6 -3.9 28.5
8 -17 -6 -3.3 19
-8 17 -6 16.7 30
-9 -8 -6 4.7 25.2
8 9 6 -26.4 25.5
-8 17 -6 -2.6 20.7
-17 9 6 -9.3 24.4
8 -17 6 6.9 20.4
9 8 6 -18.7 24.1
-17 8 -6 9.6 31.7
9 -17 -6 23.1 20.6
-9 17 -6 2.8 29
-8 -9 -6 13.8 26.7
-8 17 6 23.2 24.5
17 -9 6 12.7 20.7
-9 17 -6 -1.6 20.7
-9 -8 6 -28.5 24.8
17 -8 -6 -6 22.4
-17 8 -6 -7.1 19.4
-9 -8 6 14.8 31.2
8 9 -6 -15 20.8
-7 17 -6 26.1 29.5
-7 17 -6 -1.3 22.6
7 -17 -6 10.4 18.8
-7 -10 6 19.7 28.9
10 -17 6 26.9 19.9
7 10 6 -12.9 27
-7 -10 6 -17.8 25.4
17 -7 6 -1.3 20.5
17 -10 -6 2.9 22.9
-17 7 6 14.6 27.2
-17 10 -6 -12.5 25.1
-10 -7 -6 -0.6 23.1
10 7 -6 8.3 20.6
17 -10 -6 8.1 23.2
-10 17 6 -2.8 25.7
-17 10 -6 -5.8 19.4
7 -17 6 0.8 20.5
17 -10 6 8.9 20.7
-17 7 -6 17.4 32.7
-17 7 -6 5.2 19.3
-17 10 6 -2 25.8
7 10 -6 7.4 20.5
-10 -7 6 -23.6 22.1
10 -17 -6 16.5 21.1
10 -17 -6 -22.3 26.8
-10 17 -6 8.7 20.7
-10 -7 6 15.2 29.5
-7 -10 -6 18.4 25.8
-10 17 -6 14.4 29.4
10 7 6 8.9 24.4
-7 17 6 -3.6 21.1
17 -7 -6 18.2 22.6
11 6 -6 134.69 27
6 11 6 81.19 30.1
-6 -11 6 44.1 27.5
-6 17 -6 93.39 35.7
-17 11 -6 57.39 18.1
-11 17 6 159.68 32.5
-6 17 -6 106.39 24.8
17 -11 -6 57.19 25
-17 6 6 58.99 29.3
17 -6 6 84.39 22.8
-6 -11 6 -0.9 25.3
6 -17 -6 98.59 22.3
-6 -11 -6 81.19 27.8
11 -17 -6 82.79 23.5
-11 -6 6 83.79 33.6
-17 6 -6 88.09 37.8
11 -17 -6 98.89 29.7
-11 17 -6 126.99 26.6
-17 6 -6 81.79 23.1
6 11 -6 102.49 38.2
17 -11 6 109.39 24.6
6 -17 6 128.79 25.4
11 6 6 56.99 26.5
-6 17 6 112.59 26.1
17 -6 -6 101.99 25.2
-11 17 -6 70.09 30.8
6 11 -6 103.09 25.3
12 5 -6 70.59 24.5
12 -17 6 67.89 22.1
5 12 6 74.69 28.5
-5 -12 6 10.5 26.2
-5 17 -6 39 20.9
5 -17 -6 47.4 20.2
17 -12 -6 24.7 14.7
17 -12 -6 30.4 24.5
-5 17 -6 37.5 31.6
17 -5 6 40.1 20.5
-17 5 6 57.39 32.5
5 12 -6 18.4 34.5
12 -17 -6 53.99 22.5
17 -12 6 56.49 23.1
-12 -5 6 59.79 32.1
-5 -12 -6 53.79 25.8
-12 17 -6 71.79 31.9
-17 5 -6 39 37.5
-17 5 -6 31.6 20.9
5 -17 6 55.99 21.9
-12 17 -6 48 21.9
-5 17 6 50.29 23.9
12 -17 -6 28.2 25.4
12 5 6 24.4 20.9
17 -5 -6 59.39 23.4
5 12 -6 40.8 22.5
-4 17 -6 57.29 21.9
17 -13 -6 8.4 16.5
-4 -13 6 3.1 26.1
-17 4 6 39 32
13 4 -6 41 23.1
-17 13 -6 -5.4 16.2
-4 17 -6 32.8 30.7
-13 -4 -6 10.9 17.6
4 -17 -6 23.5 20
13 -17 6 49.99 20.7
4 13 6 -0.1 24.1
17 -13 -6 59.19 25.5
17 -4 6 44.2 21.9
-4 -13 -6 36.2 25.9
-17 4 -6 34.6 23.5
4 -17 6 11.4 17.8
-13 17 -6 27.2 20.5
-13 -4 6 38.6 30.9
17 -4 -6 18.9 22.3
13 4 6 2.6 16.4
-4 17 6 26.3 23.1
17 -13 6 7 23.1
13 -17 -6 -1.4 23.3
4 13 -6 -12.5 33.5
13 -17 -6 4.3 21.7
4 13 -6 13 20.1
-17 13 6 -1.4 13.7
-13 17 -6 14.3 28.1
-17 4 -6 49.4 36.5
-17 3 6 7.4 30.3
14 -17 6 44.6 20.5
14 3 -6 2.8 19
14 3 -6 30.9 20.1
17 -14 -6 28.5 25
-17 14 -6 16.6 20.7
-3 17 -6 22.4 30.6
-17 3 6 11 20.6
-3 -14 6 -17.8 23.6
3 -17 -6 26.9 17.8
-3 17 -6 56.39 21.8
3 14 6 21.4 24.6
17 -3 6 38.4 21.2
-14 -3 -6 22.9 19.1
17 -14 -6 11.6 18.1
-3 -14 -6 20.7 23.6
17 -3 -6 19 23.3
3 14 -6 21.9 20.3
-3 17 6 41.3 23.8
3 14 -6 48.1 36.6
14 -17 -6 28.5 22.6
14 -17 -6 34.2 24.6
17 -14 6 33.4 23.9
-14 17 -6 32.8 21.2
-14 17 -6 7.5 28.6
-17 3 -6 52.69 23.9
-17 3 -6 49 35.1
-14 -3 6 55.79 30.7
17 -15 -6 82.89 25.5
17 -2 6 67.79 20.9
-15 -2 -6 100.69 22.5
-17 15 -6 31.6 21.1
2 15 6 110.89 28.6
15 2 -6 62.39 25.6
15 -17 6 40 19.4
-17 2 6 30.6 29.8
-2 -15 6 -14.1 23.7
-2 17 -6 67.59 34
-2 17 -6 52.59 20.8
15 2 -6 48 19.8
17 -15 -6 38.6 20.2
-15 -2 6 20.7 26.3
2 15 -6 87.29 38.5
17 -2 -6 26.9 22.3
-17 2 -6 102.49 26.4
-15 17 -6 -1.3 27.6
15 -17 -6 59.19 24.3
-2 17 6 83.29 25.4
-17 2 -6 29.8 33.5
-15 17 -6 75.29 23.6
-2 -15 -6 37.1 22.7
17 -15 6 56.19 21.8
15 -17 -6 59.69 23.4
2 15 -6 76.19 23.1
16 1 -6 12.6 23.7
16 1 -6 25.2 19.5
-16 -1 -6 32.7 19.7
-17 16 -6 30.4 20.2
17 -16 -6 9.9 19.4
16 -17 6 15.3 16.9
17 -1 6 18.9 19.3
1 16 6 26.5 24.6
-17 1 6 7.1 26.5
17 -16 -6 35.4 22.7
-1 17 -6 -7.1 27.6
-1 17 -6 15.8 19.4
-16 17 -6 42.5 22.1
1 16 -6 -0.3 28.1
-1 17 6 72.99 25.5
-17 1 -6 43.1 21.7
16 -17 -6 26.6 21.8
16 -17 -6 2.1 18.2
-16 -1 6 30.6 28.8
-17 1 -6 9.2 27.6
1 16 -6 47.1 21.4
17 -1 -6 41.3 22.2
17 -17 -6 -0.1 20.1
0 17 -6 35.1 20.5
-17 17 -6 21.3 19.6
17 -17 6 -21.7 16.4
17 -17 -6 -1.3 18.5
-17 0 -6 18.6 19.5
17 0 -6 10.8 21.7
0 17 6 16.9 22.6
17 0 6 0.2 16.3
-17 0 6 6.1 19.2
-9 18 6 9.3 23.5
18 -9 6 15.7 22.1
18 -9 -6 10.7 22
-18 9 -6 -5.1 18.6
-18 9 -6 4.4 26.8
9 9 6 -1 25
9 -18 6 10.9 18.4
-9 -9 6 14.9 29.2
-18 9 6 6 24
-9 -9 -6 3.7 22.1
9 -18 -6 2.2 18.7
-9 -9 6 -36 21.1
-9 18 -6 11.1 28.3
9 9 -6 -6.4 19.9
-9 18 -6 4.8 20.8
-18 10 -6 10.1 20
-8 18 -6 33.1 22
-8 -10 6 -4.2 25.2
18 -10 -6 13 23.4
18 -8 6 42.9 22.7
-8 -10 6 -20.5 25.3
18 -10 -6 14.8 23.5
8 10 6 30.6 26.6
10 8 -6 29.9 21.6
8 -18 -6 32.9 18.3
-10 18 6 22.2 24.2
-8 18 -6 51.59 31
10 -18 6 49.99 20
-18 8 6 -13.1 25
-10 -8 6 12 27.9
-8 18 6 30.4 22.7
18 -10 6 28 21.2
-18 8 -6 23.3 19.7
-10 18 -6 30.8 21.6
10 8 6 25.8 25.7
-18 8 -6 10.3 32.2
-8 -10 -6 32.9 25.7
-10 18 -6 19.3 30.1
18 -8 -6 41.9 22.8
8 -18 6 32 19.4
10 -18 -6 28.6 19.4
-18 10 6 -6.9 26.8
8 10 -6 2.4 19.1
-7 -11 6 35.8 28.3
-18 11 -6 103.79 22.4
-7 18 -6 117.39 36.6
18 -7 6 177.38 27
-7 18 -6 146.19 25.9
-11 18 6 123.09 28.8
11 7 -6 115.19 26
7 11 6 115.59 29.9
11 -18 6 118.89 23
7 -18 -6 94.19 21.6
-18 7 6 63.29 28.1
18 -11 -6 61.19 27
-11 -7 6 89.69 32.9
-18 7 -6 107.99 36.8
18 -11 6 122.39 24
18 -7 -6 137.79 26.9
-18 7 -6 94.89 22.8
-7 -11 -6 60.79 27.4
-11 18 -6 106.99 23.8
11 7 6 112.49 29.4
-11 18 -6 93.79 33.7
11 -18 -6 124.09 24
-7 18 6 143.69 27.4
7 11 -6 79.99 22.8
7 -18 6 142.79 24.9
-18 12 -6 0.5 12
6 12 6 17.3 27
18 -6 6 6 20.9
18 -12 -6 -12 24.7
6 -18 -6 11 18.8
-12 18 6 22.6 26.3
-18 6 6 1.9 26
12 -18 6 26.2 19.2
-6 -12 6 -10.6 24.4
18 -12 -6 3.9 10.1
12 6 -6 -2.9 20.7
-6 18 -6 33.2 20.6
-6 18 -6 0.6 29
-18 6 -6 14.2 35.2
6 12 -6 26.9 20.6
-12 18 -6 19.2 20.5
-12 18 -6 25.5 28.1
-18 6 -6 19.3 19.6
12 -18 -6 -9.4 25
-6 18 6 29.5 22.2
12 -18 -6 42.4 21.1
-6 -12 -6 37.9 26.1
-12 -6 6 17.6 28.3
12 6 6 26.3 24.8
18 -6 -6 23.3 22.3
18 -12 6 36.9 22
6 -18 6 33.8 21.3
18 -13 -6 35 24.1
-5 -13 6 -8.2 24.7
18 -5 6 32.6 20.7
-5 18 -6 27.5 31.4
18 -13 -6 15.8 14.4
-13 18 6 50.29 26.6
13 -18 6 59.79 21.1
-5 18 -6 46.4 21.9
-18 5 6 27.1 26.2
5 -18 -6 37.9 19.8
5 13 6 6.7 25.4
-18 13 -6 -3.4 16.1
-13 -5 -6 -8.7 12.3
13 5 -6 13.3 20.4
-13 18 -6 80.89 23.5
-18 5 -6 125.79 25.8
18 -5 -6 27.7 22.6
13 5 6 48 25.3
-18 5 -6 24.6 33.3
-13 18 -6 25.8 26.1
13 -18 -6 59.09 26.4
-13 -5 6 38.7 29.9
5 13 -6 58.99 20.9
13 -18 -6 70.49 22.5
-5 18 6 59.29 23.7
5 -18 6 54.39 21.6
5 13 -6 38.8 34.2
18 -13 6 79.89 24.3
-5 -13 -6 39 25.5
-18 13 6 46.9 20.8
18 -14 -6 70.19 25.8
-18 4 6 6.7 25.1
14 -18 6 53.49 20.3
4 14 6 47.4 25.9
-14 -4 -6 52.59 18.5
14 4 -6 76.19 20.5
18 -4 6 94.19 22.8
4 -18 -6 48.6 19.2
-18 14 -6 40.9 21.1
-4 18 -6 15.5 30.8
-4 18 -6 92.09 22.5
14 4 -6 4.9 19.2
18 -14 -6 17 16.9
14 4 6 25 20.2
-4 18 6 87.09 24.5
-14 18 -6 57.89 21.5
-18 4 -6 114.69 24.9
18 -14 6 54.89 23.9
4 14 -6 52.59 21.1
-18 4 -6 15.6 33.2
-14 -4 6 20.8 26.5
-18 14 6 61.29 18.6
14 -18 -6 90.19 26.7
-14 18 -6 1.6 25.4
18 -4 -6 45.4 23.2
4 14 -6 0.4 30.6
-4 -14 -6 34.8 23.3
14 -18 -6 63.29 22.6
3 -18 -6 3.3 11.7
18 -15 -6 61.59 23.7
15 3 -6 35.2 19
-18 3 6 -0.9 26
18 -3 6 30.5 19.9
-18 15 -6 33.5 20.4
15 -18 6 28.2 18.3
-18 3 6 17.6 18.1
-3 18 -6 62.29 20.8
15 3 -6 40.3 23.6
3 15 6 33.3 24.2
-15 -3 -6 38.8 18.1
18 -15 -6 31.2 18.5
-3 18 -6 -0.4 26.8
15 -18 -6 43.2 20.8
-3 -15 -6 2.4 27.8
18 -3 -6 64.09 24.4
-18 3 -6 7.9 29
3 15 -6 67.09 20.5
15 -18 -6 68.09 24.7
-15 18 -6 55.29 20.8
-18 3 -6 107.79 24
-3 18 6 66.19 23.2
18 -15 6 55.49 22.8
-2 18 -6 21.1 18.7
18 -16 -6 -6.9 17.7
18 -16 -6 2.8 20.5
16 2 -6 1 17
16 2 -6 8.1 24
-16 -2 -6 20.1 18.2
16 -18 6 14.5 16.7
18 -2 6 1.7 18.6
-18 16 -6 -7.8 17.7
2 16 6 9.4 25
-18 2 6 -11.3 18.2
-16 18 -6 -4.8 18.6
18 -16 6 23 19
16 -18 -6 0.1 21.3
18 -2 -6 -8.2 21.4
16 -18 -6 -0.3 18.5
-18 2 -6 14.1 20.1
-2 18 6 15.2 21.2
2 16 -6 -8.6 17.2
-18 1 6 61.59 19.3
18 -1 6 53.79 19.3
17 -18 6 55.69 15.9
-1 18 -6 111.69 21.4
18 -17 -6 101.89 20.5
-17 -1 -6 95.99 20.6
-18 17 -6 69.79 20.9
17 1 -6 78.09 24.1
1 17 6 130.99 27.3
18 -17 -6 102.19 22
17 -18 -6 148.69 26.4
17 -18 -6 128.09 22.1
18 -1 -6 64.49 23.4
-17 -1 6 117.69 23
-17 18 -6 74.99 21.4
-18 1 -6 135.39 24.1
-1 18 6 144.09 26.4
-18 0 6 285.77 33.6
0 18 -6 269.97 32
18 -18 -6 318.47 38.6
18 -18 -6 285.27 33.2
-18 0 -6 300.47 32
-18 18 -6 263.77 33.9
9 10 6 21.8 25.1
10 9 -6 18.1 19.5
19 -9 6 34.7 19.9
19 -10 -6 15.2 22.5
9 -19 -6 11.4 17.6
10 -19 6 32 19.7
19 -10 -6 20.9 23.5
-9 19 -6 24.8 22.5
-19 10 -6 25.8 20.4
-9 19 -6 4.4 28.1
-10 19 6 36.3 23.2
-10 19 -6 10.5 26.5
-10 19 -6 27.5 21.6
-9 19 6 22.9 21.3
19 -9 -6 29.3 23
9 -19 6 44.6 19.9
10 9 6 2.1 23.9
-19 9 -6 20.1 19.2
9 10 -6 22.6 20.7
19 -10 6 20.7 19.8
10 -19 -6 48.4 19.5
-11 19 6 40.6 23.6
19 -11 -6 17.3 24.9
19 -8 6 17.2 19.5
8 -19 -6 14.6 17.6
11 8 -6 13 21.2
-19 11 -6 7.7 18.9
11 -19 6 34.6 19.3
8 11 6 25.4 24.8
-8 19 -6 45.9 21
-8 19 -6 2 26.7
-11 19 -6 24.1 19.8
8 11 -6 13.2 19.3
-19 8 -6 22.9 19.5
11 8 6 23.7 25.3
19 -8 -6 41.2 22.4
11 -19 -6 35.8 19.4
-8 19 6 21.7 20.9
-11 19 -6 1.5 26.2
-11 -8 6 -4.6 40.3
8 -19 6 33.2 20.5
19 -11 6 10.2 20.2
-7 19 -6 55.69 20.1
-7 -12 6 -19.3 30.5
12 -19 6 115.19 22.6
19 -7 6 93.29 23.3
12 7 -6 92.79 24.2
-7 19 -6 -9 26.7
7 12 6 92.29 28.5
7 -19 -6 51.69 19.4
-12 19 6 79.69 26.4
19 -12 -6 57.29 25.5
-19 12 6 72.89 21.8
-7 19 6 95.79 24.3
7 12 -6 49.3 20.9
12 7 6 66.39 26.2
19 -12 6 85.69 23.7
-19 7 -6 49.2 20.7
-12 19 -6 122.89 24.9
19 -7 -6 73.89 23.8
12 -19 -6 79.39 20.6
7 -19 6 107.59 23.2
19 -6 6 100.19 23.3
13 -19 6 86.79 20.9
6 -19 -6 72.49 20.5
19 -13 -6 99.39 28.1
13 6 -6 124.89 24
-13 19 6 152.88 30.6
-6 19 -6 136.79 24.6
6 13 6 79.79 28
-6 19 -6 1.2 31
13 -19 -6 144.09 30.3
-6 19 6 190.18 28.6
-13 19 -6 161.08 25.5
19 -13 6 146.19 26.8
-19 13 6 139.89 24.6
6 13 -6 168.38 27.3
13 -19 -6 163.78 25.1
-19 6 -6 188.48 27.9
13 6 6 116.19 28.6
6 -19 6 142.39 25.3
19 -6 -6 153.08 28.2
19 -5 6 3.3 19.4
14 5 -6 -1.9 17.6
19 -14 -6 19.3 23
5 14 6 29.3 25.5
14 -19 6 24 18.2
19 -14 -6 -0.2 13.2
-5 19 -6 12.4 18.1
-14 -5 -6 -4.3 13.4
-14 19 6 23.3 24.5
5 -19 -6 11.1 18.1
-19 14 -6 8.4 16.8
14 -19 -6 24.8 19.7
-19 5 -6 9.5 18.7
14 5 6 10.4 21.9
-19 14 6 9.7 18.4
5 -19 6 8.6 17
19 -14 6 11.7 20.9
19 -5 -6 7.6 21.2
-14 19 -6 10.3 19.2
14 -19 -6 6.7 23.3
5 14 -6 8 19
-5 19 6 -0.4 19.7
19 -4 6 49.9 20.6
15 4 -6 59.89 19.3
19 -15 -6 17.4 14.6
-4 19 -6 58.99 19.3
15 -19 6 55.69 19.2
19 -15 -6 72.79 22.5
4 -19 -6 43.6 17.3
-15 19 6 105.09 27.6
-19 15 -6 38.5 20.6
4 15 6 70.69 25.9
15 4 -6 17.6 19.2
-15 -4 -6 62.99 18.1
4 15 -6 150.58 24.1
-15 19 -6 84.79 21.2
19 -15 6 104.49 24.2
19 -4 -6 102.89 25.6
-19 15 6 46.8 17.5
-4 19 6 128.99 24.2
15 -19 -6 96.19 21.6
15 -19 -6 113.69 25.9
-19 4 -6 185.78 25.5
19 -3 6 2.7 18.3
-16 -3 -6 15.6 16.4
19 -16 -6 -4.2 13.4
3 16 6 -11.3 22.3
-16 19 6 -3.2 22.7
16 3 -6 23.6 23
19 -16 -6 15.7 19.3
16 -19 6 3 16
-19 3 6 -7.4 15.3
16 3 -6 -10.8 17
-19 16 -6 2.7 17.9
-3 19 -6 13.6 17
19 -16 6 5.4 20.5
16 -19 -6 -2.9 20.3
16 -19 -6 22.2 18.3
16 3 6 4.5 22.1
-16 19 -6 -9.4 17.2
19 -3 -6 -8.5 21.4
16 -19 -6 23.3 15.8
-3 19 6 -4.9 18.9
-19 3 -6 6.5 16.1
3 16 -6 8.8 16.8
17 2 -6 5.7 20.2
19 -2 6 17.1 17.5
-19 2 6 16.3 15.6
-19 17 -6 34.6 19.6
-2 19 -6 40 18.2
19 -17 -6 18.8 16.3
17 -19 6 20.1 14.3
-17 -2 -6 58.09 18.2
19 -17 -6 47.9 19.8
2 17 6 56.39 22
19 -2 -6 13.3 21.5
-17 19 -6 4.7 16.7
-19 2 -6 11.8 15.4
-2 19 6 33.2 19.8
2 17 -6 23.4 16.2
17 -19 -6 6 13.3
-17 -2 6 23.5 19.5
17 -19 -6 10.7 15
17 -19 -6 20.4 20.4
19 -17 6 3.6 15.2
-1 19 -6 56.79 17
19 -18 -6 65.09 17.1
1 18 6 70.39 21.2
18 1 -6 26.9 21.2
-19 1 6 36.8 16.2
-18 -1 -6 40.5 15.1
-19 18 -6 37.9 16.8
19 -18 -6 56.69 19.4
-18 -1 6 39.6 17.3
-1 19 6 60.99 21.4
-19 1 -6 38.8 15.3
-18 19 -6 36.1 17.9
18 -19 -6 62.99 19.7
19 -1 -6 7.2 19.4
18 -19 -6 41.5 14.6
1 18 -6 30.1 15.2
-19 19 -6 5.2 16.2
-19 0 6 5.8 14.2
0 19 -6 6.2 13.6
-19 0 -6 13.2 13.7
19 -19 -6 1.8 17.5
19 -19 -6 10.9 12.9
19 0 -6 7.5 19.4
0 19 6 -2.9 16.3
-20 10 -6 -4.2 18.3
10 -20 6 11.5 18.4
20 -10 6 -8.1 17.7
20 -10 -6 0.3 20.9
10 10 -6 3.9 20.2
-10 20 6 6.7 19
-10 20 -6 3 19.3
10 -20 -6 -1.3 16
10 10 6 5.9 24
20 -9 6 36.4 19.7
11 -20 6 37.4 18.3
9 -20 -6 47.6 17.8
20 -11 -6 8.9 24
-20 11 -6 5.3 17.9
11 9 -6 19.9 20.6
-11 20 6 28.4 20.5
-9 20 -6 55.49 20.9
9 11 6 18.1 23.3
-20 9 -6 23.3 19.4
9 -20 6 32.9 19.1
20 -9 -6 17.5 21
11 9 6 7 23.3
9 11 -6 37.4 20
20 -11 6 30.9 19.2
-11 20 -6 32.6 19.7
11 -20 -6 42.5 18.1
-9 20 6 36.4 21.1
20 -12 -6 92.09 27.9
-12 20 6 141.99 26.4
20 -8 6 136.99 24
12 -20 6 120.39 21.9
12 8 -6 77.09 22.3
8 12 6 122.29 28.1
-8 20 -6 151.08 23.9
8 -20 -6 115.79 21.4
-20 8 -6 65.59 20.4
-12 20 -6 107.39 22.9
8 12 -6 72.39 21.6
8 -20 6 73.69 21
-20 12 6 98.99 22.1
20 -12 6 53.09 21.1
20 -8 -6 95.09 23.7
-8 20 6 100.59 22.9
12 -20 -6 115.89 21.7
12 8 6 79.29 25.1
7 13 6 33.6 24.3
20 -7 6 26.5 19.1
13 7 -6 19.4 18.7
13 -20 6 38 18.6
-7 20 -6 20.2 17.5
20 -13 -6 8.5 23.5
-13 20 6 35.9 22.5
7 -20 -6 14.7 16.8
-20 7 -6 16.9 18.2
20 -7 -6 40.7 21.4
-13 20 -6 16.8 18
13 7 6 22.1 22.7
7 13 -6 15.1 18.6
7 -20 6 20.6 17.9
-20 13 6 41.8 19.4
-7 20 6 28.3 19.4
13 -20 -6 21.4 17.2
20 -13 6 24.6 20
20 -14 -6 151.78 28.2
-14 20 6 132.19 26.6
6 -20 -6 95.79 20.7
6 14 6 194.18 30.6
20 -6 6 117.19 22.6
14 6 -6 90.89 20.1
14 -20 6 177.88 23.7
20 -6 -6 80.69 23.9
20 -14 6 87.19 21.7
14 -20 -6 88.19 20.2
6 -20 6 69.49 18.9
6 14 -6 105.99 21.7
14 6 6 84.19 24.3
-14 20 -6 127.09 22.5
-20 6 -6 119.19 22.5
-6 20 6 110.09 22.8
-20 14 6 83.79 20.9
-15 20 6 97.59 25.4
20 -5 6 88.49 21.3
-5 20 -6 114.99 20.7
5 -20 -6 80.19 19
15 5 -6 93.49 20.1
15 -20 6 80.39 18.3
5 15 6 107.59 26.6
20 -15 -6 101.29 22.8
20 -5 -6 89.29 23.1
15 5 6 58.19 20.9
5 15 -6 135.99 22.7
15 -20 -6 107.89 25.9
-5 20 6 156.68 24.5
20 -15 6 73.29 22
-20 5 -6 134.49 21.7
-20 15 6 72.49 19
15 -20 -6 107.79 20.8
-15 20 -6 103.49 20.8
16 4 -6 9.4 16.5
16 4 -6 3.6 16.5
-20 16 -6 11.8 17.8
16 -20 6 0.9 14.5
4 16 6 24.1 21.7
20 -16 -6 15.7 18.3
-16 -4 -6 8.5 12.9
20 -4 6 3.5 17
20 -16 -6 9 12.5
-4 20 -6 10.1 15.7
-16 20 6 15.6 22.6
-16 -4 6 8 18.6
16 -20 -6 15.3 16.3
-4 20 6 10 17.8
16 -20 -6 21.3 19.4
-20 16 6 -5 11.3
4 16 -6 16.8 15.1
16 4 6 2.4 13.6
-20 4 -6 5.4 15.4
16 -20 -6 28.4 14.3
20 -4 -6 4.4 19.9
-16 20 -6 8.8 16.5
20 -16 6 1.1 19.2
-20 3 6 -16.9 11.7
-3 20 -6 -3.3 14.6
-17 -3 -6 24.8 13.2
-17 20 6 -13.3 20.4
-20 17 -6 1.4 17.1
17 -20 6 15.6 14.3
17 3 -6 11.7 17.2
20 -17 -6 13.3 16.9
20 -17 -6 8.7 12.6
20 -3 6 5.3 15.8
3 17 6 6.4 19.2
20 -17 6 13.8 13.6
-17 20 -6 34.8 17.3
-17 -3 6 76.19 21
17 -20 -6 51.99 19.9
20 -3 -6 12.8 20.5
17 -20 -6 20.2 12.2
-3 20 6 43.8 18.8
3 17 -6 26.7 15.2
17 -20 -6 49.2 14.8
-20 3 -6 42.2 15.8
20 -18 -6 37.8 13.2
20 -18 -6 70.79 20
18 2 -6 21.8 18.5
2 18 6 66.39 20.9
-18 20 6 55.89 22
-20 2 6 19.1 13.7
-20 18 -6 24.7 16.7
-18 -2 -6 47.3 14.5
-2 20 -6 40.4 15.9
2 18 -6 38.7 15
-20 2 -6 52.79 15.2
-2 20 6 45.9 18.2
20 -2 -6 29.2 21.4
-18 20 -6 17.3 16
-18 -2 6 38.5 16.1
18 -20 -6 42.1 13.5
18 -20 -6 50.59 18.7
-19 20 6 178.08 27.1
1 19 6 116.79 21.7
20 -19 -6 195.88 24.1
-20 1 6 131.29 21
20 -19 -6 138.29 22.4
-19 -1 -6 163.38 23.1
-1 20 -6 142.49 22
-20 19 -6 144.89 21.6
1 19 -6 148.89 21.8
19 -20 -6 151.18 23.6
-19 -1 6 154.78 23.6
-20 1 -6 155.28 22
-1 20 6 170.78 27.9
19 -20 -6 193.48 28.5
20 -1 -6 130.59 25
-19 20 -6 103.99 20.2
20 -20 -6 49.2 13.2
0 20 6 51.09 18.8
0 20 -6 53.59 14
-20 20 -6 55.59 16.8
-20 0 6 55.69 15.6
20 -20 -6 74.49 18.9
-20 0 -6 45.9 14.6
-20 20 6 81.19 24.8
11 10 -6 30.4 19.6
-11 21 6 16.8 18.8
11 -21 6 35.8 16.6
21 -10 6 51.69 19.2
-10 21 -6 34 17
10 11 6 31.2 22.6
-21 11 -6 27.5 18
10 -21 -6 29.5 15.9
11 10 6 27.5 22.6
21 -11 6 15 17.8
-11 21 -6 29.8 17.8
10 11 -6 30 18.9
10 -21 6 13.7 15.7
-21 11 6 12.9 17
11 -21 -6 19.5 15.4
-21 10 -6 17.2 18.1
-10 21 6 12.3 18.3
21 -9 6 15.4 17.1
21 -12 -6 -10.2 21.8
-21 12 -6 -0.2 16.7
9 12 6 6.5 21.3
12 9 -6 2.4 17.9
-9 21 -6 4.4 15.5
-12 21 6 -4.6 17.9
9 -21 -6 4.7 15
12 -21 6 -5 14.8
12 -21 -6 2.6 14.7
12 9 6 -1 20.2
21 -9 -6 6.6 19.8
-21 9 -6 18.7 17.9
-9 21 6 22.5 18.5
9 -21 6 14.7 16.2
21 -12 6 9.3 17.8
-21 12 6 25.2 18
9 12 -6 23.1 17.5
-12 21 -6 19 18.2
-13 21 6 80.59 21.2
21 -8 6 80.59 20.3
8 13 6 74.09 23.4
13 8 -6 65.59 18.3
21 -13 -6 87.09 24.7
8 -21 -6 102.89 18.7
13 -21 6 132.09 19.7
-8 21 -6 72.49 18.7
8 13 -6 96.99 21.4
13 -21 -6 62.49 17.2
-8 21 6 109.39 21.2
21 -8 -6 62.69 21.8
21 -13 6 50.29 19.7
-13 21 -6 89.79 20.7
8 -21 6 67.49 18.1
-21 13 6 82.49 19.2
13 8 6 70.29 23.4
-21 8 -6 54.69 19.2
14 7 -6 29.3 16.6
-7 21 -6 40.8 17.2
14 -21 6 41.3 16.2
21 -14 -6 12 20.5
21 -7 6 37 17.9
7 -21 -6 21.1 15.6
7 14 6 31.2 21.5
-14 21 6 29.5 19.9
14 -21 -6 30.6 15.8
14 -21 -6 27.8 12.6
-7 21 6 27.8 17.8
14 7 6 12.6 18.2
21 -14 6 22.6 18.1
-21 14 6 24.2 16.9
7 14 -6 35.1 17.7
-21 7 -6 18.6 16.1
7 -21 6 15.3 15.8
21 -7 -6 13.3 19.7
-14 21 -6 41.7 18
15 6 -6 -13.2 14.9
15 -21 6 6.9 15.1
21 -6 6 4.3 16.2
6 -21 -6 4.3 13.3
21 -15 -6 -2.6 19.4
-15 21 6 7.4 19.2
-6 21 -6 11.8 15.1
6 15 6 17.7 19.9
-15 21 -6 7.2 15.8
-6 21 6 5.5 16.4
6 -21 6 -6.9 8.8
21 -6 -6 -12.9 17.9
21 -15 6 -2.9 18.3
15 -21 -6 3.1 14.9
15 6 6 -5.9 15.8
-21 6 -6 -2.5 14.6
15 -21 -6 10.9 11.9
-15 -6 6 14.9 18.3
6 15 -6 5.5 14.9
-21 15 6 1 15.2
-16 21 6 80.79 22.5
-5 21 -6 56.19 16
16 -21 6 50.89 15.9
5 16 6 69.19 21
21 -16 -6 81.59 20.9
21 -5 6 19.1 16.8
16 5 -6 45.3 16.9
-5 21 6 65.89 18.5
16 -21 -6 41.8 13.4
16 5 6 2.4 17.8
-16 -5 6 95.29 21.5
21 -5 -6 26.1 19.8
-16 21 -6 52.69 17.8
5 16 -6 17.8 14.9
21 -16 6 38.2 18.5
16 -21 -6 19.6 14.3
-21 5 -6 24.7 14.9
-17 21 6 6.2 19.1
-17 -4 -6 -0.5 9.2
-21 17 -6 -2.8 16.2
21 -4 6 12.4 15
17 -21 6 4 12.3
4 17 6 6.4 17.4
-4 21 -6 5.4 14.1
21 -17 -6 0.6 17.3
-17 21 -6 23.5 16.7
4 17 -6 16.2 14.3
21 -17 6 16.8 13.4
-17 -4 6 30.2 17.7
17 -21 -6 4.5 10.7
17 -21 -6 14.6 11.5
21 -4 -6 -7.7 18.7
-21 4 -6 24.7 14.1
-4 21 6 17.6 17
-18 21 6 45.1 21
-3 21 -6 29.6 14.4
-18 -3 -6 26.2 12.5
21 -18 -6 72.09 19.8
-21 18 -6 1.4 10.8
3 18 6 77.69 19.7
-18 -3 6 49.9 16.1
-21 3 -6 37.7 14.2
-3 21 6 34.9 17.8
18 -21 -6 44.2 13.1
-18 21 -6 20.3 16.6
3 18 -6 23.7 13.9
21 -3 -6 24.1 20
-19 -2 -6 55.59 14.1
-19 21 6 72.29 23.5
21 -19 -6 93.29 19.9
-2 21 -6 59.09 15.4
2 19 6 67.69 19.5
2 19 -6 42.2 14.6
-19 21 -6 34.6 16.5
-19 -2 6 64.69 17
-2 21 6 38.1 17.7
21 -2 -6 23.2 20.5
-21 2 -6 68.89 15.9
19 -21 -6 35.1 12.1
19 -21 -6 70.29 19.6
-22 11 -6 -0.9 10.8
11 11 -6 13 16.2
-11 22 6 -10.3 15.7
11 -22 6 10.3 14
11 11 6 11.4 19.2
-11 22 -6 10.9 14.6
11 -22 -6 24.4 14.5
22 -11 6 6.4 17.1
-22 11 6 -1.7 15.7
-22 10 6 12.4 15.4
22 -10 6 17.4 16.7
-12 22 6 17 17.1
12 10 -6 23.8 15.4
12 -22 6 22.8 14.9
10 12 6 23.8 21.1
10 -22 -6 17.5 13.6
-10 22 -6 15.8 15.6
12 -22 -6 18.6 10.9
-10 22 6 32.6 16.9
-12 22 -6 19.7 15.7
12 10 6 24.8 19.7
10 -22 6 32.8 14.1
-22 12 6 20.2 16.2
-22 10 -6 7.2 15.7
22 -12 6 10 16.2
10 12 -6 36.3 17.4
12 -22 -6 43.2 14.5
9 13 6 86.69 22.3
9 -22 -6 57.39 14.4
13 -22 6 88.79 17.2
-13 22 6 50.59 18.5
22 -9 6 56.29 18.2
-9 22 -6 98.09 18.3
22 -13 -6 35.1 18.6
13 9 -6 50.69 15.9
9 -22 6 44.9 14.9
13 -22 -6 42.4 12.4
-9 22 6 57.69 18.1
9 13 -6 50.59 17.3
-13 -9 6 71.59 19.9
22 -13 6 48.2 17.8
-13 22 -6 51.29 17.4
13 -22 -6 76.99 16.7
-22 9 -6 40.7 16.7
-22 13 6 53.79 16.8
13 9 6 48.5 19.6
8 14 6 19.1 19.9
22 -14 -6 -18.6 18.5
-14 22 6 4.6 16.6
22 -8 6 2 16.7
8 -22 -6 3.4 12.9
14 -22 6 1.1 12.5
-8 22 -6 2.2 13.7
14 8 -6 -1.1 15.2
-22 8 -6 1.4 15.2
-14 -8 6 18.8 19.1
-22 14 6 8.9 14.6
14 -22 -6 -0.6 10.6
14 8 6 3.2 16.8
-14 22 -6 -1.2 15.9
22 -8 -6 -5.9 18.5
14 -22 -6 9.6 13.7
8 -22 6 -4 12.7
-8 22 6 0.7 14.9
8 14 -6 9 15.8
22 -14 6 3 16.7
15 7 -6 119.19 19.1
-7 22 -6 120.59 19
15 -22 6 138.79 18
7 15 6 138.79 21.8
-15 22 6 131.09 21.5
22 -7 6 151.78 22.2
7 -22 -6 93.09 16.8
22 -15 -6 95.89 21.4
15 -22 -6 64.69 13.3
22 -15 6 93.09 19.1
-7 22 6 100.59 19
15 -22 -6 114.09 17.5
-22 7 -6 106.49 18.6
7 15 -6 103.29 18.2
22 -7 -6 115.59 22.7
-15 22 -6 127.29 19.6
-15 -7 6 191.88 28.7
16 -22 6 35.4 14.3
22 -16 -6 81.89 23.2
-6 22 -6 47.6 15.7
22 -6 6 38.6 17.9
6 16 6 93.19 20.9
-16 22 6 70.69 20.8
16 -22 -6 42 11.3
-16 22 -6 48.3 16.8
16 -22 -6 33.7 14.7
-22 6 -6 51.09 16
22 -16 6 35.7 16.8
-16 -6 6 104.09 20.1
-6 22 6 54.79 18.3
6 16 -6 87.19 16.9
22 -6 -6 55.29 21.4
-5 22 -6 3.9 14.8
-17 22 6 -1.6 19.3
5 17 6 11.1 18.8
22 -17 -6 21.5 19.7
17 -22 6 7.2 13.4
-5 22 6 6.4 17.4
5 17 -6 5.7 13.4
17 -22 -6 4.1 9.3
22 -17 6 3.8 10.6
17 -22 -6 8.5 10.7
-17 -5 6 16.3 16.1
-17 22 -6 -0.4 16.5
22 -5 -6 -21.6 19.4
-22 5 -6 5.4 15
4 18 6 18.6 19.4
-4 22 -6 20.1 14.5
22 -18 -6 46.6 20.2
-18 22 6 23.2 21.3
-22 4 -6 46.4 17
4 18 -6 23.5 14.1
-4 22 6 9 18.8
18 -22 -6 8.1 12.1
-18 22 -6 17.1 18.2
22 -4 -6 1.4 20.9
-18 -4 6 36.3 18.8
-11 23 -6 29.1 17.2
-23 11 6 15.1 15
12 11 -6 10.1 13.6
11 12 6 22.1 17.9
23 -11 6 12.7 17.8
11 -23 -6 8.4 12.3
-12 23 6 17.1 17.1
12 -23 6 18.3 13.4
12 11 6 8.2 17.1
-11 23 6 6.1 17.3
11 12 -6 17.1 14.3
11 -23 6 9.4 13.2
12 -23 -6 7.4 12.3
-12 23 -6 8.4 15.4
23 -12 6 9 19.1
-23 12 6 10.3 14.7
-23 10 6 13.3 15.6
-13 23 6 21.8 17.5
13 -23 6 17.9 12.9
-10 23 -6 22.8 15.3
10 -23 -6 -1.4 12.4
10 13 6 25.8 18.5
23 -10 6 2.8 17.6
13 10 -6 19.8 15.4
-23 13 6 6.8 13.5
23 -13 6 0.8 17.8
10 -23 6 2.3 12.9
-10 23 6 16.9 17.4
-13 23 -6 4.3 15.3
-13 -10 6 12.6 16.3
13 10 6 12.3 15.1
13 -23 -6 12.7 13.3
10 13 -6 12 15.7
9 14 6 16.1 19.6
14 9 -6 10.6 14.9
-23 9 6 10.2 15.9
-9 23 -6 27.1 16.5
23 -9 6 18.4 18.9
9 -23 -6 16.4 13
-14 23 6 26.9 17.7
14 -23 6 19.3 14.2
-14 23 -6 23.2 16.3
-23 14 6 1.7 10.5
23 -14 6 8.5 18.7
9 -23 6 -3.1 10.2
14 9 6 3.9 11.2
-14 -9 6 14.9 17.5
14 -23 -6 4.1 7.6
9 14 -6 24.2 15.2
14 -23 -6 13.1 13.2
-9 23 6 18 17.9
-23 9 -6 14 12
-8 23 -6 30.6 16.4
23 -15 -6 6.1 12.6
23 -8 6 17.8 18.4
15 8 -6 27.4 16.7
8 15 6 32.3 21.2
15 -23 6 37.8 15.4
-15 23 6 34.2 19.5
-8 23 6 16 17.3
23 -15 6 9.4 17.7
15 -23 -6 13 13.9
8 15 -6 23 15.5
15 -23 -6 10.6 9.5
-15 23 -6 11.9 16.9
-23 8 -6 11.9 14.9
-15 -8 6 16.7 18.1
23 -7 6 3.7 11.2
7 16 6 -2.4 20.7
-7 23 -6 0.9 16.5
23 -16 -6 -10.7 16.7
-16 23 6 7 17.3
16 -23 6 -6.9 14.4
16 -23 -6 3.1 14.4
23 -16 6 6.3 16.6
-7 23 6 -2.7 18.3
-16 -7 6 -6.1 16.9
7 16 -6 -0.9 9.9
-16 23 -6 -2.9 17
-23 7 -6 7.1 16
16 -23 -6 7.3 11.3
0 0 7 -9.9 28.2
0 0 7 27.4 25.8
0 0 -7 -12.4 19.9
1 -1 -7 72.39 19.5
-1 0 -7 59.69 18.5
-1 1 7 81.89 32.5
1 0 7 83.09 33.1
-1 0 7 69.09 32.4
1 -1 7 73.19 30.8
-1 0 -7 61.29 27.7
1 0 -7 52.89 22.2
0 -1 7 55.89 30
-1 1 -7 78.09 29.4
0 1 7 84.29 28.7
0 1 -7 66.69 24.6
1 0 7 56.59 28
0 -1 7 79.39 29.8
1 -1 7 63.99 30.1
0 -1 -7 76.29 20.6
-1 0 7 69.19 35.7
-1 1 7 72.89 28.3
-1 0 -7 75.19 26.3
0 1 7 55.89 31.1
-1 1 -7 71.49 26.6
-2 1 7 4.5 27.2
2 -1 7 2.4 26.6
-1 -1 7 5.6 31.1
-2 1 -7 1.3 27.5
-1 2 -7 16 23.8
1 1 -7 -5 19.1
1 1 7 8.3 28.8
-2 1 -7 3.2 19.3
1 1 7 23.3 28.5
1 -2 -7 15.5 16.7
1 -2 7 13.3 28.8
-1 -1 7 -6.4 29.8
-1 2 7 21.3 26.1
-1 -1 -7 31.2 27
-2 1 7 8.9 25.5
2 -1 7 -4.9 26.9
-1 2 -7 22.9 21.9
-1 -1 -7 1.8 13.8
-1 -1 -7 -0.4 16.5
2 -1 -7 -0.8 12.8
-2 1 -7 13.8 21.1
-1 2 7 -2.1 26.6
0 2 7 3.8 27.4
-2 2 7 13.1 27.2
-2 0 7 1.1 27.7
-2 2 -7 13.6 27.8
2 -2 -7 14.1 18.6
-2 0 -7 26 27.1
0 2 -7 3.3 20.5
-2 0 7 4.9 25.8
0 2 7 9.4 27.1
0 -2 7 0.8 28.2
-2 0 -7 10.5 16.5
0 -2 -7 12.1 19.1
-2 0 -7 4.3 22.2
2 0 7 8.8 25.6
2 0 7 19.6 28.7
-2 2 -7 -15.3 24.3
2 0 -7 4.2 18.5
2 -2 7 4.5 29.1
-2 0 7 3.9 29
-2 2 7 18.3 26.4
3 -1 7 118.19 33.1
2 1 -7 207.88 35.6
-1 3 -7 242.18 33.9
-2 3 7 180.28 37.8
1 2 7 168.38 36.2
3 -1 7 172.08 37.2
-3 1 7 143.29 38.5
-2 -1 -7 186.08 36.4
-1 -2 7 202.48 40.8
-2 -1 -7 194.28 36.3
2 -3 7 204.28 41.7
1 -3 -7 203.08 37
-3 2 -7 189.08 37.1
-2 3 7 144.09 33.8
1 2 7 161.68 34.2
-3 1 7 163.58 38.2
-3 2 -7 199.08 32
-3 1 7 169.28 36.6
-1 -2 -7 205.98 27.6
3 -2 7 145.09 33.3
-3 1 -7 150.28 24.9
1 2 -7 139.59 27.4
-2 -1 7 180.28 38.7
-3 2 7 159.08 33.6
-2 3 -7 125.09 29.4
2 1 7 162.48 35.8
-3 2 7 137.49 35.2
2 -3 -7 194.68 34.9
-2 3 -7 182.18 33.2
-1 3 7 144.89 35.3
-3 2 7 125.19 37.1
-2 -1 7 156.48 39.1
-1 3 7 135.09 32.9
1 -3 7 141.49 37.4
2 1 7 160.38 35.7
-3 1 -7 145.99 29.6
-3 1 -7 175.28 34.5
3 0 7 15.4 29.1
-3 0 7 21.3 31.4
-3 3 7 -0.5 28.7
0 3 7 1.5 27.9
-3 0 -7 12.9 18.6
-3 3 7 11.3 32.5
0 3 7 3.5 23.8
-3 3 7 26.1 27.7
0 -3 7 25.3 32.9
0 3 -7 15.1 23
-3 0 7 8.8 29
0 -3 -7 -9.7 17.5
-3 0 7 5.5 29.3
-3 3 -7 2.6 27.4
3 -3 -7 12.5 16.2
3 0 7 10.8 27.7
3 0 -7 9.5 23.5
-3 0 -7 4.6 23.3
3 -3 7 4.8 26.7
-3 3 -7 -18.3 20.4
-3 0 -7 -7 29.8
-4 2 7 61.69 27.3
4 -2 7 54.39 28.1
-4 2 -7 71.29 29.3
2 -4 7 55.69 34.1
-4 2 7 62.29 35.2
-2 -2 7 86.39 35.5
2 2 -7 82.49 26.3
-4 2 -7 83.69 26.9
-2 4 7 54.49 27
-2 4 -7 63.29 24.6
2 -4 -7 54.99 19.5
-4 2 7 52.39 29.4
2 2 7 59.19 30.4
-2 4 7 49.7 29.1
2 2 7 38.2 25.6
-4 2 -7 63.89 20.2
-2 -2 -7 68.49 19.4
-2 -2 -7 91.49 33.1
1 3 7 90.99 29
4 -1 7 79.19 32
1 -4 -7 119.99 23.8
-3 -1 -7 91.49 21.7
-1 4 -7 140.89 29.2
-3 -1 -7 96.99 31.9
-1 -3 7 56.79 32.9
4 -1 7 66.09 29.1
-4 1 7 84.49 34.8
3 -4 7 104.59 37.6
-3 4 7 79.79 31.1
-4 1 7 71.19 29.4
1 3 7 82.69 34.1
-3 4 7 54.09 36.9
-3 -1 -7 61.89 23.9
-4 3 -7 48.7 29.5
-4 1 7 9.9 33
-3 4 7 96.59 31.1
-4 3 -7 99.79 27.4
-3 -1 7 16.5 28.5
-1 4 7 61.19 29.7
-4 3 7 42.8 30
1 -4 7 67.99 33
-1 4 7 40.1 26.1
-3 4 -7 73.19 25
-4 1 -7 61.59 20.4
-4 1 -7 75.79 26.7
-1 -3 -7 53.09 20
-3 -1 7 81.99 33.2
4 -3 7 63.19 28.8
-3 4 -7 1.4 26.6
-4 3 7 59.49 27.4
3 1 7 53.39 28.8
1 3 -7 62.19 24.9
3 -4 -7 84.89 21.1
-4 3 7 20.2 32
3 1 7 42.1 26.2
-4 1 -7 54.29 28.4
0 4 7 5.3 27.4
0 -4 7 7.7 30.4
0 4 7 19.8 25.7
-4 4 -7 25.3 24.2
4 -4 -7 24.3 18.6
-4 4 7 47.8 28.1
0 4 -7 35.2 22.6
4 -4 7 1.1 26.9
-4 0 7 7.5 27.6
-4 4 7 22.5 27.3
-4 4 -7 4.5 24
-4 0 7 9.8 31.7
-4 4 7 -1.2 37.1
-4 0 -7 12 25.2
4 0 7 18.3 24.1
0 -4 -7 17.7 18.4
4 0 7 37 28.5
-4 0 -7 16.4 16.8
-4 0 -7 34.7 27.7
3 -5 7 202.48 42.4
-3 5 7 243.08 49.6
-2 5 -7 261.67 34.7
2 3 7 248.18 42.3
-5 2 7 183.88 37.8
5 -2 7 156.88 34.7
-5 3 -7 174.88 38.7
-3 -2 -7 269.27 36.6
2 -5 -7 313.97 39.7
2 3 7 213.18 40.6
-5 3 -7 298.87 39.4
-3 5 7 203.18 39.7
-5 2 7 160.08 35.3
-2 -3 7 207.38 43.7
-3 5 7 271.97 43.1
-3 -2 -7 300.77 43.6
-2 -3 -7 292.67 44.4
-5 2 -7 306.77 39.1
-5 2 -7 306.37 38.7
5 -3 7 188.78 39.1
-2 -3 -7 301.97 37.3
3 2 7 289.07 48.5
-2 5 7 245.38 45.1
-2 5 7 308.37 48.6
-5 2 -7 269.97 44.3
-2 5 7 278.77 52.29
3 2 7 277.97 45.4
-5 3 7 289.07 50.49
2 3 -7 324.77 44.2
-3 -2 7 314.87 54.89
-5 3 7 189.78 46.1
-3 5 -7 300.47 41.1
2 -5 7 305.07 52.09
3 -5 -7 338.97 41.7
-3 5 -7 320.57 37.9
5 -1 7 19.4 24
1 4 7 25.5 26.6
-4 -1 -7 16.3 27.5
-5 1 7 26.1 28.6
-1 -4 7 25.4 34.8
-5 1 7 9.8 24.9
-1 5 -7 1.2 14.6
-4 5 7 8.5 34.4
-4 -1 -7 29.3 25.1
1 -5 -7 26.7 18.9
1 4 7 23.3 27.3
-4 5 7 35.1 26
4 -5 7 11 28.7
-4 5 7 22.2 32
-1 5 -7 53.89 25.1
5 -1 7 20.6 26.7
-5 4 -7 41.6 23.9
-5 4 -7 -2.8 27.3
-4 -1 -7 27.1 17.6
-4 -1 7 45.5 30.6
4 -5 -7 24.5 17.4
-5 4 7 34 36.9
-5 1 -7 49.4 27.2
-5 1 -7 48.2 20.2
-4 5 -7 43.7 23.8
-5 4 7 28.5 28.5
-1 5 7 51.39 28.5
1 4 -7 58.29 27.6
1 4 -7 2.5 14.7
4 1 7 26.1 28.1
-4 -1 7 12.8 28.6
-5 1 -7 27.1 28.2
1 -5 7 29.3 34.9
-4 5 -7 63.89 26.5
-1 5 7 49.5 28.6
4 1 7 46.4 29
-1 -4 -7 46.3 19.2
-5 4 7 12.3 26.7
5 -4 7 7.3 28.8
0 5 7 312.47 55.09
5 -5 -7 247.78 34.2
0 5 -7 351.76 43.2
-5 0 -7 319.87 43.6
-5 0 -7 321.77 39.6
-5 0 -7 305.67 43.9
-5 5 -7 362.56 40.4
0 5 7 286.47 47.1
0 -5 -7 339.17 39.9
0 5 -7 273.37 35.5
-5 5 7 259.07 50.79
-5 5 7 295.07 49.5
0 -5 7 229.38 46.3
-3 6 7 143.99 44.2
-6 3 -7 135.89 27.6
-3 6 7 119.69 37.4
3 -6 -7 105.79 23.1
3 3 -7 111.79 22.4
3 3 7 59.39 30.2
3 -6 7 34.5 30.1
-6 3 -7 58.39 29.1
-3 6 -7 194.48 31.4
-3 6 -7 69.29 25.3
-6 3 -7 103.19 21.6
-3 -3 7 72.49 34.7
-3 -3 -7 124.39 23.3
-3 -3 -7 101.29 34
-2 6 -7 341.87 39.5
-6 4 -7 356.56 40.6
-2 -4 7 237.48 46.5
-4 -2 -7 287.17 42.8
-2 6 -7 258.47 37.8
2 -6 -7 357.16 42.3
2 4 7 190.98 42.5
-2 6 -7 205.18 33.8
4 2 -7 258.57 32.8
-4 -2 -7 306.17 49.9
-4 6 7 224.58 42
-4 -2 -7 316.77 37.5
-4 6 7 276.57 53.39
-4 6 -7 324.97 38.8
-4 6 -7 349.77 42.6
-4 -2 7 222.18 44.5
2 4 -7 277.77 35.9
4 -6 -7 341.17 42.6
-6 2 -7 284.37 45.2
-2 -4 -7 347.97 41.5
-6 2 -7 380.66 40.5
-2 6 7 367.26 57.19
-2 6 7 334.87 51.49
-6 2 -7 438.16 45.9
-1 6 -7 343.17 42
-1 -5 7 419.46 43.1
-5 6 7 182.78 49.5
-5 -1 -7 289.37 48.5
-1 -5 7 199.78 46.8
-1 6 -7 293.37 40.2
-5 -1 -7 290.07 38.8
1 -6 -7 377.06 42
-5 -1 -7 302.07 45.4
-6 5 -7 329.47 40.8
1 -6 7 86.89 36.6
5 -6 -7 193.08 31.2
-1 6 7 114.79 32.9
-5 6 -7 256.37 36.4
-1 6 7 71.69 31.2
-6 1 -7 150.98 34.4
1 5 -7 254.27 34.9
-6 0 -7 12.8 28.3
0 -6 7 19.3 18.2
0 -6 7 5.4 31.3
-6 6 -7 2.1 20.9
0 6 -7 7.6 26
0 6 7 -9.1 28.3
0 -6 -7 7.2 19.8
-6 0 -7 15.2 17.3
-6 0 -7 -5.7 27.3
-6 6 7 -6.8 40.7
0 6 -7 6.3 23
0 6 7 -33.5 25.1
-6 6 7 -3.6 29.2
-6 6 -7 5.9 19.2
3 -7 -7 206.88 39.3
4 3 -7 199.38 32.7
-3 -4 7 231.58 34.1
-4 -3 -7 193.68 29.3
-3 7 -7 133.29 30.6
-3 7 -7 160.78 28.7
-7 4 -7 236.08 37.2
-4 7 -7 95.29 25
-4 7 -7 194.48 34
-3 -4 -7 41.8 29.8
-3 7 7 50.49 40.9
-7 3 -7 151.68 28.7
3 4 -7 197.58 32.6
4 -7 -7 126.59 23.3
-5 7 -7 439.26 49.8
-7 2 -7 515.05 49.4
-5 -2 7 563.14 50.89
-7 2 -7 598.24 55.29
2 -7 7 591.84 49.4
2 5 -7 517.75 49.3
-2 -5 -7 509.95 54.09
1 -7 -7 56.69 23
-6 -1 -7 62.49 21.1
-1 -6 7 -4.1 58.29
-1 7 -7 52.49 26.3
-1 -6 7 88.59 23.2
-7 1 7 26.4 19.2
-6 -1 -7 98.39 32.8
-7 6 -7 85.59 26.2
-1 7 -7 61.89 26.5
-7 1 -7 49.6 18.6
-7 1 -7 95.39 30.7
-1 -6 -7 53.59 21.8
1 -7 7 89.19 22.6
-6 7 -7 109.49 28.1
-6 -1 7 80.69 22.5
1 6 -7 77.99 26.4
-7 7 -7 142.09 27.5
0 -7 -7 124.99 26.8
-7 0 7 173.38 27.3
0 7 -7 199.28 34.7
-7 0 -7 203.58 37.8
0 -7 7 207.38 29.7
-7 0 -7 127.09 23.8
-4 -4 -7 65.79 24
4 -8 7 49.7 19.1
-4 -4 7 63.29 22.6
4 4 -7 67.89 24.1
-8 4 -7 91.59 28.8
-4 8 -7 59.79 23.1
4 -8 -7 70.39 22
-4 8 -7 55.39 26.7
-5 -3 -7 104.19 24.5
3 -8 -7 60.59 21.1
-5 -3 -7 59.59 26.8
5 3 -7 122.99 26.6
-3 8 -7 98.89 26.7
5 -8 7 65.59 19.8
-8 5 -7 109.79 26.2
-3 8 -7 53.99 27.2
-5 8 -7 70.79 24
-5 8 -7 65.09 26.3
-5 -3 7 94.89 24.6
3 5 -7 87.69 25.4
-3 -5 -7 58.69 22.6
-8 3 -7 108.49 30.5
5 -8 -7 47.3 18.9
3 -8 7 91.39 23
-2 8 -7 159.78 30
-2 8 -7 163.88 34
-6 -2 -7 140.59 33.8
-6 -2 -7 126.59 25.7
-8 6 -7 192.58 32.3
2 -8 -7 190.08 31
2 -8 7 145.29 26.1
2 6 -7 172.58 30.9
-2 -6 -7 188.18 32.8
-6 8 -7 102.19 29.1
-8 2 -7 245.18 38.3
-6 -2 7 169.08 28.5
-6 8 -7 153.08 29.4
1 -8 -7 24 23.3
-7 -1 -7 45.5 30.1
-1 -7 7 52.89 23.3
-8 7 -7 19 20.5
-1 8 -7 32.1 28.6
-1 8 -7 42.9 26.1
-7 -1 -7 21 18.7
-8 1 -7 12.6 17.2
-8 1 -7 20.3 28
1 7 -7 9.2 25.3
-1 -7 -7 13.4 21.5
1 -8 7 23.5 20.6
-7 -1 7 20 22
-7 8 -7 -1.2 22.7
-7 8 -7 28.5 24.7
0 -8 -7 10.4 21.1
-8 8 -7 0.1 22.4
-8 0 -7 13.5 18.3
-8 0 -7 8.8 29.7
-8 8 -7 27.6 23.9
0 -8 7 25.5 22.1
0 8 -7 26 26.4
-8 0 7 -14.3 20
-9 5 -7 206.58 37.8
4 -9 -7 159.28 29.5
-5 -4 -7 228.98 42.7
-4 9 -7 144.49 32.9
5 4 -7 168.18 29
-4 -5 7 207.28 38.2
-4 9 -7 150.98 28.8
-5 9 -7 187.08 32.1
4 5 -7 199.08 32.9
-4 -5 -7 155.88 30.1
-9 4 -7 195.68 33.5
-5 -4 7 194.98 31.9
-5 9 -7 194.58 36.9
-9 6 -7 167.48 31.6
3 -9 -7 99.29 27.4
-6 -3 -7 83.49 31.3
-3 9 -7 146.19 30.8
-6 -3 -7 105.59 26.5
-3 9 -7 145.39 34.8
-3 -6 7 157.88 28.9
-9 3 -7 217.58 35.6
-6 9 -7 113.39 30.6
3 6 -7 178.48 32.5
-6 -3 7 139.89 29.3
-6 9 -7 135.39 29.7
-3 -6 -7 123.59 29.3
3 -9 7 156.68 28.3
-7 -2 -7 66.79 23.9
-2 9 -7 123.99 30.7
2 -9 -7 63.09 26.4
-2 9 -7 78.99 29.6
-9 7 -7 90.89 27.6
-2 -7 7 79.19 23.5
-7 -2 -7 73.19 30.6
-9 2 7 73.29 23.9
2 -9 7 64.09 22.6
-9 2 -7 109.79 32.4
-7 9 -7 117.29 31.4
-7 9 -7 43.7 27.4
-7 -2 7 70.99 25.1
2 7 -7 102.79 28.5
-2 -7 -7 123.19 32.4
-8 -1 -7 46.9 21.3
-9 1 7 59.89 23.8
-1 9 -7 68.59 32
-9 8 -7 42.5 22.5
1 -9 -7 61.59 28.1
-1 -8 7 62.29 26.3
-8 -1 -7 64.69 32.5
-8 -1 7 48 25
-9 1 -7 73.69 31.9
1 -9 7 78.89 25.7
-8 9 -7 79.09 27.7
1 8 -7 73.19 27.2
-1 -8 -7 87.89 30.6
-8 9 -7 75.79 28.5
-9 9 -7 76.09 28
-9 0 -7 81.79 33.7
0 9 -7 64.09 29.5
-9 0 7 67.39 24.8
-9 9 -7 39 25
0 -9 7 64.79 26.1
0 -9 -7 65.29 30
-9 0 -7 58.19 21
-5 10 -7 381.36 49.7
-5 -5 -7 458.05 56.39
-5 10 -7 371.66 44
5 -10 -7 274.77 44.3
-10 5 -7 409.46 44.8
5 5 -7 393.86 45.6
-5 -5 7 396.96 52.39
-10 5 7 367.56 41.6
-10 6 -7 16.5 23.8
-6 -4 -7 1.5 22.8
-4 10 -7 15.8 29.2
6 4 -7 21.7 22.2
-4 -6 7 4.1 20.7
-4 10 -7 18.4 23.2
4 -10 -7 8.8 20.5
-6 -4 -7 -3.4 22.5
4 -10 7 -15.9 19.7
-6 10 -7 13.4 26.6
-10 4 -7 18.3 23.4
-6 -4 7 20.5 24.1
4 6 -7 16.6 21.9
-6 10 -7 -1.2 22.3
-4 -6 -7 30 26.4
-10 6 7 0.3 16
-3 10 -7 144.99 31.2
-7 -3 -7 216.58 33.9
-3 -7 7 196.48 32.6
-10 3 7 127.09 26.8
-7 -3 -7 120.59 33.8
-3 10 -7 203.48 37.5
-10 7 -7 204.18 34.8
3 -10 -7 180.18 33.3
3 7 -7 176.88 35.2
-10 3 -7 215.48 40.3
3 -10 7 107.19 27.8
-3 -7 -7 193.48 38.8
-7 10 -7 146.29 33.6
-7 10 -7 159.38 33.5
-2 -8 7 105.99 28.3
2 -10 -7 144.39 33.6
-10 2 7 139.69 28.6
-8 -2 -7 147.09 37.3
-8 -2 -7 166.48 30.4
-2 10 -7 194.68 38.5
-10 8 -7 135.79 29.2
2 -10 7 139.29 31.1
-8 10 -7 80.59 29.7
-8 10 -7 158.88 33.4
-10 2 -7 262.77 43.5
-2 -8 -7 153.68 35.7
2 8 -7 235.18 38.4
-10 9 -7 46.5 26.1
-9 -1 -7 39.4 31.1
-10 9 -7 -4.6 23.3
1 -10 -7 52.99 30.5
-1 10 -7 35 27.7
-1 -9 7 18 23.7
-9 -1 -7 31.2 20.6
-10 1 7 32.1 23.9
-10 1 -7 62.79 33
1 -10 7 12 23.5
-9 -1 7 51.99 24.4
-9 10 -7 21.7 24.8
-9 10 -7 32.5 27.4
-9 -1 7 -17.6 22.4
-1 -9 -7 19.4 28.8
1 9 -7 45.1 28.4
0 10 -7 228.68 40.8
0 -10 -7 120.59 33.1
0 -10 7 95.69 28.2
-10 10 -7 104.49 29.8
-10 0 -7 183.98 41.7
-10 10 -7 115.19 30.4
-11 5 7 344.17 43.9
6 5 -7 353.16 44.6
-5 11 -7 348.67 50.29
-11 6 -7 385.66 47.7
-5 -6 7 251.47 50.69
-5 11 -7 344.87 45.7
-6 -5 -7 377.66 57.19
-11 6 7 351.26 43.9
-6 11 -7 341.27 44.1
-5 -6 -7 382.36 56.69
5 6 -7 368.86 47.7
-11 5 -7 368.96 48.5
-6 11 -7 341.07 49.7
-11 4 7 290.27 41.9
-4 11 -7 275.37 44.3
-4 11 -7 303.27 48.2
-4 -7 7 257.97 39.6
-7 -4 -7 299.07 51.59
-11 7 -7 295.37 43.8
4 -11 -7 281.97 48.9
-11 4 -7 294.77 47
-7 -4 7 191.68 36.9
-4 -7 -7 242.38 39
-7 11 -7 263.87 40.1
-7 11 -7 147.59 32.8
4 7 -7 245.18 41.7
-8 -3 -7 36.1 24.7
-8 -3 -7 37.3 29.4
3 -11 -7 36.3 26.5
-3 11 -7 35.6 28.6
-3 -8 7 7.8 24.5
-11 8 -7 60.69 27.6
-11 3 7 46.7 22.7
-8 11 -7 49.6 27.7
-8 -3 7 -6.1 26
-3 -8 -7 33 30
3 8 -7 35.7 27.7
-11 3 -7 39.5 30.6
3 -11 7 8.7 23.1
-8 11 -7 30.6 27.6
-11 9 -7 375.36 46
-2 -9 7 220.88 37.7
-9 -2 -7 302.67 49.4
-2 11 -7 432.36 54.49
2 -11 -7 324.27 54.69
-9 -2 -7 316.77 51.59
-11 2 7 321.87 41.7
2 9 -7 414.16 51.99
-9 11 -7 290.57 49.1
-2 -9 -7 336.97 59.89
-9 11 -7 382.56 49.5
-11 2 -7 415.96 56.39
-9 -2 7 374.76 46.6
-11 10 -7 1.4 25.2
-1 -10 7 -6.4 23.1
-11 10 -7 25.8 26.2
-10 -1 -7 5.4 18.4
-1 11 -7 14.3 31.4
1 -11 -7 43.4 29
-10 -1 -7 12.2 32.9
-11 1 7 35.9 24.8
1 -11 7 -24.7 23.1
1 10 -7 12.6 27.8
-1 -10 -7 4.5 27.7
-10 11 -7 10.1 25.2
-10 11 -7 10.5 27
-10 -1 7 3.8 23.7
-11 1 -7 -2.2 29.3
-11 0 7 122.89 30.9
-11 11 -7 91.99 32.3
0 11 -7 106.69 34
0 -11 -7 152.48 36.8
-11 11 -7 60.29 28.5
-11 0 -7 113.59 36.2
0 -11 7 55.89 26.5
-6 -6 -7 123.59 33.9
-12 6 7 137.49 30.8
-6 -6 7 64.99 29.9
-12 6 -7 171.48 36.8
-6 12 -7 107.49 32.3
6 6 -7 165.38 35.8
-6 12 -7 111.39 30.8
-5 12 -7 182.98 36.9
-12 7 -7 239.88 38.4
-5 -7 7 150.48 33.8
-5 12 -7 249.68 38.3
-7 -5 -7 179.68 36.6
-12 5 7 254.67 40.9
-12 5 -7 254.27 41.8
-5 -7 -7 171.98 35.6
-7 12 -7 183.08 33.5
5 7 -7 237.98 38.7
-12 7 7 192.88 31.1
-7 -5 7 107.69 32.8
-7 12 -7 285.07 43.1
-12 4 7 117.29 31.4
-8 -4 -7 38.5 27.5
-12 8 -7 141.89 33.8
-8 -4 -7 63.39 27.4
4 -12 -7 68.79 27.6
-4 12 -7 72.49 31.7
-4 -8 7 63.69 28
-8 -4 7 54.49 29.2
4 -12 7 29 24.8
4 8 -7 125.29 33.7
-8 12 -7 86.99 29.2
-4 -8 -7 82.79 33.5
-8 12 -7 55.29 27
-12 3 7 504.05 52.69
-9 -3 -7 558.84 62.19
-3 -9 7 405.86 59.99
-9 -3 -7 518.45 59.39
3 -12 -7 600.54 65.59
-12 9 -7 623.94 57.89
-3 12 -7 676.83 63.59
3 -12 7 276.87 49.3
-9 -3 7 326.37 56.59
2 -12 -7 79.99 30.3
-10 -2 -7 40.2 31.3
12 -2 7 11.5 13.7
-2 -10 7 52.69 26.1
-12 2 7 86.09 28.2
-12 10 -7 102.19 32
-10 -2 -7 49.2 23.6
-2 12 -7 109.29 35.9
-10 -2 7 146.69 32.1
2 -12 7 55.29 28.3
-10 12 -7 139.59 34.7
-12 2 -7 101.09 35.5
-10 12 -7 97.39 31.4
10 -12 -7 96.09 24
2 10 -7 172.38 38.9
-2 -10 -7 118.49 33.5
-12 11 -7 139.99 34.2
-12 11 -7 46.3 28.2
12 -11 -7 88.29 23.5
-11 -1 -7 170.58 41.1
12 -1 7 74.49 16.3
1 -12 -7 153.48 35
-1 12 -7 113.49 23.5
-1 -11 7 149.29 34.2
12 -11 -7 106.89 20.5
-12 1 7 99.19 28.6
1 -12 7 121.19 32.6
-11 12 -7 97.09 31.2
11 -12 -7 160.48 28.9
-12 1 -7 180.08 43.6
-1 -11 -7 162.68 37.6
1 11 -7 223.38 44.2
-11 12 -7 111.09 34.2
-11 -1 7 101.29 28.8
1 11 -7 69.49 22.2
0 -12 -7 246.58 41.6
-12 0 -7 201.18 43.3
0 -12 7 175.98 36
0 12 -7 196.08 38.8
12 0 -7 218.48 28.2
0 12 -7 262.07 37.8
-12 0 7 196.68 35.6
-12 12 -7 169.78 36.5
-12 0 -7 125.99 25.7
-12 12 -7 224.98 40
12 -12 -7 260.27 40.6
12 -12 -7 237.88 30.3
12 0 7 183.98 28.3
7 6 -7 -4.3 13.4
-13 7 -7 0.5 28
7 -13 7 17.6 18.5
-6 -7 7 -5.2 24.3
6 -13 -7 -11 21.9
-6 13 -7 2.6 23.9
13 -6 7 3.3 13.6
-6 13 -7 8.4 28.5
-13 7 -7 -5.4 12.1
-13 6 7 1.6 26.4
-7 -6 -7 9.8 26.8
7 6 -7 -10 20
7 -13 -7 10.3 20.3
-7 13 -7 6.9 22.4
6 7 -7 10.1 28.7
13 -7 7 -9 11.8
-13 6 -7 -3.3 17
6 7 -7 6.9 19.8
-6 -7 -7 -17.9 28
-7 13 -7 20.1 27.6
6 -13 7 35.8 16.3
6 7 -7 9.4 14.2
-13 7 7 10.4 23.4
-13 6 -7 -5.8 28
-7 -6 7 -8.6 25.1
7 -13 -7 4.9 22.7
8 5 -7 137.99 26.2
-13 8 -7 156.88 34
-5 13 -7 236.68 41.8
-5 -8 7 171.88 34.7
-8 -5 -7 155.28 36.2
5 -13 -7 99.49 25.5
-13 5 7 160.58 33.3
8 -13 7 131.99 24.5
13 -5 7 180.18 27.8
-8 13 -7 119.49 31.8
-13 8 7 112.29 26.9
-13 5 -7 163.48 24
8 -13 -7 87.69 22.4
-8 13 -7 47 25
-8 -5 7 150.48 35.4
8 -13 -7 101.29 26.2
5 8 -7 111.29 20.9
-4 13 -7 104.39 35.6
-13 4 7 52.89 27.7
9 4 -7 41 15.8
-9 -4 -7 31 27.8
-4 13 -7 5.2 15.6
-4 -9 7 38.5 25
4 -13 -7 42.4 25.6
13 -4 7 77.49 19.6
-13 9 -7 104.49 32.4
4 -13 -7 0.4 15.9
-9 -4 -7 41.4 28.1
9 -13 7 79.79 22
-9 -4 7 73.79 31.4
4 9 -7 45.5 29.8
-9 13 -7 57.49 28.3
4 9 -7 -1 15.7
-4 -9 -7 30 28
-9 -4 7 22 29
4 9 -7 46.5 21.4
4 -13 7 5.4 22.9
9 -13 -7 25.8 22.3
-13 4 -7 45.9 21.6
-13 4 -7 58.19 33.7
-9 13 -7 2.2 21.3
-13 9 7 -4.1 22.6
-4 13 7 5.4 24.9
9 -13 -7 43.7 24.7
-13 10 -7 11 27.9
13 -3 7 16.9 17.7
13 -10 -7 -7.2 12.1
-3 13 -7 -1 31.8
-3 13 -7 4.2 19.8
10 3 -7 17.7 18.8
10 -13 7 44.6 20.6
-3 -10 7 5.2 23.8
-10 -3 -7 1.7 28.2
-13 3 7 10.6 22.7
13 -10 -7 11.8 18.8
3 -13 -7 14.8 25.5
-10 -3 -7 14.1 24.9
-10 -3 7 43.6 28.7
3 -13 7 -14 23.8
3 10 -7 26.6 22.9
-10 -3 7 -6.7 21.4
10 -13 -7 -1.6 23.4
-13 3 -7 19.6 21.1
-10 13 -7 2.4 22.4
-3 13 7 -2.1 16.1
-10 13 -7 18.6 26.9
-13 3 -7 48.9 36.2
3 10 -7 30.7 31.9
10 -13 -7 -3.5 17.8
-3 -10 -7 15.8 27.3
-2 13 -7 86.99 25.3
11 2 -7 94.79 23
13 -11 -7 60.49 25.7
13 -11 -7 32 18.1
2 -13 -7 65.99 29.1
-13 2 7 41 25.7
13 -2 7 76.89 20.7
-11 -2 -7 62.89 33.2
-2 13 -7 100.69 36.6
-2 -11 7 86.09 30.9
-13 11 -7 48.9 29.1
11 -13 7 53.09 19.1
2 -13 7 47.4 27
11 -13 -7 -4.2 21.8
13 -2 -7 19.2 13.2
-13 2 -7 62.79 26.8
-11 13 -7 44.9 30
2 11 -7 56.49 34.1
-13 2 -7 57.49 34.2
-2 13 7 52.49 24.2
-11 13 -7 -2.3 23.7
-11 -2 7 52.19 26.5
2 11 -7 64.49 25.3
11 -13 -7 46.5 25.5
-2 -11 -7 50.79 30.4
1 12 7 27.5 23.4
-13 12 -7 -2 27.1
13 -1 7 17.7 18.2
-12 -1 -7 41 36.4
-12 -1 -7 28.3 19.1
-13 1 7 25.6 26.4
-13 12 -7 44.7 30.7
12 1 -7 28.4 20.7
13 -12 -7 27.8 20.7
13 -12 -7 35.9 26
-1 13 -7 23.7 24.7
-1 -12 7 26.4 28
12 -13 7 29 14.8
1 -13 -7 44.6 28.5
-1 13 -7 43.8 32.4
-1 -12 -7 34.8 27.8
-13 1 -7 29.1 25.3
-1 13 7 26.5 24.9
-12 13 -7 23.3 28.9
1 12 -7 41.7 33
13 -1 -7 30 19.3
1 -13 7 8 27.6
1 12 -7 13.7 22.5
-12 13 -7 -0.6 36.1
12 1 7 36.5 16.4
12 -13 -7 -6.5 24.1
-13 1 -7 27.8 34.1
-12 -1 7 19.6 27.4
0 -13 -7 28.6 27.3
13 -13 7 -7.2 13.7
-13 0 -7 10.8 35.4
13 0 -7 17.5 19.5
0 13 -7 6.6 30.5
13 -13 -7 -4.2 19.9
0 13 7 20.4 24.5
-13 0 7 32.9 27.2
0 -13 7 -7.4 26.2
-13 0 -7 -6.1 23.3
0 13 -7 25.1 24.2
-13 13 -7 1.6 27.3
13 -13 -7 0.3 25.3
13 0 7 4.2 18.1
7 -14 -7 50.59 26.7
-14 7 -7 40.1 30.6
-7 14 -7 42.4 30.2
7 7 -7 21.4 24.2
-7 14 7 43.3 26.5
-14 7 7 29.8 25.4
7 -14 7 62.29 24.1
-14 7 -7 49 21.9
-7 14 -7 50.39 20.9
14 -7 7 44.7 19.9
-7 -7 7 43.8 29.2
7 7 -7 33.7 22.9
-7 -7 -7 35.8 30
-7 -7 7 66.89 33
-14 8 -7 157.48 36.7
-8 14 7 237.68 35.4
-14 6 7 141.69 34
-6 -8 7 248.08 42.7
-6 14 -7 217.68 42.6
6 -14 -7 150.98 29.4
-14 8 -7 190.18 27.1
-8 -6 -7 110.19 34.7
14 -6 7 161.48 24.6
8 -14 7 172.88 28.6
8 6 -7 214.38 29.2
-6 14 -7 133.19 26.3
-6 -8 7 171.28 35.6
14 -8 7 96.49 21.6
-6 -8 -7 98.19 33.3
-8 -6 7 176.28 37.5
6 8 -7 140.19 35.9
-8 14 -7 139.99 35.2
-6 14 7 195.78 32.2
6 -14 7 108.29 25.2
-14 6 -7 142.79 36.9
8 -14 -7 202.48 32
6 8 -7 185.38 29.3
6 8 -7 150.28 28.6
-14 8 7 121.39 31.3
-8 -6 7 128.69 34.7
8 -14 -7 154.98 30.7
-14 6 -7 143.59 25.4
-5 14 -7 -5.8 22.1
14 -9 -7 27.4 18.9
-14 5 7 19.8 29.4
9 5 -7 -8.2 20.5
9 -14 7 9.9 22.6
-5 14 -7 12.7 30.8
-14 9 -7 15.6 16.7
5 -14 -7 0.1 22.3
14 -9 -7 1.9 10.3
-14 9 -7 10.7 27.7
14 -5 7 28 18.5
-9 -5 -7 11.3 26.7
-5 -9 7 -16.7 24.5
-5 14 7 -1.4 23.8
5 9 -7 11.1 21.3
-9 -5 7 3.4 27.9
-14 9 7 -2.3 19
-9 -5 7 26.6 29.6
-14 5 -7 -5.2 32.1
5 -14 7 20.5 20.5
-14 5 -7 15.3 22.7
-5 -9 -7 9.7 29.5
9 -14 -7 -14.3 25
-9 14 -7 20.3 28.5
9 -14 -7 -21.7 25.4
5 9 -7 17.5 30.9
14 -9 7 5 17.5
-9 14 -7 3.3 14.9
5 9 -7 11.1 21.1
14 -10 -7 29.1 21
10 -14 7 61.29 23.1
14 -4 7 69.69 19
-14 10 -7 45.1 28.4
14 -10 -7 28.5 14.7
-14 4 7 83.19 30.5
-4 -10 7 54.99 29.2
4 -14 -7 78.49 24.1
-4 14 -7 60.29 32.6
4 -14 -7 2.7 23.1
-10 -4 -7 30.6 26.1
10 4 -7 63.49 22
-10 -4 -7 -0.9 25.6
-4 14 -7 48.1 24.4
-14 10 -7 -4.9 13.2
-10 -4 7 54.89 29.5
-14 4 -7 42.7 35.4
-4 14 7 47.2 23.8
4 10 -7 40.6 21.1
10 -14 -7 51.79 27
-4 -10 -7 50.49 29.3
4 10 -7 58.59 24.6
4 10 -7 50.29 34.9
-10 14 -7 39.6 27.7
-14 4 -7 52.79 24.2
-10 14 -7 1.3 15.8
10 -14 -7 16 25
-11 -3 -7 136.19 36.7
3 -14 -7 155.58 25.4
14 -3 7 163.48 24.1
-3 -11 7 191.18 37.3
-3 14 -7 271.87 33.1
-14 3 7 179.78 37.3
3 11 7 124.09 27.1
3 -14 -7 117.69 31
11 3 -7 258.47 30.2
-14 11 -7 193.18 37.8
14 -11 -7 212.68 26.7
14 -11 -7 261.77 35.6
11 -14 7 226.68 30.5
-11 -3 7 156.68 35.8
-14 3 -7 266.77 51.69
3 -14 7 90.69 30.7
3 11 -7 205.48 41.8
14 -3 -7 136.59 22.9
3 11 -7 215.58 31
-3 -11 -7 193.88 38.7
-14 3 -7 186.28 30.3
-11 14 -7 160.48 36.1
-3 14 7 211.48 33.1
11 -14 -7 261.37 35.7
11 -14 -7 123.09 29.8
2 -14 -7 73.79 27.6
14 -12 -7 104.89 28.6
12 -14 7 118.19 24.6
12 2 -7 145.19 25.2
14 -2 7 129.39 22.8
2 12 7 136.79 28.9
-2 -12 7 111.89 31.4
-12 -2 -7 57.59 20.4
-12 -2 -7 120.79 38.8
-2 14 -7 167.48 28.9
14 -12 -7 141.39 24.8
-14 2 7 103.69 28.6
-2 14 -7 101.99 35.5
-12 -2 7 182.48 37.8
2 -14 7 99.39 31.4
-14 2 -7 210.98 48.8
-14 2 -7 154.58 30.4
2 12 -7 256.07 47.9
2 12 -7 189.68 29.5
-2 -12 -7 143.09 34.5
14 -2 -7 184.18 25
12 2 7 93.29 20.3
12 -14 -7 141.19 28
-2 14 7 153.58 29.2
-12 14 -7 115.59 34.4
-1 14 -7 59.59 35.4
13 1 -7 46.4 21.5
-14 1 7 28.2 25.7
-1 14 -7 48 23.8
14 -1 7 23.4 18.2
14 -13 -7 14.4 20.7
1 13 7 45 25.7
13 -14 7 28.5 19.7
-13 -1 -7 28.4 23.7
1 -14 -7 15.4 25.6
14 -13 -7 45.7 26.4
-13 -1 -7 48.6 35.7
-1 -13 7 14.6 26.3
-13 -1 7 63.19 30.2
-14 1 -7 88.99 40.1
13 -14 -7 41.8 24.8
-14 1 -7 112.69 28.8
-1 -13 -7 77.29 30
14 -1 -7 75.89 22.3
1 13 -7 44.8 23.3
1 -14 7 24.7 27.4
1 13 -7 74.99 35.2
13 1 7 56.29 19.5
-13 14 -7 31.3 28.8
-1 14 7 67.09 26.6
0 -14 -7 25.7 26
-14 0 -7 19.1 34.7
14 -14 7 3.5 15.8
-14 0 7 0.9 25.9
14 0 -7 -5.4 18.4
-14 14 -7 0.1 33.1
0 14 -7 13.6 33.9
14 -14 -7 -31.5 23.4
14 0 7 13 18.4
-14 14 -7 0.9 15.7
0 -14 7 -7.8 26.3
0 14 7 3.3 23.5
-14 0 -7 11.8 23.3
0 14 -7 12 21.3
14 -14 -7 -18.6 20.3
-7 -8 7 23.8 31.8
8 -15 7 10.9 23.1
-7 15 -7 16.3 23.1
8 7 -7 -14 22.6
-7 -8 7 -14.4 27.4
-7 15 -7 2.4 28.7
-8 -7 -7 12 29.3
-15 8 -7 11 29.5
-8 15 7 8.8 26.1
-15 7 7 14.5 26.3
7 -15 -7 4.5 23
15 -7 7 12.3 19
-15 8 -7 10 18.9
15 -8 -7 19.2 22.1
-15 7 -7 7.9 31.6
8 -15 -7 20.1 24.3
15 -7 -7 3.2 19.9
-7 15 7 -6.7 26.2
-7 -8 -7 3.6 27.2
-8 -7 7 -1.4 27.4
15 -8 7 8.6 20.6
7 -15 7 -2.8 23.2
-8 -7 7 7.9 31.3
-15 7 -7 8.4 19.9
-15 8 7 0.4 24.5
7 8 -7 -2.4 20.5
-8 15 -7 -21.1 28.3
-8 15 -7 31.2 23.6
9 -15 7 111.09 26.1
-6 15 -7 81.39 35.4
15 -6 7 68.89 21.5
-9 -6 -7 61.09 30.1
-15 6 7 75.29 31.9
-6 -9 7 46.1 29.2
-15 9 -7 53.79 21.4
15 -9 -7 66.19 24.7
9 6 -7 64.59 24.2
6 -15 -7 54.09 24
-6 -9 7 55.49 32.4
-15 9 -7 104.89 35.1
-9 15 7 105.89 29.7
-6 15 -7 61.59 24
6 9 -7 38.9 23.8
-6 15 7 58.79 26.8
-15 9 7 -1 22.1
9 -15 -7 50.99 26.4
6 9 -7 25.6 32.4
-9 15 -7 23.3 29.7
15 -6 -7 20.9 18.9
6 -15 7 45.6 24.2
-15 6 -7 44.1 22.5
9 -15 -7 48.9 28.7
6 9 -7 35.8 24.2
-9 -6 7 33.6 32.2
-6 -9 -7 56.69 30.3
-15 6 -7 35 32.3
-9 -6 7 43.3 30.2
15 -9 7 15.5 20.5
-9 15 -7 48.8 22.9
-15 10 -7 175.28 26.2
-5 -10 7 164.78 39
10 -15 7 194.88 28.9
15 -10 -7 126.79 29.2
-5 15 -7 137.49 35.9
-15 5 7 125.19 35.1
15 -5 7 160.38 25
-5 15 -7 182.48 29.5
5 -15 -7 165.38 27.8
-15 10 -7 109.19 33.2
10 5 -7 216.68 30
-5 -10 7 85.29 29.6
-5 15 7 213.58 32.8
5 10 -7 189.78 29.4
-5 -10 -7 133.99 35
10 -15 -7 151.68 30
15 -10 7 125.79 25.6
-10 15 -7 79.69 31.9
5 -15 7 189.78 28.9
-10 15 -7 172.88 29.1
-10 -5 7 137.69 35.2
-15 5 -7 140.29 40.9
5 10 -7 160.68 28.4
5 10 -7 187.88 43.4
10 -15 -7 195.98 33.2
-15 5 -7 217.88 30.8
-15 11 -7 36 28.4
-15 4 7 36.2 31
-4 15 -7 45.1 24.2
11 4 -7 37 22.7
-4 15 -7 19.3 32.2
4 -15 -7 40.8 21.7
-15 11 -7 0 14.2
15 -11 -7 22.9 17.5
11 -15 7 62.49 23.8
-4 -11 7 23.9 28
-4 -11 7 25.7 27
4 11 7 -1.5 24.5
15 -4 7 56.19 21.2
15 -11 -7 21.8 27.9
15 -4 -7 9.7 16
15 -11 7 8.4 21.5
-15 4 -7 40.2 39.4
-11 -4 7 31 28.8
4 -15 7 29.7 20.2
4 11 -7 22.5 22.7
4 11 -7 -0.2 34.6
-15 4 -7 23.5 22.7
-11 15 -7 23.7 21.8
11 4 7 -4.7 15.6
11 -15 -7 15.7 26.2
11 -15 -7 10.1 24.5
-11 15 -7 35.2 29.9
-4 15 7 26.3 24.4
-4 -11 -7 29.8 28.3
4 11 -7 18.4 20.4
15 -12 -7 20.4 26.4
12 3 -7 11.8 21.3
-12 -3 -7 0.9 13.9
-15 3 7 37.5 30.6
-12 -3 -7 -3.5 26.8
3 12 7 25.3 25.7
15 -12 -7 21.5 19.6
-15 12 -7 1.2 34
3 -15 -7 25 20
-3 -12 7 -3.3 25.7
12 -15 7 24.8 21.2
-3 15 -7 40.5 33.7
-3 15 -7 36.3 23.8
-3 -12 7 19.3 24.7
15 -3 7 21.1 18.2
-15 3 -7 64.49 37.2
3 12 -7 13.7 16.2
15 -3 -7 21.5 15.7
3 12 -7 49.7 34.6
15 -12 7 16.2 16.3
12 -15 -7 56.89 26.1
-15 3 -7 75.09 25.3
-12 -3 7 39.9 28.9
3 12 -7 67.99 26.8
12 3 7 23.3 14.3
12 -15 -7 24.9 25.8
-3 -12 -7 51.99 27.6
-12 15 -7 43.6 28.9
-3 15 7 50.29 24.5
-12 15 -7 39.9 21.3
-2 15 -7 107.29 26.1
-15 2 7 84.39 33.4
15 -13 -7 73.49 26.5
-2 -13 7 33.6 27.1
-13 -2 -7 37.2 32.3
15 -2 7 80.09 21.2
2 13 7 67.59 26.9
-13 -2 -7 62.99 22.8
-2 15 -7 99.49 35.8
15 -13 -7 69.49 22.5
13 -15 7 86.39 24
13 2 -7 96.19 23.8
-15 2 -7 89.69 40.6
2 13 -7 121.29 27.4
-15 2 -7 118.89 28.1
2 13 -7 145.79 42.9
-2 15 7 130.49 28.4
13 -15 -7 57.69 26.3
-13 15 -7 71.09 23.2
-13 -2 7 110.59 32.6
-13 15 -7 39.6 29.3
13 -15 -7 147.39 30.4
-2 -13 -7 98.59 31.2
15 -2 -7 127.39 23.2
-1 15 -7 93.19 36.6
14 1 -7 86.29 20.9
15 -14 -7 81.09 25.5
15 -14 -7 112.39 24.6
1 -15 -7 26.2 22.2
14 -15 7 68.99 20.8
-1 15 -7 141.69 27.5
15 -1 7 98.09 22.1
-14 -1 -7 87.79 24.7
1 14 7 60.39 25.2
-15 1 7 39.6 30.9
-14 -1 -7 119.09 37.9
-1 -14 7 47.9 29.7
-14 -1 7 45.4 27.9
14 -15 -7 12.2 19.1
-15 1 -7 81.89 27.3
-15 1 -7 68.69 39.4
-14 15 -7 46.7 22.4
1 -15 7 1.6 24.7
15 -1 -7 4.3 16.5
-1 -14 -7 42.2 25.6
-1 15 7 41.6 23.9
14 -15 -7 95.89 25.1
1 14 -7 93.19 39.5
1 14 -7 107.29 25.7
15 -1 -7 96.09 21.8
14 1 7 32.2 17.6
14 -15 -7 43.2 25.6
-15 0 -7 26.1 32.8
15 -15 -7 23.6 23.6
15 0 -7 56.69 20.5
-15 0 -7 54.89 23.6
0 15 7 39.9 24.5
15 0 -7 5.3 15.9
0 -15 -7 19.7 20.9
0 15 -7 68.99 24
0 15 -7 50.29 33.3
15 -15 7 30.7 17.5
-15 0 7 -5.1 22.2
15 0 7 22 17.2
-15 15 -7 11.4 21.3
15 -15 -7 55.79 23.3
0 -15 7 -10.2 23.7
-8 -8 -7 31.2 29.5
-8 16 -7 18.1 29.4
8 8 7 -5 17.2
16 -8 -7 6 22.1
-8 16 7 22.7 24.3
-8 -8 7 52.59 32.2
8 -16 7 38.7 21.8
-8 -8 7 1 27.2
-16 8 -7 9.3 30.2
8 8 -7 9.1 21.4
-16 8 7 10.9 24.1
-8 16 -7 40.4 23.9
-16 8 -7 10.3 19.3
8 -16 -7 18.2 23.2
16 -8 7 12.2 19.7
-16 9 -7 18.9 20.8
-7 16 -7 29.4 30.8
-16 7 7 13.8 27.5
7 9 7 12 25.1
-7 -9 7 19.8 27.8
16 -9 -7 29.2 23.9
9 -16 7 25.9 21.8
-7 -9 7 5.5 31.1
-9 -7 -7 16.5 25.7
16 -7 7 30 19.5
7 -16 -7 13.2 21.2
9 7 -7 19.2 21.1
-16 9 -7 36.4 30.7
-7 16 -7 18.4 23.3
-9 16 7 33.7 27
-9 16 -7 32 30
-9 16 -7 37.8 23.7
7 9 -7 48.6 23.1
7 -16 7 42.1 21.3
-7 16 7 32 25.3
-16 7 -7 45.9 35.7
16 -7 -7 29 22.5
-7 -9 -7 27 28.9
-16 9 7 -7.3 27.6
-9 -7 7 28.5 28.4
9 -16 -7 52.69 24.8
16 -9 7 34.8 22.2
-9 -7 7 20.3 29.5
-16 7 -7 18.7 20.4
6 10 7 14.7 26.4
-6 -10 7 28.6 32.3
10 6 -7 16.4 23.1
10 -16 7 42.1 22.6
-16 10 -7 -4.2 19.9
-6 16 -7 17.2 32.1
16 -10 -7 6.4 26.1
-6 16 -7 -1.7 21.6
-16 6 7 14.1 26.9
-10 -6 -7 -3.9 21.9
-10 16 7 13 24.2
-16 10 -7 31.9 29.7
16 -6 7 29.2 20.6
16 -10 -7 10.3 12.1
-6 -10 7 23.7 27
6 -16 -7 17.9 21
-6 16 7 9.7 22.7
-16 6 -7 6.2 20.1
6 10 -7 29.7 23.9
10 -16 -7 18.3 24.4
16 -6 -7 23.8 21.7
-6 -10 -7 39.5 28.6
-10 -6 7 33.4 31.6
10 -16 -7 -15.7 26.1
-16 6 -7 19.3 35.3
-10 16 -7 10.7 28.2
-10 16 -7 21.7 21.5
16 -10 7 25.1 21.5
6 -16 7 19.4 20.9
16 -11 -7 10.2 15.8
-16 5 7 18 29.7
-5 16 -7 13.6 21.1
5 -16 -7 32 21.1
16 -5 7 23.7 19.5
11 5 -7 14.2 22.9
16 -11 -7 -0.7 27.2
5 11 7 -19.5 25.8
11 -16 7 24.6 20.8
-5 -11 7 2.2 27
-5 -11 7 8.4 28
-16 11 -7 -3.7 24.3
-5 16 -7 28.1 31.1
-16 11 -7 18.1 20.4
-16 5 -7 8.3 20.9
-5 -11 -7 44.3 29
16 -11 7 -3.8 22.1
5 -16 7 13.5 21.2
-11 -5 7 15.1 30.4
16 -5 -7 8.3 21.1
5 11 -7 14.2 33.8
-5 16 7 31.1 22.7
-11 16 -7 21 22.3
11 -16 -7 6.3 25.8
-11 16 -7 23.7 30.9
11 -16 -7 19.1 24
5 11 -7 12.7 23.1
-16 5 -7 14.3 37.6
16 -12 -7 154.08 31.5
16 -12 -7 65.99 20
12 4 -7 128.19 26.8
4 12 7 100.39 30.7
-4 16 -7 65.39 34.4
-4 -12 7 89.49 33.1
4 -16 -7 127.79 25.4
12 -16 7 104.69 23.6
-4 -12 7 -1.2 40.4
16 -4 7 112.39 23.4
-4 16 -7 127.59 27.1
-16 4 7 99.69 34.6
-12 -4 7 127.49 36.6
-16 4 -7 90.59 41.2
-12 16 -7 72.29 23.5
-12 16 -7 88.99 32.7
12 -16 -7 72.19 25.7
4 12 -7 83.89 36.7
-16 4 -7 132.49 26.9
12 -16 -7 73.39 26.3
16 -12 7 127.19 25.1
16 -4 -7 74.19 24
4 12 -7 78.19 23.6
-4 16 7 110.09 27
4 -16 7 101.59 23.5
-4 -12 -7 110.09 32.8
-3 16 -7 40.2 22.6
-13 -3 -7 10.4 18.6
3 13 7 23.7 25.7
16 -13 -7 14.7 24.4
-3 -13 7 -5.5 26.2
13 -16 7 31.4 20.8
16 -3 7 8.8 18.5
13 3 -7 41.1 20.8
-3 16 -7 31.2 33.4
-16 3 7 50.19 32.6
3 -16 -7 34.8 19.4
16 -13 -7 1.6 19.2
-13 16 -7 14.1 20.5
-16 3 -7 12.7 36.2
13 -16 -7 12.1 23.8
16 -13 7 28.2 22.4
-3 -13 -7 31.4 25.1
3 13 -7 23.5 22.8
3 13 -7 24.1 35.9
-13 -3 7 36 30
-13 16 -7 10 26.9
-3 16 7 23.4 22.1
-16 3 -7 23.8 22.3
13 -16 -7 40.2 24
16 -3 -7 29.7 21.6
13 3 7 28.1 16.3
2 14 7 20.9 24.8
14 2 -7 32.4 19.5
-2 16 -7 70.09 22.8
-16 14 -7 -2 15.6
-16 2 7 48.5 31.5
14 -16 7 58.29 20
-14 -2 -7 42.7 20.9
-2 16 -7 36.4 34.1
16 -14 -7 53.89 25.8
16 -2 7 51.19 19.6
16 -14 -7 20 19.2
-2 -14 7 9.6 25.8
-2 16 7 38 23.1
2 14 -7 50.59 23.6
-16 2 -7 65.19 36.6
14 -16 -7 39.9 21.9
-16 2 -7 16.6 20.8
16 -14 7 -1.4 14.3
16 -2 -7 19 21.3
-14 -2 7 5.5 25.9
14 -16 -7 37.7 25.4
-2 -14 -7 27.8 24.1
-14 16 -7 26.9 21.2
14 -16 -7 41.7 24.5
14 2 7 33.9 17
2 14 -7 39.3 35.1
-16 15 -7 4.4 20.9
15 1 -7 1.7 19.2
-16 1 7 5 27.5
15 -16 7 8.8 17
1 15 7 11.2 23.2
-1 16 -7 6.2 31.2
-15 -1 -7 22.4 21.3
16 -15 -7 2.3 22.4
-1 16 -7 14.3 19.7
16 -15 -7 -12.8 17.6
15 1 -7 3.5 18.1
16 -1 7 8.3 17.7
-1 -15 -7 7.2 20.4
1 15 -7 37.8 21.3
-1 16 7 30.2 23.1
-16 1 -7 20.3 31
-15 16 -7 25.5 20.5
15 -16 -7 69.59 26
16 -1 -7 36.1 22.7
-15 -1 7 -2.2 22.7
1 15 -7 27.2 32.9
-16 1 -7 42.4 21
15 -16 -7 14.1 17.6
15 1 7 5.3 17.2
15 -16 -7 25.8 20.3
16 0 7 72.39 20.4
-16 16 -7 93.09 23.7
16 0 -7 117.99 26.3
0 16 7 146.29 28
16 -16 -7 176.18 27.9
-16 0 -7 131.99 23.5
16 -16 -7 204.98 27
16 0 -7 165.98 23.4
8 9 7 2.8 24.9
-8 17 -7 27 22.1
-8 -9 7 -24.9 25
-17 9 -7 25.8 29.6
-17 9 -7 5.2 20
17 -8 7 30.3 21.5
9 -17 7 34.1 19.9
17 -9 -7 28.4 23.2
-9 -8 -7 12.1 23.4
-8 -9 7 40.7 32.9
8 -17 -7 20.8 20.2
9 8 -7 1.9 21.6
-9 17 7 16.8 22.5
-8 17 -7 39.7 30.9
-17 8 7 -2.1 28
8 9 -7 -2.1 19.9
-9 -8 7 11.3 29.7
-17 8 -7 18.3 32.5
8 -17 7 18.6 19.6
-8 -9 -7 17.2 24.4
9 8 7 -1.2 23.3
17 -8 -7 21.8 22.8
9 -17 -7 31.6 21.8
-8 17 7 17.3 21.6
-9 17 -7 24.9 28.8
17 -9 7 34.2 20.8
-9 17 -7 26.4 21.7
-17 8 -7 0.9 18.6
7 10 7 37.3 27
-7 17 -7 62.29 22.3
-7 -10 7 45.2 29.5
17 -7 7 82.09 22.2
-17 10 -7 74.29 22.5
7 -17 -7 60.19 21.8
10 7 -7 43.7 21.3
-17 10 -7 7.8 27.5
-7 17 -7 71.79 33.1
10 -17 7 91.39 22.7
-17 7 7 -0.8 25.8
17 -10 -7 43.7 28
-10 17 7 88.09 28
-7 -10 7 12.6 26.8
7 -17 7 64.39 22.4
-10 17 -7 55.59 33.1
-10 17 -7 26.5 21
17 -10 7 32.9 21.4
10 -17 -7 62.29 23.4
-17 7 -7 35.8 34.4
-17 7 -7 35.6 21.2
-7 17 7 42.1 22.4
-10 -7 7 30.7 31.3
10 7 7 -2.4 17.1
7 10 -7 52.59 21.9
-7 -10 -7 50.79 27
17 -7 -7 32 22.9
-17 11 -7 63.49 22
6 11 7 35.5 27.4
-6 -11 7 2.8 26.5
17 -11 -7 39.5 27.1
6 -17 -7 39.9 20
-11 17 7 67.29 28.3
17 -11 -7 29.2 15.5
11 6 -7 59.29 23.1
-6 -11 7 15.3 25.3
-17 6 7 18.1 25.1
-6 17 -7 77.29 23.6
11 -17 7 63.09 20.9
-6 17 -7 45 32.6
17 -6 7 75.59 22.7
6 -17 7 57.69 22.1
-6 17 7 41.5 22.9
-17 6 -7 20.4 20.6
11 -17 -7 68.29 24.3
11 6 7 -1.9 19.8
17 -11 7 39.3 21.4
-11 17 -7 14.7 27.2
17 -6 -7 37.7 22.1
-11 17 -7 52.59 22.7
-11 -6 7 51.49 30.9
6 11 -7 34.2 21.2
-6 -11 -7 42.6 26.9
-17 6 -7 28.6 34.3
-17 5 7 27.9 28
-5 -12 7 13.7 25.5
17 -12 -7 29.2 16.8
12 5 -7 68.39 24.3
-12 17 7 83.19 27.7
5 -17 -7 63.29 22
17 -5 7 53.69 21.5
-5 17 -7 34.8 31.7
-5 17 -7 54.59 21.1
12 -17 7 87.39 22.4
-17 12 -7 39.6 19
5 12 7 38.1 27.1
17 -12 -7 55.79 27.3
-12 17 -7 8.9 28.2
-5 17 7 89.19 24.6
5 -17 7 78.09 23
5 12 -7 43.9 36
-12 -5 7 80.49 33.6
-12 17 -7 75.59 23.4
17 -5 -7 38.9 22.4
12 -17 -7 83.99 25.5
17 -12 7 80.19 23.8
-17 5 -7 71.69 40.1
12 -17 -7 73.89 27.3
5 12 -7 81.99 24.4
-5 -12 -7 74.99 29
-17 5 -7 52.49 22.4
-4 17 -7 91.59 33.6
4 13 7 195.48 32.9
13 4 -7 202.38 28.1
4 -17 -7 149.59 25.7
17 -13 -7 144.39 28.9
17 -4 7 155.08 25.8
13 -17 7 154.68 24.5
17 -13 -7 150.18 23.3
-4 17 -7 240.28 30.5
4 13 -7 152.98 42.6
-4 17 7 184.58 28.8
13 -17 -7 221.38 31.4
4 -17 7 139.59 23.9
-17 4 -7 190.88 28.2
13 -17 -7 189.48 31.2
-17 4 -7 137.89 42.1
17 -4 -7 116.79 26.1
-13 -4 7 131.09 34.6
-4 -13 -7 80.69 27.7
4 13 -7 149.09 26.1
-13 17 -7 159.48 26.9
17 -13 7 168.48 28.4
-3 17 -7 3.3 29.8
17 -14 -7 -14.2 16.5
17 -14 -7 16.7 23.5
-17 3 7 6.2 26.9
3 -17 -7 12.1 16.8
14 -17 7 16.2 18.9
-3 -14 7 -41.4 22.5
3 14 7 5.5 26.2
17 -3 7 8.1 18.8
14 3 -7 0.8 17.9
-3 17 -7 3.2 19.9
-14 -3 -7 3 18.1
17 -3 -7 6.2 21.2
17 -14 7 40.2 23
-14 17 -7 30 20.8
-17 3 -7 13.5 20.3
3 14 -7 21.4 32.5
-14 -3 7 5.5 25.1
-3 17 7 21.6 22.7
14 -17 -7 20.6 22.6
-3 -14 -7 18.1 22.7
14 -17 -7 54.49 20.4
-17 3 -7 31.2 36.1
3 14 -7 19.4 19.2
14 3 7 -7.9 11.7
14 -17 -7 40.8 24
17 -15 -7 27.5 22
17 -2 7 28.3 20.3
-2 17 -7 38.1 20.1
-2 -15 7 -17.8 26
-17 15 -7 29.5 20
-2 17 -7 -2.8 27.6
2 15 7 52.69 26.2
-15 -2 -7 29.6 17.3
15 2 -7 16 18
17 -15 -7 17.1 18.8
15 -17 7 5.3 17.7
-17 2 -7 34.6 20.3
-17 2 -7 3.3 30
15 -17 -7 30.8 18.8
17 -2 -7 11.2 21.1
15 -17 -7 48.2 23.7
-2 17 7 27.5 22.8
2 15 -7 12.2 18.8
-15 17 -7 27.1 20
15 -17 -7 21.7 22.1
17 -15 7 -0.5 13.8
2 15 -7 -5.4 29.6
15 2 7 26.8 16.5
-17 16 -7 147.99 25.8
-16 -1 -7 195.98 29.5
17 -16 -7 115.29 22.3
17 -1 7 94.79 21.8
16 1 -7 177.88 23.9
16 -17 7 124.69 21.2
16 -17 -7 117.99 21.3
-1 17 7 121.99 25.6
1 16 -7 142.69 23.6
16 1 7 89.49 20.5
17 -1 -7 73.29 24.8
-16 17 -7 110.29 22.8
-17 1 -7 168.78 24.9
17 -17 -7 35.4 18.1
-17 17 -7 12.1 18.2
-17 0 -7 20.2 16.8
17 0 -7 14.5 21.1
0 17 -7 31.5 18.2
17 -17 -7 35 20.6
0 17 7 30.8 22.5
17 0 7 23 18.3
18 -9 -7 -0.8 21.4
-9 -9 7 -1.8 26
-18 9 -7 4.3 20
9 -18 -7 15.1 19.2
-9 18 7 13.7 21.5
9 9 7 -2.7 23.7
9 9 -7 -7.2 21.3
9 -18 7 14.9 19.4
-9 18 -7 11.5 21
18 -9 7 -9.4 20.8
-9 18 -7 4.9 29.5
10 8 -7 23.6 19.5
18 -10 -7 15 22.6
8 -18 -7 13.7 18.7
-8 -10 7 -18.5 25.7
-8 18 -7 31.5 20.7
-10 18 7 29.3 23.4
10 -18 7 47.6 19.9
-8 18 -7 9.9 29.4
8 10 7 6.7 24.4
-18 10 -7 10.5 20.3
18 -8 7 25.9 21.5
8 10 -7 26.2 21.6
-10 18 -7 7.9 26.9
10 -18 -7 48 21.2
-10 -8 7 20.8 28.7
10 8 7 21 24.2
18 -10 7 49.1 21.5
-8 18 7 38.4 22.8
-18 8 -7 29.5 21
-18 8 -7 5.2 28.6
-8 -10 -7 5.9 20.7
-10 18 -7 45.7 22.6
18 -8 -7 28.8 22.7
8 -18 7 27.6 19.1
7 11 7 16 25.7
-18 11 -7 26.3 20.8
-11 18 7 42.6 24.9
-7 18 -7 30.2 29.5
18 -7 7 60.99 22.3
11 -18 7 79.99 21.4
11 7 -7 54.99 22.6
7 -18 -7 42.7 19.6
18 -11 -7 44.5 27.2
-7 18 -7 41.5 21.8
7 -18 7 27.2 20
-7 18 7 39.8 22.4
7 11 -7 42 21.3
11 -18 -7 76.49 22.5
-7 -11 -7 11.8 20.8
-11 -7 7 19.3 29.6
-18 7 -7 -4.2 30.5
11 7 7 11 22.6
-18 7 -7 24.1 21
-11 18 -7 34.6 20.6
18 -11 7 31.8 20.3
-11 18 -7 1.5 27.1
18 -7 -7 35.7 22.4
18 -12 -7 -8 24.2
-18 12 -7 12.5 18
6 -18 -7 -8.8 17.6
18 -12 -7 -5 14.8
-6 18 -7 9.8 18.3
12 6 -7 9.4 19.9
6 12 7 3.7 25.3
12 -18 7 23.6 18.3
-12 18 7 18.1 25
-6 18 -7 10.2 28.1
18 -6 7 2.1 19.7
-12 18 -7 -9.4 19.5
-6 -12 -7 6.4 21.2
12 -18 -7 -2.4 20
-18 6 -7 0.9 30.5
6 -18 7 1.6 19.7
-18 12 7 0.7 15.1
18 -12 7 13.1 20.4
18 -6 -7 -5.6 20.9
6 12 -7 11.7 18.5
-18 6 -7 2.8 19.7
-12 -6 7 -1.9 27.6
-6 18 7 9.9 21.2
12 6 7 1.7 15.6
18 -13 -7 60.09 26.4
5 13 7 35.9 26.1
18 -5 7 48.6 21
5 -18 -7 28 18.6
13 5 -7 27 18.9
13 -18 7 49.9 18.9
-5 18 -7 9.2 26.7
-18 13 -7 2.9 11.9
-13 18 7 48.5 25.5
-5 18 -7 48.6 20.5
18 -13 -7 17.6 15.4
5 -18 7 59.69 21.1
-13 18 -7 72.09 21.7
13 -18 -7 42.2 26.3
13 -18 -7 76.89 18.3
-18 5 -7 99.69 23.8
18 -5 -7 58.49 22.6
18 -13 7 39.6 22.4
-13 -5 7 2.4 24.5
-18 5 -7 4 30.9
-5 18 7 93.69 24.7
5 13 -7 87.69 22.6
13 -18 -7 92.79 23.7
18 -14 -7 10 22
-14 18 7 7.4 24.5
-4 18 -7 -3.6 17
4 -18 -7 7.9 16.7
14 4 -7 17 17.3
14 -18 7 11.3 18.6
18 -4 7 -13.5 19.1
18 -14 -7 2 15.2
4 14 7 2.1 24
-14 -4 -7 8.8 14.3
-18 4 -7 3.3 36.1
14 -18 -7 13 22.7
18 -4 -7 0 20.3
18 -14 7 18.8 21
-4 18 7 4.9 20.9
-18 4 -7 -1.4 18.3
4 -18 7 -10.2 12.5
14 -18 -7 14 20.3
14 -18 -7 23.4 16.4
-14 18 -7 12 19.6
4 14 -7 19.8 19.1
-15 -3 -7 76.79 17.9
15 3 -7 114.69 21
18 -3 7 99.09 22.7
18 -15 -7 49.99 18.1
3 15 7 125.59 27.1
15 -18 7 108.09 20.6
18 -15 -7 120.79 25.7
-3 18 -7 94.59 20.4
3 15 -7 154.48 24.7
15 -18 -7 159.78 28.4
-3 18 7 167.58 27.2
-15 18 -7 132.39 24.3
18 -15 7 104.59 23.2
15 -18 -7 103.79 24.1
-18 3 -7 169.18 25.4
15 -18 -7 198.58 24.8
-16 -2 -7 14.5 15
16 2 -7 15.9 17.2
18 -16 -7 16 20.8
18 -16 -7 3.5 15.2
16 -18 7 12.5 16
2 16 7 14.5 21.4
18 -2 7 2 17.6
-18 2 7 1.4 18
-18 16 -7 15.8 19.1
-2 18 -7 8.2 16.3
2 16 -7 27.5 17.5
-16 18 -7 19.6 18.2
16 -18 -7 29 20.9
-18 2 -7 28.8 17.7
-2 18 7 28.4 20.4
16 -18 -7 17.7 16.9
18 -2 -7 6.1 21.4
16 -18 -7 33.9 16.5
-17 -1 -7 69.59 17.4
-1 18 -7 48.9 18.3
-18 1 7 68.69 19.8
18 -1 7 57.49 18.9
18 -17 -7 60.29 20.8
1 17 7 37.8 20.5
18 -17 -7 68.99 17.8
-18 17 -7 58.49 19.2
17 -18 -7 66.09 17.5
-1 18 7 65.49 21.7
-18 1 -7 58.79 17.7
18 -1 -7 43.2 22.2
17 -18 -7 69.19 20.7
1 17 -7 58.19 17.9
-17 -1 7 74.59 20.8
-17 18 -7 25.1 18
18 -18 -7 238.68 33.6
0 18 -7 239.38 27.8
0 18 7 250.77 35.7
-18 0 -7 244.48 27.2
18 -18 -7 209.78 28.4
-18 0 7 236.28 30.5
9 -19 -7 4.1 17.2
9 -19 -7 0.1 9.9
10 9 -7 -10.2 20.1
-9 19 -7 2.5 18.1
-10 19 7 3.6 20.7
19 -9 7 -6.8 18.7
-19 10 -7 -4.2 18.8
9 10 7 -13.8 22.5
10 -19 7 8.8 18.6
-19 9 -7 -17.3 18.8
-9 19 7 2.1 19.8
10 -19 -7 0.8 17.2
9 -19 7 1.2 18.4
9 10 -7 -6.3 18.5
19 -10 7 -0.6 19.2
19 -9 -7 14.4 21.1
10 9 7 1.3 23.5
10 -19 -7 22.8 15.2
-10 19 -7 20.3 19.5
-8 19 -7 44 18.9
11 -19 7 75.99 20.8
-11 19 7 78.59 25.2
19 -8 7 26.4 20.4
8 11 7 36.2 24.6
11 8 -7 71.09 23
19 -11 -7 9.6 24.3
8 -19 -7 38.8 18.5
-19 11 -7 36.2 20.4
19 -8 -7 40.7 22.5
11 -19 -7 35.9 18.7
-11 19 -7 52.19 21.5
11 -19 -7 34.7 16.1
19 -11 7 58.79 21
8 11 -7 40.5 20.3
-8 19 7 65.19 22.2
-19 8 -7 35.2 20.7
11 8 7 38.3 24.8
8 -19 7 50.69 19.7
12 7 -7 111.89 23.5
19 -7 7 138.19 24.5
7 12 7 100.29 27.5
-19 12 -7 119.99 21.3
12 -19 7 172.48 23.9
19 -12 -7 97.09 27.2
7 -19 -7 126.79 23.2
-7 19 -7 112.89 22
-12 19 7 140.89 27.4
-7 19 7 133.99 24.9
-19 12 7 91.59 21.1
7 -19 7 101.69 22.2
-19 7 -7 132.79 23.6
12 7 7 77.69 22.9
12 -19 -7 105.89 19
19 -12 7 87.79 22.8
7 12 -7 144.89 25.1
-12 19 -7 123.09 23.6
19 -7 -7 72.19 23.9
12 -19 -7 138.29 23.5
19 -13 -7 42.5 23.4
6 -19 -7 44.6 17.6
13 6 -7 69.89 20.8
-19 13 -7 3 12.2
6 13 7 70.39 25.3
19 -13 -7 33.9 15.3
13 -19 7 80.69 20.6
-6 19 -7 86.49 20.7
-13 19 7 75.99 25.3
19 -6 7 46.2 20.5
6 13 -7 72.79 20
-6 19 7 66.49 22
-19 6 -7 67.99 20.7
19 -6 -7 55.69 22.5
13 -19 -7 74.69 21.1
-13 19 -7 66.89 20.8
13 -19 -7 44.4 15.9
19 -13 7 62.39 22
6 -19 7 45.5 19.9
5 -19 -7 19 16.7
19 -14 -7 3.5 14.9
-5 19 -7 15.3 16.6
19 -14 -7 12.6 21.9
14 5 -7 2 16.8
-14 19 7 37 23.9
19 -5 7 13.5 19.2
14 -19 7 14.9 16.9
5 14 7 11.5 23.1
-14 19 -7 36.9 19.6
19 -14 7 38.7 21.5
19 -5 -7 16.2 20.4
14 -19 -7 33.4 15.4
5 14 -7 27 17.9
14 -19 -7 38 20.4
-5 19 7 45.2 21.1
-19 5 -7 16.4 17.6
5 -19 7 19.7 17.8
-15 19 7 77.19 25.9
4 -19 -7 30.4 16.6
19 -15 -7 26.7 15.3
19 -15 -7 55.89 21.8
15 -19 7 53.79 18.3
19 -4 7 43.6 19.6
-4 19 -7 53.29 18.1
4 15 7 80.69 24.7
15 4 -7 57.69 18.5
-15 -4 -7 43.3 14.5
19 -15 7 3.2 20.1
15 -19 -7 21 17.1
19 -4 -7 25.2 20.5
-15 19 -7 43.6 18.9
15 -19 -7 37.5 15.4
4 15 -7 37.2 17.3
-4 19 7 45.5 20.4
-19 4 -7 50.29 18.1
15 -19 -7 38.6 23.4
-3 19 -7 200.88 27
19 -3 7 135.19 23.5
19 -16 -7 217.88 26.8
19 -16 -7 138.09 20.9
16 3 -7 164.48 22.3
16 -19 7 126.29 20.5
-16 -3 -7 160.98 24.1
3 16 7 158.08 27.7
-16 19 7 183.78 29.2
16 -19 -7 183.78 27.4
16 -19 -7 186.88 25.1
-19 3 -7 173.08 27.2
-3 19 7 195.38 31.9
3 16 -7 187.58 26.8
19 -3 -7 137.89 25.9
-16 19 -7 124.39 22.1
16 -19 -7 120.79 22.2
-17 -2 -7 18.2 12.4
-19 17 -7 9.9 14.2
-2 19 -7 38.3 17.2
17 -19 7 24 13.9
-19 2 7 14.8 14.6
-17 19 7 33.3 22.5
19 -2 7 17.3 17.5
19 -17 -7 32.9 15.8
2 17 7 31.7 20.5
19 -17 -7 46 19.3
17 -19 -7 32.9 14.1
2 17 -7 57.29 17.4
-19 2 -7 32.4 15
-17 19 -7 30.8 16.6
-17 -2 7 62.49 19.2
17 -19 -7 85.89 20.3
-2 19 7 57.19 20
19 -2 -7 21.8 20.7
-19 18 -7 27.9 15.6
-19 1 7 32.2 14.6
-1 19 -7 28.9 14.4
19 -18 -7 50.39 15.1
-18 19 7 44.1 22.4
1 18 7 36.3 18.4
19 -18 -7 36.7 17.4
19 -1 7 -8.1 18.6
-18 -1 -7 43.3 14.1
-18 -1 7 20.1 16.1
-1 19 7 28 18.2
18 -19 -7 42 18.2
18 -19 -7 30.4 12.8
-19 1 -7 42.4 15.2
-18 19 -7 19 16.3
1 18 -7 17.8 14
19 -1 -7 13.9 18.4
-19 0 -7 60.09 14.7
19 -19 -7 49.7 14.1
0 19 -7 58.99 15.6
-19 0 7 32.9 14.5
-19 19 7 97.29 24.8
19 -19 -7 51.79 17.9
-19 19 -7 33 15.2
0 19 7 35.4 17.9
10 -20 -7 10.6 10.2
-10 20 7 6.5 19.1
-20 10 -7 15.7 18.5
10 -20 -7 16.1 16.1
10 10 7 16.8 22.5
10 10 -7 11.7 18.4
-10 20 -7 18.1 17.8
20 -10 7 4.3 18.2
10 -20 7 25.4 17.2
20 -9 7 24.2 18.1
20 -11 -7 14.3 26.3
11 9 -7 20.1 19.4
9 -20 -7 9.1 16
-20 11 -7 26.9 17.8
-11 20 7 33.1 19.9
-9 20 -7 35 17.1
9 11 7 18 21.9
11 -20 7 39.4 18
20 -11 7 33.6 19
11 9 7 16.7 21.2
9 -20 7 30.8 18.2
11 -20 -7 29.4 16.3
-11 20 -7 36.2 18.8
-9 20 7 29.4 19.6
11 -20 -7 26 14.1
-20 9 -7 14.1 18.5
9 11 -7 19.9 17.8
-12 20 7 42.7 21.3
8 -20 -7 34 16.6
20 -12 -7 -3.4 22.3
12 8 -7 36.8 19.2
8 12 7 16.3 21.8
-8 20 -7 27.7 16.8
12 -20 7 50.69 17.6
-20 12 -7 19 16.1
20 -8 7 51.09 18.6
-12 20 -7 8.2 18.2
-20 8 -7 18.3 19
20 -8 -7 17.4 20.4
8 12 -7 23.4 18.1
-8 20 7 23.3 19.1
12 8 7 6.6 20.3
12 -20 -7 19.5 13.9
20 -12 7 15.3 18.5
8 -20 7 1.3 18
-20 12 7 17.6 18.1
12 -20 -7 15.8 16.2
13 -20 7 32.7 17.2
-7 20 -7 23.6 16.4
7 -20 -7 33.7 15.5
-13 20 7 23.2 20.9
20 -13 -7 41.4 22.1
7 13 7 20.4 22.2
20 -7 7 34.1 18.4
13 7 -7 41.1 18.1
13 -20 -7 36.7 14.4
-13 20 -7 33.9 18.8
20 -7 -7 47.1 21.7
-7 20 7 64.79 20.5
7 -20 7 56.59 18.6
20 -13 7 40.1 19.9
-20 7 -7 55.49 20.6
7 13 -7 41.5 17.3
-20 13 7 14.9 16.2
13 -20 -7 51.69 18.4
20 -6 7 -5.2 16.9
20 -14 -7 5.6 10.9
6 14 7 2.2 20.5
-6 20 -7 8.3 15.5
6 -20 -7 -4.6 15
20 -14 -7 -7.8 18.6
14 -20 7 26.7 16.4
14 6 -7 -8.2 15.2
-14 20 7 -1.1 19.6
14 -20 -7 19.1 12.8
-20 6 -7 12.3 17.9
6 -20 7 13.2 15.9
20 -14 7 9.7 18.8
-14 20 -7 8.4 16.6
-6 20 7 17.3 17.7
20 -6 -7 -1.1 20
14 -20 -7 3.6 15.5
6 14 -7 8.3 15.9
5 -20 -7 42.7 16.3
-5 20 -7 62.69 17.1
5 15 7 76.89 22.7
20 -5 7 51.59 18.6
15 -20 7 68.09 17.6
-15 20 7 74.19 22.8
15 5 -7 79.19 18.2
20 -15 -7 102.49 23.8
5 15 -7 69.29 18
20 -15 7 56.99 20.1
-20 5 -7 78.49 18
15 -20 -7 70.59 13.9
-15 20 -7 73.89 18.7
-5 20 7 73.29 19.9
15 -20 -7 72.89 17.8
20 -5 -7 54.39 20.4
4 16 7 96.99 23.1
-16 20 7 170.48 28.4
-4 20 -7 125.09 19.3
16 -20 7 70.69 17.2
20 -4 7 86.99 20.5
20 -16 -7 122.49 22.9
20 -16 -7 87.29 17.9
16 4 -7 107.99 19.5
-16 20 -7 78.19 19.3
20 -4 -7 96.19 22.2
-4 20 7 108.49 20.6
4 16 -7 118.69 19.4
16 -20 -7 71.99 14.3
16 -20 -7 87.99 18.6
-20 4 -7 126.69 19.8
20 -16 7 54.69 17.8
3 17 7 22.7 18.9
20 -17 -7 27.1 18.3
-3 20 -7 5.7 14.7
17 -20 7 2.7 13.3
-17 -3 -7 6.6 11.1
-17 20 7 13.9 20.8
20 -3 7 2.1 15.8
20 -17 -7 17.3 13.9
-17 20 -7 3.9 16.2
-3 20 7 24.4 17.3
-17 -3 7 17.4 17
17 -20 -7 9 11.7
20 -3 -7 -2.9 19
3 17 -7 16.3 14.4
-20 3 -7 14.7 14.1
-2 20 -7 72.09 15.7
20 -18 -7 56.09 14.7
-18 -2 -7 72.49 14.5
20 -18 -7 121.79 21.2
2 18 7 71.79 19.5
-18 20 7 141.99 25.7
-18 -2 7 85.89 16.9
2 18 -7 60.49 14.9
18 -20 -7 44.3 12.6
-2 20 7 100.89 21
20 -2 -7 8.5 15.1
-18 20 -7 45.4 17.3
-20 2 -7 56.29 14.5
-1 20 -7 49.9 15.9
20 -19 -7 69.99 18.9
20 -19 -7 17.8 12.7
-19 20 7 50.79 22.7
1 19 7 50.69 18.9
-19 -1 -7 45.4 13.8
-20 19 7 108.49 25.3
19 -20 -7 39 13.1
-19 20 -7 7.6 12.7
1 19 -7 54.09 14.9
-19 -1 7 42.8 15.2
-1 20 7 43.2 17.1
-20 1 -7 40.2 14.5
-11 21 7 35.5 18.4
10 -21 -7 45 15.1
11 10 -7 35.2 18.1
21 -10 7 40.6 18.2
-10 21 -7 31.8 16.2
11 -21 7 21.3 15.5
10 11 7 36.6 21.8
-21 11 -7 12.2 15.8
11 -21 -7 32.5 14.7
-21 11 7 45.8 17.2
10 11 -7 25.4 17.7
-10 21 7 43.6 18.6
-21 10 -7 60.89 19.2
11 10 7 17.8 20.2
-11 21 -7 58.89 18
21 -11 7 38.5 18.8
10 -21 7 50.79 16.5
-12 21 7 57.69 18.9
21 -9 7 51.19 18.1
9 12 7 52.29 21.9
-9 21 -7 42.5 16.1
9 -21 -7 39.7 13.7
12 9 -7 30.9 16.8
12 -21 7 35.5 15.9
9 -21 7 58.29 16.1
-9 21 7 67.59 19.2
-21 12 7 30.9 16.8
-21 9 -7 40.2 18.2
12 -21 -7 48.8 15.3
12 -21 -7 26.7 10.8
9 12 -7 68.59 18.8
21 -12 7 55.49 18.8
12 9 7 32 19.4
-12 21 -7 46.7 16.7
13 8 -7 30.5 16
8 13 7 38.5 20.4
-13 21 7 21.3 18.1
-8 21 -7 34.1 15.9
8 -21 -7 33 14.2
21 -13 -7 12.5 20.9
13 -21 7 63.39 16.2
21 -8 7 57.29 18
13 -21 -7 27.2 10.7
-8 21 7 60.39 18.5
13 -21 -7 72.59 15.9
13 8 7 0.4 13.3
-21 8 -7 29.3 17.3
8 -21 7 47.8 16.1
-21 13 7 20.5 14.5
21 -13 7 40.7 18.2
-13 21 -7 65.99 17.8
8 13 -7 46.7 16.7
7 14 7 15.8 19.5
14 7 -7 2 15.8
21 -7 7 11.1 16.6
7 -21 -7 8.7 14.8
-14 21 7 4.7 17.9
-7 21 -7 14.4 14.6
14 -21 7 6.2 14.1
21 -14 -7 -3 19.9
7 -21 7 13.1 14.2
-14 21 -7 19.8 18.1
21 -7 -7 -8.3 19.1
21 -14 7 28.9 17.9
14 -21 -7 6.1 10.1
14 -21 -7 8.1 13.4
-7 21 7 15.8 16.9
-21 7 -7 11.2 16.2
7 14 -7 14.4 15.3
15 -21 7 13.5 14.4
15 6 -7 -1.6 14.7
21 -15 -7 13.5 19.9
6 -21 -7 7.8 13.3
-6 21 -7 6.5 14.4
6 15 7 24.2 18.4
-15 21 7 4.9 18.2
21 -6 7 8 16.7
21 -6 -7 16.8 20.2
21 -15 7 19.8 18
15 -21 -7 14.7 10.8
15 -21 -7 14.2 13.8
6 15 -7 25.3 15.5
-15 21 -7 18.9 16.8
-15 -6 7 50.29 19.4
-21 6 -7 29 16
-6 21 7 25.1 16.5
16 -21 7 12.6 13.8
-5 21 -7 -2.8 14.4
21 -16 -7 4.7 18.4
16 5 -7 -4.4 14.5
21 -5 7 7.5 16.8
5 16 7 12.6 17.6
-16 21 7 14 19.4
-16 21 -7 15.7 16.5
16 -21 -7 22 14.7
21 -16 7 14.3 13.4
5 16 -7 13.3 13.9
-16 -5 7 20.9 18
-5 21 7 10.3 16
-21 5 -7 15.2 15
16 -21 -7 10.3 10.4
21 -5 -7 -6.8 19.7
17 -21 7 34.2 12.6
21 -17 -7 73.89 20.6
-4 21 -7 72.59 16.7
-17 21 7 66.69 21
21 -4 7 29.8 16.2
4 17 7 52.59 18.8
-17 -4 7 87.19 18.2
-4 21 7 63.79 18.2
-17 21 -7 53.29 17.3
4 17 -7 72.99 16.4
21 -4 -7 32.2 20.5
17 -21 -7 42.1 11.6
-21 4 -7 71.29 17
3 18 7 122.49 21.7
21 -18 -7 95.89 21.9
-3 21 -7 121.29 19.3
-18 21 7 143.69 25.1
-3 21 7 96.39 19.4
-21 3 -7 102.49 18.1
18 -21 -7 70.19 13.8
3 18 -7 103.99 17.5
-18 -3 7 136.09 19.7
-18 21 -7 76.59 18.8
11 -22 -7 52.39 13.9
-11 22 7 63.69 18.4
-22 11 7 46.6 16.1
11 11 7 66.79 18.9
11 11 -7 91.69 17.9
11 -22 7 65.59 15.4
-11 22 -7 61.19 16.9
22 -11 7 74.69 19.1
12 10 -7 28.7 15.3
10 -22 -7 23 13.8
-22 10 7 -5.9 14.8
22 -10 7 27.2 16.4
-10 22 -7 29.9 16.3
-12 22 7 24.9 17.5
12 -22 7 24.6 14.8
10 12 7 18.2 17.9
10 -22 7 26.7 14.1
-22 12 7 10.5 13.6
12 10 7 3.9 11.7
-10 22 7 25.3 17.1
22 -12 7 22.8 16.6
-22 10 -7 16.5 14.4
-12 22 -7 27.7 15.2
12 -22 -7 29.7 13.5
10 12 -7 34.2 16.7
9 -22 -7 47.8 14.8
9 13 7 63.49 20.4
22 -9 7 55.59 18.4
13 9 -7 51.59 16.2
13 -22 7 48.2 15.1
-13 22 7 35.8 17.3
-9 22 -7 71.09 17.4
-22 9 -7 33 16.3
13 -22 -7 11 8.2
22 -13 7 16.2 16.9
9 13 -7 44.6 17.3
9 -22 7 29.8 13.4
-9 22 7 23.9 16.9
13 -22 -7 25.2 12.9
-22 13 7 -1.6 11.2
-13 -9 7 41.1 18.5
-13 22 -7 25.6 16.6
-8 22 -7 56.09 16.9
14 8 -7 31.8 17.1
22 -8 7 44.1 18.2
8 -22 -7 43.7 14.3
-14 22 7 44.5 18.2
8 14 7 58.19 19.4
14 -22 7 66.39 15.9
8 14 -7 55.39 16.5
8 -22 7 8.6 10.8
-8 22 7 26.5 16.4
-14 22 -7 31.1 16.7
14 -22 -7 22.2 9.8
-14 -8 7 64.39 19.9
-22 8 -7 22 15.7
14 -22 -7 44.7 15.7
22 -14 7 35.8 17.3
22 -7 7 31.5 18.6
15 -22 7 15.9 14.2
22 -15 -7 3.5 17.5
-15 22 7 9.3 17.8
7 15 7 24.3 18.7
-7 22 -7 31.6 15.6
7 -22 -7 13.6 9.3
15 7 -7 15.4 16.1
-15 22 -7 19.3 16.5
-22 7 -7 20.5 16
-7 22 7 18.2 16.5
-15 -7 7 24.7 20.4
22 -15 7 8.2 16.9
15 -22 -7 11.1 14.7
15 -22 -7 13.7 9.1
7 15 -7 27 16.4
16 -22 7 74.69 15.7
22 -16 -7 63.19 21.4
22 -6 7 76.49 19.5
-6 22 -7 92.19 19.2
6 16 7 72.39 21
-16 22 7 67.89 20.7
-6 22 7 98.09 19.4
6 16 -7 86.39 17.6
-22 6 -7 89.79 18.9
16 -22 -7 52.89 15.7
-16 22 -7 94.99 19.3
-16 -6 7 112.59 20.7
22 -17 -7 18 21.5
5 17 7 24.4 19.7
-17 22 7 8.8 19.7
17 -22 -7 12.6 11.4
5 17 -7 14.1 16.2
22 -5 -7 1.1 13.4
-5 22 7 29.9 20
12 11 -7 11 16.4
23 -11 7 10.5 19.6
-11 23 -7 28.7 17.2
-23 11 7 -3.9 9.3
-12 23 7 27.5 18.3
11 -23 -7 27.4 14.8
12 -23 7 11.4 14.3
-11 23 7 22.4 18.9
11 12 -7 29.1 16.7
12 -23 -7 22.4 14.8
11 -23 7 27.2 14.8
23 -12 7 19.5 21
-12 23 -7 42.1 18.1
13 -23 7 92.79 17.1
13 10 -7 66.49 18.8
23 -10 7 58.49 18.6
10 -23 -7 79.99 16.3
-13 23 7 84.19 20.6
10 -23 7 77.39 15.9
10 13 -7 131.99 19.3
13 -23 -7 78.99 17.3
23 -13 7 120.49 22.4
-10 23 7 140.69 22.8
0 0 8 13.8 28.9
0 0 -8 13.7 23.5
0 0 8 20.5 32.1
0 -1 8 174.08 41
0 1 8 205.48 40.9
-1 0 -8 252.77 38.4
0 1 -8 254.87 37.3
-1 0 -8 257.77 36.9
0 -1 -8 153.68 27.7
1 -1 -8 129.69 25.4
0 -1 8 189.18 38.6
1 0 -8 181.68 33.7
1 0 8 183.58 40.4
-1 0 8 205.28 41.7
-1 1 8 215.08 41.6
1 0 8 258.57 44.6
-1 1 -8 252.37 38.7
-1 1 8 169.18 37.6
-1 0 8 176.68 38.6
1 -1 8 217.98 45.4
1 -1 8 157.28 37.5
0 1 8 140.19 36.1
2 -1 8 198.48 43.2
-2 1 -8 240.98 39.7
2 -1 -8 136.39 26.5
1 -2 8 181.48 42.9
-1 -1 -8 181.48 31.2
-1 2 8 196.98 41.6
-1 2 8 165.28 37.1
2 -1 8 164.98 36.9
-2 1 8 202.58 41.7
1 1 -8 220.58 36.2
-1 -1 8 188.58 41.4
1 1 8 144.59 35.7
1 1 8 156.78 41.6
-2 1 8 172.38 39.8
-1 2 -8 241.38 38.1
1 -2 -8 261.27 37.9
-1 -1 8 132.59 38.3
-2 2 -8 73.69 29.5
0 -2 8 9.2 36.6
-2 2 8 19.9 32.6
0 2 8 31.3 29
-2 2 8 11.4 30.3
-2 0 -8 9.4 22.5
0 -2 -8 42.8 18.5
2 0 -8 48.1 23.7
2 -2 8 18.6 28.8
-2 0 -8 50.19 19.3
2 0 8 39.7 31.8
2 0 8 26.4 29.5
-2 0 8 32.3 32
-2 0 -8 24.3 29.8
0 -2 8 31 32.3
-2 0 8 44.1 32.4
0 2 -8 39.5 25.3
-2 2 8 29.1 31
0 2 8 13 30.5
-2 -1 -8 23.6 28.1
-1 3 -8 81.99 27.3
1 2 8 27.5 26.1
-3 1 8 52.39 32.2
-2 3 8 39 27.4
3 -1 8 26.6 28.5
-2 3 8 26.5 33.1
3 -1 8 28.5 31.6
1 -3 -8 63.29 21.1
-1 -2 8 40.3 30.7
-3 1 8 27.4 30.8
-2 -1 -8 69.89 20.4
1 2 8 37.4 30.9
2 -3 8 40.5 31.1
-1 -2 8 46.7 35.1
-2 -1 -8 58.29 25.6
-2 3 8 38.9 32.5
2 1 -8 85.39 26.9
-3 2 -8 67.59 25.4
-3 1 -8 0.1 27.3
-1 -2 -8 73.99 23.1
-1 3 8 31.4 32.5
-3 1 -8 61.49 20.8
3 -1 -8 40.7 22.2
2 1 8 33.6 28.9
2 1 8 32.3 29.9
-1 3 8 24 28.1
-1 -2 -8 -1.4 18.9
1 2 -8 75.69 27.5
2 -3 -8 61.19 21.1
-2 -1 8 48.6 33.9
-3 2 8 45.9 34.8
1 -3 8 67.89 38.2
-2 -1 8 25.2 31.5
3 -2 8 18.1 28.1
-3 1 -8 56.69 26.5
-3 2 8 31.8 32.5
-2 3 -8 92.99 28.2
-3 3 8 27 32.3
3 -3 8 18.5 30.8
3 0 8 20.4 29.6
-3 3 8 20.5 38.2
0 3 -8 96.09 27.7
-3 3 -8 101.29 28.5
-3 0 -8 0.9 31.5
-3 0 -8 75.79 20.7
-3 3 8 -5 31.2
-3 0 8 13.1 28.4
3 0 8 24.6 27.5
-3 0 8 36.7 32.6
0 -3 8 40.2 34.1
0 3 8 44.3 31.8
0 3 8 23 26.6
-2 4 8 137.19 34.8
-2 4 8 29.6 33.9
-4 2 8 1.1 34.4
4 -2 8 14.3 28.1
4 -2 8 0.7 29.7
-2 -2 8 74.19 35.9
2 2 8 85.09 29.7
-4 2 8 1.1 35.1
2 2 8 -3.1 28.1
-2 -2 8 16.7 34.3
-2 -2 -8 38.7 27.2
2 -4 8 16 32.3
-3 4 8 44.4 28.5
-1 -3 8 88.49 39.3
1 3 8 67.59 27.8
-3 -1 -8 9.5 28.4
-3 4 8 22.9 44.9
4 -1 8 18.6 31.1
-4 1 8 -0.5 34.6
1 3 8 5.9 31.4
3 -4 8 -0.2 30.6
4 -1 8 -5.7 30.6
-3 4 8 -2.9 32.2
3 1 8 15.9 26.7
1 -4 8 13 32.3
3 -4 -8 149.59 24.9
3 1 8 6.5 29.9
-4 1 -8 167.88 31.3
4 -3 8 2 34.1
-1 4 8 27.4 29.2
-4 1 -8 161.68 29.6
-4 1 -8 6 35.4
-3 -1 8 18.3 31.9
-1 4 8 19 27.3
0 -4 -8 100.79 24.3
-4 4 8 -2.6 30.8
-4 4 -8 146.19 32.1
-4 0 -8 128.09 31.3
0 -4 8 -3 31.7
-4 0 -8 72.59 21.2
0 4 -8 127.99 30.9
0 4 8 -1.7 30.2
-4 0 -8 1.3 30.4
-5 3 -8 136.49 31
-2 5 -8 134.29 30.5
-3 -2 -8 82.59 21.1
-3 -2 -8 69.89 25.3
-3 5 8 -0.8 32.1
-2 -3 8 3.4 36.2
-3 -2 -8 7.9 32.3
2 -5 -8 106.49 24.9
3 -5 -8 111.49 24.1
-3 5 -8 154.48 31.5
-2 -3 -8 131.29 26.4
-5 2 -8 140.19 32.9
-5 2 -8 113.79 23.6
-4 -1 -8 177.78 34.9
-5 4 -8 197.78 34.1
-1 5 -8 229.88 34.5
-4 -1 -8 194.78 37
1 -5 -8 142.39 26.3
-5 1 -8 215.38 38.2
-4 5 -8 316.87 41.3
-5 1 -8 210.68 38.4
-1 -4 -8 207.78 40.3
4 -5 -8 224.78 38.7
1 4 -8 336.27 43.7
-5 5 -8 393.26 45.7
0 -5 -8 393.86 45.8
0 5 -8 365.06 45.8
-5 0 -8 320.47 43.5
-5 0 -8 377.96 50.19
-3 6 -8 442.16 47
3 -6 -8 529.25 52.99
-6 3 -8 496.95 52.29
-3 -3 -8 485.25 49.99
-2 6 -8 580.74 52.99
2 -6 -8 567.84 55.59
-4 -2 -8 463.85 49.1
-4 -2 -8 457.25 53.69
-6 4 -8 591.34 53.69
-4 6 -8 471.55 46.9
-2 -4 -8 509.25 49.1
4 -6 -8 432.06 47.9
-6 2 -8 499.65 52.29
-6 2 -8 493.85 48.2
2 4 -8 357.16 41.5
-6 5 -8 101.49 28.1
-1 -5 8 105.79 24
-1 6 -8 25.6 22.1
-1 6 -8 85.99 28
-5 -1 -8 95.09 31.1
1 -6 -8 88.29 24.2
-5 -1 -8 69.99 22.5
1 5 -8 28.7 20.2
-1 -5 -8 42.1 19.3
-5 6 -8 78.49 28.7
5 -6 -8 31.8 19.9
-6 1 -8 47.4 29.5
-6 1 -8 33.2 19.4
0 6 -8 31.4 22.6
-6 0 -8 11 20.4
0 -6 -8 12.6 20.1
0 -6 8 22 19.1
-6 6 -8 11.5 20.5
-6 0 -8 1.4 28.3
0 6 -8 12.6 26.2
-7 4 -8 91.89 28.3
-4 -3 -8 73.19 22.8
-3 -4 8 78.59 21.6
4 3 -8 66.79 21.8
-3 7 -8 11.4 22.2
-3 7 -8 69.79 23.5
3 -7 -8 61.19 24.3
-3 -4 -8 81.09 22.6
-7 3 -8 107.89 30.3
4 -7 -8 74.09 23.9
-4 -3 8 86.59 23.5
-4 7 -8 76.59 25.4
3 4 -8 97.89 24.9
-2 -5 8 253.97 40.8
-5 -2 -8 224.88 40
-5 -2 -8 242.08 40.3
-2 7 -8 228.08 40.4
-7 5 -8 268.67 40
-2 7 -8 196.48 35.8
2 -7 -8 243.78 42.1
5 -7 -8 247.28 40.1
2 -7 8 325.47 43.7
-7 2 -8 273.47 39
-5 -2 8 305.47 42.3
2 5 -8 212.28 37.9
-5 7 -8 239.68 40.9
-2 -5 -8 267.87 39.4
-7 2 -8 310.57 46.1
1 -7 -8 114.69 27
-1 -6 8 184.88 29.4
-6 -1 -8 117.49 26.1
-6 -1 -8 163.08 38.1
-1 7 -8 192.58 36.9
-7 6 -8 139.19 28.8
-1 7 -8 77.49 29.1
-1 -6 -8 230.48 34.6
-7 1 -8 236.58 41.3
1 6 -8 135.59 30
-7 1 -8 138.49 26.6
-6 7 -8 200.98 32.7
1 -7 8 209.58 40.3
-6 -1 8 184.98 29.1
-7 7 -8 57.59 23.7
0 -7 -8 44.3 24.4
-7 0 -8 71.49 34.6
0 -7 8 72.29 24
0 7 -8 45.5 27
-7 0 -8 62.59 23.2
-7 0 8 43.1 22.7
4 4 -8 474.05 49.8
-8 4 -8 594.04 56.49
4 -8 8 545.05 54.29
4 -8 -8 490.35 57.49
-4 8 -8 600.34 54.39
-4 8 -8 480.15 55.49
-4 -4 8 645.64 57.79
-4 -4 -8 617.64 58.19
3 -8 -8 132.49 28.9
-3 8 -8 213.18 34
-5 -3 -8 70.19 29.3
-3 8 -8 155.48 34.5
5 -8 8 126.49 24.2
5 3 -8 142.69 27.1
-5 -3 -8 188.98 31.2
-5 -3 8 170.48 29.5
-5 8 -8 196.68 35.5
-3 -5 -8 181.18 33.1
5 -8 -8 109.49 26.9
-8 3 -8 178.78 37.4
3 -8 8 176.38 29.1
-2 8 -8 93.79 29.7
-2 8 -8 79.09 29.9
-8 6 -8 147.79 32
-2 -6 8 97.09 26.8
-6 -2 -8 70.79 32.7
-6 -2 -8 73.49 23.8
2 -8 -8 102.19 28.5
-8 2 -8 38.8 19.7
2 6 -8 23.5 23.4
2 -8 8 45.3 21.4
-6 -2 8 64.29 24.5
-6 8 -8 75.89 27.6
-2 -6 -8 94.29 27.8
-8 2 -8 57.19 28.1
-8 7 -8 67.99 27.5
-7 -1 -8 11.7 29.3
-7 -1 -8 68.89 24.1
-1 -7 8 45.4 23
-1 8 -8 16.4 27.3
1 -8 -8 51.59 25.2
-7 -1 8 47.2 24.1
-8 1 -8 48.1 28.9
-1 -7 -8 56.49 26.2
1 -8 8 42.2 21.7
1 7 -8 52.49 28.5
-8 1 -8 29.8 20.9
-7 8 -8 68.79 25.8
-8 0 -8 13.7 20.1
0 -8 -8 9 25.4
-8 8 -8 51.39 28.2
0 8 -8 20.2 28.3
-8 0 -8 15.8 33.3
0 -8 8 7.7 22.2
-8 0 8 -1.2 22.3
-4 9 -8 236.08 40.6
-5 -4 -8 161.78 31
-4 9 -8 216.38 39
-9 5 -8 228.08 41.3
-4 -5 8 251.97 35.5
5 4 -8 142.79 29.6
4 -9 -8 177.68 33.3
4 5 -8 195.48 32.7
-5 9 -8 211.58 37.1
-5 9 -8 179.08 38.2
5 -9 -8 157.58 31.1
-9 4 -8 247.18 43.4
-5 -4 8 210.98 33.8
-4 -5 -8 256.37 46.8
-3 9 -8 98.69 30.9
-3 -6 8 111.09 28.9
-3 9 -8 87.69 33.2
-6 -3 -8 73.99 31.5
3 -9 -8 63.39 27.2
-6 -3 -8 61.89 23.5
-9 6 -8 127.29 32
6 -9 8 18.9 19
3 -9 8 85.19 25.8
-6 -3 8 113.19 29.1
-6 9 -8 68.79 30
-6 9 -8 119.09 31.7
-3 -6 -8 92.29 29.8
3 6 -8 81.49 27.4
-9 3 -8 121.19 33.4
-2 9 -8 112.29 34.9
2 -9 -8 112.59 31.1
-7 -2 -8 119.39 28.4
-2 9 -8 176.78 36.7
-7 -2 -8 105.89 34.7
-9 7 -8 134.59 32.2
-2 -7 8 139.49 30.8
-7 9 -8 160.18 34.9
2 7 -8 115.39 32.1
-9 2 -8 105.39 34.1
-2 -7 -8 132.39 31.6
2 -9 8 120.19 29.4
-7 -2 8 67.59 27.3
-9 8 -8 288.17 42
-8 -1 -8 285.37 46.4
1 -9 -8 263.87 49.7
-8 -1 -8 204.78 42.3
-1 9 -8 177.68 38.7
-1 -8 8 335.77 41.7
1 -9 8 268.47 39.2
-1 -8 -8 290.87 44.1
1 8 -8 278.97 44.6
-9 1 -8 287.47 52.39
-8 9 -8 250.77 44.5
0 9 -8 142.59 36.2
-9 0 -8 93.79 25.5
-9 9 -8 176.58 35.6
-9 0 -8 202.68 43.5
0 -9 -8 108.09 31
0 -9 8 143.79 32.5
5 -10 -8 280.07 49.2
-5 10 -8 193.78 40.3
5 5 -8 294.47 44.2
-5 -5 8 284.47 50.49
-5 -5 -8 388.26 53.29
-5 10 -8 297.87 43.4
-10 5 -8 356.86 48.3
-4 10 -8 120.29 30.4
-6 -4 -8 118.59 31.2
-4 10 -8 90.19 34.3
-4 -6 8 137.19 32.6
-10 6 -8 200.28 37.1
4 -10 -8 91.19 30.1
-6 -4 8 62.39 26.6
-10 4 -8 173.48 39
-4 -6 -8 172.28 36
4 -10 8 41.9 25.5
-6 10 -8 108.49 28.2
-6 10 -8 104.49 33.2
4 6 -8 107.59 30.3
-3 10 -8 28.4 25.8
-7 -3 -8 37.5 30.4
-3 -7 8 27.8 26.6
-3 10 -8 23.1 29.5
-10 7 -8 45.2 28.4
-7 -3 -8 27.3 24
3 -10 -8 30.8 25.7
-10 3 8 -2.3 17.3
3 -10 8 0.5 23.7
-7 10 -8 28.3 24.6
-7 -3 8 -3.6 25.7
-7 10 -8 -0.7 28.7
-10 3 -8 75.39 34.2
3 7 -8 25.1 28
-3 -7 -8 24 25.9
-8 -2 -8 112.79 29.5
-10 2 8 95.39 27.4
-2 -8 8 117.79 31.2
-2 10 -8 87.59 34
2 -10 -8 80.99 29.4
-10 8 -8 129.09 32.6
-8 -2 -8 121.19 37.2
-8 10 -8 28.4 28.3
2 8 -8 108.69 32.7
2 -10 8 81.89 28.2
-8 -2 8 98.59 31.1
-10 2 -8 161.68 41.6
-8 10 -8 99.09 30.2
-2 -8 -8 142.79 35.8
-10 1 8 155.08 31.4
-9 -1 -8 100.99 28.6
1 -10 -8 129.89 33.3
-1 -9 8 168.08 34.8
-9 -1 -8 99.49 38.2
-1 10 -8 98.69 35.5
-10 9 -8 140.79 33.2
-9 10 -8 148.59 36.8
-1 -9 -8 148.69 37.2
-9 -1 8 143.39 31.7
1 -10 8 88.29 30.5
-10 1 -8 141.29 39.6
1 9 -8 181.78 40.5
0 -10 -8 319.47 57.19
0 10 -8 333.87 58.09
-10 10 -8 319.87 48.1
-10 0 -8 355.66 55.39
-10 0 8 303.17 43.9
0 -10 8 274.17 43.6
-5 -6 8 -0.5 24.5
-5 11 -8 2.8 30
5 -11 -8 13.4 24.2
-5 11 -8 15.5 26.5
-6 -5 -8 3.6 26.1
-11 5 8 3.8 20.6
-11 6 -8 33.6 29.7
-11 5 -8 43.7 31
-6 11 -8 8.7 23.6
-6 -5 8 4.2 26.1
5 6 -8 43.2 28.5
-6 11 -8 32.7 31.3
5 -11 8 -40.9 21.9
-5 -6 -8 22 27.2
-7 -4 -8 129.49 33.2
-4 11 -8 91.39 31
-4 -7 8 118.89 32.7
-11 4 8 104.89 28.1
4 -11 -8 112.79 32.1
-11 7 -8 205.08 39
-4 11 -8 135.99 38.7
4 7 -8 128.19 34.4
-11 4 -8 202.98 41.2
-7 11 -8 157.48 34.2
-7 11 -8 128.49 35.8
-4 -7 -8 134.59 35.8
-11 3 8 -4.6 18.5
-3 -8 8 47.8 28.5
-8 -3 -8 38.5 31.4
-3 11 -8 77.99 37.1
3 -11 -8 73.29 30.2
-8 -3 -8 33 24.2
-11 8 -8 48.8 26.7
-8 11 -8 45.5 27.5
-8 -3 8 20.7 28.7
-11 3 -8 -3.8 16.2
-8 11 -8 37.3 30.2
-11 3 -8 40.5 32.6
8 -11 -8 7.2 16.4
3 -11 8 2.4 24.9
-3 -8 -8 79.89 32.2
3 8 -8 35.8 29
-9 -2 -8 184.48 42.1
-2 11 -8 225.38 44.6
-2 -9 8 128.79 34.1
-11 9 -8 213.08 38.1
-9 -2 -8 104.79 29.4
11 -2 8 152.98 22.2
-11 2 8 150.38 31.3
2 -11 -8 102.99 31.8
-9 -2 8 41.2 30.9
-9 11 -8 86.69 31.4
9 -11 -8 116.59 25.4
-9 -2 8 212.38 36.6
2 -11 8 135.19 34.8
-9 11 -8 181.98 36.9
2 9 -8 234.08 42.6
-1 11 -8 359.06 57.39
11 -1 8 311.77 35.4
-10 -1 -8 227.18 46.6
-11 1 8 333.27 44.5
-1 -10 8 269.87 43.8
11 -10 -8 295.37 36.3
1 -11 -8 388.16 60.49
-11 10 -8 319.87 47.9
10 -11 -8 230.78 33.2
-10 11 -8 219.98 39.9
-11 1 -8 248.58 46.5
-1 -10 -8 179.98 36.8
10 1 8 210.78 28.2
10 -11 -8 194.48 30.6
-10 -1 8 251.87 43.2
1 10 -8 320.57 52.89
0 -11 8 -13.3 25.8
-11 0 8 13.1 26.1
11 0 8 13.4 17.5
0 -11 -8 -0.8 28
0 11 -8 16.8 18.4
0 11 -8 14 34.7
11 -11 -8 -4.5 16.8
-11 11 -8 -7.7 29.8
11 -11 -8 10.1 25.4
-11 0 -8 -4.1 15.1
-11 0 -8 16.9 37.3
-12 6 -8 25.2 28.3
6 6 -8 16.2 20.2
6 -12 8 29.3 22
-12 6 8 3.3 22.5
6 -12 -8 5.5 25.8
-6 12 -8 23.8 31
-6 -6 8 -10.7 25.6
-6 12 -8 14.6 26.7
12 -6 8 -4 12.9
-6 -6 -8 12.8 27.6
-12 6 -8 20.4 20.4
5 -12 -8 150.48 30.8
-5 -7 8 111.09 33.8
-5 12 -8 149.39 34.9
-12 5 8 114.69 29.7
7 -12 8 147.69 27
-7 -5 -8 92.99 31
7 5 -8 148.79 27.5
12 -5 8 122.49 19.8
-12 7 -8 159.18 24.9
-5 12 -8 149.88 38.8
-12 7 -8 204.98 38.9
5 7 -8 157.88 26.5
-5 -7 -8 130.19 34.6
5 7 -8 137.59 34
-7 -5 8 72.39 32.6
-12 5 -8 212.38 42.9
7 -12 -8 153.78 32.9
-7 12 -8 99.99 34.4
-12 5 -8 78.89 21.8
-7 12 -8 135.39 34.1
8 -12 8 84.99 23.4
8 4 -8 101.19 24.3
-12 8 -8 89.79 20.1
-8 -4 -8 61.49 28.8
-12 8 -8 77.29 29.2
12 -4 8 107.79 20.4
4 -12 -8 82.79 31.3
-4 -8 8 36.5 26.8
-12 4 8 115.29 30.5
-4 12 -8 120.29 38.3
4 -12 -8 92.69 25.6
8 -12 -8 62.59 27.7
-12 4 -8 116.69 37.8
-4 -8 -8 96.69 35.3
4 8 -8 63.09 21.4
-8 -4 8 13.2 28.2
-12 4 -8 83.89 22.9
4 8 -8 94.39 33.3
8 -12 -8 68.09 25.1
-8 12 -8 81.99 33.2
-8 12 -8 83.39 29.7
3 -12 -8 9 25.4
12 -9 -8 9.6 15.7
9 -12 8 23.2 22.4
-3 -9 8 -5.7 23.2
-9 -3 -8 5.9 32.2
-3 12 -8 13.4 33.5
-12 3 8 -4 20.5
-12 9 -8 -1.3 26.9
-12 9 -8 3.3 15.5
9 3 -8 11.2 20.9
12 -3 8 5.8 17.9
3 -12 -8 5.6 16.7
-9 -3 -8 8.3 26.6
-9 -3 8 24.9 26.8
-9 12 -8 3 28.4
9 -12 -8 -0.2 17.8
-12 3 -8 -5.9 20.3
-9 12 -8 14.3 26.8
-12 3 -8 -0.4 34
9 3 8 -1.5 12.5
3 9 -8 1.2 16.5
-9 -3 8 -20.9 26.6
-3 -9 -8 12.8 27.2
9 -12 -8 3.3 25.2
3 -12 8 -36.2 24.7
3 9 -8 9.4 20.9
9 -12 -8 -0.4 21.8
3 9 -8 13 32.1
12 -2 8 83.29 20.3
-2 12 -8 91.69 37.1
12 -10 -8 62.69 20.1
-2 12 -8 42.1 19.3
10 -12 8 77.99 22.8
-10 -2 -8 53.19 34.8
-12 2 8 64.69 27.6
-12 10 -8 81.19 32.8
-10 -2 -8 22.4 23.1
2 -12 -8 73.69 30.6
-2 -10 8 36.3 28.6
12 -10 -8 27.5 19.3
2 -12 8 22 28
-10 12 -8 53.69 30.9
2 10 -8 45.2 20.8
-10 12 -8 20.8 28.6
10 -12 -8 1.4 17.4
-10 -2 8 99.39 31.7
2 10 -8 88.29 36.7
10 -12 -8 53.09 23.4
2 10 -8 33.7 22.1
-2 -10 -8 53.99 30.8
10 -12 -8 64.79 26.1
-12 2 -8 82.89 39.4
-12 2 -8 81.29 26.8
10 2 8 77.39 19.2
12 -11 -8 98.19 23.6
11 -12 8 97.59 22.3
-11 -1 -8 90.39 39.1
1 -12 -8 50.39 29.7
12 -11 -8 72.49 27
11 1 -8 69.09 17.8
-1 12 -8 101.09 36.5
-12 1 8 75.39 28.2
-1 -11 8 36.3 29.4
-12 11 -8 104.39 34.4
12 -1 8 92.99 21
-1 12 -8 65.29 25.3
-11 -1 8 90.49 30.1
-1 -11 -8 84.89 32.5
11 -12 -8 92.09 24.2
-11 12 -8 78.39 33
-12 1 -8 132.29 44.7
1 11 -8 96.09 39.2
1 11 -8 89.59 25.9
1 -12 8 35.1 28.6
11 1 8 103.29 21.9
11 -12 -8 98.39 28.4
-12 1 -8 107.09 27.8
0 12 8 -0.5 16.4
0 -12 8 25.3 29.5
-12 0 8 1.3 26.6
0 12 -8 -7.2 22.6
12 -12 -8 5.4 26.8
12 0 8 4.6 17.2
-12 12 -8 17.2 31.4
-12 0 -8 -9.4 37.2
12 -12 -8 -4 17.6
12 0 -8 10.2 18.4
0 12 -8 6 33.8
0 -12 -8 -3.4 26.9
-12 0 -8 13.8 22.3
0 12 -8 1.2 14.3
-7 13 8 6.3 16.8
-7 -6 -8 22.4 26.9
13 -7 -8 4.5 11.7
7 6 -8 29.4 22.5
-13 7 -8 20.4 21
6 -13 -8 7.4 27.1
-6 -7 8 3.6 28.5
-13 7 -8 38.1 32.5
7 -13 8 32.8 23.7
13 -6 8 46.3 18.7
-6 13 -8 27.4 33.6
-13 6 8 1.9 22.9
7 6 -8 22.5 21.1
6 7 -8 7.2 23.1
-13 6 -8 -10.9 21.8
6 7 -8 1.5 20.1
6 -13 8 13.2 21.7
-6 -7 -8 0.1 29.2
-7 -6 8 -1 28.9
-7 13 -8 -3.8 29.5
-6 13 8 10.7 16.7
13 -7 8 18.2 17.3
7 -13 -8 -11.2 26.9
7 6 8 -3 20.8
-13 6 -8 15.1 30.3
-7 13 -8 18 27.9
13 -8 -8 23.5 12.8
8 5 -8 49.2 25
-5 -8 8 14.2 27
-5 13 -8 36 33
13 -5 8 46.3 19.4
8 5 -8 37.2 19.8
5 -13 -8 47 27.8
-13 5 8 62.19 30.2
-13 8 -8 40 20.9
-8 -5 -8 49.4 30.1
-13 8 -8 52.99 32
8 -13 8 22.9 22.3
-5 13 -8 -2.6 16.4
8 -13 -8 -0.6 13.5
5 8 -8 17.4 20.5
-13 5 -8 59.89 38.1
-13 5 -8 34.4 21.9
13 -8 8 0 13.1
5 8 -8 45.9 23.4
-8 -5 8 64.09 33.5
-8 13 -8 32 29.3
5 8 -8 33.4 32.7
-5 -8 -8 28.4 31
-5 13 8 5.3 16.8
8 5 8 0.5 11.6
8 -13 -8 1.9 28.4
-8 13 -8 26.6 29.7
5 -13 8 13 19.7
-8 -5 8 4 28.8
5 -13 8 40.6 23.7
13 -9 -8 171.78 28.1
-9 -4 -8 92.19 31.8
13 -4 8 162.98 24
9 -13 8 167.68 29.5
-13 9 -8 239.48 29.1
4 -13 -8 239.58 32.5
-13 4 8 125.89 32.8
-4 -9 8 175.78 38.1
-4 13 -8 178.78 28.1
9 4 -8 135.49 24.9
-4 13 -8 268.27 48.2
-13 9 -8 142.49 34.9
4 9 -8 199.88 42.7
-9 13 -8 116.19 32.8
-4 -9 -8 108.29 32.8
-9 13 -8 112.99 33.3
-9 -4 8 98.69 33.3
-13 4 -8 196.98 29.5
9 -13 -8 182.18 27.4
9 4 8 90.59 18.4
4 -13 8 124.29 23
4 -13 8 69.99 28.2
9 -13 -8 180.68 35.8
4 9 -8 174.58 28.6
-3 13 -8 169.88 29.7
-13 3 8 217.68 40
10 3 -8 253.97 35.2
-13 10 -8 281.17 45.5
3 -13 -8 265.17 36.4
3 -13 -8 163.38 35.6
-3 13 -8 227.48 45.2
-13 10 -8 197.58 27.5
13 -10 -8 232.78 27.9
13 -10 -8 161.28 29.5
10 -13 8 204.48 30.8
-3 -10 8 193.38 39.9
13 -3 8 264.67 33.9
-10 13 -8 50.09 28.2
-10 13 -8 79.59 32.4
3 10 -8 186.18 29.3
10 -13 -8 190.28 31.3
3 10 -8 247.38 46.5
3 10 -8 134.19 26
-3 -10 -8 96.59 31.9
-13 3 -8 186.38 30.5
10 -13 -8 91.69 23.9
-10 -3 8 196.58 38.6
-13 3 -8 140.49 41.1
-10 -3 8 19.4 37
10 -13 -8 196.68 34.4
-3 13 8 126.19 25
10 3 8 123.09 21.7
13 -11 -8 80.99 21.6
13 -2 8 67.69 20.5
11 2 -8 98.69 23.9
11 -13 8 88.59 24.8
2 -13 -8 71.19 20.2
-2 -11 8 44.8 28.4
2 -13 -8 67.99 29.7
-13 11 -8 63.39 19.9
-13 2 8 7.2 23.5
-13 11 -8 92.59 34.3
-2 13 -8 87.59 25.7
13 -11 -8 52.69 27.4
-2 13 -8 108.09 38.4
-11 -2 -8 53.89 35.5
11 -13 -8 94.59 27.6
2 -13 8 60.29 29.6
-2 -11 -8 112.19 33.4
2 11 -8 127.29 28.9
11 2 8 72.19 20.6
-11 -2 8 98.29 30.8
-11 13 -8 -4.2 29.6
-2 13 8 68.39 24.2
2 11 -8 94.49 23.8
11 -13 -8 93.59 27.2
11 -13 -8 78.49 23.8
2 11 -8 152.28 41.5
-13 2 -8 143.89 30.3
-13 2 -8 121.99 44.3
13 -2 -8 82.89 17.1
1 12 8 76.19 25.2
13 -12 -8 157.98 32
-1 13 -8 95.29 26.9
-1 13 -8 123.49 39.9
-1 -12 8 49.3 28.8
-13 12 -8 77.39 32.6
12 1 -8 141.49 23.9
13 -1 8 144.79 24.2
-13 1 8 74.59 28.4
13 -12 -8 113.09 24.5
-12 -1 -8 78.69 38.8
1 -13 -8 73.99 30.3
-12 -1 -8 120.99 25
12 -13 8 118.99 25.6
-1 13 8 79.69 25.3
1 12 -8 74.09 24.9
13 -1 -8 79.09 20.8
-1 -12 -8 56.99 28.4
12 1 8 86.99 20.3
-12 -1 8 48.1 28.3
12 -13 -8 12.8 17.2
12 -13 -8 46.7 20.6
-12 13 -8 -5.1 31
1 12 -8 77.59 37.6
-13 1 -8 84.29 26.9
12 -13 -8 125.49 30.5
13 -12 8 21.4 17.7
1 -13 8 32.6 28.8
1 12 -8 46.4 19.6
-13 1 -8 63.79 41.1
13 -13 -8 155.08 27.3
0 -13 -8 107.69 31.1
-13 0 8 75.49 29.6
0 13 -8 170.88 29.2
13 -13 -8 162.08 30
-13 0 -8 143.59 46.8
-13 0 -8 113.59 26.8
13 -13 8 128.09 24.5
13 0 8 163.88 24.6
0 13 8 142.89 29.1
0 13 -8 118.49 39.1
0 -13 8 148.19 36.2
13 0 -8 187.38 25.2
7 -14 -8 -19.3 25.8
-7 14 8 20.7 25.7
-14 7 -8 13.7 22.4
14 -7 -8 5.4 13.9
-7 14 -8 12.6 31.5
-7 14 -8 24.3 22.6
7 7 -8 -12.2 22.4
7 7 -8 22.7 24.8
-14 7 -8 21.6 30.9
7 7 8 -2.1 17.4
14 -7 8 7.3 18.8
-7 -7 -8 17.4 28
-7 -7 8 -5.8 28.5
7 -14 8 -2.5 21.7
-7 -7 8 5.7 30.2
14 -6 8 56.29 20.1
-14 8 -8 43.9 32.8
8 -14 8 36.4 23.1
-6 -8 8 3.1 27.5
-8 -6 -8 26.7 29.1
8 6 -8 50.39 24.3
-8 14 8 21.8 26.4
-6 14 -8 31.6 25.3
-14 8 -8 29.1 21.3
6 -14 -8 24.9 25.3
14 -8 -8 1.3 15.6
-6 14 -8 0.6 31.5
8 6 -8 49.3 23.3
-14 6 8 -0.1 25.7
14 -8 -8 22.4 14.6
-14 6 -8 12.6 33.2
8 -14 -8 -4.2 15.5
-8 -6 8 22.2 30
8 -14 -8 12.2 27.2
6 8 -8 25.5 24.1
-14 6 -8 5.7 20.2
-8 14 -8 21.7 32.3
-6 14 8 7.7 24.1
-8 14 -8 8.6 18.5
6 -14 8 24 23.6
14 -8 8 29.7 20.6
-8 -6 8 -9.7 28.4
6 8 -8 4.2 21
8 6 8 -0.8 13.1
-6 -8 -8 16.1 27.4
9 5 -8 249.88 36.7
14 -5 8 278.37 34.9
-14 9 -8 272.17 37.5
-5 14 -8 276.77 47.5
-5 -9 8 221.58 41
-5 14 -8 270.37 40.6
14 -9 -8 239.68 32.1
9 -14 8 201.48 30.7
5 -14 -8 268.07 43.2
-9 14 8 243.18 36
-14 5 8 190.28 38.4
-14 9 -8 299.37 47.2
5 9 -8 259.27 38
9 -14 -8 302.87 39.4
-14 5 -8 228.08 31.6
14 -9 8 222.08 35.2
9 -14 -8 239.08 30.4
-9 14 -8 155.58 38.8
5 9 -8 167.48 41.6
-9 -5 8 347.57 49.99
-5 -9 -8 233.68 43.5
5 9 -8 204.68 30.6
-5 14 8 144.69 30.1
5 -14 8 254.87 32.7
-14 5 -8 259.27 49.5
10 4 -8 40.9 21.9
-4 -10 8 21.1 26.5
14 -4 8 61.69 20.3
4 -14 -8 61.79 24.3
14 -10 -8 53.69 26.9
14 -10 -8 44.2 17.6
-14 10 -8 41.4 30.2
10 -14 8 55.59 22.9
-4 14 -8 29.5 32.7
-14 10 -8 49.6 21.6
-14 4 8 24.3 29.5
-10 -4 -8 9.2 25.8
-4 14 -8 52.99 25.3
10 4 8 30.9 17.9
10 -14 -8 53.09 27.7
4 10 -8 44 24.7
-14 4 -8 50.99 41.1
-10 14 -8 13.7 28.6
10 -14 -8 1.4 27.1
4 -14 8 -2.3 23.5
10 -14 -8 34.6 22.3
4 10 -8 36.5 22.7
-14 4 -8 28.2 23.1
-10 14 -8 -1.8 15.2
14 -10 8 34.4 18.7
4 -14 8 60.39 22.9
-4 -10 -8 45.7 28.4
-10 -4 8 49.2 31.9
4 10 -8 35.8 35.6
-4 14 8 60.89 25.5
3 -14 -8 -0.5 25
14 -11 -8 65.49 21
-14 3 8 33.9 28.7
11 -14 8 56.19 22.7
-14 11 -8 42 30.6
-3 -11 8 39.2 29.9
-14 11 -8 42.6 20.5
14 -3 8 77.19 21.2
3 -14 -8 50.89 21.9
11 3 -8 52.89 23.4
14 -11 -8 86.49 30
-3 14 -8 92.79 39.1
-3 14 -8 51.29 24.6
-11 -3 8 136.89 35.9
3 11 -8 54.59 23.4
14 -3 -8 118.99 20.9
11 -14 -8 181.68 32.4
-3 14 8 120.89 28.3
-14 3 -8 98.89 41.8
3 11 -8 93.49 39.7
11 -14 -8 113.39 25.7
11 3 8 108.49 22.4
3 11 -8 166.68 30.9
11 -14 -8 102.59 30.6
-3 -11 -8 100.99 31.8
-14 3 -8 122.49 28.1
-12 -2 -8 7.3 31.6
-14 12 -8 1.9 26
-12 -2 -8 39.2 19.5
2 -14 -8 60.19 21.2
-2 -12 8 55.39 29.3
12 -14 8 80.89 25
14 -12 -8 53.79 19.8
2 -14 -8 27.6 24
12 2 -8 76.39 24
-14 12 -8 54.89 20.1
-2 14 -8 100.29 38.7
-14 2 8 54.49 32.4
2 12 8 71.49 26.4
14 -2 8 73.29 19.9
14 -12 -8 104.59 29.4
-2 14 -8 50.29 23.9
2 12 -8 34.6 21.4
12 -14 -8 11.7 24.9
-2 14 8 31.3 24
12 -14 -8 21 20.4
12 -14 -8 37.4 26.4
2 12 -8 9.7 23.2
12 2 8 22.3 18.6
-14 2 -8 30.4 37.6
14 -2 -8 46.1 19.4
-12 -2 8 25.6 29.2
-2 -12 -8 43.4 28.2
2 -14 8 7.4 26
2 12 -8 52.69 37
-14 2 -8 37.5 24.5
-1 14 -8 115.99 40.3
14 -13 -8 151.38 26.8
13 -14 8 89.79 24.2
-13 -1 -8 77.09 37.2
-1 -13 8 51.29 29.4
-1 14 -8 104.69 25
14 -1 8 118.69 23.3
1 -14 -8 55.39 25.8
-13 -1 -8 67.09 22.7
13 1 -8 102.99 21.9
14 -13 -8 110.79 29.6
1 13 8 73.49 26
1 13 -8 129.69 27.5
-14 1 -8 154.38 46.3
13 -14 -8 128.49 28.8
1 13 -8 115.19 22.2
14 -1 -8 110.89 22.4
-1 -13 -8 117.19 32.3
-1 14 8 117.19 28.4
13 -14 -8 128.89 25
-13 -1 8 107.69 34
1 -14 8 46.1 29
13 -14 -8 115.09 26
-14 1 -8 125.59 26.7
1 13 -8 129.29 39.6
13 1 8 158.78 24.3
0 14 -8 23.5 34.2
14 0 -8 6.6 19.3
0 -14 8 -12.7 24.7
0 14 -8 2.1 13.1
14 -14 -8 7.2 24.2
0 -14 -8 15.2 23.1
14 -14 8 15.4 19
0 14 8 6 23.7
-14 0 8 -8.3 24.3
-14 0 -8 13.8 21.4
-14 0 -8 26.6 35.4
14 -14 -8 -14.5 20
0 14 -8 5.5 21.2
14 0 8 20.6 18.1
-15 8 -8 99.09 25.2
-7 15 -8 84.99 35.6
-15 8 -8 60.29 32.9
8 -15 8 110.09 25
15 -8 -8 43 13.8
-8 -7 -8 76.09 31.7
7 -15 -8 101.89 27.3
-8 15 8 149.09 30.4
-7 15 -8 73.89 25.9
-7 -8 8 51.69 31.7
-7 -8 8 139.89 38.8
15 -7 8 130.89 24.1
8 7 -8 118.09 26.5
15 -8 -8 58.69 22.9
-15 7 -8 53.69 22.8
-8 -7 8 70.89 33.4
15 -7 -8 58.29 21.1
15 -8 8 95.09 22.1
-8 15 -8 70.69 25.3
7 -15 8 133.89 27.3
8 -15 -8 50.59 16.9
7 8 -8 68.89 23.8
-15 7 -8 109.79 38.9
8 -15 -8 121.99 29.9
-7 -8 -8 30.8 27.8
-7 15 8 59.09 26
-8 15 -8 88.59 35.3
-8 -7 8 110.49 38
-15 9 -8 56.29 23.1
9 6 -8 83.69 25.3
-6 -9 8 44.3 30.5
-15 9 -8 40.2 30.5
-6 15 -8 53.49 24.5
15 -6 8 54.79 21.4
15 -9 -8 42.8 18.1
-6 15 -8 70.79 36
-6 -9 8 49.3 33.4
6 -15 -8 51.89 24.6
-9 -6 -8 46.8 28.4
9 -15 8 48.6 23.2
-9 15 8 57.69 27.1
-15 6 8 1.1 28.3
15 -9 8 68.59 22.8
6 -15 8 48.2 23.5
15 -6 -8 23.3 15.9
-15 6 -8 57.79 22.6
9 -15 -8 50.09 19.9
-15 6 -8 64.59 35.5
-6 15 8 46 24.5
-9 -6 8 54.09 33
-9 -6 8 -8.6 27.1
9 6 8 32.7 15.1
6 9 -8 50.39 23.8
6 9 -8 53.69 23.2
-6 -9 -8 35.1 27.4
-9 15 -8 46.1 32.7
9 -15 -8 82.89 29.2
-9 15 -8 29.6 21.7
15 -10 -8 93.49 29.6
10 -15 8 171.18 29.1
-5 15 -8 156.08 28.6
15 -10 -8 101.89 21.1
-5 -10 8 110.19 35.3
-5 -10 8 91.09 33.3
15 -5 8 123.79 22.7
10 5 -8 142.39 27
5 -15 -8 94.29 25.1
-10 15 8 139.09 31.1
-15 10 -8 83.09 33.2
-15 10 -8 123.89 24.5
-5 15 -8 64.49 35.5
5 10 -8 127.09 28.5
5 10 -8 83.09 24.8
15 -10 8 96.29 24.6
-5 15 8 67.19 24.7
-15 5 -8 118.59 42.4
-10 -5 8 104.39 35.1
-5 -10 -8 88.29 33.7
5 -15 8 103.39 26.4
-10 15 -8 24.6 29.7
10 -15 -8 81.39 28.6
10 -15 -8 63.29 21.2
-15 5 -8 79.89 24.5
10 5 8 54.19 19.2
5 10 -8 47.3 35.3
-10 15 -8 75.09 24.7
11 4 -8 120.19 26.2
-4 15 -8 99.59 25.4
4 11 8 62.89 27.6
-4 15 -8 118.29 39.5
15 -11 -8 100.89 29.7
-4 -11 8 81.79 32.1
15 -4 8 95.09 20.8
4 -15 -8 108.99 24.7
11 -15 8 137.09 27.1
-15 11 -8 56.59 29.3
-15 11 -8 123.69 24.3
-4 -11 8 83.39 33.1
-15 4 8 53.89 31.1
15 -11 -8 96.39 21.2
11 -15 -8 110.49 28.6
4 11 -8 127.89 27.2
-11 -4 8 106.29 33.5
15 -11 8 94.69 24.7
11 -15 -8 135.49 24.9
11 4 8 86.29 20.7
4 11 -8 150.18 25.7
-4 15 8 88.89 26.2
4 -15 8 110.39 25.3
-15 4 -8 172.58 48.6
-11 15 -8 65.99 23.1
11 -15 -8 170.48 32.9
4 11 -8 109.29 37.7
-15 4 -8 187.58 31
-4 -11 -8 124.79 34.4
-3 15 -8 135.39 38.2
15 -12 -8 118.79 23.8
-15 3 8 106.89 33.4
-3 -12 8 65.29 29.6
12 3 -8 175.68 26.7
12 -15 8 187.88 28.4
15 -12 -8 150.58 31.5
-3 15 -8 142.79 26.8
3 12 8 115.59 29.4
15 -3 8 156.38 23.8
3 -15 -8 146.29 25.3
-15 12 -8 133.29 24.4
12 3 8 79.29 20.8
12 -15 -8 74.29 26.6
-12 -3 8 70.09 32.2
3 12 -8 94.99 40.3
3 12 -8 110.69 25.9
12 -15 -8 57.29 27.6
-12 15 -8 56.99 21.8
12 -15 -8 56.59 20.5
-15 3 -8 115.89 45.1
3 12 -8 88.79 23.6
-15 3 -8 114.49 26.2
-3 15 8 98.69 25.7
-3 -12 -8 66.39 28.3
-15 2 8 19.6 28.3
-2 15 -8 34.7 32.6
-2 -13 8 29.4 28.7
13 2 -8 44.1 20.2
-2 15 -8 65.69 24.5
15 -2 8 36.9 17.7
13 -15 8 63.89 23.2
2 13 8 19.6 24.2
2 -15 -8 45.3 19.3
-13 -2 -8 27.5 19.2
15 -13 -8 24.5 19.1
15 -13 -8 53.89 27.5
-15 13 -8 -3.4 14.1
13 -15 -8 143.19 29.5
-2 -13 -8 91.09 30
-13 15 -8 60.89 22.2
-15 2 -8 102.99 42.6
2 13 -8 77.29 24.2
-15 2 -8 128.69 27.9
13 2 8 72.89 20.5
13 -15 -8 92.09 22.8
2 -15 8 -16.2 35.7
2 13 -8 66.29 21.2
2 13 -8 73.19 39.9
-2 15 8 98.19 26.5
13 -15 -8 76.59 27
-13 -2 8 79.39 31.2
14 1 -8 32.5 20.2
-1 -14 8 7.1 25.8
1 -15 -8 10.3 14.3
15 -14 -8 41.9 25.8
-15 1 8 6.5 27.3
15 -14 -8 21.7 19.7
15 -1 8 23.8 16.9
-1 15 -8 32.7 32.8
1 14 8 19.1 23.9
-1 15 -8 42.8 23
-14 -1 -8 27 19.4
14 -15 8 11.2 19.7
14 -15 -8 22.1 19.2
-1 15 8 48.2 23.6
-14 15 -8 11.9 16.8
15 -14 8 -14 13
-14 -1 8 -1 22.1
1 14 -8 40.1 22.5
15 -1 -8 48.4 19.6
-15 1 -8 20.9 20.5
1 -15 8 -15 24.1
1 14 -8 -2.1 11.5
-1 -14 -8 13.4 21.8
-15 1 -8 40.2 35.3
14 -15 -8 24.1 22.3
1 14 -8 20.2 35.4
14 -15 -8 37.7 24.6
14 1 8 38.7 18.7
0 15 8 28.6 23.3
15 0 -8 8.5 17.7
15 0 8 20.2 18
0 15 -8 5.5 31.4
15 -15 -8 11.1 23.2
15 -15 -8 -10.1 18.2
15 -15 8 12.8 16.9
-15 0 -8 17.2 19.3
-15 0 8 10.1 28.4
0 15 -8 18.2 21.8
-15 15 -8 -0.8 15.7
-8 16 8 70.39 25.8
-16 8 -8 57.39 22.7
16 -8 8 65.99 21.8
-8 -8 8 26.6 28.8
-8 -8 -8 65.89 29.4
8 8 -8 52.19 22.9
-16 8 -8 51.49 34.6
8 -16 8 65.29 21.9
-8 16 -8 53.09 25.2
-8 16 -8 48.1 32.2
16 -8 -8 57.09 22.9
8 -16 -8 93.99 25.6
-8 -8 8 88.29 36.5
7 -16 -8 220.68 30.1
9 -16 8 213.98 28.5
-7 -9 8 133.39 35.8
-16 9 -8 162.18 26.7
-7 16 -8 185.78 29.1
-16 9 -8 206.68 42.3
9 7 -8 256.87 31.4
16 -7 8 238.68 28.8
-7 16 -8 170.28 38.6
-7 -9 8 189.98 40.2
-9 16 8 147.19 30.1
-7 -9 -8 191.38 37.7
16 -7 -8 177.48 28.7
-16 7 -8 333.57 53.79
-9 -7 8 339.97 52.49
-16 7 -8 200.18 29.2
7 -16 8 239.48 36.9
-9 16 -8 171.18 39.3
7 9 -8 279.77 37.8
9 -16 -8 263.17 41.5
-9 16 -8 279.87 39.8
16 -9 8 248.08 37.1
-7 16 8 183.68 30.5
9 -16 -8 255.87 34.7
16 -10 -8 50.59 26
-6 16 -8 37 21.6
16 -10 -8 29.2 17.9
10 -16 8 82.79 23.5
-6 -10 8 47.2 30.3
-6 -10 8 49.7 33.1
6 10 8 43.6 24.2
-6 16 -8 52.39 34.9
-16 10 -8 66.69 21.8
-10 16 8 36.8 25.5
-16 10 -8 32.6 29.9
6 -16 -8 55.39 21.3
10 6 -8 80.79 24.1
16 -6 8 64.39 20.8
-16 6 -8 41.4 37.8
-6 -10 -8 8.7 26.8
-10 -6 8 66.29 34.9
10 -16 -8 56.99 25.4
-6 16 8 52.19 23
10 -16 -8 64.79 20.2
16 -6 -8 24.1 20.2
-10 16 -8 42 22.4
6 10 -8 43.4 21.5
16 -10 8 44.9 22.7
-10 16 -8 -1.2 29.4
10 6 8 10.4 14.3
-16 6 -8 27.8 21.3
6 -16 8 65.49 22.6
16 -11 -8 65.49 28.5
-5 16 -8 49.7 34.1
-11 16 8 49.8 25.9
-5 -11 8 1.4 26.9
-16 11 -8 63.39 21.3
16 -11 -8 57.29 19
5 -16 -8 42 20
16 -5 8 89.79 23
-5 -11 8 29.7 26.7
11 -16 8 82.29 22.5
-16 11 -8 0.9 35.1
5 11 8 40.5 25.7
11 5 -8 98.79 25.2
-5 16 -8 91.99 24.9
-16 5 -8 158.08 28.5
-11 16 -8 57.69 22.8
11 5 8 83.39 19
-5 -11 -8 104.59 30.9
16 -11 8 127.29 25.9
5 11 -8 75.49 36.9
-11 16 -8 1.1 36
5 -16 8 106.59 24.3
16 -5 -8 67.69 22.3
-11 -5 8 82.19 33
-16 5 -8 137.79 46.6
11 -16 -8 122.29 28
11 -16 -8 122.99 22.4
5 11 -8 77.19 23.8
-5 16 8 97.89 25.8
-4 16 -8 100.79 23.7
12 4 -8 145.09 26.6
16 -12 -8 68.59 19.9
12 -16 8 114.19 23.4
-4 16 -8 88.49 35.1
4 -16 -8 98.79 22.8
16 -4 8 127.69 23.2
-16 4 8 3.8 41.6
4 12 8 71.19 27.1
-4 -12 8 52.19 29
-16 12 -8 121.59 23.4
16 -12 -8 134.79 30.3
12 4 8 56.49 19
4 -16 8 88.29 22.5
-16 4 -8 94.99 24.9
-4 16 8 92.99 25.4
4 12 -8 33.6 37.5
16 -12 8 75.09 22.6
12 -16 -8 102.19 21.3
-16 4 -8 146.69 45.4
-12 -4 8 70.29 31.6
-12 16 -8 49.99 21.5
12 -16 -8 114.79 27.8
12 -16 -8 95.09 28.8
16 -4 -8 55.89 21
4 12 -8 166.58 28.8
-4 -12 -8 85.69 29.2
16 -13 -8 17.6 18.8
-3 16 -8 16.8 21.8
-16 13 -8 28.2 17.2
13 -16 8 37 20.9
-13 -3 -8 27.5 17.1
3 -16 -8 28 20.1
-3 -13 8 -10.1 26.6
16 -3 8 19.2 18.8
13 3 -8 12 20.2
16 -13 -8 43 26.8
3 13 8 29.6 25.6
-3 16 -8 3.2 29.8
-3 -13 -8 20.1 23.3
13 -16 -8 4.7 23.2
-13 16 -8 0.9 20.3
3 13 -8 -5.7 33.4
16 -13 8 13.2 18.4
3 13 -8 -1.3 19.8
16 -3 -8 7.6 16.4
-16 3 -8 -1.5 20.5
13 -16 -8 18.4 22.1
3 -16 8 -16.9 11.8
-13 -3 8 21.1 25.8
13 3 8 19.5 17.1
-3 16 8 27.9 22.3
-16 3 -8 6.8 38
13 -16 -8 3.3 17.3
14 -16 8 36.2 19.1
16 -2 8 29.9 18.8
2 14 8 39.8 25.5
16 -14 -8 37.9 24.4
-2 16 -8 9.2 29.6
-2 16 -8 58.19 21.4
14 2 -8 53.09 19.9
16 -14 -8 14 17.9
2 -16 -8 39.9 16.9
-14 -2 -8 30.4 17.8
14 -16 -8 75.79 20.9
14 -16 -8 91.99 26.7
2 14 -8 70.89 22.1
-14 16 -8 22.5 20.7
14 2 8 56.99 18.4
14 -16 -8 50.99 24.3
2 14 -8 23.6 33.7
-2 16 8 45.3 23.1
-14 -2 8 -4.9 31.5
-16 2 -8 90.09 24.1
-16 2 -8 -15.2 31.5
1 15 8 8.1 23
15 -16 8 3.8 16.4
15 1 -8 12 17.7
-15 -1 -8 10.1 16.9
16 -1 8 3.2 18
-1 16 -8 3.3 19.4
16 -15 -8 16 21.8
-1 16 -8 0.2 34
16 -15 -8 -12.3 16
1 15 -8 11 20.2
1 15 -8 -1.3 33.5
15 1 8 0.8 17.1
15 -16 -8 4.6 18.3
15 -16 -8 22.3 18.8
-1 16 8 4.7 21.8
-16 1 -8 -1.5 18.8
16 -15 8 -16 14.9
-15 16 -8 33.9 19.9
15 -16 -8 12.3 21.9
16 0 8 18.3 17.4
16 -16 -8 0.7 20.1
16 -16 8 -2.9 14
-16 16 -8 5.6 15.6
0 16 8 8.1 21.4
0 16 -8 -0.2 18.3
-16 0 -8 13.7 17.2
16 -16 -8 -3.7 15.8
-8 -9 8 50.59 30.7
9 -17 8 69.49 21.4
-8 17 -8 7.2 27.8
8 -17 -8 88.99 22.4
-17 9 -8 83.69 22.6
-17 9 -8 2.5 28.6
-9 17 8 75.19 25
9 8 -8 115.59 25.7
-8 17 -8 73.39 22.9
17 -8 8 98.19 23.7
8 9 -8 79.09 22.1
-9 -8 8 70.29 32.5
-17 8 -8 94.89 24
-17 8 -8 29.5 30.7
-8 17 8 99.19 25.5
17 -8 -8 50.79 22.4
8 -17 8 137.99 24.2
-9 17 -8 74.89 23.3
9 -17 -8 57.19 17.3
17 -9 8 88.39 23.5
9 -17 -8 128.29 25.1
-9 17 -8 4.6 29.5
17 -10 -8 27.6 16
10 7 -8 5.4 19.5
-10 17 8 7.9 22.7
-7 17 -8 4.8 29.2
-7 -10 8 -30.5 23.6
-7 17 -8 -7 19
7 -17 -8 6.4 17.6
17 -10 -8 0.4 20.9
17 -7 8 24.6 21
10 -17 8 29.1 19.5
-7 -10 8 -3 26.3
7 10 8 -1.6 23.4
-17 10 -8 4.6 19.6
7 10 -8 4.8 19.6
-7 -10 -8 8.5 21.9
-10 -7 8 32.3 31
7 -17 8 27.4 20
17 -7 -8 23.8 21.2
17 -10 8 27.6 21.5
10 -17 -8 21.5 16.5
-7 17 8 21.2 21.1
10 -17 -8 38.5 22.2
-10 17 -8 9.1 23.1
-17 7 -8 -6.6 21.8
-17 7 -8 7.8 33.7
17 -11 -8 169.18 25
-6 17 -8 231.78 35.2
17 -6 8 232.98 36.7
-17 11 -8 250.27 35.4
6 11 8 167.38 31.3
11 -17 8 245.18 35.3
17 -11 -8 217.18 34.5
6 -17 -8 257.77 32.4
-11 17 8 285.67 45.5
11 -17 -8 294.97 34.3
-11 -6 8 223.08 43
6 -17 8 303.77 39.9
-17 6 -8 336.97 41.2
17 -11 8 246.68 38.5
-6 17 8 271.17 40
-6 -11 -8 255.37 48.8
11 -17 -8 346.97 39.9
6 11 -8 295.87 37.9
5 -17 -8 14 17.6
17 -12 -8 0.7 25.3
17 -5 8 18.9 20
-17 12 -8 1.6 18.4
12 5 -8 -14.3 20.7
12 -17 8 7.5 18.5
5 12 8 2.4 24.6
-5 -12 8 -34.3 22.9
-5 17 -8 16 20.4
-5 17 -8 3.8 26.9
17 -12 -8 -13.6 17.5
-12 17 8 3.4 25.6
-17 5 -8 17.4 36.8
-5 -12 -8 14.5 21.7
-12 17 -8 9.2 19.4
5 12 -8 15 19.2
-5 17 8 24 21.7
17 -5 -8 5.6 20.1
12 -17 -8 30.4 16.4
-12 -5 8 9.4 27
12 -17 -8 31.1 21.7
17 -12 8 11.1 20.7
5 -17 8 22.1 20.8
12 5 8 2.6 14.6
-17 5 -8 16.4 20.3
4 13 8 64.99 26.2
-17 13 -8 61.89 18.8
17 -4 8 87.79 21.5
-13 17 8 110.79 29.2
17 -13 -8 86.19 20.5
-4 17 -8 57.39 20.5
-4 17 -8 0.9 33.6
4 -17 -8 55.69 20
17 -13 -8 75.69 27.6
13 -17 8 87.79 21.3
13 4 -8 108.69 22.6
-17 4 -8 41.1 21.1
4 -17 8 42.9 20
-13 17 -8 61.29 21.7
13 4 8 37.7 16.7
17 -4 -8 30.3 20.7
4 13 -8 92.89 23.6
13 -17 -8 65.69 17.6
-17 4 -8 7 33.4
-4 -13 -8 2.3 20.3
-13 -4 8 -6.4 24.5
13 -17 -8 84.39 24
17 -13 8 61.89 22.6
-4 17 8 56.69 23.2
4 13 -8 -8.4 29.5
14 3 -8 229.38 26.6
-3 17 -8 204.58 31.1
17 -14 -8 136.19 23.5
3 14 8 201.08 31.1
3 -17 -8 119.99 22.7
17 -3 8 212.28 26.9
14 -17 8 183.38 25.3
17 -14 -8 177.88 29.6
14 3 8 82.99 18.8
14 -17 -8 114.39 25.2
-14 17 -8 136.39 23.4
17 -14 8 52.49 18.5
3 14 -8 213.08 30.1
14 -17 -8 200.98 29.8
17 -3 -8 113.89 23.6
15 2 -8 41.3 19
17 -15 -8 37.8 22.1
15 -17 8 30.5 17.1
17 -2 8 35.2 18.9
-15 -2 -8 34.3 16.2
2 15 8 35.5 25.2
2 -17 -8 10.5 12.3
-2 17 -8 36.5 18.9
17 -15 -8 41.8 19.1
15 -17 -8 48.1 22.5
-15 17 -8 28.1 19.2
-17 2 -8 42.6 18.7
15 -17 -8 16.5 21.5
15 2 8 26.2 16.7
15 -17 -8 44 18.2
17 -2 -8 -7 16.3
2 15 -8 42.5 18.3
-2 17 8 40.8 22
17 -16 -8 14.1 15.9
17 -16 -8 3.7 19.5
16 -17 8 11.3 16.2
-16 -1 -8 27.4 16.1
17 -1 8 23.1 18.5
-1 17 -8 18.9 18.1
1 16 8 28.9 22
-17 1 -8 33.8 17.5
16 1 8 22.5 17
16 -17 -8 48.4 16.9
1 16 -8 86.69 20.1
-16 17 -8 27.5 18.5
-1 17 8 36.9 21.2
16 -17 -8 64.39 22.2
17 -17 -8 60.89 20.9
0 17 -8 56.09 17.9
-17 17 -8 7.3 13.7
0 17 8 59.89 22.3
-17 0 -8 36 15.9
17 0 8 30.9 17.3
17 -17 -8 52.59 16.9
9 -18 8 69.79 20.8
9 -18 -8 20.4 11.3
9 9 8 -3.3 16.8
9 -18 -8 41.5 18.1
18 -9 8 45.4 21.6
-9 18 8 53.99 22.9
-9 18 -8 39.3 20.7
9 9 -8 51.39 21.9
-18 9 -8 38.2 21
10 8 -8 302.77 38.5
-8 18 -8 321.77 37
8 -18 -8 331.97 35.3
10 -18 8 320.57 37.9
-10 18 8 359.26 43.6
8 10 8 259.87 40.3
-18 10 -8 324.87 39.5
18 -8 8 327.87 40.9
-8 18 8 324.57 42.1
8 10 -8 370.66 38.7
18 -10 8 310.47 39.8
-10 18 -8 336.37 38.8
8 -18 8 320.07 39.5
10 -18 -8 338.67 38.6
-18 8 -8 364.26 41.3
7 -18 -8 65.49 18.6
18 -11 -8 45.5 15.2
11 -18 8 139.29 22.7
18 -11 -8 59.99 27
18 -7 8 90.39 21.8
11 7 -8 88.69 24
-18 11 -8 87.39 22
7 11 8 45.9 24.1
-11 18 8 113.19 26.6
-7 18 -8 75.99 21.1
-11 18 -8 123.49 25.4
-7 18 8 79.99 23.3
-18 7 -8 149.79 26.2
11 -18 -8 114.09 21.9
11 -18 -8 69.79 16.1
18 -11 8 101.29 23
7 -18 8 97.79 21.7
18 -7 -8 83.39 22.9
18 -6 8 92.89 21.4
-6 18 -8 99.49 22
18 -12 -8 43.8 17.6
-18 12 -8 49.9 19.5
12 6 -8 85.49 22.2
6 -18 -8 85.19 19.9
12 -18 8 84.09 19.3
6 12 8 51.09 24.8
-12 18 8 72.49 26.1
18 -12 -8 45 26.5
-18 6 -8 150.08 26.5
6 -18 8 115.89 23
12 -18 -8 95.49 21.7
18 -12 8 88.09 22.8
18 -6 -8 68.59 22.7
-6 18 8 91.09 23.9
6 12 -8 78.09 21.1
-12 18 -8 103.89 23.5
5 13 8 93.09 25.7
-13 18 8 146.49 30
13 5 -8 122.69 22.4
5 -18 -8 80.69 20.3
18 -5 8 97.19 21.7
13 -18 8 97.09 19.9
18 -13 -8 62.69 19.4
-18 13 -8 75.29 18.2
-5 18 -8 124.19 22.2
18 -13 -8 93.99 27.1
-5 18 8 121.89 25.1
-13 18 -8 94.29 22.1
-18 5 -8 170.98 27.1
5 13 -8 88.59 20.6
18 -13 8 88.59 23.2
18 -5 -8 63.79 22.2
5 -18 8 107.69 22.4
13 -18 -8 98.59 17.5
13 -18 -8 83.59 21.4
-4 18 -8 19.7 17.3
14 -18 8 29.7 17.3
-14 18 8 25.9 24.8
18 -14 -8 14.6 16.9
14 4 -8 24.3 17.9
18 -4 8 26.2 18.3
4 -18 -8 30.2 17
18 -14 -8 26.2 23.7
4 14 8 15.7 23.1
-14 -4 -8 -3.3 9.9
-14 18 -8 7.8 18.6
18 -14 8 18.2 19.8
18 -4 -8 1.4 19.3
-18 4 -8 44.8 20.2
-4 18 8 30.7 20.6
14 -18 -8 27.2 19.9
14 -18 -8 36.8 15.5
14 4 8 -6.4 12.5
4 14 -8 29.7 17
18 -3 8 49.9 19.3
-15 -3 -8 34.2 14.6
18 -15 -8 61.79 22.3
3 15 8 96.09 24.8
-15 18 8 83.99 26.1
15 3 -8 85.89 19.8
15 -18 8 84.89 19.9
18 -15 -8 80.99 19.2
-3 18 -8 79.49 18.6
15 -18 -8 44.6 15.5
3 15 -8 53.19 18.2
15 -18 -8 62.29 22
18 -3 -8 48.6 20.1
-3 18 8 45.1 21.2
-15 18 -8 25.3 18.6
-18 3 -8 50.99 18.3
18 -15 8 -0.1 17
16 -18 8 4.5 14.9
18 -2 8 19.7 17.8
2 16 8 -6.9 20
-16 -2 -8 14.3 13.2
-16 18 8 6.7 22.5
18 -16 -8 -4 14.7
-18 2 8 -29.4 14.1
16 2 -8 16.4 16.9
18 -16 -8 16.6 18.8
-2 18 -8 22 16.4
16 -18 -8 33.5 21.6
16 -18 -8 23.3 13.2
16 2 8 -4.6 13.4
-16 18 -8 5.6 17.2
18 -2 -8 0.7 15.5
-2 18 8 29.5 19.2
16 -18 -8 9.2 14.1
-18 2 -8 12.1 15.7
2 16 -8 10.9 15.3
18 -17 -8 11.1 18.4
1 17 8 14 18.3
18 -17 -8 2.1 14.4
-18 1 8 -4.4 15.4
-17 -1 -8 6.8 12.8
18 -1 8 3.6 16
-17 18 8 -0.7 21.6
17 -18 8 -16.3 11
-1 18 -8 11.3 14.6
-18 1 -8 10.8 14.5
17 1 8 6.9 14.5
17 -18 -8 6.8 13.7
-17 -1 8 3.1 17.5
-17 18 -8 15.9 15.7
-1 18 8 15 18.9
1 17 -8 6.3 14.6
17 -18 -8 14.7 19.6
18 -18 -8 11.5 18.9
-18 0 -8 22.7 14.2
18 0 8 -1.8 12.9
-18 0 8 -16.1 13.9
18 -18 -8 5.4 13.2
0 18 8 2.6 15.9
0 18 -8 8.6 14.2
10 9 -8 103.09 22.3
-9 19 -8 87.99 20.2
19 -9 8 88.19 21.4
-19 10 -8 84.69 21.1
9 10 8 93.09 23.6
9 -19 -8 93.49 18.4
-10 19 8 168.38 26.2
9 -19 8 121.79 22.5
10 -19 -8 172.18 23
19 -10 8 118.09 22.7
-9 19 8 132.19 25
-19 9 -8 163.08 26.1
-10 19 -8 100.29 21.9
9 10 -8 100.19 21.9
19 -8 8 181.18 26.4
-19 11 -8 84.69 20.8
8 -19 -8 110.29 19.7
-11 19 8 122.19 24.9
11 8 -8 140.29 25.2
-8 19 -8 135.89 23
8 11 8 82.79 24.3
-8 19 8 143.59 25.1
-19 8 -8 164.48 25.8
19 -11 8 125.69 23.8
8 -19 8 167.58 23.8
11 -19 -8 162.98 25.9
-11 19 -8 118.89 22.8
11 -19 -8 137.09 23.3
8 11 -8 149.59 24
7 12 8 34.5 22.1
-12 19 8 52.39 22.9
19 -12 -8 40 24.3
-19 12 -8 39.2 18.4
7 -19 -8 28.2 16.5
19 -7 8 64.49 21.3
-7 19 -8 55.79 19
12 -19 8 57.79 18.5
12 7 -8 55.49 20.8
19 -7 -8 62.59 21.2
-7 19 8 108.69 22.5
12 -19 -8 43.8 14
7 -19 8 78.99 20.9
12 -19 -8 57.89 17.7
-12 19 -8 78.29 21.8
-19 7 -8 122.79 24.4
19 -12 8 72.29 21.2
19 -6 8 -5.8 18.2
-6 19 -8 -0.4 15.4
6 -19 -8 -3.8 15
13 6 -8 -7.8 16.3
13 -19 8 6.7 16.5
-13 19 8 1.6 20.9
19 -13 -8 -1.2 13.9
19 -13 -8 2.1 22.4
6 13 8 -2.7 20.1
-19 13 -8 4.6 13
13 -19 -8 22.4 12.7
13 -19 -8 16.1 16.1
19 -13 8 17.1 19.9
6 13 -8 19.9 16.6
19 -6 -8 -0.1 19.3
-13 19 -8 13 19.2
-6 19 8 2.6 18.7
-19 6 -8 12.7 19.3
6 -19 8 5.3 18.5
19 -14 -8 26.1 16
-14 19 8 58.69 23.4
14 5 -8 34.2 16.7
14 -19 8 59.99 17.9
19 -14 -8 27.4 22.4
-5 19 -8 84.89 18.5
5 14 8 78.59 23.6
5 -19 -8 29 16.7
19 -5 8 70.29 20.6
14 -19 -8 59.79 14.3
-14 19 -8 68.89 19.7
19 -5 -8 47.8 21.3
5 -19 8 23.5 15.7
5 14 -8 96.49 19.5
-19 5 -8 69.19 20.2
14 -19 -8 65.19 20.3
-5 19 8 74.19 20.6
19 -14 8 54.09 20.8
15 4 -8 52.89 17.8
4 -19 -8 40.1 15.2
4 15 8 26.7 20.6
19 -15 -8 49.6 20.4
19 -4 8 44 19.3
-4 19 -8 38 16.1
19 -15 -8 43.7 17.5
15 -19 8 50.19 17.7
-15 19 8 58.09 23.4
-19 4 -8 79.59 20.1
-15 19 -8 30 17.4
4 15 -8 82.39 19.2
15 -19 -8 48 13.1
15 -19 -8 33.4 18.2
19 -15 8 6.1 13.3
19 -4 -8 29.4 19.7
-4 19 8 57.39 19.4
3 16 8 20.7 19.8
-3 19 -8 15.8 15.8
16 -19 8 2.5 13.9
-16 19 8 11.3 21.2
-16 -3 -8 15.5 11
16 3 -8 6.5 15.4
19 -16 -8 -1.6 18.3
19 -16 -8 12.8 17.6
19 -3 8 5.3 17.4
3 16 -8 28.1 15.2
16 -19 -8 18.8 12.2
-3 19 8 21 17.3
-19 3 -8 33 16.2
19 -3 -8 -1 16.1
-16 19 -8 15.5 16.5
16 -19 -8 15.3 15.2
2 17 8 28.4 18.7
19 -17 -8 58.59 19.7
19 -2 8 21.9 17.2
-17 19 8 48.6 22.1
-2 19 -8 56.69 16.4
-17 -2 -8 25.2 13.3
19 -17 -8 41.7 17.8
17 -19 8 7.3 11.5
-2 19 8 19.9 18
-17 -2 8 35.8 17.2
-17 19 -8 13.7 14.8
17 -19 -8 33.2 12.8
-19 2 -8 52.19 16.6
2 17 -8 41.2 15.1
-18 -1 -8 24.1 13.9
19 -1 8 -7.9 12.3
-18 19 8 26.4 20.5
1 18 8 44.8 18.6
19 -18 -8 74.19 20.2
19 -18 -8 59.19 17.5
-1 19 -8 26 14
18 -19 -8 56.69 14.3
-1 19 8 70.99 18.6
-19 1 -8 51.89 15.8
1 18 -8 64.59 16.1
-18 -1 8 53.09 16.3
0 19 8 5.2 17.2
-19 19 8 -2.2 20.5
0 19 -8 25.9 14.6
-19 0 -8 9.5 14.4
-19 0 8 -14.4 8.9
19 -19 -8 10.7 16
-20 10 -8 160.68 23.6
10 10 -8 241.48 27.1
-10 20 8 209.68 32.8
10 -20 8 211.08 30.8
10 -20 -8 182.18 24.3
20 -10 8 159.88 23.8
-10 20 -8 126.69 21.7
11 -20 8 70.89 18
-11 20 8 52.89 20.6
9 11 8 43 20.4
-9 20 -8 51.19 17.8
-20 11 -8 26.4 17.1
11 9 -8 46.3 19.6
20 -9 8 60.69 18.5
9 -20 -8 36.7 15.4
-9 20 8 69.09 20.1
9 11 -8 59.19 19.1
-11 20 -8 60.79 18.5
20 -11 8 43 18.7
-20 9 -8 58.29 19.9
11 -20 -8 69.59 16.6
9 -20 8 59.79 17.7
8 12 8 46.8 20.3
20 -8 8 55.29 18.4
8 -20 -8 40.1 15.5
-20 12 -8 48.7 17
12 8 -8 40.7 17.6
12 -20 8 54.29 17.2
-12 20 8 41.9 19.5
-8 20 -8 71.49 18
12 -20 -8 99.49 19.2
-8 20 8 89.19 21.1
8 12 -8 118.79 20.8
20 -12 8 71.49 20.1
8 -20 8 68.69 19.1
-12 20 -8 95.09 20.4
-20 8 -8 62.39 19.6
20 -13 -8 54.79 23
13 -20 8 134.89 20.7
20 -7 8 107.99 19.9
7 13 8 65.69 21.6
-7 20 -8 116.49 20.1
-13 20 8 133.59 24.8
7 -20 -8 73.19 17.4
13 7 -8 107.49 20.2
-7 20 8 79.99 20.3
7 -20 8 114.39 20.6
7 13 -8 67.39 18.8
-20 7 -8 101.49 19.8
13 -20 -8 77.69 18.3
13 -20 -8 108.09 18
20 -13 8 88.69 21.3
-13 20 -8 94.89 19.9
6 14 8 52.49 20
14 -20 8 82.19 18.2
-14 20 8 76.09 22.6
14 6 -8 53.19 17.7
20 -6 8 42.3 18.2
20 -14 -8 52.19 21.6
-6 20 -8 70.29 16.9
6 -20 -8 42.8 15.7
20 -14 8 57.59 19
6 14 -8 75.89 18.2
6 -20 8 32.2 13.9
14 -20 -8 34.7 11
14 -20 -8 89.29 18
-20 6 -8 50.59 18.1
20 -6 -8 40 20.2
-14 20 -8 57.69 18.4
20 -15 -8 32.6 20.2
15 -20 8 22.1 15.6
-5 20 -8 9.2 14.6
5 15 8 12.8 18.1
-15 20 8 17.8 19.1
20 -5 8 7.7 17.3
15 5 -8 24.1 15.9
5 -20 -8 23.7 13.3
20 -15 -8 5.2 12.5
-20 5 -8 46.8 17.2
5 15 -8 42.6 15.5
20 -5 -8 5.8 18.3
15 -20 -8 2 15.6
-5 20 8 22.7 16.3
-15 20 -8 18.4 17.4
15 -20 -8 12.9 9.9
20 -15 8 23.6 15.5
20 -16 -8 0 13.6
-4 20 -8 2.8 14.6
16 -20 8 0.4 14
4 16 8 14.3 17.5
-16 20 8 1.7 18.4
20 -16 -8 3.9 19
20 -4 8 2.2 16.2
16 -20 -8 7.1 13.7
-4 20 8 5.7 16
-16 20 -8 2 16.1
20 -4 -8 -1.3 18.3
-20 4 -8 -6.6 15.1
16 -20 -8 9 10.2
4 16 -8 3.5 13.7
-16 -4 8 13.7 17.9
20 -17 -8 35.4 15.2
20 -3 8 32.1 16.8
-17 20 8 50.89 20.8
20 -17 -8 40.6 20.9
3 17 8 42.3 17.8
-3 20 -8 28.8 14.8
3 17 -8 27.3 14.7
17 -20 -8 22.6 11.4
-20 3 -8 33.8 15.6
-17 20 -8 6.9 12.8
-17 -3 8 22.5 15.6
-3 20 8 27.1 17.9
-18 20 8 23.8 22.2
2 18 8 6.9 17.2
20 -18 -8 7.8 15.5
-2 20 -8 6.5 14.9
2 18 -8 10 14.9
18 -20 -8 4.5 11.8
-2 20 8 12.2 17.3
-18 -2 8 6.8 13.7
-20 2 -8 0.2 15.1
-10 21 -8 14.4 15.2
11 10 -8 13.9 16.8
-21 10 8 10.9 12.8
-21 11 -8 8.1 14.3
-11 21 8 20.6 16.6
10 -21 -8 7.1 12.9
11 -21 8 20.9 14.7
21 -10 8 23.7 17.1
-11 21 -8 31.3 15.8
11 -21 -8 43 15.4
-10 21 8 15.6 16.7
21 -11 8 36.1 17.4
10 11 -8 49.4 18.3
10 -21 8 24.5 14.8
-21 10 -8 21.8 15.8
21 -9 8 82.19 18.8
12 9 -8 87.09 18.7
9 -21 -8 55.89 15.2
-12 21 8 79.29 19.5
-9 21 -8 86.49 17.8
12 -21 8 98.59 16.9
21 -12 8 73.89 19
-9 21 8 56.49 18
9 -21 8 54.59 16
9 12 -8 94.99 19.4
-12 21 -8 84.69 18.1
12 -21 -8 86.29 17.6
-21 9 -8 67.59 18
13 8 -8 22 15.1
13 -21 8 19.7 14.7
8 13 8 19.2 17.1
-8 21 -8 19.5 15.4
8 -21 -8 18.5 13.4
-13 21 8 18.9 17.5
21 -8 8 8.9 16.7
13 -21 -8 13.8 13.9
8 -21 8 -5.1 13.5
-8 21 8 -2.8 15.2
-13 21 -8 -1.7 15
8 13 -8 -0.6 15.8
13 -21 -8 11.4 9.1
21 -13 8 1 16.8
-21 8 -8 1.1 16
21 -7 8 -3.3 16.2
-7 21 -8 12.7 14.3
21 -14 -8 10.4 14.3
7 14 8 -1.8 16.1
14 7 -8 -3.7 15.2
14 -21 8 9.6 14.1
7 -21 -8 9.1 13.9
-14 21 8 1.2 16.7
-21 7 -8 28.1 16.8
7 -21 8 -11.7 8.3
21 -14 8 5.3 16.7
14 -21 -8 19.4 15
7 14 -8 17.7 15.3
14 -21 -8 10.7 9.4
-14 21 -8 9.1 15.5
-7 21 8 19.7 16.1
6 -21 -8 13.6 8.8
15 -21 8 2.7 14.1
21 -6 8 6.8 17.5
6 15 8 21.1 15.9
21 -15 -8 3 19.5
-15 21 8 18.7 18.2
15 6 -8 -7.9 15.4
-6 21 -8 16.2 15.6
-21 6 -8 2.7 15.5
6 15 -8 11 15.1
-15 -6 8 26.3 18.7
-6 21 8 16 16.4
15 -21 -8 3.7 9.3
21 -15 8 7.6 11.4
-15 21 -8 7.2 16.6
15 -21 -8 19.6 16
21 -16 -8 13.4 21.8
21 -5 8 -5.8 17.7
5 16 8 8.9 15.7
-5 21 -8 -5.1 15.4
-16 21 8 6.6 18.3
16 -21 8 -12.7 14.1
16 -21 -8 15.6 10.5
-5 21 8 16.9 17
-16 -5 8 29.8 19.1
5 16 -8 -0.3 15.7
16 -21 -8 8.7 10.5
-21 5 -8 13.9 15.4
-16 21 -8 10.2 16
21 -17 -8 31.5 22.6
21 -4 8 -0.3 10.7
4 17 8 14.2 18.2
-4 21 -8 22.7 16.1
-17 21 8 14.9 20.2
-17 -4 8 16.9 18.1
-4 21 8 29.6 19.2
-21 4 -8 9.1 16.2
17 -21 -8 12.1 11
4 17 -8 17.1 16.4
11 11 -8 47.2 17
22 -11 8 14.3 17.6
11 -22 -8 40.1 15.3
-11 22 -8 28.3 16.5
-11 22 8 34 18.3
11 -22 8 30 15.2
12 10 -8 7.9 16.5
10 -22 -8 17.4 14.4
22 -10 8 5.2 19
-12 22 8 20.1 17.7
12 -22 8 20.9 14.4
-10 22 -8 23.7 16.4
10 12 -8 16.1 17.4
-12 22 -8 32.3 17
12 -22 -8 28.1 14.8
10 -22 8 28.5 14.6
-22 10 -8 27.3 13.7
22 -12 8 16.4 18.3
-10 22 8 37.6 17.6
13 -22 8 19.4 14.2
-9 22 -8 25.7 16.1
9 -22 -8 26 14.8
-22 9 8 -1.3 11.1
13 9 -8 11.8 16.8
-13 22 8 29.8 20.1
22 -9 8 13 19.1
-13 22 -8 45.3 18
-13 -9 8 58.79 20.7
-22 9 -8 25.9 16
9 -22 8 15.3 12
13 -22 -8 40 15.3
22 -13 8 25.4 18.8
-9 22 8 43 18.4
9 13 -8 56.59 19.1
22 -8 8 -8.1 19.9
14 -22 8 10.8 15.4
8 -22 -8 16 13.2
-14 22 8 7.8 19.2
14 8 -8 23.7 17.9
-8 22 -8 38 15.8
-8 22 8 50.49 19.3
8 14 -8 24.4 19
-22 8 -8 23.7 17.1
-14 -8 8 67.19 21.3
22 -14 8 31.4 17.9
14 -22 -8 49.8 16.9
-14 22 -8 30.2 17.4
0 0 -9 11.3 22.5
0 -1 -9 347.37 42.5
-1 0 -9 431.46 46.9
0 1 -9 419.86 45.7
-1 1 -9 505.05 49.1
1 0 -9 371.06 42.8
1 -1 -9 337.47 41.4
-2 1 -9 36.6 28.2
2 -1 -9 18.2 21.3
1 1 -9 6.6 24.1
-1 2 -9 1.2 23.9
-1 -1 -9 23.1 19.7
-1 -1 -9 3.7 23.7
0 -2 -9 72.39 23.1
-2 2 -9 45.8 28.1
2 0 -9 41 23.7
0 -2 -9 -2.4 21.8
-2 0 -9 40.2 28
0 2 -9 62.19 26.1
-2 -1 -9 415.86 47.2
-1 3 -9 443.06 48.8
-3 2 -9 447.96 51.99
2 1 -9 419.96 49
-2 -1 -9 328.87 47.6
1 -3 -9 456.95 48.2
-3 1 -9 502.25 54.89
-2 3 -9 541.15 53.19
1 2 -9 456.65 49
-1 -2 -9 500.35 51.19
-3 3 -9 208.98 38.2
-3 0 -9 112.59 32.3
-3 0 -9 156.98 28.2
0 -3 -9 194.28 30
0 3 -9 138.49 31.1
-4 2 -9 30.7 27.4
-2 4 -9 15.1 24.1
-2 -2 -9 -4 22.9
2 -4 -9 19.3 20.8
2 2 -9 18.2 27.1
-2 -2 -9 15 20.1
1 -4 -9 262.67 42.9
-3 -1 -9 294.77 41.7
-1 4 -9 240.68 41
-4 3 -9 308.77 44.4
-3 -1 -9 232.98 43.8
-3 4 -9 248.08 41.8
-4 1 -9 253.67 45.4
-1 -3 -9 266.27 43.4
1 3 -9 272.57 44
0 -4 -9 122.99 28.7
0 4 -9 167.78 34.9
-4 0 -9 107.69 25.3
-4 0 -9 102.19 33.4
-4 4 -9 155.08 34.4
-5 3 -9 176.58 36.1
-2 5 -9 153.28 32.7
-3 -2 -9 143.09 29.4
2 -5 -9 114.39 27.4
-2 -3 -9 134.09 28.2
-3 5 -9 179.88 35.5
-5 2 -9 93.59 31
3 -5 -9 142.79 27.7
-5 4 -9 56.29 29.2
1 -5 -9 46.3 24.2
-1 5 -9 48.9 27.8
-4 -1 -9 12.7 27.3
-4 -1 -9 36.4 21.1
-4 5 -9 9 23.1
-1 -4 -9 19.5 21
-5 1 -9 16.4 19.2
-5 1 -9 5.2 27.9
1 4 -9 8.4 24.3
-5 0 -9 927.21 76.39
-5 5 -9 970.2 78.09
0 5 -9 969.7 78.59
-5 0 -9 842.62 79.39
0 -5 -9 1041 80.89
3 -6 -9 10 21.9
-3 -3 -9 10.6 19.3
-6 3 -9 4.5 23.1
-3 6 -9 1 20.9
-6 4 -9 514.45 54.69
2 -6 -9 564.14 58.69
-4 -2 -9 531.65 56.19
-2 -4 9 556.14 51.99
-2 6 -9 501.85 52.79
-4 -2 -9 375.56 55.29
4 -6 -9 443.16 54.19
-6 2 -9 577.64 59.09
-2 -4 -9 542.05 57.19
-4 6 -9 521.85 53.99
-6 5 -9 284.07 44.8
-1 6 -9 293.07 44.7
-1 -5 9 349.47 46.8
-5 -1 -9 286.87 46.2
1 -6 -9 314.57 50.39
-5 -1 -9 246.08 43.9
-1 -5 -9 261.67 45.4
-6 1 -9 270.57 50.09
-6 1 -9 269.07 42.4
-5 6 -9 271.57 39.7
0 6 -9 331.17 49.3
0 -6 -9 366.36 52.09
-6 0 -9 305.47 52.69
-6 6 -9 318.97 43.6
-6 0 -9 327.57 47.2
0 -6 9 401.26 48.6
-3 7 -9 308.47 43.8
-7 4 -9 316.77 45.2
-4 -3 -9 243.38 46.8
-3 -4 9 226.78 43.2
-7 3 -9 175.78 37.6
-4 7 -9 133.29 29.9
-3 -4 -9 155.58 30.6
-4 -3 9 167.48 29.9
2 -7 -9 213.28 37.1
-2 -5 9 185.98 30.1
-2 7 -9 276.97 40.5
-5 -2 -9 174.08 32.1
-7 5 -9 264.07 40.7
-5 -2 -9 138.49 36.9
-2 -5 -9 198.08 35.2
-5 -2 9 225.58 43.3
2 -7 9 244.58 46
-5 7 -9 302.07 42.9
-7 2 -9 237.78 44.5
1 -7 -9 777.72 72.39
-6 -1 -9 691.33 67.29
-6 -1 -9 636.84 69.29
-7 6 -9 707.73 65.89
-1 7 -9 700.23 66.59
-1 -6 9 753.42 67.29
-6 7 -9 646.54 63.99
-1 -6 -9 727.43 70.59
-6 -1 9 717.23 64.29
-7 1 -9 605.24 62.39
-7 1 -9 737.23 71.79
1 -7 9 737.53 65.49
0 7 -9 60.49 29.2
-7 0 -9 105.89 27.3
0 -7 9 124.69 29.3
-7 0 9 114.69 27.6
-7 7 -9 112.29 29.6
-7 0 -9 74.79 34.2
0 -7 -9 97.69 31.1
4 -8 -9 64.29 27.3
-4 -4 9 113.69 28.3
-4 8 -9 127.79 31.5
-8 4 -9 114.99 35.4
-4 -4 -9 133.09 32.3
4 4 -9 71.19 24.3
-5 -3 -9 252.27 46.8
-3 -5 9 250.27 45.7
-8 5 -9 253.27 43.1
3 -8 -9 236.38 38.9
5 -8 9 139.19 28.3
-3 8 -9 233.18 42.5
3 -8 9 263.77 46.1
-3 -5 -9 249.38 45.9
-5 -3 9 184.68 31.1
5 -8 -9 173.28 32.3
3 5 -9 148.89 31.5
-8 3 -9 214.68 38.6
-5 8 -9 242.78 41.7
-6 -2 -9 124.69 29.6
-2 8 -9 147.99 32.6
-2 8 -9 60.89 30.4
-2 -6 9 121.59 28.9
-8 6 -9 135.59 33.8
2 -8 -9 90.59 31.7
-6 -2 -9 100.09 34.8
-8 2 -9 102.49 33.3
2 -8 9 112.59 28
-6 8 -9 188.08 36.8
2 6 -9 112.89 29.8
-6 -2 9 110.29 28.4
-2 -6 -9 149.88 32.7
-8 2 -9 89.59 24.5
1 -8 -9 309.37 56.39
-1 -7 9 304.37 41.1
-1 8 -9 238.48 42.2
-7 -1 -9 229.68 44.7
-1 -7 -9 304.97 43.6
-8 1 -9 257.97 46.5
1 7 -9 165.18 34.5
-7 -1 9 182.08 32.7
1 -8 9 320.87 51.49
-8 1 -9 245.38 45.5
-7 8 -9 246.68 44.7
-8 0 9 663.03 71.19
-8 8 -9 805.52 69.69
0 -8 -9 873.51 78.89
-8 0 -9 762.82 71.29
0 -8 9 820.62 74.59
0 8 -9 662.13 71.09
-8 0 -9 727.63 75.79
-4 9 -9 16.9 29.5
5 -9 9 42.7 23.4
4 -9 -9 54.89 27.3
-9 5 -9 138.49 35.6
-5 -4 -9 64.29 26.8
-4 -5 9 69.99 27.8
-4 9 -9 112.99 33
-4 -5 -9 161.68 34.5
4 5 -9 117.09 30.5
-5 -4 9 109.89 29.5
5 -9 -9 75.39 27.7
-9 4 -9 139.79 35.2
4 -9 9 88.59 27.7
-5 9 -9 161.68 34.7
-3 -6 9 112.59 28.7
-3 9 -9 90.29 34.6
3 -9 -9 130.59 33.5
-6 -3 -9 148.89 33.2
-3 9 -9 137.09 34.9
-9 3 -9 162.38 38.4
-3 -6 -9 181.08 35.8
-6 -3 9 93.89 28.9
3 6 -9 80.09 29.6
-6 9 -9 154.58 34.7
3 -9 9 85.79 28.3
-2 9 -9 173.68 40.2
2 -9 -9 295.47 45.6
-9 7 -9 269.37 43.9
-7 -2 -9 276.37 52.49
-7 -2 -9 175.98 41.5
-2 -7 9 245.38 37.7
2 7 -9 174.28 37.2
-2 -7 -9 291.57 53.29
-7 9 -9 286.57 45.5
2 -9 9 257.57 38.8
-9 2 -9 226.58 43.7
-7 -2 9 258.07 39.6
-1 9 -9 44.8 31.8
-8 -1 -9 16.5 33.7
-9 8 -9 76.29 31.5
-1 -8 9 56.69 28.5
1 -9 -9 34.7 26.6
9 -1 9 6.8 12.4
-9 8 -9 0.8 15.2
-8 -1 -9 47.2 26.1
9 -8 -9 9.3 12.4
-8 9 -9 69.69 30.1
-1 -8 -9 80.09 30.6
-9 1 -9 36.7 22.4
-9 1 -9 112.99 41.1
1 -9 9 61.69 28.4
1 8 -9 52.89 29.5
8 1 9 14.9 14.5
-8 -1 9 64.89 29.8
0 -9 9 17.4 28.4
0 9 -9 -4.2 14.9
0 -9 -9 4.6 25.9
-9 0 -9 14.7 23.5
0 9 -9 37.6 33.6
9 0 9 22.9 17.5
9 -9 -9 7.5 17
-9 0 -9 11.1 35.4
-9 9 -9 3.8 27.3
-9 9 -9 1.1 13.5
-10 5 -9 33.5 31.2
5 5 9 3 11.7
5 -10 -9 12.8 26.1
-5 -5 -9 18.7 25.5
-5 -5 9 17.3 28
-5 10 -9 -6.7 30.1
5 -10 -9 15.2 24.4
5 5 -9 2.9 17.5
5 -10 9 -18.8 22.9
-10 5 -9 -2.5 16.2
-5 10 -9 20.6 28.8
6 4 -9 1.5 14.3
4 6 9 2.8 12.8
-10 6 -9 111.39 33.7
-10 6 -9 36.7 17.6
-6 -4 -9 62.19 28.6
6 -10 9 29.6 19.1
10 -6 -9 4.5 10.5
-4 10 -9 50.79 34.9
-4 10 -9 58.19 27.9
4 -10 -9 28.1 22.6
-4 -6 9 45.6 26.8
4 -10 -9 40.5 29.7
-6 10 -9 44.6 28.4
4 6 -9 9.5 17.8
-4 -6 -9 54.79 29.7
-10 4 -9 49.8 32.9
4 6 -9 45.5 28
4 -10 9 4.4 24.8
-6 10 -9 -3.9 31.9
6 4 9 -1 12.6
-10 4 -9 -9.4 14.5
6 -10 -9 16.5 22
-6 -4 9 26.8 28.8
10 -3 9 -2.8 12.2
-10 7 -9 17.6 16.6
3 -10 -9 19.8 19.1
-3 10 -9 10.8 32.8
7 3 -9 -0.7 19.7
-7 -3 -9 -4.9 27.6
3 7 9 6.6 13.1
-3 -7 9 3 26.2
7 -10 9 -2.8 19.9
10 -7 -9 15.3 14.7
-10 7 -9 34 27.7
-7 -3 -9 23 27.4
3 -10 -9 45.5 30.5
-7 10 -9 50.09 29
3 7 -9 36.7 20.5
3 7 -9 67.19 32.8
-7 -3 9 27.8 28.4
7 -10 -9 16.2 19.6
-10 3 -9 50.79 35.4
3 -10 9 12.3 27.5
-3 -7 -9 34.6 27.7
7 3 9 18.4 15.8
-10 3 -9 -1.9 14.8
-10 8 -9 211.08 39.3
10 -8 -9 115.49 20.1
2 -10 -9 100.29 33.2
-8 -2 -9 103.59 30.6
-8 -2 -9 120.09 38.4
8 -10 9 120.59 23.7
-10 8 -9 96.29 21.1
-2 10 -9 146.49 38.9
-2 -8 9 91.09 29.2
10 -2 9 121.29 21.4
-8 -2 9 141.29 36.3
8 2 9 182.18 25.1
2 8 -9 132.69 37.5
-10 2 -9 263.97 49.7
-2 -8 -9 213.08 42.2
2 8 -9 146.09 27.4
8 -10 -9 160.08 28.3
2 -10 9 190.48 38
-8 10 -9 202.38 38
-9 -1 -9 96.29 40.5
9 -10 9 48.5 20
-1 10 -9 27.4 19.5
-1 -9 9 89.89 32.5
1 -10 -9 57.29 31.5
-10 9 -9 81.69 20.5
-1 10 -9 103.69 40
10 -9 -9 99.09 22.3
-9 -1 -9 73.39 29.2
-10 1 9 75.69 28
-10 9 -9 105.89 33.4
10 -1 9 84.59 20.4
-10 1 -9 79.69 38.4
-10 1 -9 0.8 18.4
-1 -9 -9 73.39 33.2
9 1 9 55.39 19.5
-9 10 -9 65.59 29.9
1 -10 9 4.3 26.6
1 9 -9 58.99 34.1
1 9 -9 62.49 21.9
9 -10 -9 15.7 18.1
9 -10 -9 33.8 24.3
-10 0 -9 146.49 43.5
0 10 -9 94.09 23.8
0 -10 9 84.69 33.7
0 -10 -9 92.79 34.6
-10 10 -9 131.39 35
-10 10 -9 118.69 23.8
10 0 9 144.19 23.8
10 -10 -9 96.79 21.9
-10 0 9 106.59 31.1
10 -10 -9 121.09 29
0 10 -9 105.09 37.7
6 -11 9 68.99 24.4
-5 11 -9 37.8 34.8
-5 -6 9 13.9 25.8
5 -11 -9 33.4 30.4
11 -6 -9 26.3 13.4
5 6 9 43 18.1
11 -5 9 2.9 12.8
6 5 -9 57.99 24.2
-6 -5 -9 40.5 29.3
-11 6 -9 85.89 34.1
-5 11 -9 32.3 29.2
-11 6 -9 41.3 21.4
5 -11 -9 -7.2 25.5
-5 -6 -9 43.9 29.5
5 -11 9 38.7 23.8
-11 5 -9 56.89 24
-6 -5 9 11.9 27.5
-6 11 -9 18.1 28.1
6 -11 -9 36.3 30.8
-6 11 -9 4.4 32.9
5 6 -9 40.8 29.2
5 6 -9 21.2 21.3
6 5 9 47.8 20.1
-11 5 -9 41.7 31.1
-7 -4 -9 13.6 28.2
11 -4 9 30.4 16.2
-4 -7 9 -18.9 26.7
11 -7 -9 13.3 16.2
4 7 9 14 15.8
-11 7 -9 20.7 29.1
4 -11 -9 33.4 29.7
7 -11 9 29.1 23.6
7 4 -9 4.6 21.4
-4 11 -9 5 34
4 -11 -9 3 28.3
-11 7 -9 22.8 19.6
-11 4 -9 10.1 23.8
4 -11 9 -20.1 25
4 7 -9 17.7 21.7
4 7 -9 25.7 29.9
-7 11 -9 16.1 25.9
-4 -7 -9 31.9 29
4 -11 9 18.8 21.3
7 -11 -9 -0.7 29.3
-11 4 -9 34 34.5
-7 11 -9 -5 31.2
7 4 9 21.2 19
-7 -4 9 4.5 27.5
8 3 -9 90.09 23.5
-11 8 -9 70.09 21.3
11 -3 9 67.49 19.4
3 8 9 58.49 18.4
8 -11 9 80.99 24.7
-11 8 -9 111.29 34.2
-8 -3 -9 -0.6 28.9
-3 -8 9 68.39 32.4
11 -8 -9 70.89 20
3 -11 -9 78.19 34.8
3 -11 -9 113.39 29.6
-8 -3 -9 49.8 30.6
-3 11 -9 74.39 36.3
-8 11 -9 180.28 37.6
-11 3 -9 175.68 30.9
-3 -8 -9 136.59 36.8
-11 3 -9 139.59 40.9
3 -11 9 82.49 32.5
3 8 -9 101.09 24.8
8 -11 -9 76.69 20.3
8 -11 -9 140.49 33
3 8 -9 152.38 41.4
-8 -3 9 48.5 31.2
-2 11 -9 32.8 17.7
-2 -9 9 24.9 28.9
2 -11 -9 53.09 31.2
-11 9 -9 61.39 29.4
2 9 9 60.59 21
11 -9 -9 14.8 22.8
-11 2 9 -1.2 20.3
2 -11 -9 47.6 23.2
-9 -2 -9 47.9 35.1
-9 -2 -9 70.69 29.9
9 2 -9 43.1 18.7
11 -9 -9 30 17.7
9 -11 9 38.9 23.3
-11 9 -9 72.29 22.5
-2 11 -9 43 34.8
11 -2 9 73.89 21.7
2 -11 9 -15.7 28.4
-9 -2 9 43.1 28.2
9 -11 -9 1.8 26.1
-11 2 -9 8.2 22.9
9 -11 -9 -0.1 18.2
-9 11 -9 3.8 13.4
-2 -9 -9 14 30.4
9 -11 -9 31.7 25.6
2 9 -9 25.4 22.7
-9 -2 9 -37.9 27.2
-11 2 -9 25.8 38.6
9 2 9 28.2 20
-9 11 -9 26.9 30
2 9 -9 47.2 34.1
11 -1 9 165.18 24.8
10 -11 9 144.99 27.1
-1 11 -9 166.48 27.8
1 -11 -9 79.39 34
-11 10 -9 121.79 24.5
11 -10 -9 88.39 21.7
-10 -1 -9 140.69 43.3
-1 -10 9 102.49 35.5
-1 11 -9 103.99 40.4
-11 10 -9 137.29 37.4
11 -10 -9 100.09 28.7
-11 1 9 88.89 29.2
-10 11 -9 148.39 37.4
-1 -10 -9 60.69 30.7
-10 -1 9 83.19 30.1
1 -11 9 43.9 31.4
10 -11 -9 135.09 25.6
-11 1 -9 94.69 25.9
10 1 9 125.89 22.4
1 10 -9 97.29 38.1
1 10 -9 143.79 26
10 -11 -9 119.69 30.1
-11 1 -9 139.89 46.1
-10 11 -9 107.99 22.9
0 11 -9 -2.8 21.1
0 -11 9 -24.9 28.2
-11 0 9 18.4 26.5
-11 11 -9 40.8 32.3
-11 11 -9 34 22.4
11 -11 9 31.7 21.9
11 -11 -9 26.2 21.4
0 11 -9 14.2 22.5
-11 0 -9 41.5 40.8
0 -11 -9 11.2 29.9
11 0 9 29.4 19.9
11 -11 -9 9.2 27.8
0 11 -9 23.6 37.6
-11 0 -9 5 20.4
-6 -6 9 -12.2 28.9
6 -12 -9 21.2 29.6
-12 6 -9 43.5 23.3
-6 12 -9 27.4 31.3
-12 6 -9 23.1 30.6
12 -6 9 45.1 18.6
6 -12 9 56.99 25
-6 12 -9 26 33.6
6 6 -9 0.3 13.8
6 6 -9 42.2 23
-6 12 -9 2.5 20.1
6 6 9 32.9 20.9
-6 -6 -9 46.1 31.7
12 -6 -9 39.9 16.3
12 -5 9 94.39 21.5
5 -12 -9 97.49 31.8
-12 7 -9 110.89 25.2
-12 7 -9 108.59 36.4
-7 -5 -9 68.79 31.3
7 -12 9 95.79 26.7
12 -7 -9 48 18.6
5 7 9 79.79 21.5
7 5 -9 95.39 26.8
-5 12 -9 62.59 36.2
5 7 -9 82.49 32.9
-12 5 -9 117.09 27.7
-5 -7 -9 47.3 30.5
5 -12 9 89.89 27.3
-7 12 -9 93.49 33.5
-7 -5 9 29.4 32.2
7 5 9 63.39 21.2
5 7 -9 109.69 26.8
-12 5 -9 116.29 39.9
-7 12 -9 19.6 33.4
7 -12 -9 119.99 35
4 8 9 33.1 19.7
-4 -8 9 -28 27.3
-8 -4 -9 14.9 27.7
8 4 -9 42.2 23.3
-12 8 -9 31.8 21.2
4 -12 -9 13.1 26.8
12 -8 -9 13.1 18.8
4 -12 -9 11.8 30.7
8 4 -9 5.5 15
8 -12 9 29.1 22.7
-4 12 -9 3.3 14.3
-4 12 -9 7.1 34.4
-12 8 -9 46.6 30.4
12 -4 9 24.2 19.1
4 -12 9 -28.5 24.7
-8 12 -9 26 27.7
4 8 -9 8.6 21.5
4 8 -9 17.1 34.1
-12 4 -9 33.3 25.9
-8 -4 9 -18.8 29.9
-4 -8 -9 -3.3 29.8
8 4 9 37.5 19.7
8 -12 -9 -3.4 17.7
-8 12 -9 3.3 14.7
-12 4 -9 29.2 36.9
4 8 -9 0.8 16.9
4 -12 9 27.7 24
8 -12 -9 2.2 28.7
-12 9 -9 59.99 30.2
9 -12 9 76.09 24.7
12 -9 -9 85.29 21
-3 -9 9 22.8 29.9
3 -12 -9 78.39 33.2
-12 9 -9 135.49 25.7
-9 -3 -9 105.19 34.2
9 3 -9 114.49 25.3
-3 12 -9 33.8 18.1
-3 12 -9 76.19 38.4
3 9 9 93.59 22.8
3 -12 -9 109.59 28.6
12 -3 9 120.69 23.4
-12 3 -9 125.69 29.1
3 9 -9 108.69 38.3
-3 -9 -9 78.49 32.5
3 9 -9 111.09 27.2
3 -12 9 102.29 23.9
-12 3 -9 90.09 39.4
3 9 -9 82.59 24.3
-9 12 -9 81.49 31.4
9 -12 -9 36.4 20.9
9 3 9 96.99 21.5
-9 -3 9 127.79 35.9
9 -12 -9 112.99 34
-10 -2 -9 60.29 35.4
10 2 -9 37.1 17.1
-2 -10 9 56.99 32.7
2 10 9 98.79 22.2
12 -10 -9 127.79 24.1
10 -12 9 74.19 23.9
-2 12 -9 128.39 24.6
2 -12 -9 68.69 33.4
-2 12 -9 76.19 24.1
-12 10 -9 134.19 24.8
12 -10 -9 67.79 28.3
-10 -2 -9 -0.7 27.8
-12 10 -9 143.79 38
-2 12 -9 142.39 41.6
2 -12 -9 117.69 26.8
10 -12 -9 163.28 35.3
10 -12 -9 210.18 35
-2 -10 -9 137.59 37.2
-10 12 -9 141.69 37.4
-10 12 -9 128.79 23.8
-12 2 -9 206.08 31.8
-12 2 -9 156.78 46.8
2 10 -9 129.09 39.9
2 10 -9 163.88 28.7
10 -12 -9 157.38 27
-10 -2 9 111.59 33.2
2 10 -9 156.48 30.5
10 2 9 145.79 23.9
-1 12 -9 64.09 22.1
11 -12 9 59.89 24.4
-12 11 -9 89.19 36.4
-1 12 -9 69.99 26.1
-1 12 -9 77.29 39.8
12 -1 9 94.79 22.2
-12 11 -9 82.29 24
12 -11 -9 54.09 28
-11 -1 -9 53.89 37.3
-1 -11 9 41.6 33.2
1 -12 -9 62.99 31.3
-12 1 9 4.9 24.2
11 1 -9 61.79 18
-11 -1 -9 29.6 18.1
1 11 9 108.49 25.3
1 -12 -9 48.8 20.2
12 -11 -9 58.29 20.6
11 1 9 98.19 22.4
-12 1 -9 87.09 43.5
-11 12 -9 144.69 24.3
1 11 -9 164.48 44
12 -11 9 72.89 18.6
-1 -11 -9 127.29 36.5
-11 12 -9 99.79 34.6
11 -12 -9 89.09 26.8
1 11 -9 132.89 26.2
-12 1 -9 137.99 29.7
11 -12 -9 147.29 25.9
-11 -1 9 95.39 30.8
1 11 -9 98.39 27.5
11 -12 -9 151.28 31.9
1 -12 9 61.79 32
0 12 -9 -11.8 34.8
12 -12 -9 -25.7 19.2
0 -12 -9 8.9 28
0 12 9 -5 22.7
-12 0 -9 7.5 38.5
0 12 -9 -1.8 20.8
12 0 9 2.6 18.1
-12 0 9 12.7 25.8
12 -12 -9 7.6 27.8
0 12 -9 -15.1 24.7
-12 12 -9 8.5 30.6
-12 12 -9 15.6 22.3
12 0 -9 28.9 17.1
12 -12 9 14.4 21
12 -12 -9 11.1 22.4
-12 0 -9 4.5 21.8
0 -12 9 -1.9 30.6
-6 -7 9 15.9 29.3
7 -13 9 48.4 23.7
-13 7 -9 73.09 36.1
-6 13 -9 26.5 34.2
7 6 -9 76.69 24.1
7 6 -9 109.09 26.3
13 -7 -9 69.59 19.9
-13 7 -9 82.99 24.4
-7 -6 -9 80.79 33.3
6 7 9 90.89 23.5
6 -13 -9 104.89 32.5
13 -6 9 84.09 21.1
-7 13 -9 2.8 17
-6 -7 -9 79.49 34.2
-7 -6 9 27.3 30.4
-6 13 9 11 17.6
-7 13 -9 69.89 32.8
-13 6 -9 53.19 34
7 6 9 59.29 21.7
6 7 -9 52.99 23.8
6 7 -9 98.89 27.6
13 -7 9 81.79 20.6
-13 6 -9 105.09 26.5
6 -13 9 36.6 24.5
13 -6 -9 46.9 16.8
7 -13 -9 43.5 29
-7 13 -9 28.6 33.4
-13 8 -9 17.6 20.6
-5 13 -9 41.4 36.7
-13 8 -9 9.3 29.9
13 -5 9 28 19.3
-5 13 -9 0.8 17.6
-5 -8 9 -9.7 27
-5 13 -9 3.4 13.9
8 -13 9 13.1 21.9
13 -8 -9 37.9 19.2
5 -13 -9 39.2 27.2
-8 13 9 18.2 21.6
8 5 -9 12.5 23.2
8 5 -9 24.7 22.2
-8 -5 -9 27.6 30.9
5 8 9 37.1 21.2
-13 5 -9 58.79 26.8
8 5 9 24.6 19.6
5 8 -9 21.1 23.8
5 8 -9 25.5 22.6
-5 13 9 6 15.8
13 -5 -9 8 11.3
-5 -8 -9 19.7 30.9
-8 13 -9 -1.9 35.3
-8 13 -9 22.4 28.3
5 -13 9 28.7 23.5
8 -13 -9 -3.7 27.8
-8 -5 9 5.4 30.7
-8 13 -9 4.1 16
-8 -5 9 39.2 32.5
-13 5 -9 22.5 35.1
8 -13 -9 12.6 17.6
5 8 -9 18.5 33.3
13 -8 9 42.3 19.2
-13 9 -9 19.6 20.4
-4 13 -9 30.5 22.8
-4 13 -9 11.3 34.7
-9 -4 -9 7.7 29.3
4 -13 -9 60.09 27.7
-4 13 -9 4.5 14.2
4 9 9 50.99 20.7
13 -9 -9 47.2 20.5
-4 -9 9 11.1 29.9
13 -4 9 56.79 19.9
13 -9 -9 14.6 21.7
9 4 -9 37 20.5
9 -13 9 37.8 24.5
-13 9 -9 47.8 33.3
4 9 -9 45.9 24
-9 13 -9 7.3 13.6
-13 4 -9 32.8 37.3
-13 4 -9 64.79 26.4
4 9 -9 65.69 25.4
4 -13 9 35.8 24.1
4 9 -9 37 35.1
-9 13 -9 44.7 30.2
-4 -9 -9 20 28
-9 -4 9 79.99 33.7
9 -13 -9 43.3 31.1
4 -13 9 4.3 22.8
-4 13 9 4.2 15.2
9 -13 -9 34 20.9
-9 -4 9 22.4 29.1
9 4 9 59.19 20.6
-3 13 -9 236.78 46.9
10 -13 9 173.18 29.9
-13 10 -9 176.38 40
-3 -10 9 95.49 34.2
-3 13 -9 141.59 29.7
-13 10 -9 262.77 30.4
3 10 9 155.38 25.4
13 -10 -9 221.58 28.1
13 -10 -9 193.68 34
13 -3 9 199.18 25.9
10 3 -9 131.59 25.7
3 -13 -9 171.48 29.5
-3 -10 -9 164.78 36
10 -13 -9 139.79 24.1
3 -13 9 91.79 31.3
-10 13 -9 95.49 31
-3 13 9 83.69 21.4
3 -13 9 215.68 29.7
3 10 -9 153.68 41.2
-11 -2 -9 9.1 53.29
-11 -2 -9 -4.9 15.1
-2 13 -9 1.6 23.9
2 -13 -9 15.3 27.4
-13 11 -9 27.6 31.2
13 -11 -9 6.1 27.3
-2 13 -9 42.3 39.1
-2 13 -9 11.5 20.1
2 11 9 42 20.9
2 -13 -9 24.1 22.4
13 -11 -9 -0.5 19.6
-13 11 -9 25.6 21.3
11 -13 9 11.1 21.8
11 2 -9 27.6 21.1
-13 2 9 7 27.9
13 -2 9 14.4 19.1
-2 -11 9 5.2 29.7
13 -2 -9 7.4 12.4
2 11 -9 16.5 21.8
11 -13 -9 -15.6 18.8
2 -13 9 -1.4 27.5
2 -13 9 18.8 16.2
11 2 9 30.2 19.9
11 -13 -9 23.1 28.6
-13 2 -9 -1.6 23.2
2 11 -9 -12.9 23.4
-13 2 -9 7.8 40.9
2 11 -9 52.99 39.8
-11 13 -9 1.6 16.5
-11 13 -9 -2.3 25.9
11 -13 -9 -0.2 27.3
-11 -2 9 7.9 27.3
-2 13 9 16.5 20.5
-2 -11 -9 35.3 28.3
1 -13 -9 63.49 20.9
-13 12 -9 67.59 23.8
13 -12 -9 32.2 20.5
13 -1 9 62.39 21.9
-1 13 -9 61.89 26.4
-1 -12 9 23.4 29.8
1 12 9 56.09 20.2
12 1 -9 51.79 19.8
-12 -1 -9 6.1 34.1
1 -13 -9 31.9 27.5
13 -12 -9 53.69 28.2
-1 13 -9 36.5 35.2
-12 -1 -9 30.4 21.2
-1 13 -9 47.7 21.6
-13 12 -9 22.2 30.2
12 -13 9 56.79 24
12 1 9 61.89 20.1
1 12 -9 67.49 27.6
12 -13 -9 42.9 20.8
12 -13 -9 30.1 26
-1 -12 -9 30 26.8
-13 1 -9 66.89 25.4
12 -13 -9 21.1 26.1
-12 13 -9 49.9 21.1
-1 13 9 46.6 23
-13 1 -9 39.5 40.8
13 -12 9 41.9 19.2
13 -1 -9 49.1 18.1
-12 -1 9 18.3 26.9
1 -13 9 26.2 29.7
1 12 -9 26.5 37.2
1 12 -9 48.6 21.9
0 13 9 285.27 35.2
0 -13 -9 154.88 34.4
13 0 9 272.07 35.6
0 13 -9 305.67 40
0 13 -9 222.28 47
0 13 -9 244.38 36.9
-13 0 -9 127.49 44.9
13 -13 9 174.98 28.1
-13 13 -9 294.37 36.8
0 -13 9 215.38 43
13 0 -9 223.28 31.6
-13 0 -9 280.47 38.3
0 13 9 251.37 39.2
13 -13 -9 231.18 37.8
7 -14 9 36.2 23.5
-7 -7 -9 51.59 31.4
-7 14 -9 12.9 31.7
7 7 -9 99.79 26.1
14 -7 -9 66.39 19.4
-7 14 9 60.99 27
-7 -7 9 32.2 31
7 7 -9 76.29 25
-7 -7 9 112.59 38.1
7 7 9 47.5 20.3
7 -14 -9 52.69 26.9
14 -7 9 65.69 21.1
-14 7 -9 88.09 24.7
-7 14 -9 57.09 23.8
-14 7 -9 66.69 36.5
6 -14 -9 13.9 23.6
-8 14 9 35.3 26.2
14 -8 -9 5.4 17.1
8 6 -9 12.9 22.5
-6 14 -9 -1.9 22.7
-8 -6 -9 18.7 30.2
14 -6 9 -7.1 18
6 8 9 18.8 19.9
-6 14 -9 14.5 34.6
-14 8 -9 8.8 20.7
8 6 -9 21.1 24.7
-6 -8 9 -3.7 28.2
8 -14 9 3.3 21.3
-14 8 -9 16.7 32
-6 14 9 24.7 23.7
8 -14 -9 16.7 17.2
8 6 9 11 19
14 -6 -9 24 14.6
-14 6 -9 36.3 37.2
-14 6 -9 -4.3 21.5
-8 -6 9 -8.7 29.6
-8 -6 9 23.5 33.2
6 -14 9 2.3 23.1
-8 14 -9 0.2 18.8
6 8 -9 -2.8 21.3
-6 -8 -9 -2.4 26.4
-8 14 -9 2.1 31.7
14 -8 9 14.3 20.6
8 -14 -9 1.5 24.8
6 8 -9 19.3 23.3
-9 14 9 29.2 26.8
-9 -5 -9 22.3 29
14 -5 9 38.7 17.7
5 9 9 37.4 20.4
-5 14 -9 23.7 33.3
9 -14 9 46.7 24.7
5 -14 -9 36.7 23.7
-14 9 -9 43.3 32.2
14 -9 -9 26.4 19.7
-5 -9 9 24.8 30.5
-5 14 -9 45.7 24.8
-14 9 -9 27 20.7
9 5 -9 46.7 22.2
-9 -5 9 0.7 24.7
5 9 -9 27.1 21.6
-5 14 9 15.7 22.4
-9 -5 9 46 33
9 -14 -9 41.1 28.3
14 -5 -9 1.8 16.7
5 9 -9 42.7 24.4
9 -14 -9 38.4 19.2
-5 -9 -9 44.8 29.7
-14 5 -9 80.89 43.2
14 -9 9 49.8 21.6
-14 5 -9 47.9 25.7
9 5 9 60.29 20.6
5 -14 9 37.6 24.8
-9 14 -9 -4.7 21.9
-4 14 -9 56.29 36.1
4 10 9 60.39 20.1
10 4 -9 54.19 23.6
4 -14 -9 53.19 23.1
10 -14 9 34.6 22.2
14 -10 -9 4.3 26.7
-14 10 -9 55.89 33.4
14 -10 -9 53.79 21.5
-10 14 9 62.19 29.2
14 -4 9 73.49 21
-4 14 -9 48 24.7
-14 10 -9 38.7 20.6
-4 -10 9 25.9 30.5
-10 -4 9 53.39 30.8
4 10 -9 32.8 37.2
-14 4 -9 54.69 38.5
14 -10 9 33.1 20.2
10 -14 -9 38.6 19.7
4 -14 9 43.8 23.8
-4 -10 -9 29.4 27.2
4 10 -9 49.6 22.3
4 10 -9 34.6 25.2
-14 4 -9 65.79 28.1
10 4 9 53.09 20.6
10 -14 -9 38.4 27.8
-4 14 9 45.9 24.2
-3 14 -9 50.49 25.5
-14 11 -9 56.19 22
11 3 -9 78.89 24.9
-14 11 -9 19.6 29.2
-3 -11 9 27.7 30.9
14 -11 -9 23.6 27.8
3 -14 -9 45.2 22.1
-3 14 -9 57.29 35.4
14 -11 -9 38 19.4
11 -14 9 31.1 22.4
3 11 9 56.59 19.8
14 -3 9 44.1 20.1
-3 -11 -9 17.7 26.5
-11 -3 9 25.5 29.5
11 -14 -9 2.7 17.6
3 11 -9 14.2 20.8
11 3 9 45.3 19.6
-3 14 9 33.6 23.6
3 -14 9 22.7 22.6
3 11 -9 23.4 35.3
-14 3 -9 37 26.6
-11 14 -9 5.7 14.4
3 -14 9 6.5 33.7
3 11 -9 37.4 23.4
-14 3 -9 38.7 41.1
11 -14 -9 -8.1 27.9
-14 12 -9 -4.1 40.7
2 12 9 102.59 21
-14 12 -9 128.19 24.7
2 -14 -9 140.89 25.5
-12 -2 -9 88.79 20.7
14 -2 9 125.99 21.9
2 12 9 44.4 20.9
12 -14 9 116.09 25.9
-2 14 -9 48.4 18.4
-2 14 -9 101.69 39.7
-2 14 -9 105.29 25.6
14 -12 -9 78.89 21
14 -12 -9 168.78 32.7
-2 -12 9 70.39 32
12 2 -9 111.09 22.8
2 12 -9 187.78 30
-12 -2 9 112.39 34.1
12 -14 -9 158.38 33.5
2 12 -9 117.69 43.8
12 -14 -9 226.38 33
12 2 9 101.79 21.3
14 -2 -9 136.99 21.8
-2 -12 -9 139.19 34.8
2 12 -9 158.78 26.8
-2 14 9 88.49 26.1
-14 2 -9 108.39 43.6
-1 -13 9 45.6 29.7
1 13 9 79.09 20.6
14 -13 -9 132.69 29.6
-1 14 -9 130.99 26.6
-1 14 -9 52.19 34.4
1 -14 -9 89.89 20.7
1 13 9 76.59 25.2
-13 -1 -9 114.99 24
13 1 -9 136.39 23.1
14 -1 9 147.29 24
-14 13 -9 106.19 24.1
-1 14 -9 100.29 22
14 -13 -9 112.99 23.5
13 -14 9 122.89 25.4
13 -14 -9 116.69 24.3
-1 -13 -9 94.09 29.2
14 -13 9 85.79 22.7
13 -14 -9 176.08 30.3
14 -1 -9 112.09 21.3
1 13 -9 77.29 39
-1 14 9 83.59 25.6
13 1 9 107.49 22
-14 1 -9 77.89 24.1
-14 1 -9 49.8 38.6
1 13 -9 90.59 25.9
13 -14 -9 110.99 29.1
1 13 -9 89.89 23.3
0 14 -9 61.39 24.2
14 -14 -9 22 20.5
14 -14 -9 61.09 26.5
0 14 9 20.8 15.6
0 14 9 27.7 23.3
14 0 9 45.1 18.1
-14 14 -9 8.4 14.6
14 -14 -9 29 18.8
0 14 -9 -9.9 32
-14 0 -9 35.6 20.7
0 -14 9 -20 23.3
14 0 -9 19.1 17.7
0 14 -9 20.4 18.8
14 -14 9 17.2 20.1
15 -8 -9 9.7 17.7
15 -7 9 38.7 20.3
-7 15 -9 6.1 21.4
8 7 -9 26.2 23
7 -15 -9 9.2 22.9
-15 8 -9 5.3 20.6
-7 -8 9 -6.7 29.6
-8 -7 -9 11.2 26.8
7 8 9 17.1 18.3
-8 15 9 13.9 25.7
8 -15 9 17.7 22.2
-15 8 -9 26.2 34.4
-7 15 -9 2.2 33
-7 -8 9 1.8 32.6
8 7 9 18.1 18
7 8 -9 23.6 21.8
8 -15 -9 4.1 13.8
-7 15 9 16.7 22.9
7 -15 9 32.6 23.1
-8 -7 9 12.2 33.2
-7 -8 -9 6 26.8
8 -15 -9 28.3 23.7
-15 7 -9 4.4 34.1
-15 7 -9 5.3 20
-8 -7 9 -33.4 26.6
-8 15 -9 8.6 22
15 -8 9 32.8 19.8
15 -7 -9 8.6 16.5
15 -6 9 21.1 19.4
-6 -9 9 7.2 30.3
-9 15 9 7.2 25.6
9 -15 9 39.5 23.8
-6 -9 9 -5.6 28.7
-9 -6 -9 3 25.6
-6 15 -9 11.1 31.2
9 6 -9 0.7 20.6
6 9 9 18.4 18.7
-15 9 -9 5.2 31.8
-6 15 -9 0.4 21.2
6 -15 -9 7.6 21.4
15 -9 -9 10 16.7
-15 9 -9 6.4 19.2
15 -9 9 20.7 21.8
9 6 9 23.6 18.1
-9 -6 9 28.8 32.9
-6 -9 -9 15.3 25.9
-15 6 -9 16 35.6
6 9 -9 19.5 24.3
9 -15 -9 28.1 25.2
6 9 -9 17.9 21
-6 15 9 23.9 23.1
9 -15 -9 12 17.2
-15 6 -9 4.8 22.4
15 -6 -9 1.9 12.3
6 -15 9 20.3 23
-9 15 -9 14 22.9
-5 -10 9 54.89 33.3
5 -15 -9 41.7 21.7
-5 -10 9 8.1 28.8
15 -10 -9 12.5 26.4
-15 10 -9 27 20
-5 15 -9 17.8 31.8
10 -15 9 63.99 24
-5 15 -9 31.9 22.8
15 -10 -9 56.09 21.1
15 -5 9 29.5 19.7
-10 15 9 27.4 26.4
10 5 -9 47 22.4
-15 10 -9 40.4 32.8
5 10 9 15.8 18
5 10 -9 53.09 22.5
-15 5 -9 66.49 42.8
-5 15 9 34.2 23.9
10 -15 -9 11.2 17.3
-5 -10 -9 32.9 29.1
-10 -5 9 35.5 30.1
-10 15 -9 42.1 23.7
5 -15 9 50.79 24.8
10 5 9 41.5 19.2
-15 5 -9 60.29 25.8
5 10 -9 48.8 24.4
15 -10 9 42.9 22.5
10 -15 -9 54.69 26.5
15 -4 9 28.2 17.6
-4 15 -9 29.9 23.4
4 11 9 29.6 16.9
-15 11 -9 6.6 27.4
-4 15 -9 -2.7 30.9
-15 11 -9 25.7 20.5
-4 -11 9 12.8 27.9
4 -15 -9 11.6 20.5
11 -15 9 28.6 23.2
4 11 9 -5.4 15.1
15 -11 -9 32.3 28.1
-11 15 9 29.8 27.6
-4 -11 9 14.4 28.5
15 -11 -9 17.9 21.1
11 4 -9 35.3 22
4 -15 9 57.49 24
-15 4 -9 22.7 37.1
-4 -11 -9 50.19 28.4
4 11 -9 31.2 21.6
-11 15 -9 1.4 17.3
4 11 -9 43 35
4 11 -9 27.9 22.8
15 -11 9 54.09 22.9
11 -15 -9 22.7 17.2
-4 15 9 34.4 23.5
-15 4 -9 34.5 24.8
11 4 9 19.8 17.6
11 -15 -9 6.7 27.6
-11 -4 9 24.3 29.8
15 -12 -9 -10.7 19.2
12 3 -9 8.5 19.9
15 -12 -9 -32.9 25.2
12 -15 9 21.3 21.2
3 12 9 4 13.1
-12 -3 -9 -0.9 12.2
-3 -12 9 -15.1 25.8
-3 15 -9 -9.3 20.5
3 12 9 3.1 23.3
15 -3 9 4.5 17.3
-3 15 -9 8.5 31.3
3 -15 -9 5.1 20.2
-15 12 -9 5.5 20.4
12 3 9 27.4 18.9
3 12 -9 0.4 33.8
15 -12 9 -8.7 13.1
-12 -3 9 4.1 26
12 -15 -9 -18.4 25.4
3 -15 9 16.7 20.4
-3 15 9 -1.9 21.7
-12 15 -9 -4.7 17.2
3 12 -9 15.5 21.7
12 -15 -9 5.3 16
-3 -12 -9 39.6 26.9
3 12 -9 12.9 19.8
-15 3 -9 8.1 23.3
-15 3 -9 14.4 36.5
15 -13 -9 53.99 19.3
-15 13 -9 104.09 23.3
-2 15 -9 84.09 23.7
-2 15 -9 4.9 32
2 13 9 42.9 24.3
15 -2 9 54.89 17.8
15 -13 -9 91.69 27.5
13 -15 9 119.59 24.8
13 2 -9 89.39 21.8
-13 -2 -9 49.2 18.5
2 -15 -9 59.39 20.7
-2 -13 -9 44.5 23.8
13 -15 -9 56.59 18.2
2 13 -9 80.59 20.9
13 -15 -9 85.39 28.2
2 13 -9 103.89 24.5
13 2 9 103.09 21.9
-2 15 9 92.49 25
-15 2 -9 -1 35
2 13 -9 0.4 33.4
-15 2 -9 110.49 25.9
15 -14 -9 210.08 31.1
14 -15 9 169.58 25.8
14 1 -9 200.78 30.2
15 -1 9 193.78 30.9
-1 15 -9 183.98 27.4
-14 -1 -9 209.18 30.5
1 14 9 170.68 29.2
15 -14 -9 193.28 32.4
-15 14 -9 125.09 21.3
15 -14 9 89.39 20.9
14 1 9 181.08 24.6
1 14 -9 158.68 23.6
14 -15 -9 209.08 26.9
1 14 -9 223.18 29
14 -15 -9 121.59 28.8
-15 1 -9 127.09 24.7
-1 15 9 145.89 28
15 -15 -9 153.88 24.2
0 15 9 186.38 29.1
0 15 -9 250.67 33.9
-15 0 -9 234.98 34.7
15 -15 9 173.28 24.1
15 -15 -9 243.98 30.8
15 0 -9 223.58 31.3
15 0 9 199.48 31.1
16 -8 9 -1.5 20.1
-8 16 -9 10.7 20.8
8 -16 9 16.3 21.1
-8 -8 -9 6.2 22.8
8 8 9 20.5 18
-8 -8 9 -8.3 39.5
-16 8 -9 -12.3 32.3
16 -8 -9 13.7 16.6
8 -16 -9 -2.7 20.1
-8 -8 9 -2.5 29.4
8 8 -9 9.8 21.6
-16 8 -9 1.4 20.7
8 -16 -9 3.6 8.7
-8 16 9 23.3 23.4
9 7 -9 9.1 21.1
-7 -9 9 8.9 30.7
7 -16 -9 47.1 22.8
16 -9 -9 12.7 17.8
16 -7 9 55.19 20.9
-16 9 -9 -5.6 27.9
-16 9 -9 14.3 19.8
-7 -9 9 -29.1 23.5
7 9 9 25 16.5
-9 16 9 21.6 24.1
-7 16 -9 15.3 20.9
9 -16 9 29.3 21.8
-7 -9 -9 14.7 23.1
7 -16 9 43.4 21.4
-16 7 -9 31.5 22
7 9 -9 40 22.8
-9 16 -9 12 21.2
9 -16 -9 19 14.6
16 -9 9 36 21.2
-9 -7 9 2.1 28.9
9 7 9 33.5 18.4
9 -16 -9 51.09 23
-16 7 -9 40.2 36.3
16 -7 -9 3.9 12
-7 16 9 38.6 23.4
16 -10 -9 3.4 21.6
-10 16 9 9.5 24.2
-16 10 -9 35.9 20
-6 16 -9 14.2 21.9
-6 -10 9 -2.6 27
10 -16 9 28.3 21.8
6 -16 -9 18 20.3
16 -10 -9 25 17.3
10 6 -9 18.4 21.2
-16 10 -9 -0.1 34.7
-6 -10 9 -29.3 24.5
16 -6 9 42.3 19.2
6 10 9 3.6 13
-16 6 -9 3.2 36.8
-10 16 -9 33.6 23
16 -10 9 13.5 21.6
-10 -6 9 38 31.1
-16 6 -9 16.6 21.9
10 -16 -9 17.1 15.4
6 -16 9 13.5 20.9
-6 -10 -9 15.4 24.6
10 -16 -9 11.5 21.8
16 -6 -9 2.7 15.1
10 6 9 17.9 18.3
-6 16 9 20.6 22.7
6 10 -9 17 22.3
11 -16 9 15.9 20.3
-5 -11 9 -31.3 24.8
-11 16 9 -11.4 24.9
16 -11 -9 8 19.2
16 -5 9 9.8 19.6
11 5 -9 3.3 21.4
-5 16 -9 7.6 21
5 11 9 -0.5 13
5 11 9 -7 15.3
16 -11 -9 -28.1 25.4
5 -16 -9 9.2 19
-16 11 -9 3.6 19.5
-16 5 -9 9 23.5
11 -16 -9 1.8 23.5
-5 -11 -9 11.6 23
16 -11 9 0.5 22
5 -16 9 6.8 20.8
-11 -5 9 -10.2 27
5 11 -9 2.1 19.7
-11 16 -9 3.9 21.4
11 -16 -9 2.6 14.8
11 5 9 15.7 16.3
-16 5 -9 -2.9 35
-5 16 9 14 22.3
-16 12 -9 13.3 18.8
4 12 9 0.6 21.7
16 -12 -9 1 19.9
-12 16 9 22.8 24.4
4 -16 -9 -1.5 18.1
-4 16 -9 14.2 19.9
16 -4 9 5.2 18.2
12 -16 9 18.9 20.5
12 4 -9 6.1 19.9
16 -12 -9 10.1 25.1
-4 -12 9 -19.4 22.7
16 -12 9 32.9 20.2
-4 -12 -9 -2.5 20.8
4 -16 9 12.9 20.3
-16 4 -9 2.5 33.3
-12 16 -9 14 20.1
-12 -4 9 -5 24.1
12 -16 -9 0 24.1
12 -16 -9 2 15
4 12 -9 18.8 20.8
-4 16 9 16 21.7
12 4 9 16.9 17.5
-16 4 -9 14.5 23.7
13 -16 9 157.78 25
-13 16 9 176.78 32.7
3 -16 -9 105.39 23.1
-3 16 -9 163.78 26.2
13 3 -9 136.09 23.2
-16 13 -9 120.39 24.2
16 -13 -9 200.68 29
16 -3 9 158.98 24.5
16 -13 -9 158.58 30.4
3 13 9 95.69 25.7
13 -16 -9 75.59 25.9
-3 16 9 99.39 24.3
-16 3 -9 145.89 27.5
3 13 -9 105.49 23.8
13 -16 -9 47.2 16.8
-13 16 -9 32.9 18.6
13 3 9 77.59 19.1
16 -14 -9 31.5 18
16 -2 9 38.3 18.6
14 2 -9 36.3 18.6
-16 14 -9 21.9 14.5
2 -16 -9 26.2 15.6
14 -16 9 44.7 18.9
16 -14 -9 47.4 25.1
2 14 9 33.5 24.1
-2 16 -9 36.2 19.3
-14 -2 -9 28.9 17.2
-14 16 -9 -4.7 24
-2 16 9 2.6 11.6
-16 2 -9 35.5 21.2
14 2 9 36.7 17.2
14 -16 -9 17.7 16.5
14 -16 -9 18.8 24.4
-2 16 9 15.5 21.6
2 14 -9 55.19 20.8
1 15 9 5.4 22.3
16 -15 -9 12.2 17
15 1 -9 18.5 17.8
15 -16 9 9.6 16.1
16 -1 9 30.2 17.8
-1 16 -9 12.1 18.5
-15 -1 -9 16.1 16.7
16 -15 -9 34.8 22.2
15 -16 -9 21.8 17.5
-1 16 9 23.5 21.3
1 15 -9 32.1 18
-16 1 -9 39.9 19.5
15 -16 -9 32 16.9
15 1 9 34.3 17.7
0 16 -9 8.3 16.5
16 -16 -9 18.9 21.8
0 16 9 -2.5 19.9
16 -16 -9 10.6 15.5
16 -16 9 10.4 14.3
16 0 9 14.2 17.3
-16 0 -9 23.8 17.3
9 -17 9 105.09 22.9
9 8 -9 53.49 21.3
-17 9 -9 57.19 21.8
-9 17 9 43.6 22.6
17 -8 9 98.39 23.7
-8 17 -9 56.79 22
17 -9 -9 48.1 16.6
8 -17 -9 55.49 20.2
9 -17 -9 100.09 23.5
17 -8 -9 2.4 18.8
8 9 -9 57.79 22.3
17 -9 9 71.09 22.7
-17 8 -9 56.39 23.5
-9 17 -9 45.1 20
-9 -8 9 -4.6 47.2
-8 17 9 58.49 23
8 -17 9 53.39 20.1
9 -17 -9 37.6 13.9
17 -10 -9 -3 16.9
10 7 -9 2.3 20.9
10 -17 9 -2.7 18.1
-10 17 9 -3.5 22.3
-7 17 -9 2.5 19.8
-17 10 -9 4.8 19.1
7 -17 -9 -6.4 17.2
17 -7 9 7.9 19.9
10 -17 -9 -2.2 19
7 10 -9 -7.4 18.5
7 -17 9 12.3 19
10 -17 -9 4.8 13
10 7 9 9 14.5
-10 17 -9 -3.3 19.6
-17 7 -9 -6.9 20.1
-7 17 9 -6.1 20.7
-10 -7 9 -5 42.8
17 -10 9 11.2 21.4
-6 17 -9 53.19 21.1
6 -17 -9 42.1 18.9
17 -11 -9 53.69 18.6
-17 11 -9 64.19 20.6
-11 17 9 47.4 24.7
17 -6 9 81.29 22.3
11 6 -9 71.39 22.3
17 -11 -9 31.5 25.7
11 -17 9 65.49 19.5
-6 17 9 59.99 23
-17 6 -9 89.19 24.2
6 11 -9 23.7 19.7
11 -17 -9 37.8 15
6 -17 9 34 19.7
-11 17 -9 31.8 20.8
11 -17 -9 52.39 21.7
17 -11 9 65.99 21.7
11 6 9 20.3 16.7
-12 17 9 7.2 23.5
12 5 -9 40.1 20.6
17 -12 -9 22.4 18
17 -12 -9 6.8 24.5
-17 12 -9 15.8 18.3
-5 17 -9 35.8 20.2
5 12 9 7.2 20.5
5 -17 -9 21.3 17.7
12 -17 9 23.4 17.8
17 -5 9 29.4 19.9
5 12 -9 37.1 21.1
17 -12 9 7.8 20.3
-12 17 -9 41.5 21.4
-17 5 -9 28.2 22.8
12 5 9 27.9 17.1
17 -5 -9 2.9 14.9
12 -17 -9 28.3 21.9
-5 17 9 38 21.2
5 -17 9 40.9 20.2
12 -17 -9 19.3 13.8
13 4 -9 36.2 19.1
17 -13 -9 13.2 24.5
13 -17 9 43.5 18.1
4 -17 -9 16.5 17.8
4 13 9 29 21.8
-4 17 -9 31.5 18.6
-17 13 -9 19.2 19.2
17 -4 9 40 18.5
-13 17 9 61.99 26.4
17 -13 -9 43.2 21
-17 4 -9 70.49 23.9
17 -13 9 31.1 18.8
4 13 -9 31.2 19.5
13 -17 -9 36.1 14.9
13 -17 -9 25.6 22.7
4 -17 9 35.7 18.6
-4 17 9 42.1 21.3
-13 17 -9 30.6 20.4
13 4 9 38.2 17.2
3 -17 -9 64.59 19.5
3 14 9 68.19 24
17 -14 -9 39.3 20.4
14 3 -9 80.19 19.9
-14 17 9 57.89 25.1
-3 17 -9 57.09 19.4
14 -17 9 60.49 18.7
-14 -3 -9 23.2 12.6
17 -3 9 89.49 20.6
17 -14 -9 60.99 24.9
14 -17 -9 44.7 23.1
-14 17 -9 30.1 17.7
14 3 9 13.6 15.3
14 -17 -9 57.99 16.4
3 14 -9 67.49 19.8
-17 3 -9 57.99 21.1
-3 17 9 41.3 21.1
2 15 9 40.5 21
2 -17 -9 16.6 16.6
17 -15 -9 42.6 21
-2 17 -9 49.8 18.6
15 2 -9 52.39 18.2
17 -2 9 39.3 17.8
-15 -2 -9 25.5 15.4
15 -17 9 32.9 15.8
17 -15 -9 83.09 22.5
-15 17 9 46.7 24.2
15 2 9 46.1 17
15 -17 -9 50.09 15.7
-17 2 -9 70.49 20.3
15 -17 -9 77.19 23.7
-2 17 9 56.29 21.2
2 15 -9 37.1 17.3
16 -17 9 49.99 16.2
17 -16 -9 84.89 23.3
17 -1 9 60.19 19.2
-16 17 9 36.7 22.3
-1 17 -9 65.89 17.7
17 -16 -9 45.8 17.9
-16 -1 -9 43.5 15.9
1 16 9 50.69 19.9
-17 1 -9 48.7 17.8
-1 17 9 49 20.7
1 16 -9 58.79 17.6
16 -17 -9 42.7 16
16 1 9 35.4 16.7
-17 0 -9 58.69 17
-17 0 9 61.49 18.3
0 17 9 47.8 19.9
0 17 -9 47.7 16.4
17 0 9 26 16.4
17 -17 -9 51.59 16.3
9 -18 9 -10.2 16.6
-9 18 9 14.9 20.2
18 -9 9 -6.5 20.4
9 9 -9 -11.7 17.6
-9 18 -9 -3.8 17.4
9 -18 -9 2.8 9.6
-18 9 -9 10.7 19.1
9 -18 -9 1.4 15.9
-10 18 9 53.79 22.2
18 -10 -9 11.2 12.9
-8 18 -9 43 19.7
10 8 -9 33.4 21.6
18 -8 9 49.99 21.4
-18 10 -9 30.2 19
10 -18 9 61.09 18.7
8 -18 -9 38 18.2
10 -18 -9 13.5 12.3
10 -18 -9 48.7 18.6
-18 8 -9 33.1 20.2
-10 18 -9 42.3 19.1
8 10 -9 33.9 19.5
18 -10 9 29.5 19.9
-8 18 9 32.9 20.8
8 -18 9 38.2 19
18 -11 -9 10.8 16.5
11 -18 9 20.1 16.4
-7 18 -9 20.8 18.3
-18 11 -9 0.6 17.7
7 -18 -9 10.2 17.1
7 11 9 -3.3 15
-11 18 9 17.5 21.6
18 -11 -9 17.7 28.2
18 -7 9 6.2 18.4
11 7 -9 18.4 20.4
-7 18 9 23.1 20.2
11 -18 -9 21.4 17.8
18 -11 9 11.6 19.1
7 -18 9 23.5 18.9
-18 7 -9 31.3 21.3
7 11 -9 25.4 19.4
-11 18 -9 13.3 18.9
11 -18 -9 9.1 12.2
6 12 9 16.7 17.1
12 -18 9 86.59 19.2
18 -12 -9 48 18.1
12 6 -9 38.1 19.5
-18 12 -9 47.2 18.5
18 -12 -9 33 25.4
18 -6 9 58.09 19.4
6 -18 -9 48.9 17.9
-12 18 9 46.4 22.7
-6 18 -9 68.19 19.7
-12 18 -9 31.1 18.3
18 -12 9 21.6 19.8
12 -18 -9 24.4 12.6
6 -18 9 23.8 18.5
-6 18 9 24.7 19.7
6 12 -9 29.4 17.7
12 -18 -9 47.1 20.9
-18 6 -9 51.19 21
12 6 9 -6.8 10.8
18 -13 -9 92.99 19.5
-18 13 -9 90.79 20.5
5 13 9 84.19 23.3
13 5 -9 132.39 21.7
18 -5 9 164.58 23.8
18 -13 -9 95.89 26.7
5 -18 -9 111.59 20.8
-5 18 -9 145.29 22.9
-13 18 9 121.19 25.7
18 -13 9 88.39 21.9
13 -18 -9 83.39 16.3
13 -18 -9 133.09 24.1
5 -18 9 120.99 22.4
5 13 -9 150.68 23.3
-5 18 9 99.49 22.9
-13 18 -9 69.69 21.2
-18 5 -9 166.28 26.5
-18 14 -9 3.1 11
4 14 9 20.6 19.7
-14 18 9 8.5 21.4
14 4 -9 23.7 17.3
-4 18 -9 19.7 16.3
18 -14 -9 19.7 18.2
18 -14 -9 20.6 22.2
14 -18 9 18.3 16
4 -18 -9 21.1 16.9
18 -4 9 15.4 17.3
14 -18 -9 37.1 13.5
-18 4 -9 42.7 19.3
14 -18 -9 26.9 19.6
-14 18 -9 26.5 18.6
-4 18 9 17.5 19.2
14 4 9 15.3 14.2
18 -14 9 1 13.2
4 14 -9 43.1 17.6
18 -15 -9 30.5 22.5
-3 18 -9 38.5 18
3 -18 -9 9.9 9.1
3 15 9 31.5 19.9
18 -15 -9 11.1 17.2
18 -3 9 13.1 17
-15 18 9 17.1 21.6
15 3 -9 15.8 16.9
15 -18 9 16.1 16.5
15 -18 -9 28 19.6
15 3 9 18.3 14.3
15 -18 -9 34.7 13.4
-18 3 -9 35.5 17.6
-15 18 -9 2.2 14.4
3 15 -9 21.1 15.8
-3 18 9 24.5 18.2
18 -16 -9 15.5 17.5
16 -18 9 -1.5 14.2
-2 18 -9 4.8 14.2
18 -2 9 2.5 17
-16 18 9 4.2 20.1
2 16 9 27.8 19.4
-16 -2 -9 13.4 12.4
2 16 -9 11.3 14.3
-18 2 -9 21.3 16.2
16 -18 -9 13.8 12.2
16 2 9 7.6 14.3
-2 18 9 10.6 17.8
-1 18 -9 26.9 14.9
1 17 9 25.5 17.6
18 -1 9 24 16.8
-17 -1 -9 22.5 13.7
18 -17 -9 26.2 17.6
-17 18 9 -10.7 18.5
-1 18 9 2.9 16.3
-17 -1 9 45.7 16.8
1 17 -9 24.9 14.3
17 1 9 21.8 14.1
-18 1 -9 50.69 15.9
17 -18 -9 40.5 14.6
-18 18 9 89.29 22.3
18 -18 -9 98.09 20.2
0 18 9 56.29 18.7
-18 0 -9 87.09 17.2
0 18 -9 103.69 17.9
19 -9 9 95.89 21.2
-19 10 -9 89.09 20.2
-9 19 -9 76.89 18.8
9 -19 -9 103.79 19.9
10 -19 9 80.09 19.7
10 9 -9 111.09 22.9
-10 19 9 61.09 21.1
-9 19 9 76.59 21.2
-19 9 -9 76.19 19.7
9 -19 9 115.79 21.3
-10 19 -9 55.69 18.3
10 -19 -9 96.09 18.7
19 -10 9 80.39 20.7
9 10 -9 144.19 23.7
11 -19 9 49.8 17.4
8 -19 -9 35.8 16.2
-19 11 -9 43.9 18.2
11 8 -9 36.8 19.4
19 -8 9 30.4 19.7
-11 19 9 27.7 19.3
-8 19 -9 32.6 16.9
-19 8 -9 7.9 17.5
8 -19 9 43.3 18.1
19 -11 9 24 18.2
-8 19 9 30.6 18.6
8 11 -9 35.6 17.8
11 -19 -9 12 10.9
11 -19 -9 28.2 15.9
-11 19 -9 22.1 16
-12 19 9 72.99 20.8
7 -19 -9 75.79 18
-7 19 -9 63.49 17.5
19 -12 -9 36.3 13.8
19 -7 9 106.39 22.4
12 7 -9 52.79 18.4
-19 12 -9 74.39 18.2
7 12 -9 100.19 20.2
7 -19 9 73.39 19.5
19 -12 9 63.29 19.7
-12 19 -9 45.4 17.1
12 -19 -9 60.79 13.6
12 -19 -9 89.59 19.2
-7 19 9 66.49 20
-19 7 -9 126.29 23.5
13 6 -9 15.6 16.3
-19 13 -9 17.4 15.1
-6 19 -9 21 15.4
19 -6 9 19 18
6 13 9 -1.5 14.5
19 -13 -9 13.1 15.7
13 -19 9 35.9 16
19 -13 -9 17.7 21.6
6 -19 -9 28 16.6
-13 19 9 18.9 19.2
-6 19 9 17.3 17.5
13 -19 -9 15.3 11.2
13 -19 -9 17.6 17.1
6 -19 9 18.9 17.4
19 -13 9 14.4 18.3
6 13 -9 11.1 16.8
-13 19 -9 8.2 16.5
-19 6 -9 17.7 18.1
14 5 -9 44.9 17.7
-5 19 -9 40.5 16.3
14 -19 9 49.4 17.3
19 -14 -9 31.7 16.7
-14 19 9 33.1 20.2
5 -19 -9 33.8 15.7
5 14 9 19.9 17.5
19 -14 -9 30.8 23.3
19 -5 9 60.59 19.1
14 -19 -9 27.8 18.7
-14 19 -9 26.2 16.1
14 -19 -9 17.2 11.1
-19 5 -9 50.39 19.2
19 -14 9 3.9 13.1
5 14 -9 39.8 15.9
-5 19 9 42.3 18.1
-4 19 -9 30 16.5
-15 19 9 33.1 19.9
19 -4 9 30.6 17.4
4 -19 -9 11.6 10
19 -15 -9 31.5 22.5
15 4 -9 25.1 16.4
19 -15 -9 45.9 17.4
15 -19 9 36 16.4
4 15 9 16.4 17.5
-15 19 -9 -1.2 12.3
15 -19 -9 26.7 11.2
4 15 -9 52.19 17
-4 19 9 36 17.6
-19 4 -9 40.2 17
15 -19 -9 39 18.3
-3 19 -9 1.5 13.7
19 -16 -9 5.1 16.1
-16 19 9 4 18.2
19 -3 9 -8.4 17
3 16 9 7.9 16.7
16 -19 9 3.5 14.3
3 16 -9 14.7 14.6
-19 3 -9 7.4 15.1
16 -19 -9 7.2 11
-3 19 9 10.1 16.1
-17 19 9 30.3 19.5
19 -17 -9 15.8 16.1
19 -2 9 18.5 18.4
-2 19 -9 31.2 14.8
2 17 9 17.9 15.9
-2 19 9 1.8 14.9
-17 -2 9 33.1 16.1
17 -19 -9 30.7 14.7
2 17 -9 21.7 15.5
-19 2 -9 13.5 15.7
1 18 9 37.1 15.8
19 -18 -9 58.79 18.3
-1 19 -9 82.89 17.3
-18 19 9 77.69 22.8
-1 19 9 35.7 17.6
18 -19 -9 69.59 17
-19 18 9 80.99 22.4
1 18 -9 59.79 17.7
-19 1 -9 78.59 17.5
-10 20 -9 10.6 15.1
10 -20 -9 12.5 14.1
20 -10 9 8.5 16.8
-10 20 9 13.3 15.4
-20 10 -9 4.2 15.7
10 -20 9 21.2 16
10 10 -9 -8.3 17.7
11 -20 9 65.99 17.8
9 -20 -9 55.09 15.9
20 -9 9 42 17.6
-9 20 -9 52.89 16.7
-20 11 -9 55.69 16.9
11 9 -9 46.2 18.4
-11 20 9 46.4 18.2
20 -11 9 64.19 19
9 -20 9 59.29 17.3
-11 20 -9 56.29 17
-9 20 9 68.99 17.9
11 -20 -9 41.1 15.1
9 11 -9 79.99 19.9
-20 9 -9 60.69 17.7
20 -8 9 20.1 16.9
-8 20 -9 9.1 14.6
-12 20 9 2.9 16.7
-20 12 -9 15.7 14.6
12 8 -9 1.9 15.5
12 -20 9 6.5 14.9
8 -20 -9 15.5 14.2
12 -20 -9 28.3 15.7
8 -20 9 11.7 15.8
8 12 -9 1.6 16.7
-8 20 9 2.9 16.6
20 -12 9 3.4 17.7
-12 20 -9 19.6 15.6
12 -20 -9 3.6 8.4
-20 8 -9 10.1 15.9
7 -20 -9 33.7 15.2
-13 20 9 33 17.8
20 -7 9 32.8 17.4
13 -20 9 62.29 16.5
-7 20 -9 43 15.5
13 7 -9 53.29 18.3
13 -20 -9 22.1 10.1
20 -13 9 19.4 17.5
-13 20 -9 26.1 15.1
7 13 -9 52.29 17.2
7 -20 9 42.2 17.7
13 -20 -9 39.6 16.4
-7 20 9 36.4 17.3
-20 7 -9 88.19 18.5
20 -6 9 134.29 20.8
-6 20 -9 100.99 18.3
14 -20 9 155.38 19.4
6 -20 -9 97.39 16.8
-14 20 9 87.59 20
14 6 -9 117.29 19.7
6 14 -9 100.19 18.7
14 -20 -9 119.99 19.5
14 -20 -9 56.89 12.3
-14 20 -9 73.19 17
-6 20 9 112.89 19.4
15 5 -9 -5.5 16.5
-5 20 -9 29.8 16.1
5 15 9 -1.9 11.8
15 -20 9 15.8 14.8
20 -5 9 28.8 17.4
-15 20 9 19.4 17.6
20 -15 -9 7.1 11
-5 20 9 8.7 15.7
15 -20 -9 13 16.4
15 -20 -9 8 9.7
-15 20 -9 -1.8 14.8
5 15 -9 17.6 15.9
-20 5 -9 27 16.8
-16 20 9 -4.8 19.2
4 16 9 -1.4 14
20 -16 -9 -2.4 12.5
20 -4 9 4.8 17.5
16 -20 9 6.8 14.3
-4 20 -9 3.5 15.2
16 -20 -9 11.6 13.1
-16 -4 9 22 18
-20 4 -9 8.7 16.8
-4 20 9 10.6 16.3
4 16 -9 13.2 16.4
-3 20 -9 0.9 15.5
20 -3 9 8.6 14.4
20 -17 -9 9.7 13
-17 20 9 2.6 19.3
17 -20 -9 16.5 14.8
-3 20 9 -3.8 16.7
-20 3 -9 24 17
-17 -3 9 13.1 15.8
3 17 -9 10.6 15.5
-21 11 -9 1.3 12.8
21 -10 9 -0.8 17.7
-10 21 -9 18.8 15.3
-11 21 9 7.2 16.9
11 10 -9 13.2 16.9
11 -21 9 0.7 14.5
10 -21 -9 4.4 14.2
11 -21 -9 16.3 14.8
10 -21 9 4.6 14.4
10 11 -9 16.9 18.1
-11 21 -9 4.1 15.6
-10 21 9 4.8 15.5
-21 10 -9 13.7 15.1
21 -11 9 -8.8 17.1
21 -9 9 40.2 19
-12 21 9 28.4 17.6
-9 21 -9 40.2 16.2
9 -21 -9 47 15
12 9 -9 36.6 17.4
12 -21 9 56.89 16.3
9 -21 9 42.1 14.6
12 -21 -9 47.7 16.7
-9 21 9 54.89 17.6
21 -12 9 38.7 18.2
9 12 -9 47.6 18.8
-21 9 -9 49.6 17.4
-12 21 -9 35.9 16.3
-13 21 9 74.69 19.4
13 8 -9 65.99 18.9
13 -21 9 78.79 16.8
8 -21 -9 68.69 14.9
-8 21 -9 61.49 16.6
21 -8 9 69.99 19.8
-8 21 9 100.49 18.9
21 -13 9 65.39 17
13 -21 -9 83.19 18.1
-13 21 -9 50.69 16.4
8 13 -9 68.19 19.2
-21 8 -9 69.39 18.3
14 7 -9 -8 17.4
-7 21 -9 15.1 16.7
7 -21 -9 11.8 10.2
-14 21 9 0.8 18.5
14 -21 9 7.9 15.2
21 -7 9 14.8 17.5
14 -21 -9 18.3 17.2
-21 7 -9 10 17.1
7 14 -9 14.4 17.6
14 -21 -9 9.1 7.7
-14 21 -9 -1.6 8
-7 21 9 -4.9 17.6
-6 21 -9 20.1 16.3
21 -6 9 15.4 19.3
-15 21 9 12.2 19.5
15 -21 9 13 15.6
-15 -6 9 30.2 19.4
-21 6 -9 25.8 17.8
6 15 -9 36.3 18.7
-6 21 9 6.2 17.4
15 -21 -9 18.7 11.4
15 -21 -9 14.7 11.7
0 0 -10 9.2 23.4
-1 1 -10 382.76 47.3
1 -1 -10 250.17 42.7
-1 0 -10 334.87 45.8
0 -1 -10 279.67 41.7
0 1 -10 330.07 45.1
1 0 -10 277.67 42.7
-2 1 -10 220.58 39.5
-1 2 -10 223.38 37.8
1 1 -10 188.18 36.3
2 -1 -10 147.09 32.1
-1 -1 -10 134.99 32.5
0 2 -10 232.38 39.5
-2 2 -10 188.38 38.3
2 0 -10 141.79 32.7
-2 0 -10 140.79 34.6
-2 -1 -10 277.17 46.7
-1 3 -10 346.67 47.4
-3 2 -10 351.26 50.49
-3 1 -10 387.86 53.39
-1 -2 -10 356.26 46.9
-2 3 -10 321.67 44.9
1 2 -10 368.06 50.29
-3 3 -10 110.39 34.7
-3 0 -10 101.99 35.9
0 -3 -10 68.09 22.5
0 3 -10 98.99 32.5
-2 4 -10 88.99 30.3
-4 2 -10 54.19 32.7
-2 -2 -10 82.49 25.5
1 -4 -10 400.86 50.69
-4 3 -10 374.26 53.49
-1 4 -10 373.26 49.8
-3 -1 -10 276.47 52.99
-3 -1 -10 359.76 47.6
1 3 -10 350.06 50.59
-4 1 -10 303.37 54.29
-1 -3 -10 328.87 47.8
-3 4 -10 338.17 47.6
0 -4 -10 22.2 23.3
-4 0 -10 19.4 32.9
-4 0 -10 12.7 19.1
-4 4 -10 -3.6 25.5
0 4 -10 15 27.2
2 -5 -10 298.47 49.6
-2 5 -10 293.67 46.1
-5 3 -10 273.77 50.39
-3 -2 -10 307.87 47.5
-2 -3 -10 240.88 44.5
-3 5 -10 232.38 42
-5 2 -10 312.97 49.4
-4 -1 -10 195.98 42.2
1 -5 -10 266.77 48.2
-4 -1 -10 298.67 44.1
-1 5 -10 237.18 41.3
-5 4 -10 257.77 41.7
-1 -4 -10 276.87 47.2
-5 1 -10 313.87 53.69
-4 5 -10 290.97 47.1
0 5 -10 67.09 31.8
-5 5 -10 42.6 29.4
0 -5 -10 70.99 27.8
-5 0 -10 29.1 32.6
-5 0 -10 54.29 24.3
3 -6 -10 42.2 25.6
-3 6 -10 58.29 25.3
-3 -3 -10 79.99 26
-6 3 -10 47.9 33.3
-2 6 -10 315.37 46.5
-6 4 -10 331.87 49.6
2 -6 -10 230.18 38.9
-2 -4 10 233.28 35.7
-4 -2 -10 228.88 37.7
-6 2 -10 165.08 39.4
-4 6 -10 286.17 42.9
-2 -4 -10 202.88 34.8
1 -6 -10 57.69 28.7
-5 -1 -10 51.59 34.5
-1 6 -10 28.8 27.2
-5 -1 -10 36.3 24.7
-1 -5 10 62.39 24.8
-6 5 -10 57.09 32.4
-6 1 -10 31.4 35.1
-1 -5 -10 30.9 27
-5 6 -10 26.2 26.8
1 -6 10 37 25.3
0 -6 10 95.49 27.9
-6 0 -10 69.59 36
-6 0 -10 54.09 24.3
0 -6 -10 58.69 27.1
-6 6 -10 90.79 33.1
-3 -4 10 249.97 47.6
-3 7 -10 254.97 45.5
-4 -3 -10 279.97 41.8
-7 4 -10 267.37 49.1
3 -7 -10 206.68 37.9
4 -7 -10 122.59 32.1
-7 3 -10 261.27 43.7
-4 7 -10 175.58 33.2
-3 -4 -10 271.77 41.6
-4 -3 10 182.28 30.8
2 -7 -10 186.38 36.6
-7 5 -10 241.48 41.4
-2 -5 10 264.27 48.9
-2 7 -10 269.67 46.2
-5 -2 -10 269.47 40.7
2 -7 10 327.47 51.09
-7 2 -10 260.97 46.6
-2 -5 -10 369.96 50.09
-5 7 -10 278.77 45.4
-5 -2 10 295.67 49.8
-6 -1 -10 40.9 34
-7 1 10 6.4 22.8
-1 7 -10 1.8 13.2
1 -7 -10 11.5 28.6
-7 6 -10 -1.3 13.7
7 -6 -10 5.7 16.2
-1 -6 10 10 22.5
-6 -1 -10 31.9 24.9
-7 6 -10 30.7 28.5
-1 -6 -10 21.9 26.8
-6 7 -10 6.9 13.1
-6 7 -10 50.79 30.5
1 -7 10 15.8 24.1
-6 -1 10 14.6 23.3
-7 1 -10 33.8 36.1
1 6 -10 5.7 16
0 7 -10 10.5 21.1
7 -7 -10 5.6 14.6
-7 7 -10 13 18.5
-7 7 -10 8 25.9
-7 0 10 6.4 23.6
7 0 10 5.8 13.8
0 -7 -10 14.3 28.5
0 -7 10 2.9 24.8
-7 0 -10 16.4 23.9
-7 0 -10 14.6 34.2
-8 4 -10 1103.19 88.49
-4 8 -10 1060.19 84.69
4 -8 -10 936.61 86.99
-4 -4 -10 1182.68 92.69
4 4 10 817.12 69.79
4 -8 10 1031.3 84.09
-4 -4 10 1028 85.69
-5 -3 -10 36.4 27.8
-8 5 -10 9.9 15.7
5 -8 10 0.6 22.2
3 5 10 8 17.3
-3 8 -10 33.8 29
8 -5 -10 16.2 14.7
-8 5 -10 17.7 29.2
-3 8 -10 20.4 17.6
3 -8 -10 10.6 20.6
3 -8 -10 19.2 27.9
5 -8 10 -3.7 22.2
-3 -5 10 17.3 26.3
-5 -3 10 23 26.2
5 -8 -10 36.1 21.2
-5 8 -10 19.2 17
3 -8 10 34.4 25.5
-3 -5 -10 26.1 25.4
-8 3 -10 56.79 35.5
5 3 10 48.1 19.4
-5 8 -10 63.59 29
8 -3 -10 14.6 12
3 5 -10 10.2 17.5
2 -8 -10 -0.3 29.8
6 -8 10 -8.1 21.6
-8 6 -10 47.8 20.2
-2 8 -10 25.9 17.9
-6 -2 -10 3.5 29.7
-6 -2 -10 21.4 26.9
2 -8 -10 36.3 19.8
-2 8 -10 25.1 28.5
-2 -6 10 30.7 27.2
2 6 10 11.3 18.2
-8 6 -10 32.6 27.9
6 -8 10 -11.6 22.2
8 -6 -10 15.1 16
8 -2 -10 -0.7 11.4
-6 8 -10 8.4 26.4
-8 2 -10 15.6 34.5
2 -8 10 9.1 26
6 -8 -10 19.4 15
-2 -6 -10 17 28.1
-6 8 -10 20.5 19.4
2 6 -10 4.8 20.1
-6 -2 10 13.4 25.5
2 6 -10 0.1 30.6
6 2 10 20.2 19.1
-1 8 -10 154.58 26.5
-1 -7 10 113.19 31
8 -7 -10 189.28 26.2
7 -8 10 122.09 26.3
-7 -1 -10 158.78 43.1
-8 7 -10 151.78 35.8
-8 7 -10 190.88 26.2
-7 -1 -10 137.39 31.4
-8 1 10 79.79 28.8
1 -8 -10 161.78 40.1
-7 8 -10 90.59 21.6
1 -8 10 103.39 30.9
7 1 10 121.59 23.8
-7 -1 10 115.19 31.3
-8 1 -10 76.99 26.7
-1 -7 -10 117.79 33.7
-7 8 -10 174.18 38.9
-8 1 -10 163.88 44.6
1 7 -10 161.18 28.5
0 8 -10 52.99 23.6
8 -8 -10 27.1 22.2
0 -8 10 31.6 29.6
-8 0 10 -9.5 25.5
8 -8 10 -17.1 20.3
0 -8 -10 33.7 30.7
-8 8 -10 46.4 31.5
-8 0 -10 22.7 35.6
0 8 -10 1 27.4
8 0 10 36.8 20.1
-8 0 -10 19.8 24.4
-8 8 -10 35.3 21
-5 -4 -10 188.38 40.4
9 -5 -10 163.98 23.2
-9 5 -10 177.68 40.8
-9 5 -10 174.68 28
4 -9 -10 104.39 34.1
4 5 10 149.19 25.3
5 -9 10 196.38 29.4
4 -9 -10 228.48 36.9
-4 9 -10 120.59 23
-4 9 -10 162.88 36.3
-4 -5 10 174.88 36.7
5 -9 -10 190.58 36.3
-5 9 -10 137.99 34.8
5 -9 -10 56.99 30.4
-5 9 -10 92.29 21.6
4 -9 10 132.39 26.5
9 -4 -10 85.19 18
-5 -4 10 64.89 28.6
4 5 -10 110.39 26
-4 -5 -10 90.69 31.9
4 -9 10 49.6 27.2
5 4 10 130.59 25.1
-9 4 -10 194.28 43.1
-9 4 -10 104.19 23.9
3 6 10 78.69 21.9
3 -9 -10 128.39 34.4
-9 6 -10 135.09 37.4
-6 -3 -10 72.69 31.1
-3 9 -10 63.69 21.1
-3 9 -10 125.99 36.3
-9 6 -10 75.59 22
3 -9 -10 58.99 32.9
6 -9 10 116.59 25.8
9 -6 -10 81.39 19.8
-3 -6 10 77.19 30.3
-3 -6 -10 118.39 35
3 -9 10 78.39 29.7
3 -9 10 50.69 24.8
-6 -3 10 65.09 29.3
-9 3 -10 67.89 21.8
6 -9 -10 162.58 35
9 -3 -10 121.99 20.7
3 6 -10 108.09 24.8
-9 3 -10 166.68 44.9
6 3 10 159.48 26.8
-6 9 -10 107.19 22.7
-6 9 -10 115.59 34.1
-9 7 -10 61.59 21.1
-7 -2 -10 42.7 30.6
-2 -7 10 55.59 30.9
2 -9 -10 65.29 25.9
-9 7 -10 89.89 35.1
2 -9 -10 42.5 33.3
9 -2 10 59.49 20.4
-2 9 -10 68.89 23.3
9 -7 -10 80.89 21.5
2 7 10 52.59 21.5
7 -9 10 98.49 25.5
-7 -2 -10 -14.1 30.9
-7 -2 10 77.79 32.1
7 2 10 120.49 24.8
-9 2 -10 75.69 39.1
2 7 -10 28.8 29
-2 -7 -10 119.89 37.7
7 -9 -10 93.79 27.4
7 -9 -10 30 16.4
2 7 -10 73.59 24.4
-7 9 -10 68.29 29.2
-7 9 -10 91.59 23.4
2 -9 10 63.29 32.7
9 -2 -10 76.89 16.8
-1 9 -10 5.3 30
-1 -8 10 72.49 32.4
1 -9 -10 47.6 22.7
-9 8 -10 82.09 23.2
9 -1 10 100.19 23.9
-8 -1 -10 47.7 37.5
1 -9 -10 72.69 35.7
8 -9 10 97.09 24.9
9 -8 -10 47.4 22.6
-1 9 -10 76.99 24.5
-9 8 -10 87.39 36
-8 -1 -10 56.09 29
9 -1 -10 25.2 13.2
-8 -1 10 45.7 30.9
-9 1 -10 185.18 48.5
-8 9 -10 140.19 24.8
1 8 -10 8.7 30.1
1 -9 10 72.29 31.8
8 -9 -10 77.19 22.3
8 1 10 103.79 22.6
-1 -8 -10 141.79 40.6
-8 9 -10 120.39 33.7
8 -9 -10 49.8 19.6
-9 9 -10 49.6 29.5
9 -9 -10 25.9 21.8
0 9 -10 50.09 24.8
0 -9 10 39.4 32.6
-9 9 -10 78.49 24.7
-9 0 -10 29.4 25.5
0 -9 -10 25.7 16.4
0 9 -10 11.5 33.7
9 -9 -10 79.69 25
-9 0 -10 56.49 39.1
0 -9 -10 35.8 32.5
9 -9 10 69.79 23.4
9 0 10 91.39 22.8
-5 10 -10 20.6 27.9
-5 -5 10 25.6 30.6
-10 5 -10 30.9 23.8
-10 5 -10 43.6 32.6
-5 10 -10 38.5 19.5
5 5 -10 29.5 23.1
-5 -5 -10 30.9 32.1
5 5 10 16.7 20.1
5 -10 -10 -8.2 26.6
10 -5 10 -4.5 13.3
5 -10 10 -30.5 24.5
10 -5 -10 37 18.7
5 -10 10 45.3 23.7
5 -10 -10 35.1 32.7
10 -4 10 266.57 34.8
-10 6 -10 267.37 39.4
4 -10 -10 213.18 42.1
4 6 10 274.57 36.4
6 -10 10 298.37 42.3
-4 10 -10 277.97 37.8
10 -6 -10 261.47 37.2
4 -10 -10 361.06 43.3
6 4 -10 289.27 40.9
-4 10 -10 206.28 40.2
-6 -4 -10 184.08 38.6
-10 6 -10 309.17 52.39
-4 -6 10 161.18 37
4 -10 10 155.28 37.6
-10 4 -10 253.47 40.5
-4 -6 -10 277.77 48.6
-6 10 -10 269.37 47.9
4 -10 10 261.87 39.9
10 -4 -10 251.57 33.3
6 -10 -10 245.08 40.7
-10 4 -10 395.06 57.49
4 6 -10 276.67 41.5
-6 -4 10 211.98 41.4
6 4 10 265.67 38.7
-7 -3 -10 7.3 29.2
7 3 -10 14.2 19.8
3 -10 -10 2 32.5
10 -3 10 21.4 20.7
10 -7 -10 -8.1 19.2
-10 7 -10 11.2 20.8
-3 10 -10 12.6 19.9
-10 7 -10 17.2 30.8
-3 -7 10 -18.7 28.5
7 -10 10 32.6 24
3 -10 -10 7.2 29.3
3 7 10 12.4 19.8
10 -3 -10 6.7 18.3
-10 3 -10 17.5 35.7
3 7 -10 -8.5 30.1
-7 -3 10 -17.7 28.4
7 -10 -10 3 15.8
-7 10 -10 11.4 20.9
-3 -7 -10 -2.2 31.4
3 -10 10 -11.7 29.2
3 -10 10 23.3 24.1
7 -10 -10 -8.7 31.1
-7 10 -10 9.5 25.6
3 7 -10 11.8 21.8
-10 3 -10 9.3 25.6
7 3 10 10.6 21.7
2 8 10 39.1 21
8 -10 10 85.99 25.5
-2 10 -10 2.1 33.8
-2 -8 10 10.4 28
-10 8 -10 53.59 31.2
8 2 -10 46.6 20.5
10 -2 10 87.69 23.2
-8 -2 -10 2.3 31.7
2 -10 -10 44.1 36.9
-2 10 -10 49.7 23.7
-8 -2 -10 81.69 33.6
2 -10 -10 31.5 23.7
-10 8 -10 80.29 23
10 -8 -10 51.09 21.2
-8 10 -10 84.49 32.7
10 -2 -10 71.39 18.1
-8 10 -10 68.99 22.6
2 8 -10 56.49 33.9
-8 -2 10 24.6 30.5
-2 -8 -10 73.39 36.6
8 -10 -10 51.59 22.7
-10 2 -10 50.79 40.7
2 -10 10 47.8 34
8 -10 -10 59.39 30.2
8 2 10 95.69 23.6
2 8 -10 59.19 25
-10 2 -10 26.6 24
9 1 -10 5 14.7
9 -10 10 23.5 23
-10 9 -10 8.4 31.5
-1 -9 10 -13.8 30.2
1 -10 -10 13.7 22
10 -9 -10 9.8 21.4
-9 -1 -10 17.7 35.1
-10 9 -10 24.6 21.5
-10 1 10 -0.2 22.4
-1 10 -10 0.5 35.6
1 -10 -10 -5.8 34.1
10 -1 10 13.9 19.6
-9 -1 -10 19 26.9
-1 10 -10 22.9 23.5
-9 -1 10 8.3 26.3
9 -10 -10 0.2 19.3
10 -1 -10 7.6 12.1
-9 10 -10 16.6 21.3
-10 1 -10 9 22.3
1 9 -10 12 22.1
-1 -9 -10 5.2 33.4
1 9 -10 -7.8 32
-10 1 -10 21.2 39
9 -10 -10 7.3 26.2
-9 10 -10 8.8 30.2
1 -10 10 -19.7 28.8
10 -9 10 6.6 21.4
9 1 10 12.7 18.7
-10 0 10 46.8 26.6
-10 0 -10 65.99 40.2
0 10 -10 21.8 35.3
10 -10 -10 76.69 24.5
10 -10 10 96.69 26.2
0 -10 10 48.6 34.6
10 -10 -10 27.5 16.4
0 -10 -10 27.8 33.9
-10 0 -10 31.3 20.6
0 -10 -10 53.59 20.2
-10 10 -10 118.49 25.5
-10 10 -10 46.6 31
0 10 -10 68.29 23.7
10 0 10 84.69 22.1
5 6 10 1.6 20.4
-6 -5 -10 3.8 32.2
11 -5 10 14.4 18.5
-5 11 -10 10.7 31.3
-5 -6 10 -27.6 26.8
6 5 -10 17 21.9
6 -11 10 34.3 24.3
-11 6 -10 -1.3 20.7
5 -11 -10 -48.6 29.9
-11 6 -10 37.1 33.8
11 -6 -10 16.5 18.6
-5 11 -10 14.5 19.1
6 5 10 8.6 20.5
-6 -5 10 -24.8 28.3
-6 11 -10 57.09 33.3
6 -11 -10 -32.9 30.2
11 -6 10 3.1 15.5
11 -5 -10 18.9 17.7
-6 11 -10 -0.7 19.4
-5 -6 -10 6.5 29.8
5 -11 10 18 24.8
-11 5 -10 -3.3 32.3
5 6 -10 8 23
-11 5 -10 10.8 22.4
-4 -7 10 45.3 32.4
-11 7 -10 84.59 23.9
4 7 10 117.29 24.5
-11 7 -10 80.69 33.4
7 4 -10 101.69 24.9
4 -11 -10 42.1 32.3
11 -7 -10 75.29 20.2
-4 11 -10 87.09 22.8
11 -4 10 86.99 22.9
7 -11 10 129.49 27.6
4 -11 -10 66.39 32.2
-7 -4 -10 75.59 34.6
4 7 -10 28.2 29.4
-11 4 -10 50.49 25.3
-4 -7 -10 53.59 33.3
-7 -4 10 1.7 28.9
4 7 -10 90.89 26.9
4 -11 10 68.79 26.6
7 -11 -10 28.9 32.6
4 -11 10 -6.7 28.4
-7 11 -10 49.2 30.9
-7 11 -10 86.69 23.1
-11 4 -10 101.79 40.8
11 -4 -10 73.49 21.4
7 4 10 69.39 22.5
7 -11 -10 24.3 17.4
-11 8 -10 40.5 22.3
8 3 -10 54.59 22.3
-8 -3 -10 58.29 34
-3 11 -10 0.4 62.19
11 -3 10 28.1 18.8
3 8 10 59.89 22.9
-3 11 -10 41.1 22.4
-3 -8 10 23.8 32.2
11 -8 -10 53.39 21.7
8 -11 10 59.69 24.2
3 -11 -10 69.39 29.7
-11 8 -10 48.4 32.4
3 -11 -10 49.1 34.5
8 -11 -10 61.69 33.9
-8 11 -10 92.99 23.2
3 8 -10 68.79 23.4
-11 3 -10 64.09 26.7
3 8 -10 49.4 32.4
3 -11 10 86.69 27.9
-3 -8 -10 75.29 37.7
-8 -3 10 6.2 30.3
8 3 10 92.19 23.2
8 -11 -10 48.8 21.6
-11 3 -10 72.59 42.3
-8 11 -10 94.19 33.9
11 -3 -10 86.09 19.7
-11 9 -10 220.98 43.6
2 9 10 229.28 30.5
-2 11 -10 233.88 31.6
11 -9 -10 273.07 32.2
-2 -9 10 145.29 40.8
2 -11 -10 127.69 39.2
11 -2 10 244.08 35.8
9 2 -10 220.68 29.5
2 -11 -10 180.48 32.8
-11 9 -10 219.58 29.2
9 -11 10 168.38 29.5
-2 -9 -10 136.69 43
-11 2 -10 78.39 27.2
11 -2 -10 89.89 18.8
2 -11 10 73.19 36.5
9 -11 -10 148.49 36.5
9 2 10 142.09 24.3
-9 11 -10 132.39 25.2
9 -11 -10 82.89 23.2
-11 2 -10 141.49 47.2
-9 -2 10 117.19 35.3
2 9 -10 172.88 29
-9 11 -10 121.69 35.5
2 9 -10 84.89 37.6
2 -11 10 83.29 25.4
1 -11 -10 62.79 35.8
1 -11 -10 75.99 24.1
11 -10 -10 162.18 29.3
1 10 10 124.89 24.5
-1 11 -10 23.7 34.7
10 -11 10 148.19 28.4
-1 11 -10 159.68 28.5
-10 -1 -10 9.1 33.5
-11 10 -10 130.09 26.7
-1 -10 10 78.79 36.3
-11 10 -10 138.09 38.7
11 -10 10 98.39 25
1 10 -10 66.89 37.5
-10 11 -10 138.19 26.6
-10 11 -10 83.29 33.3
-10 -1 10 118.79 33.5
10 1 10 126.09 23.3
-11 1 -10 110.79 45.4
-1 -10 -10 86.39 37.5
1 10 -10 136.79 26.8
10 -11 -10 130.89 30.8
10 -11 -10 113.29 25.6
1 -11 10 38.9 33.3
-11 1 -10 50.59 26.1
11 -11 10 61.49 25.5
-11 11 -10 69.69 34.9
-11 0 10 -4.7 23
-11 0 -10 49 24.1
11 -11 -10 34 21.9
0 -11 -10 42.5 20.2
0 -11 -10 61.89 36.9
0 11 -10 34.2 20.9
-11 11 -10 70.99 22.4
11 -11 -10 75.99 21.4
0 11 -10 8.6 35.8
0 11 -10 88.29 26.8
0 -11 10 20.3 33.4
11 0 10 41.9 21
-11 0 -10 45.9 37.2
6 6 -10 4 14.1
-6 12 -10 52.29 21.8
-6 -6 10 -25.9 29.3
-12 6 -10 28.8 22.7
-6 -6 -10 17.5 31.7
6 -12 10 26.9 25.4
12 -6 -10 24.1 18.4
-6 12 -10 22.7 32.3
6 6 -10 52.49 25.3
6 -12 -10 0.4 31.2
12 -6 10 30.2 19.6
6 6 10 29.8 21.1
-12 6 -10 34.9 33.5
5 -12 -10 1.2 28.7
-12 7 -10 34.2 22.1
7 -12 10 11.4 24.5
5 7 10 36.9 21.5
-5 12 -10 23.4 20.9
7 5 -10 6 15
12 -7 -10 23.9 19.1
7 5 -10 38 22.7
-7 -5 -10 9.9 33.4
-5 -7 10 -17.1 30.4
-12 7 -10 46.1 36.1
12 -5 10 26 20.4
-12 5 -10 17.2 34.5
7 -12 -10 3.1 14.4
-7 12 -10 38.3 20.4
7 5 10 13.8 21.8
5 7 -10 9.9 23.1
-7 12 -10 3.3 29.7
5 -12 10 9.9 24
12 -5 -10 25.8 19.7
-7 -5 10 -2.1 31.2
7 -12 -10 -8.6 31.4
-5 -7 -10 -7.7 30.9
-12 5 -10 33.9 24.6
12 -7 10 16.7 17.5
5 7 -10 2.7 14.4
-4 -8 10 -2.4 29.8
8 4 -10 87.29 26.1
8 -12 10 72.99 24.8
4 8 10 63.99 22.7
4 -12 -10 52.39 28.2
12 -8 -10 44.1 20.5
-8 -4 -10 46.7 35.5
-12 8 -10 37.8 21
-12 8 -10 67.19 35.8
12 -4 10 71.79 22.5
-4 12 -10 83.69 24.3
-4 -8 -10 67.59 36.6
8 -12 -10 40.5 21.2
4 8 -10 33.8 33.3
4 8 -10 101.29 26.7
-12 4 -10 120.29 42.9
4 -12 10 52.09 25.7
-8 12 -10 53.89 32.6
12 -4 -10 61.29 20.1
8 4 10 74.39 21.9
-8 -4 10 -6.9 30.4
8 -12 -10 68.89 34.7
-12 4 -10 63.09 25.7
4 8 -10 37.3 19.5
-8 12 -10 91.29 22.3
-3 12 -10 122.29 25.9
9 3 -10 88.09 23.6
12 -9 -10 73.79 22.4
-12 9 -10 92.19 37
12 -3 10 97.49 21.9
-12 9 -10 66.59 21.8
9 -12 10 84.39 26.2
-3 12 -10 5.6 59.29
-9 -3 -10 13.3 28.4
-3 -9 10 8.2 30
3 -12 -10 116.79 29.6
3 9 10 55.49 21.2
3 -12 -10 14.6 30.7
-12 3 -10 66.89 42
-9 12 -10 107.59 24.3
-3 -9 -10 55.39 32.3
12 -3 -10 55.69 17.9
3 -12 10 83.99 28
3 9 -10 50.69 22.5
3 9 -10 25 35.5
-9 12 -10 71.89 31.3
-9 -3 10 57.99 30.2
-12 3 -10 90.39 29.4
3 -12 10 -4.9 29.4
9 3 10 81.19 20.6
3 9 -10 54.89 23
9 -12 -10 39.9 20.9
9 -12 -10 85.19 33.9
12 -10 -10 0.5 29.6
2 -12 -10 6.8 30.4
-12 10 -10 7.4 20.8
-2 -10 10 -15.8 31
10 2 -10 9.6 14.9
-12 10 -10 19.5 33
2 10 10 32.3 22.2
-2 12 -10 4.1 21.4
-2 12 -10 3.5 34.5
-2 12 -10 21.9 22.9
12 -10 -10 25.9 21.8
12 -2 10 23.1 18.9
2 -12 -10 -5 21.1
10 -12 10 28 23.3
-10 -2 10 5.2 29
10 2 10 31.3 19.3
2 10 -10 -13.4 36.1
10 -12 -10 -5.3 19.2
12 -10 10 13.7 18.3
10 -12 -10 -0.8 31.1
2 -12 10 33.8 23.5
-12 2 -10 21.8 25.1
-12 2 -10 20.2 40.3
-10 12 -10 6.5 20.1
2 10 -10 4.8 19.9
2 10 -10 -3.7 22.1
-2 -10 -10 6.2 29.9
-10 12 -10 2.9 26.8
2 -12 10 -44.8 29.3
-12 11 -10 340.47 52.69
-1 -11 10 220.58 45.4
-1 12 -10 290.57 41.6
11 -12 10 263.57 44
-11 -1 -10 299.17 38.1
12 -1 10 361.96 41.3
1 -12 -10 231.88 46.3
12 -11 -10 334.17 46.1
-12 11 -10 313.97 41.5
-1 12 -10 384.86 42.2
1 -12 -10 321.07 38
1 11 10 406.26 41
-11 -1 10 153.28 33
1 11 -10 63.69 40.3
12 -11 10 248.08 39
11 -12 -10 174.78 25.3
1 -12 10 123.99 36.3
-12 1 -10 195.78 45.8
12 0 10 12.9 17.5
-12 12 -10 -3.4 26.2
-12 0 -10 19.7 22.6
0 12 10 31.9 21.8
12 -12 10 42.6 22.5
0 12 -10 -6.3 23.8
12 0 -10 17.4 13.6
-12 0 -10 3.5 42.2
12 -12 -10 5.1 21.5
-12 12 -10 13.3 20.5
0 -12 -10 15.9 17.6
12 -12 -10 22.8 21.4
0 12 -10 0.3 38.8
0 -12 -10 30.2 32
0 -12 10 10.1 31.1
0 12 -10 2.6 20.4
6 -13 -10 103.29 31.6
-6 13 -10 101.39 23.6
7 6 -10 109.09 26.3
-6 -7 10 39.3 32.3
-7 -6 -10 117.09 39.9
-13 7 -10 150.18 43.2
7 -13 10 65.09 25.1
13 -7 -10 105.49 22.4
-13 7 -10 96.89 24.4
6 7 10 137.99 25.7
7 6 -10 64.09 21.9
13 -6 10 128.49 23.4
13 -6 -10 117.89 23.2
-6 -7 -10 69.79 35.9
-13 6 -10 118.99 40.1
-7 13 -10 124.29 23.9
-13 6 -10 118.69 26.3
6 -13 10 50.19 23.7
7 -13 -10 82.09 30.4
6 7 -10 67.09 23.7
7 6 10 144.29 24.8
-6 13 10 7 23.4
-7 -6 10 17.8 31.2
13 -7 10 75.19 20.6
6 7 -10 84.19 24.4
-8 -5 -10 36 32.2
-5 13 -10 33.3 21.7
-5 -8 10 2.7 28.1
-8 13 10 9.2 18.3
5 8 10 51.59 22.5
-13 8 -10 28.9 32.3
13 -8 -10 17.5 19.9
-13 8 -10 22.5 19.8
13 -5 10 54.19 20.1
5 -13 -10 -4.3 24.4
8 5 -10 17.4 19.9
8 -13 10 9.7 22.3
8 5 -10 31 23.7
-5 13 -10 -6.9 19.7
13 -5 -10 40.1 19.3
8 5 10 15.7 19.2
-8 13 -10 25.8 20.4
8 -13 -10 6.5 18.2
5 8 -10 18.8 22.7
-5 -8 -10 20.4 32.7
5 -13 10 2.9 23.1
13 -8 10 19.7 19.8
5 8 -10 2.9 20.7
-13 5 -10 3.3 23.5
-8 -5 10 5.9 29.5
8 -13 -10 4.9 28.3
-13 5 -10 23 37.2
-8 13 -10 1.2 29.4
-8 -5 10 -4.5 28.7
9 -13 10 134.59 28.2
13 -4 10 130.99 22.7
-4 -9 10 76.79 35.7
13 -9 -10 142.99 24.1
-4 13 -10 72.19 24.4
4 9 10 186.38 26.9
-13 9 -10 136.59 25.3
-9 13 10 73.29 23.3
9 4 -10 97.59 22.7
-13 9 -10 107.39 36.4
4 -13 -10 133.29 28.3
-4 13 -10 116.49 24.8
4 9 -10 94.59 26
9 4 10 137.89 23.2
-4 -9 -10 53.79 33.2
-9 -4 10 130.39 36.9
9 -13 -10 117.19 35.4
13 -4 -10 74.59 18.4
-9 13 -10 1.3 27.9
4 -13 10 65.59 25.8
9 -13 -10 47.6 20.2
4 9 -10 107.69 23.7
-13 4 -10 162.38 30.7
-9 13 -10 76.19 21.6
13 -9 10 38.5 16.7
-13 4 -10 122.79 46
-3 13 -10 31.2 23.8
10 3 -10 62.39 21.9
10 -13 10 64.79 24.9
13 -10 -10 6.9 30
-13 10 -10 45.7 20.8
-10 13 10 81.09 26.5
3 10 10 56.99 21.5
-3 -10 10 33.4 32.3
-3 13 -10 62.69 22.7
3 -13 -10 75.69 25
13 -3 10 100.69 22.8
-13 10 -10 69.59 35.1
13 -10 -10 95.59 24.2
-10 -3 10 28.1 29.6
-3 -10 -10 27.5 31
-13 3 -10 45.7 25.5
10 -13 -10 19.4 30.9
3 10 -10 60.39 22
-13 3 -10 60.69 43.7
3 -13 10 35.2 25.4
10 -13 -10 5 17.9
3 -13 10 32.1 34.3
3 10 -10 27.7 24.2
13 -3 -10 -6.2 11.5
-10 13 -10 48 21.2
3 10 -10 13 36.2
10 3 10 59.69 20.3
-3 13 10 -2.6 16
-10 13 -10 -2.1 29.9
13 -11 -10 91.39 24.6
-2 13 -10 82.69 26.6
-13 11 -10 45.7 32.6
-2 -11 10 42.6 31.5
-2 13 -10 55.99 21.3
13 -11 -10 101.19 32.3
-13 11 -10 86.89 24.4
11 -13 10 67.39 25.1
2 -13 -10 61.49 22.4
11 2 -10 65.79 20.1
13 -2 10 128.19 23.7
2 11 10 90.69 22.3
2 -13 10 69.69 22.8
-11 13 -10 81.79 22.9
11 -13 -10 48.8 29.6
2 11 -10 40.5 23.4
2 11 -10 5.4 35.8
11 2 10 71.59 21.2
-2 -11 -10 31 29.3
-13 2 -10 64.29 41.5
11 -13 -10 56.19 20.7
-11 -2 10 18.9 25.7
2 11 -10 60.09 21.2
-13 2 -10 61.19 25.5
13 -11 10 58.89 20.4
2 -13 10 -1.1 26.3
12 -13 10 86.59 25.3
-12 -1 -10 92.49 23.1
12 1 -10 55.59 19.2
-1 -12 10 37.6 30.7
1 -13 -10 1.4 41.3
-1 13 -10 99.59 23.8
1 12 10 89.59 21.9
-1 13 -10 41.6 24
1 -13 -10 101.79 22
-13 12 -10 -3.2 37.5
13 -1 10 102.99 22.1
13 -12 -10 123.89 28.6
-13 12 -10 97.49 23.1
1 12 -10 45.9 24.8
12 -13 -10 46.8 21.2
13 -1 -10 47.8 14.9
12 -13 -10 55.09 29
-13 1 -10 55.19 24.7
-1 -12 -10 28.8 29.1
-13 1 -10 3.5 34.6
12 1 10 44.6 19.8
13 -12 10 36 21
1 12 -10 76.69 23.3
-12 13 -10 57.99 21.9
1 -13 10 -0.2 26
-13 13 -10 264.77 35.4
13 0 -10 190.88 29
0 13 -10 255.77 37.7
0 13 -10 246.28 29.5
-13 0 -10 192.88 29.6
13 0 10 196.28 26.4
0 13 10 242.28 34.5
13 -13 10 174.88 28.4
7 -14 -10 2.2 10
7 -14 10 22.4 21.4
7 7 10 37 20.4
-7 -7 -10 11.5 30.1
-7 14 -10 -5.8 17
-7 14 -10 47.3 21.8
-14 7 -10 68.09 37.8
-7 -7 10 19.5 30.1
7 -14 -10 25.3 25
7 7 -10 66.09 23.7
14 -7 -10 56.89 18.7
7 7 -10 11 20.4
14 -7 10 56.49 21.7
-7 14 10 25.3 22.9
-7 -7 10 30.9 30.3
-14 7 -10 89.49 25.4
14 -6 10 31 19.9
-6 14 -10 25.8 22.2
8 6 -10 37.8 22.4
-6 -8 10 -3.8 28.9
6 -14 -10 42.4 26.2
-8 -6 -10 -7.5 28.3
6 8 10 26.6 20.4
8 -14 10 7.1 21.9
-8 14 10 35.8 24.2
-14 8 -10 8.5 19.7
-14 8 -10 8.8 31.8
-6 14 -10 19.7 21
14 -8 -10 39.6 20.3
-8 -6 10 8 26.7
-6 -8 -10 -5.5 31.2
14 -8 10 34.5 20.7
-6 14 10 16.6 21.5
6 8 -10 -4 21.4
6 -14 10 -10.1 22.1
-8 -6 10 7.5 29.9
8 -14 -10 0.4 25.2
-14 6 -10 40.7 39.2
14 -6 -10 22.7 19.5
8 -14 -10 11.5 16.1
-14 6 -10 34 23.7
6 8 -10 15.1 21.8
8 6 10 7.3 19
-8 14 -10 25.1 20
14 -9 -10 132.99 23.8
-14 9 -10 94.89 36
9 5 -10 127.99 26.5
-14 9 -10 166.28 27.1
5 9 10 153.18 25.3
-9 14 10 153.48 30.5
-5 -9 10 86.99 34.1
5 -14 -10 187.78 30.7
14 -5 10 144.39 23.6
-5 14 -10 119.59 24.6
-5 14 -10 101.59 26.3
9 -14 10 137.89 27.1
14 -9 10 97.69 23.6
-9 14 -10 75.09 21.3
9 5 10 126.29 23.4
-14 5 -10 150.78 30.9
5 -14 10 95.49 26.4
5 9 -10 67.59 24.9
-5 14 10 53.99 23.8
-14 5 -10 68.09 39.7
-5 -9 -10 62.99 31.2
9 -14 -10 53.09 18.9
9 -14 -10 75.39 30
-9 -5 10 121.09 37.5
14 -5 -10 57.69 17.8
5 9 -10 126.49 25.3
14 -4 10 23.4 17.9
-14 10 -10 16 29.2
-10 14 10 34.3 26.8
-14 10 -10 32 20
14 -10 -10 45 20.3
-4 14 -10 24.5 22.4
14 -10 -10 12.4 29.6
10 4 -10 30.5 22
-4 14 -10 29 20.9
4 10 10 28.6 19.8
4 -14 -10 41.2 22.5
-4 -10 10 -0.8 28.7
10 -14 10 18.8 21.8
-4 14 10 20.6 21.7
14 -4 -10 -5.1 11
-10 -4 10 17.7 29.5
-4 -10 -10 27.5 29.4
-14 4 -10 46 40.6
10 -14 -10 24.4 28.7
14 -10 10 30.5 18.3
4 10 -10 31.9 21.4
10 4 10 33.5 18.9
-14 4 -10 13.7 23.6
4 10 -10 29.2 23.6
-10 14 -10 21.8 19.2
10 -14 -10 15.7 17.5
4 -14 10 6.3 23.2
11 3 -10 124.69 23.9
-3 14 -10 58.19 23.9
-3 14 -10 116.19 23
3 -14 -10 151.88 26.9
14 -11 -10 94.59 31.8
-11 14 10 148.69 31.3
-3 -11 10 50.09 32.1
-14 11 -10 149.49 24.9
14 -11 -10 125.89 24.8
14 -3 10 133.19 22.3
3 11 10 141.49 23.5
11 -14 10 100.89 24.5
11 -14 -10 144.09 33.4
-3 -11 -10 71.49 30.1
-3 14 10 111.09 24.9
-14 3 -10 110.59 42.8
3 11 -10 141.49 25.2
3 11 -10 142.89 28.3
11 3 10 112.09 22
3 -14 10 139.29 27.7
-14 3 -10 128.39 27.9
-11 14 -10 143.19 23.4
11 -14 -10 66.99 20.3
-12 -2 -10 41.8 17.6
14 -2 10 123.69 22.7
-2 14 -10 74.69 21.4
12 -14 10 91.89 24
12 2 -10 54.59 19
-2 14 -10 64.59 24
2 12 10 95.59 20.8
14 -12 -10 121.09 27.1
-14 12 -10 104.59 23.7
-2 -12 10 13.7 28.5
2 -14 -10 59.29 20.5
-2 -12 -10 21.2 27.1
2 12 -10 62.09 21.2
-2 14 10 47.3 21.9
14 -12 10 45.6 17.4
2 12 -10 78.29 25.5
-12 14 -10 82.69 21.5
-14 2 -10 101.39 27.2
12 -14 -10 60.89 19.1
12 -14 -10 51.19 28.9
12 2 10 101.79 22.4
-14 2 -10 4.1 68.79
-1 -13 10 -8.2 42.1
-1 14 -10 -2.3 21.9
13 1 -10 18.5 17.3
-13 -1 -10 7.3 18.1
14 -1 10 6.8 17.3
1 -14 -10 -1.9 16
-1 14 -10 4.7 18.7
13 -14 10 12.1 21.2
1 13 10 -7.9 14.1
14 -13 -10 -3.6 21.7
1 13 10 13.7 17.3
-14 13 -10 6.4 19.1
-1 14 10 22.3 18.3
13 -14 -10 12.5 23.2
-14 1 -10 6.3 21.2
13 1 10 2.2 17.9
13 -14 -10 -4 16.6
14 -13 10 13.8 20.4
-13 14 -10 5.6 18
1 13 -10 -3 21.2
1 13 -10 -11.6 18.5
-1 14 10 -0.8 19.8
14 -14 10 33.6 20.2
14 -14 -10 23.1 16
14 0 -10 40.1 17
14 0 10 39.6 18.4
0 14 -10 30.6 19.2
0 14 -10 66.09 23.3
-14 0 -10 36.1 19.4
0 14 10 34.3 19.8
-14 14 -10 50.19 19
14 -14 -10 47.1 24
0 14 10 49.3 17.8
-7 -8 10 76.79 32.9
7 -15 -10 198.28 31.3
-7 15 -10 70.39 24.2
8 -15 10 116.59 24.9
8 7 -10 148.89 27.4
-8 15 10 108.09 26.8
-15 8 -10 79.09 37.4
15 -7 10 102.69 23.1
7 8 10 112.29 21.9
15 -8 -10 121.89 22
-15 8 -10 157.38 26.2
8 -15 -10 48.8 15.5
7 -15 10 91.79 24.8
-8 -7 10 28.7 31.6
-7 15 10 53.29 23.3
15 -8 10 70.89 22.5
8 -15 -10 62.19 25.4
-7 -8 -10 6.9 27.1
-15 7 -10 75.69 23.4
-8 15 -10 59.29 22.1
15 -7 -10 52.69 18.9
-15 7 -10 51.39 36.9
7 8 -10 47.8 24.2
8 7 10 43.2 17.9
-6 15 -10 -2.3 20.7
-9 15 10 6.1 23.9
9 6 -10 1.4 22.2
-15 9 -10 15.1 28.4
9 -15 10 -1.7 20.2
6 9 10 24.1 18.5
6 -15 -10 4.3 21
-15 9 -10 8.3 19.1
-6 -9 10 -26.3 23.8
15 -9 -10 5.1 19.1
-6 15 -10 11.3 16.1
15 -6 10 26 20
-6 -9 10 2 28.3
-15 6 -10 14.2 21.6
-9 -6 10 10.7 28.3
15 -6 -10 15.8 16
9 -15 -10 -0.6 23.9
-9 15 -10 -4.8 16.4
-6 15 10 12.1 21.8
-15 6 -10 -7.6 36.2
6 9 -10 20.7 21
15 -9 10 21.2 21.8
-9 15 -10 1.8 13.4
9 6 10 14.1 18.5
-6 -9 -10 5.1 28.4
6 9 -10 2.1 21.8
9 -15 -10 10.2 15.9
6 -15 10 13.3 22.3
5 10 10 144.59 24.2
-5 15 -10 134.19 26.3
-10 15 10 164.78 30.5
15 -5 10 236.68 34.4
-5 15 -10 115.39 22.1
10 5 -10 164.58 26.6
-15 10 -10 229.48 27.6
5 10 -10 167.38 25
-5 15 10 128.59 26.4
-15 5 -10 56.19 38
15 -10 10 182.68 26.4
5 10 -10 103.89 25.9
10 -15 -10 98.89 20.6
5 -15 10 183.18 28.7
-5 -10 -10 66.99 31
10 5 10 176.38 25.6
-4 15 -10 94.49 20.4
15 -11 -10 191.48 26.8
4 11 10 146.79 23.4
-15 11 -10 120.49 23.4
15 -11 -10 141.59 32.8
-4 15 -10 90.49 23.9
4 -15 -10 121.69 24.7
-11 15 10 185.18 31.9
11 4 -10 126.49 24.1
11 -15 -10 106.39 20.9
11 4 10 94.19 20.7
4 11 -10 166.08 28.2
4 11 -10 103.09 22.3
11 -15 -10 171.58 32.6
4 -15 10 95.89 25.3
15 -11 10 73.59 20.8
-4 15 10 100.99 24.7
-3 -12 10 -6.7 25
12 -15 10 108.39 23.5
12 3 -10 51.79 19.2
3 12 10 50.79 18.8
15 -3 10 62.69 18.6
-12 15 10 38.4 25.1
3 -15 -10 33.4 18.7
-3 15 -10 39.8 21.9
15 -12 -10 73.69 23.6
-15 12 -10 61.49 21.8
-3 15 -10 17.9 17.2
3 12 -10 21.3 21.7
12 3 10 47 19.6
3 12 -10 50.69 20.5
-3 15 10 38.6 21.9
12 -15 -10 37 16.9
-3 -12 -10 2.7 35.1
-15 3 -10 56.19 24.9
-12 15 -10 0.4 12.4
3 -15 10 24 20.2
12 -15 -10 22.2 26.6
13 2 -10 133.09 22.2
15 -13 -10 151.98 26.7
-2 15 -10 172.88 27.3
-13 15 10 101.49 27.6
2 -15 -10 139.99 22
-2 15 -10 96.59 20
-13 -2 -10 83.79 19
-15 13 -10 171.28 23.6
2 13 10 100.29 20.4
13 2 10 80.69 19.8
2 13 -10 107.49 21.7
13 -15 -10 81.69 27.2
-2 15 10 69.39 22.7
-15 2 -10 68.89 22.9
2 13 -10 60.09 22.3
-2 15 10 66.69 19.1
13 -15 -10 113.99 21.2
14 -15 10 11.8 18.8
-1 15 -10 17.2 16.3
-15 14 -10 5.1 16.4
-14 -1 -10 14.8 16.7
1 14 10 28.2 14.7
15 -1 10 21.2 17
1 -15 -10 17 10.8
-1 15 -10 2.7 19.9
1 14 10 8.8 18.1
14 1 -10 42.4 17.3
15 -14 -10 5.2 21.3
1 14 -10 17.2 19.8
-15 1 -10 27.2 19.7
15 -14 10 13.7 16.7
-14 15 -10 2.3 10.8
-1 15 10 20.5 16.2
14 1 10 17.2 16.5
14 -15 -10 37 20.1
-1 15 10 15.1 20
1 14 -10 12.3 17.2
14 -15 -10 9.2 16.8
0 15 10 3.7 10.8
0 15 -10 -7.9 17
0 15 -10 2.7 14.6
0 15 10 11.7 20
15 0 10 -9.3 15.2
-15 0 -10 18.5 16.9
15 -15 -10 -4.6 19.2
-15 15 -10 3 10.9
15 -15 10 15.9 16.1
-8 16 -10 12.2 19.6
8 8 -10 7.3 21.2
8 8 10 11 16.7
-16 8 -10 6.7 20
16 -8 10 -0.6 20.4
8 -16 -10 2.7 10
16 -8 -10 3.1 17.5
8 -16 10 21.6 20.5
8 -16 -10 30.1 21
-8 16 10 21.9 21.1
16 -9 -10 196.28 32.5
7 9 10 185.78 28.9
-7 16 -10 199.78 28.4
-16 9 -10 240.88 35.7
9 -16 10 248.58 36.9
7 -16 -10 261.17 35.6
16 -7 10 227.28 36.2
-9 16 10 145.59 28.2
9 7 -10 280.87 38.8
7 -16 10 205.58 27
-7 16 10 170.28 28.4
16 -7 -10 134.89 20.3
9 7 10 136.19 22.9
-16 7 -10 186.08 27.3
9 -16 -10 161.68 26.6
7 9 -10 163.08 27.9
-9 16 -10 123.89 24.7
16 -9 10 198.48 27.3
10 6 -10 36.7 22.9
6 -16 -10 31.7 20.2
6 10 10 46.4 18.1
-10 16 10 4.2 22.8
16 -6 10 47.4 20.2
10 -16 10 43.5 20.7
-16 10 -10 27.8 19.1
16 -10 -10 35.4 19.9
-6 16 -10 10.5 19.5
10 -16 -10 27.8 15
-10 16 -10 18.2 18.2
10 -16 -10 50.19 23.8
-6 16 10 32.2 21.7
10 6 10 37.6 18.2
16 -10 10 64.99 22.8
6 -16 10 45.5 21.1
-16 6 -10 68.09 23.8
6 10 -10 36 21.3
-16 11 -10 65.69 20.8
5 -16 -10 70.29 21.3
16 -5 10 70.79 20.7
16 -11 -10 56.09 21.5
5 11 10 32.7 16.7
11 5 -10 53.79 22.1
11 -16 10 67.09 21.1
-11 16 10 45.5 24.9
-5 16 -10 36.8 20.2
-11 16 -10 -3.3 18
5 -16 10 69.79 22.1
-5 16 10 38.7 21.4
11 5 10 58.99 17.9
11 -16 -10 94.69 26.9
-16 5 -10 66.59 23.6
16 -11 10 65.29 22.9
5 11 -10 66.19 22.9
11 -16 -10 43.5 15.5
12 4 -10 138.69 23.2
16 -4 10 182.38 25.1
12 -16 10 120.49 23.1
-4 16 -10 152.08 25.1
4 -16 -10 139.59 23.1
16 -12 -10 104.59 23
-16 12 -10 145.89 24.4
4 12 10 78.89 17.5
-12 16 10 113.99 27.5
12 4 10 88.79 19.4
12 -16 -10 71.09 17.4
4 12 -10 81.79 21.8
-4 16 10 88.49 23.2
4 -16 10 152.58 24.4
12 -16 -10 164.08 31
-16 4 -10 131.19 25.7
13 -16 10 2.3 18.6
16 -3 10 2.1 16.4
-3 16 -10 9.7 19.1
3 -16 -10 0.3 15.7
3 13 10 -3.4 17.9
13 3 -10 9.5 17.8
-16 13 -10 -8 16.6
-13 16 10 3.9 22.5
16 -13 -10 5.3 19.3
3 13 10 1.1 11.5
13 -16 -10 7.4 14.3
13 -16 -10 -6.4 22.2
-3 16 10 10.4 15.9
3 13 -10 -2.1 17.8
-16 3 -10 10.2 20.3
-3 16 10 -8.5 19.4
13 3 10 9.6 16.8
3 -16 10 -16.2 11.7
-14 16 10 25.1 22.2
16 -2 10 47.6 17.7
14 2 -10 46 17.3
14 -16 10 61.59 18.9
-14 -2 -10 25 13.9
16 -14 -10 55.09 21.6
-2 16 -10 56.09 19.7
-16 14 -10 49.8 17.1
2 -16 -10 26.3 14.6
-2 16 10 17.5 14.2
14 2 10 20.6 15.8
-2 16 10 18.4 19.9
-16 2 -10 30.5 19.1
2 14 -10 29 18.5
14 -16 -10 15.7 15.6
14 -16 -10 28.3 20.8
-15 -1 -10 25.9 15.1
15 -16 10 20.2 16.1
1 15 10 13.7 17.5
16 -15 -10 14.6 19.4
16 -1 10 13.8 16.8
-15 16 10 23.9 22.5
-1 16 -10 21.9 16.5
1 15 -10 12.3 17.1
15 -16 -10 33.1 18.5
-16 1 -10 33.3 17.9
15 1 10 18.4 16.3
-1 16 10 14.7 18.9
16 0 10 3.6 15.5
-16 16 10 -6.8 20.6
16 -16 10 -19.2 10.6
-16 0 -10 9.5 15.1
0 16 10 -8.4 17.4
16 -16 -10 -1.4 17.1
0 16 -10 -0.1 15.4
17 -9 -10 31.3 17.1
-8 17 -10 -6.3 17.2
8 -17 -10 27.6 18.4
-17 9 -10 31.4 19.3
9 8 -10 22.7 21.3
-9 17 10 35.3 20.5
17 -8 10 14.4 19.9
9 -17 10 30.4 18.5
8 9 10 28.9 15.4
-9 17 -10 1.8 17.7
9 -17 -10 7.9 10.2
-8 17 10 29.4 20.8
9 -17 -10 31 18.7
8 -17 10 25.5 18.2
8 9 -10 2.7 19.4
9 8 10 16.4 15.7
-17 8 -10 29 20.7
17 -9 10 33.7 21.6
17 -8 -10 11.3 12.1
10 7 -10 41.3 22.6
-10 17 10 3.5 20
7 10 10 6.1 12
17 -7 10 13.8 20.2
-17 10 -10 14.1 18.2
-7 17 -10 4.6 17.8
7 -17 -10 16.8 18.6
10 -17 10 18.2 17.6
17 -10 -10 30.7 17.5
-17 7 -10 11.5 19.6
7 -17 10 30.8 19.5
-7 17 10 22.1 20.5
10 -17 -10 21.3 19.9
10 -17 -10 12.3 14
17 -10 10 2.8 20.6
7 10 -10 16.2 20.3
-10 17 -10 0.8 17.6
10 7 10 15.7 14.9
17 -6 10 167.48 23.9
-17 11 -10 123.39 22.4
11 -17 10 173.28 22.6
17 -11 -10 135.09 23.6
-6 17 -10 101.19 22
-11 17 10 146.39 26.4
11 6 -10 136.19 24.5
6 -17 -10 153.18 23.7
11 -17 -10 106.79 23.7
-17 6 -10 94.19 22.4
11 6 10 75.09 18
-11 17 -10 61.49 18.1
6 11 -10 111.59 22.5
11 -17 -10 46.9 14.4
17 -11 10 89.69 22
6 -17 10 83.79 20.6
-6 17 10 83.49 21.9
-12 17 10 95.09 24.4
-17 12 -10 154.08 23.5
-5 17 -10 84.69 21.3
12 -17 10 133.59 21.2
17 -5 10 125.39 22.4
5 -17 -10 120.49 20.9
17 -12 -10 120.39 24
12 5 -10 119.09 23.4
12 -17 -10 71.39 15.6
5 -17 10 112.49 22.2
5 12 -10 86.79 21.3
12 -17 -10 147.39 25.9
-5 17 10 99.59 22.5
17 -12 10 115.99 21.8
12 5 10 84.29 18.4
-17 5 -10 151.78 25.5
-4 17 -10 214.58 30.1
-13 17 10 154.08 29.4
-17 13 -10 160.88 23.2
17 -13 -10 212.38 27.9
13 -17 10 186.08 29.8
17 -4 10 248.48 27.5
4 -17 -10 155.78 23.4
13 4 -10 200.48 25.6
-4 17 10 115.49 22.9
-4 17 10 117.09 18.8
13 -17 -10 124.69 18.9
13 -17 -10 157.38 26.6
-17 4 -10 153.28 24.6
4 13 -10 104.89 21.6
13 4 10 82.69 18.3
-17 14 -10 36 14.6
17 -14 -10 25.4 18.2
3 14 10 -4.8 18.2
17 -3 10 42.3 18.5
14 -17 10 37.4 16.5
14 3 -10 65.09 18.1
-14 17 10 25.2 21.5
-3 17 -10 49.6 18.5
3 -17 -10 48.9 16.1
14 -17 -10 30 19.2
14 3 10 37.5 14.6
14 -17 -10 73.99 18.3
-3 17 10 1.4 11.2
3 14 -10 51.49 18.5
-17 3 -10 63.99 20
-3 17 10 26.5 18.9
17 -15 -10 26.2 18.1
-2 17 -10 22.3 15.9
17 -2 10 26.4 17.5
-15 -2 -10 -1.1 12.9
-15 17 10 26 21
15 -17 10 8 14.4
2 15 10 -4.3 13.1
-2 17 10 28 18.6
-17 2 -10 40.6 17.9
15 2 10 13.7 14.9
15 -17 -10 21.5 13.7
15 -17 -10 42.7 16.9
2 15 -10 40.8 16.7
-16 17 10 41.9 20.4
-1 17 -10 28.1 15.5
1 16 10 -0.9 14
17 -1 10 27.6 16.9
17 -16 -10 35.4 18.2
-16 -1 -10 31 13.3
16 -17 10 14.1 12.7
-17 16 10 38.9 20.8
-1 17 10 12 17.9
1 16 -10 42.3 16.8
16 1 10 34.7 16.1
16 -17 -10 28.9 16.1
-17 1 -10 45.8 16.5
-17 17 10 2.6 18.1
0 17 -10 3.8 15
17 0 10 1.8 16.5
0 17 10 -6 11.7
17 -17 -10 -7.6 16.9
-17 0 -10 15.6 13.5
9 9 -10 6.9 19.9
9 -18 10 18.6 16.5
9 -18 -10 19.2 16.6
-9 18 -10 6.3 16
-9 18 10 16.9 19.1
18 -9 10 21.3 20
-18 9 -10 1.8 17.1
-8 18 -10 36.3 16.8
10 -18 10 55.29 17.5
18 -10 -10 43.8 14.8
-18 10 -10 44.9 18.3
18 -8 10 66.19 21.6
10 8 -10 84.19 22.5
-10 18 10 41.5 20.2
8 -18 -10 55.89 17.3
-18 8 -10 78.79 20.7
10 -18 -10 116.69 22.3
-10 18 -10 50.99 18.1
8 10 -10 95.79 22.9
18 -10 10 70.49 20.4
-8 18 10 56.59 20.9
8 -18 10 95.09 19.8
11 7 -10 37.1 19.5
-7 18 -10 21.6 15.8
18 -11 -10 26.1 17.4
7 -18 -10 24.5 15.4
11 -18 10 21.6 15.6
-11 18 10 20.6 19.1
-18 11 -10 34.8 18
18 -7 10 33.8 18.6
11 -18 -10 15.9 17.6
18 -11 10 16.6 18.9
11 7 10 -2.9 10.4
7 -18 10 21.5 17.1
-18 7 -10 9.3 18.6
-11 18 -10 14.2 15.9
-7 18 10 30.4 18.6
11 -18 -10 25.4 14.2
7 11 -10 9.4 18.1
-18 12 -10 19.1 17.7
12 -18 10 44.8 16.5
-12 18 10 15.8 18.9
6 -18 -10 23.1 15
18 -6 10 40.5 18.3
18 -12 -10 19.7 16.9
-6 18 -10 28 17
12 6 -10 32.4 18.1
-12 18 -10 -1.3 12.7
18 -12 10 33 18.7
6 12 -10 20.7 18.5
6 -18 10 33.3 17.8
-6 18 10 32.5 18.9
12 6 10 11.4 12.5
12 -18 -10 48.6 20.8
-18 6 -10 16.9 18
12 -18 -10 25.3 14.9
18 -13 -10 50.09 19.3
5 -18 -10 41.4 15.1
18 -5 10 42.2 18
-5 18 -10 57.79 18.2
-13 18 10 36.2 20.1
-18 13 -10 44.2 16.1
13 5 -10 39.8 18.4
13 -18 10 44.3 16.7
5 13 -10 24.9 17
-18 5 -10 31.5 17.8
13 -18 -10 25 18.8
13 5 10 23.5 12.8
-5 18 10 18.3 18
13 -18 -10 44.2 15
-5 18 10 8.5 10.4
5 -18 10 11 14.9
18 -4 10 5.8 16.6
18 -14 -10 6.8 19
-18 14 -10 1.2 13.1
-4 18 -10 27.3 16.5
-14 18 10 16.6 18.9
14 4 -10 15.4 16.8
14 -18 10 12.8 15.2
4 -18 -10 13.2 13.1
-18 4 -10 14.4 16.7
14 -18 -10 17.6 14.4
14 -18 -10 19.1 16.7
4 14 -10 27.2 16.6
14 4 10 17 13.6
-4 18 10 16.2 17.2
15 -18 10 47.3 16.6
-15 18 10 27.8 19
18 -15 -10 42.1 20.5
-3 18 -10 32.6 15.5
18 -3 10 40.7 17.4
15 -18 -10 19 12.6
3 15 -10 22.5 15.6
-3 18 10 26.5 16.9
-18 3 -10 54.39 17.2
15 3 10 17.1 14.1
15 -18 -10 25.2 14.3
18 -16 -10 60.29 19.7
16 -18 10 16.4 12.8
-16 18 10 39.6 18.4
18 -2 10 46.1 17.9
-2 18 -10 38.6 16.1
-18 2 -10 24.2 15.4
2 16 -10 25.9 15.6
16 2 10 5.6 13
16 -18 -10 27.5 14.6
-18 16 10 6.6 17.9
-2 18 10 7.8 16.6
-17 18 10 9.9 18.4
-1 18 -10 0.8 14.9
18 -1 10 12.2 17.9
18 -17 -10 1.1 18
1 17 -10 -2.4 15.5
-18 17 10 -6.6 17.7
17 1 10 -7.8 11.5
17 -18 -10 9.4 16
-1 18 10 -3.3 12.2
-17 -1 10 -11.2 10.9
-18 1 -10 16.3 14.5
-18 18 10 1.3 16.2
-9 19 -10 22.2 15.1
10 -19 10 35.7 16.2
-19 10 -10 16.1 16.2
-10 19 10 26.9 18.2
9 -19 -10 27.7 16.3
19 -9 10 30.6 16.2
10 9 -10 27.2 19
19 -10 10 11.4 17.2
9 -19 10 14.1 15.6
-10 19 -10 1.6 15
-19 9 -10 -5.6 15.4
10 -19 -10 14.7 15.2
-9 19 10 -1.5 16.3
9 10 -10 13.1 18.6
-8 19 -10 47.1 16.7
19 -8 10 75.39 19.5
11 -19 10 93.49 18.2
8 -19 -10 64.79 15.5
-19 11 -10 61.49 17.4
11 8 -10 57.89 18.9
-11 19 10 51.69 18.7
8 -19 10 41.4 16.7
8 11 -10 42.9 19.1
-11 19 -10 43.2 15.6
19 -11 10 46.4 18.5
-19 8 -10 40.7 18
-8 19 10 54.59 18.4
11 -19 -10 35.7 16.5
-12 19 10 42.6 18.3
7 -19 -10 62.79 16.2
-7 19 -10 45 16.4
19 -7 10 91.69 20.9
-19 12 -10 67.99 17.1
12 -19 10 80.69 17.6
12 7 -10 51.49 17.8
19 -12 10 82.49 19.5
-7 19 10 58.19 18.4
12 -19 -10 64.89 14
7 -19 10 89.69 18.1
7 12 -10 107.49 20
-19 7 -10 76.89 19.2
12 -19 -10 84.69 19.2
-13 19 10 11.1 16.3
6 -19 -10 11.8 13.2
19 -13 -10 2.9 15.1
13 6 -10 15.5 17.3
-19 13 -10 7.2 11.4
13 -19 10 11.3 14.6
19 -6 10 -12.1 17.1
-6 19 -10 10.5 15.4
-19 6 -10 -1.4 16.4
6 13 -10 1.2 16.3
13 -19 -10 5.1 12.3
-6 19 10 -0.9 15.7
13 -19 -10 6.8 16.1
19 -13 10 2.3 17.1
6 -19 10 -0.5 11.2
-14 19 10 13.3 16.5
19 -5 10 -0.7 17.5
19 -14 -10 -4.4 17.2
14 -19 10 5 15.1
5 -19 -10 15.9 11.9
-5 19 -10 1.1 15.2
14 5 -10 3.2 16.7
14 -19 -10 14.3 12.7
5 14 -10 -0.7 16.5
14 -19 -10 16.6 16.1
-5 19 10 11.3 15.7
-19 5 -10 5.2 15.8
-15 19 10 15 17
15 -19 10 26.7 16
-4 19 -10 37.9 15.6
19 -15 -10 29.6 18.2
19 -4 10 48.4 19.6
-4 19 10 24.5 14.8
-19 4 -10 20.2 16.6
15 -19 -10 14.2 9.8
15 -19 -10 30.7 13.2
4 15 -10 39.1 17.2
19 -16 -10 22.4 20.3
-16 19 10 9.5 17.6
-3 19 -10 21.2 16.5
19 -3 10 12.8 20.4
-16 -3 10 18.4 16.3
-3 19 10 -2.7 11
-19 3 -10 13.8 17
-19 16 10 0.7 17.3
3 16 -10 13.6 15.8
16 -19 -10 7.3 13.6
-10 20 -10 40 15.2
10 -20 10 80.39 16.6
10 -20 -10 63.69 15.3
10 10 -10 79.29 20.3
-20 10 -10 46.6 16.8
20 -10 10 78.39 19.4
-10 20 10 54.19 17.3
-20 11 -10 25 16
11 9 -10 30.5 17.5
11 -20 10 45.1 15.5
-11 20 10 33.3 15.5
9 -20 -10 17.2 13.5
-9 20 -10 42.6 15.9
20 -9 10 40.4 18.3
11 -20 -10 18.8 14.2
20 -11 10 26.9 17.7
-20 9 -10 26.7 16.9
-11 20 -10 0.1 10.2
-9 20 10 31.6 15.8
9 11 -10 47.3 19.2
9 -20 10 39.9 16.1
12 8 -10 4.1 17.9
12 -20 10 14 16.2
-20 12 -10 10.4 12.2
8 -20 -10 6.9 12.8
20 -8 10 18.2 16.1
-12 20 10 11.4 16.3
-8 20 -10 3.4 15
-20 8 -10 9.6 17
8 12 -10 25.4 18.9
-8 20 10 14.1 15.7
12 -20 -10 19.1 14.8
20 -12 10 6.1 15
8 -20 10 17.6 15.3
-13 20 10 23.8 15.8
13 -20 10 14.6 15.9
7 -20 -10 19.8 12.5
-7 20 -10 22.1 16.1
20 -7 10 22 18.9
13 7 -10 9 18.6
13 -20 -10 7 12.2
-20 7 -10 14.3 17.5
13 -20 -10 19.2 15.2
-7 20 10 3.4 15.2
7 13 -10 31.3 18.2
14 -20 10 56.19 17.4
-14 20 10 26.4 17.2
20 -6 10 49.4 19.9
6 -20 -10 14.2 8
14 6 -10 56.49 20.4
-6 20 -10 23.5 16.3
14 -20 -10 44.1 16.3
-6 20 10 18.7 15.3
-20 6 -10 43.1 18.1
6 14 -10 49.6 19.8
0 0 -11 31.7 29.4
0 -1 -11 2.4 26
-1 1 -11 16 29.9
0 1 -11 48.4 30.1
1 -1 -11 7 25.7
-1 0 -11 7.3 28.1
1 0 -11 34.7 28.6
-1 2 -11 105.49 35.3
-1 -1 -11 24 26.8
-2 1 -11 51.59 31.8
1 1 -11 82.09 32.1
-2 2 -11 31.7 30.2
0 2 -11 37.4 31.3
-2 0 -11 27.7 31.6
-3 2 -11 235.58 44.8
-1 3 -11 212.78 41.9
-2 3 -11 177.48 37.7
-3 1 -11 136.39 38.6
1 2 -11 260.27 44.8
0 -3 -11 59.69 21.3
0 3 -11 13.1 30.4
-3 0 -11 9.8 32.7
-3 3 -11 33 31
-2 4 -11 100.19 32.8
-4 2 -11 78.19 35.7
2 -4 -11 43.2 16.1
-4 3 -11 27 30.9
-1 4 -11 51.49 33
-3 -1 -11 28.4 32.2
-4 1 -11 70.59 37.1
3 -4 -11 38.7 17
-3 4 -11 31.1 27.3
-1 -3 -11 93.79 29
-4 0 -11 42.2 36.2
0 4 -11 78.99 32.4
-4 4 -11 89.29 33.3
0 -4 -11 70.89 28.3
-2 5 -11 16.3 30.7
-2 5 -11 6 14
5 -3 -11 10.5 14.6
-3 -2 -11 8.8 23
-5 3 -11 37.5 36
2 -5 -11 44.3 23.2
-3 5 -11 0.2 14.8
5 -2 -11 29.9 15.6
-2 -3 -11 3.2 22.5
3 -5 -11 34 19.9
-3 5 -11 25.5 28.4
-5 2 -11 17.2 37.9
-1 5 -11 11.8 15.1
-4 -1 -11 14.9 34.8
1 -5 -11 57.89 28.6
-5 4 -11 40.9 34.7
1 -5 -11 62.79 23.9
-1 5 -11 40.3 29.5
-5 4 -11 2.9 15.3
-4 5 -11 11.1 16.9
-4 5 -11 49 30.4
-1 -4 -11 63.29 18.5
-1 -4 -11 50.99 25.8
4 -5 -11 41.4 16.8
1 4 -11 3.2 17.9
-5 1 -11 28.6 36.4
5 -1 -11 63.79 17.2
5 -5 -11 37.6 16.2
0 -5 11 13 25.3
-5 0 -11 47.3 37.3
0 5 -11 7.6 18.3
0 -5 -11 14.9 21.8
5 -5 -11 4 18
-5 5 -11 13 28.6
-5 5 -11 5.6 17.3
0 -5 -11 6.1 25.7
-6 3 -11 0 17.3
-3 -3 11 13.9 24.8
-3 -3 -11 20.7 25.7
-3 6 -11 15.6 18.1
-6 3 -11 24.6 37.2
3 -6 -11 3.5 25.3
-3 6 -11 4.5 30
6 -3 -11 41 19.5
3 3 11 3.4 17
2 -6 -11 1.3 28.2
-6 4 -11 14 35.2
6 -4 -11 31.9 19
-2 6 -11 -1.5 19.2
-4 -2 -11 11.8 24.5
-2 -4 11 26 25.2
2 -6 -11 14.3 25.8
2 4 11 -12.4 18.6
-6 4 -11 15.5 17.9
-2 6 -11 -1.2 29.8
4 -6 -11 8.5 24.5
-6 2 -11 13.6 38
2 4 -11 1.5 16.4
-4 6 -11 1.3 27.6
6 -2 -11 18.6 17.5
4 2 11 3.3 17.7
-4 6 -11 16.3 20
-2 -4 -11 14.3 25.3
-4 -2 11 18.1 23.3
-1 6 -11 44.6 22.3
-5 -1 -11 53.09 27.3
-1 6 -11 97.09 37.2
-5 -1 -11 22.8 35.8
1 -6 -11 41.6 26.8
-6 5 -11 84.79 24.1
-1 -5 11 65.09 29
1 -6 -11 37.9 30.3
-6 5 -11 77.99 35.3
6 -5 -11 48.9 19.3
-5 6 -11 100.49 33.8
6 -1 -11 84.59 18.8
-1 -5 -11 90.09 33.2
-5 6 -11 78.89 24.1
5 -6 -11 60.39 21.8
1 -6 11 71.79 27.8
-1 -5 -11 83.39 24.8
-5 -1 11 52.29 25
5 1 11 65.29 21.9
1 5 -11 58.39 23.9
-6 1 -11 64.89 39.9
-6 6 -11 36.4 21.1
6 -6 -11 44.1 16.3
-6 0 -11 44.9 37.4
6 -6 -11 60.39 20.8
0 -6 11 38.5 25.5
0 -6 -11 55.99 26.4
0 6 -11 59.89 23.4
-6 0 11 60.69 27.2
0 -6 -11 81.29 33
-6 6 -11 75.59 35.3
6 0 11 37.8 20.6
4 -7 11 48.2 21.6
-7 4 -11 15.9 21.3
-3 -4 11 6.2 23.6
3 -7 -11 17.1 27.2
-7 4 -11 56.09 38.3
-3 7 -11 24.6 20
4 3 -11 -2.9 15
3 4 11 32.8 22.9
-3 7 -11 47 31.4
-4 -3 -11 35.8 26.9
7 -4 -11 46.6 18.7
-7 3 -11 19 37.5
4 -7 -11 0.2 26.6
-3 -4 -11 25.6 28.7
4 3 11 35.7 23.2
3 -7 11 18.8 21.4
7 -3 -11 43.3 19.8
-7 3 -11 3.9 17.8
3 4 -11 10.7 20
-4 -3 11 6.2 24.4
-4 7 -11 17.1 30
3 -7 11 2.9 25.7
-4 7 -11 10.9 19.2
5 -7 11 46.4 22.5
-7 5 -11 22.5 33.2
-5 -2 -11 26.5 27
-2 7 -11 91.59 35.8
7 -2 11 -2 19.8
2 -7 -11 42.4 30.9
2 5 11 9.9 20.6
7 -5 -11 45.2 19.9
2 -7 -11 23.5 29.9
-2 -5 11 39.4 28.2
-2 7 -11 50.79 21.6
-7 5 -11 20.6 23.4
-5 -2 11 25.3 25.1
2 -7 11 59.89 22.1
-2 -5 -11 66.49 18.8
5 2 11 61.19 25
2 5 -11 61.09 25.5
5 -7 -11 62.19 28.8
-7 2 -11 57.59 40.1
-5 7 -11 81.09 32.1
7 -2 -11 59.59 18.6
-2 -5 -11 43.7 29.8
-5 7 -11 68.99 23.4
2 -7 11 47.6 29
6 -7 11 17.6 20.8
-1 -6 11 -1.6 24.8
-1 7 -11 -5.5 21.7
7 -6 -11 22.6 20.7
-7 6 -11 6.2 21
-7 6 -11 -9.9 31.9
-6 -1 -11 11.5 26.5
-7 1 11 -8.9 23.5
7 -1 11 28.8 21.1
-6 -1 -11 5.5 36
1 -7 -11 -9 29.2
1 -7 -11 22.7 32.1
-6 7 -11 5.4 20.5
7 -1 -11 38.4 16.8
-1 -6 -11 24.7 24.8
6 1 11 -6.1 21.7
-1 -6 -11 -22.6 29
1 6 -11 9.3 24.5
-7 1 -11 4.8 37.7
-6 -1 11 2.8 25.1
-6 7 -11 9.7 28.3
1 -7 11 -9.3 25.8
6 -7 -11 8.6 20.5
7 -6 11 -4.4 23.1
6 -7 -11 16.2 25.1
-7 0 11 9.3 25.6
-7 7 -11 32.8 30.9
7 -7 -11 21.9 21.9
0 7 -11 26.6 24.6
7 0 11 32.9 23
7 -7 11 58.99 23.2
0 -7 11 26.4 29.9
0 -7 -11 14.8 26.8
0 -7 -11 -13.5 31.4
-7 0 -11 45.3 39.1
7 -7 -11 35.4 20.3
-7 7 -11 12.4 19.8
-8 4 -11 391.26 47.1
4 -8 -11 470.25 51.69
-4 8 -11 397.86 43.6
8 -4 -11 383.96 41.9
4 4 -11 434.96 47.5
-4 -4 11 315.27 59.79
-4 -4 -11 423.06 65.69
-8 4 -11 434.36 64.99
4 4 11 396.46 44.8
4 -8 11 506.55 50.69
-4 8 -11 421.36 56.69
8 -5 -11 204.38 33.5
3 5 11 195.08 28.6
5 3 -11 167.08 27
-3 8 -11 162.68 26.9
-8 5 -11 136.79 26.7
-3 8 -11 197.88 42.1
3 -8 -11 159.58 33.3
5 -8 11 102.69 30.5
3 -8 -11 95.19 35.3
-5 -3 -11 81.39 31.6
-3 -5 11 137.89 35.1
-8 5 -11 159.88 42.8
-8 3 -11 219.68 31.9
-5 -3 11 202.88 39
5 -8 -11 280.07 39.5
8 -3 -11 213.48 34
-8 3 -11 208.68 47.8
-5 8 -11 161.68 37.1
3 -8 11 311.37 36.7
5 3 11 199.88 30.7
-5 8 -11 260.37 32.2
-3 -5 -11 240.88 46.3
-8 6 -11 163.38 42.8
-2 8 -11 145.59 26.8
2 -8 -11 67.99 35.4
-8 6 -11 122.39 26.7
8 -6 -11 121.49 24.2
8 -2 11 144.49 27
6 -8 11 140.49 29.4
2 6 11 108.39 26
2 -8 -11 95.79 30.5
-6 -2 -11 76.39 30.4
-2 -6 11 126.39 35.7
6 -8 -11 105.39 24.3
-6 8 -11 135.09 36.3
-8 2 -11 95.39 24.4
-2 -6 -11 103.89 36.4
8 -2 -11 99.29 20.5
6 2 11 103.89 25.5
2 -8 11 95.49 33.4
2 -8 11 170.88 31.9
6 -8 -11 98.49 28.8
-6 8 -11 111.29 24.6
-6 -2 11 74.59 31.2
2 6 -11 99.69 25.6
-8 2 -11 173.68 48.7
8 -6 11 86.39 23
-7 -1 -11 86.79 31.6
-1 -7 11 52.89 32.6
1 -8 -11 107.09 32.2
-8 7 -11 141.59 39.6
8 -7 -11 41.1 18.4
-8 7 -11 63.59 23.4
1 -8 -11 90.49 38.4
1 7 11 93.19 24.4
-7 -1 -11 8 35.7
-1 8 -11 133.19 28.4
7 -8 11 100.29 26.9
8 -7 -11 90.09 23.7
8 -1 11 104.69 23.5
7 1 11 192.28 28.6
7 -8 -11 123.89 29.4
-7 8 -11 101.29 24.4
1 -8 11 119.69 36.4
8 -7 11 123.09 28.2
1 -8 11 79.19 27.5
-1 -7 -11 134.19 42.4
-8 1 -11 138.29 46.7
8 -1 -11 170.68 27.1
7 -8 -11 93.69 25.8
-1 -7 -11 105.09 27.9
1 7 -11 111.39 27.7
-7 -1 11 88.89 31.6
-7 8 -11 131.19 35.8
0 8 -11 31.2 24.6
-8 8 -11 35.3 21.2
0 -8 -11 16.3 34.4
-8 8 -11 38.9 32.9
0 -8 11 20.9 33.1
0 -8 -11 30.3 27.8
8 -8 -11 51.39 22.5
8 -8 11 66.19 26.2
8 -8 -11 36.7 23.3
-8 0 -11 4 37
8 0 11 47.8 22.9
-5 -4 -11 124.19 37.1
-4 9 -11 120.39 35.5
-9 5 -11 207.68 31.9
4 -9 -11 221.08 34.9
-4 -5 11 124.19 34.9
-4 9 -11 158.38 26.3
-9 5 -11 175.68 42.3
5 4 -11 219.98 31.3
9 -5 -11 220.38 28.5
4 -9 -11 127.59 37.6
4 5 11 226.08 30.2
4 -9 11 75.09 30.9
4 5 -11 171.58 28.6
-9 4 -11 177.28 44.2
-9 4 -11 238.28 33.3
-4 -5 -11 224.48 45.4
5 4 11 139.09 26.7
-5 9 -11 198.88 40
-5 9 -11 137.49 24.9
-5 -4 11 111.19 34.9
5 -9 -11 141.99 31.5
3 6 11 204.38 28.8
-6 -3 -11 253.97 45.7
-9 6 -11 211.88 29.9
-3 -6 11 141.19 37.3
3 -9 -11 234.38 36.4
9 -3 11 261.67 38.7
9 -6 -11 273.47 39.7
6 -9 11 315.57 45.2
6 3 -11 261.17 32.1
-3 9 -11 254.37 38.2
-9 6 -11 338.17 56.49
3 -9 -11 165.48 41.9
6 -9 -11 219.68 30.1
-9 3 -11 265.07 52.49
-3 -6 -11 272.57 50.69
3 -9 11 287.07 45.5
6 -9 -11 203.38 34.9
-6 9 -11 274.17 38.9
-6 9 -11 196.28 40
6 3 11 267.67 41.5
9 -3 -11 323.27 36.7
-9 3 -11 255.37 34.5
3 6 -11 275.67 42.6
7 -9 11 109.09 27.5
-2 -7 11 11.3 30.2
-9 7 -11 68.29 25.1
7 2 -11 32.2 19.4
-7 -2 -11 32.2 30.4
2 7 11 51.29 21.6
2 -9 -11 41.7 37.6
-9 7 -11 41.3 32
2 -9 -11 56.69 28.2
-2 9 -11 66.29 25.3
9 -7 -11 105.69 25.4
9 -2 11 88.69 25.2
-7 9 -11 70.19 31.9
-7 9 -11 90.09 23.8
2 -9 11 98.49 29.4
-2 -7 -11 51.39 37.6
-9 2 -11 64.79 26.8
7 -9 -11 33.3 23.9
2 -9 11 -8.8 31.1
2 7 -11 82.39 26.7
9 -7 11 43.5 25.3
9 -2 -11 106.59 20.6
-2 -7 -11 65.79 19.7
7 -9 -11 69.39 28.2
-7 -2 11 23 30.9
-9 2 -11 79.09 43.5
7 2 11 70.19 23.4
-9 8 -11 69.49 25
-9 8 -11 66.09 33.9
1 -9 -11 52.29 38.7
1 8 11 64.29 22.5
9 -8 -11 65.99 25.3
9 -1 11 81.79 23.3
-1 -8 11 57.29 35.9
1 -9 -11 89.09 28.6
-1 9 -11 95.79 25.8
-8 -1 -11 55.09 30.8
8 -9 11 108.19 27.7
1 8 -11 53.89 25.1
-9 1 -11 58.09 41.7
8 -9 -11 46.4 25.1
1 -9 11 26.1 34.8
-1 -8 -11 33 38
8 1 11 63.49 22.1
-9 1 -11 25 22.9
8 -9 -11 38.8 27.3
-1 -8 -11 27.3 24.7
-8 9 -11 46 22.6
1 -9 11 29.4 24
9 -8 11 64.19 26.2
-8 9 -11 83.49 34.1
-9 9 -11 62.19 22.3
-9 0 -11 12.3 16.8
-9 0 -11 -2.3 34.6
0 -9 11 33.9 33.7
9 -9 11 28.5 22.7
0 -9 -11 6.4 37.5
-9 0 11 0.4 30.1
9 -9 -11 37.9 23.3
9 -9 -11 10.9 22.4
-9 9 -11 31.8 30.1
0 -9 -11 47.6 27.1
9 0 11 50.99 21
0 9 -11 33.4 22.9
5 5 11 20.1 21.9
10 -5 -11 11.1 18.5
10 -5 11 18.1 18.2
-5 -5 11 -20.9 29.2
-5 10 -11 10.7 20
5 -10 -11 -3.5 25.6
5 -10 11 45.6 23.5
-5 -5 -11 4.8 32.3
5 5 -11 32.3 24.7
-10 5 -11 20.7 36.9
-5 10 -11 21.3 31.1
-10 5 -11 34.2 23.4
6 4 -11 91.79 25.9
10 -4 11 164.88 25.6
-10 6 -11 143.49 27.3
-4 -6 11 139.29 39.6
4 -10 -11 193.98 34.6
4 6 11 131.19 25.5
-10 6 -11 220.38 47.2
-4 10 -11 180.78 27.5
-6 -4 -11 186.88 43.7
10 -6 -11 158.38 25
6 -10 11 178.08 28.6
4 6 -11 85.59 26.2
6 -10 -11 139.69 32.2
-6 -4 11 53.19 32.5
-10 4 -11 127.09 27.9
6 4 11 124.79 25.3
10 -4 -11 139.89 23.9
-6 10 -11 110.09 37.1
-10 4 -11 113.59 43
-6 10 -11 102.99 23.9
-4 -6 -11 72.39 36.4
4 -10 11 148.39 28.9
3 -10 -11 17.9 33.6
7 -10 11 105.99 26.9
-7 -3 -11 55.19 35
3 7 11 59.19 21.8
-10 7 -11 69.39 36.4
-3 -7 11 26.7 33.3
10 -3 11 82.99 22.8
-10 7 -11 66.49 24.2
10 -7 -11 105.49 24.8
7 3 -11 57.19 23.5
3 -10 -11 59.99 26.7
-3 10 -11 90.09 25.1
-7 10 -11 100.59 34.5
7 -10 -11 65.59 25
-7 -3 11 55.59 33.7
10 -3 -11 156.78 23.5
-10 3 -11 72.99 26.8
-7 10 -11 81.39 23.2
7 3 11 140.09 26
3 7 -11 105.69 27.3
-3 -7 -11 103.49 41
7 -10 -11 82.89 29.7
-10 3 -11 118.39 46.6
3 -10 11 21.5 32.2
3 -10 11 90.09 26.8
10 -2 11 84.49 24.6
8 2 -11 81.59 23.1
-8 -2 -11 31.7 30.2
2 8 11 65.09 22.2
10 -8 -11 106.09 25.8
-2 -8 11 44.9 35.2
2 -10 -11 63.09 39
-2 10 -11 79.59 25.3
-10 8 -11 106.99 25.9
-10 8 -11 90.39 38.9
2 -10 -11 89.99 28.5
8 -10 11 50.39 23.8
2 -10 11 38.8 27.1
8 -10 -11 14.5 25.7
8 2 11 36.2 22.1
-2 -8 -11 15.8 34.6
-8 10 -11 21.8 20.1
10 -8 11 23.5 23.1
10 -2 -11 47.5 17.4
-10 2 -11 3.6 24.2
-10 2 -11 27.7 41.3
-2 -8 -11 55.09 18.6
8 -10 -11 14.4 24.7
2 8 -11 15.6 22.8
2 -10 11 -24.5 30.6
-8 10 -11 27.4 28.1
9 -10 11 36.7 24.6
1 -10 -11 -28.1 36
-10 9 -11 -3.4 20.5
1 -10 -11 -24.6 23.6
1 9 11 17.4 21.5
10 -1 11 25.3 22.1
9 1 -11 11 18.6
10 -9 -11 1.9 21.6
10 -9 -11 45.8 18.2
-10 9 -11 25.3 33.2
-1 10 -11 0.5 22.1
-1 -9 11 -9.5 30.8
1 -10 11 9.4 24.7
-9 -1 11 -14 24.4
10 -9 11 16.6 23.5
1 -10 11 -32.3 31.6
-9 10 -11 21.6 19.9
-1 -9 -11 -6.4 35.2
-9 10 -11 9.2 29.8
9 -10 -11 -12.5 22.8
9 -10 -11 -12.7 24
-1 -9 -11 9.5 23.8
9 1 11 -10.7 19.3
1 9 -11 32.6 23
-10 1 -11 7.2 22.8
-10 1 -11 8.9 37.1
0 -10 -11 -1.1 35
10 0 11 16.2 18.9
0 -10 -11 21.3 24.6
10 -10 -11 10.7 22.9
-10 0 -11 -0.1 44.1
0 10 -11 2.4 21.3
10 -10 -11 -5.7 21.4
-10 10 -11 4.3 28.8
10 -10 11 31.4 23.5
-10 10 -11 0.2 19.6
0 -10 11 -20.8 31.2
-10 0 -11 19.9 21.2
11 -6 -11 113.59 24.2
-5 -6 11 20.3 33
5 6 11 59.39 22.1
-11 6 -11 117.39 43.6
11 -5 11 79.69 22.5
-5 11 -11 86.89 22.9
-11 6 -11 91.69 26
6 5 -11 80.09 24.6
-6 -5 -11 22.7 35
5 -11 -11 39.7 26.3
6 -11 11 47.4 23.4
6 -11 -11 37 28.1
-5 -6 -11 64.79 39.5
6 5 11 71.79 22.8
-6 11 -11 50.19 19.8
-11 5 -11 56.89 24.6
11 -6 11 50.29 20.2
-6 -5 11 4.7 32
6 -11 -11 12.1 15.5
5 -11 11 44.4 24.3
-11 5 -11 103.39 43.2
-6 11 -11 46.8 34.2
5 6 -11 68.79 23.6
11 -5 -11 87.89 24
-11 7 -11 88.89 37
4 -11 -11 92.79 28.1
-11 7 -11 144.59 26.6
-7 -4 -11 85.99 37.8
-4 11 -11 104.39 24.6
-4 -7 11 31.3 31.9
7 -11 11 97.59 25.8
11 -7 -11 115.29 23.4
7 4 -11 95.99 24.7
4 7 11 92.79 22.9
11 -4 11 78.69 21.9
7 4 11 103.99 22.9
-4 -7 -11 69.59 39.4
-7 11 -11 94.99 22.2
-7 -4 11 11.2 31.5
4 -11 11 85.29 26.2
-7 11 -11 68.19 32.4
-11 4 -11 71.39 41.2
7 -11 -11 92.79 26.4
4 7 -11 83.99 24.5
11 -4 -11 89.49 20.5
-11 4 -11 114.89 29.4
7 -11 -11 72.69 29.3
11 -3 11 181.18 26.6
3 8 11 151.98 25.1
-11 8 -11 193.38 45.5
-11 8 -11 185.48 28.2
8 -11 11 221.28 31.3
-8 -3 -11 74.19 34.1
3 -11 -11 142.89 28.8
11 -8 -11 248.98 31.5
-3 11 -11 123.39 26
8 3 -11 113.89 25.6
-3 -8 -11 125.19 44
8 -11 -11 97.19 26.5
11 -8 11 67.79 22.6
3 -11 11 120.59 28.9
-8 11 -11 88.79 33.8
-11 3 -11 160.08 49.99
-11 3 -11 94.79 27.4
3 8 -11 146.79 27.3
8 -11 -11 142.09 32.5
-8 11 -11 168.68 25.6
-11 9 -11 68.79 36
-11 9 -11 78.59 23
-2 11 -11 55.29 22.4
2 9 11 95.69 24.4
2 -11 -11 9.4 33.6
2 -11 -11 73.29 26.3
9 2 -11 87.69 22.8
11 -2 11 54.69 19
9 -11 11 83.89 26.5
11 -9 -11 109.79 26.1
-2 -9 11 8.6 33.8
-2 -9 -11 22.2 38.3
9 -11 -11 71.79 28.3
-9 11 -11 33.2 28.6
11 -9 11 41.1 24
2 -11 11 85.09 28.5
-11 2 -11 27.1 24.8
9 -11 -11 28.7 23.5
-9 -2 11 54.49 28.3
2 9 -11 57.99 20.6
9 2 11 77.29 22
2 -11 11 -16.4 31.4
-11 2 -11 46.6 41.4
-9 11 -11 70.49 20.9
-1 -10 11 -10 31
1 -11 -11 53.89 37.1
-11 10 -11 47.1 21
10 -11 11 22.2 23.3
-10 -1 -11 5.7 15.7
-1 11 -11 49.4 22.7
11 -10 -11 26.8 22.7
1 10 11 81.79 21.8
-11 10 -11 41.9 31.9
11 -1 11 34.5 19
1 -11 -11 64.89 25.2
10 -11 -11 101.39 27.3
1 -11 11 115.19 25.3
-11 1 -11 79.89 25.2
-10 11 -11 98.49 34.8
1 -11 11 27.9 35
-1 -10 -11 116.09 24.8
-1 -10 -11 80.79 41.4
-11 1 -11 -0.5 37.5
11 -10 11 58.79 24
10 -11 -11 29.5 23.2
10 1 11 107.59 23.1
-10 11 -11 92.39 22.3
-11 11 -11 13.3 28.6
11 -11 -11 46.9 24.7
-11 0 -11 14.4 21.3
0 -11 -11 7.5 35
11 -11 11 18.5 23.5
-11 11 -11 42 19.7
0 -11 -11 10.6 22.8
11 0 11 26.4 19.9
0 11 -11 32.7 20.8
0 11 -11 7.5 17.8
11 -11 -11 -10.3 21.5
0 -11 11 -28.2 30.1
0 11 11 35.6 20.2
-12 6 -11 227.78 51.49
-6 -6 -11 152.58 44.8
-6 12 -11 154.18 26
6 6 11 179.88 26.9
6 -12 11 116.29 27.3
6 6 -11 285.77 33.8
6 -12 -11 216.18 34.3
-12 6 -11 178.98 29.2
12 -6 11 178.88 25.9
12 -6 -11 222.38 37
7 -12 11 30.2 23.4
-5 -7 11 -26.8 29.7
-7 -5 -11 11.6 33.6
-12 7 -11 40.3 22.4
5 -12 -11 13.5 23.8
5 7 11 25.2 20.1
7 5 -11 39 22.4
12 -7 -11 43.6 20.8
-12 7 -11 51.89 38.9
12 -5 11 19.1 19.7
-5 12 -11 46.6 22.5
5 -12 11 28.2 24.3
12 -7 11 44 19.3
5 7 -11 91.59 25.7
-5 -7 -11 18.8 37
-7 -5 11 -31.9 28.1
-7 12 -11 30.8 31.4
7 -12 -11 0.5 25.4
7 -12 -11 8.8 21
5 7 -11 1.5 18.4
12 -5 -11 93.69 22.3
-7 12 -11 38.5 19.7
-12 5 -11 43.4 41.2
-12 5 -11 28.5 23.4
7 5 11 50.29 21.5
12 -8 -11 108.49 25.1
4 -12 -11 90.99 26
4 8 11 84.49 22.7
-12 8 -11 71.49 37.5
-12 8 -11 81.09 23
-4 -8 11 15 33.5
8 -12 11 88.59 26.6
8 4 -11 135.69 26
12 -4 11 61.59 21.1
-4 12 -11 105.59 25.1
4 8 -11 1.7 16.7
-8 -4 11 20.5 28.7
-4 -8 -11 10.1 34
12 -4 -11 51.69 19.5
8 4 11 41.4 19.4
4 -12 11 49.6 26.1
-12 4 -11 65.29 27
-8 -4 11 -1 40.5
-8 12 -11 23.4 29.2
8 -12 -11 33.9 23.9
-12 4 -11 34.3 38.7
4 8 -11 71.49 23.7
-8 12 -11 43.3 20.5
8 -12 -11 22 27.5
12 -3 11 288.37 37.7
-3 12 -11 297.37 40.6
-12 9 -11 271.37 36.2
3 -12 -11 237.08 38
3 9 11 315.37 37.8
-12 9 -11 190.68 41.9
9 -12 11 211.68 32
-3 -9 11 165.68 43.8
12 -9 -11 290.87 42.7
-9 12 -11 307.67 36.3
-3 -9 -11 208.38 48.3
-12 3 -11 335.97 43.8
-9 12 -11 125.09 35.3
9 -12 -11 243.28 32.2
3 9 -11 306.47 38.4
-12 3 -11 278.57 55.49
12 -9 11 179.98 28
3 -12 11 213.48 33
9 -12 -11 245.58 35.4
-9 -3 11 131.59 34
9 3 11 298.67 34.9
3 9 -11 202.28 31.2
2 -12 -11 193.68 29.9
-12 10 -11 129.69 37.2
12 -2 11 293.97 30.7
-2 12 -11 188.98 29
2 10 11 263.37 35.9
-12 10 -11 228.78 29.1
10 -12 11 188.08 31.2
10 -12 -11 156.88 29.1
10 -12 -11 139.69 31.7
2 -12 11 157.98 30.2
12 -10 11 132.79 27.1
-12 2 -11 201.48 32.8
2 10 -11 205.28 28.1
-2 -10 -11 96.69 38.1
2 10 -11 158.18 28.3
-10 12 -11 195.48 26.9
1 11 11 62.79 21
12 -11 -11 29.6 21.8
12 -1 11 66.29 21.2
1 -12 -11 27.1 23.4
-12 11 -11 34.9 20.5
-11 -1 -11 31.1 19.3
-1 12 -11 64.29 21.8
11 -12 11 22.5 22.5
-12 11 -11 1.7 27
12 -11 -11 42.9 17.6
-1 -11 11 9.6 31.3
-1 12 -11 40.5 23.3
-11 12 -11 -3.2 29
12 -11 11 16 21.5
11 -12 -11 21.3 21.6
1 -12 11 32.3 14.5
1 11 -11 9.3 21.9
11 1 11 59.59 20.4
1 -12 11 19.4 27.7
-1 12 11 84.09 23.6
11 -12 -11 31.8 24.2
-1 -11 -11 39.5 18.4
-12 1 -11 29.7 22.3
1 11 -11 47.1 20.7
-11 12 -11 52.09 20.2
-1 -11 -11 13.8 32.4
0 12 -11 4.3 21.3
12 -12 11 5.8 21.1
0 12 -11 4.7 19.5
12 0 11 0.6 18.2
0 12 11 12.4 19.3
0 -12 -11 7.9 20
12 -12 -11 -13 21.1
12 -12 -11 13 22.1
-12 0 -11 11.5 19.5
-12 12 -11 14.4 18.8
0 -12 11 18 28.3
13 -6 11 2.9 18.2
-6 -7 11 -8.5 26.8
6 7 11 20.3 19.9
7 6 -11 7.5 21.6
13 -7 -11 16.7 19.5
-13 7 -11 -12.1 36.5
-13 7 -11 -2.1 20.6
7 6 -11 21.5 19.4
6 -13 -11 -5.2 22.4
7 -13 11 -21 21.6
-6 13 -11 14.1 21.6
-7 -6 -11 7.2 32.3
6 -13 11 -10.3 21.3
13 -7 11 7.5 20.3
6 7 -11 -4.2 20.7
-13 6 -11 -2.3 21.3
-7 13 -11 14.5 20.2
7 -13 -11 -29.9 22.1
7 -13 -11 16.1 15.9
13 -6 -11 22.5 20.1
-13 6 -11 12.2 38.4
7 6 11 0.8 18.4
-6 -7 -11 -13.3 32.1
-7 -6 11 -4.3 29.8
-7 -6 11 18.1 23.2
6 7 -11 8.9 21.4
8 5 -11 144.29 26.8
-5 -8 11 21.1 31.3
8 5 -11 32.4 19.1
5 8 11 95.89 22.9
-13 8 -11 88.69 36.7
-5 13 -11 79.19 23.8
-13 8 -11 117.69 25.7
8 -13 11 70.99 25.4
13 -5 11 112.59 22.4
5 -13 -11 86.19 25.9
13 -8 -11 101.59 23.5
5 8 -11 56.59 22.6
-13 5 -11 54.09 40.7
-8 -5 11 51.59 30.3
-8 13 -11 71.59 21.1
13 -5 -11 83.29 20
13 -8 11 67.99 22.3
8 -13 -11 58.59 27.1
-5 -8 -11 24.4 34.7
8 5 11 73.09 20.5
5 -13 11 32 23.9
-13 5 -11 120.39 28.1
5 8 -11 100.59 25.4
8 -13 -11 61.09 23.1
13 -4 11 87.79 21
-13 9 -11 138.19 24.8
13 -9 -11 145.09 25.3
4 -13 -11 93.79 24.3
9 4 -11 61.49 18.5
9 -13 11 105.39 25.5
4 9 11 100.29 22.1
-13 9 -11 81.59 38.2
-4 -9 11 24.8 30.6
-4 13 -11 117.89 24.8
-9 -4 11 28.8 27.8
13 -4 -11 77.19 17.4
9 4 11 97.89 20.9
4 9 -11 101.29 23.8
9 -13 -11 49.9 23.4
4 9 -11 50.09 23.5
9 -13 -11 73.39 28.1
-4 -9 -11 29.8 36.5
-13 4 -11 79.79 25.6
-13 4 -11 52.69 39.9
-9 13 -11 75.59 21.2
4 -13 11 78.99 26.7
-3 13 -11 42.9 22.8
3 -13 -11 43.2 22.1
-13 10 -11 53.49 22.2
-3 -10 11 30.2 30.1
10 3 -11 38 15.7
13 -10 -11 46.5 22.6
10 -13 11 7.1 21.6
-3 13 -11 31.8 20
13 -3 11 47.2 19.7
3 10 11 57.59 20.5
-13 10 -11 15 29.3
10 3 11 16.3 17.2
10 -13 -11 6.9 21.6
-10 13 -11 22.4 19.8
3 10 -11 5.8 20.8
-13 3 -11 13.6 23
13 -10 11 59.69 17.3
3 10 -11 20.2 19.3
3 -13 11 1.6 23.4
-3 -10 -11 -17.6 32.4
-13 3 -11 -1.7 37.7
10 -13 -11 -7.2 24.7
13 -2 11 75.19 20.5
2 11 11 113.39 22.9
-2 13 -11 47.6 23.7
11 -13 11 34.8 22.2
2 -13 -11 84.69 23.3
13 -11 -11 106.49 26.5
-2 13 -11 113.19 23.5
-13 11 -11 87.59 22.5
2 11 -11 66.09 24.4
2 11 -11 62.89 20.7
11 2 11 121.69 22.2
2 -13 11 74.09 24.1
-13 2 -11 74.09 25.1
-11 13 -11 52.49 20.5
-2 -11 -11 0.5 27.8
13 -11 11 49.99 21.3
11 -13 -11 70.59 26.7
11 -13 -11 75.39 24.3
1 -13 -11 56.79 22
12 -13 11 45.9 22.4
-12 -1 -11 39.8 18.5
-13 12 -11 54.79 20.1
1 12 11 72.29 20.5
-1 13 -11 56.69 20.7
13 -1 11 75.09 20.1
-1 13 -11 15.3 22.1
-12 13 11 7.1 16.2
13 -12 -11 34.3 22
12 1 -11 11.8 12.3
-13 1 -11 28.4 21.1
12 -13 -11 46.6 25.1
12 -13 -11 30.4 22
1 12 -11 38.6 23.3
-12 13 -11 46.2 20
-1 13 11 47.7 19.4
1 12 -11 43 19.8
12 1 11 58.99 20.2
13 -12 11 52.89 21.7
-13 0 -11 28.9 18.9
13 0 11 27 17.6
0 13 -11 23.1 18.7
0 -13 -11 43 16.9
13 -13 -11 5.4 20.9
0 13 11 33.8 18.4
13 -13 -11 31.5 19.4
13 -13 11 14.7 19.6
-13 13 -11 25.3 18.8
0 13 -11 4.7 20.4
-7 -7 11 15.2 26.4
14 -7 11 23.3 20.6
7 7 -11 13.8 20.6
-7 14 11 1.4 13.8
7 -14 -11 6.8 14.4
14 -7 -11 15.1 20.1
-7 14 -11 4.1 20.3
7 -14 11 -18.7 20.6
-14 7 -11 1.3 20.7
7 -14 -11 -3.4 20.6
-14 7 -11 7.4 33.5
7 7 -11 15.1 20.7
7 7 11 5.9 17.7
6 8 11 102.89 22
8 -14 11 91.69 25.3
8 6 -11 82.09 23.8
-6 14 -11 100.19 24.3
-6 -8 11 16.5 37.1
14 -6 11 120.29 24.5
6 -14 -11 116.89 25.7
14 -8 -11 138.79 25.2
-14 8 -11 129.69 25
6 -14 11 35.3 22.6
14 -6 -11 95.89 19.8
-6 14 11 -1 22.1
-6 -8 -11 -0.4 29.5
6 8 -11 84.39 24.5
6 8 -11 85.29 22.4
8 6 11 43.5 18
-8 -6 11 -4.8 24.9
-14 6 -11 112.09 26.5
14 -8 11 90.59 22.3
-14 6 -11 17.2 34.1
8 -14 -11 52.79 19.9
-8 14 -11 105.19 23.2
-5 14 -11 10.6 20.5
-9 14 11 7.2 15.2
5 9 11 18.4 19.3
-14 9 -11 0.5 19.4
-5 -9 11 6.8 25.2
5 -14 -11 2.3 19.2
-14 9 -11 -4 29.6
9 5 -11 29.3 21.2
-5 14 -11 -2.1 16.1
14 -5 11 8.4 18.3
14 -9 -11 11.4 20.8
9 -14 11 22.4 21.3
14 -5 -11 20.5 15.3
-14 5 -11 0.3 21.4
9 -14 -11 5.9 23.4
-9 14 -11 20.3 19.1
-5 -9 -11 0.6 27.5
9 5 11 16.5 17.9
5 -14 11 13.8 21.7
5 9 -11 9 20.5
-9 -5 11 1.9 29.8
14 -9 11 20.5 20.3
9 -14 -11 28.8 20.6
-14 5 -11 -4.6 35.4
5 9 -11 13.7 21.9
4 10 11 150.08 24.4
4 -14 -11 145.69 25.9
14 -10 -11 174.28 27.3
-14 10 -11 144.19 26.5
10 4 -11 130.89 24.4
10 -14 11 150.78 27.1
14 -4 11 180.88 24.5
-4 14 -11 127.39 25.7
-4 14 -11 173.08 26.9
10 4 11 176.38 24.6
4 10 -11 132.69 27.4
10 -14 -11 100.79 24
10 -14 -11 202.28 32.4
-10 14 -11 99.79 22.1
4 -14 11 147.79 27.9
4 10 -11 180.38 26.5
-14 4 -11 151.08 28.4
-14 11 -11 178.48 26.5
3 11 11 131.79 22.9
11 -14 11 170.98 27.2
14 -3 11 157.58 23.7
11 3 -11 118.69 21.8
14 -11 -11 164.78 29.2
3 -14 -11 152.58 25.5
-3 14 -11 131.09 26.9
-3 14 -11 150.08 25
-11 14 -11 150.48 23.6
3 11 -11 181.68 25.7
-14 3 -11 104.59 25.7
11 -14 -11 101.89 24.3
11 -14 -11 124.89 29.1
11 3 11 146.89 22.9
3 -14 11 139.99 27.5
3 11 -11 85.89 23.7
12 2 -11 28.7 16.2
-2 14 -11 20.4 19.3
-14 12 -11 16 18.3
-12 -2 -11 1.1 15
-2 14 -11 24.4 21.2
-12 14 11 18.9 20.2
14 -2 11 19.8 17.1
14 -12 -11 15.9 21.9
12 -14 11 11.5 19.8
2 12 11 39.3 18.1
2 -14 -11 5.7 17.8
12 2 11 -1.7 16.3
-2 14 11 30.2 18.7
-14 2 -11 4 20.9
2 -14 11 -12.5 13.6
2 12 -11 11.4 20
2 12 -11 6.9 18.5
12 -14 -11 1.5 22.2
12 -14 -11 0.8 19.5
-12 14 -11 11.9 17.6
14 -12 11 18 17.6
13 -14 11 14.6 20.6
-13 14 11 4.7 19.6
1 -14 -11 5.8 17.4
14 -1 11 -1.8 15.9
-1 14 -11 7 18.3
-13 -1 -11 6 15.3
14 -13 -11 -7.8 19.3
-14 13 -11 10.3 17
1 13 11 15.8 16.7
13 1 -11 32.7 15.1
-1 14 -11 5.9 17.8
1 13 -11 11.7 19.7
14 -13 11 21.6 19.6
-1 14 11 26.5 17.3
13 -14 -11 21.5 21.4
-13 14 -11 18.2 16.9
13 1 11 7.2 15.7
-14 1 -11 -7.2 18.1
1 13 -11 16.5 18.2
13 -14 -11 -1.3 19.4
-14 14 11 10.6 19.5
-14 14 -11 12.9 16.6
0 14 -11 7.9 17.2
14 -14 -11 -14.5 18.2
14 0 11 -7.2 14.8
0 14 11 1.1 15.2
0 14 -11 -4.8 18.3
-14 0 -11 4.4 16.3
14 -14 11 0.9 18.4
7 -15 -11 3.9 18.5
-7 15 -11 19.7 19.6
-7 15 -11 -3.1 22.6
-8 15 11 -5 16.8
-15 8 -11 1.9 19.5
7 8 11 17.8 16.7
15 -7 11 21.3 19.2
8 -15 11 9 20.8
8 7 -11 -3.1 20.7
15 -8 -11 22.7 19
-7 15 11 -1.8 15.9
8 7 11 4.8 17.2
7 -15 11 12.4 20.7
-15 7 -11 0.8 19.8
15 -7 -11 12.7 16.8
15 -8 11 22.3 20.8
7 8 -11 -3.1 20.7
8 -15 -11 8.6 11.4
-8 15 -11 1 19.3
8 -15 -11 4.9 19.5
-15 9 -11 24.2 18.8
9 6 -11 3.6 21
6 9 11 18.6 17.5
9 -15 11 8 20.4
-6 15 -11 3.9 19.4
-6 15 -11 8.2 16.5
15 -6 11 26 20.2
15 -9 -11 25.1 19.9
6 -15 -11 9 18.7
-9 15 11 11.3 18.5
-6 15 11 -0.2 14.6
9 6 11 12 17.2
15 -9 11 16 20.2
9 -15 -11 13.8 20.8
15 -6 -11 17.5 15.8
9 -15 -11 9.6 17.7
6 -15 11 25.1 21.9
-9 15 -11 15.7 18.9
6 9 -11 -3.4 21
-15 6 -11 17.5 21.6
-10 15 11 51.49 21.5
10 5 -11 65.89 21.5
-15 10 -11 107.39 22.2
10 -15 11 100.59 22.8
15 -5 11 66.09 20.5
-5 15 -11 61.09 21.2
5 10 11 56.99 18.2
5 -15 -11 59.39 19.5
-5 15 -11 48.6 19.5
15 -10 -11 119.09 24.1
10 5 11 34.3 18
15 -10 11 29.5 19.6
-5 15 11 -3 13.3
5 10 -11 29.2 21
10 -15 -11 70.69 20.4
10 -15 -11 77.39 25.1
5 -15 11 81.09 23.3
5 10 -11 68.09 20.2
-10 15 -11 39.3 18.3
-15 5 -11 62.69 22.8
-4 15 -11 14.5 18.1
-15 11 -11 0.7 19
11 4 -11 14.2 17.5
15 -11 -11 29.1 22.3
15 -4 11 -14.6 17.1
-11 15 11 1.3 20.3
11 -15 11 -3.5 19.2
4 11 11 19.6 16.9
4 -15 -11 -2.4 16.4
-4 15 -11 -7.4 19.2
4 11 -11 3.8 17.9
-11 15 -11 15.8 16.7
4 11 -11 10.4 20.2
11 -15 -11 -0.4 21.6
-15 4 -11 1.7 20.7
-4 15 11 -6.6 13.1
4 -15 11 13.3 22
11 4 11 -0.5 15.5
11 -15 -11 3.1 17.9
3 -15 -11 32.5 17.3
3 12 11 36.5 17.1
15 -12 -11 14.7 21.8
-3 15 -11 31.2 18.5
-12 15 11 27.9 21.5
-15 12 -11 26.1 17.8
15 -3 11 29.3 18.4
-3 15 -11 41 20.8
12 3 -11 31.1 17.6
12 -15 11 18.6 20.3
-12 15 -11 33.9 16.9
-3 15 11 -6.2 15.5
3 12 -11 32.1 20.7
12 3 11 34.4 16.9
3 -15 11 18.9 18.2
-3 15 11 45.5 18.9
-15 3 -11 25 21.1
12 -15 -11 21.5 22
3 12 -11 32.3 18.7
12 -15 -11 23 18.1
13 -15 11 45.6 20.1
15 -13 -11 73.09 24.7
-2 15 -11 39.9 19
2 -15 -11 67.99 20.4
2 13 11 42.5 16.8
-15 13 -11 51.29 17.6
-2 15 -11 66.29 19
-13 15 11 25.6 21.4
13 2 -11 41.9 17.2
15 -2 11 50.79 18.3
13 -15 -11 81.89 20.8
-15 2 -11 71.49 21.2
13 2 11 78.39 18.7
-2 15 11 61.69 17.8
2 13 -11 61.89 18.8
13 -15 -11 47.7 22.1
2 13 -11 62.89 20.4
-13 15 -11 69.39 17.2
-14 15 11 36.1 21.4
-14 -1 -11 26.3 14.4
15 -14 -11 20.1 19.5
1 -15 -11 27.6 10.9
-1 15 -11 16.5 17
14 -15 11 25.1 17.6
-1 15 -11 27.2 16.4
15 -1 11 35.8 16.6
1 14 11 40.7 15.7
-15 14 -11 20.1 15.8
1 14 -11 23.7 17.1
14 -15 -11 46 18.1
15 -14 11 20.5 14.6
-14 15 -11 35.8 13.3
1 14 -11 9.1 16.4
-15 1 -11 29.1 16.7
14 1 11 49 15.8
14 -15 -11 28.6 17.8
-1 15 11 20.6 14.9
15 0 11 58.89 17.4
0 15 11 36.1 13.7
15 -15 -11 40.8 19.3
-15 15 11 31.3 18
-15 15 -11 4.9 10.2
0 15 -11 43 17.7
-15 0 -11 32.5 15.5
0 15 -11 33.4 15.2
15 -15 11 36.1 15.4
8 -16 11 71.29 20.7
8 8 -11 33.6 21
-8 16 -11 0.5 13.1
16 -8 -11 48.9 16.8
16 -8 11 63.09 21.4
-8 16 -11 -2.1 20.3
8 8 11 31.6 16.3
-8 16 11 46 19.7
8 -16 -11 95.09 22
-16 8 -11 97.69 22.4
9 7 -11 50.39 22.1
-7 16 -11 20.7 15.9
16 -7 11 40 20.4
-9 16 11 30.4 19.6
-16 9 -11 22.4 19.1
-7 16 -11 1.1 12.4
16 -9 -11 34.3 18.2
7 9 11 13.5 16.2
9 -16 11 50.89 20.2
7 -16 -11 19.3 16.8
7 -16 11 19 18.9
16 -9 11 8.8 20.1
16 -7 -11 17 14.2
9 7 11 20.3 16.6
9 -16 -11 18.8 13
-16 7 -11 31.1 20.7
-9 16 -11 3.7 14.5
-7 16 11 14 18.3
7 9 -11 25 19.7
9 -16 -11 26.6 19.6
16 -6 11 14.6 17.7
10 -16 11 19.2 18.3
-16 10 -11 4.4 18.2
10 6 -11 -2.4 19.1
-10 16 11 -4.7 17.9
6 10 11 8.9 14.5
-6 16 -11 10 17.8
6 -16 -11 -4.6 16
16 -10 -11 18.4 20.5
-6 16 -11 0 11.3
10 -16 -11 9.1 16.1
10 6 11 6.5 15.5
-6 16 11 3.9 16.5
6 10 -11 -1.4 19.8
-16 6 -11 -7.7 19.1
-10 16 -11 3.1 14.7
6 -16 11 16.3 19.5
16 -10 11 8.4 20.7
10 -16 -11 -4 17.9
11 5 -11 19.6 18.1
16 -11 -11 33.2 21.2
11 -16 11 32 18.9
-5 16 -11 -0.3 11.7
5 11 11 24.9 15.6
5 -16 -11 17.7 16.7
-5 16 -11 13.3 17.6
-11 16 11 21.7 19.4
-16 11 -11 15.5 18.7
16 -5 11 33.4 18.2
16 -11 11 -2.1 12.4
5 11 -11 14.3 19.2
5 -16 11 25.8 19.4
11 -16 -11 10.8 20.4
-16 5 -11 33.6 20.2
11 5 11 18.5 16.5
11 -16 -11 23.9 17.1
-5 16 11 2.8 14.9
4 12 11 61.39 16.7
4 -16 -11 57.29 17.8
16 -12 -11 75.99 23.3
12 -16 11 81.89 20
-12 16 11 42.7 20.5
-16 12 -11 69.89 18.7
-4 16 -11 33.3 18.7
16 -4 11 70.89 18.8
12 4 -11 60.89 18.7
12 -16 -11 43.3 22.5
4 12 -11 40.9 19.8
12 4 11 51.69 17.5
4 -16 11 55.79 19.4
12 -16 -11 62.19 17.7
-16 4 -11 45.9 20.4
-4 16 11 37.8 16.5
-16 13 -11 52.59 17.5
16 -3 11 78.99 18.5
3 13 11 55.19 14.4
-3 16 -11 48.4 18.1
16 -13 -11 93.29 23.2
3 -16 -11 71.79 19.2
-13 16 11 56.09 20.8
13 3 -11 61.59 17.8
13 -16 11 78.69 19.7
13 -16 -11 50.29 19.7
-16 3 -11 89.49 21.3
-3 16 11 46.5 16.2
3 13 -11 70.89 20.4
13 -16 -11 50.69 16.8
13 3 11 37.5 16.2
-14 16 11 37.2 19.1
16 -2 11 85.89 18.4
-16 14 -11 63.39 16.1
-2 16 -11 46.1 16.7
14 -16 11 62.09 17.8
16 -14 -11 59.89 22
-2 16 11 42.5 14.3
14 -16 -11 48 16.4
2 14 -11 48.5 19.1
14 2 11 60.29 16.2
14 -16 -11 44.4 18.8
-16 2 -11 62.19 18.9
-15 16 11 12.1 16.2
15 -16 11 5.7 14.4
16 -15 -11 -12.2 19.1
-15 -1 -11 3.3 12
-1 16 -11 11.9 15.6
16 -1 11 7.3 15
15 -16 -11 33.7 16.8
15 1 11 23.8 15.6
-16 1 -11 24.9 15
1 15 -11 37.2 16.5
-16 15 11 5.3 14.1
16 0 11 125.39 19.6
16 -16 -11 125.89 21.5
0 16 -11 118.69 19.7
8 -17 -11 9.5 14.3
17 -9 -11 22.9 15.3
-17 9 -11 15 17.3
17 -8 11 11.4 18.7
8 9 11 4.8 14
-9 17 11 5.5 18
9 8 -11 -12.7 18.7
9 -17 11 7.1 16.2
-8 17 -11 -5.2 12.7
-17 8 -11 9.6 18.2
9 -17 -11 11.5 15.5
17 -9 11 5.1 19.7
-8 17 11 8.9 17.4
8 -17 11 8.5 16.5
17 -8 -11 -2.3 11.2
8 9 -11 2.7 18.8
9 8 11 7.2 13.6
-10 17 11 -7.7 16.9
7 10 11 7.1 13
-17 10 -11 18.4 16.7
17 -7 11 12.2 17.9
17 -10 -11 18.1 16.8
10 7 -11 18.9 17.9
7 -17 -11 29.4 16.3
-7 17 -11 0.3 15.6
10 -17 11 19.7 16
7 -17 11 27.1 16.9
7 10 -11 12.4 20.7
10 -17 -11 22.5 17.1
-7 17 11 5.5 17.1
10 7 11 7.6 14.7
-17 7 -11 3.7 17.7
17 -10 11 7.4 18.4
10 -17 -11 22.3 11.3
17 -11 -11 43.6 18.7
-17 11 -11 13.7 17.7
11 -17 11 46 17.1
6 -17 -11 13.8 14.4
11 6 -11 23.1 16.5
6 11 11 4.4 10.6
-11 17 11 20.3 17.6
-6 17 -11 15.4 15.8
17 -6 11 26.8 19
6 -17 11 34.1 18.3
11 -17 -11 29.5 14.6
-6 17 11 6.8 16.1
-17 6 -11 33.7 19.5
11 -17 -11 25.4 17.5
17 -11 11 29.2 16.9
11 6 11 14.4 15.2
6 11 -11 42.3 20.5
12 5 -11 16.3 17
12 -17 11 16.4 15.3
17 -5 11 24.2 18.4
17 -12 -11 27.9 19.2
-17 12 -11 13.9 15.6
-5 17 -11 18.2 16.7
5 -17 -11 10.4 14.9
-12 17 11 0.8 16.2
12 -17 -11 9.8 17.6
12 -17 -11 18 13.7
5 12 -11 20.1 19.5
-5 17 11 19.1 14.6
5 -17 11 7.1 16.4
-17 5 -11 27.9 18.1
12 5 11 12.3 13.7
-5 17 11 -2 13.4
17 -13 -11 -0.6 18.8
13 -17 11 25.3 16
17 -4 11 23.3 17
-13 17 11 9.6 16.4
-4 17 -11 6.3 15.2
13 4 -11 28.8 16.6
-17 13 -11 18.8 14.8
4 -17 -11 21.5 16.1
-4 17 11 23 14.1
13 4 11 36.2 14.9
-17 4 -11 38.7 18.1
13 -17 -11 11.8 13.7
4 13 -11 30 17.1
-4 17 11 -4.1 13.3
13 -17 -11 27.3 18.9
-14 17 11 47.5 17.5
14 -17 11 61.09 16.8
-17 14 -11 27 11.9
-3 17 -11 43.9 15.9
3 -17 -11 27.2 10.7
17 -14 -11 70.19 23.4
17 -3 11 79.49 18.9
3 14 -11 79.09 19.3
-17 3 -11 55.19 17.6
14 -17 -11 63.09 15.6
14 3 11 56.29 17.2
14 -17 -11 56.89 18.9
-2 17 -11 63.99 16.5
17 -2 11 74.19 18.5
15 -17 11 44.3 15.8
17 -15 -11 75.19 21
-15 17 11 25.5 13.6
2 15 -11 56.89 18
15 2 11 53.19 16.8
-17 2 -11 65.69 17
15 -17 -11 58.99 16.3
17 -16 -11 128.19 23.2
-1 17 -11 70.99 17.6
17 -1 11 104.49 20.8
-17 1 -11 79.69 15.4
16 -17 -11 131.29 20.2
1 16 -11 106.49 19.5
16 1 11 57.39 18.5
17 0 11 46.2 19.3
17 -17 -11 47.7 20.9
0 17 -11 32.4 16.6
-18 9 -11 18.9 16.8
9 -18 11 20 15.1
9 -18 -11 25.2 14.7
18 -9 11 33.9 17.9
-9 18 11 18.1 15.5
9 9 -11 25.1 20.1
-18 10 -11 3 16.9
10 -18 11 10 15.2
18 -8 11 19 18.2
-10 18 11 4.1 15.5
10 8 -11 7.2 18.6
-8 18 -11 -6.5 11.9
18 -10 -11 -3.1 10.7
8 -18 -11 1 13.2
18 -10 11 -4.8 17.1
10 8 11 -1.7 13.1
8 -18 11 18.6 15.9
-8 18 11 -12.1 14.2
-18 8 -11 10.3 16.5
8 10 -11 -4.3 19.1
10 -18 -11 15.1 14.7
7 -18 -11 17.5 13.6
-7 18 -11 15.5 13.8
-11 18 11 22 16.4
11 7 -11 26.4 18.3
18 -11 -11 21.4 15.5
18 -7 11 19.2 18.5
-18 11 -11 35.2 18.4
11 -18 11 14.8 14.7
18 -11 11 29.9 17
11 -18 -11 14.2 15.2
-7 18 11 15.5 14.1
11 7 11 -2.9 9.7
-18 7 -11 18.5 17.2
11 -18 -11 5.4 9.5
7 11 -11 20.9 19.4
7 -18 11 15.6 15.6
-6 18 -11 7.3 14.8
12 -18 11 3.6 14.5
6 -18 -11 -1.5 13.1
18 -6 11 4.2 17.5
-12 18 11 1 15.3
12 6 -11 -8.2 17.2
-18 12 -11 -3.5 15.1
18 -12 -11 -12.2 17.2
-6 18 11 2.6 13.7
-18 6 -11 5 17
6 12 -11 -16.4 17
6 -18 11 -4.8 15.6
12 -18 -11 9.9 11.5
12 -18 -11 -5.2 15.4
12 6 11 1.8 10
-6 18 11 -5.4 11.6
13 -18 11 29.3 15.7
-5 18 -11 12.7 14.9
-13 18 11 5.3 13.9
18 -5 11 25.5 17.4
18 -13 -11 39.3 20.4
-18 13 -11 34.6 13.9
13 5 -11 12.7 16.4
5 -18 -11 17.7 14.7
-18 5 -11 18.9 17.3
5 13 -11 16.1 17.6
13 -18 -11 5.3 12.6
13 -18 -11 26.6 17.5
13 5 11 -4.6 9.8
-5 18 11 1.7 10.6
-14 18 11 -0.6 11.9
18 -14 -11 55.09 20.6
18 -4 11 66.39 19.5
14 -18 11 61.59 16.8
-4 18 -11 29.8 14.9
4 -18 -11 21.9 10.6
14 -18 -11 32 14.2
14 -18 -11 54.59 18.7
-18 4 -11 32.7 17.4
4 14 -11 33.6 17.8
15 -18 11 63.89 17.4
18 -3 11 60.19 19.3
-3 18 -11 49.9 16.4
18 -15 -11 56.09 21.5
15 -18 -11 54.79 16
3 15 -11 68.69 19.7
-18 3 -11 48.4 17.1
18 -2 11 22.1 20.2
-2 18 -11 15.8 13.1
18 -16 -11 9 20.8
-18 2 -11 15.8 14.2
2 16 -11 11 15.6
16 -18 -11 10 17.6
10 9 -11 13.6 18.5
-19 10 -11 19.9 18.5
19 -9 11 19 17.8
-10 19 11 -0.6 10.4
10 -19 11 22 15.5
9 -19 -11 14.8 14
-9 19 11 -8.1 10.7
10 -19 -11 29.3 14.7
9 -19 11 19.5 15.2
19 -10 11 20.5 17.5
9 10 -11 27.3 19.3
-19 9 -11 13.8 17.7
8 -19 -11 15.9 14.2
11 -19 11 14 15.4
-11 19 11 -1.2 10.5
19 -8 11 -0.1 17.8
-19 11 -11 -2.3 16.5
11 8 -11 14.2 17.9
8 11 -11 21.6 19.4
-8 19 11 -3.9 11.1
8 -19 11 16.5 15.3
-19 8 -11 9.2 17.5
19 -11 11 0.2 12.9
11 -19 -11 17.7 15.9
-12 19 11 -0.3 10.4
12 7 -11 -13.7 18
-19 12 -11 -4.6 13.4
7 -19 -11 7.4 14.1
12 -19 11 -1.9 15.8
19 -7 11 4.2 18.6
-19 7 -11 8.5 18
7 12 -11 3.5 19.2
7 -19 11 -2.3 10.9
12 -19 -11 11.7 16
13 6 -11 4.2 18.2
19 -6 11 16.1 19.2
6 -19 -11 8 13.9
-13 19 11 -2 12.3
13 -19 11 13.4 16.1
-6 19 -11 -0.3 15.1
13 -19 -11 8.5 10.1
-19 6 -11 17 18.9
13 -19 -11 6.1 17
6 13 -11 6.2 18.8
19 -5 11 31.5 20.5
19 -14 -11 -5.8 11
14 -19 11 17.5 16.7
14 -19 -11 19.3 10.6
-19 5 -11 32 19
5 14 -11 22.1 19.7
14 -19 -11 6.4 9.8
0 1 -12 163.28 39.9
-1 0 -12 138.79 38.9
-1 1 -12 176.38 41.7
-2 1 -12 489.85 65.49
-1 2 -12 631.34 67.19
-2 0 -12 135.49 39.8
0 2 -12 222.68 45.2
-2 2 -12 229.38 44.7
3 -2 -12 70.19 19.3
-3 2 -12 35.6 34.7
-1 3 -12 61.99 35.1
-3 1 -12 52.79 34.4
-2 3 -12 61.99 35.5
-4 2 -12 237.48 48.8
-2 4 -12 299.67 41.7
2 -4 -12 384.66 51.49
-2 4 -12 318.47 58.39
4 -2 -12 382.36 38.2
-1 4 -12 145.19 26.3
-4 3 -12 144.19 25.1
-1 4 -12 150.88 41.3
-4 3 -12 188.58 45.8
-3 4 -12 126.79 26.8
-4 1 -12 146.29 44.5
-3 4 -12 162.08 40.9
3 -4 -12 255.67 37.2
0 4 12 2.1 21.4
-4 4 -12 17.7 23.3
-4 4 -12 19.3 34.1
-4 0 -12 -6.2 36.2
0 4 -12 -0.4 20.9
4 -4 -12 39 22.5
-2 5 -12 1.5 21.2
-2 5 -12 43.7 34.5
-5 3 -12 3.9 37.1
5 -3 -12 45.1 20.8
2 -5 -12 13.4 29.4
2 3 12 16.5 23.9
-5 3 -12 -1.3 22.4
3 2 -12 4.5 22.6
-3 5 -12 21.9 34.2
-3 5 -12 10.2 21.7
3 -5 -12 9.2 27.7
3 2 12 -3.1 23.7
-5 2 -12 12.8 36.7
5 -2 -12 55.59 18.9
-5 2 -12 6.2 17.5
2 3 -12 18.2 21.4
-5 4 -12 86.79 37.9
1 -5 -12 92.29 32.3
-1 -4 12 59.59 28.3
1 4 12 61.49 25
-5 4 -12 28.4 24.5
5 -4 -12 100.19 25
-1 5 -12 49.7 22.7
4 -5 -12 71.49 30
-4 5 -12 105.69 27.2
-5 1 -12 86.99 42.7
4 1 12 67.49 25.7
-4 5 -12 68.79 34.3
1 4 -12 57.39 26.1
4 -5 -12 70.99 23.1
-5 5 -12 163.88 42.7
-5 0 -12 35.2 39.8
0 -5 -12 160.08 34.6
-5 5 -12 145.89 28.5
5 -5 -12 178.78 31.3
5 0 12 112.49 26.1
5 -5 -12 191.48 30.1
0 5 12 151.48 30.1
0 -5 12 133.19 33
0 5 -12 108.19 27.8
-3 6 -12 90.99 25.4
-3 -3 12 70.39 28.4
3 -6 -12 74.99 30.3
6 -3 -12 83.09 21.7
-6 3 -12 105.79 44.8
3 3 12 85.49 27.2
3 3 -12 74.69 25.7
-3 6 -12 77.39 34.4
-6 3 -12 75.29 26.7
-2 6 -12 95.59 26
2 4 12 82.19 25.8
-2 -4 12 61.79 27
-6 4 -12 53.69 24.6
-2 6 -12 101.09 39.1
6 -4 -12 135.59 25.8
2 -6 -12 105.89 34.8
-6 4 -12 94.19 41
4 2 12 165.68 30.8
6 -2 -12 189.68 29.1
4 -6 -12 170.78 33
-4 6 -12 99.29 24.5
-6 2 -12 110.79 26.9
-6 2 -12 74.89 42.2
-4 -2 12 75.79 28.3
2 4 -12 134.39 28.5
-4 6 -12 141.49 40.1
2 -6 12 159.18 36.3
5 -6 12 162.18 29.6
6 -1 12 84.59 25
1 -6 -12 67.79 33.3
1 5 12 72.29 26.2
-6 5 -12 63.09 26.2
6 -5 -12 102.89 26.6
-6 5 -12 92.29 39.5
-1 -5 12 62.89 27.8
-1 6 -12 87.29 26.8
6 -5 -12 116.29 27.1
-6 1 -12 42.4 41.1
1 -6 12 87.49 26.7
1 5 -12 73.49 27.7
-1 -5 -12 37.6 32.1
5 -6 -12 96.89 26.4
-6 1 -12 3.3 20
5 1 12 83.29 27.4
1 -6 12 54.29 28.2
-5 -1 12 43.5 26.2
-5 6 -12 40.9 31
5 -6 -12 57.19 30.1
-5 6 -12 94.69 25.7
6 0 12 27.2 24.4
6 -6 -12 27.8 27.4
0 -6 -12 8.2 31.2
-6 6 -12 15.8 30.7
0 -6 12 36.1 30.3
6 -6 12 98.69 29
0 6 12 8.4 23.8
0 -6 -12 25 32.9
0 -6 12 35.9 24.1
-6 0 -12 -5.8 39.9
-6 6 -12 42.1 24.5
0 6 -12 43.3 26.8
6 -6 -12 65.09 26.8
-6 0 12 21.4 25.8
4 -7 12 116.69 32.8
-7 4 -12 192.48 49.7
-7 4 -12 180.28 31.5
-3 7 -12 188.98 45
-3 7 -12 187.18 29
-3 -4 12 175.98 37.2
3 -7 -12 149.49 34.2
4 -7 12 185.98 27.6
7 -4 -12 223.38 35
3 4 12 104.79 26.6
7 -3 -12 197.98 25.8
4 -7 -12 179.78 35.5
-4 7 -12 142.99 26.7
-7 3 -12 134.19 47.2
-3 -4 -12 85.49 34.3
4 3 12 176.78 30.1
-4 7 -12 98.49 35.3
-7 3 -12 147.79 32.5
3 -7 12 168.88 27.5
3 4 -12 135.99 29.2
2 5 12 31.5 23.9
5 -7 12 51.69 23.3
2 -7 -12 38.9 31.3
-2 7 -12 46.7 23.6
5 -7 12 11.9 26.3
7 -5 -12 73.39 24.7
7 -2 12 39.6 22.7
-7 5 -12 46.5 24.6
-7 5 -12 44.9 38.7
-2 -5 12 55.69 30.5
5 2 -12 37.2 21
-5 7 -12 101.29 24.9
5 -7 -12 102.19 26.9
2 -7 12 49 29.5
7 -2 -12 120.49 20.6
-7 2 -12 34.4 24.6
2 5 -12 72.19 25.5
-7 2 -12 87.09 45.8
2 -7 12 115.29 27.8
-5 7 -12 124.89 39.8
5 2 12 106.19 28.3
-2 -5 -12 50.39 33
5 -7 -12 65.09 29.9
-1 -6 12 236.18 44
7 -6 -12 295.97 44.5
7 -6 -12 246.38 33.5
6 -7 12 265.67 40.8
7 -1 12 252.77 32.4
-7 6 -12 164.78 42.3
1 -7 -12 163.68 43.3
1 -7 -12 355.76 43.2
1 6 12 291.67 34.3
-7 6 -12 267.07 41
-1 7 -12 235.98 34.2
6 -7 -12 282.57 47
-6 7 -12 352.16 54.59
1 -7 12 321.27 48.1
6 1 12 315.97 44.4
-1 -6 -12 274.37 50.39
-7 1 -12 250.97 56.19
-6 7 -12 264.57 43
1 -7 12 360.06 50.19
7 -6 12 405.66 45.3
6 -7 -12 344.87 50.39
1 6 -12 369.46 46.7
-1 -6 -12 318.47 42.1
0 -7 -12 75.39 39.1
-7 7 -12 148.19 28
7 -7 12 152.18 30.6
7 -7 -12 159.08 29.7
-7 7 -12 112.79 38.7
7 0 12 118.79 27
0 -7 12 91.79 34.3
7 -7 -12 151.98 32.4
0 7 -12 158.88 30.5
0 -7 -12 123.99 34.7
0 -7 12 130.89 32.7
0 7 12 97.79 25.7
-4 8 -12 309.97 39.6
4 4 -12 280.57 44.2
-8 4 -12 322.37 59.49
-4 -4 12 210.68 40.5
4 -8 12 374.66 49
-4 8 -12 223.38 44.4
4 -8 -12 318.57 43.5
-8 4 -12 281.27 45.3
4 4 12 359.06 37.6
8 -4 -12 334.67 40.1
5 -8 12 106.39 27.5
-5 -3 -12 96.19 36.2
8 -3 12 81.39 24.7
-8 5 -12 84.79 26.9
8 -5 -12 163.08 27.6
3 -8 -12 144.59 35.8
3 5 12 68.09 23.2
-8 5 -12 93.39 40.9
5 3 -12 126.29 27.9
-3 8 -12 146.19 26.2
-3 -5 12 50.39 31.2
-5 8 -12 211.48 45.6
8 -3 -12 218.68 35.3
5 -8 -12 176.58 36.4
-8 3 -12 182.88 33.5
-5 8 -12 224.28 29.8
5 -8 -12 186.68 29.3
-3 -5 -12 98.99 37.6
-8 3 -12 162.78 51.79
3 5 -12 208.98 32.6
5 3 12 138.49 27.9
8 -5 12 220.28 34.5
3 -8 12 111.79 36.5
3 -8 12 275.37 34.2
2 -8 -12 12.1 29.7
6 -8 12 57.19 27.6
6 2 -12 16.3 19.8
-2 8 -12 35.7 23.1
-8 6 -12 13 22.4
-2 -6 12 -8.6 29.6
2 6 12 6.3 21
-8 6 -12 59.49 37.2
8 -2 12 24.9 23.2
8 -6 -12 48.7 24.2
6 -8 12 -63.29 38.2
-8 2 -12 -3.9 23.6
8 -6 12 53.59 26
-8 2 -12 11.9 42.7
-2 -6 -12 32.9 35.1
2 -8 12 50.89 27.5
2 6 -12 36.4 25
-6 8 -12 45.7 20.6
2 -8 12 -19.5 29.7
6 2 12 41.3 23.3
-6 -2 12 -19 26.4
6 -8 -12 42.4 26.2
6 -8 -12 12.4 29.9
-6 8 -12 51.29 33.7
8 -1 12 164.58 26.9
1 7 12 105.79 23.9
-1 -7 12 105.09 35.7
-8 7 -12 95.89 36
7 1 -12 59.49 18.7
1 -8 -12 130.39 42.2
-1 8 -12 175.88 28.6
8 -7 -12 129.99 28.4
1 -8 -12 221.78 35.6
-8 1 -12 112.99 27.2
7 -8 -12 184.88 30.5
7 1 12 164.68 28
-1 -7 -12 113.09 40.2
-7 8 -12 201.58 41.2
1 -8 12 243.28 34.6
-1 -7 -12 144.69 34.2
7 -8 -12 183.78 34.5
1 -8 12 120.19 38.1
-7 8 -12 175.08 27.6
1 7 -12 249.97 33.8
8 0 12 81.49 23.4
8 -8 -12 142.69 30.1
0 -8 12 41.7 34.7
-8 8 -12 87.49 36
0 8 -12 101.89 27.2
0 -8 12 99.19 29.8
8 -8 -12 91.19 26.5
8 -8 12 161.08 30.3
0 -8 -12 139.69 34.1
-8 8 -12 149.88 27.1
0 -8 -12 90.49 40.4
0 8 12 92.49 24.5
9 -5 -12 84.29 24.2
-5 -4 -12 38.7 34.1
-4 9 -12 28.5 19.2
-9 5 -12 46.2 24.6
4 -9 -12 14.4 30.2
5 -9 12 39.2 24.3
-9 5 -12 49.5 41.2
-4 -5 12 -5.8 30.2
5 4 -12 33.2 23.9
9 -4 12 14.1 18.7
4 5 12 23.2 22.2
-9 4 -12 12.3 23.7
5 -9 -12 -6.2 31.3
-5 9 -12 32.5 20.7
9 -5 12 -3.9 12.9
5 4 12 20.2 21
9 -4 -12 54.69 20.5
4 5 -12 14.2 22.1
-5 9 -12 50.19 34.6
-9 4 -12 0.6 43.2
-4 -5 -12 1.8 31.4
9 -5 12 -3.7 22.7
4 -9 12 32.3 24.5
-5 -4 12 -11.3 28.3
5 -9 -12 4 16.8
3 -9 -12 90.29 33.9
9 -6 -12 96.59 24.9
-6 -3 -12 32.1 32.4
6 -9 12 102.39 27.1
9 -3 12 99.59 26.2
-3 9 -12 89.39 24.9
6 3 -12 75.89 24.5
-9 6 -12 63.59 25.3
-9 6 -12 79.39 40.1
-3 -6 12 29.2 31.6
3 6 12 89.49 23.8
3 -9 12 13.6 33.4
6 3 12 90.29 24.7
-6 9 -12 68.39 22.1
3 -9 12 109.69 28
6 -9 -12 76.99 27.8
-9 3 -12 57.89 43.4
-3 -6 -12 51.49 36.5
-6 9 -12 95.89 36.7
9 -3 -12 104.09 19.9
6 -9 -12 65.39 32.2
9 -6 12 54.49 28
3 6 -12 101.79 26.9
-9 3 -12 80.89 28.5
7 -9 12 199.18 30.3
-9 7 -12 199.98 30.3
-2 9 -12 180.78 29.2
2 -9 -12 168.98 35.1
-2 -7 12 102.39 38.3
-9 7 -12 143.39 43.2
7 2 -12 98.99 24.7
9 -7 -12 148.29 26.7
2 7 12 177.68 28.3
9 -2 12 173.28 28.9
2 -9 -12 92.09 40.1
7 2 12 142.89 25.4
2 -9 12 153.28 28.9
7 -9 -12 138.09 30.1
2 7 -12 121.49 26.4
-2 -7 -12 66.69 39
-7 9 -12 145.59 40.7
-9 2 -12 144.29 29.3
9 -7 12 198.78 32
-9 2 -12 86.49 45.1
2 -9 12 68.49 37.8
-7 9 -12 113.49 23.7
7 -9 -12 170.98 35.6
-9 8 -12 -2.8 20.1
-1 9 -12 29.4 22.8
1 -9 -12 -15.1 33.3
8 -9 12 -0.1 22
8 1 -12 1.4 18.4
-9 8 -12 11 31.8
9 -1 12 -3.5 19.8
-1 -8 12 -20.1 32.6
9 -8 -12 6.8 21.9
1 -9 -12 16.3 26.2
1 8 12 -1.8 19.5
9 -8 -12 -4 24.6
-1 -8 -12 -29.2 33.9
1 8 -12 14.1 23.6
9 -8 12 18.3 25.5
8 -9 -12 -4.4 28.6
1 -9 12 -10.5 32.3
8 1 12 11.3 18.4
8 -9 -12 -9.2 24.7
-8 9 -12 20.5 20.6
-9 1 -12 -9.2 22.2
1 -9 12 7.8 26.2
-8 9 -12 18.7 29.6
-1 -8 -12 2.8 28.3
9 -9 12 -2.2 23.9
0 -9 12 -31.8 32
9 0 -12 1.9 16.6
9 0 12 -3.9 19
0 -9 -12 -15.2 34.1
0 9 -12 6.5 22.7
9 -9 -12 -5.3 24.6
0 -9 12 7.4 24.4
0 -9 -12 -21.1 25.2
-9 0 -12 10.7 20.9
-9 9 -12 15.8 20
9 -9 -12 22.4 25.2
-9 9 -12 1.9 28.6
0 9 12 15 20.7
5 -10 12 19.8 21.8
-10 5 -12 37 44
10 -5 12 22.6 20.2
-5 -5 12 -19.2 30.5
-10 5 -12 18.9 24.1
-5 -5 -12 21 35.2
5 5 12 0.7 19.8
-5 10 -12 27 18
5 5 -12 22 22.5
10 -5 -12 52.69 20.7
5 -10 -12 9.3 31.6
4 6 12 96.19 23.1
-10 6 -12 154.78 47.1
10 -6 -12 135.19 26.3
-4 10 -12 145.19 25.3
-6 -4 -12 59.59 35.7
10 -4 12 116.69 24.9
-10 6 -12 130.19 28.7
6 4 -12 92.29 24
4 -10 -12 80.29 32.4
6 -10 12 131.19 26.4
6 -10 -12 288.07 42.9
-10 4 -12 216.18 33.2
10 -4 -12 221.48 34
-6 10 -12 191.98 26.8
-10 4 -12 181.88 49.6
6 4 12 218.98 30.1
10 -6 12 139.99 29.3
-4 -6 -12 132.49 45.7
6 -10 -12 140.49 28.5
-6 10 -12 147.09 40.6
4 -10 12 211.98 31.2
4 6 -12 136.69 27.4
3 -10 -12 26.7 27.4
-3 10 -12 31.8 20.7
3 7 12 34.7 20
-3 -7 12 -1.2 32.4
10 -3 12 67.69 21.9
10 -7 -12 98.99 24.4
7 3 -12 37.7 22.4
-10 7 -12 82.59 25.8
-7 -3 -12 2.8 30
7 -10 12 85.09 25.8
-10 7 -12 65.99 38.1
3 7 -12 57.49 23.7
3 -10 12 57.29 26
-7 10 -12 39.1 32.6
7 -10 -12 29.7 30.7
10 -7 12 20.7 24.4
7 -10 -12 5.5 25.2
-10 3 -12 31.4 42.3
7 3 12 42.5 20.7
-3 -7 -12 24.4 35.4
-7 10 -12 61.09 20.8
-10 3 -12 42.6 25
10 -8 -12 117.99 26.2
-2 -8 12 38.5 35.2
-10 8 -12 78.19 36.4
2 -10 -12 58.09 28.6
-2 10 -12 78.59 22.5
8 2 -12 81.19 22.6
8 -10 12 98.99 26.7
2 8 12 113.19 23.9
10 -2 12 84.19 22
-10 8 -12 91.09 23.2
2 8 -12 154.48 27.4
-2 -8 -12 68.89 40.6
-8 10 -12 74.29 32.9
-10 2 -12 83.79 26.2
10 -8 12 124.99 26.9
2 -10 12 146.29 30.3
-8 10 -12 125.09 23.4
8 -10 -12 164.38 31.2
8 -10 -12 193.88 37.3
8 2 12 134.49 23.9
9 -10 12 43.1 24.4
-10 9 -12 9.3 29.2
1 9 12 13 18.9
10 -1 12 18.1 21.7
9 1 -12 -0.2 18.8
-1 -9 12 -28.2 31
10 -9 -12 8.1 23
-1 10 -12 7.9 21.1
1 -10 -12 -8.2 31.6
10 -9 -12 8.5 24.5
1 -10 -12 -6.8 24.8
-10 9 -12 22.5 21.1
1 -10 12 -48.9 29.3
1 9 -12 16.3 21.5
10 -9 12 22.1 24.4
-1 -9 -12 -35.2 33.4
-9 10 -12 15.5 29.5
-1 -9 -12 -6.1 26.3
1 -10 12 17.6 25.5
9 1 12 15.9 19.1
-9 10 -12 4.9 19.1
-10 1 -12 12.1 22.3
-1 10 12 16.2 21.2
9 -10 -12 -6.3 24.7
9 -10 -12 10.8 27.8
0 -10 -12 -0.5 23.6
10 -10 -12 -2.9 23.3
0 -10 12 -57.39 29
0 -10 -12 -22.9 33.1
0 10 -12 35.3 20.1
-10 10 -12 10.7 27.1
0 -10 12 -13 15.4
10 -10 -12 40.6 25.6
-10 0 -12 11.5 20.3
0 10 12 19.4 18.7
-10 10 -12 21.2 19.1
10 -10 12 1 22.6
10 0 12 22.4 20.1
5 6 12 12 19.2
-6 -5 -12 -14.5 32.1
6 -11 12 20.7 22.5
11 -5 12 11.6 20.2
11 -6 -12 38.4 22.6
-11 6 -12 24.2 24.3
-11 6 -12 14.8 38
-5 -6 12 -24.3 29.3
-5 11 -12 17 20.6
5 -11 -12 -3.4 25.8
6 5 -12 7.8 21.1
-6 11 -12 26.9 18.9
5 -11 12 55.79 24.7
-11 5 -12 48.7 23.8
6 -11 -12 12.4 17
5 6 -12 54.59 23.8
11 -6 12 55.69 20.1
6 5 12 33.2 19.2
-6 -5 12 -32.6 26.6
6 -11 -12 30.7 29.4
-5 -6 -12 9.7 35.6
-11 5 -12 10.3 39.5
-4 11 -12 185.28 28.3
11 -7 -12 273.27 41.8
11 -4 12 190.98 28.5
7 -11 12 275.17 33.4
-11 7 -12 200.78 46.8
4 7 12 250.47 36.7
7 4 -12 271.77 37.4
-11 4 -12 162.38 48.6
4 -11 12 156.08 29
7 -11 -12 266.57 38.6
11 -4 -12 247.78 31.9
7 4 12 216.28 33.1
11 -7 12 93.39 25.2
-7 11 -12 152.88 39.4
-11 4 -12 222.88 31.7
4 7 -12 247.88 36.6
-7 11 -12 143.19 24.4
-4 -7 -12 149.19 46.3
7 -11 -12 171.28 30.1
3 -11 -12 98.29 30.1
-3 11 -12 117.09 25.1
8 3 -12 126.59 25.4
3 8 12 94.49 22.1
-11 8 -12 131.39 26.5
11 -3 12 97.59 23.8
8 -11 12 118.69 26.7
-11 8 -12 110.59 39.8
11 -8 -12 151.78 26.7
8 -11 -12 58.49 32.8
8 3 12 80.59 19.9
-8 11 -12 37.8 31.2
3 8 -12 59.59 21.5
-11 3 -12 -4.4 40.3
-11 3 -12 39.7 24.2
3 -11 12 46.7 25.6
-3 -8 -12 10.7 35.5
-8 11 -12 51.59 20.3
8 -11 -12 30.3 25.6
11 -8 12 37.2 23.3
-11 9 -12 22.6 30.2
11 -9 -12 33.4 23.7
2 9 12 36.4 19
9 -11 12 20.7 23.4
2 -11 -12 2.8 24.6
-2 -9 12 -34.9 30.3
-2 11 -12 51.59 22.4
-11 9 -12 37.2 20.1
11 -2 12 25.1 19.3
9 -11 -12 29.4 25.4
2 9 -12 54.69 21.6
-9 11 -12 -4.5 27.1
2 -11 12 37.5 26.3
9 -11 -12 1.1 30.5
11 -9 12 46.6 24
-11 2 -12 35.3 23.5
-9 11 -12 34.4 18.8
9 2 12 65.59 21
-2 -9 -12 2.8 32.8
-10 -1 -12 -0.7 13.6
11 -1 12 28.5 18.2
1 10 12 53.09 19.5
-11 10 -12 4 24.9
-1 11 -12 19 20.1
1 -11 -12 39 24.2
-1 -10 12 -27.5 28
11 -10 -12 34.9 26
-11 10 -12 24.3 19.4
11 -10 -12 56.19 22.9
10 -11 12 28.3 23.3
10 1 12 5.1 19.8
-1 -10 -12 -3.4 30.8
-1 11 12 3 17.7
-11 1 -12 3.4 20.6
11 -10 12 -9.6 22.1
10 -11 -12 19 26.6
1 10 -12 15.3 19.1
-10 11 -12 0.7 19.2
-10 11 -12 -5 25.3
-1 -10 -12 -2.4 23.1
1 -11 12 14.5 23.8
10 -11 -12 -15.8 24.1
11 -11 12 -5.5 22.2
11 0 12 -1.5 17.6
-11 0 -12 10.2 18.4
11 -11 -12 -18.2 24.1
0 -11 -12 -18.7 23.3
11 -11 -12 5 24.4
-11 11 -12 -7.4 18.3
0 11 12 27.7 19
0 11 -12 -4.6 19
6 -12 12 159.38 28.8
12 -6 -12 254.77 36.6
-6 12 -12 170.38 26.4
6 6 12 198.68 25.9
6 -12 -12 204.48 33.9
-12 6 -12 82.89 41.2
12 -6 12 173.08 25.9
6 6 -12 204.18 28.7
-12 7 -12 155.98 27.9
-12 7 -12 46.2 37.4
-5 12 -12 155.28 25.8
7 -12 12 57.99 24.4
5 7 12 92.09 21.5
7 5 -12 146.29 26.6
5 -12 -12 146.49 31.5
12 -5 12 94.59 22.9
12 -7 12 64.39 21.4
-5 -7 -12 -9.4 32.2
5 -12 12 45.6 24.4
7 -12 -12 73.99 22.9
-12 5 -12 55.59 24.1
7 -12 -12 28.1 25.7
7 5 12 37.9 18.3
-12 5 -12 -7.2 35.4
-7 12 -12 46.1 19.1
12 -5 -12 82.89 21.2
5 7 -12 68.19 23.1
8 4 -12 108.69 24.7
4 -12 -12 140.49 31.4
-4 12 -12 71.69 22
4 8 12 111.69 22.3
-12 8 -12 138.29 26.7
-12 8 -12 23 32.6
12 -8 -12 171.38 28.4
12 -4 12 80.09 22.2
8 -12 12 100.39 25.9
-8 12 -12 73.19 20.7
8 4 12 121.29 21.4
8 -12 -12 90.49 26
-12 4 -12 -0.6 52.69
4 -12 12 95.09 27.1
-12 4 -12 114.79 27.6
8 -12 -12 123.29 31.6
4 8 -12 175.48 27.2
12 -9 -12 274.47 43.9
3 9 12 288.17 35.8
-3 12 -12 253.87 37.3
-12 9 -12 266.87 37.4
12 -3 12 288.97 37.3
3 -12 -12 276.17 42.1
9 -12 12 209.78 32
12 -9 12 142.29 27.4
9 -12 -12 188.28 30.8
-9 12 -12 219.38 33.4
9 3 12 220.78 26
-12 3 -12 236.78 32.1
3 -12 12 116.39 28.2
9 -12 -12 139.59 32.4
3 9 -12 181.88 26.7
10 -12 12 -7.4 21.8
-2 12 -12 -2.6 18.9
-2 -10 12 25.8 38.2
12 -10 -12 14.3 22.7
2 -12 -12 4.4 22.9
12 -2 12 10.1 19
-12 10 -12 -3.4 19.6
2 10 12 10.5 17.5
-2 -10 -12 -1.4 44.3
-2 12 12 14.9 18.8
2 -12 12 1 22.8
-10 12 -12 6.7 17.3
12 -10 12 -10.2 21.2
10 2 12 21.2 19.1
10 -12 -12 -5.5 28.7
-12 2 -12 14.1 21.5
10 -12 -12 -4.8 23.4
2 10 -12 19.1 19.3
12 -1 12 75.09 21
1 -12 -12 30.8 21.6
1 11 12 62.39 19.6
11 -12 12 10.2 21.3
-12 11 -12 61.09 20.6
12 -11 -12 60.49 26.3
12 -11 -12 74.29 19.3
-1 12 -12 76.49 21.3
1 -12 12 24.5 15.7
11 1 12 68.59 19.1
-1 -11 -12 78.89 22.3
-1 12 12 63.09 19.4
1 11 -12 84.69 21.9
11 -12 -12 42.7 25
11 -12 -12 41.5 26.7
-12 1 -12 63.29 22.1
12 -11 12 24.3 21.9
-11 12 -12 53.29 19.3
12 -12 -12 45.9 23.5
12 0 12 6.3 17.5
0 12 12 15.1 16.7
0 12 -12 1.8 19
-12 0 -12 13.7 17.5
-12 12 -12 9.2 18.2
12 -12 -12 -32.1 22.9
0 12 -12 9.2 18.1
12 -12 12 -6.9 20.3
0 -12 -12 15.7 21.5
7 6 -12 160.98 26.1
-6 13 -12 165.48 26.3
7 -13 12 98.29 25.5
6 -13 -12 144.49 27.7
13 -7 -12 170.78 24.1
6 7 12 129.09 21.8
13 -6 12 180.78 26.1
-13 7 -12 -3.2 56.59
7 -13 -12 187.68 31.6
6 -13 12 107.89 26.8
13 -7 12 148.89 25.5
13 -6 -12 207.88 32.4
7 6 12 95.99 20.9
-7 13 -12 135.89 24.8
-13 6 -12 215.48 30.2
13 -5 12 232.28 34
13 -8 -12 273.17 40
8 -13 12 193.78 30.9
5 8 12 217.08 32.5
-5 13 -12 230.18 35.7
5 -13 -12 305.27 35.5
8 -13 -12 236.88 33.3
8 5 12 212.58 31.2
13 -8 12 178.38 24.5
5 -13 12 130.29 27.8
5 8 -12 221.88 34.7
-13 5 -12 189.58 29.3
8 -13 -12 168.18 27.1
-8 13 -12 179.78 25.8
13 -4 12 86.49 21.1
4 -13 -12 89.99 25.9
-13 9 -12 98.79 23.9
13 -9 -12 115.59 26.3
-4 13 -12 71.99 22.1
4 9 12 53.89 19.3
9 -13 12 74.69 23
4 9 -12 49.9 21.6
4 9 -12 4.6 16.1
4 -13 12 31 23
-9 13 -12 48.1 19.6
9 -13 -12 29.8 22.9
9 4 12 60.29 18.5
-13 4 -12 31 22.9
9 -13 -12 30.8 26.1
13 -3 12 3.3 17.9
-13 10 -12 22.2 18.8
13 -10 -12 15.2 23.5
10 -13 12 -1.4 20
3 -13 -12 15 21.7
-3 13 -12 19.7 18.2
3 10 12 18.5 17.8
3 -13 12 -14.5 21.6
10 -13 -12 -35.3 26.3
-13 3 -12 -1.3 21.4
-10 13 -12 3.8 17
13 -10 12 54.19 18.3
3 10 -12 12.3 19.3
10 -13 -12 -29.9 21.7
10 3 12 -2.3 16.2
3 10 -12 -3.1 15.4
-2 13 -12 31.3 18.8
2 11 12 29.1 17.3
2 -13 -12 -1.2 19.9
13 -11 -12 19.4 22.3
13 -2 12 8.6 16.8
-13 11 -12 19 18.7
11 -13 12 9.9 20.4
2 -13 12 22.6 20.9
-13 2 -12 20.6 20.4
2 11 -12 34.1 18.8
2 11 -12 2.1 16.1
11 -13 -12 -9.4 24.3
11 -13 -12 20.4 22.5
11 2 12 25.3 16.7
13 -11 12 -0.3 19.4
-11 13 -12 23.5 17.3
-2 13 12 18.7 17
-1 13 -12 0.6 15.1
1 12 12 30.6 16.8
-12 -1 -12 0.8 11.7
1 -13 -12 22.2 19.6
13 -1 12 25.7 16.7
12 -13 12 -3.1 19.6
13 -12 -12 1 22.2
-1 13 -12 19.3 18.6
-13 12 -12 27.2 18
12 -13 -12 -14.6 22.1
-1 13 12 3.7 17.1
12 -13 -12 17.8 23.9
13 -12 12 6.8 19.6
-12 13 -12 11.1 16.5
1 12 -12 25.7 18.7
-13 1 -12 17.6 18
1 12 -12 2.4 15.4
12 1 12 8.6 16.6
-13 0 -12 37.1 16.7
13 -13 -12 47.2 16.8
0 13 -12 67.99 19.5
-13 13 -12 55.49 17.6
13 0 12 68.19 17.8
13 -13 -12 38.2 23.1
13 -13 12 42.5 20.4
0 13 -12 14.5 15.4
0 -13 -12 59.29 15.2
0 13 12 76.39 18.4
7 -14 12 239.28 38.9
-14 7 -12 293.07 39.2
7 7 12 291.17 32.4
14 -7 12 291.67 37.5
-7 14 -12 314.57 37.9
14 -7 -12 315.27 36.2
7 -14 -12 294.57 38.4
8 -14 12 96.89 23.7
14 -8 -12 106.69 21.9
6 -14 -12 104.49 25
14 -6 12 116.99 23.9
6 8 12 77.39 19.1
-14 8 -12 99.99 23.4
-6 14 -12 61.69 20.9
8 -14 -12 30.5 16.4
-8 14 -12 32.6 20.1
14 -6 -12 47.4 17
6 8 -12 3.5 15.8
6 8 -12 51.39 20.6
6 -14 12 16.1 20.6
14 -8 12 32.3 20.9
-14 6 -12 42.6 21.5
8 -14 -12 38.9 22.7
8 6 12 40.4 16.9
9 -14 12 51.29 21.2
-14 9 -12 59.39 21.8
5 9 12 38.6 17.9
-5 14 -12 31 20.3
14 -5 12 76.49 21.8
14 -9 -12 81.89 23.9
5 -14 -12 30.6 22.8
5 9 -12 36.6 18.3
-14 5 -12 37.1 21.9
9 5 12 34.6 16.6
5 9 -12 36.7 19
9 -14 -12 10.4 21.8
5 -14 12 31.6 21.2
-9 14 -12 35.1 18.9
9 -14 -12 26 19.8
14 -9 12 -8.7 13.1
10 -14 12 69.69 22.1
4 -14 -12 79.59 23.9
-4 14 -12 57.19 19.2
4 10 12 63.89 18.5
-14 10 -12 61.79 20.2
14 -10 -12 98.19 25.8
14 -4 12 88.39 21.7
4 10 -12 30.7 18.5
-10 14 -12 54.29 18.9
10 -14 -12 51.99 21.8
10 -14 -12 30.1 23.9
4 10 -12 36.5 18.9
-14 4 -12 38.7 22.1
10 4 12 47.6 17.2
4 -14 12 52.39 22.8
11 -14 12 -4.2 18.4
14 -3 12 6 17.1
-14 11 -12 -0.4 17.4
14 -11 -12 2.6 22.1
-3 14 -12 8.6 17.7
3 11 12 17.5 16.8
3 -14 -12 -0.2 18.8
3 -14 12 10.9 21.1
-11 14 -12 0.4 16.3
11 -14 -12 -32.1 24.6
-3 14 12 7.7 16.6
11 -14 -12 11.7 20.1
3 11 -12 2.9 17.5
-14 3 -12 1.6 19.9
3 11 -12 -1 18.2
11 3 12 -5 15.4
-14 12 -12 33.1 17.4
14 -12 -12 20.1 22.5
14 -2 12 41.2 16.8
2 -14 -12 25.5 18.2
-2 14 -12 32.2 17.9
12 -14 12 16.9 19.7
-2 14 -12 0.3 16.4
2 12 12 30.9 16.8
12 -14 -12 15.6 23.1
-14 2 -12 19.1 18.7
-12 14 -12 19.8 16.2
2 12 -12 19.3 16.7
12 2 12 22.3 16
2 12 -12 27.8 18.9
-2 14 12 28.7 16.9
12 -14 -12 16.4 20.2
14 -12 12 33.3 16.3
14 -13 -12 2.7 21.3
-1 14 -12 1.2 14.1
1 -14 -12 33.4 17.2
14 -1 12 8.7 14.3
-1 14 -12 17.2 17
-14 13 -12 15.2 16.1
13 -14 12 6 19.3
1 13 12 12.2 15.6
1 13 -12 9.3 17.5
13 -14 -12 37.5 21.1
-14 1 -12 18.2 16.2
13 -14 -12 -2.4 19.5
-13 14 -12 15.2 15.4
13 1 12 -4.1 13.9
14 -13 12 5.5 18
1 13 -12 16.1 16.4
-1 14 12 27.6 16.2
0 14 -12 35.5 15.8
14 -14 12 28.5 17.3
0 14 12 38 14.8
-14 14 -12 25.8 15
0 14 -12 19.3 15.3
-14 0 -12 15.1 13.4
14 0 12 36.9 15.2
14 -14 -12 30.9 20.1
7 8 12 86.99 19.4
-7 15 -12 85.09 21.2
15 -7 12 88.69 22.5
15 -8 -12 115.59 21.4
-15 8 -12 122.79 24.4
8 7 -12 70.69 19.7
7 -15 -12 103.39 23.4
8 -15 12 92.59 22.3
15 -7 -12 90.89 17.5
7 -15 12 89.29 22
15 -8 12 90.99 22.3
8 7 12 88.29 18.7
-8 15 -12 84.29 20.9
8 -15 -12 92.29 22.1
-15 7 -12 103.59 23.4
7 8 -12 93.59 21.6
9 -15 12 198.38 32.8
-15 9 -12 244.38 29.5
-6 15 -12 203.28 33
15 -9 -12 232.78 33.8
6 -15 -12 225.28 33.4
15 -6 12 235.18 31.9
9 6 12 119.49 20.6
-15 6 -12 155.98 24.4
9 -15 -12 152.18 26.4
6 -15 12 179.28 25.9
6 9 -12 130.99 24.7
-9 15 -12 135.29 22.7
15 -9 12 119.19 22.9
9 -15 -12 103.29 19.2
-5 15 -12 22.6 17.4
5 -15 -12 17.8 19.4
-15 10 -12 21.5 18.2
10 5 -12 9.8 14.4
15 -10 -12 38.5 21.5
15 -5 12 13.8 18.3
10 -15 12 17.4 18.7
5 10 12 14.7 15.9
10 5 12 25.6 15.4
5 -15 12 5.7 19.6
-15 5 -12 26.7 19.9
10 -15 -12 9.9 21.1
5 10 -12 29.5 19.8
-10 15 -12 22.6 17.8
10 -15 -12 8.8 17.8
15 -11 -12 32.3 21.6
11 -15 12 26.2 18.7
15 -4 12 44.7 18.3
-15 11 -12 31 17.9
4 -15 -12 30.4 18.3
4 11 12 20.2 15.4
-4 15 -12 23.2 17
11 4 12 46.4 16.5
-15 4 -12 39.7 19.7
11 -15 -12 33.1 23.4
11 -15 -12 24.9 18.5
4 11 -12 25.8 18.9
4 11 -12 44.2 17.4
-11 15 -12 28.3 16.8
-4 15 12 51.49 17.5
4 -15 12 30.4 19.1
3 -15 -12 30.4 17.5
15 -3 12 23.9 17.1
15 -12 -12 14.4 20.9
3 12 12 25.5 14.4
-15 12 -12 48 16.9
12 -15 12 18.6 18
-3 15 -12 21.3 16.5
12 -15 -12 23.2 22.2
-3 15 12 38.6 16.9
3 12 -12 28.7 16
-12 15 -12 14.8 14.7
3 12 -12 -4.5 16.9
3 -15 12 -10 11.6
-15 3 -12 22.6 18.5
12 -15 -12 11.7 18.2
12 3 12 9 14.7
13 -15 12 12.4 18.1
2 -15 -12 35.5 17
-2 15 -12 17 15.9
15 -2 12 30.2 16.8
2 13 12 12.2 14.4
-2 15 -12 -1.5 20.5
15 -13 -12 13.6 21
-15 13 -12 21.2 14.9
2 13 -12 17.8 16.6
2 13 -12 11.2 14.6
-2 15 12 43.2 16.2
13 -15 -12 23.2 18
-15 2 -12 15.1 16.9
-13 15 -12 13.8 13.5
13 2 12 13.3 15
13 -15 -12 15.9 20.6
14 -15 12 27.6 16.9
-1 15 -12 13.5 14
-1 15 -12 3 11.3
1 14 12 27.1 14.3
-15 14 -12 24.6 14.1
15 -14 -12 10.5 19.4
15 -1 12 20.5 15.6
1 14 -12 6.7 14.3
14 1 12 27.5 14.5
-1 15 12 1.1 13.7
-15 1 -12 7.5 14.5
-14 15 -12 0.7 10.1
14 -15 -12 6.8 17.7
0 15 12 1.1 8.7
15 0 12 -0.9 14.7
0 15 -12 3.4 10.4
15 -15 -12 6.7 17.1
-16 8 -12 152.68 24.4
8 8 -12 79.19 20.9
8 -16 12 109.09 20.5
16 -8 -12 90.19 17.4
8 -16 -12 162.28 23.6
8 8 12 139.89 20.6
16 -8 12 122.19 22.8
-16 9 -12 37.5 20.1
16 -9 -12 42.8 17.7
7 -16 -12 57.59 19.8
16 -7 12 55.69 19.7
9 7 -12 31.3 17.3
9 -16 12 47.9 17.6
7 9 12 26.4 14.7
16 -9 12 25.4 19.7
-9 16 -12 3.5 14.5
9 7 12 40.3 15.6
-16 7 -12 27.7 19.5
7 9 -12 32.1 19.1
7 -16 12 32.3 18.2
9 -16 -12 32.7 18.9
-6 16 -12 0.2 12.5
-16 10 -12 16.9 16.3
10 6 -12 6.7 13.8
16 -10 -12 29.9 18.9
16 -6 12 12.2 17.8
6 10 12 16.3 13.7
10 -16 12 18.4 16.6
6 -16 -12 6.3 16.8
-16 6 -12 14.2 18.5
6 10 -12 31.6 19.2
6 -16 12 13.6 17.5
10 -16 -12 4.6 18.4
10 -16 -12 20.7 13.2
10 6 12 5.9 15.4
16 -10 12 -12.2 21.3
-16 11 -12 16.9 17.3
16 -11 -12 7.5 19.2
5 11 12 -5.9 12.4
5 -16 -12 5.4 16.3
16 -5 12 7.2 17.2
11 -16 12 9.5 16.3
-5 16 -12 -0.3 15.9
-16 5 -12 9.4 18.3
5 -16 12 2.7 17.3
-5 16 12 11.7 15.5
11 5 12 1 15.1
11 -16 -12 -1.9 15
11 -16 -12 14.8 20.3
5 11 -12 3 16.4
16 -12 -12 2.9 20.7
4 -16 -12 13.4 15.7
-16 12 -12 7.7 14.2
12 -16 12 9.7 17.1
16 -4 12 16.8 16.2
4 12 12 10.8 13.3
-4 16 12 23.3 15.5
4 12 -12 11.2 17.1
12 -16 -12 -1.1 21.3
12 4 12 12.9 14.6
4 -16 12 -19.4 11.9
12 -16 -12 8.1 15.6
-16 4 -12 11.4 17.1
3 -16 -12 27.3 16.5
13 -16 12 7.6 15.6
16 -3 12 6.7 16.1
16 -13 -12 -4.9 20.4
-16 13 -12 18.3 14.4
3 13 12 5.4 10.1
3 13 -12 16.1 16.2
-3 16 12 22 14.3
13 -16 -12 0.9 15.3
13 -16 -12 8.9 20
-16 3 -12 16.2 16.9
13 3 12 6.1 13.9
16 -2 12 1.4 15.9
-16 14 -12 7 11.2
14 -16 12 11.5 16.3
16 -14 -12 -16.8 19.7
2 14 -12 6.9 11.4
14 -16 -12 9.9 16.1
-2 16 12 3.6 10.9
14 2 12 7.2 15.5
-16 2 -12 14.5 15.9
16 -1 12 11.2 16.7
16 -15 -12 -13.5 19.8
15 -16 -12 -11.4 17.5
-16 1 -12 0.4 11
15 1 12 -1.2 16.4
16 -16 -12 0.9 20.2
16 0 12 9.2 18.6
9 8 -12 12 13.7
-17 9 -12 -12.6 17.1
8 9 12 2.3 12.3
17 -8 12 7.2 18.6
8 -17 -12 -7.9 16.2
9 -17 12 5.2 14.3
8 9 -12 12.4 16.1
-17 8 -12 15.8 19.8
8 -17 12 -9.7 14.3
17 -9 12 4.8 17
9 8 12 9.9 13.6
9 -17 -12 4.5 16.9
7 -17 -12 19.2 16.2
10 7 -12 9.1 12
10 -17 12 33.2 15.5
17 -10 -12 22 15.9
-17 10 -12 34.4 16.6
17 -7 12 22.3 18.2
7 10 12 16.4 11.9
10 7 12 15.4 14
7 -17 12 30.2 16.2
17 -10 12 -3 14.3
-17 7 -12 22.5 19.1
10 -17 -12 21.1 18.4
7 10 -12 30.4 18.4
6 -17 -12 29.7 16.2
17 -11 -12 28.2 18.6
11 -17 12 24.7 15.2
6 11 12 -1.1 9.3
17 -6 12 43.5 17.6
-17 11 -12 54.79 17.5
11 -17 -12 1.5 9.7
11 -17 -12 48.9 20.6
6 11 -12 22.8 16.6
6 -17 12 22.6 15.3
11 6 12 34.1 15.4
-17 6 -12 43.8 18.9
-6 17 12 22.8 15.1
-17 12 -12 21.8 15.4
17 -12 -12 17.9 18.9
12 -17 12 32.6 16.2
5 -17 -12 19.8 15.2
17 -5 12 45.7 18.2
12 -17 -12 46.2 21.7
12 5 12 26 15.5
-17 5 -12 16.5 17.6
-5 17 12 38.9 16.2
5 12 -12 11.6 14.8
12 -17 -12 30.2 12.7
13 -17 12 -7.5 15.3
17 -13 -12 -16.8 21.9
17 -4 12 12.4 17.6
-17 13 -12 17.2 13.5
4 -17 -12 19.9 13.4
-17 4 -12 13.5 17
13 -17 -12 18 18.8
13 4 12 9.5 14.1
-4 17 12 9 11.7
4 13 -12 10.1 11.9
13 -17 -12 5 14.3
17 -3 12 15.9 18.1
17 -14 -12 -13.4 21.8
14 -17 12 2.8 16.1
-17 3 -12 22.9 16.8
3 14 -12 2.8 16.1
14 3 12 8.7 16.2
14 -17 -12 10.8 14.1
9 -18 -12 11.1 16.9
18 -9 12 4.8 15.5
-18 9 -12 -9.1 18.2
9 -18 12 9.1 15.3
8 -18 -12 11.3 17
10 -18 12 17.4 15.4
18 -8 12 28.1 18.3
-18 10 -12 12.5 17.9
-8 18 12 37.3 17.4
10 -18 -12 22.1 18.6
8 10 -12 11.1 24.1
8 -18 12 22.1 16.1
-18 8 -12 3.7 20.8
-18 11 -12 17.8 17.6
11 -18 12 19 13.9
18 -7 12 40.8 21.5
7 -18 -12 17.6 15.9
7 -18 12 8.9 14.2
11 -18 -12 41.3 20.1
-18 7 -12 34.7 21.5
-7 18 12 31.3 15.9
6 -18 -12 12.1 16
12 -18 12 2.2 16.2
-18 12 -12 1.1 15.4
18 -6 12 -11 20.8
18 -12 -12 -13.8 13.7
-6 18 12 2.2 8.6
-18 6 -12 22 19.9
12 -18 -12 5 20.6
5 -18 -12 37.8 13.7
13 -18 12 5.5 16.6
13 -18 -12 30.3 13.3
-1 1 -13 -7.7 37
-1 2 -13 49.9 38.9
-2 1 -13 2.4 38.2
-1 2 -13 18.6 17.5
0 2 -13 10.2 17.5
-2 2 -13 11 18.7
-2 2 -13 12.2 36.5
-1 3 -13 36.9 22.6
-3 2 -13 73.69 41.5
1 2 13 7.4 16.1
-3 2 -13 29.4 20.9
1 2 -13 32.1 20.3
-2 3 -13 61.29 39.4
-3 1 -13 -11.6 39.3
-2 3 -13 26.7 22.8
2 1 13 1.9 27.2
-3 3 -13 90.29 42.2
0 3 -13 77.09 25.4
-3 3 -13 75.09 26
0 3 13 51.69 22.3
-2 4 13 12 16.6
-2 4 -13 9.3 22.9
2 2 13 15 24.7
2 2 -13 25.9 20.9
-4 2 -13 -4.8 35.1
-4 2 -13 12.1 22.8
-2 4 -13 66.99 39.8
-1 4 -13 23.8 25.6
-4 3 -13 32.6 26.3
1 3 13 28.7 24.6
-4 3 -13 27.9 38.7
-3 4 -13 38.4 39.8
-1 4 13 22.2 24.1
1 3 -13 33.7 25.3
-3 4 -13 45.1 25.7
-4 1 -13 2.5 20.2
-4 1 -13 -5.2 50.79
3 1 13 28.1 24.9
4 -4 -13 74.19 23.8
-4 4 -13 39.2 38.9
0 4 -13 45.9 27.9
0 -4 13 36.3 28.7
0 4 13 28.9 26.5
4 0 13 16.3 22.1
-4 4 -13 26.8 24.2
-5 3 -13 138.79 44
-5 3 -13 153.58 30.8
-2 -3 13 152.28 33.2
2 3 13 203.28 31.8
-2 5 -13 114.59 25.9
3 2 -13 77.89 24.4
-5 2 -13 58.09 38.8
-3 5 -13 218.78 47.7
-3 -2 13 105.49 30.8
3 -5 -13 97.09 22.7
-3 5 -13 161.08 28.7
3 2 13 179.88 30.8
-5 2 -13 112.29 27.7
2 3 -13 73.39 25.9
5 -1 13 20.5 19.4
-5 4 -13 28.3 35.4
5 -4 -13 56.39 21.9
-1 -4 13 11.4 27.1
1 4 13 3.7 23.5
-5 4 -13 29.3 24.7
-1 5 -13 39.6 25.8
-4 5 -13 19.8 35.5
-1 5 13 15.3 24.5
-4 -1 13 32.7 26.8
4 1 13 6.2 25.3
-5 1 -13 1 18
-4 5 -13 20.7 22.5
4 -5 -13 56.89 25.1
1 -5 13 2.6 25.7
1 4 -13 46.1 28.8
0 5 -13 70.49 28.3
0 5 13 21.4 23.7
5 -5 -13 69.29 25.2
-5 5 -13 48.4 25.2
5 0 13 50.49 26.2
0 -5 13 42.3 29.3
-5 0 13 6.5 24.9
-5 5 -13 43.2 36.6
-3 6 -13 33.7 23.7
3 -6 13 1.4 26.7
3 3 13 35.1 25.4
3 -6 13 65.59 22.9
-3 -3 13 6.2 25.8
3 -6 -13 -17.3 17
-3 6 -13 52.59 38
-6 3 -13 24.4 26.9
-6 3 -13 22.5 38.8
3 3 -13 34.1 24.7
4 2 -13 61.69 23.4
6 -4 -13 108.59 23
2 4 13 58.99 25
-6 4 -13 56.69 26.2
-6 4 -13 77.79 41.2
-2 -4 13 55.19 29.1
-2 6 -13 52.89 24.3
4 -6 13 122.29 26.4
2 -6 13 25.8 26.9
-4 -2 13 28.8 26.6
-4 6 -13 89.69 40.3
-4 6 -13 51.39 24.3
-6 2 -13 3.5 38.3
-6 2 -13 49.99 27.5
4 -6 -13 82.99 26.2
4 2 13 34.8 25.1
2 4 -13 63.79 26
-6 5 -13 43.4 24.6
-1 -5 13 22.4 29.6
6 -1 13 64.99 24.3
5 -6 13 68.49 24.1
-1 6 -13 70.09 25.9
-1 -5 13 107.49 28.2
-6 5 -13 68.39 37.6
6 -5 -13 89.39 25.3
1 5 13 51.29 23.4
6 -5 13 126.09 29.9
1 -6 13 99.69 25.8
-6 1 -13 54.29 23.1
5 -6 -13 110.29 28.2
-5 6 -13 60.59 38.2
-5 6 -13 58.49 22.7
1 5 -13 74.39 27.6
-5 -1 13 21.3 26.2
1 -6 13 36.9 28.9
5 1 13 64.19 25.7
-1 6 13 -0.1 21.9
0 -6 13 21.4 29
-6 6 -13 71.99 25.4
-6 6 -13 80.19 37.5
6 -6 -13 102.29 27.1
0 6 -13 97.19 27.7
6 -6 13 108.49 25.4
0 6 13 47 23
0 -6 13 113.29 27.8
6 0 13 64.99 25
4 -7 13 -42.6 23.2
-3 7 -13 20.5 21
4 -7 13 45 26.2
3 -7 -13 3.7 32.6
3 4 13 -0.2 21.6
4 3 -13 2.2 21
7 -4 -13 58.99 20.5
7 -3 13 -6.9 14.4
-3 -4 13 -9.8 27.4
-7 4 -13 16.7 26.6
-7 4 -13 -9.5 36.7
-4 7 -13 32 34.6
4 3 13 5.9 22.1
-4 -3 13 -12.5 26.1
3 4 -13 27 23.9
-4 7 -13 23.4 21.5
3 -7 13 54.59 26.1
4 -7 -13 17.1 21.8
4 -7 -13 7.6 31.8
-7 3 -13 6.7 25.6
3 -7 13 0.2 27.1
-7 3 -13 10.3 39.3
7 -5 -13 93.69 23.9
-7 5 -13 87.09 27.8
-2 -5 13 40.4 32
-2 -5 13 65.99 25.3
2 5 13 66.09 23.7
2 -7 -13 63.19 32.8
7 -2 13 72.99 25
-2 7 -13 92.89 27.2
5 2 -13 43.7 22
-7 5 -13 77.49 39.6
5 -7 13 154.58 30.6
5 -7 -13 54.89 27.7
2 5 -13 88.79 26.2
5 -7 -13 77.99 34.4
-5 7 -13 64.19 37
7 -5 13 107.99 27.2
-7 2 -13 33.2 24.5
-5 -2 13 -5.4 25.3
2 -7 13 88.19 27.9
-7 2 -13 -3.3 54.79
5 2 13 36.6 23.4
2 -7 13 35.9 30.8
-5 7 -13 77.79 24.6
7 -6 -13 46.6 24.8
-1 -6 13 65.19 30.1
-1 -6 13 -0.4 30.2
-7 6 -13 28.2 33.7
-7 6 -13 23.5 24.6
-1 7 -13 70.39 26.6
6 -7 13 89.39 28
6 1 -13 7.6 15.6
1 6 13 -4.1 19.6
7 -1 13 36.7 23.9
1 -7 13 19.3 30.8
6 -7 -13 31.1 30
-7 1 -13 16.7 23.1
7 -6 13 73.59 28.9
-6 7 -13 60.69 36.7
1 6 -13 26.3 23.5
1 -7 13 75.19 28.1
6 -7 -13 83.79 28.5
6 1 13 57.79 23.9
-6 7 -13 62.39 24.1
0 -7 13 138.09 30.2
0 7 13 38 20.8
-7 0 -13 6.8 17.9
7 -7 -13 93.09 27.2
-7 7 -13 64.49 33.8
-7 7 -13 82.39 23.9
7 0 13 62.09 23.1
0 -7 13 49.7 32.6
0 7 -13 122.99 27.6
7 -7 13 117.99 29.3
-8 4 -13 60.69 27.1
-4 -4 13 11.8 28.8
-4 8 -13 84.89 23.6
-8 4 -13 29.1 40.6
4 -8 -13 82.49 37.5
8 -4 -13 79.69 20.7
4 -8 13 76.89 26.1
4 4 -13 55.49 25.3
4 4 13 28.6 21.6
8 -4 13 50.89 28.4
-3 8 -13 101.09 24.5
8 -5 -13 153.78 25.5
-8 5 -13 83.59 28.2
8 -3 13 60.49 24
3 5 13 91.89 23.8
-3 -5 13 27.9 31.2
5 3 -13 50.49 23.1
3 -8 -13 74.79 35.5
-8 5 -13 81.49 41.2
5 -8 13 154.68 28.9
-5 8 -13 137.29 41.7
3 5 -13 72.19 23.9
-8 3 -13 50.89 26.4
5 -8 -13 74.09 26.6
-8 3 -13 -4.5 40.2
-5 -3 13 18.2 27.8
5 -8 -13 127.09 38.3
8 -5 13 144.59 29.2
-5 8 -13 110.69 24.3
3 -8 13 132.29 28.2
5 3 13 83.99 23.7
8 -2 13 146.29 28.6
2 6 13 122.29 25.8
-8 6 -13 123.89 41.8
8 -6 -13 170.48 28.4
-8 6 -13 153.48 28.9
2 -8 -13 168.18 37.3
-2 8 -13 205.68 31.4
6 2 -13 100.09 25.1
2 6 -13 109.19 25.9
-6 8 -13 142.39 41
-8 2 -13 96.29 28
6 -8 -13 146.69 31.5
-6 8 -13 170.68 27.6
6 2 13 112.29 24.8
8 -6 13 204.18 33.3
2 -8 13 146.79 29.6
6 -8 -13 158.48 36.2
1 7 13 9.2 18.9
8 -1 13 24.9 22.9
-1 -7 13 25.4 27.2
1 -8 -13 -16.2 28.7
-8 7 -13 40.4 23.4
8 -7 -13 44.9 24.9
-1 8 -13 34.8 22.5
7 -8 13 53.79 25
-1 -7 13 -18.5 29.8
-8 7 -13 21.2 32.1
7 1 -13 7.8 18.1
8 -7 13 10.7 26.1
7 -8 -13 16 26.4
1 -8 13 -27.9 28.8
-7 8 -13 10.2 34.3
-1 8 13 -3.7 19.2
-7 8 -13 28.8 21.2
-8 1 -13 27.9 24.3
1 -8 13 27.8 26.8
7 -8 -13 37.9 30.7
7 1 13 9.7 19.8
1 7 -13 39.3 24.1
0 8 -13 -6.4 20.6
0 -8 13 11.7 23.6
-8 8 -13 -11.7 19.5
8 0 13 14.2 20.8
8 -8 -13 30.4 27.1
8 -8 -13 -0.4 25.6
8 -8 13 9.4 24.3
-8 8 -13 5 29.5
-8 0 -13 3.4 16.8
0 8 13 -12.1 18.8
-9 5 -13 248.78 33.2
9 -5 -13 282.67 37.6
4 5 13 179.08 26.9
9 -4 13 163.68 29.5
-9 5 -13 94.09 42.2
5 4 -13 191.18 28.8
5 -9 13 245.98 38.1
9 -4 13 168.58 26
5 -9 -13 279.47 44.3
-9 4 -13 219.08 33.7
4 5 -13 226.98 31.8
5 4 13 192.38 27.6
9 -5 13 184.58 33.1
-5 9 -13 200.98 28.4
4 -9 13 170.98 28.1
3 6 13 56.99 21.3
9 -6 -13 143.09 27.1
-3 -6 13 0.3 29.8
9 -3 13 80.79 22.7
-9 6 -13 96.09 27.1
-3 9 -13 80.69 23.8
-9 6 -13 78.29 39.1
6 -9 13 102.29 24.2
3 -9 -13 75.49 34.7
6 3 -13 74.19 22.4
9 -6 13 74.99 28
6 -9 -13 160.38 38.8
6 -9 -13 90.59 28.6
-6 9 -13 80.39 37.1
6 3 13 107.69 23.5
-6 9 -13 95.29 22.9
3 -9 13 111.89 25.9
-9 3 -13 111.79 29.8
3 6 -13 113.29 26
2 7 13 60.99 21
-2 9 -13 116.99 25.9
9 -2 13 119.59 24.8
-9 7 -13 124.59 26.7
7 2 -13 39.7 21.3
-9 7 -13 58.49 35.4
-2 -7 13 -9.9 29.7
7 -9 13 121.49 25.7
2 -9 -13 35.6 31.6
-9 2 -13 73.49 27.2
-7 9 -13 129.99 24.6
-2 9 13 87.19 23.7
7 -9 -13 66.29 33.2
7 -9 -13 61.89 28
-7 9 -13 44.2 34.2
2 -9 13 89.49 26.7
2 7 -13 115.99 26
9 -7 13 138.39 29.5
7 2 13 69.59 21.5
1 -9 -13 214.08 37.8
-9 8 -13 211.58 28.8
8 -9 13 224.48 31.3
9 -8 -13 192.38 31.9
9 -1 13 139.59 27.4
1 8 13 162.08 26.3
-1 9 -13 181.58 29.4
8 1 13 88.09 22.6
-8 9 -13 30.4 31.1
-9 1 -13 72.99 25.7
-8 9 -13 115.49 22.6
8 -9 -13 121.59 30.2
1 -9 13 96.99 27.6
1 8 -13 101.19 23.7
9 -8 13 120.49 27
8 -9 -13 87.69 33
-1 9 13 138.49 24.6
9 -9 13 65.79 24.8
9 -9 -13 75.29 29.1
-9 9 -13 -0.5 26.5
0 9 13 76.69 21.3
9 -9 -13 72.19 27.9
-9 9 -13 87.79 23.5
0 -9 13 56.59 25
9 0 13 75.69 22.7
0 9 -13 45.5 21.2
-9 0 -13 57.99 20.6
5 5 13 205.28 28.7
5 -10 13 173.28 28.7
5 5 -13 166.68 28.2
10 -5 13 148.49 25.2
-5 10 -13 233.08 29.8
-10 5 -13 205.18 32.7
5 -10 -13 216.18 38.6
10 -5 -13 209.58 31.9
4 -10 -13 120.79 33.4
10 -6 -13 153.78 26
-10 6 -13 126.39 28.3
4 6 13 131.59 24.5
6 -10 13 128.79 26.4
10 -4 13 86.39 23.9
-4 10 -13 148.19 27
6 4 -13 86.79 25.6
4 -10 13 156.78 28.6
10 -6 13 134.19 28.3
6 -10 -13 140.89 28.4
6 -10 -13 166.68 36.8
-6 10 -13 186.18 26.8
6 4 13 186.98 26.4
4 6 -13 178.88 28.8
-10 4 -13 148.39 31
7 3 -13 173.28 27.2
10 -3 13 125.39 25.8
-3 10 -13 143.59 26.6
10 -7 -13 193.88 29.4
7 -10 13 195.38 29.8
3 -10 -13 270.67 41
3 7 13 221.68 28
-10 7 -13 264.37 33.2
-10 3 -13 109.89 29
3 7 -13 157.48 26.3
7 3 13 92.39 20.8
3 -10 13 89.79 25.9
10 -7 13 69.69 24.8
7 -10 -13 170.48 36.5
7 -10 -13 89.39 28.6
10 -2 13 30.4 21.1
-10 8 -13 23.5 20.4
-2 10 -13 37 20.8
8 2 -13 0.1 18.7
2 8 13 32 17.6
8 -10 13 32.9 22.6
-10 8 -13 0.6 28.4
2 -10 -13 11.7 28.3
10 -8 -13 41.2 25.4
2 8 -13 83.49 23.2
2 -10 13 55.59 25.3
8 2 13 96.39 21.2
-10 2 -13 53.19 25.8
-8 10 -13 66.99 19.4
-8 10 -13 -3.3 27.2
10 -8 13 49.6 24.4
8 -10 -13 46.3 26.9
-2 10 13 104.69 21.7
-2 -8 -13 -14.7 32
8 -10 -13 81.69 34.2
9 -10 13 4.1 22.7
-1 -9 13 -25.1 23.9
10 -1 13 10.7 18.5
1 9 13 13.3 16.8
-10 9 -13 21 20.1
10 -9 -13 11.7 24.8
1 -10 -13 -13.7 25.9
-1 10 -13 20.6 20.6
9 -10 -13 -22.2 25.3
9 -10 -13 9 28.5
1 9 -13 19.5 19.4
9 1 13 13.4 20.4
10 -9 13 -14.7 23.1
-9 10 -13 15.3 18
1 -10 13 -31.5 22.7
-1 10 13 13 17.6
-10 1 -13 -3.6 20.5
-10 0 -13 63.59 20.2
10 0 13 146.29 23.1
10 -10 -13 111.09 29.3
-10 10 -13 152.88 24.4
10 -10 13 92.19 25.9
0 10 -13 158.18 24.7
10 -10 -13 90.89 27.8
0 10 13 89.99 19.8
11 -6 -13 159.58 24.9
11 -5 13 71.89 21.6
5 -11 -13 107.89 31.4
6 -11 13 99.79 25.5
-11 6 -13 79.29 25.7
-5 11 -13 108.39 22.9
6 5 -13 89.09 24
5 6 13 63.59 19.1
-6 11 -13 99.19 21.6
5 -11 13 57.39 23.6
6 5 13 67.49 18.9
11 -6 13 37.2 17.2
5 6 -13 63.69 22.4
6 -11 -13 72.19 30.8
-11 5 -13 90.09 27.5
-11 7 -13 108.09 24.8
7 -11 13 112.69 25.5
7 4 -13 77.39 23.6
4 7 13 137.39 22.6
-4 11 -13 110.19 23.9
11 -7 -13 185.48 28
11 -4 13 112.39 23.9
4 -11 -13 136.09 31.9
7 -11 -13 162.38 35.5
-11 4 -13 90.59 27.5
7 4 13 132.99 21.3
4 -11 13 115.49 26.7
-7 11 -13 85.29 19.7
11 -7 13 55.99 23.5
4 7 -13 87.39 22.1
7 -11 -13 96.79 26.3
3 -11 -13 -15.6 27.4
3 8 13 1.5 16.7
8 -11 13 6.2 21
11 -8 -13 29 22.4
-11 8 -13 17.3 20.9
11 -3 13 2.1 19.5
-3 11 -13 19.1 19.6
8 3 -13 3.3 18.8
8 -11 -13 -17.9 23.9
3 8 -13 -0.2 18.5
-11 3 -13 -8.2 24.8
11 -8 13 -19.2 21.9
3 -11 13 -6.1 22.2
-8 11 -13 11.8 17.7
8 -11 -13 -37.4 27.7
8 3 13 3.1 16.1
2 -11 -13 107.89 29.6
9 -11 13 126.29 26.4
11 -2 13 141.19 25.2
2 9 13 140.99 23.2
-2 11 -13 144.09 25
11 -9 -13 127.99 28.4
-11 9 -13 124.09 23.6
9 -11 -13 57.89 25.4
9 -11 -13 63.79 33.8
-2 11 13 91.59 19.8
2 9 -13 121.69 23.1
-11 2 -13 77.19 24
-9 11 -13 71.59 19.3
9 2 13 131.39 23.4
2 -11 13 70.39 25.2
11 -9 13 85.79 25.4
1 10 13 134.59 21.7
1 -11 -13 62.79 26.1
11 -10 -13 157.48 30.2
-11 10 -13 140.19 23.8
-1 11 -13 81.89 20.9
11 -1 13 146.69 23.7
10 -11 13 63.79 24
-11 1 -13 52.49 21.1
10 -11 -13 64.99 28.9
1 10 -13 94.09 21.5
-10 11 -13 78.99 19.9
10 -11 -13 38.5 24.4
1 -11 13 45.7 22.1
11 -10 13 35.9 22.7
-1 11 13 90.49 20.2
10 1 13 65.69 18.9
11 -11 -13 106.79 27.6
0 11 13 103.39 19.8
11 -11 -13 118.59 28.2
0 11 -13 65.29 19.1
11 0 13 78.69 19.5
11 -11 13 90.69 25.3
-11 11 -13 85.89 19
-11 0 -13 57.79 16.8
-12 6 -13 32.6 23.1
12 -6 13 12.7 19.7
6 -12 -13 -4.5 24.7
12 -6 -13 48.5 18.8
6 6 -13 44.3 21.1
6 6 13 10.1 15.7
-6 12 -13 46.8 20.8
6 -12 13 2.4 20.1
5 7 13 15.8 15.6
5 -12 -13 -0.2 23.8
7 -12 13 8.5 20.2
-12 7 -13 -2 19.8
12 -7 -13 27.5 19.3
7 5 -13 11.1 19.5
-5 12 -13 15.8 18.9
12 -5 13 21.8 19.3
5 7 -13 13.5 19.7
7 -12 -13 -10.6 17.4
7 -12 -13 -30 24.9
-12 5 -13 -11.3 23.2
7 5 13 4.9 14.7
12 -7 13 -3.3 12.7
-7 12 -13 24.9 19.4
5 -12 13 3.5 21.5
-4 12 -13 74.99 21
4 -12 -13 132.29 28.7
8 -12 13 68.49 22.7
12 -4 13 94.99 22.3
4 8 13 115.09 20.6
12 -8 -13 143.09 24.4
-12 8 -13 91.09 23.1
8 -12 -13 110.99 25.2
-8 12 -13 108.29 20.9
4 -12 13 61.29 24.1
4 8 -13 117.39 23.2
-12 4 -13 127.99 28.6
8 4 13 109.99 20.1
8 -12 -13 105.59 31.5
-3 12 -13 188.58 26
-12 9 -13 212.68 27.6
12 -3 13 148.99 24.2
3 9 13 170.58 23.3
3 -12 -13 191.58 33.1
9 -12 13 117.39 25.6
12 -9 -13 136.89 27.2
-12 3 -13 182.28 28.4
3 -12 13 104.29 24.8
9 -12 -13 99.19 31
12 -9 13 80.19 23.7
-3 12 13 131.89 21.4
9 -12 -13 111.69 24.9
2 10 13 65.49 18.2
2 -12 -13 26.5 23.8
-12 10 -13 46.3 19.6
10 -12 13 11.7 20.3
12 -2 13 29.1 18
12 -10 -13 63.79 24.7
-2 12 -13 31 17.9
2 10 -13 39.6 18.9
-2 12 13 31.7 16.7
10 -12 -13 7.4 22.2
2 -12 13 24.1 21.1
10 2 13 41.1 17.1
12 -10 13 21 21.4
10 -12 -13 28.7 29.6
-10 12 -13 35.7 17.4
-12 2 -13 22.4 20.1
1 11 13 132.69 20.5
-1 12 -13 57.99 18.5
11 -12 13 83.59 23.6
12 -1 13 74.89 19.1
1 -12 -13 117.09 27.1
-12 11 -13 99.09 20.5
12 -11 -13 117.09 27.3
11 1 13 61.79 17.6
12 -11 13 38.1 20.2
-11 12 -13 74.09 18.7
11 -12 -13 85.09 28
1 -12 13 16.6 17.4
1 11 -13 69.29 18.5
-1 12 13 120.99 19.6
-12 1 -13 77.89 19.7
11 -12 -13 31.2 22.5
-12 12 -13 88.49 18.3
0 12 13 84.69 17.3
0 12 -13 65.29 17.7
12 -12 -13 77.69 25
12 0 13 82.69 18.2
12 -12 13 68.89 22.1
13 -7 -13 20.5 17
-13 7 -13 -1 19.9
13 -6 13 12.5 20.1
-6 13 -13 13.5 18.4
6 -13 -13 -15.6 21.7
6 7 13 14.2 14.6
7 -13 13 -12.1 18.3
-13 6 -13 -2.9 21.2
-7 13 -13 4.6 18.6
7 -13 -13 -12.8 22.5
7 6 13 10 14.8
13 -7 13 1.6 17.3
6 -13 13 -26.1 18.8
6 7 -13 5.4 17.9
-13 8 -13 49.99 21.3
8 -13 13 24.2 19.6
5 8 13 54.69 16.8
13 -5 13 53.09 20.9
-5 13 -13 55.59 19.3
5 -13 -13 49.1 23.7
13 -8 -13 71.99 21.5
-13 5 -13 43.9 24.1
8 -13 -13 49.1 18.8
5 -13 13 23.6 20.2
5 8 -13 64.79 20.4
8 5 13 61.29 16.7
8 -13 -13 21.1 25.2
-8 13 -13 70.49 19.7
-13 9 -13 11.7 18.9
-4 13 -13 23.1 17.3
9 -13 13 14.4 18.7
13 -4 13 23.8 18.4
4 -13 -13 14.3 21
13 -9 -13 25.1 20.7
4 9 13 29.2 16
4 -13 13 12.6 20.6
4 9 -13 25.2 17.4
9 -13 -13 0.9 25.3
-9 13 -13 42.5 17.8
9 -13 -13 12.6 20.7
-4 13 13 37 16.3
-13 4 -13 8.9 23
9 4 13 22.6 16.2
13 -10 -13 56.79 23.1
-3 13 -13 57.89 18.3
10 -13 13 39.6 19.6
3 -13 -13 75.79 24.2
3 10 13 81.49 17.9
13 -3 13 41.4 17.4
-13 10 -13 52.69 19.4
3 10 -13 21.1 17.2
10 -13 -13 32.1 27.1
-3 13 13 33.4 16.2
-10 13 -13 34.6 16.8
-13 3 -13 72.59 22.2
10 -13 -13 14.9 20.3
10 3 13 38 15.6
13 -10 13 41.3 14.9
3 -13 13 20.4 20.1
13 -11 -13 17.1 21.8
-2 13 -13 30.3 16.2
2 11 13 49.6 16.2
11 -13 13 15.5 18.9
13 -2 13 32.8 16
2 -13 -13 46.9 21.2
-13 11 -13 33.5 17.3
-2 13 13 43.4 16.2
13 -11 13 31.4 18.3
11 2 13 19.9 15.5
2 11 -13 27.6 17.6
-13 2 -13 30.5 18.5
11 -13 -13 13.6 20.5
11 -13 -13 29 25.6
2 -13 13 -4.4 13.1
-11 13 -13 36.4 16
-13 12 -13 -4.9 13.8
13 -1 13 0.3 14.8
1 12 13 23.5 15.2
-1 13 -13 0.7 15.2
13 -12 -13 -27.5 20.1
12 -13 13 7.7 19.2
12 -13 -13 27.7 23
-1 13 13 17.7 15
1 12 -13 11.5 15.4
12 -13 -13 -39 18.7
12 1 13 1.6 14.1
-13 1 -13 16.4 15.3
-12 13 -13 2.9 14.1
13 -12 13 -5.6 18.1
13 0 13 66.59 16.4
0 13 13 69.49 16.8
13 -13 13 52.79 19.8
-13 13 -13 40 15.5
13 -13 -13 71.69 22.8
0 13 -13 72.19 16.9
-7 14 -13 9.4 17
7 7 13 7.6 13.5
7 -14 13 -15.6 17.4
-14 7 -13 -0.1 19.6
14 -7 13 2.9 18.2
7 -14 -13 -11.4 20.3
6 -14 -13 5.3 19.7
-14 8 -13 27.4 19.2
14 -6 13 8.6 18
-6 14 -13 26.7 17.3
14 -8 -13 27.8 16.8
8 -14 13 6.4 17.5
6 8 13 20.9 14
8 6 13 14.3 14.3
-8 14 -13 18.7 17.1
-14 6 -13 -0.2 21
6 -14 13 4.1 17.8
8 -14 -13 12.2 21.6
14 -8 13 -7.6 12.5
9 -14 13 -1.9 17
-14 9 -13 3.6 17.6
-5 14 -13 -7.8 16
5 9 13 10.7 14.3
14 -9 -13 2.1 18.4
5 -14 -13 -5.2 18.3
14 -5 13 6.4 18.5
-14 5 -13 -2.6 21.2
5 -14 13 -2.4 18
-9 14 -13 11.5 17.4
5 9 -13 15.6 16.4
9 -14 -13 4 15.7
-5 14 13 21.4 16
9 5 13 5.7 14.5
9 -14 -13 -12 22.2
4 -14 -13 40.1 21.5
4 10 13 47.9 15.6
14 -10 -13 40.4 20.1
10 -14 13 27 18.2
14 -4 13 50.39 18.5
-14 10 -13 41.2 18.2
-4 14 -13 59.09 18.6
10 -14 -13 -4.5 23.2
4 10 -13 27.1 16.7
4 -14 13 31.5 19.9
10 4 13 32.2 14.4
-14 4 -13 21.4 21.4
-4 14 13 38 15.8
10 -14 -13 6.4 18.3
-10 14 -13 23.7 16.7
11 -14 13 18.6 19
-3 14 -13 35 16.8
3 -14 -13 47.6 21.1
14 -3 13 44.8 17.7
14 -11 -13 32.3 20.6
-14 11 -13 29.8 17.1
3 11 13 38.6 15.5
3 11 -13 46.3 16.9
11 3 13 37.7 15.2
11 -14 -13 20.5 18.9
-14 3 -13 40.9 19.4
-11 14 -13 40.4 16
11 -14 -13 25.7 25.7
3 -14 13 14.3 14.3
-3 14 13 57.59 17.2
12 -14 13 29.4 18.9
14 -2 13 22.1 16.5
2 12 13 40.4 15.8
-2 14 -13 24.5 15.7
-14 12 -13 33.8 15.1
14 -12 -13 2.6 20.6
2 12 -13 24.6 15
-14 2 -13 33.7 17.2
12 -14 -13 35.8 23.5
12 -14 -13 31 18.5
-2 14 13 40.7 15.8
-12 14 -13 24.3 14.9
12 2 13 42.9 15.5
-14 13 -13 19.9 14.6
14 -13 -13 10.6 20.3
14 -1 13 17.9 15.9
-1 14 -13 29.9 15.2
13 -14 13 19.9 18.5
1 13 13 38.9 16
13 -14 -13 -12.4 18.3
14 -13 13 -11.5 13.8
-14 1 -13 5.8 11
-1 14 13 42.8 15.9
13 1 13 17.9 13.8
1 13 -13 21 15
-13 14 -13 11.2 13.4
0 14 13 16.9 15.2
-14 14 -13 2 11.8
0 14 -13 2.7 13.6
14 0 13 2.6 16.5
14 -14 13 -10 10.5
14 -14 -13 -6.5 18.8
7 -15 -13 10.3 19.2
-15 8 -13 1.4 18.6
8 -15 13 3.3 16.2
7 8 13 7.9 14.1
-7 15 -13 -0.7 15
15 -7 13 14.8 18
-15 7 -13 9.4 19.2
7 -15 13 3.4 16.9
8 7 13 31.4 14.7
15 -8 13 -3.8 13.3
8 -15 -13 14.3 19.9
-8 15 -13 24.3 16.1
6 -15 -13 20.1 17.9
6 9 13 24.3 14.2
15 -6 13 20.2 17.9
15 -9 -13 33.4 16.9
-6 15 -13 16 15
-15 9 -13 19.7 19.2
9 -15 13 31.8 17.3
9 -15 -13 6.1 21
9 6 13 0.1 13.2
-9 15 -13 -6 15
6 -15 13 2.9 16.7
-6 15 13 33.3 16.5
-15 6 -13 4.4 20
10 -15 13 43.7 18.2
5 -15 -13 50.89 20.3
15 -10 -13 41.4 19.7
-15 10 -13 41.9 17.2
-5 15 -13 35.5 15.5
5 10 13 46.2 14.4
15 -5 13 38.3 18.4
10 -15 -13 19.9 22
-10 15 -13 22 15.3
5 -15 13 16.8 16.6
-5 15 13 25.8 15.4
10 -15 -13 9.5 12.2
-15 5 -13 27.1 21
10 5 13 26.2 14.7
15 -4 13 12.2 16
11 -15 13 8.3 16.8
4 11 13 16.8 14.1
-4 15 -13 13.3 14.4
4 -15 -13 13.1 18.1
-15 11 -13 6.7 15.4
15 -11 -13 -6.2 18.8
11 -15 -13 -7.9 15.1
4 -15 13 -10.6 11.2
-11 15 -13 6.7 14.4
-15 4 -13 4.5 19.9
11 -15 -13 -10.3 23.3
11 4 13 6.1 13.8
-4 15 13 30.4 15.6
-15 12 -13 -2.6 14.8
3 12 13 22.3 14.9
3 -15 -13 21 17
15 -3 13 -6 14.9
15 -12 -13 -25.2 19
-3 15 -13 10.7 13.5
12 -15 13 3 17.5
-12 15 -13 15.9 11.6
12 -15 -13 18.2 23.2
12 3 13 12.4 14.3
12 -15 -13 25.1 16.4
-3 15 13 13.8 14.9
-15 3 -13 45.5 19.3
-15 13 -13 6 13.7
13 -15 13 10.5 17.2
-2 15 -13 3.5 10.7
15 -13 -13 -17.4 19.8
15 -2 13 4.6 15.6
2 13 13 20.7 14.1
13 -15 -13 -7.7 16.7
-15 2 -13 18 13.2
13 2 13 7.5 13.7
-2 15 13 23.8 16.2
-13 15 -13 1.5 9.8
15 -1 13 2.2 15.9
-15 14 -13 0.9 8.8
15 -14 -13 -25.8 19.3
1 14 13 -0.6 9
14 -15 13 -13.5 9.8
14 -15 -13 -20.8 18.5
14 1 13 -1.5 16.5
-1 15 13 4.2 12.3
-16 8 -13 -3.7 18.1
8 -16 -13 -6.9 17.7
8 8 13 -3.3 13.8
8 -16 13 1.1 15.1
16 -8 13 -3.7 12.4
7 -16 -13 0.3 16.8
7 9 13 4.1 14.8
16 -7 13 27.4 17.7
9 -16 13 34.8 16.2
-16 9 -13 18.3 18.1
9 -16 -13 4.8 19.1
7 -16 13 9.9 15.2
-16 7 -13 12.7 18.7
-7 16 13 28 16.8
9 7 13 23.1 14.5
10 -16 13 32.7 16.3
-16 10 -13 42.2 18
6 -16 -13 71.59 20.4
6 10 13 54.69 15.5
16 -6 13 46.1 18.6
-16 6 -13 73.49 21.7
-6 16 13 62.29 16.9
10 6 13 43 15.6
10 -16 -13 56.59 22.3
6 -16 13 43.8 15.7
11 -16 13 -5.8 15.5
-16 11 -13 5.4 16.3
5 11 13 5 12.9
16 -11 -13 -11.9 18.3
5 -16 -13 8.9 17.2
16 -5 13 2.3 17.5
11 5 13 2.2 14.3
-16 5 -13 25 19.5
5 -16 13 -13.1 9.9
11 -16 -13 -4.6 23.2
-5 16 13 4.3 16.2
4 -16 -13 57.89 16.6
16 -4 13 39.3 19.6
-16 12 -13 41.3 16.9
12 -16 13 31 17.4
16 -12 -13 25.4 21.7
12 4 13 28.7 15.8
12 -16 -13 8.7 10.1
12 -16 -13 59.29 24.7
-16 4 -13 36 19.6
-4 16 13 42.7 16
-16 13 -13 18.4 13.5
16 -3 13 6.8 19.2
13 -16 13 13.3 17.6
16 -13 -13 -17.5 21.1
-16 3 -13 9.2 12.3
13 -16 -13 19.6 16
-3 16 13 20.9 12.9
13 3 13 28.2 16.3
9 -17 13 -2.2 16.3
-17 9 -13 3.2 20.6
8 -17 -13 28.4 21.3
-17 8 -13 -9.3 19.9
-8 17 13 9.7 17.3
9 8 13 1.6 9.2
8 -17 13 22.9 16.3
9 -17 -13 18.2 21.9
17 -7 13 -1.7 13.9
-17 10 -13 14 19.9
10 -17 13 18.3 17
7 -17 -13 28.4 21
7 -17 13 3.9 13.3
10 -17 -13 18 22.7
-7 17 13 10.7 17.1
-17 7 -13 9.2 20.7
10 7 13 -3.6 9.2
-1 1 -14 3.6 25.3
-2 1 -14 3.1 16.8
-1 2 -14 9.5 22.6
0 2 -14 120.19 28.2
-2 2 -14 90.79 25.4
-1 3 -14 29.1 26.5
2 1 -14 5.8 27.5
-3 2 -14 35.8 23.2
1 2 14 2.7 20.6
-1 3 14 3.2 14.8
2 1 14 -5.7 15
-3 1 -14 2.2 16.5
-2 3 -14 42.3 23.1
1 2 -14 52.69 24.5
0 3 -14 -1.5 25
0 3 14 8 23.9
-3 3 -14 -3.3 22.7
3 0 14 -0.9 16.1
2 2 14 -3.6 25.1
2 2 -14 25.8 23.3
-2 4 -14 18.5 25.3
-4 2 -14 -0.4 23.2
-2 4 14 15.3 19.5
-2 -2 14 -4.8 24.3
1 3 14 41.3 26.5
-1 4 -14 35.3 26.5
3 1 -14 1.5 17.5
-1 -3 14 26.7 25.4
-4 3 -14 35.8 24.8
-3 -1 14 9.8 22.9
3 1 14 30.8 24.7
1 -4 14 28 24.9
-3 4 -14 26.4 23.6
-1 4 14 53.19 25.4
1 3 -14 8.9 23.5
-4 1 -14 2.4 16.6
-3 4 -14 -5.8 38.5
0 4 14 -23.7 24.3
-4 4 -14 -2.1 43.5
-4 4 -14 -13 23.5
0 -4 14 -32.7 24
0 4 -14 7.7 26.7
4 0 14 5.5 23.2
2 3 14 -1.2 25
3 -5 14 -40.1 21.2
-5 3 -14 16.1 23.7
-2 5 -14 10.8 23.7
3 2 -14 3.2 21.1
-2 -3 14 -6.4 22.8
3 -5 14 62.39 25.1
-3 5 14 -4 23.2
3 2 14 39.2 25.8
-3 -2 14 -16.8 22.1
-3 5 -14 38.8 22.9
2 3 -14 19.7 22.8
2 -5 14 -11.7 22.9
-2 5 14 23.2 24.8
-5 2 -14 34.5 24.4
2 -5 14 79.79 24.8
5 -1 14 48.3 20.2
-4 5 14 5.1 14.5
4 1 -14 -2.8 15.9
-1 5 -14 127.79 29.5
-1 -4 14 13.7 24.2
1 4 14 72.09 26.2
-5 4 -14 31.5 23.8
1 4 -14 51.99 26.2
4 1 14 44.7 25.6
-1 5 14 42.3 24.9
-4 5 -14 54.09 24
1 -5 14 63.39 22.9
-4 5 -14 -10.8 36.6
-5 1 -14 20.7 19.3
1 -5 14 -0.8 23.4
-5 5 -14 -1.4 36.1
-5 5 -14 12 22.3
0 5 14 10.9 22.8
0 5 -14 15.6 24.6
0 -5 14 -36.8 24.1
5 0 14 14.9 22.9
0 -5 14 37.7 23
5 -5 14 53.59 24.3
-3 6 -14 49.8 23
-6 3 -14 31.1 24.7
3 -6 14 65.79 25.4
3 3 -14 19.1 21.7
-3 6 14 14.5 23.9
3 3 14 42 25.2
-2 6 -14 2 23.6
-2 -4 14 -34.1 22.9
4 2 -14 1.1 20.7
-4 6 14 -2.2 22.8
-2 -4 14 19.7 24
4 -6 14 21.7 24.3
6 -2 14 -2.4 13.6
-6 4 -14 1.3 24.6
2 4 14 -6.9 22.8
2 -6 14 43.7 25.3
2 4 -14 32.9 24.7
4 2 14 -2.3 23.4
-4 6 -14 25.1 21.6
6 -4 14 46.8 28.2
-6 2 -14 17.4 23.5
-2 6 14 -16.7 22.7
1 5 14 -9.9 20.9
5 -6 14 13.2 24.1
6 -1 14 27.8 22.9
-1 -5 14 37.8 24.2
5 1 -14 -0.2 14.7
-6 5 -14 -6.8 22.2
-1 6 -14 25.8 24.7
1 -6 14 48.3 26
-1 6 14 -25.5 20.8
-6 1 -14 18.3 20.6
6 -5 14 45.1 24.1
-5 6 -14 20.1 21.1
1 5 -14 17.5 24.3
-5 6 -14 -6.7 33.7
5 1 14 1.8 23.2
-6 6 -14 -8 21.2
0 -6 14 43 25.9
6 -6 14 42.1 26.2
0 6 -14 35.2 24
0 6 14 -5.9 20.3
6 0 14 3.3 22.9
-6 6 -14 3.5 45.4
4 3 -14 63.29 24
-3 7 -14 81.89 25.4
-7 4 -14 101.79 27.9
3 4 14 61.89 23.4
-3 -4 14 63.19 23.2
-7 3 -14 55.49 25
-3 7 14 58.39 24.1
3 -7 14 117.69 27.2
3 4 -14 89.49 25.6
7 -4 14 115.09 28.2
4 3 14 91.29 24.8
-4 7 -14 72.89 22.7
-7 5 -14 -3 23.3
5 2 -14 24.9 20.4
-2 -5 14 37.6 26.4
2 5 14 -5.8 20.6
5 -7 14 52.09 25.1
7 -2 14 -0.9 21.7
-2 7 -14 33 24.6
7 -5 14 4.8 26.9
-5 7 -14 1.8 33.6
5 2 14 10.3 21.8
2 5 -14 4.3 22.5
-2 7 14 -14.2 20.5
2 -7 14 37.1 24.7
-5 7 -14 7.3 19.4
-7 2 -14 8.1 22.4
-1 7 -14 72.79 24.1
1 6 14 42.7 20.8
6 -7 14 170.68 29.4
-7 6 -14 95.69 25.6
7 -1 14 79.09 25.4
-1 -6 14 116.59 28
1 6 -14 140.49 28.6
7 -6 14 162.78 29.7
6 1 14 113.79 25.2
-7 1 -14 72.29 23.6
1 -7 14 167.38 30.1
6 -7 -14 118.39 27.4
-6 7 -14 141.29 26.1
7 -7 14 132.49 28.4
0 -7 14 114.89 28.2
0 7 -14 73.89 23.1
7 -7 -14 92.19 25.4
-7 7 -14 98.99 23.1
7 0 14 85.99 25
0 7 14 67.99 21.6
-4 8 -14 1.4 21.2
4 4 -14 4.9 20.7
8 -4 14 -2.8 26.1
4 -8 14 36.1 23.4
-8 4 -14 -14.1 24
4 4 14 -13.5 19.5
5 -8 14 43 22.9
-3 8 -14 32.9 22.2
8 -3 14 1.8 23
3 5 14 17.6 20.4
5 3 -14 9.5 20.7
-8 5 -14 26.5 23.7
8 -3 14 20.7 18.5
3 5 -14 15 22.5
-3 8 14 -34.3 18.5
-5 8 -14 24.1 20.6
5 3 14 11.9 19.9
3 -8 14 15.6 23.1
8 -5 14 12.1 27.2
-8 3 -14 -11.9 22.3
-2 8 -14 69.69 22.9
6 2 -14 27.4 20.2
6 -8 14 98.59 24.9
-2 -6 14 19.5 23.2
8 -2 14 48.7 26.6
8 -2 14 45.3 20.7
2 6 14 21.5 19.7
-8 6 -14 64.29 25
-6 8 -14 53.59 20.1
-8 2 -14 62.79 24.5
6 -8 -14 28.2 23.6
-2 8 14 29.3 20.4
2 -8 14 60.39 22.1
8 -6 14 96.79 28.7
2 6 -14 68.09 23.2
6 2 14 61.59 21.1
7 -8 14 34 21.5
-1 -7 14 -3.9 20.3
-1 8 -14 39.1 21
8 -1 14 25.3 22.1
8 -7 -14 9.4 23.3
7 1 -14 -4 14
-8 7 -14 26.8 20.9
1 7 14 -17.6 17.2
7 1 14 13.4 21.2
-1 8 14 5 18.3
1 7 -14 32.1 21.4
1 -8 14 8.6 21.3
-7 8 -14 12.1 18.4
-8 1 -14 11.6 19.4
7 -8 -14 -11.4 24.1
8 -7 14 32.8 25
8 -8 -14 33.3 25.4
8 0 14 75.69 23.6
0 -8 14 50.29 22.8
0 8 14 15.2 17.3
-8 8 -14 41.5 19.3
8 -8 14 43.5 22.5
0 8 -14 97.19 23.4
4 5 14 -14.4 17
5 -9 14 4.8 20.9
9 -4 14 -5.6 24.1
5 4 -14 8.2 19.9
-4 9 -14 9.9 20.3
-9 5 -14 -23 21.8
9 -4 14 -2.5 14.6
4 -9 14 -10.5 20.4
-5 9 -14 7.6 20.1
-9 4 -14 2 23.3
5 4 14 1 18
-4 9 14 -42.7 17.7
4 5 -14 4.3 20.9
9 -5 14 -0.6 23.8
6 -9 14 34.2 21.8
9 -3 14 -42.8 22.7
-3 9 -14 13.8 19.8
-9 6 -14 28.1 22.9
6 3 -14 12.8 19.9
9 -3 14 7 19.2
3 6 14 -9.4 16.9
-3 9 14 -28.2 17.2
3 6 -14 3.3 20
-6 9 -14 10.9 18.8
6 -9 -14 -43.5 21.9
3 -9 14 -5.6 21
9 -6 14 -3.4 23.2
-9 3 -14 -27.8 21.2
6 3 14 7.9 17.9
2 7 14 9.6 17.5
9 -7 -14 31.5 21.3
9 -2 14 17.4 19.9
7 2 -14 -2.1 18.7
-9 7 -14 37.8 21.6
7 -9 14 26.5 21.7
-2 9 -14 15.7 18.9
7 -9 -14 -6.4 23
-2 9 14 8.3 18.1
9 -7 14 32.9 23.9
-7 9 -14 27.7 17.2
-9 2 -14 12.7 21.5
7 2 14 14.4 18.5
2 7 -14 18.7 20.3
2 -9 14 0.6 21.9
8 -9 14 33.7 22.6
-1 9 -14 60.89 21.1
1 8 14 16.9 16.6
-9 8 -14 36.5 18.9
9 -1 14 56.99 19.6
9 -8 -14 45.9 24.8
1 8 -14 45.9 20.6
9 -8 14 35.1 23.7
-8 9 -14 51.09 19
8 1 14 43 21.2
-9 1 -14 26.4 19
1 -9 14 20.3 21.9
-1 9 14 6.5 16.5
8 -9 -14 12 24.3
9 -9 -14 -24.5 22
0 9 14 25.2 16.2
0 9 -14 41.1 18.8
0 -9 14 -6.9 19.8
-9 9 -14 31.1 18.5
9 0 14 24.9 18.2
9 -9 14 14.2 22.5
5 -10 14 -0.2 20.9
-5 10 -14 9.4 19.3
-10 5 -14 -12 21.5
5 5 14 -4.7 16
5 5 -14 15.8 20.3
10 -5 14 -8.5 11.9
10 -5 14 -33.3 21.1
4 6 14 0.4 16.2
-4 10 -14 27.4 18.8
-10 6 -14 27 22.2
6 -10 14 -4.5 20.3
10 -4 14 5.3 17.9
6 4 -14 -8.3 19.5
6 4 14 17.4 17.1
-4 10 14 1.4 17.4
-10 4 -14 10.2 23.4
4 -10 14 1.4 21.1
10 -6 14 11.5 20.7
-6 10 -14 26.9 19.3
6 -10 -14 -3.1 15.7
4 6 -14 25.3 20.6
10 -7 -14 43.8 21.2
-3 10 -14 49.3 20
-10 7 -14 37.7 21.4
7 3 -14 43.2 20.7
7 -10 14 61.99 22.4
3 7 14 54.39 18.2
10 -3 14 74.59 21.3
-7 10 -14 36.7 17.8
3 -10 14 28.3 22.1
-3 10 14 30.5 17.8
7 -10 -14 -2.9 21
-10 3 -14 33.5 22.2
7 3 14 38.1 17.5
3 7 -14 52.49 20.1
10 -7 14 36.7 23.3
8 -10 14 -14.6 20.3
-2 10 -14 8.1 18.5
10 -8 -14 7 22.4
2 8 14 1.3 15.5
-10 8 -14 14.6 19.2
10 -2 14 9.2 19.2
10 -8 14 20.7 22.8
8 -10 -14 -17.2 21.9
-2 10 14 11 16.6
8 2 14 6.3 18.3
2 8 -14 7.5 17.9
2 -10 14 9.3 20.6
-8 10 -14 20.9 17
-10 2 -14 9.2 19.7
-1 10 -14 41.8 17.5
10 -9 -14 -6.2 21.6
10 -1 14 25.2 19
1 9 14 41.6 16.7
-10 9 -14 51.79 18.8
9 -10 14 34 22.2
-10 1 -14 21.6 16.5
-1 10 14 36.7 16.6
9 -10 -14 -15.8 21.5
1 -10 14 1.6 19.7
10 -9 14 30.5 23.9
9 1 14 23.4 17.3
1 9 -14 33.9 18.4
-9 10 -14 25.2 17.2
-10 10 -14 55.79 17.9
10 -10 -14 -32.4 20.6
10 0 14 22.9 16.8
0 10 14 36.2 15.8
0 10 -14 42.4 18.4
10 -10 14 -10.5 21
0 -10 14 26.9 16.4
6 -11 14 2.7 19.5
5 6 14 30.4 15.7
11 -5 14 19.8 16.3
5 -11 -14 -7.2 28.3
-11 6 -14 16.8 21.1
6 5 -14 40.6 20.6
-5 11 -14 30.1 18.1
-11 5 -14 22.9 21.5
6 5 14 27.8 15.2
5 6 -14 26.5 19.3
-6 11 -14 31.8 18.8
6 -11 -14 -6.2 28.6
5 -11 14 22 20.3
-5 11 14 17.9 17.5
4 7 14 -6.3 14.2
-4 11 -14 -0.7 16.6
7 -11 14 9.3 19.6
-11 7 -14 -5 19.9
7 4 -14 13.3 18.7
11 -4 14 13 18.1
7 -11 -14 -50.99 28.2
7 -11 -14 -18.5 17
4 7 -14 6.4 18.6
-4 11 14 -3.1 15.1
-7 11 -14 14.2 17.8
-11 4 -14 8.3 21.8
7 4 14 13.7 15.3
4 -11 14 -4.6 19
11 -7 14 4.8 20.5
11 -3 14 41.3 19.4
3 8 14 54.29 16.6
8 -11 14 36.1 20.9
11 -8 -14 55.09 20.7
-3 11 -14 48 19.3
-11 8 -14 92.49 22.2
8 3 14 53.19 18
3 -11 14 16.2 20.4
-11 3 -14 27.8 20.1
-8 11 -14 69.49 19.1
-3 11 14 53.09 16.8
11 -8 14 26.7 21.8
3 8 -14 65.09 20.3
8 -11 -14 2.7 20.5
-2 11 -14 45.6 17.8
-11 9 -14 43.2 18
2 9 14 60.49 16.8
11 -2 14 19.8 18
9 -11 14 22.4 20.2
11 -9 -14 41.6 23.2
9 2 14 25.1 16
-9 11 -14 28.8 15.7
-11 2 -14 21.6 18.5
9 -11 -14 -13.1 20.9
2 9 -14 36.6 17.4
11 -9 14 19.1 20.6
2 -11 14 -1.4 18.9
-2 11 14 29.8 15.3
-1 11 -14 4.8 15.3
-11 10 -14 -0.8 15.7
1 10 14 8.7 14.4
10 -11 14 -7.9 19.7
11 -1 14 3.8 15.9
11 -10 -14 -31.6 20.2
10 -11 -14 -45 19.2
-10 11 -14 18.2 15.1
1 -11 14 21.9 12.2
11 -10 14 8.3 20
1 10 -14 16.2 16.9
10 1 14 18.1 16.2
-11 1 -14 3.6 13
-1 11 14 8.8 13.9
11 -11 14 -10.9 19.7
-11 11 -14 4.3 14.3
11 -11 -14 -40.4 19.1
11 0 14 8.4 15.1
0 11 14 9.3 14.5
0 11 -14 -5.5 15.3
12 -6 14 -7.6 15.7
-6 12 -14 12.8 16.1
6 -12 14 -5.9 18
-12 6 -14 8.4 20.3
6 -12 -14 -30.2 26.2
6 6 -14 12 18.5
6 6 14 12.6 13.5
7 -12 14 33.4 19.1
-5 12 -14 53.39 16.8
5 -12 -14 56.19 28.3
-12 7 -14 66.39 21.8
5 7 14 44.3 14.9
12 -5 14 64.49 19.5
5 -12 14 15.1 18.5
-7 12 -14 61.99 19.2
7 5 14 55.99 16
-12 5 -14 57.39 22.3
7 -12 -14 11.4 28.5
5 7 -14 58.39 19.2
-5 12 14 63.89 17.4
12 -4 14 65.49 19.3
-4 12 -14 59.89 18.7
-12 8 -14 77.49 22.2
4 8 14 83.79 17.1
8 -12 14 50.49 20.2
4 8 -14 39.4 18.4
8 -12 -14 -13.5 28.6
-4 12 14 41.5 15.6
-8 12 -14 24.7 17.3
8 4 14 44.6 16.4
-12 4 -14 32 20.7
8 -12 -14 11.6 17.4
12 -8 14 17.4 16.9
4 -12 14 28.2 18.9
3 9 14 17.5 14
-12 9 -14 6.1 17.4
12 -9 -14 -15 18
12 -3 14 -8.7 15.9
-3 12 -14 -3.3 14.6
9 -12 14 -9.6 18.2
-3 12 14 3.9 14
12 -9 14 17.5 16.8
3 -12 14 10.1 18.3
9 -12 -14 -11.9 18.4
9 3 14 -0.6 13.9
3 9 -14 8.5 16.9
-9 12 -14 1.2 15.4
-12 3 -14 19.1 17.7
-12 10 -14 42.7 16.9
-2 12 -14 40.1 16
2 10 14 46.2 16
10 -12 14 14.2 18.9
12 -2 14 28.9 16.2
12 -10 -14 25.8 22.2
10 -12 -14 -20.6 18.2
-10 12 -14 10.2 14.6
-12 2 -14 21.6 16.5
10 2 14 4.4 14.6
-2 12 14 33.5 14.9
2 -12 14 13.5 13.8
12 -10 14 2.9 18.3
2 10 -14 23 17.2
12 -11 -14 -7.6 19.3
11 -12 14 25.7 19.2
-1 12 -14 31.6 15.9
12 -1 14 28.1 15.9
1 11 14 33 14.5
-12 11 -14 42.4 15.8
11 -12 -14 -15.9 18.6
-1 12 14 26.6 14.6
12 -11 14 17.3 18.7
-11 12 -14 9.3 14.4
11 1 14 9.3 14.3
1 11 -14 24.2 15.7
12 0 14 7.3 14.7
12 -12 -14 -41.5 18
-12 12 -14 8.9 13.5
0 12 14 0.1 14.1
0 12 -14 3.6 14.7
12 -12 14 5.2 18.9
6 -13 -14 10.8 24.3
7 -13 14 20.1 17.7
6 7 14 27 13.7
13 -6 14 -6.9 12.8
-6 13 -14 34.8 16
-13 7 -14 22.9 20
-7 13 -14 17.9 15.8
7 -13 -14 -21.8 23.6
-6 13 14 18.6 14.5
-13 6 -14 5.5 19.4
6 -13 14 5.4 17.5
7 6 14 26.3 14.3
5 8 14 9.2 12.8
-5 13 -14 -0.9 14.9
8 -13 14 -1.7 16.8
-13 8 -14 -1.2 18.1
5 -13 -14 -9.6 21.7
13 -5 14 5.8 17.6
5 8 -14 -2 17.8
-8 13 -14 12.4 15.2
-13 5 -14 -2.3 19.7
8 -13 -14 -41.2 24.8
8 5 14 -5.2 13.8
5 -13 14 -11.6 16.4
-5 13 14 16 14.5
-13 9 -14 141.89 23.4
4 9 14 175.58 24.4
9 -13 14 138.69 22.4
13 -4 14 147.29 22.3
-4 13 -14 129.29 20.1
-13 4 -14 93.99 22.1
-9 13 -14 108.79 19.4
4 9 -14 105.89 20
9 4 14 87.49 16.4
4 -13 14 92.19 20
-4 13 14 130.59 18.6
10 -13 14 31.7 18.2
-13 10 -14 42.8 17.2
3 10 14 47.6 15
13 -3 14 36.5 17.8
-3 13 -14 34.1 15.7
13 -10 -14 25.2 19
3 -13 14 -1.3 13.3
10 -13 -14 -6.3 15.8
-13 3 -14 2.4 16.3
10 3 14 12.8 14
3 10 -14 21.6 15.7
-10 13 -14 18.8 15.5
-3 13 14 35.6 14.6
-13 11 -14 -2.1 15
13 -11 -14 -42 19.3
-2 13 -14 9.2 14.2
11 -13 14 -6.6 18.7
2 11 14 16.1 14.1
13 -2 14 -4.3 15.5
-11 13 -14 -4.3 14.3
-2 13 14 10.2 14.6
2 11 -14 15 15
-13 2 -14 4 10.3
11 2 14 0.7 13.7
11 -13 -14 -23.6 16.1
-13 12 -14 29.9 15.2
12 -13 14 40.1 20.3
1 12 14 47.6 16.4
13 -12 -14 1.3 20.3
13 -1 14 41.8 16.8
-1 13 -14 51.49 16.1
12 1 14 32 15.3
-12 13 -14 18.2 15.2
12 -13 -14 -29.5 16.9
-1 13 14 23.8 15.3
13 -12 14 -2.5 14.1
1 12 -14 12.8 15
0 13 14 11 16.2
13 -13 -14 -35.9 19.2
-13 13 -14 3.9 15
0 13 -14 4.3 15.2
13 0 14 2.2 17
13 -13 14 -11.4 11
-7 14 -14 18.6 15.3
-14 7 -14 -8.7 18.8
7 -14 14 5.2 16.8
-7 14 14 1.8 13.6
7 -14 -14 -7.6 22.1
7 7 14 19.4 14.9
6 -14 -14 23 21.1
-14 8 -14 55.99 20.6
8 -14 14 41.8 18.1
-6 14 -14 31.1 14.9
6 8 14 45.9 14.9
-6 14 14 79.79 17.1
-14 6 -14 50.19 21.2
8 6 14 47.8 15.2
-8 14 -14 61.89 16.2
6 -14 14 74.59 18.3
8 -14 -14 71.09 26.9
14 -5 14 49.8 17.6
9 -14 14 66.19 18.8
-5 14 -14 54.89 16.1
5 9 14 72.09 16
-14 9 -14 77.69 20.6
-5 14 14 57.19 16
-9 14 -14 45.9 15.9
9 5 14 44.2 15.2
5 -14 14 54.19 16.8
-14 5 -14 60.69 21.2
9 -14 -14 12.2 25.9
-4 14 -14 47.5 15.1
4 10 14 37.1 14.6
-14 10 -14 48.8 17.6
14 -4 14 53.19 17.8
10 -14 14 64.19 20
10 4 14 38.3 15.4
-4 14 14 53.49 16.4
-14 4 -14 79.09 21.1
-10 14 -14 41.1 15.9
-3 14 -14 16.4 14.6
11 -14 14 5.2 18.9
14 -3 14 23.6 16.5
-14 11 -14 19.9 16.2
3 11 14 35 15.5
14 -11 -14 -10.3 18.7
-14 3 -14 6.1 13.5
-3 14 14 18.8 15.2
-11 14 -14 12.2 15.5
11 -14 -14 3.7 12.4
11 3 14 1.8 14.9
12 -14 14 44.5 19.8
2 12 14 43.6 15.6
14 -12 -14 23.8 20.6
14 -2 14 47.7 19.2
-2 14 -14 40.4 15.7
-14 12 -14 37.4 15.8
12 2 14 10.4 14.6
-2 14 14 31.7 16.8
12 -14 -14 -3.5 15.7
-12 14 -14 28 15
7 8 14 46.4 16.2
8 -15 14 27.3 17.1
-15 8 -14 21.3 20.9
-8 15 14 40 15.9
-7 15 -14 -0.4 9.8
7 -15 14 35.9 17.3
8 7 14 28.8 14.6
-15 7 -14 65.59 21.4
-8 15 -14 8.8 9.7
-7 15 14 51.59 16.9
-15 9 -14 16.5 20
6 9 14 18.4 16.1
-9 15 14 39.6 16.6
9 -15 14 14 16.8
-6 15 -14 4.7 9.4
9 6 14 18.3 15.3
6 -15 14 17.5 15.3
-6 15 14 18.5 15.7
-15 6 -14 43.7 22.1
-9 15 -14 2.4 9.6
5 10 14 70.49 17
10 -15 14 85.19 20.3
-15 10 -14 64.59 20.2
15 -5 14 55.09 16.5
10 5 14 89.59 17.4
-5 15 14 75.29 17.3
-15 5 -14 76.39 22.2
11 -15 14 63.19 19.3
-1 2 -15 39.6 24.7
0 2 -15 -1.9 20.9
-2 2 -15 32.4 23.2
-3 2 -15 -22.1 20.5
-1 3 -15 -16.7 23.7
1 2 15 0.7 14.8
-2 3 -15 30.7 24.8
1 2 -15 -7.8 20.7
0 3 15 -9.6 18.3
0 3 -15 4.3 22.8
-3 3 -15 -3.2 22
-2 4 -15 -5.7 23.8
-2 4 15 4.2 15.2
-4 2 -15 15.1 20.2
2 2 -15 0.3 19.6
2 2 15 -4.8 21.6
2 -4 15 16.5 22.1
-1 4 -15 124.29 26.8
-4 3 -15 60.59 22.7
1 3 15 87.89 25.9
-3 4 -15 100.69 26.3
3 1 15 86.99 21.6
1 3 -15 149.39 29
-1 4 15 118.69 25.8
1 -4 15 177.38 25.5
0 -4 15 100.19 23.2
0 4 15 79.69 26.4
-4 4 -15 36.2 23.6
0 4 -15 29.2 22.9
4 -4 15 156.38 26.6
-5 3 -15 63.39 22.9
2 3 15 59.99 24.6
3 -5 15 117.89 25.7
-2 5 -15 85.39 27
3 2 -15 53.89 21
-2 -3 15 117.49 24.7
-3 5 -15 56.99 26.2
5 -3 15 124.09 29.1
2 -5 15 114.79 25.1
3 2 15 72.59 24.6
-5 2 -15 49.5 20.7
-2 5 15 34.4 22.9
2 3 -15 46.5 22.9
-5 4 -15 26.8 21.9
1 4 15 69.99 25.3
-1 5 -15 32.4 24.2
4 -5 15 110.89 26.1
-1 -4 15 78.09 22.8
5 -4 15 119.99 25.9
-5 1 -15 2.5 22.7
4 1 15 59.29 22.5
1 4 -15 29.7 22.9
-4 5 -15 51.69 23.8
-1 5 15 40.5 23.8
1 -5 15 85.09 24.3
-5 5 -15 69.09 23.7
0 5 -15 125.49 27.5
0 5 15 86.79 25.5
5 0 15 89.59 24
5 -5 15 170.98 28.3
0 -5 15 150.28 26.8
-6 3 -15 4.7 21.1
3 -6 15 23.2 22.7
3 3 15 -17.7 21.6
-3 6 -15 5 22.8
-3 -3 15 12.4 19.6
6 -3 15 13.7 23.7
3 3 -15 -9.4 20.6
-3 6 15 3.9 21
-2 6 -15 254.87 38.4
-4 6 15 158.48 25.6
-2 -4 15 285.87 38.8
-6 4 -15 186.08 28.7
2 4 15 194.18 28.2
4 2 -15 148.79 24.7
4 2 15 228.38 30.4
2 -6 15 296.17 40.8
2 4 -15 200.98 30.6
-6 2 -15 229.98 35.7
-2 6 15 220.58 30.3
-4 6 -15 298.17 34.2
-4 -2 15 217.48 28.1
-1 -5 15 106.69 24.7
-1 6 -15 51.19 22.9
-6 5 -15 88.19 24.2
6 -1 15 60.79 20
1 5 15 60.99 23
-1 6 15 69.79 22.8
-5 6 -15 82.89 23.8
5 1 15 119.99 25.2
1 5 -15 105.79 26.4
6 -5 15 175.28 29.2
1 -6 15 148.49 26.5
0 6 -15 1.8 20.7
6 -6 15 35.1 23.9
6 0 15 10.6 21.6
0 6 15 -19.7 19.3
0 -6 15 17.4 22.7
-6 6 -15 11.9 20.5
-3 -4 15 92.49 23.2
-4 7 15 155.78 26.2
4 -7 15 225.88 28.1
4 3 -15 135.69 25.5
7 -3 15 263.07 40.6
-7 4 -15 102.89 26
-3 7 -15 216.38 30.1
3 4 15 182.18 27
-3 7 15 101.59 24.1
3 4 -15 143.89 26.8
-7 3 -15 131.69 25.8
3 -7 15 207.88 27.7
-4 7 -15 225.98 30.1
4 3 15 156.28 26.1
5 2 -15 5.7 16.5
-2 -5 15 32.7 22
5 -7 15 49.1 22.3
-5 7 15 9.5 19.6
-7 5 -15 19.5 21.5
-2 7 -15 30.3 20.8
2 5 15 8.2 19.9
7 -2 15 14.8 21.7
7 -2 15 -4.7 11.8
2 5 -15 42.7 23
-7 2 -15 47 19.6
5 2 15 56.79 21.4
2 -7 15 75.99 22.9
-2 7 15 1.4 19.1
-5 7 -15 49.1 21.5
7 -5 15 79.49 26.6
7 -1 15 348.87 38.5
-7 6 -15 317.67 40
1 6 15 236.08 38.2
-1 7 -15 369.26 42.8
-1 -6 15 338.97 40.7
7 -1 15 385.56 45.4
6 -7 15 379.46 41.9
-6 7 -15 408.76 44.1
6 1 15 360.16 42.7
1 6 -15 404.46 43.6
1 -7 15 362.06 39.9
7 -6 15 478.85 47.3
0 -7 15 66.99 21.1
-7 7 -15 35.1 19.1
7 -7 15 67.39 21.9
0 7 -15 42.3 20.2
0 7 15 8.6 18.5
7 0 15 60.29 21.5
-8 4 -15 9.3 19.7
8 -4 15 8.9 23.5
4 -8 15 14.5 19.6
-4 8 15 -37.9 17.3
4 4 -15 -1 19.5
4 4 15 -16.6 17.6
-4 8 -15 4.4 20.1
-8 5 -15 208.08 29.2
5 3 -15 150.28 26.6
8 -3 15 133.19 28.5
3 5 15 188.98 25.5
-3 8 -15 158.08 26.3
5 -8 15 226.98 28.5
5 3 15 196.98 31.1
-8 3 -15 146.19 26.2
-5 8 -15 273.87 30.7
3 -8 15 185.08 26.6
3 5 -15 173.38 27.6
8 -5 15 267.57 42.7
6 -8 15 128.59 24.1
8 -2 15 104.09 20.8
8 -2 15 120.79 26.1
-6 8 15 51.99 20.3
2 6 15 83.29 20.8
-8 6 -15 117.79 23.8
6 2 15 117.39 22.6
2 -8 15 111.09 22.7
2 6 -15 99.39 23.3
8 -6 15 136.99 27.5
-8 2 -15 71.99 20.5
-6 8 -15 187.48 26.2
7 -8 15 104.19 23.4
8 -1 15 69.69 20.4
-1 -7 15 51.49 19.1
-8 7 -15 78.09 20.2
1 7 15 58.09 18.8
-1 8 -15 95.49 21.8
7 1 15 116.59 23
-7 8 -15 149.59 24.6
1 7 -15 156.28 25.3
8 -7 15 157.08 27.5
1 -8 15 86.49 22.2
-1 8 15 86.09 20.6
8 -8 15 171.88 27.3
0 8 -15 211.88 25.9
0 -8 15 123.89 22.7
8 0 15 134.99 21.9
0 8 15 96.19 20.3
-8 8 -15 159.78 23.9
4 5 15 104.09 20.1
5 -9 15 144.79 23.5
-9 5 -15 85.89 22.8
-4 9 -15 103.49 21.4
9 -4 15 107.99 24.7
5 4 -15 91.29 21.9
5 4 15 119.49 20.4
4 5 -15 144.19 25.1
4 -9 15 127.89 23.4
9 -5 15 102.29 23.9
-5 9 -15 133.99 23.1
-9 4 -15 55.49 21.5
3 6 15 -9.9 15
6 -9 15 8.8 19.2
-3 9 -15 -6.8 16.6
-6 9 15 -38.1 15.7
6 3 -15 -25.6 17.3
-9 6 -15 4.1 19.2
9 -3 15 -7.6 10.9
-6 9 -15 15.4 19.2
3 -9 15 -7.1 18
-3 9 15 -12.7 15
6 3 15 -5.6 15.8
3 6 -15 2.2 18.9
9 -6 15 -1.5 20.4
-9 3 -15 15.7 18.7
-2 9 -15 217.28 26.5
-9 7 -15 217.98 32.9
7 -9 15 163.68 26.3
9 -2 15 196.98 31
2 7 15 145.79 22.6
-9 2 -15 123.59 21.6
9 -7 15 247.78 29.9
2 7 -15 198.78 31.3
7 2 15 213.08 32.1
2 -9 15 180.08 25.1
-7 9 -15 218.58 32.2
-2 9 15 117.19 21.5
9 -1 15 91.39 20.7
-1 9 -15 109.09 21
-9 8 -15 120.19 20.9
1 8 15 52.19 16.5
8 -9 15 85.39 22.9
1 -9 15 73.09 20.3
8 1 15 100.29 18.7
1 8 -15 100.59 21
-8 9 -15 150.28 23.1
-1 9 15 86.89 18.3
9 -8 15 74.49 23.4
9 0 15 -0.2 16
0 9 -15 5 16.4
-9 9 -15 5.9 16
9 -9 15 -5.6 19.9
0 9 15 7.8 14.8
5 5 -15 -7.8 18.8
5 -10 15 0.6 18
-5 10 15 -16.3 14.8
-10 5 -15 -22.6 19.1
-5 10 -15 -0.8 15.9
5 5 15 -12.3 13.2
-10 6 -15 -10.6 18.9
-4 10 -15 14.5 16.5
6 4 -15 -8.8 17.8
-6 10 15 -13.3 15.2
6 -10 15 1 18.6
4 6 15 -15 13.4
4 6 -15 -1.2 18.7
4 -10 15 5.5 17.3
6 4 15 5.3 14.6
-6 10 -15 10.9 17.6
-4 10 15 -6.6 14.5
-10 4 -15 -17.8 17.7
10 -6 15 -13 19.3
-10 7 -15 12.1 18.5
3 7 15 -11.7 13.4
-3 10 -15 6.3 16.2
10 -3 15 -6.6 14.7
7 -10 15 14.1 19.4
3 7 -15 47.9 20.4
-7 10 -15 32.3 18.5
3 -10 15 25.8 17.9
7 3 15 17.5 16
-3 10 15 24.8 15.1
-10 3 -15 6.4 18
10 -7 15 18.4 21
-10 8 -15 -11.8 16.6
10 -2 15 16.9 16.9
-2 10 -15 11.5 15.4
2 8 15 -4.9 13.8
8 -10 15 -15.7 17.5
10 -8 15 -6 20.7
2 8 -15 -2.2 17.6
2 -10 15 13.9 16.6
-2 10 15 0.5 13.9
-8 10 -15 7.2 16.8
-10 2 -15 3.3 14.7
8 2 15 -1.5 14.3
-1 10 -15 56.89 17.5
10 -1 15 50.39 17.5
1 9 15 62.79 16.3
-10 9 -15 69.19 18.9
9 -10 15 48.1 21.2
10 -9 15 19.6 19.7
9 1 15 38 16.4
-1 10 15 62.79 16.3
-9 10 -15 90.79 19.2
1 9 -15 43.5 17.7
1 -10 15 28.6 10.9
10 -10 15 91.39 21.9
0 10 -15 128.19 19.9
0 10 15 85.29 17.6
10 0 15 72.99 17.6
-10 10 -15 87.09 18.2
5 6 15 5 13.9
-5 11 -15 16.2 16.5
6 -11 15 -2.4 16.6
-11 6 -15 -6.7 18.6
-6 11 15 14.5 14.4
6 5 15 -1.8 13.4
-5 11 15 -1.3 14.2
-6 11 -15 19.6 16
-11 5 -15 3.1 19.1
5 -11 15 -9.4 16.1
5 6 -15 -3.5 18
-4 11 -15 -1.5 15.6
4 7 15 11.6 12.8
7 -11 15 -1.6 17.4
-11 7 -15 -1.6 17.4
-7 11 15 -8.1 13.6
-4 11 15 11.1 13.8
4 7 -15 -15.7 17.6
4 -11 15 -3.8 16.3
-7 11 -15 5.1 16.2
-11 4 -15 1.2 18.4
7 4 15 -2 13.7
11 -7 15 -5 20.2
11 -3 15 2.5 14.8
-11 8 -15 7.1 18.6
3 8 15 5.3 13
8 -11 15 -9.8 17.5
-3 11 -15 -1.6 14.2
-8 11 15 -5.4 13.4
-8 11 -15 6 16.6
3 8 -15 2 17.6
-3 11 15 11.8 13.8
11 -8 15 21.5 16
3 -11 15 -9.3 15.3
8 3 15 7.4 13.4
-11 3 -15 3.2 16.1
-2 11 -15 21.2 15.5
11 -2 15 11.1 15.1
-9 11 15 -1.6 11.8
2 9 15 37.1 14.6
9 -11 15 10.3 18.6
-11 9 -15 19.7 16.6
11 -9 15 21.9 18.8
-9 11 -15 33.3 17.4
-2 11 15 24.1 14.2
9 2 15 6.4 14.3
2 9 -15 25.6 16.8
2 -11 15 18 10
-11 10 -15 28.7 16.7
10 -11 15 27.8 20
-1 11 -15 33.7 16.1
1 10 15 31.3 14.6
11 -1 15 23.8 14.9
1 10 -15 22.6 17.2
-10 11 -15 14 16.6
11 -10 15 20.1 20.3
10 1 15 17.2 14.7
-1 11 15 41.5 15.7
-11 11 -15 12.8 16.2
0 11 15 15 15.5
0 11 -15 4.2 16.5
11 0 15 -3.8 14.9
11 -11 15 1.8 20.7
-12 6 -15 15.1 19.9
6 -12 15 13.7 16.3
-6 12 -15 13.6 15.4
6 6 15 12.2 13.6
-6 12 15 21.3 14.5
-12 7 -15 -15.5 18.3
-5 12 -15 -4.4 14.5
7 -12 15 5.3 16.9
5 7 15 8.1 13
-7 12 15 11.2 13.8
-5 12 15 18.5 14.5
-7 12 -15 1.1 15.5
5 -12 15 5.4 16
-12 5 -15 7.6 19.6
7 5 15 -2.8 13.7
4 8 15 10.1 13.6
8 -12 15 4.8 17.7
-12 8 -15 -2.7 18.4
-4 12 -15 4.7 14.4
-8 12 15 11.1 13.5
8 4 15 -1 12.9
4 -12 15 -0.6 15.7
4 8 -15 0.3 18.4
-4 12 15 11.9 14.1
-8 12 -15 9.5 15.6
-12 4 -15 12.2 17.9
-9 12 15 10.1 12.2
12 -3 15 16.4 14.3
-3 12 -15 13.7 15.5
9 -12 15 -10.7 18.1
3 9 15 5.4 13.8
-12 9 -15 -3 17.8
-3 12 15 1.5 14.5
-12 3 -15 1.9 15.1
-9 12 -15 2.1 16.9
3 9 -15 9 17.2
3 -12 15 -2.8 10.1
9 3 15 -6.1 14.3
2 10 15 10.8 15.6
-2 12 -15 15.2 16
12 -2 15 0.7 16
10 -12 15 3.4 19.6
-12 10 -15 11.6 17.3
-10 12 -15 15.7 18.2
10 2 15 2.6 15.4
-2 12 15 13.7 15.9
2 10 -15 8.7 17.5
-1 12 -15 37.9 18.1
-12 11 -15 38 18.9
11 -12 15 33.1 21.9
12 -1 15 15.8 17.4
1 11 15 50.99 16.9
11 1 15 19.6 16.4
-11 12 -15 22.3 18.9
1 11 -15 39.9 17.8
-1 12 15 35.7 17.2
-6 13 -15 8.8 15.2
-7 13 15 23.2 15.8
7 -13 15 2 18.5
-13 7 -15 4.1 19.9
6 7 15 7.5 15.6
7 6 15 16.2 14.4
-7 13 -15 -2.6 16.8
-13 6 -15 8 21
6 -13 15 1.2 17.4
-6 13 15 3.4 15.1
-5 13 -15 5 16.4
-8 13 15 -3.2 14.7
8 -13 15 5.5 18.5
-13 8 -15 -7.4 19.9
5 8 15 12.3 15.5
-8 13 -15 11.7 16.8
-13 5 -15 -7.8 19.9
8 5 15 5.6 14.9
-5 13 15 12.6 15.6
5 -13 15 1.6 16
-13 9 -15 -1.5 20.3
9 -13 15 3.6 20.2
-9 13 15 12.9 14.5
-4 13 -15 6.8 16.6
4 9 15 10.9 15.7
-13 4 -15 2 11.6
9 4 15 -18.9 15.2
-9 13 -15 13.6 17.2
-4 13 15 6.4 15.6
4 -13 15 -8.1 11.4
-1 -2 16 74.79 21.2
-1 3 -16 43.2 21.3
2 -3 16 86.29 22.2
1 -3 16 89.19 21.2
-2 3 -16 54.49 22
3 -3 16 31.8 20.8
0 -3 16 24.8 18.4
-3 3 -16 -11.6 20.9
0 3 -16 -0.7 19.6
4 -2 16 17.7 23.4
2 -4 16 7.2 20.4
-2 -2 16 17.2 17.8
-2 4 -16 21.6 20.7
-4 3 -16 120.49 24.2
-1 4 -16 72.09 22.3
-3 4 -16 109.29 25.4
1 -4 16 194.38 25.5
1 3 -16 123.99 23.2
0 -4 16 59.69 20.4
4 -4 16 101.29 25
-4 4 -16 25 22.3
0 4 16 -3.3 13.4
0 4 -16 25.7 21
3 -5 16 43.8 21.2
-2 5 -16 5.7 20.3
-2 -3 16 30.3 20.2
2 3 16 12.9 16.5
-5 3 -16 6.7 18.5
5 -2 16 39.5 23.1
2 3 -16 31.2 17.9
5 -3 16 53.29 24.8
-3 5 -16 18.8 20.9
-3 -2 16 61.79 18.6
2 -5 16 46.1 20
3 2 16 -3 13.4
-5 4 -16 -10.2 20.3
5 -1 16 29 24.5
-1 -4 16 35 20.4
4 -5 16 37.2 21.5
-1 5 -16 -5.5 19.8
1 4 16 17.6 18.8
-4 -1 16 -1.5 16.1
1 4 -16 19 20.3
1 -5 16 27.2 19.8
5 -4 16 36.1 23.2
-1 5 16 1.9 15.4
-4 5 -16 -5.4 21
0 5 -16 12.6 19.1
5 -5 16 59.59 23
-5 5 -16 9.1 21.1
0 5 16 16.4 18.6
0 -5 16 25.2 19.2
-6 3 -16 16.4 16.8
3 3 16 26.6 18.5
-3 -3 16 -4.4 16.3
6 -3 16 95.49 26.3
-3 6 -16 27.8 20.8
3 -6 16 69.29 21.1
3 3 -16 -1.7 15.4
-2 -4 16 34.4 18.5
-2 6 -16 33.5 20.9
-6 4 -16 33.5 19.4
4 -6 16 80.19 22.1
6 -2 16 72.09 24.3
2 4 16 29.9 18.3
4 2 16 47.9 18.9
-2 6 16 18.7 17.2
6 -4 16 90.39 25.8
2 4 -16 49 21.5
-4 6 -16 27.5 22.5
2 -6 16 56.79 20.2
-1 6 -16 -9.8 20.1
6 -1 16 32.1 22.8
-1 -5 16 -0.1 18.3
-6 5 -16 3.6 21.1
5 -6 16 30 20.6
1 5 16 -11 16.8
-5 6 -16 9.8 22.4
1 -6 16 21.7 16.2
1 5 -16 9.8 19.2
-1 6 16 11.6 17.8
6 -5 16 30.8 21.8
5 1 16 14.4 15
6 0 16 -4.7 19.6
0 6 16 -6.1 16.8
0 -6 16 2.4 15.7
0 6 -16 2.6 21
6 -6 16 5.2 20
-6 6 -16 1.3 21.3
-3 7 -16 -7.6 18.9
4 -7 16 4.4 17.6
-7 4 -16 10.9 17.6
7 -3 16 23.7 23.9
3 4 16 17.7 16.6
3 4 -16 9.2 18.8
-4 7 -16 6.1 19
3 -7 16 16.1 17.9
-3 7 16 -16.2 15.1
7 -4 16 28.4 23.9
-7 3 -16 5.6 13.2
4 3 16 15.8 17.5
-2 7 -16 -2.7 18.8
7 -2 16 -25.4 21.5
-7 5 -16 2.9 19
5 -7 16 21.2 19.3
2 5 16 -9 15.7
2 5 -16 -9.3 18.7
-5 7 -16 -5.1 19.5
2 -7 16 -11.1 16.4
-2 7 16 -25.9 15.7
7 -5 16 21.4 22.6
5 2 16 -14.7 16.7
-7 6 -16 -1.3 20
6 -7 16 25.8 20.7
7 -1 16 -11.2 20.6
-1 -6 16 -1.9 12.5
1 6 16 -27.2 15.2
-1 7 -16 0.2 18.4
6 1 16 7.1 14.3
1 -7 16 -3.3 16.1
7 -6 16 4.2 20.7
6 1 16 -9.5 19.1
-6 7 -16 13.3 20.6
1 6 -16 -0.9 20
-1 7 16 -29.4 15
0 -7 16 4.6 14.4
-7 7 -16 -5.4 19.5
0 7 16 -26.9 15
7 0 16 -6 11.2
7 -7 16 9.7 20.1
0 7 -16 11.2 18.8
4 -8 16 1.2 16.9
-4 8 -16 40.7 19.3
-4 8 16 -3.8 14
8 -4 16 -2.4 21.1
-8 4 -16 24.4 17.6
4 4 -16 12.5 16.9
4 4 16 -5.4 15.8
8 -3 16 -22.1 19.2
5 -8 16 -8.8 17.6
-8 5 -16 -5.4 18.4
-3 8 -16 3 17.4
3 5 16 -7.9 14.2
3 5 -16 -21.1 18.7
-8 3 -16 1 13.9
-5 8 -16 3 18.6
5 3 16 2.1 16.4
-3 8 16 -30.4 14.8
8 -5 16 6.3 22
3 -8 16 0.1 16.4
-2 8 -16 -8.7 17.1
-8 6 -16 -20.8 18.9
6 -8 16 -14.8 18
6 2 16 -10.7 15.2
-2 8 16 -25 14.4
2 -8 16 -6.4 15.9
2 6 -16 -8.6 18.8
8 -6 16 10.8 21.4
-6 8 -16 -24.6 18.7
-8 7 -16 2.2 20.3
7 -8 16 17.8 20.1
-1 8 -16 32.4 19.2
1 7 16 -7.4 14.2
-7 8 -16 12.1 20.2
1 7 -16 19.6 19.7
7 1 16 18.6 14.8
8 -7 16 26.6 21.7
-1 8 16 -11.3 14.7
1 -8 16 24.7 15.3
-8 8 -16 -4.6 20.3
8 0 16 4.4 11.4
0 8 -16 15.3 18.5
8 -8 16 21.9 21.3
0 8 16 -10 14.4
5 4 -16 0.1 13.1
5 -9 16 7.4 17.5
-5 9 16 -0.7 10.8
-9 5 -16 10.5 18.4
-4 9 -16 -4.3 18.2
4 5 16 -21.2 13.9
-5 9 -16 -11 17.9
-9 4 -16 -0.4 14.6
4 5 -16 -5.2 18
5 4 16 -9.7 13.9
4 -9 16 0.8 16.6
-4 9 16 -19.3 13.1
9 -5 16 -12.3 17
6 -9 16 5.1 17.9
-3 9 -16 -1.6 16.6
3 6 16 -8.9 13.3
-9 6 -16 9.9 18.7
-3 9 16 -16.3 14.5
3 -9 16 4 15.4
3 6 -16 -4.2 19.9
-6 9 -16 8.1 18.5
9 -6 16 -6.2 19.9
6 3 16 -4.5 14.8
2 7 16 -22 13.2
-9 7 -16 -2 19.4
-2 9 -16 2.9 17.7
7 -9 16 15.6 19.9
9 -7 16 9.6 21.9
-7 9 -16 8.2 19.6
-2 9 16 -8.6 14.8
7 2 16 3.6 14.8
2 7 -16 6.3 19.2
2 -9 16 5.6 13.9
-1 9 -16 1.9 18.5
1 8 16 -10.3 13.5
8 -9 16 -3.4 20.5
-9 8 -16 -11.6 20.2
8 1 16 5.3 14.2
-1 9 16 -5.5 15.2
9 -8 16 -0.8 21.6
1 8 -16 -4.2 19.2
-8 9 -16 -3.1 20.9
9 -9 16 18.8 22.8
0 9 -16 12.9 19.2
-9 9 -16 6.8 20.8
0 9 16 9.1 15.8
9 0 16 -6 9.4
-5 10 -16 31.3 19.3
5 -10 16 14.2 18.9
-10 5 -16 15.6 18
-5 10 16 8.6 12.5
5 5 16 0.3 15.3
-10 6 -16 -3.8 19.2
6 -10 16 -0.7 17.9
4 6 16 -9 15.1
-6 10 16 3.2 10.6
-4 10 -16 4.6 18.2
-10 4 -16 -0.4 16.3
6 4 16 -7.2 14.5
-4 10 16 -9.2 14.3
4 6 -16 -16.4 18.9
4 -10 16 -4 16
-6 10 -16 12.4 18.2
-3 10 -16 6.6 18.5
7 -10 16 -25.8 18.9
3 7 16 -8.1 14.5
-10 7 -16 -7.2 19.8
7 3 16 0.1 14.8
-7 10 -16 -0.6 18.9
-3 10 16 -11.1 15.2
3 7 -16 -12.6 20.4
3 -10 16 -2.3 14.6
-2 10 -16 34.7 18.9
2 8 16 9.6 14.5
8 -10 16 -3.4 20.9
-10 8 -16 21.3 21.2
-8 10 -16 40.3 20.5
8 2 16 6.1 16.1
-2 10 16 18.4 16.3
2 8 -16 16.6 19.5
10 -8 16 33.1 13
9 -10 16 5.4 21.8
-10 9 -16 -3.5 21.8
-1 10 -16 3.5 18.9
1 9 -16 -18.2 19.1
-9 10 -16 4.6 22.2
10 -9 16 20.9 15.4
-11 6 -16 1.1 21.1
6 -11 16 7.4 18.4
-5 11 -16 -2.6 18.5
-11 5 -16 1 12.6
5 -11 16 -6.4 17.5
-6 11 -16 -5.2 19.2
-1 0 17 20.5 17.7
0 -1 17 8.2 17.2
1 -1 17 18 19.1
1 0 17 27.7 20.6
-1 -1 17 6.8 16.1
2 -1 17 14.2 19.4
1 -2 17 2.3 18.6
2 0 17 27.2 21.8
0 -2 17 11 18.6
-2 0 17 -2.6 16.8
2 -2 17 9.5 19.7
3 -1 17 18.7 20.4
2 -3 17 17.6 19.2
-1 -2 17 4.6 17.6
1 -3 17 22.8 19
3 -2 17 20.4 21.7
-2 -1 17 14 16.3
3 0 17 -7.6 22.2
-3 0 17 7.9 15.1
3 -3 17 18 20.3
0 -3 17 11.6 18.2
2 -4 17 24.2 19.2
4 -2 17 32.1 23.6
-2 -2 17 8.1 16
-1 -3 17 11.1 16.8
4 -1 17 3.6 22.6
-4 1 17 -2.1 14.7
3 -4 17 3.8 20.1
1 -4 17 5.4 17.4
4 -3 17 36.2 22.8
-3 -1 17 -2.9 15.4
3 1 17 4.2 22.2
4 -4 17 23.1 21.7
4 0 17 13.5 21.2
0 -4 17 -3.9 16.6
-2 5 -17 -5.1 13.5
3 -5 17 9.1 16.8
5 -2 17 29.1 23.9
2 -5 17 11.4 15.6
-3 5 -17 1.7 15
5 -3 17 25.5 23.3
4 -5 17 -0.3 17.9
-1 -4 17 -4.1 11.9
5 -1 17 10.3 24.2
-1 5 -17 -0.3 13.1
1 -5 17 -1.3 15.7
5 -4 17 14.7 23.4
-4 5 -17 -4.9 14
4 1 17 -4.6 20.9
0 -5 17 -5.3 13.5
-5 5 -17 1.4 13.7
5 0 17 -24.2 22.7
5 -5 17 3.1 20.4
-3 6 -17 -26.5 18.9
3 -6 17 7.4 17.7
6 -3 17 2.6 23.5
6 -2 17 46.7 24.7
-2 6 -17 13.4 20.7
4 -6 17 40 19.5
2 -6 17 3.3 16.2
6 -4 17 11.3 21.9
4 2 17 8.6 22
-4 6 -17 3.7 22.2
6 -1 17 -10.4 18.9
5 -6 17 16.2 20.7
-1 6 -17 17.3 18.1
6 -5 17 24.8 22.7
1 -6 17 4.5 15
-5 6 -17 3.3 20
6 -6 17 4.6 21.4
-6 6 -17 3.3 16.4
0 6 -17 2 13.3
-3 7 -17 -16.5 21.4
7 -3 17 -21.1 14.8
4 -7 17 11.7 19
7 -4 17 -4.2 22.7
-4 7 -17 -3.2 21.9
3 -7 17 20.6 18.4
-2 7 -17 -2.1 22
5 -7 17 5.8 20.5
2 -7 17 21.9 16.8
7 -5 17 -1.3 23.3
-5 7 -17 13.7 22
