#------------------------------------------------------------------------------
#$Date: 2019-11-03 10:53:11 +0200 (Sun, 03 Nov 2019) $
#$Revision: 221194 $
#$URL: file:///home/coder/svn-repositories/cod/cif/4/12/80/4128063.cif $
#------------------------------------------------------------------------------
#
# This file is available in the Crystallography Open Database (COD),
# http://www.crystallography.net/
#
# All data on this site have been placed in the public domain by the
# contributors.
#
data_4128063
loop_
_publ_author_name
'Castillo-Blas, Celia'
'L\'opez-Salas, Nieves'
'Guti\'errez, Mar\'ia C'
'Puente-Orench, In\'es'
'Guti\'errez-Puebla, Enrique'
'Ferrer, M. Luisa'
'Monge, M \'Angeles'
'G\'andara, Felipe'
_publ_section_title
;
 Encoding Metal-Cation Arrangements in Metal-Organic Frameworks for
 Programming the Composition of Electrocatalytically Active Multimetal
 Oxides.
;
_journal_issue                   4
_journal_name_full               'Journal of the American Chemical Society'
_journal_page_first              1766
_journal_page_last               1774
_journal_paper_doi               10.1021/jacs.8b12860
_journal_volume                  141
_journal_year                    2019
_chemical_formula_moiety         'C17 H8 Co0.36 F6 Mn0.49 O4 Zn0.14, 0.17(O)'
_chemical_formula_sum            'C17 H8 Co0.36 F6 Mn0.49 O4.17 Zn0.14'
_chemical_formula_weight         450.40
_space_group_crystal_system      hexagonal
_space_group_IT_number           179
_space_group_name_Hall           'P 65 2 (0 0 1)'
_space_group_name_H-M_alt        'P 65 2 2'
_symmetry_space_group_name_Hall  'P 65 2 (0 0 1)'
_symmetry_space_group_name_H-M   'P 65 2 2'
_atom_sites_solution_hydrogens   geom
_atom_sites_solution_primary     direct
_audit_creation_date             2018-05-10
_audit_creation_method
;
Olex2 1.2
(compiled 2018.04.26 svn.r3504 for OlexSys, GUI svn.r5492)
;
_cell_angle_alpha                90
_cell_angle_beta                 90
_cell_angle_gamma                120
_cell_formula_units_Z            12
_cell_length_a                   21.2423(6)
_cell_length_b                   21.2423(6)
_cell_length_c                   15.1282(6)
_cell_measurement_reflns_used    9801
_cell_measurement_temperature    296(2)
_cell_measurement_theta_max      65.695
_cell_measurement_theta_min      2.401
_cell_volume                     5911.8(3)
_computing_cell_refinement       'SAINT v8.37A (Bruker, 2015)'
_computing_data_reduction        'SAINT v8.37A (Bruker, 2015)'
_computing_molecular_graphics    'Olex2 (Dolomanov et al., 2009)'
_computing_publication_material  'Olex2 (Dolomanov et al., 2009)'
_computing_structure_refinement  'XL (Sheldrick, 2008)'
_computing_structure_solution    'XS (Sheldrick, 2008)'
_diffrn_ambient_temperature      296.15
_diffrn_measured_fraction_theta_full 1.000
_diffrn_measured_fraction_theta_max 1.000
_diffrn_measurement_device_type  'Data Vantec 500'
_diffrn_measurement_method       '\f and \w scans'
_diffrn_radiation_type           CuK\a
_diffrn_radiation_wavelength     1.54178
_diffrn_reflns_av_R_equivalents  0.0847
_diffrn_reflns_av_unetI/netI     0.0347
_diffrn_reflns_Laue_measured_fraction_full 1.000
_diffrn_reflns_Laue_measured_fraction_max 1.000
_diffrn_reflns_limit_h_max       25
_diffrn_reflns_limit_h_min       -24
_diffrn_reflns_limit_k_max       24
_diffrn_reflns_limit_k_min       -25
_diffrn_reflns_limit_l_max       17
_diffrn_reflns_limit_l_min       -17
_diffrn_reflns_number            46154
_diffrn_reflns_point_group_measured_fraction_full 0.999
_diffrn_reflns_point_group_measured_fraction_max 0.999
_diffrn_reflns_theta_full        65.690
_diffrn_reflns_theta_max         65.690
_diffrn_reflns_theta_min         2.402
_diffrn_standards_number         0
_exptl_absorpt_coefficient_mu    6.128
_exptl_absorpt_correction_T_max  1.0000
_exptl_absorpt_correction_T_min  0.6141
_exptl_absorpt_correction_type   multi-scan
_exptl_absorpt_process_details
'SADABS-2016/2 (Bruker,2016/2) was used for absorption correction. wR2(int) was 0.1474 before and 0.0973 after correction. The Ratio of minimum to maximum transmission is 0.6141. The \l/2 correction factor is Not present.'
_exptl_crystal_colour            blue
_exptl_crystal_colour_primary    blue
_exptl_crystal_density_diffrn    1.518
_exptl_crystal_description       needle
_exptl_crystal_F_000             2683
_exptl_crystal_size_max          0.12
_exptl_crystal_size_mid          0.04
_exptl_crystal_size_min          0.04
_refine_diff_density_max         0.756
_refine_diff_density_min         -0.272
_refine_diff_density_rms         0.088
_refine_ls_abs_structure_details
;
 Flack x determined using 1172 quotients [(I+)-(I-)]/[(I+)+(I-)]
 (Parsons, Flack and Wagner, Acta Cryst. B69 (2013) 249-259).
;
_refine_ls_abs_structure_Flack   0.000(4)
_refine_ls_extinction_method     none
_refine_ls_goodness_of_fit_ref   0.942
_refine_ls_hydrogen_treatment    constr
_refine_ls_matrix_type           full
_refine_ls_number_parameters     266
_refine_ls_number_reflns         3427
_refine_ls_number_restraints     0
_refine_ls_restrained_S_all      0.942
_refine_ls_R_factor_all          0.0438
_refine_ls_R_factor_gt           0.0394
_refine_ls_shift/su_max          0.000
_refine_ls_shift/su_mean         0.000
_refine_ls_structure_factor_coef Fsqd
_refine_ls_weighting_details
'w=1/[\s^2^(Fo^2^)+(0.1000P)^2^] where P=(Fo^2^+2Fc^2^)/3'
_refine_ls_weighting_scheme      calc
_refine_ls_wR_factor_gt          0.1138
_refine_ls_wR_factor_ref         0.1173
_reflns_Friedel_coverage         0.698
_reflns_Friedel_fraction_full    0.998
_reflns_Friedel_fraction_max     0.998
_reflns_number_gt                3117
_reflns_number_total             3427
_reflns_threshold_expression     'I > 2\s(I)'
_iucr_refine_instructions_details
;

    1test.res created by SHELXL-2014/7

TITL 1test in P6522 #179
REM reset to P6522 #179
CELL 1.54178 21.2423 21.2423 15.1282 90 90 120
ZERR 12 0.0006 0.0006 0.0006 0 0 0
LATT -1
SYMM -Y+X,+X,0.833+Z
SYMM -Y,+X-Y,0.667+Z
SYMM -X,-Y,0.5+Z
SYMM +Y-X,-X,0.333+Z
SYMM +Y,-X+Y,0.167+Z
SYMM -Y+X,-Y,-Z
SYMM -X,-X+Y,0.333-Z
SYMM +Y,+X,0.667-Z
SYMM -Y,-X,0.167-Z
SYMM +Y-X,+Y,0.5-Z
SYMM +X,+X-Y,0.833-Z
SFAC C H Co F Mn O Zn
UNIT 204 96 4.35 72 5.93 50 1.65
 
L.S. 12
PLAN  20
TEMP 23
BOND
fmap 2
acta
REM <olex2.extras>
REM <HklSrc "%.\\1test.hkl">
REM </olex2.extras>
 
WGHT    0.100000
FVAR       0.06557   0.27538
PART 1
ZN1   7    0.283221    0.716779    0.083333    20.50000    0.01048    0.01048 =
         0.01700    0.00240    0.00240    0.00622
PART 0
MN2   5    0.350192    0.675096   -0.083333     0.49433    0.02273    0.01996 =
         0.02235   -0.00146    0.00000    0.01136
O1    6    0.255715    0.625418    0.020121    11.00000    0.02517    0.02123 =
         0.02955   -0.00044   -0.00224    0.01037
O2    6    0.424129    0.732857    0.021423    11.00000    0.02568    0.03375 =
         0.02818   -0.00529   -0.00203    0.01126
O3    6    0.344509    0.769416   -0.109127    11.00000    0.03922    0.02663 =
         0.03696    0.00320   -0.00026    0.01995
F4    4    0.295956    1.093775   -0.148943    11.00000    0.06183    0.03851 =
         0.07761    0.00907    0.02451    0.03035
F5    4    0.251289    1.110803   -0.267381    11.00000    0.06419    0.05187 =
         0.11766    0.04504    0.02890    0.04310
F6    4    0.261567    0.953109   -0.405626    11.00000    0.05783    0.04515 =
         0.06056   -0.00070   -0.01995    0.00934
F7    4    0.187580    1.015776   -0.188764    11.00000    0.04118    0.05762 =
         0.11870    0.04171    0.03492    0.03148
C8    1    0.320485    0.805365   -0.071240    11.00000    0.02977    0.01963 =
         0.03926    0.00142   -0.00459    0.01036
O9    6    0.298741    0.796016    0.008181    11.00000    0.05074    0.03349 =
         0.03410    0.01218    0.00707    0.02485
F10   4    0.205306    1.012205   -0.389071    11.00000    0.03490    0.06213 =
         0.09875    0.03613   -0.01710    0.01089
F11   4    0.174171    0.916537   -0.311799    11.00000    0.03189    0.04926 =
         0.09901    0.03502   -0.01169   -0.00958
C12   1    0.281670    0.897582   -0.082016    11.00000    0.04259    0.02947 =
         0.04213    0.00920    0.00953    0.01847
AFIX  43
H12   2    0.265594    0.886826   -0.023857    11.00000   -1.20000
AFIX   0
C13   1    0.570039    1.240931   -0.403566    11.00000    0.02357    0.02339 =
         0.02716   -0.00353   -0.00268    0.01065
C14   1    0.367855    1.112216   -0.391950    11.00000    0.02550    0.03304 =
         0.04506    0.00557   -0.00866    0.01052
AFIX  43
H14   2    0.327179    1.097978   -0.427433    11.00000   -1.20000
AFIX   0
C15   1    0.421548    1.104090   -0.256663    11.00000    0.03068    0.03001 =
         0.03193    0.01237    0.00355    0.01247
AFIX  43
H15   2    0.417036    1.084095   -0.200729    11.00000   -1.20000
AFIX   0
C16   1    0.435079    1.164829   -0.421444    11.00000    0.03062    0.02847 =
         0.03449    0.00840   -0.00228    0.01202
AFIX  43
H16   2    0.439397    1.185806   -0.476702    11.00000   -1.20000
AFIX   0
C17   1    0.315003    0.863175   -0.121045    11.00000    0.02637    0.02188 =
         0.03882    0.00673    0.00108    0.01046
C18   1    0.332373    0.932573   -0.252485    11.00000    0.03423    0.02731 =
         0.03651    0.00721    0.00463    0.01191
AFIX  43
H18   2    0.350489    0.945135   -0.309666    11.00000   -1.20000
AFIX   0
C19   1    0.286590    1.020481   -0.271617    11.00000    0.02537    0.02801 =
         0.05280    0.01196    0.00055    0.01060
C20   1    0.496738    1.187029   -0.369473    11.00000    0.02823    0.01994 =
         0.03363   -0.00129   -0.00433    0.00993
C21   1    0.231532    0.975726   -0.344998    11.00000    0.03219    0.04284 =
         0.07285    0.02379   -0.00971    0.00408
C22   1    0.271961    0.948382   -0.129297    11.00000    0.03614    0.02952 =
         0.05672    0.01156    0.01198    0.02035
AFIX  43
H22   2    0.248294    0.970428   -0.103069    11.00000   -1.20000
AFIX   0
C23   1    0.341155    0.881161   -0.207600    11.00000    0.03415    0.02563 =
         0.04270   -0.00015    0.00271    0.01697
AFIX  43
H23   2    0.364156    0.858675   -0.234422    11.00000   -1.20000
AFIX   0
C24   1    0.255023    1.060114   -0.218385    11.00000    0.03445    0.03650 =
         0.08769    0.03127    0.01913    0.02150
C25   1    0.297306    0.966150   -0.214901    11.00000    0.03096    0.02197 =
         0.04412    0.00931    0.00292    0.00984
C26   1    0.488797    1.156917   -0.285885    11.00000    0.02690    0.02544 =
         0.03147    0.00118   -0.00355    0.01012
AFIX  43
H26   2    0.529178    1.172557   -0.249456    11.00000   -1.20000
AFIX   0
C27   1    0.360148    1.080130   -0.309619    11.00000    0.02548    0.02247 =
         0.04208    0.00716   -0.00032    0.01169
 
O0AA  6    0.519345    1.000000    0.000000    10.16667    0.18011    0.29584 =
         0.23643    0.01786    0.00893    0.14792
PART 2
CO1   3    0.283181    0.716819    0.083333   -20.50000    0.02971    0.02971 =
         0.02591    0.00186    0.00186    0.01575
HKLF 4
 
REM  1test in P6522 #179
REM R1 =  0.0394 for    3117 Fo > 4sig(Fo)  and  0.0438 for all    3427 data
REM    266 parameters refined using      0 restraints
 
END  
     
WGHT      0.0738      0.0000 

REM Highest difference peak  0.756,  deepest hole -0.272,  1-sigma level  0.088
Q1    1   0.4709  0.9707  0.0589  11.00000  0.05    0.76
Q2    1   0.5748  1.0672  0.0725  11.00000  0.05    0.45
Q3    1   0.5652  1.0000  0.0000  10.50000  0.05    0.43
Q4    1   0.2306  0.7164  0.0813  11.00000  0.05    0.29
Q5    1   0.3540  0.7283 -0.0926  11.00000  0.05    0.23
Q6    1   0.2785  0.7225  0.0082  11.00000  0.05    0.21
Q7    1   0.0045  1.0045 -0.1667  10.50000  0.05    0.20
Q8    1   0.3207  0.9204 -0.3388  11.00000  0.05    0.20
Q9    1   0.3533  0.6724 -0.1571  11.00000  0.05    0.20
Q10   1   0.4595  1.1706 -0.3968  11.00000  0.05    0.20
Q11   1   0.3133  0.8366 -0.0909  11.00000  0.05    0.20
Q12   1   0.3348  0.7463 -0.0361  11.00000  0.05    0.19
Q13   1   0.2082  0.6523  0.0088  11.00000  0.05    0.19
Q14   1   0.4476  0.7813  0.0346  11.00000  0.05    0.18
Q15   1   0.4426  1.1657 -0.4980  11.00000  0.05    0.18
Q16   1   0.4845  0.9756 -0.2082  11.00000  0.05    0.17
Q17   1   0.4353  0.7327 -0.0354  11.00000  0.05    0.17
Q18   1   0.2456  0.6636  0.0822  11.00000  0.05    0.16
Q19   1   0.2298  0.6124  0.0705  11.00000  0.05    0.16
Q20   1   0.4009  0.9890 -0.3080  11.00000  0.05    0.16

  REM The information below was added by Olex2.
  REM
  REM R1 = 0.0394 for 3117 Fo > 4sig(Fo) and 0.0438 for all 46204 data
  REM n/a parameters refined using n/a restraints
  REM Highest difference peak 0.76, deepest hole -0.27
  REM Mean Shift 0, Max Shift 0.000.

  REM +++ Tabular Listing of Refinement Information +++
  REM R1_all = 0.0438
  REM R1_gt = 0.0394
  REM wR_ref = 0.1173
  REM GOOF = 0.942
  REM Shift_max = 0.000
  REM Shift_mean = 0
  REM Reflections_all = 46204
  REM Reflections_gt = 3117
  REM Parameters = n/a
  REM Hole = -0.27
  REM Peak = 0.76
  REM Flack = 0.000(4)

  
;
_cod_data_source_file            Zn0.16Mn0.47Co0.33Ca0.03hfipbb-ZnMnCoCa1441.cif
_cod_data_source_block           1test
_cod_original_cell_volume        5911.8(4)
_cod_database_code               4128063
_shelx_shelxl_version_number     2014/7
_shelx_space_group_comment
;
The symmetry employed for this shelxl refinement is uniquely defined
by the following loop, which should always be used as a source of
symmetry information in preference to the above space-group names.
They are only intended as comments.
;
_olex2_refinement_description
;
1. Fixed Uiso
 At 1.2 times of:
  All C(H) groups
2. Others
 Sof(Co1)=0.5*(1-FVAR(2))
 Sof(Zn1)=0.5*FVAR(2)
 Fixed Sof: O0AA(0.16667)
3.a Aromatic/amide H refined with riding coordinates:
 C12(H12), C14(H14), C15(H15), C16(H16), C18(H18), C22(H22), C23(H23), C26(H26)
;
_olex2_submission_special_instructions 'No special instructions were received'
loop_
_space_group_symop_operation_xyz
'x, y, z'
'x-y, x, z+5/6'
'-y, x-y, z+2/3'
'-x, -y, z+1/2'
'-x+y, -x, z+1/3'
'y, -x+y, z+1/6'
'x-y, -y, -z'
'-x, -x+y, -z+1/3'
'y, x, -z+2/3'
'-y, -x, -z+1/6'
'-x+y, y, -z+1/2'
'x, x-y, -z+5/6'
loop_
_atom_site_label
_atom_site_type_symbol
_atom_site_fract_x
_atom_site_fract_y
_atom_site_fract_z
_atom_site_U_iso_or_equiv
_atom_site_adp_type
_atom_site_occupancy
_atom_site_site_symmetry_order
_atom_site_calc_flag
_atom_site_refinement_flags_posn
_atom_site_refinement_flags_adp
_atom_site_refinement_flags_occupancy
_atom_site_disorder_assembly
_atom_site_disorder_group
Zn1 Zn 0.2832(2) 0.7168(2) 0.0833 0.012(3) Uani 0.275(18) 2 d S T P A 1
Mn2 Mn 0.35019(5) 0.67510(3) -0.0833 0.0214(4) Uani 0.989(6) 2 d S T P A .
O1 O 0.25571(16) 0.62542(16) 0.0201(2) 0.0259(7) Uani 1 1 d . . . . .
O2 O 0.42413(17) 0.73286(18) 0.0214(2) 0.0308(8) Uani 1 1 d . . . . .
O3 O 0.34451(19) 0.76942(18) -0.1091(2) 0.0327(8) Uani 1 1 d . . . . .
F4 F 0.2960(2) 1.09378(19) -0.1489(3) 0.0570(10) Uani 1 1 d . . . . .
F5 F 0.2513(2) 1.1108(2) -0.2674(3) 0.0716(13) Uani 1 1 d . . . . .
F6 F 0.2616(2) 0.9531(2) -0.4056(3) 0.0618(11) Uani 1 1 d . . . . .
F7 F 0.18758(19) 1.0158(2) -0.1888(3) 0.0695(13) Uani 1 1 d . . . . .
C8 C 0.3205(3) 0.8054(2) -0.0712(3) 0.0304(11) Uani 1 1 d . . . . .
O9 O 0.2987(2) 0.7960(2) 0.0082(2) 0.0378(9) Uani 1 1 d . . . . .
F10 F 0.20531(19) 1.0122(2) -0.3891(3) 0.0712(13) Uani 1 1 d . . . . .
F11 F 0.17417(19) 0.9165(2) -0.3118(3) 0.0733(14) Uani 1 1 d . . . . .
C12 C 0.2817(3) 0.8976(3) -0.0820(4) 0.0379(12) Uani 1 1 d . . . . .
H12 H 0.2656 0.8868 -0.0239 0.045 Uiso 1 1 calc R . . . .
C13 C 0.5700(2) 1.2409(2) -0.4036(3) 0.0252(10) Uani 1 1 d . . . . .
C14 C 0.3679(3) 1.1122(3) -0.3919(4) 0.0364(12) Uani 1 1 d . . . . .
H14 H 0.3272 1.0980 -0.4274 0.044 Uiso 1 1 calc R . . . .
C15 C 0.4215(3) 1.1041(3) -0.2567(3) 0.0321(11) Uani 1 1 d . . . . .
H15 H 0.4170 1.0841 -0.2007 0.038 Uiso 1 1 calc R . . . .
C16 C 0.4351(3) 1.1648(3) -0.4214(3) 0.0324(11) Uani 1 1 d . . . . .
H16 H 0.4394 1.1858 -0.4767 0.039 Uiso 1 1 calc R . . . .
C17 C 0.3150(3) 0.8632(3) -0.1210(3) 0.0297(10) Uani 1 1 d . . . . .
C18 C 0.3324(3) 0.9326(3) -0.2525(4) 0.0342(11) Uani 1 1 d . . . . .
H18 H 0.3505 0.9451 -0.3097 0.041 Uiso 1 1 calc R . . . .
C19 C 0.2866(3) 1.0205(3) -0.2716(4) 0.0366(12) Uani 1 1 d . . . . .
C20 C 0.4967(3) 1.1870(2) -0.3695(3) 0.0282(10) Uani 1 1 d . . . . .
C21 C 0.2315(3) 0.9757(3) -0.3450(5) 0.0558(18) Uani 1 1 d . . . . .
C22 C 0.2720(3) 0.9484(3) -0.1293(4) 0.0390(12) Uani 1 1 d . . . . .
H22 H 0.2483 0.9704 -0.1031 0.047 Uiso 1 1 calc R . . . .
C23 C 0.3412(3) 0.8812(3) -0.2076(4) 0.0333(11) Uani 1 1 d . . . . .
H23 H 0.3642 0.8587 -0.2344 0.040 Uiso 1 1 calc R . . . .
C24 C 0.2550(3) 1.0601(3) -0.2184(5) 0.0512(17) Uani 1 1 d . . . . .
C25 C 0.2973(3) 0.9662(3) -0.2149(4) 0.0339(12) Uani 1 1 d . . . . .
C26 C 0.4888(3) 1.1569(3) -0.2859(3) 0.0293(10) Uani 1 1 d . . . . .
H26 H 0.5292 1.1726 -0.2495 0.035 Uiso 1 1 calc R . . . .
C27 C 0.3601(3) 1.0801(3) -0.3096(3) 0.0301(10) Uani 1 1 d . . . . .
O0AA O 0.519(2) 1.0000 0.0000 0.22(3) Uani 0.3333 2 d S T P . .
Co1 Co 0.28318(15) 0.71682(15) 0.0833 0.0280(17) Uani 0.725(18) 2 d S T P A 2
loop_
_atom_site_aniso_label
_atom_site_aniso_U_11
_atom_site_aniso_U_22
_atom_site_aniso_U_33
_atom_site_aniso_U_23
_atom_site_aniso_U_13
_atom_site_aniso_U_12
Zn1 0.010(4) 0.010(4) 0.017(6) 0.002(3) 0.002(3) 0.006(3)
Mn2 0.0227(6) 0.0200(5) 0.0224(6) -0.0015(3) 0.000 0.0114(3)
O1 0.0252(15) 0.0212(16) 0.0295(16) -0.0004(13) -0.0022(12) 0.0104(13)
O2 0.0257(16) 0.0337(18) 0.0282(18) -0.0053(14) -0.0020(13) 0.0113(14)
O3 0.039(2) 0.0266(17) 0.0370(19) 0.0032(14) -0.0003(15) 0.0200(16)
F4 0.062(2) 0.0385(19) 0.078(3) 0.0091(18) 0.025(2) 0.0304(17)
F5 0.064(2) 0.052(2) 0.118(4) 0.045(2) 0.029(2) 0.043(2)
F6 0.058(2) 0.045(2) 0.061(2) -0.0007(18) -0.0199(19) 0.0093(17)
F7 0.041(2) 0.058(2) 0.119(3) 0.042(2) 0.035(2) 0.0315(19)
C8 0.030(2) 0.020(2) 0.039(3) 0.0014(19) -0.005(2) 0.010(2)
O9 0.051(2) 0.0335(19) 0.0341(19) 0.0122(15) 0.0071(16) 0.0248(17)
F10 0.0349(18) 0.062(2) 0.099(3) 0.036(2) -0.0171(19) 0.0109(17)
F11 0.0319(19) 0.049(2) 0.099(3) 0.035(2) -0.012(2) -0.0096(16)
C12 0.043(3) 0.029(3) 0.042(3) 0.009(2) 0.010(3) 0.018(2)
C13 0.024(2) 0.023(2) 0.027(2) -0.0035(18) -0.0027(18) 0.0106(19)
C14 0.025(2) 0.033(3) 0.045(3) 0.006(2) -0.009(2) 0.011(2)
C15 0.031(2) 0.030(2) 0.032(3) 0.012(2) 0.004(2) 0.012(2)
C16 0.031(2) 0.028(2) 0.034(2) 0.008(2) -0.002(2) 0.012(2)
C17 0.026(2) 0.022(2) 0.039(3) 0.007(2) 0.001(2) 0.0105(19)
C18 0.034(3) 0.027(2) 0.037(3) 0.007(2) 0.005(2) 0.012(2)
C19 0.025(2) 0.028(2) 0.053(3) 0.012(2) 0.001(2) 0.011(2)
C20 0.028(2) 0.020(2) 0.034(3) -0.0013(18) -0.004(2) 0.0099(19)
C21 0.032(3) 0.043(3) 0.073(5) 0.024(3) -0.010(3) 0.004(3)
C22 0.036(3) 0.030(3) 0.057(3) 0.012(2) 0.012(3) 0.020(2)
C23 0.034(3) 0.026(2) 0.043(3) 0.000(2) 0.003(2) 0.017(2)
C24 0.034(3) 0.037(3) 0.088(5) 0.031(3) 0.019(3) 0.022(3)
C25 0.031(3) 0.022(2) 0.044(3) 0.009(2) 0.003(2) 0.010(2)
C26 0.027(2) 0.025(2) 0.031(2) 0.0012(19) -0.004(2) 0.010(2)
C27 0.025(2) 0.022(2) 0.042(3) 0.007(2) 0.000(2) 0.012(2)
O0AA 0.18(3) 0.30(8) 0.24(6) 0.02(6) 0.01(3) 0.15(4)
Co1 0.030(2) 0.030(2) 0.026(3) 0.0019(17) 0.0019(17) 0.016(2)
loop_
_atom_type_symbol
_atom_type_description
_atom_type_scat_dispersion_real
_atom_type_scat_dispersion_imag
_atom_type_scat_source
C C 0.0181 0.0091 'International Tables Vol C Tables 4.2.6.8 and 6.1.1.4'
H H 0.0000 0.0000 'International Tables Vol C Tables 4.2.6.8 and 6.1.1.4'
Co Co -2.3653 3.6143 'International Tables Vol C Tables 4.2.6.8 and 6.1.1.4'
F F 0.0727 0.0534 'International Tables Vol C Tables 4.2.6.8 and 6.1.1.4'
Mn Mn -0.5299 2.8052 'International Tables Vol C Tables 4.2.6.8 and 6.1.1.4'
O O 0.0492 0.0322 'International Tables Vol C Tables 4.2.6.8 and 6.1.1.4'
Zn Zn -1.5491 0.6778 'International Tables Vol C Tables 4.2.6.8 and 6.1.1.4'
loop_
_geom_angle_atom_site_label_1
_geom_angle_atom_site_label_2
_geom_angle_atom_site_label_3
_geom_angle
_geom_angle_site_symmetry_1
_geom_angle_site_symmetry_3
O1 Zn1 O1 106.9(4) . 10_665
O9 Zn1 O1 108.40(15) 10_665 .
O9 Zn1 O1 108.39(15) . 10_665
O9 Zn1 O1 114.36(14) . .
O9 Zn1 O1 114.36(14) 10_665 10_665
O9 Zn1 O9 104.7(5) . 10_665
O1 Mn2 O1 84.04(15) . 12_564
O2 Mn2 O1 164.90(12) 12_564 .
O2 Mn2 O1 88.93(11) . .
O2 Mn2 O1 88.93(11) 12_564 12_564
O2 Mn2 O1 164.90(12) . 12_564
O2 Mn2 O2 100.83(18) . 12_564
O3 Mn2 O1 79.47(12) . 12_564
O3 Mn2 O1 96.25(13) . .
O3 Mn2 O1 96.26(13) 12_564 12_564
O3 Mn2 O1 79.47(12) 12_564 .
O3 Mn2 O2 95.57(13) . 12_564
O3 Mn2 O2 95.56(13) 12_564 .
O3 Mn2 O2 88.07(13) 12_564 12_564
O3 Mn2 O2 88.07(13) . .
O3 Mn2 O3 174.3(2) . 12_564
Zn1 O1 Mn2 96.62(14) . .
C13 O1 Zn1 115.3(3) 9_454 .
C13 O1 Mn2 124.3(3) 9_454 .
C13 O1 Co1 115.3(3) 9_454 .
Co1 O1 Mn2 96.63(13) . .
C13 O2 Mn2 144.6(3) 4_675 .
C8 O3 Mn2 137.1(3) . .
O3 C8 O9 124.6(4) . .
O3 C8 C17 119.6(5) . .
O9 C8 C17 115.8(4) . .
C8 O9 Zn1 126.1(4) . .
C8 O9 Co1 126.1(3) . .
C17 C12 C22 120.3(5) . .
O1 C13 C20 117.1(4) 9_564 .
O2 C13 O1 123.3(4) 4_674 9_564
O2 C13 C20 119.5(4) 4_674 .
C16 C14 C27 120.6(5) . .
C26 C15 C27 120.9(5) . .
C14 C16 C20 120.7(5) . .
C12 C17 C8 119.4(5) . .
C12 C17 C23 119.7(5) . .
C23 C17 C8 120.9(4) . .
C23 C18 C25 121.8(5) . .
C21 C19 C27 112.3(5) . .
C24 C19 C21 108.0(5) . .
C24 C19 C25 112.7(5) . .
C24 C19 C27 106.5(4) . .
C25 C19 C21 106.8(4) . .
C25 C19 C27 110.6(4) . .
C16 C20 C13 120.6(4) . .
C26 C20 C13 120.6(4) . .
C26 C20 C16 118.8(5) . .
F6 C21 F10 106.2(6) . .
F6 C21 C19 111.3(5) . .
F10 C21 C19 114.1(6) . .
F11 C21 F6 107.1(6) . .
F11 C21 F10 106.5(5) . .
F11 C21 C19 111.2(5) . .
C25 C22 C12 120.3(5) . .
C18 C23 C17 119.1(5) . .
F4 C24 F5 107.0(5) . .
F4 C24 F7 107.3(6) . .
F4 C24 C19 111.3(5) . .
F5 C24 C19 111.5(5) . .
F7 C24 F5 106.1(5) . .
F7 C24 C19 113.3(5) . .
C18 C25 C19 118.4(5) . .
C22 C25 C18 118.7(5) . .
C22 C25 C19 122.9(5) . .
C15 C26 C20 120.4(5) . .
C14 C27 C15 118.5(4) . .
C14 C27 C19 123.9(4) . .
C15 C27 C19 117.6(4) . .
O1 Co1 O1 106.8(3) . 10_665
O9 Co1 O1 114.37(14) 10_665 10_665
O9 Co1 O1 108.39(15) . 10_665
O9 Co1 O1 108.40(15) 10_665 .
O9 Co1 O1 114.36(14) . .
O9 Co1 O9 104.7(3) . 10_665
loop_
_geom_bond_atom_site_label_1
_geom_bond_atom_site_label_2
_geom_bond_distance
_geom_bond_site_symmetry_2
Zn1 O1 1.972(6) 10_665
Zn1 O1 1.972(6) .
Zn1 O9 1.918(6) 10_665
Zn1 O9 1.918(6) .
Mn2 O1 2.339(3) .
Mn2 O1 2.339(3) 12_564
Mn2 O2 2.135(3) .
Mn2 O2 2.135(3) 12_564
Mn2 O3 2.103(3) 12_564
Mn2 O3 2.103(3) .
O1 C13 1.299(6) 9_454
O1 Co1 1.973(4) .
O2 C13 1.243(6) 4_675
O3 C8 1.250(6) .
F4 C24 1.323(8) .
F5 C24 1.342(7) .
F6 C21 1.336(9) .
F7 C24 1.338(7) .
C8 O9 1.267(6) .
C8 C17 1.494(6) .
O9 Co1 1.917(5) .
F10 C21 1.337(7) .
F11 C21 1.336(7) .
C12 C17 1.379(8) .
C12 C22 1.393(8) .
C13 O1 1.299(6) 9_564
C13 O2 1.243(6) 4_674
C13 C20 1.490(6) .
C14 C16 1.375(7) .
C14 C27 1.390(7) .
C15 C26 1.376(7) .
C15 C27 1.392(7) .
C16 C20 1.392(7) .
C17 C23 1.399(7) .
C18 C23 1.376(7) .
C18 C25 1.385(8) .
C19 C21 1.547(9) .
C19 C24 1.540(8) .
C19 C25 1.544(7) .
C19 C27 1.548(7) .
C20 C26 1.389(7) .
C22 C25 1.381(8) .
Co1 O1 1.973(4) 10_665
Co1 O9 1.917(5) 10_665
loop_
_refln_index_h
_refln_index_k
_refln_index_l
_refln_F_squared_meas
_refln_F_squared_sigma
1 -1 0 126.43 7.86
1 -1 0 115.69 7.84
1 0 0 120.06 7.84
1 0 0 114.84 7.85
1 0 0 114.87 7.84
0 1 0 116.5 7.86
0 1 0 113.71 7.85
1 -1 0 116.39 7.84
0 -1 0 124.58 7.86
0 -1 0 120.85 7.85
0 1 0 124.86 7.85
0 -1 0 118.94 7.85
-1 1 0 115.36 7.84
-1 1 0 117.3 7.84
-1 1 0 124.08 7.86
-1 0 0 120.67 7.85
-1 0 0 115.27 7.84
-1 0 0 122.66 7.84
2 -1 0 85.98 6.12
-2 1 0 93.09 6.12
-1 -1 0 93.41 6.13
-1 -1 0 93.14 6.11
-2 1 0 93.05 6.09
2 -1 0 87.22 6.09
1 1 0 86.96 6.11
-1 2 0 93.82 6.11
-1 2 0 99.61 6.12
1 1 0 92.51 6.13
1 -2 0 104.06 6.12
2 -1 0 85.78 6.1
1 -2 0 92.17 6.11
-2 0 0 915.18 62.31
0 -2 0 1000 62.32
-2 2 0 993.35 62.33
0 -2 0 951.46 62.34
2 0 0 762.22 62.29
-2 0 0 962.34 62.33
2 -2 0 993.27 62.31
-2 0 0 953.63 62.29
-2 2 0 996.12 62.3
-1 3 0 159.29 11.84
-2 -1 0 187.24 11.86
-3 2 0 182.31 11.85
-2 -1 0 186.92 11.81
3 -1 0 164.7 11.83
1 2 0 161.96 11.83
-3 1 0 199.21 11.8
-3 1 0 194.07 11.86
-3 1 0 195.71 11.83
-2 3 0 193.5 11.83
-2 3 0 157.27 11.84
-3 2 0 193.63 11.81
3 -1 0 180.79 11.8
2 1 0 164.38 11.86
2 1 0 156.2 11.83
3 -2 0 190.64 11.81
1 -3 0 156.22 11.83
-1 -2 0 198.26 11.87
-1 -2 0 182.62 11.84
2 -3 0 168.19 11.83
-1 -2 0 168.1 11.82
-2 -1 0 186.38 11.83
-1 3 0 194.78 11.84
1 2 0 168.87 11.87
1 -3 0 187.61 11.86
3 0 0 364.59 25.31
3 -3 0 361.47 25.33
0 -3 0 377.58 25.37
0 3 0 411.28 25.35
0 -3 0 398.58 25.35
-3 3 0 399.14 25.33
-3 0 0 400.14 25.31
-3 0 0 381 25.36
-3 0 0 371.03 25.33
-3 3 0 381.31 25.37
2 -4 0 11.57 1.03
-4 2 0 11.5 0.98
-2 4 0 12.14 0.9
4 -2 0 10.27 0.84
-2 -2 0 11.41 0.96
-4 2 0 13.18 0.87
-2 -2 0 12.53 0.91
-2 -2 0 12.81 1.07
2 -4 0 12.22 0.98
-1 -3 0 7.05 0.77
-3 4 0 6.97 0.57
4 -3 0 6.61 0.64
1 -4 0 6.12 0.73
-4 1 0 7.04 0.64
-4 3 0 6.86 0.57
1 -4 0 6.7 0.75
-1 -3 0 7.1 0.74
-4 3 0 6.76 0.71
-3 -1 0 6.75 0.56
-3 -1 0 6.77 0.72
-3 -1 0 6.34 0.69
-4 1 0 6.9 0.52
3 -4 0 6.69 0.67
4 -1 0 5.18 0.53
-1 4 0 6.43 0.71
-4 1 0 7.01 0.78
-4 0 0 205.33 13.5
-4 4 0 207.57 13.53
0 -4 0 209.34 13.6
0 -4 0 209.41 13.57
-4 0 0 193.68 13.54
-4 4 0 211.21 13.6
4 -4 0 200.95 13.55
-4 0 0 201.22 13.58
-2 -3 0 1.44 0.41
-5 2 0 1.87 0.46
2 -5 0 1.77 0.51
-5 3 0 1.58 0.46
-5 2 0 1.29 0.28
2 -5 0 1.25 0.45
-3 -2 0 1.53 0.34
-2 -3 0 1.53 0.51
-2 -3 0 1.77 0.46
3 -5 0 1.82 0.49
-3 -2 0 1.73 0.48
-2 5 0 1.76 0.49
-5 3 0 1.38 0.31
-3 -2 0 1.49 0.46
-3 5 0 1.77 0.46
1 -5 0 204.34 13.78
-5 4 0 212.3 13.77
-4 -1 0 208.19 13.68
-5 1 0 201.03 13.76
-5 1 0 207.38 13.72
4 -5 0 207.02 13.73
-1 -4 0 215.72 13.79
-4 -1 0 200.36 13.71
-1 5 0 205.57 13.73
-4 -1 0 200.99 13.76
1 -5 0 212.27 13.75
5 -4 0 199.68 13.71
-1 -4 0 201.94 13.74
-4 5 0 212.82 13.71
-5 4 0 219.86 13.7
0 -5 0 288.23 18.3
-5 0 0 287.25 18.33
0 -5 0 280.41 18.34
-5 5 0 294.13 18.26
-5 5 0 282.44 18.33
-5 0 0 267.11 18.27
5 -5 0 275.71 18.28
-5 0 0 236.84 18.22
-3 6 0 142.87 9.27
-6 3 0 133.86 9.32
-3 -3 0 138.64 9.29
-6 3 0 132.82 9.22
-3 -3 0 149.75 9.25
-3 -3 0 140.29 9.34
3 -6 0 135.55 9.33
3 -6 0 140.96 9.3
-2 -4 0 65.12 4.33
-2 -4 0 64.74 4.26
6 -4 0 62.06 4.23
-6 4 0 60.2 4.19
-4 -2 0 58.25 4.18
-4 -2 0 63.5 4.3
4 -6 0 63.37 4.26
2 -6 0 59.57 4.3
-4 -2 0 59.45 4.24
-6 2 0 64.8 4.3
-4 6 0 63.11 4.24
-2 -4 0 67.06 4.24
-6 2 0 54.18 4.16
-6 4 0 63.35 4.31
2 -6 0 67.2 4.29
-2 6 0 63.64 4.24
1 -6 0 11.92 1.1
1 -6 0 11.28 1.13
6 -5 0 11.8 1.04
-6 5 0 12.15 0.93
-6 1 0 9.55 0.84
-1 -5 0 12.16 1.15
-6 1 0 12.69 1.18
-1 -5 0 11.99 1.08
-5 -1 0 10.83 1
-5 6 0 12.32 0.92
5 -6 0 11.64 1.02
-5 -1 0 10.88 1.11
-5 -1 0 9.41 0.86
-6 5 0 12.4 1.11
-6 1 0 11.55 0.98
0 -6 0 36.39 2.61
-6 0 0 36.11 2.65
6 -6 0 37.04 2.57
-6 6 0 37.72 2.54
-6 0 0 33.02 2.55
0 -6 0 36.7 2.69
-6 6 0 37.38 2.67
3 -7 0 17.74 1.42
-7 3 0 14.74 1.21
7 -4 0 16.2 1.3
4 -7 0 16.38 1.38
-7 4 0 15.73 1.23
-4 -3 0 17.01 1.45
-4 -3 0 15.79 1.21
3 -7 0 16.24 1.44
-3 -4 0 18.2 1.3
-4 7 0 17.32 1.29
-3 -4 0 17.03 1.54
4 -7 0 17.2 1.46
-3 7 0 16.69 1.3
-3 -4 0 16.27 1.37
-4 -3 0 15.92 1.38
-7 4 0 16.78 1.42
-7 3 0 17.25 1.43
-7 2 0 1.05 0.56
-2 -5 0 1.44 0.62
2 -7 0 1.41 0.65
-2 -5 0 1.54 0.42
-2 -5 0 1.39 0.57
7 -5 0 1.83 0.56
-2 7 0 1.69 0.47
2 -7 0 1.49 0.71
-5 7 0 1.54 0.53
-5 -2 0 1.76 0.61
-7 5 0 1.89 0.58
-5 -2 0 1.28 0.36
-7 2 0 1.27 0.32
-7 5 0 1.39 0.41
-5 -2 0 1.83 0.58
5 -7 0 1.3 0.54
-6 -1 0 13.94 1.29
7 -6 0 15.4 1.19
-7 6 0 15.21 1.29
6 -7 0 14.84 1.21
1 -7 0 13.38 1.31
-7 1 0 10.78 0.99
-1 -6 0 13.56 1.33
-7 1 0 14.1 1.31
-7 1 0 14.52 1.21
-6 -1 0 11.09 1.02
-1 -6 0 14.31 1.28
-6 -1 0 15.25 1.22
-7 6 0 13.24 1.11
1 -7 0 14.51 1.3
-6 7 0 15.66 1.11
-7 7 0 27.8 1.93
0 -7 0 23.86 1.92
-7 0 0 31.08 2.14
7 -7 0 30.34 1.99
0 -7 0 28.45 2.1
-7 0 0 22.31 1.8
-7 0 0 27.97 1.95
-7 7 0 25.41 1.94
0 -7 0 28.24 2.05
7 -7 0 26.64 1.87
7 0 0 21.05 1.85
-7 0 0 25.06 2.02
-8 4 0 82.06 5.33
4 -8 0 86.84 5.31
-4 8 0 80.42 5.25
4 -8 0 68.93 5.2
-4 -4 0 68.71 5.23
-4 -4 0 82.92 5.37
8 -4 0 80.54 5.22
8 -4 0 71.9 5.16
-4 8 0 68.98 5.2
-8 4 0 78.6 5.16
4 -8 0 82.12 5.35
-4 -4 0 73.64 5.19
-4 -4 0 76.6 5.26
3 -8 0 16.54 1.4
-8 5 0 14.97 1.16
8 -5 0 16.54 1.29
-5 8 0 14.91 1.27
-5 -3 0 14.81 1.32
8 -5 0 14.53 1.21
3 -8 0 15.93 1.52
-3 -5 0 15.39 1.34
5 -8 0 15.96 1.44
8 -3 0 14.04 1.19
-5 -3 0 13.23 1.17
-3 8 0 15.95 1.23
-8 5 0 16.01 1.41
-8 3 0 13.94 1.12
-3 8 0 13.49 1.27
-5 -3 0 16.15 1.52
-3 -5 0 16.61 1.19
-3 -5 0 15.38 1.45
-8 3 0 13.6 1.36
5 -8 0 14.83 1.33
-8 3 0 16.01 1.4
-5 8 0 14.86 1.3
3 -8 0 14.66 1.3
-8 5 0 11.7 1.19
-3 -5 0 14.69 1.37
-2 -6 0 0.39 0.53
2 -8 0 0.41 0.49
2 -8 0 0.77 0.61
-2 -6 0 0.75 0.61
6 -8 0 0.28 0.54
-6 -2 0 0.56 0.59
-8 6 0 0.67 0.49
2 -8 0 0.52 0.65
-2 8 0 0.09 0.48
-6 8 0 0.44 0.43
-2 -6 0 0.02 0.34
-8 2 0 0.15 0.53
-6 8 0 0.61 0.42
6 -8 0 0.34 0.4
8 -2 0 0.58 0.38
-8 2 0 0.61 0.29
8 -6 0 0.74 0.55
-8 6 0 0.27 0.39
2 6 0 0.23 0.32
-6 -2 0 0.43 0.34
-8 6 0 0.27 0.55
6 2 0 0.35 0.35
-8 2 0 0.2 0.63
-2 -6 0 0.26 0.69
-6 -2 0 0.38 0.53
-6 -2 0 -0.03 0.25
8 -6 0 0.78 0.45
-2 -6 0 0.37 0.41
-6 8 0 0.41 0.34
2 6 0 0 0.27
-1 -7 0 16.31 1.56
-1 8 0 13.97 1.26
1 7 0 14.93 1.3
-8 7 0 15.99 1.44
-8 1 0 15.97 1.54
-1 -7 0 16.22 1.39
-8 1 0 16.32 1.34
8 -7 0 16.48 1.27
-7 -1 0 12.39 1.11
-8 7 0 15.1 1.3
1 -8 0 13.76 1.27
-7 8 0 16.38 1.3
-1 -7 0 16.8 1.44
1 7 0 13.63 1.19
8 -1 0 14.08 1.2
-8 7 0 14.59 1.25
7 -8 0 15.57 1.33
8 -7 0 15.91 1.34
-7 -1 0 14.64 1.37
1 -8 0 16.44 1.47
7 -8 0 14.44 1.21
7 1 0 13.95 1.18
-1 -7 0 14.29 1.27
-8 1 0 13.52 1.35
-7 -1 0 16.23 1.52
1 -8 0 16.29 1.42
-7 8 0 14.13 1.3
-7 -1 0 15.71 1.35
0 -8 0 72.85 4.93
-8 0 0 73.65 5.06
-8 8 0 72.72 4.94
-8 0 0 67.64 4.97
0 -8 0 80.72 5.07
8 -8 0 72.25 4.97
8 -8 0 75.09 4.89
-8 8 0 70.23 4.91
-8 0 0 69.31 4.94
0 -8 0 72.58 5.08
0 -8 0 70.07 4.94
0 8 0 71.97 4.88
8 0 0 67.63 4.86
0 8 0 74.1 4.95
-9 5 0 0.19 0.46
5 4 0 0.47 0.38
-5 -4 0 0.75 0.67
4 -9 0 0.51 0.59
5 4 0 -0.03 0.33
-4 9 0 0.3 0.63
-4 -5 0 0.4 0.69
5 -9 0 0.48 0.51
9 -4 0 0.85 0.42
5 -9 0 0.7 0.66
5 -9 0 0.54 0.64
-9 5 0 0.38 0.5
4 5 0 0.55 0.39
-4 -5 0 0.07 0.59
-5 9 0 0.56 0.48
-4 -5 0 0.54 0.62
-4 9 0 0.43 0.49
-9 4 0 0.14 0.62
4 5 0 0.05 0.28
-5 -4 0 0.12 0.61
-4 -5 0 0.34 0.49
9 -5 0 0.16 0.56
-9 4 0 0.44 0.66
-9 5 0 0.61 0.39
9 -5 0 0.5 0.42
-9 4 0 0.5 0.33
9 -5 0 0.05 0.25
-9 5 0 0.58 0.65
-5 9 0 0.58 0.55
-9 4 0 0.14 0.26
-5 -4 0 0.4 0.59
4 -9 0 0.42 0.69
4 -9 0 0.68 0.68
-5 -4 0 0.51 0.47
9 -6 0 7.83 0.91
-9 3 0 7.34 1.08
3 -9 0 7.15 1.09
-6 -3 0 6.58 0.73
9 -3 0 7.73 0.9
6 -9 0 7.44 1.02
-6 9 0 7.3 0.87
-3 -6 0 7.33 0.9
-3 -6 0 7.49 1.19
-9 6 0 7 0.91
-6 9 0 7.39 0.83
6 -9 0 7.72 1.17
-3 -6 0 7.65 1.15
3 -9 0 6.55 1
9 -6 0 7.69 1.02
-6 9 0 5.73 0.78
-9 6 0 6.42 0.73
-3 9 0 7.04 0.97
-3 -6 0 7.96 1.09
-6 -3 0 7.68 1.28
-6 -3 0 6.88 0.98
-9 6 0 7.63 1.09
6 -9 0 7.13 0.89
-6 -3 0 7.41 0.98
3 6 0 6.67 0.88
3 -9 0 8.1 1.17
6 3 0 7.32 0.79
3 6 0 6.95 0.78
-9 3 0 8.03 1.22
-7 -2 0 1.33 0.62
-7 -2 0 0.8 0.47
-7 9 0 1 0.51
2 -9 0 1.4 0.74
7 -9 0 0.43 0.34
9 -2 0 1.48 0.47
2 7 0 1.15 0.45
2 -9 0 1.25 0.77
7 -9 0 1.27 0.5
-7 9 0 1.52 0.54
-9 2 0 1.51 0.62
9 -7 0 1.2 0.52
-2 -7 0 1.39 0.66
-2 -7 0 1.24 0.73
-9 2 0 1.61 0.77
-7 -2 0 1.13 0.75
-7 -2 0 1.55 0.61
-7 9 0 1.1 0.57
-2 -7 0 1.47 0.54
2 7 0 1.81 0.63
2 -9 0 1.73 0.64
-9 7 0 1.22 0.57
-7 -2 0 1.01 0.35
7 2 0 1.58 0.47
-2 -7 0 2.03 0.76
-2 -7 0 1.85 0.68
-9 7 0 1.36 0.47
-9 7 0 1.85 0.68
9 -7 0 1.04 0.64
-2 9 0 1.23 0.6
7 -9 0 1.65 0.65
-9 8 0 0.45 0.56
-8 9 0 -0.02 0.62
-1 -8 0 -0.14 0.48
-9 1 0 0.34 0.62
-9 8 0 0.44 0.64
-1 -8 0 0.85 0.64
-8 -1 0 -0.06 0.46
-8 -1 0 0.44 0.61
1 -9 0 0.41 0.67
-9 1 0 0.41 0.58
1 -9 0 -0.01 0.31
-1 -8 0 0.42 0.59
8 -9 0 -0.05 0.47
9 -1 0 0.84 0.5
-8 9 0 0.27 0.43
-9 8 0 0.26 0.48
1 8 0 0.47 0.5
-1 9 0 0.04 0.5
-8 -1 0 0.52 0.69
1 -9 0 1.1 0.8
-1 -8 0 -0.18 0.74
-1 -8 0 0.75 0.76
1 8 0 0.53 0.53
-8 -1 0 -0.14 0.29
9 -8 0 -0.5 0.63
-9 1 0 0.38 0.67
1 -9 0 0.49 0.57
9 -8 0 0.47 0.48
8 1 0 0.38 0.47
-8 -1 0 0.35 0.62
8 -9 0 0.68 0.62
-9 0 0 1.26 0.67
-9 0 0 0.73 0.72
-9 0 0 0.77 0.55
0 -9 0 1.62 0.79
9 -9 0 0.93 0.48
0 9 0 0.72 0.52
0 9 0 0.96 0.6
9 0 0 1.24 0.46
0 -9 0 0.68 0.8
0 -9 0 1.53 0.62
-9 9 0 0.82 0.65
9 -9 0 1.66 0.68
9 0 0 -0.08 0.37
0 -9 0 1.13 0.62
-9 9 0 1.14 0.54
-10 5 0 142.26 10.78
10 -5 0 163.75 10.77
-5 -5 0 162.14 10.89
5 -10 0 158.6 10.89
10 -5 0 148.74 10.83
-5 10 0 166.44 10.83
-5 10 0 166.3 10.86
5 5 0 155.68 10.77
-10 5 0 164.07 10.97
-5 -5 0 154.32 10.98
5 -10 0 167.5 10.82
-5 -5 0 176.82 10.87
-10 5 0 173.38 10.9
5 -10 0 165.96 11.01
-4 -6 0 13.64 1.34
10 -6 0 17.65 1.51
-6 -4 0 15.13 1.41
-4 10 0 15.98 1.38
-4 -6 0 15.93 1.57
6 4 0 16.55 1.35
-6 10 0 17.63 1.39
-10 4 0 17.22 1.73
6 -10 0 16.5 1.6
-6 -4 0 17.19 1.77
4 -10 0 16.48 1.78
-4 -6 0 18.77 1.55
4 6 0 15.16 1.44
4 6 0 14.86 1.34
6 -10 0 16.95 1.64
6 -10 0 16.1 1.43
-10 4 0 15.27 1.47
-10 4 0 12.48 1.26
-6 10 0 17.31 1.45
-10 6 0 16.58 1.61
-10 6 0 14.69 1.49
10 -4 0 16.7 1.38
-4 -6 0 15.95 1.77
4 -10 0 16.25 1.68
10 -6 0 16.89 1.38
-6 -4 0 13.83 1.55
-10 6 0 14.64 1.36
4 -10 0 15.98 1.39
-7 10 0 2.86 0.67
7 3 0 3.05 0.55
10 -7 0 3.41 0.7
-10 3 0 1.67 0.8
-3 -7 0 2.57 0.69
3 7 0 3.17 0.58
-7 -3 0 3.05 0.69
7 -10 0 2.96 0.88
-7 -3 0 2.44 0.79
-7 -3 0 1.83 0.57
7 -10 0 2.7 0.78
-3 -7 0 2.4 0.57
-3 -7 0 3.27 0.85
-3 -7 0 1.97 0.85
-3 10 0 3.27 0.64
-7 10 0 1.84 0.77
3 7 0 3.1 0.69
10 -3 0 3.22 0.57
-3 -7 0 3.97 0.79
10 -7 0 2.92 0.57
3 -10 0 3.81 0.69
-10 7 0 2.82 0.66
3 -10 0 3.89 0.92
-7 10 0 3.71 0.7
7 -10 0 3.57 0.6
-10 3 0 3.83 0.8
-10 7 0 2.94 0.81
7 -10 0 3.2 0.71
3 -10 0 2.64 0.93
-7 -3 0 2.01 0.84
8 -10 0 4.04 0.85
10 -2 0 4.44 0.64
2 -10 0 3.77 0.89
-2 10 0 4.86 0.75
-8 10 0 3.59 0.74
-8 -2 0 3.05 0.91
-10 2 0 4.15 0.9
2 -10 0 3.63 0.96
-10 8 0 2.95 0.85
-8 -2 0 3.7 0.77
8 -10 0 3.65 0.61
-2 -8 0 4.51 0.71
2 8 0 4.38 0.63
10 -8 0 4.29 0.86
-2 -8 0 3.21 0.96
-8 10 0 3.92 0.79
2 -10 0 5.75 0.82
-10 2 0 5.18 0.88
10 -8 0 4.95 0.67
8 2 0 4.52 0.65
8 -10 0 3.85 0.66
2 8 0 4.14 0.79
-2 -8 0 4.08 0.73
-10 8 0 4.88 0.77
-8 -2 0 3.92 0.78
-2 -8 0 5.69 0.87
-2 -8 0 3.61 0.99
1 -10 0 23.67 2.06
9 -10 0 23.72 2.02
-10 9 0 25.12 1.98
-9 -1 0 20.4 2.05
-1 -9 0 24.99 1.87
-1 -9 0 19.97 2.12
-1 -9 0 24.25 1.94
9 -10 0 25.12 1.86
-9 10 0 25.7 2
1 -10 0 25.74 1.93
-10 1 0 22.77 1.93
9 1 0 24.2 1.84
1 9 0 26.09 1.97
1 9 0 23.78 1.85
-1 -9 0 27.01 1.93
-9 -1 0 22.78 1.92
10 -9 0 24.39 1.86
1 -10 0 22.27 1.86
-10 1 0 22.48 2.14
10 -1 0 22.85 1.8
-1 10 0 24.42 1.9
10 -9 0 21.47 1.91
1 -10 0 22.31 2.16
-1 -9 0 22.77 2.03
0 -10 0 9.85 1.4
10 0 0 11.28 1.2
-10 0 0 11.68 1.28
0 -10 0 12.38 1.17
-10 10 0 13.21 1.34
0 -10 0 13.61 1.33
0 -10 0 15 1.34
0 10 0 13.35 1.3
10 -10 0 12.81 1.23
-6 -5 0 -0.08 0.76
-11 6 0 0.19 0.77
5 -11 0 -0.06 0.79
6 5 0 0.59 0.59
5 6 0 0.37 0.47
-6 -5 0 -0.33 0.68
-11 5 0 0.74 0.77
-11 5 0 0.18 0.56
-5 -6 0 -0.21 0.78
11 -5 0 0.12 0.54
6 -11 0 -0.03 0.77
11 -5 0 0.59 0.51
-11 5 0 0.3 0.65
5 -11 0 -0.06 0.76
-11 6 0 0.13 0.53
-6 -5 0 0.42 0.58
11 -6 0 0.03 0.56
-5 -6 0 0.22 0.6
-5 11 0 1.04 0.56
-11 6 0 0.48 0.71
6 5 0 0.6 0.52
6 -11 0 0.4 0.58
11 -6 0 0.69 0.48
-5 -6 0 0.65 0.66
-6 11 0 0.23 0.5
-6 11 0 0.23 0.42
-6 11 0 0.71 0.61
6 -11 0 0.44 0.73
-5 -6 0 0.21 0.3
5 -11 0 0.48 0.63
5 6 0 0.36 0.62
11 -5 0 0.5 0.47
11 -6 0 0.21 0.5
11 -4 0 53.83 3.68
-11 4 0 47.07 3.65
-11 4 0 54.58 3.94
-7 -4 0 58.67 3.79
-11 7 0 51.28 3.73
-11 7 0 48.32 3.76
11 -7 0 59.85 3.71
-4 -7 0 44.86 3.94
-7 11 0 57.44 3.76
7 -11 0 56.8 3.68
4 -11 0 52.64 3.72
4 7 0 52.03 3.68
-4 -7 0 55.22 3.77
7 -11 0 58.02 3.76
4 -11 0 56.05 4.02
-4 -7 0 44.94 3.8
7 -11 0 49.67 3.82
4 7 0 53.62 3.78
7 -11 0 57.43 4.02
-7 -4 0 47.1 3.91
-4 -7 0 44.54 3.67
-7 11 0 52.17 3.77
4 -11 0 49.56 3.83
-11 4 0 57.71 3.82
-4 11 0 58.61 3.78
-11 7 0 53.96 3.93
-7 11 0 48.79 3.77
7 4 0 55.12 3.68
-8 11 0 10.35 1.17
8 -11 0 9.54 1.01
-8 -3 0 6.44 1.18
3 8 0 9.7 1.21
8 -11 0 10.02 1.39
3 8 0 8.64 0.99
-8 11 0 9.73 1.12
3 -11 0 10.09 1.15
11 -3 0 9.82 1.1
-8 -3 0 9.97 1.19
-8 -3 0 8.33 1.1
-3 11 0 10.08 1.16
3 -11 0 8.17 1.26
-11 3 0 10.65 1.19
-3 -8 0 9.94 1.2
-3 -8 0 9.26 1.11
8 -11 0 9.47 1.13
-11 8 0 9.89 1.31
11 -8 0 10.61 1.1
8 3 0 9.55 0.97
8 -11 0 9.79 1.19
-11 3 0 8.67 1.27
3 -11 0 9.88 1.38
-3 -8 0 7.52 1.16
-11 8 0 8.44 1.16
8 3 0 6.87 0.95
-2 -9 0 21.62 1.87
2 -11 0 24.83 1.85
-9 11 0 24.54 1.89
-11 2 0 23.08 1.88
-9 -2 0 18.01 1.76
2 9 0 23.42 1.79
-2 11 0 24.09 1.89
2 -11 0 17.98 1.89
-11 9 0 18.16 1.91
2 9 0 22.84 1.84
9 2 0 20.15 1.7
-2 -9 0 22.26 1.82
11 -2 0 21.92 1.73
-9 -2 0 22.24 1.84
-11 9 0 23.3 1.89
9 -11 0 20.88 1.75
11 -9 0 24.81 1.8
9 -11 0 23.19 1.73
1 -11 0 61.69 4.25
1 10 0 57.16 4.19
-11 1 0 58.8 4.31
-10 11 0 64.65 4.31
10 -11 0 61.87 4.21
11 -1 0 54.78 4.17
10 1 0 54.59 4.17
1 10 0 68.21 4.35
1 -11 0 56.69 4.24
-10 -1 0 56.49 4.31
-1 -10 0 67.59 4.29
-1 11 0 67.3 4.33
-11 10 0 61.9 4.29
11 -10 0 62.54 4.22
-1 -10 0 57.88 4.28
-11 11 0 23.28 1.93
0 -11 0 21.28 1.8
-11 0 0 20.68 1.86
11 0 0 19.89 1.75
0 -11 0 21.44 1.85
0 11 0 22.99 1.92
11 -11 0 21.46 1.76
-12 6 0 102.35 6.42
6 -12 0 91.64 6.31
-6 12 0 94.57 6.32
6 6 0 86.22 6.24
12 -6 0 97.88 6.27
-6 -6 0 95.38 6.33
-12 6 0 84.85 6.26
6 6 0 85.63 6.34
7 -12 0 11.22 1.33
5 -12 0 11.27 1.29
7 5 0 12.31 1.24
12 -7 0 12.9 1.19
-12 5 0 13.86 1.39
5 7 0 11.69 1.16
5 7 0 11.1 1.35
12 -5 0 13.15 1.22
7 5 0 9.74 1.33
-7 12 0 12.11 1.35
-12 7 0 11.81 1.31
-5 -7 0 13.47 1.31
-7 -5 0 14.1 1.37
7 -12 0 13.06 1.28
-12 5 0 11.91 1.24
-12 7 0 11.35 1.32
12 -7 0 10.92 1.3
-5 12 0 14.45 1.35
-7 12 0 12.71 1.32
-4 -8 0 56.47 4.26
-8 -4 0 57.69 4.3
12 -8 0 65.9 4.25
8 4 0 55.5 4.21
8 -12 0 62.9 4.29
-8 12 0 60.05 4.34
-4 -8 0 70.32 4.37
12 -4 0 60.72 4.25
-8 12 0 60.91 4.27
-4 12 0 67.04 4.33
12 -8 0 54.38 4.29
-12 8 0 55.71 4.34
-8 -4 0 65.77 4.32
-12 4 0 67.45 4.4
4 8 0 59.07 4.22
4 -12 0 64.66 4.3
8 -12 0 62.39 4.22
4 8 0 57.15 4.32
-12 8 0 55.6 4.25
-3 -9 0 5.12 0.85
9 -12 0 6.01 0.8
3 -12 0 6.11 1.02
-9 -3 0 5.83 0.95
-9 12 0 4.75 0.89
9 -12 0 4.65 0.83
-12 9 0 5.12 0.89
-9 -3 0 4.93 0.85
-12 3 0 7.08 0.99
12 -9 0 5.26 0.75
9 3 0 5.08 0.75
-3 12 0 6.41 0.92
-3 -9 0 6.07 1.12
3 9 0 5.84 0.95
3 9 0 4.92 0.78
12 -3 0 5.8 0.83
-2 -10 0 1.9 0.73
2 10 0 2.23 0.66
-2 -10 0 2.95 0.76
-10 -2 0 2.13 0.78
10 -12 0 2 0.64
-12 10 0 2.52 0.72
-12 2 0 3.8 0.88
12 -10 0 2.28 0.6
2 -12 0 2.96 0.77
10 2 0 2.13 0.57
10 2 0 0.84 0.49
-10 12 0 2.42 0.81
-2 12 0 2.56 0.8
12 -2 0 1.88 0.64
2 10 0 2.09 0.78
-10 -2 0 1.95 0.67
10 -12 0 2.33 0.6
11 1 0 2.18 0.63
1 -12 0 2.72 0.77
1 -12 0 4.29 0.86
11 -12 0 3.82 0.71
-1 -11 0 2.33 0.76
-11 12 0 3.61 0.86
-12 1 0 4.51 0.94
-1 12 0 3.21 0.85
-1 -11 0 3.96 0.84
12 -1 0 2.83 0.68
-11 -1 0 3.52 0.88
1 11 0 4.31 0.89
12 -11 0 2.97 0.66
-12 11 0 4.4 0.89
0 12 0 34.84 2.56
0 -12 0 32.11 2.45
-12 0 0 30.48 2.51
12 -12 0 29.15 2.31
12 0 0 27.89 2.3
-12 12 0 31.28 2.51
0 -12 0 30.2 2.44
7 6 0 45.53 3.4
-7 13 0 51.02 3.52
-13 7 0 46.54 3.47
7 6 0 42 3.51
-13 6 0 44.54 3.45
-13 7 0 47.04 3.6
13 -7 0 52.65 3.44
6 -13 0 47.97 3.49
-6 -7 0 51.65 3.55
-7 -6 0 53.58 3.57
7 -13 0 50.92 3.44
13 -6 0 52.54 3.45
-13 6 0 52.98 3.59
6 7 0 44.45 3.53
7 -13 0 50.19 3.53
-6 13 0 49.92 3.52
6 7 0 47.28 3.44
13 -7 0 39.3 3.47
13 -5 0 119.11 7.46
-8 13 0 116.07 7.5
13 -8 0 98.05 7.49
-13 5 0 117.62 7.57
13 -8 0 117.17 7.45
5 8 0 103.06 7.41
-13 8 0 104.25 7.57
8 5 0 104.8 7.41
8 -13 0 116.67 7.5
5 -13 0 113.7 7.49
-8 -5 0 119.52 7.53
-5 -8 0 91.3 7.43
-5 13 0 115.93 7.52
8 -13 0 114.79 7.44
-13 8 0 105.8 7.46
5 8 0 104.35 7.53
-13 5 0 93.19 7.4
-8 13 0 112.44 7.55
-5 -8 0 121.85 7.55
13 -9 0 8.48 1.1
-9 -4 0 7.28 1.15
-9 -4 0 6.4 1.14
13 -4 0 7.31 1.05
13 -9 0 6.47 1.15
4 9 0 6.65 1.1
-4 -9 0 6.41 1.14
4 -13 0 7.46 1.03
-13 4 0 8.23 1.28
4 9 0 7.94 1.25
-4 -9 0 8.5 1.26
-13 9 0 7.22 1.19
9 4 0 5.86 1.07
-4 13 0 8.2 1.19
9 4 0 6.73 1.08
9 -13 0 7.47 1.16
9 -13 0 6.84 1.07
-9 13 0 9 1.36
-13 9 0 7.9 1.1
-13 3 0 43.94 3.27
3 10 0 43.24 3.25
-13 10 0 43.11 3.17
10 3 0 40.24 3.07
10 -13 0 43.81 3.12
3 -13 0 41.43 3.15
-10 13 0 43.12 3.23
-3 13 0 47.28 3.24
10 -13 0 38.31 3.14
13 -3 0 44.82 3.14
-3 -10 0 38.68 3.15
3 10 0 44.09 3.13
13 -10 0 45.44 3.12
-3 -10 0 45.38 3.24
-10 -3 0 41.71 3.22
11 -13 0 9.97 1.2
2 -13 0 12.02 1.27
-11 13 0 13.66 1.46
2 11 0 12.06 1.46
-2 13 0 12.8 1.46
13 -2 0 11.43 1.24
13 -11 0 12.01 1.21
-11 -2 0 12.18 1.47
11 2 0 10.51 1.2
-2 -11 0 12.57 1.47
-13 11 0 10.96 1.33
-13 2 0 12.43 1.46
-2 -11 0 11.66 1.38
11 -13 0 11.58 1.29
2 11 0 10.33 1.21
1 -13 0 4.44 0.88
13 -1 0 4.73 0.84
-1 -12 0 5.07 0.95
1 -13 0 4.07 0.85
-13 12 0 4.31 0.92
-12 -1 0 5.45 1.02
-1 13 0 5.42 1.04
-12 13 0 4.16 0.94
12 -13 0 4.76 0.8
1 12 0 4.35 0.96
12 1 0 3.89 0.8
-1 -12 0 4.55 0.91
-13 1 0 4.79 0.97
13 -12 0 4.77 0.79
0 -13 0 97.03 7.09
-13 0 0 104.75 7.19
13 -13 0 100.7 7.04
-13 13 0 107.67 7.16
0 -13 0 106.46 7.11
13 0 0 95.35 7.01
0 13 0 111.69 7.21
14 -7 0 13.32 1.33
7 -14 0 13.24 1.32
7 -14 0 13.24 1.46
-7 -7 0 14.2 1.5
7 7 0 10.12 1.41
-14 7 0 12.4 1.39
14 -7 0 9.86 1.35
7 7 0 11.28 1.32
-7 14 0 13.32 1.41
-14 7 0 11.61 1.53
-6 14 0 32.36 2.45
8 -14 0 32.41 2.47
8 6 0 30.82 2.37
-14 8 0 30.57 2.44
6 8 0 28.6 2.49
-14 6 0 27.35 2.35
6 -14 0 30.46 2.42
14 -8 0 25.37 2.4
-8 14 0 29.13 2.47
-6 -8 0 32.3 2.49
14 -6 0 32.31 2.37
14 -8 0 33.66 2.4
8 6 0 26.6 2.43
-14 6 0 32.62 2.52
-14 8 0 27.85 2.47
-8 14 0 32.42 2.45
6 8 0 30.11 2.36
8 -14 0 33.13 2.4
-8 -6 0 32.28 2.49
-14 9 0 4.74 1.04
14 -9 0 5.46 0.84
-5 -9 0 3.44 0.77
-9 -5 0 4.41 0.9
5 9 0 3.4 0.9
-14 9 0 4.98 0.95
-14 5 0 5.9 1.07
9 5 0 4.22 0.8
-5 -9 0 6.14 0.98
-5 14 0 6.41 0.98
5 -14 0 4.54 0.83
9 -14 0 5.1 0.85
5 9 0 4.31 0.83
14 -5 0 4.56 0.84
9 -14 0 4.79 0.96
-9 14 0 4.3 1.04
-14 5 0 2.72 0.63
14 -9 0 2.68 0.81
14 -4 0 48.8 3.33
14 -10 0 47.9 3.32
-14 4 0 47.56 3.45
-14 10 0 47.92 3.41
-4 -10 0 43.01 3.36
4 10 0 45.09 3.3
-10 -4 0 39 3.34
10 -14 0 44.31 3.37
-4 14 0 49.23 3.43
4 10 0 44.45 3.45
14 -10 0 40.06 3.39
4 -14 0 43.4 3.31
-10 -4 0 43.57 3.4
-10 14 0 49.22 3.53
-4 -10 0 50.05 3.44
10 -14 0 48.2 3.32
10 4 0 46.28 3.32
11 3 0 0.11 0.48
3 11 0 0.09 0.72
11 3 0 0.28 0.63
3 11 0 -0.13 0.65
-3 -11 0 0.01 0.71
11 -14 0 0.09 0.69
-11 14 0 0.59 0.78
-14 11 0 0.44 0.76
3 -14 0 0.07 0.7
-3 14 0 0.29 0.78
14 -3 0 -0.05 0.49
14 -3 0 0.84 0.66
-14 3 0 1.63 0.84
-3 -11 0 1.05 0.82
11 -14 0 0.64 0.6
-11 -3 0 0.39 0.71
14 -11 0 0.15 0.6
-11 -3 0 0.57 0.78
-14 2 0 10.8 1.4
-14 12 0 10.45 1.46
2 -14 0 11.4 1.37
14 -12 0 10.56 1.29
-2 14 0 11.47 1.39
-12 -2 0 10.61 1.51
-2 -12 0 10.71 1.54
-2 -12 0 9.94 1.35
12 -14 0 11.14 1.23
-12 14 0 12.17 1.59
2 12 0 10.56 1.52
14 -2 0 10.5 1.38
12 2 0 10.38 1.33
14 -1 0 0.07 0.67
-13 14 0 0.06 0.81
-1 -13 0 0.4 0.84
-1 14 0 0.32 0.79
-14 13 0 0.39 0.83
14 -13 0 0.04 0.61
-14 1 0 0.22 0.77
13 1 0 0 0.68
-1 -13 0 0.59 0.75
1 13 0 -0.28 0.76
-13 -1 0 0.72 0.87
1 -14 0 0.35 0.72
1 -14 0 0.91 0.76
13 -14 0 -0.03 0.6
-14 0 0 1.08 0.92
0 -14 0 1 0.82
0 -14 0 0.84 0.82
-14 14 0 0.11 0.44
14 -14 0 0.82 0.7
-14 14 0 0.26 0.82
14 0 0 -0.05 0.64
0 14 0 0.46 0.88
7 8 0 18.36 2.05
8 7 0 22.69 1.99
8 7 0 18.4 1.99
-7 -8 0 24.8 2.11
-15 8 0 19.71 2.16
7 8 0 23.46 1.97
-8 -7 0 25.98 2.13
7 -15 0 25.73 2.05
15 -7 0 25.08 2.05
8 -15 0 26.35 2.03
8 -15 0 22.48 2.06
15 -8 0 25.34 2.05
-15 8 0 23.34 2.04
-15 7 0 22.26 2.07
-8 15 0 24.05 1.99
7 -15 0 23.41 2.05
-7 15 0 24.69 2.06
-15 7 0 21.54 1.97
-15 6 0 49.4 4.18
15 -9 0 65.3 4.28
-15 9 0 52.44 4.38
-9 -6 0 63.53 4.34
6 9 0 52.53 4.35
15 -6 0 65.16 4.3
-6 -9 0 64.05 4.36
9 6 0 57.07 4.2
-15 6 0 67.72 4.41
-6 15 0 61.9 4.33
-9 15 0 57.2 4.36
-15 9 0 59.78 4.31
6 -15 0 59.13 4.28
6 9 0 58.63 4.21
9 -15 0 59.45 4.3
9 -15 0 63.85 4.25
5 10 0 4.59 0.85
15 -10 0 7.42 0.98
-15 10 0 7.12 1.1
15 -5 0 5.46 0.91
10 -15 0 8.05 1.02
10 -15 0 6.52 1.06
5 10 0 5.23 1.04
-5 -10 0 7.9 1.32
-5 -10 0 4.2 0.85
15 -10 0 5.41 1.03
-10 -5 0 6.28 1.05
-15 5 0 8.33 1.22
-10 15 0 6.38 1.14
-15 10 0 3.21 0.95
10 5 0 4.52 0.83
-4 -11 0 10.35 1.44
-11 -4 0 7.74 1.37
4 11 0 8.52 1.43
11 -15 0 9.15 1.31
4 11 0 7.99 1.26
-11 -4 0 6.88 1.3
4 -15 0 7.4 1.22
11 -15 0 8.72 1.17
-11 15 0 8.11 1.25
-15 11 0 10.84 1.31
-4 15 0 8.31 1.35
15 -11 0 8.42 1.22
11 4 0 8.21 1.28
-4 -11 0 9.02 1.3
15 -11 0 7.56 1.19
15 -4 0 8.94 1.22
-15 4 0 9.52 1.45
15 -3 0 0.79 0.68
-12 -3 0 0.89 0.84
-12 -3 0 -0.04 0.73
-3 15 0 0 0.83
15 -12 0 0.93 0.79
-3 -12 0 1.23 0.79
3 12 0 0.59 0.82
-3 -12 0 1.41 0.89
-12 15 0 0.57 0.91
12 3 0 0.3 0.68
-15 3 0 0.82 0.79
12 -15 0 0.68 0.69
12 -15 0 0.2 0.55
3 -15 0 0.79 0.74
-15 12 0 0.44 0.83
-15 12 0 0.03 0.53
15 -12 0 0.26 0.64
2 -15 0 13.93 1.57
-15 13 0 11.57 1.38
-2 -13 0 15.41 1.73
-13 -2 0 13.04 1.72
-15 2 0 14.58 1.7
-15 13 0 15.11 1.71
15 -2 0 13.3 1.46
2 13 0 13.89 1.72
13 2 0 12.62 1.51
-2 15 0 15.75 1.78
13 -15 0 13.32 1.53
-2 -13 0 12.69 1.54
-13 15 0 15.14 1.72
15 -13 0 13.2 1.49
-1 -14 0 3.79 0.92
-14 15 0 4.3 1.08
-15 1 0 4.74 1.04
15 -14 0 5.26 0.93
-15 14 0 7.08 1.2
-14 15 0 4.33 0.82
15 -1 0 3.02 0.83
-1 15 0 4.2 1.03
1 14 0 5.23 1.14
-15 1 0 4.34 0.8
14 1 0 4.06 0.9
14 -15 0 4.37 0.84
-15 14 0 4.35 0.86
-1 -14 0 5.1 1.06
-14 -1 0 6 1.21
1 -15 0 5.16 1.03
0 15 0 -0.04 0.3
0 15 0 0.29 0.9
-15 0 0 1.23 0.69
0 -15 0 0.77 0.78
-15 15 0 0.19 0.92
15 0 0 0.49 0.44
-15 0 0 0.74 0.98
0 -15 0 0.46 0.78
15 0 0 0.64 0.76
15 -15 0 0.38 0.76
-15 15 0 0.85 0.79
-8 -8 0 48.08 3.51
-8 16 0 49.21 3.49
16 -8 0 48.92 3.41
-16 8 0 41.2 3.55
-16 8 0 41.14 3.4
8 -16 0 46.24 3.45
8 8 0 46.53 3.4
16 -9 0 7.56 1.22
7 9 0 5.01 0.92
7 -16 0 7.29 1.28
9 -16 0 5.63 0.97
-7 -9 0 8.8 1.42
-9 -7 0 8.78 1.44
9 -16 0 7.88 1.19
9 7 0 5.85 0.95
16 -7 0 7.29 1.06
7 9 0 6.13 1.11
-16 9 0 6.19 1.06
-16 9 0 5.1 1.17
-7 16 0 8.26 1.15
-16 7 0 7.27 1.23
7 -16 0 6.71 1.03
10 6 0 0.53 0.72
-6 16 0 0.83 0.77
16 -6 0 0.67 0.83
-16 6 0 0.83 0.95
10 -16 0 0.61 0.82
-6 -10 0 1.6 0.86
-6 -10 0 -0.71 0.63
10 -16 0 0.34 0.75
16 -10 0 1.08 0.81
6 -16 0 0.79 0.82
16 -6 0 -0.04 0.45
-10 16 0 0.55 0.83
-10 -6 0 0.94 0.85
16 -10 0 -0.08 0.73
10 6 0 0.02 0.59
6 10 0 0.75 0.77
16 -10 0 -0.15 0.38
-16 10 0 0.2 0.83
-16 10 0 -0.02 0.83
6 10 0 0.36 0.84
11 -16 0 17.49 1.72
16 -11 0 16.72 1.57
11 -16 0 15.29 1.78
-11 -5 0 13.58 1.7
16 -11 0 12.84 1.74
-11 16 0 16.51 1.99
16 -5 0 16.47 1.73
11 5 0 16.57 1.69
5 -16 0 16.61 1.68
5 11 0 15.5 1.79
-5 -11 0 19.23 1.87
-5 16 0 17.54 1.81
-16 11 0 15.42 1.68
-16 5 0 18.05 1.89
16 -11 0 14.74 1.36
5 11 0 16.06 1.69
-16 4 0 0.41 0.66
-4 -12 0 -1.03 0.65
-4 -12 0 1.6 0.92
-12 16 0 -0.3 0.9
16 -4 0 0.12 0.73
-12 -4 0 0.39 0.79
4 12 0 0.06 0.9
16 -12 0 0.22 0.53
-16 12 0 -0.35 0.76
-12 -4 0 -0.33 0.78
16 -12 0 0.4 0.66
4 -16 0 -0.05 0.8
-4 -12 0 0.62 0.73
-16 4 0 1.02 0.96
4 12 0 0.42 0.74
16 -12 0 0.13 0.81
12 4 0 -0.23 0.73
12 -16 0 -0.52 0.66
-4 16 0 -0.43 0.79
-16 12 0 -0.1 0.67
16 -4 0 0.19 0.36
12 -16 0 0.1 0.67
16 -13 0 10.59 1.37
-13 16 0 10.91 1.73
-3 -13 0 9.4 1.38
16 -13 0 8.11 1.45
-16 3 0 10.73 1.52
3 -16 0 10.16 1.43
-3 16 0 11.7 1.6
-16 13 0 10.1 1.58
-3 -13 0 11.87 1.62
-16 13 0 9.82 1.41
16 -13 0 8.15 1.12
13 -16 0 10.17 1.42
16 -3 0 9.24 1.46
-13 -3 0 10.44 1.55
13 3 0 9.53 1.4
-16 3 0 11.2 1.39
3 13 0 9.89 1.6
16 -3 0 7.29 1.01
-16 14 0 9.65 1.32
2 14 0 5.72 1.23
16 -14 0 6.22 1.21
2 -16 0 8.7 1.36
16 -2 0 8.08 1.16
-2 -14 0 7.24 1.16
-2 16 0 8.52 1.3
16 -2 0 7.11 1.05
-16 2 0 8.28 1.54
-14 -2 0 6.72 1.24
16 -14 0 6.69 0.84
14 -16 0 7.19 1.09
-14 16 0 8.48 1.32
14 2 0 7.94 1.12
16 -14 0 6.81 1.02
-16 2 0 8.31 1.3
-16 14 0 8.32 1.08
-2 -14 0 8.9 1.29
-14 16 0 6.17 1.23
1 15 0 4.28 0.64
-15 16 0 5.48 1.19
-16 1 0 6.73 1.22
15 1 0 6.25 1.01
-1 -15 0 8.2 1.44
16 -15 0 6.17 0.78
-1 16 0 4.23 0.68
-1 16 0 4.61 1.11
15 1 0 4.85 0.76
-16 1 0 6.71 0.96
-16 15 0 8.87 1.33
-15 -1 0 6.68 0.94
-1 -15 0 5.75 1.08
1 15 0 4.45 1.09
16 -15 0 7.48 1.05
15 -16 0 6.48 1.06
-16 15 0 7.78 1.04
16 -1 0 7.53 1.1
16 -1 0 5.31 0.8
-15 16 0 9.54 1.42
1 -16 0 6.96 1.14
-15 -1 0 7.78 1.29
16 -16 0 10.52 1.21
16 0 0 9.6 1.34
0 -16 0 10.44 1.53
-16 16 0 11.95 1.57
16 -16 0 10.55 1.49
-16 16 0 12.39 1.79
16 0 0 10.3 1.56
-16 0 0 11.68 1.53
-16 0 0 11.33 1.68
0 16 0 10.53 1.72
0 16 0 10.21 1.17
17 -9 0 2.46 0.91
17 -8 0 1.97 0.69
17 -9 0 2.83 0.68
8 -17 0 2.41 0.79
9 8 0 2.13 0.83
-8 -9 0 3.54 1.06
8 9 0 2.45 0.87
8 -17 0 2.97 0.93
-17 8 0 1.77 1
8 -17 0 1.42 0.57
-17 9 0 1.47 0.95
9 -17 0 2.97 0.97
-9 -8 0 2.65 0.86
-8 17 0 4.11 1
9 -17 0 3.62 0.93
-8 -9 0 2.66 0.89
-17 9 0 2.79 0.94
-9 -8 0 4.22 1.09
17 -8 0 2.82 0.96
7 10 0 0.65 0.8
10 -17 0 0.14 0.86
17 -10 0 0.31 0.6
-17 10 0 -0.62 0.83
-17 10 0 0.33 0.84
17 -7 0 0.29 0.85
-17 7 0 -0.87 0.55
7 -17 0 0.65 0.85
7 -17 0 0.45 0.76
-7 -10 0 1.54 0.86
7 10 0 0.54 0.69
7 -17 0 0 0.54
-10 -7 0 0.82 0.92
17 -10 0 0.59 0.8
17 -7 0 0.17 0.6
17 -10 0 0 0.6
-17 7 0 0.93 0.99
10 -17 0 1 0.84
-7 17 0 0.31 0.86
-7 -10 0 0.59 0.95
-7 17 0 -0.05 0.44
10 7 0 0.14 0.77
-11 -6 0 11.08 1.56
-17 6 0 11.42 1.49
11 6 0 11.98 1.53
-6 17 0 9.15 1.12
17 -6 0 11.13 1.56
-6 -11 0 14.05 1.7
17 -11 0 12.31 1.56
6 -17 0 11.24 1.52
17 -6 0 12.47 1.3
6 11 0 10.21 1.54
-6 -11 0 13.31 1.65
-17 6 0 13.09 1.63
-17 11 0 11.84 1.64
-6 17 0 11.82 1.61
11 -17 0 12.41 1.61
17 -11 0 11.91 1.33
6 11 0 11.94 1.51
-17 11 0 10.61 1.33
11 -17 0 13.92 1.61
12 5 0 24.36 2.11
-12 17 0 24.62 2.32
5 -17 0 23.88 2.13
-17 5 0 22.1 2.05
-12 -5 0 19.47 2.12
-5 17 0 26.93 2.28
-5 -12 0 23.46 2.2
-5 17 0 20.92 1.82
12 -17 0 25.76 2.15
12 -17 0 20.7 1.99
17 -12 0 25.24 1.89
17 -12 0 22.8 2.07
17 -5 0 25.02 2.18
5 12 0 22.53 2.08
-17 12 0 24.11 2.21
-17 12 0 22.79 2.04
5 12 0 17.97 2.16
-17 5 0 23.43 2.22
-5 -12 0 25.26 2.26
17 -5 0 22.89 1.92
17 -13 0 1.25 0.77
-4 17 0 2.72 1.03
17 -13 0 2.3 0.64
-17 13 0 2.89 0.85
13 4 0 2.31 0.86
-4 -13 0 4.02 0.95
-4 17 0 1.42 0.58
-17 4 0 3.04 1.07
17 -13 0 2.22 0.82
4 13 0 2.44 0.96
13 4 0 1.78 0.51
-17 13 0 2.4 1.01
-4 -13 0 2.92 1
13 -17 0 2.15 0.85
-13 17 0 2.5 1.12
4 -17 0 2.69 0.9
-17 4 0 3.11 0.82
17 -4 0 2.04 0.86
17 -4 0 2.9 0.67
-17 14 0 1.16 0.79
17 -3 0 0.64 0.62
-14 17 0 0.98 0.76
-17 3 0 1.08 0.93
-3 -14 0 1.93 0.95
-14 17 0 0.7 0.99
-17 3 0 1.74 0.79
-3 17 0 1.55 1.04
14 3 0 0.8 0.8
17 -14 0 0.7 0.6
-3 -14 0 1.03 0.9
17 -3 0 0.65 0.86
14 3 0 0.73 0.56
14 -17 0 1.45 0.84
17 -14 0 0.73 0.73
-3 17 0 0.45 0.56
3 14 0 0.58 0.41
3 14 0 1.08 0.93
17 -14 0 0.7 0.7
-17 14 0 0.95 0.93
-14 -3 0 0.17 0.82
3 -17 0 2.02 0.91
-3 -14 0 0.73 0.67
17 -2 0 19.97 1.72
15 -17 0 22.13 1.99
-2 -15 0 17.53 1.86
-15 -2 0 16.45 1.79
-2 17 0 18.76 1.67
-17 15 0 21.22 1.92
-17 2 0 20.36 2.1
-2 -15 0 16.91 2.03
-2 17 0 20.54 2.18
17 -2 0 19.56 1.98
2 -17 0 19.2 2.01
15 2 0 18.73 1.71
2 15 0 19.35 2.04
-15 17 0 20.26 2.14
-17 2 0 19.97 1.91
17 -15 0 20.18 1.64
17 -15 0 17.03 1.83
-2 -15 0 19.97 2.02
15 2 0 18.54 1.91
-15 17 0 19.98 1.92
-17 15 0 20.57 2.09
2 15 0 18.8 1.59
-15 -2 0 18.55 2.07
-16 -1 0 0.16 0.87
16 1 0 0.1 0.64
17 -1 0 0.38 0.79
1 -17 0 1.01 0.9
-16 17 0 0.93 1.06
-17 1 0 1.26 0.77
-17 1 0 0.38 1.03
-1 17 0 0.38 0.92
17 -16 0 -0.19 0.79
16 -17 0 0.36 0.77
1 16 0 0 0.56
17 -16 0 0.13 0.57
-1 -16 0 0.78 0.75
-16 -1 0 0.69 0.73
-17 16 0 0.9 0.78
1 16 0 0.34 0.82
17 -1 0 0.87 0.66
16 1 0 0.61 0.75
-17 16 0 -0.36 0.93
-1 17 0 0.78 0.61
17 -16 0 -0.24 0.65
-16 17 0 0.1 0.82
-17 0 0 20.73 1.99
-17 17 0 24.99 2.02
17 -17 0 22.45 1.78
-17 17 0 20.78 2.22
0 17 0 20.29 1.77
0 -17 0 17.16 1.92
17 -17 0 20.95 2.02
17 0 0 23.56 1.84
-17 0 0 20.82 2.18
18 -9 0 9.92 1.36
-18 9 0 7.31 1.36
-9 -9 0 13.53 1.73
9 -18 0 12.77 1.56
9 -18 0 10.53 1.5
9 9 0 10.35 1.49
9 -18 0 10.15 1.22
18 -9 0 9.88 1.6
-9 -9 0 12.13 1.68
-18 10 0 18.5 1.88
8 -18 0 18.72 1.82
10 -18 0 18.86 1.86
-18 8 0 14.75 1.95
8 -18 0 18.1 1.86
-8 18 0 17.4 1.9
8 -18 0 16.51 1.57
18 -10 0 18.69 1.65
-10 -8 0 17.05 2
18 -8 0 19.43 1.94
-18 8 0 13.41 1.69
8 10 0 17.33 1.85
-10 -8 0 19.33 2
18 -8 0 18.89 1.68
-8 -10 0 20.3 2.05
-8 -10 0 19.79 1.94
10 8 0 18.04 1.84
10 -18 0 16.63 1.55
18 -10 0 18.71 1.91
10 -18 0 19.21 1.91
-7 18 0 1.73 0.91
11 -18 0 1.47 0.92
-7 -11 0 2.35 0.99
7 -18 0 1.63 0.91
18 -7 0 1.83 0.69
-11 -7 0 0.93 0.84
-18 7 0 1.18 0.76
-18 11 0 0.99 0.73
18 -11 0 1.2 0.66
11 7 0 0.54 0.78
18 -7 0 0.37 0.83
-18 11 0 1.39 0.95
11 -18 0 1.63 0.88
7 11 0 1.08 0.83
18 -11 0 1.19 0.9
7 -18 0 0.84 0.6
-11 -7 0 2.03 0.93
7 -18 0 1.36 0.74
-7 -11 0 2.64 0.9
7 11 0 0.46 0.36
11 7 0 1.08 0.47
-18 7 0 1.45 1.01
-6 18 0 0.19 0.93
-6 -12 0 2.17 0.94
12 -18 0 0.53 0.62
18 -6 0 0.95 0.63
-6 -12 0 0.82 0.93
6 -18 0 1.38 0.89
6 12 0 0.73 0.42
-18 12 0 0.99 0.85
6 -18 0 -0.05 0.69
18 -12 0 0.15 0.85
-18 12 0 1.12 0.79
12 6 0 -0.08 0.81
6 -18 0 0.78 0.59
18 -6 0 0.3 0.87
6 12 0 -0.13 0.77
12 6 0 0.32 0.5
-18 6 0 1.88 1.04
-12 -6 0 0.56 0.84
-6 18 0 0.35 0.55
-18 6 0 1.37 0.8
12 -18 0 0.56 0.85
18 -12 0 0.75 0.62
-5 -13 0 2.48 0.93
13 -18 0 1.43 0.9
-13 -5 0 -0.42 0.59
-13 18 0 0.05 0.53
18 -13 0 1.45 0.65
18 -5 0 0.96 0.91
18 -5 0 1.03 0.64
13 5 0 0.66 0.8
5 -18 0 1.58 0.61
-18 13 0 1.38 0.82
-18 5 0 2.33 0.82
-5 18 0 1.14 1
5 -18 0 1.85 0.92
-13 18 0 -0.11 0.74
-18 13 0 0.78 0.86
18 -13 0 0.59 0.79
5 13 0 0.06 0.74
-5 -13 0 1.27 0.93
13 5 0 0.92 0.58
5 13 0 1.08 0.49
-5 18 0 0.71 0.6
-18 5 0 1.1 1.03
14 4 0 -0.2 0.7
18 -4 0 1.01 0.65
-18 4 0 1.73 0.78
-4 18 0 0.6 0.96
4 14 0 0.84 0.53
14 -18 0 1.16 0.88
18 -4 0 0.95 0.83
-4 -14 0 2.99 1.04
-14 18 0 1.25 0.8
-18 14 0 1.16 0.79
-4 18 0 0.83 0.61
-18 4 0 1.44 1.03
4 -18 0 1.45 0.91
-18 14 0 1.18 0.97
-4 -14 0 2.73 0.95
18 -14 0 1.59 0.85
4 14 0 0.12 0.68
-14 18 0 0.95 0.88
18 -14 0 0.91 0.61
14 4 0 1.02 0.6
-18 3 0 1.46 0.75
18 -3 0 -0.51 0.82
15 3 0 0.26 0.65
3 15 0 0.3 0.56
-15 18 0 1.12 0.81
18 -15 0 -0.2 0.58
18 -15 0 -0.03 0.79
15 -18 0 0.21 0.82
-18 15 0 -0.28 0.89
-18 15 0 0.02 0.74
-15 18 0 0.13 0.85
-3 18 0 0.15 0.58
-3 18 0 -0.37 0.95
3 15 0 0.11 0.69
18 -3 0 0.69 0.63
-18 3 0 0.8 0.94
-3 -15 0 0.16 0.86
-15 -3 0 -0.68 0.53
-3 -15 0 0.63 0.84
3 -18 0 0.92 0.88
15 3 0 0.29 0.63
-18 16 0 1.38 0.8
-18 16 0 1.43 0.98
16 2 0 1.17 0.67
18 -2 0 0.11 0.64
16 2 0 -0.29 0.53
16 -18 0 0.79 0.8
-16 18 0 0.47 0.85
18 -16 0 1.27 0.61
2 -18 0 2.27 0.91
-2 18 0 0.71 0.6
-18 2 0 1.75 1.05
18 -2 0 1.96 0.69
-2 -16 0 2.11 0.88
-16 18 0 1.33 0.82
2 16 0 1.28 0.62
18 -16 0 1 0.76
-16 -2 0 1.37 0.69
-18 2 0 1.66 0.75
-2 18 0 1.13 0.88
-1 18 0 0.12 0.66
1 17 0 0.42 0.61
-17 18 0 0.68 0.8
-18 17 0 0.82 0.75
18 -1 0 -0.31 0.87
-17 -1 0 1.04 0.7
-18 1 0 1.34 0.73
-1 -17 0 -0.6 0.68
-1 18 0 0.31 0.59
18 -17 0 0.01 0.74
-18 1 0 -0.05 0.83
18 -17 0 0.26 0.59
-17 18 0 1.29 0.84
1 -18 0 0.18 0.63
17 -18 0 0.58 0.82
17 -18 0 0.66 0.58
17 1 0 0.81 0.65
-18 17 0 0.55 0.86
18 -1 0 0.44 0.66
0 -18 0 2.14 0.63
18 -18 0 2.43 0.67
18 0 0 2.88 0.72
-18 18 0 2.58 0.82
-18 0 0 3.03 0.76
0 18 0 2.58 0.65
-9 -10 0 1.44 0.95
9 10 0 -0.16 0.54
10 9 0 0.27 0.52
10 9 0 0.44 0.58
-19 10 0 0.33 0.46
19 -9 0 0.55 0.64
-10 -9 0 1.13 0.96
-9 -10 0 2.71 0.92
9 -19 0 0.99 0.89
-10 -9 0 1.45 0.88
10 -19 0 0.49 0.76
9 10 0 0.53 0.54
-19 10 0 -0.32 0.76
19 -9 0 0.49 0.85
9 -19 0 0.02 0.55
19 -10 0 0.72 0.91
-19 9 0 0.23 0.89
9 -19 0 0.19 0.75
-19 9 0 0.12 0.67
10 -19 0 0.85 0.57
10 -19 0 0.89 0.86
-19 10 0 -1.02 0.51
19 -10 0 -0.42 0.63
8 -19 0 5.29 1.06
8 11 0 3.68 0.64
-19 8 0 4.3 1.15
19 -11 0 3.54 0.99
11 8 0 3.46 0.65
19 -11 0 4.54 0.74
19 -8 0 4.15 0.77
-19 11 0 3.21 0.86
8 -19 0 3.31 0.66
-19 8 0 2.85 0.79
8 -19 0 2.83 0.85
11 -19 0 3.83 0.69
-11 -8 0 3.56 1
19 -8 0 3.81 1.05
11 -19 0 4.96 1.02
-11 -8 0 4.31 0.97
11 -19 0 2.22 0.84
-8 -11 0 5.33 1.1
-19 7 0 8.69 1.62
7 -19 0 9 1.41
7 -19 0 9.26 1.08
19 -12 0 9.44 1.51
-12 -7 0 6.3 1.11
12 7 0 8.05 1.09
-12 -7 0 6.34 1.08
-19 12 0 8.48 1.09
-19 12 0 5.35 1.12
-19 7 0 8.65 1.41
-7 -12 0 9.8 1.58
12 -19 0 9.31 1.45
19 -7 0 8.93 1.26
7 12 0 7.7 1.06
-7 -12 0 10.27 1.66
19 -12 0 8.56 1.17
19 -7 0 8.31 1.23
-7 19 0 8.67 1.57
6 -19 0 2.42 0.72
13 6 0 3 0.66
-6 -13 0 3.76 0.94
13 -19 0 2.32 0.88
6 13 0 1.88 0.61
6 -19 0 3.13 0.94
-19 6 0 3.19 1.14
-13 -6 0 2.68 0.84
19 -6 0 2.38 0.69
19 -13 0 3.09 0.67
-6 19 0 2.84 0.65
6 -19 0 3.19 0.66
19 -13 0 4.03 1
-6 19 0 2.1 0.95
-19 13 0 2.47 0.99
-19 6 0 3.73 0.86
-19 13 0 3 0.84
-6 -13 0 5.08 1.07
19 -6 0 3.22 1.01
5 -19 0 1.16 0.84
-19 14 0 1.14 0.76
-5 -14 0 1.23 0.95
-5 19 0 0.54 0.56
5 -19 0 0.21 0.49
19 -14 0 0.32 0.6
14 5 0 0.07 0.73
-5 -14 0 1.84 0.87
-19 5 0 1.67 0.79
-19 5 0 0.44 0.96
-19 14 0 0.26 0.88
19 -5 0 0.67 0.62
-5 19 0 0.72 0.92
19 -5 0 -0.62 0.78
14 5 0 0.45 0.57
5 -19 0 0.89 0.59
14 -19 0 0.55 0.86
-14 19 0 0.22 0.67
5 14 0 0.28 0.55
19 -14 0 0.68 0.84
-19 15 0 11.02 1.45
4 15 0 10.06 1.2
-19 4 0 10.89 1.81
-19 15 0 11.21 1.64
-15 19 0 10.84 1.56
-4 -15 0 12.2 1.73
-4 19 0 9.73 1.61
-4 19 0 10.28 1.22
19 -15 0 11.38 1.24
4 -19 0 10.45 1.51
19 -15 0 9.75 1.53
15 4 0 10.63 1.27
15 -19 0 9.82 1.58
4 -19 0 13.43 1.29
19 -4 0 10.47 1.29
-19 4 0 11.2 1.52
19 -16 0 1.77 0.85
19 -16 0 1.97 0.62
-19 3 0 1.72 1.02
-3 19 0 1.95 0.62
3 16 0 1.89 0.61
19 -3 0 2.52 0.7
16 3 0 1.87 0.64
-19 3 0 3.04 0.81
3 -19 0 2.22 0.81
-16 19 0 2.64 0.85
-16 -3 0 1.96 0.68
-3 -16 0 2.63 0.89
-19 16 0 1.95 0.94
16 -19 0 1.27 0.76
3 -19 0 2.71 0.65
-19 16 0 2.57 0.79
-19 17 0 1.03 0.75
2 -19 0 1.77 0.61
-2 19 0 0.23 0.56
19 -17 0 -0.24 0.51
2 17 0 0.7 0.57
-17 -2 0 0.64 0.7
17 2 0 0.4 0.58
2 -19 0 0.01 0.8
19 -2 0 1.04 0.64
17 -19 0 -0.15 0.48
-19 2 0 1.3 0.74
-19 2 0 -0.21 0.61
-17 19 0 1.14 0.76
19 -17 0 0.44 0.58
17 -19 0 0.87 0.58
-2 -17 0 0.71 0.76
-19 17 0 0.33 0.62
-18 19 0 16.84 1.63
-19 1 0 16.57 1.66
1 -19 0 15.08 1.4
-18 -1 0 14.53 1.6
1 18 0 14.54 1.41
-19 18 0 15.24 1.59
-1 19 0 13.62 1.38
19 -1 0 15.12 1.47
-1 -18 0 13.06 1.38
19 -18 0 15.18 1.41
18 -19 0 16.2 1.42
18 1 0 14.46 1.47
0 -19 0 0.35 0.5
0 19 0 0.54 0.54
-19 19 0 0.97 0.7
-19 0 0 0.76 0.68
19 0 0 0.52 0.61
19 -19 0 0.82 0.53
20 -10 0 24.34 2.16
20 -10 0 23.02 1.83
10 -20 0 22.52 1.79
-10 -10 0 23.15 2.2
10 10 0 21.82 1.76
-10 -10 0 24.66 2.21
-20 10 0 17.78 1.89
10 -20 0 18.02 1.88
20 -11 0 5.18 1.06
11 -20 0 7.86 1.08
20 -9 0 7.17 1.17
-9 -11 0 10.38 1.58
20 -11 0 10.43 0.98
-11 -9 0 7.32 1.2
-11 -9 0 9.23 1.64
20 -9 0 7.7 0.92
-9 -11 0 10.56 1.68
9 -20 0 7.71 1.28
-20 9 0 5.36 0.94
11 -20 0 6.13 1.01
9 11 0 7.87 1.07
-20 11 0 7.98 1.02
9 -20 0 8.37 1.06
11 9 0 8.25 1.06
-20 8 0 0.67 0.68
8 12 0 0.75 0.56
20 -8 0 1.27 0.62
12 -20 0 1.22 0.67
12 8 0 0.76 0.56
20 -12 0 1.37 0.64
-20 8 0 -0.26 0.68
-12 -8 0 -0.29 0.61
-8 -12 0 2.19 0.9
8 -20 0 1.46 0.83
12 -20 0 0.63 0.58
-20 12 0 0.73 0.77
20 -8 0 -0.36 0.72
20 -12 0 0.26 0.79
-8 -12 0 1.95 0.91
8 -20 0 0.32 0.48
-12 -8 0 1.18 0.81
8 -20 0 1.4 0.55
20 -7 0 -0.9 0.61
-20 13 0 0.7 0.78
13 7 0 0.42 0.54
20 -7 0 1.11 0.62
7 -20 0 1.08 0.77
13 -20 0 -0.23 0.46
20 -13 0 -0.02 0.79
7 13 0 0.69 0.58
20 -13 0 1.2 0.6
7 -20 0 0.81 0.53
-20 7 0 1.31 0.74
-20 7 0 -0.1 0.81
13 -20 0 0.83 0.67
-13 -7 0 0.29 0.79
-7 -13 0 1.83 0.86
-7 -13 0 1.33 0.92
6 -20 0 0.58 0.7
20 -6 0 -0.38 0.56
-20 6 0 2.16 0.78
14 6 0 0.85 0.56
20 -14 0 1.95 0.64
-20 14 0 0.96 0.76
6 -20 0 1.65 0.56
-6 20 0 0.73 0.77
-6 -14 0 2.84 0.87
6 14 0 0.91 0.55
20 -6 0 1.6 0.64
-20 6 0 0.56 0.88
20 -14 0 0.29 0.68
-14 -6 0 0.02 0.7
14 -20 0 -0.01 0.58
-6 -14 0 1.27 0.77
-14 20 0 -0.15 0.5
-20 15 0 5.69 0.89
-20 5 0 5.67 0.88
20 -15 0 5.83 0.75
5 -20 0 5.87 0.71
20 -5 0 4.84 0.74
-20 5 0 1.96 0.84
15 5 0 4.31 0.7
-5 -15 0 5.72 0.98
5 -20 0 2.07 0.69
5 15 0 3.53 0.68
-15 20 0 2.98 0.85
-16 -4 0 -0.71 0.33
-20 4 0 -0.21 0.64
-20 4 0 0.73 0.7
-20 16 0 0.11 0.68
4 -20 0 0.74 0.57
20 -4 0 0.08 0.63
-16 20 0 0.46 0.76
4 16 0 -0.08 0.55
-4 -16 0 0.5 0.78
-4 20 0 0.04 0.51
20 -16 0 0.51 0.54
20 -16 0 -0.3 0.61
16 4 0 -0.28 0.55
17 3 0 2.03 0.6
-17 20 0 2.45 0.79
17 -20 0 3.81 0.66
20 -3 0 3.72 0.71
-3 -17 0 2.74 0.82
-20 17 0 4.48 0.83
-20 3 0 4.12 0.82
-3 -17 0 1.32 0.51
-3 20 0 2.84 0.59
3 -20 0 4.52 0.68
20 -17 0 3.36 0.64
-17 -3 0 2.66 0.65
3 17 0 2.8 0.62
-18 -2 0 0.5 0.62
2 -20 0 0.62 0.51
-20 2 0 0.74 0.7
20 -2 0 0.51 0.58
-20 18 0 0.06 0.64
-18 20 0 0.15 0.65
20 -18 0 -0.15 0.52
18 -20 0 0.53 0.56
2 18 0 0.17 0.53
-2 -18 0 0.01 0.47
18 2 0 0.11 0.55
-2 20 0 0.21 0.49
-2 -18 0 0.31 0.67
1 19 0 9.25 1.04
-19 20 0 10.93 1.24
-20 19 0 7.74 1.22
19 1 0 9.86 1.11
19 -20 0 10.22 1.07
-19 -1 0 9.92 1.21
20 -19 0 11.02 1.1
20 -1 0 9.28 1.14
-20 19 0 9.7 1.2
-1 -19 0 8.41 1
-20 1 0 9.23 1.27
1 -20 0 8.69 0.99
-1 20 0 9.27 1.04
0 20 0 6.58 0.82
-20 0 0 7.21 1.12
-20 20 0 8.28 1.09
20 0 0 7.14 0.96
-20 20 0 6.6 1.14
0 -20 0 6.95 0.84
-11 -10 0 0.66 0.81
10 11 0 0.28 0.52
21 -11 0 0.46 0.57
-21 11 0 0.13 0.52
10 -21 0 -0.09 0.52
-10 -11 0 -0.23 0.59
-21 11 0 -0.57 0.53
11 -21 0 0.32 0.55
-10 -11 0 0.99 0.81
21 -10 0 -0.04 0.58
11 10 0 -0.41 0.51
-21 10 0 -0.38 0.61
9 12 0 -0.03 0.53
-21 9 0 -0.23 0.63
12 9 0 0.28 0.53
-21 12 0 0.12 0.68
-9 -12 0 0.91 0.8
21 -12 0 -0.14 0.53
-9 -12 0 -0.22 0.53
12 -21 0 0.15 0.53
-12 -9 0 0.21 0.7
21 -9 0 -0.11 0.56
9 -21 0 0.57 0.53
-8 -13 0 2.02 0.81
-8 -13 0 -0.2 0.74
21 -8 0 1.03 0.6
8 -21 0 0.88 0.5
8 13 0 0.53 0.54
-21 13 0 1.45 0.7
21 -13 0 0.62 0.56
-13 -8 0 0.53 0.72
-21 8 0 -0.13 0.65
13 8 0 0.6 0.52
13 -21 0 -0.06 0.49
21 -14 0 7.21 1.08
7 -21 0 8.99 1.04
14 7 0 7.82 1.03
7 14 0 7.26 1.01
21 -7 0 8.28 1.13
-21 7 0 8.25 1.31
-21 14 0 8.7 1.26
-7 -14 0 9.18 1.5
-15 21 0 -0.21 0.46
15 6 0 0.13 0.49
6 -21 0 0.29 0.48
21 -15 0 0.27 0.53
-21 15 0 0.13 0.68
6 15 0 0.52 0.51
-6 -15 0 0.89 0.74
-21 6 0 0.67 0.7
21 -6 0 0.17 0.57
5 16 0 4.26 0.67
-5 -16 0 7.01 1.28
-16 21 0 5.13 0.85
5 -21 0 7.44 0.91
-21 16 0 5.59 0.83
16 5 0 4.39 0.67
21 -4 0 1.05 0.58
-21 4 0 2.86 0.75
-4 -17 0 1.58 0.7
17 -21 0 1.62 0.58
21 -17 0 1.12 0.54
-21 17 0 1.42 0.64
-17 21 0 1.18 0.69
4 -21 0 1.48 0.51
17 4 0 0.94 0.51
4 17 0 1.53 0.53
21 -3 0 6.28 0.76
-18 21 0 4.64 0.79
18 3 0 4.32 0.68
-3 -18 0 6.98 1.19
3 18 0 6.17 0.83
18 -21 0 6.9 0.95
21 -18 0 5.88 0.9
3 -21 0 6.56 0.87
-21 18 0 5.1 0.79
-21 3 0 7.23 1.17
-19 -2 0 2.15 0.58
-19 21 0 3.11 0.71
2 -21 0 3.1 0.53
-21 2 0 3.92 0.72
-21 19 0 1.8 0.64
-21 19 0 4.14 0.67
19 2 0 2.42 0.54
21 -2 0 2.33 0.59
21 -19 0 2.92 0.56
-19 21 0 3.03 0.66
19 -21 0 2.82 0.57
1 -21 0 0 0.39
20 1 0 0.2 0.37
21 -20 0 -0.17 0.48
-21 20 0 0.12 0.52
-21 20 0 0.34 0.54
-1 -20 0 -0.2 0.34
-20 -1 0 0.07 0.51
20 -21 0 0.27 0.49
21 -1 0 -0.08 0.45
-20 21 0 0.41 0.55
-21 1 0 0.12 0.57
-20 21 0 0.15 0.54
-21 21 0 8.04 1.02
0 -21 0 5.72 0.79
21 -21 0 9.27 0.95
-21 0 0 7.53 0.96
-21 21 0 6.62 0.99
11 -22 0 9.24 1.02
11 11 0 8.2 1
22 -11 0 9.14 1.1
-11 -11 0 10.35 1.4
22 -12 0 0.18 0.51
10 12 0 0.16 0.46
-10 -12 0 0.84 0.67
-12 22 0 0.33 0.67
22 -10 0 0.01 0.51
-12 -10 0 1.12 0.71
12 10 0 0.45 0.47
-22 10 0 0.14 0.58
12 -22 0 0.02 0.47
-22 12 0 0 0.51
10 -22 0 0.43 0.49
-9 -13 0 1.97 0.71
22 -13 0 2.12 0.58
22 -9 0 1.79 0.55
-22 13 0 1.46 0.68
-13 -9 0 1.23 0.68
13 9 0 1.77 0.51
9 -22 0 1.79 0.51
9 13 0 1.63 0.51
-22 9 0 1.38 0.62
13 -22 0 0.86 0.5
-22 14 0 0.54 0.65
-14 -8 0 -0.02 0.62
8 -22 0 0.29 0.45
22 -8 0 0.11 0.52
14 8 0 0.08 0.46
-22 8 0 0.92 0.63
22 -14 0 0.3 0.49
-8 -14 0 1.07 0.69
8 14 0 -0.16 0.45
22 -15 0 0.66 0.51
7 -22 0 1.22 0.46
-7 -15 0 1.74 0.69
22 -7 0 0.78 0.55
-22 15 0 0.96 0.66
15 7 0 0.52 0.46
7 15 0 0.45 0.44
-22 7 0 1.32 0.66
-22 6 0 3.7 0.74
6 -22 0 2.98 0.52
-22 16 0 2.34 0.64
16 -22 0 2.86 0.58
22 -16 0 2.9 0.55
6 16 0 1.47 0.43
-6 -16 0 3.29 0.74
16 6 0 2.39 0.5
22 -6 0 2.5 0.61
17 5 0 -0.04 0.39
-5 -17 0 0.5 0.64
-22 17 0 -0.28 0.55
-17 22 0 -0.2 0.38
5 17 0 -0.02 0.26
22 -5 0 0.15 0.51
-22 5 0 0.11 0.6
17 -22 0 0.45 0.52
22 -17 0 -0.31 0.44
5 -22 0 0.32 0.42
-17 22 0 0.32 0.66
18 -22 0 1.77 0.53
22 -4 0 1.26 0.52
-22 18 0 0.67 0.56
18 4 0 0.84 0.37
4 -22 0 1.52 0.46
-18 22 0 1.36 0.55
22 -18 0 1.91 0.52
-4 -18 0 1.17 0.61
-22 4 0 2.17 0.68
-18 22 0 1.73 0.68
-22 3 0 0.41 0.55
-22 19 0 0.35 0.51
19 3 0 0.03 0.23
3 -22 0 0.31 0.41
-19 22 0 0.37 0.59
19 -22 0 0.59 0.49
22 -19 0 0.01 0.46
-19 22 0 0.15 0.52
22 -3 0 0.25 0.47
2 -22 0 2.7 0.47
20 -22 0 4.58 0.6
22 -2 0 2.21 0.41
-20 22 0 3.15 0.6
-22 20 0 3.33 0.61
-20 22 0 4.43 0.69
-22 1 0 2.95 0.56
22 -21 0 4.57 0.62
-21 22 0 3.74 0.63
-21 22 0 3.16 0.64
21 -22 0 4.57 0.56
-22 21 0 3.73 0.63
-11 -12 0 4.46 0.75
23 -12 0 2.99 0.55
11 -23 0 2.59 0.52
23 -11 0 2.89 0.54
12 -23 0 3 0.53
-12 -11 0 2.84 0.72
13 10 0 0.08 0.25
-13 -10 0 0.02 0.58
-23 10 0 -0.04 0.51
10 13 0 0.05 0.23
-13 23 0 -0.04 0.6
13 -23 0 0.24 0.45
10 -23 0 0.35 0.41
-10 -13 0 1.15 0.62
-23 13 0 -0.03 0.3
23 -13 0 0.29 0.43
23 -10 0 0.83 0.49
-23 9 0 0.35 0.53
14 -23 0 -0.3 0.21
23 -14 0 0.33 0.44
-9 -14 0 0.73 0.61
-14 23 0 0.26 0.63
9 -23 0 0.37 0.41
-23 14 0 -0.01 0.54
-14 -9 0 -0.07 0.53
23 -9 0 0.36 0.48
9 14 0 -0.01 0.25
14 9 0 0.07 0.24
-23 8 0 0.04 0.58
-23 15 0 0.28 0.56
23 -15 0 0.56 0.44
-15 23 0 0.26 0.63
-15 -8 0 -0.55 0.44
8 -23 0 0.78 0.43
-8 -15 0 1.09 0.61
15 8 0 0.04 0.22
23 -8 0 0.61 0.5
7 -23 0 1.6 0.44
23 -16 0 1.12 0.45
-23 16 0 1.42 0.57
16 -23 0 0.98 0.48
23 -7 0 0.81 0.49
-16 23 0 1.41 0.73
-7 -16 0 1.26 0.59
-23 7 0 0.7 0.57
-23 17 0 0.22 0.51
23 -6 0 0.02 0.44
17 -23 0 0.2 0.46
-23 6 0 0.67 0.58
6 -23 0 0.22 0.4
23 -17 0 0.07 0.43
-6 -17 0 0.42 0.51
-17 23 0 -0.19 0.61
-23 5 0 1.24 0.59
-5 -18 0 1.65 0.57
5 -23 0 2.09 0.45
18 -23 0 1.56 0.51
-23 18 0 0.94 0.52
23 -18 0 1.24 0.45
-18 23 0 2 0.63
23 -5 0 0.93 0.47
4 -23 0 1.11 0.43
-23 4 0 1.27 0.56
-23 19 0 1.1 0.54
-19 23 0 1.04 0.58
23 -4 0 0.82 0.34
23 -19 0 0.73 0.45
19 -23 0 1.76 0.51
-23 3 0 3.06 0.63
3 -23 0 2.63 0.48
-20 23 0 3.36 0.63
23 -20 0 2.22 0.51
-23 20 0 2.89 0.59
20 -23 0 2.88 0.55
-12 -12 0 0.73 0.56
12 -24 0 0.33 0.38
24 -12 0 0.62 0.41
11 -24 0 0.31 0.37
24 -11 0 0.38 0.42
13 -24 0 -0.21 0.25
24 -13 0 0.33 0.39
-13 -11 0 0.08 0.45
-24 11 0 -0.66 0.3
-11 -13 0 0.76 0.52
24 -14 0 -0.13 0.39
-10 -14 0 0.54 0.52
-14 24 0 -0.15 0.38
10 -24 0 0.11 0.36
-24 10 0 -0.08 0.42
-14 -10 0 0.37 0.52
24 -10 0 -0.23 0.41
-15 24 0 0.02 0.5
-24 9 0 0.04 0.48
-9 -15 0 0.77 0.52
-24 15 0 0.08 0.27
15 -24 0 0.49 0.39
24 -15 0 0.11 0.4
24 -9 0 0.34 0.44
9 -24 0 0.26 0.37
-16 24 0 -0.34 0.52
24 -16 0 -0.14 0.38
-24 8 0 0.3 0.55
8 -24 0 0.05 0.38
-8 -16 0 0.4 0.52
24 -8 0 0.49 0.41
-24 16 0 0.21 0.37
16 -24 0 0.49 0.43
7 -24 0 0.26 0.38
24 -17 0 -0.26 0.39
-7 -17 0 0.62 0.53
24 -7 0 0.03 0.37
-17 24 0 0.25 0.58
-24 7 0 0.2 0.55
-24 17 0 -0.06 0.43
17 -24 0 0.24 0.44
6 -24 0 1.16 0.41
18 -24 0 1.02 0.47
24 -18 0 1.34 0.44
-24 18 0 1.21 0.49
-18 24 0 1.16 0.58
-6 -18 0 0.47 0.48
-24 6 0 1.06 0.58
-12 -13 0 0.92 0.56
25 -12 0 0.22 0.4
12 -25 0 -0.28 0.19
25 -13 0 0.26 0.39
-13 -12 0 0.27 0.56
25 -11 0 2.35 0.45
25 -14 0 2.68 0.46
-11 -14 0 2.35 0.59
11 -25 0 1.78 0.35
0 0 -1 -0.05 0.07
0 0 -1 -0.02 0.09
0 0 1 0.01 0.07
0 0 1 -0.04 0.07
0 0 -1 0.1 0.1
0 0 1 0.06 0.08
0 1 -1 1.19 0.15
0 -1 1 1.34 0.19
1 0 1 0.94 0.21
-1 0 1 1.27 0.18
-1 0 1 1.57 0.21
-1 0 -1 1.54 0.21
0 -1 -1 1.28 0.22
-1 1 -1 1.17 0.18
1 -1 1 1.16 0.16
1 -1 -1 1.21 0.21
1 -1 -1 1.25 0.15
0 -1 1 1.14 0.16
0 1 -1 1.11 0.2
1 0 -1 1.54 0.13
-1 1 1 1.22 0.18
0 1 1 1.01 0.16
1 -1 1 1.25 0.18
-1 0 1 1.11 0.12
-1 1 -1 1.2 0.17
0 1 1 1.37 0.19
0 -1 -1 1.29 0.19
0 -1 1 1.41 0.22
1 -1 1 0.98 0.17
-1 0 -1 1.42 0.26
-1 1 -1 1.22 0.17
1 0 1 1.11 0.17
0 1 1 1.34 0.25
1 0 -1 1.07 0.22
0 -1 -1 1.56 0.2
1 -2 -1 60.42 4.12
1 1 1 62.85 4.1
-1 -1 1 61.75 4.1
2 -1 -1 59.78 4.1
1 -2 -1 64.84 4.1
-1 2 -1 63.26 4.09
-1 -1 -1 60.63 4.08
2 -1 -1 62.38 4.06
1 -2 1 66.04 4.11
-1 -1 -1 66.78 4.14
1 1 1 63.6 4.08
-2 1 -1 59.34 4.11
-1 -1 -1 62.5 4.09
1 1 -1 58.5 4.11
2 -1 1 58.14 4.08
-2 1 1 64.84 4.11
1 1 1 56.52 4.12
1 1 -1 62.23 4.08
-1 -1 1 57.17 4.08
2 -1 -1 62.72 4.06
1 -2 1 60.49 4.1
-2 1 -1 62.13 4.08
2 -1 1 60.66 4.12
1 -2 1 58.05 4.09
1 1 -1 61.32 4.1
-1 2 -1 61.58 4.11
-2 1 1 60.35 4.1
2 -1 1 65.33 4.08
-1 -1 1 62.44 4.11
-1 2 1 64.42 4.1
2 -1 -1 59.35 4.1
2 -2 1 1.81 0.26
-2 2 -1 1.91 0.27
-2 2 -1 1.53 0.29
0 -2 1 1.93 0.35
-2 0 -1 2.24 0.28
2 -2 -1 2.27 0.28
0 -2 -1 1.95 0.27
0 -2 1 2.3 0.33
2 0 1 1.56 0.24
2 0 -1 1.79 0.34
0 -2 1 1.74 0.3
2 0 1 1.74 0.25
-2 0 -1 1.95 0.24
0 -2 -1 1.89 0.35
-2 0 1 1.66 0.16
2 0 -1 2 0.36
-2 0 -1 2.65 0.37
2 -2 1 2.21 0.27
0 2 1 1.66 0.38
-2 0 1 2.06 0.34
0 2 -1 1.37 0.28
0 2 -1 1.94 0.24
-2 2 -1 2.39 0.33
0 2 -1 1.43 0.31
2 -2 1 1.29 0.28
-2 0 1 2.11 0.3
0 2 1 1.54 0.3
2 0 1 1.34 0.31
2 -2 -1 1.55 0.24
0 -2 -1 2.28 0.27
-2 -1 -1 50.07 3.02
-3 1 1 47.68 3.04
3 -2 -1 37.74 3.05
-1 -2 1 46.33 3.06
2 -3 1 40.22 3.05
-1 -2 1 42.38 3.02
3 -1 1 43.27 3.01
-3 2 -1 49.3 3.01
-2 -1 -1 45.62 3.02
3 -2 -1 42.67 2.98
-2 -1 -1 48.82 3.08
1 2 1 45.71 3.04
1 -3 -1 46.8 3.08
2 1 -1 43.21 3.05
-3 1 1 47.91 3.05
-3 2 -1 46.89 3.06
3 -1 1 37.96 3.01
-1 3 -1 48.5 3.02
-3 1 -1 50.09 3.27
-1 3 1 42.56 3.24
1 -3 1 54.69 3.27
1 2 -1 52.79 3.23
2 1 1 45.89 3.22
1 2 -1 44.18 3.26
-3 2 1 50.1 3.2
-2 -1 1 47.04 3.25
-1 -2 -1 50.56 3.22
-2 -1 1 45.28 3.2
-2 3 -1 50.7 3.22
-1 -2 -1 54.49 3.3
1 -3 1 49.62 3.25
2 1 1 41.76 3.22
-3 1 -1 50.42 3.21
-1 -2 -1 52.31 3.23
2 -3 -1 45.84 3.23
2 -3 -1 51.6 3.24
-2 -1 1 48.32 3.25
3 -2 1 49.67 3.22
-2 3 -1 41.15 3.24
-3 2 1 49.22 3.26
3 -1 -1 39.38 3.24
-3 3 1 3.25 0.45
0 -3 1 2.73 0.47
-3 0 1 2.63 0.25
-3 0 -1 3.53 0.48
-3 3 -1 2.6 0.33
-3 0 -1 2.76 0.32
3 -3 1 2.99 0.41
0 -3 -1 3.47 0.46
-3 3 1 3.33 0.38
-3 0 1 2.83 0.48
0 -3 1 3.3 0.47
0 -3 -1 3.83 0.49
-3 3 -1 2.81 0.52
-3 0 1 2.45 0.28
3 0 1 1.87 0.3
0 3 -1 2.28 0.35
-3 0 1 3.49 0.44
-3 0 -1 2.69 0.38
0 -3 -1 3.52 0.5
3 -3 -1 3.46 0.43
-2 -2 1 60.05 4.08
-2 -2 1 58.32 4.07
-4 2 -1 60 4.09
-2 4 -1 60.22 4.04
-4 2 -1 62.5 4.03
4 -2 1 63.24 4.03
-2 -2 -1 58.26 4.04
2 -4 -1 61.6 4.07
2 -4 -1 56.57 4.09
4 -2 -1 53.76 3.98
-2 -2 -1 59.95 4.04
2 -4 1 66.02 4.09
-4 2 1 59.45 3.99
-2 -2 -1 63.64 4.13
-4 2 1 61.88 4.08
-4 1 1 13.62 1.1
-4 3 -1 12.29 1.06
-3 -1 -1 13.41 0.98
-1 4 -1 12.72 0.98
-4 1 1 13.1 0.89
-1 -3 1 13.13 1.07
-3 -1 -1 12.71 1.1
1 -4 -1 12.74 1.12
-3 -1 -1 12.39 1
-4 3 -1 13.17 0.95
3 -4 1 13.55 1.08
1 -4 -1 14.44 1.1
-4 1 1 12.37 1.04
-1 -3 1 13.88 1.1
-3 4 1 13.46 1.02
-1 -3 -1 13.07 1.07
-4 1 -1 13.8 1.03
-3 -1 1 14.47 0.98
4 -1 -1 12.86 0.93
-4 1 -1 14.11 0.98
-3 4 -1 13.38 1.05
1 -4 1 13.08 1.12
-3 -1 1 14.32 1.11
-1 -3 -1 14.2 1.08
1 -4 1 14.81 1.12
1 3 -1 14.02 1.07
-4 1 -1 13.26 1.12
3 -4 -1 14.33 1.07
-4 3 1 13.98 1.16
-1 -3 -1 14.41 1.18
-4 3 1 14.2 1
4 -3 1 13.89 1.04
-3 -1 1 13.15 1.1
0 -4 1 28.26 2.06
-4 0 1 28.65 2.04
-4 0 -1 27.89 2.1
0 -4 1 29 2.06
-4 4 1 27.85 1.99
-4 4 -1 28.07 2
-4 4 1 28.49 2.07
-4 4 -1 27.77 2.07
-4 0 -1 28.69 1.99
0 -4 -1 29.26 2.12
0 -4 -1 31.63 2.07
-4 0 -1 30.55 1.97
-4 0 1 30.8 2.09
4 -4 1 29 2.03
4 -4 -1 27.52 2.02
0 4 -1 28.66 2
-4 0 1 27.81 1.92
-5 2 1 19.76 1.44
-3 -2 -1 18.41 1.42
-5 2 1 19.59 1.52
-3 -2 -1 19.76 1.54
-5 3 -1 17.51 1.48
-2 5 -1 18.77 1.43
2 -5 -1 20.22 1.47
-2 -3 1 18.94 1.48
-2 -3 1 20.73 1.53
-5 2 1 19.13 1.32
-3 5 1 19.57 1.41
-5 3 -1 20.46 1.36
3 -5 1 20.58 1.49
-3 -2 -1 19.03 1.4
2 -5 -1 18.15 1.51
-5 3 1 26.55 1.84
-2 -3 -1 28.69 2.03
-5 2 -1 26.95 1.97
-5 2 -1 27.04 1.85
-2 -3 -1 27.64 1.93
-2 -3 -1 27.45 1.88
2 -5 1 28.25 1.99
-3 -2 1 26.73 1.98
3 -5 -1 27.82 1.94
2 -5 1 26.49 1.96
5 -3 1 27.5 1.89
-3 5 -1 25.61 1.9
-3 -2 1 24.9 1.94
-5 3 1 27.17 1.97
-3 -2 1 26.57 1.86
3 -5 -1 27.16 1.99
4 -5 1 19.46 1.52
1 -5 -1 19.87 1.61
-4 -1 -1 20.59 1.49
-4 5 1 19.71 1.51
-1 -4 1 20.77 1.59
-5 4 -1 20.47 1.61
-5 1 1 21.74 1.61
-5 1 1 19.96 1.53
1 -5 -1 21.21 1.57
-5 1 1 20.19 1.38
-1 -4 1 20.99 1.6
-4 -1 -1 20.94 1.44
-4 -1 -1 18.51 1.6
5 -4 -1 20.14 1.51
-5 4 -1 22.28 1.45
-1 5 -1 19.73 1.47
-1 -4 -1 19.06 1.3
5 -4 1 18.89 1.33
1 -5 1 18.67 1.4
-5 4 1 18.33 1.39
-1 -4 -1 18.01 1.45
-4 -1 1 18.16 1.42
-4 5 -1 18.13 1.27
-5 4 1 14.27 1.24
-4 -1 1 16.41 1.35
-5 1 -1 17.29 1.25
-5 1 -1 18.18 1.4
-4 -1 1 15.05 1.21
4 -5 -1 17.61 1.33
1 -5 1 18.48 1.43
-5 1 -1 18.26 1.29
-1 -4 -1 18.5 1.34
5 -1 -1 14.68 1.18
1 4 -1 18.4 1.28
5 -5 -1 27.64 2.1
-5 0 1 30.23 2.15
5 -5 1 28.14 2.07
-5 0 -1 29.82 2.02
0 5 -1 28.67 2.09
0 -5 -1 30.87 2.11
-5 0 1 28.86 2.09
-5 5 1 26.91 2.04
-5 0 1 28.21 1.96
-5 0 -1 28.64 2.17
0 -5 1 30.68 2.14
-5 0 -1 28.36 2.05
-5 5 -1 30.15 2.03
0 -5 -1 29.15 2.2
0 -5 1 30.02 2.14
-5 5 -1 30.58 2.14
3 -6 1 13.41 1.22
6 -3 1 13.27 1.05
-3 -3 -1 13.5 1.24
-3 6 -1 12.53 1.01
-6 3 -1 12.07 1.19
-6 3 1 12.71 1.15
-3 -3 -1 12.84 0.99
3 -6 -1 13.28 1.16
-6 3 -1 12.42 0.98
-3 -3 1 13.74 1.2
-3 -3 1 11.85 1.13
3 -6 -1 12.12 1.17
-3 -3 -1 12.8 1.1
3 -6 1 13.11 1.16
-6 3 1 12.65 0.93
-2 -4 1 12.78 1.19
-4 -2 -1 12.02 1.17
-2 6 -1 11.58 0.96
-2 -4 1 9.93 1.1
-4 6 1 12.28 0.98
-6 2 1 11.61 1.07
-6 2 1 13.03 0.86
-4 -2 -1 11.43 1.03
-4 -2 -1 11.57 0.91
2 -6 -1 11.04 1.14
2 -6 -1 12.15 1.1
-6 2 1 12.06 1.11
6 -4 -1 12.67 1.02
4 -6 1 11.96 1.08
-6 4 -1 10.26 1.09
-6 4 -1 12.8 0.96
-2 -4 -1 18.83 1.32
4 -6 -1 17.39 1.38
4 -6 -1 17.63 1.48
-2 -4 -1 18.49 1.52
-4 -2 1 18.05 1.42
-6 2 -1 16.4 1.27
-4 -2 1 16.08 1.26
-6 4 1 18.33 1.49
2 -6 1 18.82 1.49
-4 6 -1 18.16 1.37
-4 -2 1 18.05 1.45
2 -6 1 18.35 1.46
-6 2 -1 18.21 1.49
-2 -4 -1 18.14 1.38
-6 4 1 15.21 1.26
6 -4 1 18.77 1.36
-5 -1 -1 4.98 0.73
-6 5 -1 3.95 0.5
1 -6 -1 4.04 0.7
-6 5 -1 4.58 0.7
6 -5 -1 5.63 0.66
-5 -1 -1 4.03 0.56
-6 1 1 3.54 0.61
-1 6 -1 4.95 0.59
-6 1 1 4.03 0.67
-5 -1 -1 3.77 0.54
-1 -5 1 4.42 0.7
1 -6 -1 5.55 0.79
-1 -5 1 4.51 0.71
-6 1 1 3.39 0.38
-5 6 1 4.28 0.63
5 -6 1 3.9 0.62
-5 -1 1 6.61 0.89
-5 6 -1 6.8 0.72
1 -6 1 6.44 0.92
-6 1 -1 5.3 0.66
-5 -1 1 5.91 0.76
-1 -5 -1 6.78 0.99
-6 5 1 5.6 0.59
-5 -1 1 4.96 0.52
1 -6 1 6.5 0.85
-6 5 1 6.54 0.91
5 -6 -1 5.76 0.74
-1 -5 -1 5.84 0.76
6 -5 1 6.49 0.77
-1 -5 -1 6.2 0.66
-6 1 -1 4.85 0.55
-6 1 -1 6.66 0.84
0 -6 -1 6 0.79
0 -6 -1 5.31 0.87
-6 0 -1 5.98 0.93
0 -6 1 5.2 0.9
-6 0 1 5.26 0.75
6 -6 1 5.79 0.72
-6 0 1 5.28 0.83
-6 6 1 4.48 0.64
6 -6 -1 5.25 0.73
-6 0 -1 4.99 0.68
-6 6 -1 5.21 0.69
-6 0 -1 4.63 0.55
0 6 -1 5.57 0.62
-6 6 -1 5.96 0.9
0 -6 1 6.76 0.83
-6 0 1 3.88 0.44
-7 4 -1 33.04 2.4
-7 4 -1 28.46 2.2
-4 -3 -1 28.94 2.25
4 -7 1 33.31 2.34
3 -7 -1 31.42 2.32
-7 3 1 33.27 2.37
-4 -3 -1 32.34 2.21
-3 -4 1 30.59 2.32
4 -7 1 32.7 2.38
3 -7 -1 31.94 2.38
-3 -4 1 33.29 2.4
-7 3 1 31.46 2.15
-4 7 1 32.85 2.26
-3 7 -1 31.3 2.24
-4 -3 -1 31.04 2.4
4 -7 -1 47.61 3.16
-4 -3 1 41.59 3.08
4 -7 -1 45.81 3.06
-7 3 -1 38.25 2.94
3 -7 1 46.28 3.11
3 -7 1 43.85 3.1
-7 4 1 37.05 2.92
-3 -4 -1 43.3 3.05
-7 3 -1 44.93 3.1
-4 -3 1 42.42 3.05
-4 7 -1 44.49 3
7 -4 1 43.93 3.01
-3 -4 -1 48.99 3.19
-3 -4 -1 46.27 2.99
-4 -3 1 40.27 2.96
-7 4 1 40.97 3.09
5 -7 1 23.9 1.89
2 -7 -1 24.95 1.93
-7 2 1 24.23 1.85
-7 2 1 27 2.01
-7 5 -1 23.96 1.77
-5 -2 -1 25.5 2.05
-5 -2 -1 24.22 1.86
-2 -5 1 25.22 1.99
-7 5 -1 25.04 1.94
-5 -2 -1 23.73 1.79
-7 2 1 25.78 1.7
-5 7 1 24.24 1.81
-2 -5 1 24.27 1.92
2 -7 -1 25.26 2.03
-2 7 -1 24.54 1.82
7 -5 -1 27.35 1.92
-5 7 -1 24.74 1.69
-2 -5 -1 23.85 1.9
7 -5 1 22.69 1.71
2 -7 1 24.2 1.83
-5 -2 1 23.41 1.85
-7 2 -1 19.15 1.62
5 -7 -1 23.6 1.78
2 -7 1 25.8 1.9
-2 -5 -1 24.9 1.7
-2 -5 -1 21.97 1.75
-5 -2 1 19.91 1.62
-7 5 1 23.16 1.83
-7 2 -1 24.2 1.87
-5 -2 1 23.27 1.81
-7 6 -1 5.3 0.85
7 -1 1 4.32 0.58
-6 -1 -1 5.54 0.73
-6 7 1 4.9 0.6
-7 6 -1 5.68 0.71
-1 -6 1 6.78 0.84
7 -6 -1 6.11 0.79
1 -7 -1 5.8 1
-7 1 1 3.84 0.71
-1 7 -1 4.74 0.64
-7 1 1 6.25 0.89
1 6 1 3.76 0.56
-7 6 -1 3.98 0.67
6 -7 1 6.26 0.86
-1 -6 1 6.45 0.96
1 -7 -1 4.73 0.69
1 -7 -1 6.06 0.87
-7 1 1 4.35 0.41
-1 7 -1 4.45 0.65
-6 -1 -1 4.56 0.5
-6 -1 -1 5.32 0.87
-7 1 1 6.46 0.85
-7 6 1 5.88 0.79
-1 -6 -1 7.52 0.75
6 -7 -1 5.19 0.63
-6 -1 1 5.87 0.58
-7 6 1 6.56 0.68
-7 1 -1 7.11 0.95
-7 1 -1 5.85 0.61
-1 7 1 5.34 0.66
7 -6 1 7.32 0.87
-7 1 -1 7.72 0.78
-1 -6 -1 6.79 0.86
-6 -1 1 7.47 0.94
6 1 1 4.68 0.68
6 -7 -1 6.95 0.83
-1 -6 -1 7.23 1.08
-6 -1 1 7.33 0.82
-7 6 1 7.88 1.02
-7 1 -1 6.89 0.92
1 -7 1 7.75 0.95
-6 7 -1 7.62 0.7
1 -7 1 7.49 0.95
0 -7 1 13.66 1.25
0 -7 1 12.87 1.31
7 0 1 11.31 1
0 7 1 12.45 1.07
-7 0 1 10.53 1.13
-7 7 -1 9.95 1.08
-7 7 1 11.05 1.04
0 -7 -1 12.9 1.17
-7 0 -1 10.48 0.93
-7 7 -1 11.97 1.27
-7 7 -1 13.37 1.01
-7 7 1 10.59 1.11
-7 0 -1 12.05 1.07
0 -7 -1 13.59 1.08
7 -7 1 12.67 1.12
7 -7 -1 13.09 1.14
-7 0 -1 10.86 1.18
0 -7 -1 12.07 1.27
7 -7 1 11.15 0.97
0 7 -1 10.64 1.06
7 -7 -1 11.36 0.99
-7 0 1 11.99 1.22
-7 0 1 11.9 1.12
-7 0 -1 12.65 1.26
4 -8 -1 9.2 1.08
-4 -4 1 7.55 0.79
-4 -4 -1 7.97 0.92
-8 4 -1 8.78 1.13
-4 -4 -1 9.74 0.8
-4 8 -1 7.84 0.85
-8 4 1 8.97 1.07
8 -4 1 8.07 0.85
4 -8 1 7.86 0.96
-4 8 1 8.05 0.87
4 -8 -1 9.69 1.1
-4 -4 1 6.88 0.99
-4 -4 -1 9.18 1.16
-8 4 -1 8.67 0.78
-4 -4 1 8.43 1
8 -4 1 8.48 0.84
4 -8 1 9.62 1.07
4 -8 1 8.92 1.14
-4 -4 -1 8.35 1.06
4 4 1 7.53 0.79
-4 8 -1 8.6 0.83
-4 -4 1 8.32 1.03
5 -8 1 4.33 0.75
-5 8 1 3.85 0.6
-5 -3 -1 3.89 0.68
-5 8 1 3.42 0.69
-3 8 -1 3.78 0.63
-5 -3 -1 3.31 0.65
3 -8 -1 4.73 0.82
-5 -3 -1 3.84 0.58
-3 -5 1 3.32 0.75
8 -5 -1 4.44 0.67
3 -8 -1 5 0.8
-5 -3 -1 3.6 0.78
-8 5 -1 5.22 0.82
8 -5 -1 2.58 0.46
5 -8 1 2.93 0.57
-3 -5 1 3.85 0.53
-8 3 1 3.5 0.73
8 -3 1 4.12 0.55
3 -8 -1 3.52 0.61
-3 8 -1 4.22 0.72
-3 -5 1 4.22 0.76
-8 5 -1 3.74 0.56
-3 -5 1 3.22 0.7
3 5 1 2.85 0.49
-8 3 1 4.72 0.82
5 -8 1 4.26 0.77
3 -8 1 6.7 0.98
-8 3 -1 5.29 0.61
5 -8 -1 6.65 0.86
8 -5 1 6.23 0.83
-3 -5 -1 6.37 0.95
3 -8 1 5.62 0.81
5 3 1 5.99 0.68
-5 8 -1 6.83 0.7
-5 -3 1 6.87 1.01
-5 -3 1 4.48 0.8
-5 -3 1 6.05 0.95
-5 -3 1 5.63 0.63
-8 5 1 6.59 0.97
-8 5 1 6.21 0.8
-8 3 -1 5.78 0.85
3 5 -1 5.69 0.79
-8 3 -1 6.69 0.95
8 -5 1 5.76 0.7
-8 5 1 5.58 0.59
-3 -5 -1 6.52 1.08
-3 -5 -1 6.33 0.81
-3 8 1 5.64 0.79
3 -8 1 7.36 1.1
5 -8 -1 7.14 1.01
-3 -5 -1 7.92 1.02
-5 8 -1 5.51 0.77
6 -8 1 6.05 0.9
-8 6 -1 7.52 0.98
-6 -2 -1 6.84 1.04
8 -6 -1 6.05 0.74
2 -8 -1 5.94 0.81
-6 -2 -1 5.91 0.87
-6 8 1 6.72 0.84
6 -8 1 5.51 0.66
-8 2 1 5.98 0.92
-8 6 -1 6.65 0.77
-8 2 1 6.06 0.84
-2 -6 1 5.3 0.86
8 -2 1 6.73 0.75
2 -8 -1 9.47 1.05
-2 8 -1 6.86 0.87
-6 -2 -1 6.15 0.71
-2 -6 1 6.97 1.12
2 6 1 6.13 0.79
-6 8 1 6.37 0.86
8 -6 -1 7.14 0.89
-2 -6 1 6.91 0.99
-8 6 -1 5.54 0.88
-2 8 -1 6.24 0.75
2 -8 -1 7.17 1.05
-8 2 1 6.43 1.09
-8 6 1 10.61 1
-6 -2 1 10.24 0.92
2 6 -1 12.05 1.17
2 -8 1 13.72 1.37
8 -6 1 12.62 1.12
-2 -6 -1 14.34 1.17
-2 -6 -1 12.17 1.18
-8 2 -1 10.61 0.95
-2 -6 -1 13.9 1.46
-6 8 -1 11.11 1.06
-6 8 -1 12.89 1.14
-6 -2 1 12.36 1.24
2 -8 1 12.92 1.28
6 2 1 13.01 1.08
-6 -2 1 12.09 1.24
-8 6 1 13.17 1.28
2 -8 1 11.96 1.18
-2 8 1 11.65 1.11
-8 2 -1 11.95 1.27
-6 8 -1 11.31 1.17
-8 2 -1 12.28 1.2
-8 6 1 12.85 1.21
8 -6 1 12.19 1.04
6 -8 -1 12.57 1.16
-2 -6 -1 13.51 1.29
-8 1 1 3.12 0.75
1 -8 -1 3.66 0.66
-1 8 -1 2.63 0.6
1 7 1 3.55 0.59
-7 8 1 2.95 0.55
7 -8 1 3.27 0.54
-7 -1 -1 3.5 0.8
-8 7 -1 3.71 0.64
-8 1 1 3.17 0.76
-8 7 -1 3.82 0.79
8 -7 -1 3.21 0.67
-7 -1 -1 2.95 0.62
-8 7 -1 3.41 0.61
-8 1 1 3.57 0.71
-7 -1 -1 2.51 0.49
7 -8 1 3.56 0.74
-1 8 -1 3.71 0.61
1 -8 -1 4.06 0.75
8 -7 -1 2.85 0.5
1 -8 -1 2.67 0.74
-1 -7 1 2.95 0.79
-1 -7 1 2.77 0.69
-7 8 1 2.59 0.64
-1 -7 1 2.9 0.78
8 -1 1 4.16 0.66
-7 -1 -1 3.06 0.64
-8 7 1 5.76 1.05
1 -8 1 6.31 1.08
-7 -1 1 5.59 0.78
-1 -7 -1 5.97 0.74
-1 -7 -1 4.5 0.87
-8 1 -1 5.02 0.77
-7 8 -1 4.82 0.7
-7 8 -1 5.56 0.82
-1 8 1 5.2 0.8
7 -8 -1 5.75 0.8
1 -8 1 5.2 0.91
7 -8 -1 5.23 0.78
-8 7 1 4.7 0.69
-8 1 -1 5.08 0.88
-1 8 1 4.35 0.7
7 1 1 5.5 0.71
-7 8 -1 5.42 0.85
-1 -7 -1 5.79 0.83
-1 -7 -1 6.69 0.91
-8 1 -1 5.01 0.86
8 -7 1 5.47 0.81
1 -8 1 5.9 0.91
-8 1 -1 3.75 0.54
-8 7 1 6.23 0.82
1 7 -1 4.97 0.8
-7 -1 1 5.18 0.8
-7 -1 1 6.11 1.07
8 -1 -1 4.13 0.64
8 -7 1 5.15 0.72
-8 8 1 3.35 0.64
-8 0 -1 3.82 0.76
8 -8 1 3.19 0.54
0 8 1 4.24 0.62
-8 0 -1 2.53 0.45
-8 0 -1 3.01 0.79
8 -8 -1 4.01 0.79
8 0 1 3.93 0.59
-8 8 1 3.98 0.76
0 8 1 3.32 0.61
0 -8 -1 3.95 0.78
0 -8 -1 3.15 0.87
8 0 -1 2.47 0.55
0 -8 -1 4.14 0.67
8 0 -1 3.34 0.52
8 -8 -1 3.07 0.52
-8 8 -1 3.58 0.65
0 -8 -1 3.86 0.67
0 -8 -1 3.69 0.71
0 8 -1 2.95 0.63
-8 0 1 2.77 0.7
0 -8 1 3.54 0.68
8 -8 1 3.01 0.69
0 -8 1 2.85 0.81
-8 0 1 3.54 0.83
0 -8 1 2.79 0.67
-8 8 -1 3.59 0.58
-8 0 -1 3 0.61
0 8 -1 2.22 0.45
0 -8 1 4.39 0.94
-8 0 1 3.54 0.78
4 -9 -1 14.7 1.49
9 -4 1 11.73 1.16
-9 4 1 15.4 1.53
-4 9 -1 13.68 1.22
5 -9 1 13.73 1.31
-9 5 -1 12.69 1.2
9 -5 -1 14.52 1.27
4 -9 -1 13.92 1.28
4 -9 -1 14.22 1.35
-9 4 1 13.09 1.2
-9 5 -1 13.75 1.13
-9 5 -1 11.47 1.23
5 -9 1 13.78 1.38
9 -5 -1 13.05 1.19
-5 -4 -1 15.16 1.42
-4 9 -1 14.1 1.18
-4 -5 1 13.5 1.36
5 4 -1 12.61 1.19
9 -4 1 14.3 1.16
-9 5 -1 15.13 1.49
-5 -4 -1 14.6 1.49
9 -5 -1 12.72 1.15
-4 -5 1 12.86 1.38
5 -9 1 14.68 1.51
4 5 1 13.64 1.19
-5 -4 -1 15.43 1.33
-5 -4 -1 12.38 1.18
-4 -5 1 12.72 1.14
-5 9 1 14.57 1.28
-4 -5 1 13.82 1.33
-9 4 1 14.25 1.4
5 -9 -1 21.79 1.75
-4 -5 -1 25.45 1.93
-9 4 -1 23.97 1.91
5 -9 -1 23.04 1.97
9 -5 1 23.54 1.72
-5 -4 1 23.77 1.88
4 -9 1 23.95 1.94
5 -9 -1 24.06 1.88
-9 4 -1 20.61 1.67
9 -4 -1 22.96 1.73
-9 5 1 21.78 1.86
-9 4 -1 24.52 2
-4 -5 -1 22.39 1.72
-5 9 -1 24.1 1.76
-5 -4 1 20.81 1.69
-5 -4 1 22.78 1.94
9 -4 -1 22.1 1.77
4 5 -1 22.44 1.79
9 -5 1 21.2 1.75
4 -9 1 23.77 1.8
-5 -4 1 22.36 1.87
-9 5 1 24.57 2.03
-9 5 1 23.46 1.82
4 -9 1 23.67 1.97
-4 -5 -1 23.38 1.86
5 4 1 23.12 1.71
-4 -5 -1 24.26 2.11
-4 9 1 23.85 1.82
-5 9 -1 23.15 1.77
6 3 -1 11.26 1.11
-3 -6 1 11.66 1.28
-9 3 1 10.92 1.29
-6 9 1 11.92 1.06
-9 6 -1 12.32 1.3
6 -9 1 12.31 1.35
-6 -3 -1 10.86 1.19
-9 3 1 12.89 1.36
3 6 1 11.11 1.03
9 -3 1 10.63 1.05
9 -6 -1 12.39 1.11
-6 -3 -1 10.21 0.95
6 -9 1 11.47 1.09
-6 9 1 11.66 1.16
-3 -6 1 11.61 1.26
6 -9 1 10.63 1.16
-3 -6 1 10.73 1.09
-9 6 -1 11.83 1.05
-3 9 -1 11.95 1.2
3 -9 -1 12.49 1.31
9 -6 -1 12.39 1.2
-9 6 -1 10.5 1.1
-3 -6 1 11.9 1.45
-6 -3 -1 12.39 1.27
6 -9 1 12.1 1.33
-6 -3 -1 12.49 1.4
3 -9 -1 11.47 1.15
-3 9 -1 11.15 1.1
3 -9 -1 13.46 1.5
6 -9 -1 6.3 0.92
9 -6 1 5.38 0.83
-6 -3 1 3.7 0.57
3 6 -1 4.58 0.83
3 -9 1 5.86 1.08
-9 3 -1 4.45 0.86
-6 9 -1 4.99 0.78
6 3 1 5.9 0.8
-9 3 -1 4.58 0.57
-9 3 -1 5.08 0.92
3 -9 1 4.93 0.85
9 -6 1 5.19 0.77
-3 9 1 5.31 0.8
-3 -6 -1 6.47 0.71
-6 -3 1 5.9 0.86
-6 -3 1 5.12 0.96
-9 6 1 6.51 0.98
-6 -3 1 5.11 0.89
-9 6 1 6.78 0.98
-6 9 -1 5.66 0.86
6 -9 -1 6.84 1.21
9 -3 -1 4.49 0.77
3 -9 1 5.39 0.9
-6 9 -1 5.31 0.73
-3 -6 -1 6.04 0.92
9 -3 -1 5.53 0.72
-3 -6 -1 6.23 1.07
-3 -6 -1 6.75 1.05
-7 -2 -1 25.4 2.12
2 -9 -1 32.03 2.42
-9 2 1 29.71 2.25
-2 -7 1 31.41 2.31
-7 9 1 29.33 2.23
-9 2 1 32.49 2.41
-9 7 -1 30.22 2.36
-7 9 1 27.36 2.23
7 -9 1 31.09 2.29
7 2 -1 26.23 2.16
7 2 -1 28.03 2.12
-2 9 -1 30.58 2.2
7 -9 1 27.75 2.15
-2 -7 1 31.35 2.46
-2 9 -1 28.38 2.2
2 7 1 30.97 2.15
2 -9 -1 31.14 2.23
-7 -2 -1 26.69 2.2
9 -7 -1 32.54 2.27
-7 -2 -1 32.58 2.41
-7 -2 -1 29.8 2.23
9 -2 1 28.83 2.15
-9 7 -1 29.12 2.19
-9 7 -1 28.99 2.25
2 -9 -1 31.42 2.32
-2 -7 1 32.59 2.37
7 -9 1 30.41 2.15
-9 2 1 28.63 2.29
-7 -2 -1 29.58 2.28
9 -7 -1 31.91 2.19
-7 9 -1 32.17 2.22
7 -9 -1 31.18 2.29
-7 -2 1 28.31 2.35
2 7 -1 29.22 2.24
9 -7 1 32.71 2.21
2 -9 1 32.55 2.45
-2 -7 -1 33.83 2.35
9 -7 1 28.24 2.27
-7 9 -1 31.1 2.26
-7 -2 1 27.12 2.24
-9 2 -1 29.04 2.38
-2 -7 -1 32.38 2.22
-2 -7 -1 32.42 2.36
-9 7 1 32.85 2.46
2 -9 1 30.14 2.24
-7 -2 1 27.87 2.28
-9 2 -1 28.35 2.28
2 -9 1 33.57 2.37
-2 -7 -1 29.91 2.44
-9 7 1 29.29 2.24
-2 9 1 30.51 2.26
7 -9 -1 28.01 2.15
7 2 1 29.27 2.15
9 -2 -1 28.14 2.14
-7 9 -1 29.61 2.22
-7 -2 1 25.44 2.21
-9 8 -1 8.1 0.95
-8 -1 -1 6.18 0.91
-9 8 -1 8.13 1.07
9 -8 -1 8.48 0.89
1 -9 -1 8.11 1.12
-9 1 1 7.84 1.07
-9 8 -1 8.01 1.15
-1 -8 1 7.88 1.03
8 -9 1 8.5 1.05
-8 9 1 7.52 0.94
-1 -8 1 7.66 1.09
9 -1 1 7.98 0.89
-1 -8 1 7.98 1.28
-8 -1 -1 8.34 1.03
9 -8 -1 8.24 1.07
1 -9 -1 8.48 1.01
8 1 -1 8.5 0.9
-8 -1 -1 9.4 1.24
-1 9 -1 8.29 1.03
-9 1 1 7.76 1.1
8 -9 1 7.41 0.85
1 -9 -1 8.59 1.23
1 8 1 7.47 0.98
8 1 -1 7.34 0.93
8 -9 1 7.89 0.96
-1 -8 1 8.59 1.22
-9 1 1 7.81 1.3
1 8 1 8.29 0.91
-8 9 1 7.66 1.05
-1 -8 -1 7.56 1.11
8 1 1 7.89 0.91
-1 9 1 7.75 0.99
1 -9 1 9.96 1.21
-1 -8 -1 7.24 1.07
-8 -1 1 7.31 1.24
-1 -8 -1 7.02 1.18
-8 -1 1 7.2 1
1 -9 1 7.18 1.04
8 -9 -1 6.66 0.84
-1 -8 -1 8.08 0.98
9 -1 -1 6.91 0.82
8 -9 -1 6.6 1.03
-9 1 -1 6.42 1.17
-9 1 -1 6.77 1
-1 -8 -1 7.08 1.06
-8 9 -1 7.23 0.96
9 -8 1 6.8 0.97
1 8 -1 7.01 0.84
-8 -1 1 6.91 1.01
9 -8 1 7.32 0.94
1 8 -1 7.26 1.03
-8 9 -1 6.93 0.96
-9 8 1 6.58 0.97
1 -9 1 7.88 1.27
9 -1 -1 5.22 0.87
-9 0 -1 0.2 0.41
0 -9 -1 0.25 0.54
-9 9 1 0.22 0.49
0 9 -1 0.05 0.42
9 -9 1 0.23 0.47
-9 0 1 0.11 0.68
0 9 -1 0.66 0.54
0 -9 -1 0.41 0.66
0 9 1 0.37 0.6
0 -9 1 0.14 0.6
9 0 1 0.13 0.45
-9 0 1 0.49 0.68
0 -9 -1 0.58 0.76
0 -9 -1 0.83 0.78
0 -9 1 -0.2 0.65
-9 9 1 0.36 0.61
9 0 -1 0.11 0.52
-9 9 -1 0.02 0.56
0 9 1 -0.03 0.47
0 -9 -1 -0.1 0.71
0 -9 1 0.21 0.81
9 -9 -1 0.31 0.71
9 -9 -1 0.42 0.46
9 0 -1 0.36 0.48
-9 0 -1 0.11 0.69
9 -9 1 0.13 0.26
-9 0 -1 0.31 0.59
-9 9 -1 0.37 0.44
9 -9 1 0.14 0.61
0 -9 1 0.7 0.58
-9 0 1 0.23 0.75
-10 5 -1 70.07 5.08
-5 -5 -1 76.02 5.36
5 5 1 71.25 5.05
-10 5 -1 77.03 5.3
5 -10 1 78.56 5.33
-5 -5 -1 63.82 5.09
5 -10 1 76.52 5.22
-10 5 1 71.98 5.09
-5 -5 -1 69.73 5.16
-5 10 -1 75.25 5.13
-5 10 -1 77.91 5.14
-5 10 1 74.51 5.11
5 -10 -1 79.97 5.13
10 -5 1 75.2 5.06
-5 -5 1 76.8 5.17
5 5 -1 68.12 5.04
10 -5 -1 73.22 5.05
5 -10 1 79.47 5.14
5 5 -1 79.56 5.17
-10 5 1 76.33 5.3
5 -10 -1 83.22 5.38
-5 -5 -1 81.86 5.19
10 -5 -1 71.92 5.14
-5 -5 1 70.05 5.19
5 -10 -1 73.31 5.19
10 -5 -1 72.15 5.11
-10 5 1 77.59 5.19
-10 5 -1 78.28 5.2
-5 -5 1 65.87 5.25
4 -10 -1 4.68 0.99
-6 -4 -1 4.88 1.04
-4 10 -1 5.13 0.83
-10 6 -1 4.72 0.86
-4 -6 1 5.95 1
6 4 -1 5.13 0.78
-6 -4 -1 5.21 0.87
6 -10 1 5.19 0.7
-6 -4 -1 6.17 1.06
4 -10 -1 5.95 0.96
-4 -6 1 4.64 0.73
-4 -6 1 3.82 0.94
10 -6 -1 6.05 0.86
6 -10 1 6.26 0.85
-4 10 -1 6 0.8
-6 10 1 5.51 0.94
6 4 -1 5.28 0.84
10 -4 1 3.46 0.66
-10 6 -1 5.4 0.83
4 6 1 5.3 0.78
4 -10 -1 5.75 0.98
10 -4 1 5.95 0.9
6 -10 1 6.18 1.02
-6 -4 -1 5.02 0.72
-10 6 -1 5.9 0.98
-10 4 1 5.87 0.94
-10 4 1 4.95 0.98
10 -6 -1 7.27 0.95
10 -6 -1 5.7 0.8
-10 4 1 4.5 0.76
-4 -6 1 5.86 1.06
6 -10 1 4.97 0.95
-6 -4 1 4.76 0.99
-10 6 1 6.17 0.82
10 -4 -1 5.35 0.76
6 -10 -1 6.05 0.98
10 -6 1 3.58 0.68
6 -10 -1 5.53 1.01
-6 10 -1 5.86 0.81
4 6 -1 4.86 0.68
4 -10 1 6.43 0.86
-10 4 -1 5.69 1.06
-6 -4 1 5.81 1.04
10 -4 -1 5 0.88
4 -10 1 5.15 0.92
6 4 1 5.68 0.7
-6 -4 1 5.33 0.91
10 -6 1 4.99 0.78
-6 10 -1 5.79 0.93
6 -10 -1 4.21 0.74
-4 -6 -1 5.2 0.82
-10 6 1 3.95 0.78
-4 -6 -1 4.01 0.8
-4 10 1 4.62 0.82
-6 10 -1 5.08 0.8
-10 6 1 4.86 0.95
-4 -6 -1 4.72 1.03
4 6 -1 5.7 0.96
-10 4 -1 5.05 0.98
4 -10 1 5.66 1.04
-4 -6 -1 5.78 0.97
-3 -7 1 43.51 3.16
7 -10 1 43.2 2.97
-7 -3 -1 42.09 3.01
3 -10 -1 41.09 3.17
-3 -7 1 35.02 2.93
-3 10 -1 42.08 2.96
-7 10 1 37.18 2.99
3 -10 -1 40.3 3.08
-7 10 1 43.49 2.98
3 7 1 40.92 2.89
-7 -3 -1 42.56 3.18
-3 -7 1 44.35 3.04
7 -10 1 42.55 3.17
7 3 -1 36.29 2.94
10 -7 -1 43.14 3.03
-10 3 1 41.88 3.16
10 -7 -1 43.4 2.91
7 3 -1 39.12 2.88
-3 10 -1 40.59 2.95
7 -10 1 43.21 2.9
-10 7 -1 41.33 2.97
10 -3 1 40.37 2.9
-7 -3 -1 38.1 2.98
7 -10 1 40.9 3.05
-3 -7 1 37.76 3.18
-10 7 -1 42.7 3.18
-10 3 1 44.04 3.09
3 -10 -1 42.27 2.97
3 7 -1 45.71 3.41
-10 3 -1 49.43 3.55
3 -10 1 54.39 3.53
3 -10 1 51.22 3.63
10 -7 1 54.89 3.47
-3 10 1 49.33 3.48
7 3 1 50.08 3.44
3 7 -1 50.45 3.51
7 -10 -1 49.37 3.59
-7 -3 1 44.82 3.6
7 -10 -1 48.68 3.43
-7 -3 1 42.07 3.48
-10 7 1 54.29 3.69
3 -10 1 47.91 3.66
10 -3 -1 48.52 3.42
-7 -3 1 48.9 3.6
10 -3 -1 43.02 3.47
-7 -3 1 49.67 3.53
10 -7 1 40.39 3.49
7 -10 -1 54.42 3.76
7 -10 -1 48.44 3.45
-3 -7 -1 49.24 3.73
-7 10 -1 50.79 3.52
-10 7 1 50.81 3.49
-3 -7 -1 55.97 3.59
-7 10 -1 52.22 3.5
-3 -7 -1 46.85 3.54
-3 -7 -1 51.51 3.53
-7 10 -1 49.71 3.47
-10 3 -1 50.37 3.66
-8 -2 -1 20.72 1.9
2 -10 -1 24.71 1.88
-10 2 1 24.82 2.12
8 2 -1 21.06 1.9
-8 10 1 19.57 1.82
2 8 1 22.08 1.93
-2 -8 1 23.15 1.9
-8 10 1 26.39 1.97
-8 -2 -1 23.97 1.94
10 -8 -1 27.76 1.87
2 -10 -1 25.78 2.13
10 -8 -1 26.6 2.05
8 -10 1 26.79 1.86
-10 2 1 25.37 2
10 -2 1 26.5 1.9
8 2 -1 24.47 1.84
8 -10 1 23.44 2
-2 -8 1 25.14 2.12
-8 -2 -1 25.4 2.23
-10 8 -1 24.04 1.95
2 -10 -1 26.42 2.25
-2 -8 1 25.16 2.01
-2 -8 1 20.44 2.13
2 8 1 24.9 1.89
-2 10 -1 26.5 1.93
8 -10 1 25.56 1.9
-10 8 -1 24.03 2.11
10 -2 -1 26.09 2.33
-2 -8 -1 32.81 2.45
8 2 1 29.21 2.27
-10 8 1 31.94 2.42
-8 -2 1 31.69 2.44
-2 10 1 34.46 2.41
-8 10 -1 34.29 2.44
-8 -2 1 28.43 2.4
-2 -8 -1 32.25 2.33
-10 2 -1 32.28 2.41
2 -10 1 33.47 2.36
2 8 -1 34.44 2.44
-8 10 -1 33.24 2.36
-2 -8 -1 29.25 2.43
2 -10 1 32.83 2.59
8 -10 -1 31.48 2.44
10 -2 -1 31.58 2.31
2 -10 1 32.08 2.6
-8 -2 1 26.99 2.48
-2 -8 -1 32.58 2.34
8 -10 -1 31.02 2.28
2 8 -1 29.93 2.26
8 -10 -1 34.89 2.69
10 -8 1 34.67 2.34
-8 -2 1 25.89 2.34
-2 -8 -1 29.96 2.66
-8 10 -1 33.46 2.35
-10 2 -1 32.11 2.57
-10 8 1 30.37 2.54
9 -10 1 6.48 0.93
1 -10 -1 6.79 0.99
9 1 -1 6.18 0.87
-10 1 1 4.09 0.91
-9 10 1 6.37 1.03
-1 -9 1 6.21 1.04
1 9 1 7.13 0.81
9 -10 1 6.24 0.85
10 -1 1 6.59 0.83
1 -10 -1 6.52 0.96
9 1 -1 4.76 0.87
1 9 1 5.71 0.87
-9 -1 -1 3.96 0.97
10 -9 -1 5.67 0.92
-10 1 1 6.58 0.98
1 -10 -1 5.04 0.95
-9 -1 -1 5.97 1.07
1 -10 -1 6.44 1.04
-1 10 -1 5.76 0.92
9 -10 1 4.11 0.87
-1 -9 1 6.43 1.1
-10 9 -1 7.28 0.92
10 -9 -1 6.03 0.92
-1 -9 1 7.01 1
1 -10 -1 4.33 0.98
-1 -9 -1 3.42 0.78
-9 10 -1 4.48 0.81
-9 -1 1 2.37 0.76
1 -10 1 2.36 0.65
9 1 1 4.28 0.64
-9 -1 1 3.48 0.75
-1 -9 -1 2.75 0.93
9 -10 -1 3.68 0.61
-1 -9 -1 3.18 0.68
-10 1 -1 3.39 0.73
-9 10 -1 2.03 0.62
-10 9 1 4.56 0.84
-10 1 -1 2.69 0.9
10 -1 -1 3.3 0.61
1 -10 1 4.51 0.78
10 -1 -1 2.21 0.65
1 9 -1 2.69 0.55
1 -10 1 2.11 0.74
10 -9 1 2.01 0.62
1 9 -1 4.05 0.78
-1 10 1 2.95 0.68
1 -10 1 2.91 0.93
-9 -1 1 1.66 0.69
-1 -9 -1 3.49 0.67
10 -9 1 3.27 0.6
-9 -1 1 1.54 0.52
-1 -9 -1 1.95 0.8
9 -10 -1 3.33 0.85
0 -10 -1 26.18 2.18
10 -10 -1 27.05 2.07
0 -10 1 30.97 2.14
0 10 -1 28.03 2.13
0 10 1 28.26 2.18
0 -10 -1 28.31 2.17
0 -10 -1 28.46 2.13
-10 0 1 26.2 2.23
10 0 1 28.05 2.07
-10 10 -1 29.79 2.2
0 -10 1 25.19 2.28
0 -10 1 27.84 2.17
-10 10 1 29.75 2.18
-10 0 -1 22.51 2.31
10 -10 -1 21.2 2.16
-10 0 -1 25.47 2.19
10 -10 1 29.6 2.09
10 0 -1 27.27 2.05
0 10 1 26.14 2.05
-11 5 1 12.9 1.46
-6 -5 -1 14.07 1.38
-11 6 -1 12.56 1.48
5 -11 -1 12.21 1.4
-6 11 1 12.94 1.28
-5 -6 1 11.03 1.33
-11 6 -1 10.92 1.22
6 -11 1 11.09 1.41
-5 -6 1 12.64 1.37
5 6 1 11.19 1.18
11 -6 -1 10.66 1.19
6 -11 1 11.05 1.22
-6 -5 -1 11.55 1.58
-11 5 1 11.94 1.22
6 5 -1 11.24 1.3
-11 6 -1 12.04 1.33
6 -11 1 11.95 1.41
11 -6 -1 10.84 1.21
-5 11 -1 11.45 1.31
-11 5 1 11.48 1.44
11 -5 1 12.85 1.16
5 -11 -1 11.84 1.27
6 5 -1 11.84 1.16
-5 11 -1 12.67 1.25
5 -11 -1 12.9 1.71
11 -6 -1 12.97 1.21
5 -11 1 8.81 1.25
6 -11 -1 9.47 1.11
11 -5 -1 8.65 1.1
5 6 -1 8.26 0.99
11 -6 1 10.44 1.07
5 -11 1 8.53 1.37
-5 -6 -1 8.1 1.37
-6 -5 1 7.48 1.14
-11 6 1 8.9 1.05
-6 11 -1 7.65 1.02
11 -5 -1 6.17 0.97
-5 11 1 9.82 1.14
6 -11 -1 8.11 1.21
-11 5 -1 7.9 1
-11 5 -1 9.46 1.15
-5 -6 -1 11 1.26
-11 6 1 9.98 1.29
11 -5 -1 9.94 1.06
-6 -5 1 9.75 1.23
-6 11 -1 10.1 1.19
6 5 1 8.79 1.03
-11 6 1 9.39 1.33
5 -11 1 8.19 1.16
-6 11 -1 8.21 1.11
6 -11 -1 9.51 1.4
-11 5 -1 7.71 1.28
5 6 -1 9.34 1.16
-7 -4 -1 11.44 1.57
4 -11 -1 14.26 1.73
-4 -7 1 14.94 1.44
-11 4 1 14.79 1.5
-11 7 -1 11.66 1.35
11 -7 -1 11.5 1.28
-11 4 1 12.81 1.22
-11 4 1 12.58 1.47
4 7 1 11.08 1.26
4 7 1 13.13 1.18
4 -11 -1 12.82 1.32
11 -7 -1 14.28 1.22
-11 7 -1 13.9 1.51
-7 -4 -1 15.32 1.43
7 4 -1 13.49 1.23
4 -11 -1 13.72 1.54
11 -7 -1 14.07 1.3
-4 -7 1 12.77 1.48
11 -4 1 13.31 1.22
-4 11 -1 13.25 1.27
7 -11 1 12.39 1.46
7 -11 1 13.75 1.21
-11 7 -1 12.22 1.26
7 4 -1 11.45 1.31
-7 11 1 14.63 1.34
7 -11 1 12.25 1.48
-4 11 -1 14.63 1.23
-7 11 1 11.99 1.32
7 -11 1 13.27 1.35
-4 -7 -1 8.32 1.49
4 -11 1 10.91 1.4
-11 4 -1 11.79 1.43
-11 7 1 9.74 1.24
-11 4 -1 12.64 1.29
-11 7 1 12.48 1.52
7 4 1 11.14 1.17
4 -11 1 11.92 1.28
7 -11 -1 12.03 1.35
11 -7 1 13.32 1.16
-7 -4 1 12.9 1.35
-7 11 -1 11.63 1.13
11 -4 -1 10.22 1.22
-4 -7 -1 12.74 1.28
-7 11 -1 11.59 1.24
7 -11 -1 13.36 1.53
11 -4 -1 12.44 1.14
-7 -4 1 10.29 1.33
4 -11 1 10.22 1.37
-7 11 -1 12.87 1.35
-11 7 1 11.26 1.27
-4 11 1 12.42 1.2
7 -11 -1 11.25 1.23
4 7 -1 11.3 1.14
4 7 -1 14.67 1.35
-3 -8 1 11.8 1.32
8 3 -1 9.42 1.17
-11 8 -1 10.94 1.17
-11 3 1 12.58 1.3
-3 -8 1 11.27 1.16
8 -11 1 12.02 1.22
-3 -8 1 9.46 1.31
3 -11 -1 11.52 1.22
-8 11 1 11.22 1.31
-8 -3 -1 10.59 1.22
11 -3 1 12.24 1.12
-8 -3 -1 8.87 1.38
-3 11 -1 13.05 1.26
11 -8 -1 8.24 1.11
8 3 -1 12 1.14
-11 3 1 8.05 1.26
3 8 1 10.99 1.08
-11 8 -1 12.88 1.39
8 -11 1 9.14 1.27
-8 -3 -1 11.93 1.19
11 -8 -1 12.04 1.12
8 -11 1 12.51 1.19
3 8 1 11.07 1.26
3 -11 -1 11.27 1.37
8 -11 1 10.05 1.34
3 -11 -1 11.15 1.42
11 -3 -1 17.05 1.45
-11 8 1 16.27 1.71
11 -8 1 17.5 1.4
-3 -8 -1 16.42 1.51
-8 11 -1 17.88 1.53
-3 -8 -1 11.89 1.67
-8 -3 1 16 1.48
8 -11 -1 16.31 1.35
3 8 -1 15.69 1.35
-8 11 -1 16.09 1.46
8 3 1 14.8 1.4
8 -11 -1 18.17 1.75
-11 3 -1 17.28 1.53
11 -3 -1 14.04 1.47
-3 -8 -1 14.79 1.39
8 -11 -1 14.74 1.53
3 8 -1 18.86 1.58
-3 11 1 17.71 1.53
3 -11 1 16 1.61
-11 3 -1 16.14 1.65
-8 -3 1 14.33 1.48
-11 8 1 15.7 1.53
3 -11 1 17.66 1.54
8 -11 -1 16.24 1.44
9 -11 1 65.14 4.6
2 9 1 59.95 4.65
9 2 -1 67.33 4.57
11 -2 1 64.85 4.56
11 -9 -1 70.11 4.6
-9 11 1 73.04 4.68
-11 2 1 67.03 4.7
2 9 1 64.15 4.58
2 -11 -1 67.56 4.63
-9 -2 -1 63.81 4.67
-11 9 -1 61.8 4.61
-2 -9 1 64.79 4.63
-2 -9 1 67.17 4.68
2 -11 -1 66.22 4.67
9 -11 1 71.39 4.59
-2 11 -1 70.74 4.65
-2 11 1 62.79 4.2
9 -11 -1 59.46 4.11
9 -11 -1 49.67 4.34
-11 2 -1 62 4.27
2 -11 1 65.09 4.21
-2 -9 -1 64.33 4.2
11 -9 1 62.56 4.13
-9 11 -1 64.33 4.25
9 2 1 56.32 4.12
11 -2 -1 55.43 4.11
2 9 -1 57.61 4.12
-11 9 1 60.31 4.19
2 -11 1 48.59 4.26
2 9 -1 63 4.24
-2 -9 -1 60.06 4.22
-9 -2 1 60.15 4.26
-10 -1 -1 38.62 3
1 10 1 39.95 2.94
11 -1 1 38.25 2.89
10 -11 1 43.24 2.94
1 -11 -1 38.94 2.97
11 -10 -1 42.16 2.93
10 1 -1 37.62 2.88
10 -11 1 38.27 2.92
1 10 1 38.63 3.02
-1 -10 1 39.66 3.03
-10 11 1 42.51 3.03
-1 11 -1 44.89 3.04
-11 10 -1 42.45 2.99
-1 -10 1 40.5 2.99
1 -11 -1 43.46 2.99
-11 1 1 42.51 3.1
-10 -1 1 42.11 3.33
10 -11 -1 44.94 3.23
-1 -10 -1 49.73 3.32
11 -10 1 47.31 3.23
10 1 1 42.84 3.23
-11 10 1 45.31 3.31
1 -11 1 48.06 3.29
1 -11 1 40.19 3.29
-11 1 -1 46.57 3.37
-10 11 -1 47.31 3.32
-1 -10 -1 43.54 3.32
1 10 -1 45.07 3.23
-1 11 1 47.94 3.35
1 10 -1 48.72 3.36
11 -1 -1 43.97 3.22
-11 11 -1 9.77 1.19
0 11 -1 9.86 1.26
11 0 1 8.75 1.05
11 -11 1 9.63 1.13
0 -11 1 10.27 1.23
0 -11 -1 10.55 1.21
-11 11 1 9.33 1.23
0 -11 1 9.93 1.27
0 11 1 9.06 1.26
-11 0 -1 9.87 1.29
0 -11 -1 8.78 1.21
-11 0 1 9.5 1.34
11 -11 -1 9.47 1.12
11 0 -1 8.48 1.1
-12 6 -1 13.7 1.34
-6 12 -1 13.56 1.4
6 6 -1 15.91 1.37
-12 6 1 15.6 1.44
12 -6 -1 15.15 1.34
12 -6 1 17.34 1.46
12 -6 -1 13.21 1.45
6 -12 1 15.35 1.43
-12 6 1 17.3 1.58
6 6 1 14.24 1.32
-6 12 -1 15.01 1.46
6 6 -1 13.78 1.48
-12 6 -1 16.23 1.58
-6 -6 1 15.88 1.49
-6 12 1 15.87 1.46
-6 -6 -1 16.49 1.55
6 -12 -1 14.52 1.43
-5 12 -1 13.13 1.3
7 -12 1 15.02 1.33
-12 5 1 15.37 1.48
-5 -7 1 14.3 1.47
12 -7 -1 14.71 1.3
7 5 -1 12.68 1.4
7 -12 1 14.14 1.41
7 5 -1 14.31 1.28
-12 5 1 12.03 1.22
5 -12 -1 11.98 1.26
12 -5 1 15.16 1.36
5 7 1 10.23 1.29
12 -7 -1 12.4 1.36
5 7 1 12.76 1.28
-12 7 -1 11.81 1.41
-12 7 -1 12.52 1.35
-7 -5 -1 14.4 1.36
-7 12 1 14.11 1.38
-7 12 1 10.73 1.26
-12 5 -1 12.88 1.43
-12 7 1 11.35 1.45
5 -12 1 12.43 1.35
-5 -7 -1 14.44 1.42
5 7 -1 11.33 1.27
-7 12 -1 11.83 1.28
12 -5 -1 12.51 1.26
12 -5 -1 10.51 1.26
7 -12 -1 11.08 1.28
12 -7 1 13.55 1.19
5 7 -1 11.97 1.2
-5 12 1 12.97 1.33
-12 7 1 10.7 1.31
-7 12 -1 12.26 1.4
7 5 1 11.41 1.22
-7 -5 1 12.36 1.41
-12 5 -1 10.84 1.21
4 -12 -1 13.04 1.32
-12 4 1 13.86 1.44
12 -8 -1 14.12 1.41
8 -12 1 12.65 1.36
8 4 -1 12.31 1.19
12 -4 1 14.23 1.26
-4 -8 1 16.47 1.51
-8 -4 -1 13.16 1.34
-8 12 1 11.76 1.32
4 8 1 11.9 1.27
-12 8 -1 12.15 1.35
4 8 1 12.36 1.43
-12 8 -1 11.57 1.38
-4 12 -1 13.71 1.29
-12 4 1 11.35 1.2
8 -12 1 13.6 1.25
8 4 -1 11.12 1.32
12 -8 -1 12.69 1.22
-8 -4 -1 11.48 1.25
4 -12 1 8.41 1.07
-8 -4 1 9.48 1.23
-4 -8 -1 9.41 1.24
4 8 -1 7.21 0.96
-12 4 -1 9.22 1.15
-12 8 1 6.72 1.1
8 -12 -1 8.01 0.97
-4 12 1 8.9 1.17
-12 8 1 7.5 1.17
-8 12 -1 7.81 1.02
12 -4 -1 7.92 1.11
12 -4 -1 7.98 1.09
8 4 1 8.32 1.04
-4 -8 -1 7.72 1.09
-8 -4 1 6.85 1.12
12 -8 1 8.88 1.1
-8 12 -1 9.04 1.27
4 8 -1 9.62 1.24
8 -12 -1 8.24 1.12
-12 3 1 16.66 1.55
-9 -3 -1 16.12 1.53
-9 12 1 14.95 1.48
-9 -3 -1 14.15 1.45
9 3 -1 12.07 1.41
-12 9 -1 14.11 1.43
12 -9 -1 15.67 1.43
-3 -9 1 15.72 1.59
9 -12 1 14.7 1.48
9 -12 1 16.07 1.43
9 3 -1 14.39 1.37
12 -3 1 15.54 1.38
3 9 1 15.23 1.43
-3 -9 1 15.08 1.48
3 -12 -1 15.6 1.4
3 9 1 14.98 1.53
-3 12 -1 16.27 1.52
9 -12 -1 15.23 1.34
12 -3 -1 15.29 1.42
-3 -9 -1 13.93 1.45
3 9 -1 16.74 1.59
12 -9 1 16.08 1.37
-9 -3 1 14.4 1.55
9 -12 -1 13.77 1.39
-3 -9 -1 16.03 1.54
-12 9 1 15.16 1.46
-9 12 -1 17.02 1.64
3 9 -1 14.91 1.4
-12 3 -1 15.62 1.5
3 -12 1 14.39 1.41
-3 12 1 16.42 1.53
-9 -3 1 12.89 1.47
9 3 1 15.86 1.41
-10 -2 -1 6.73 1.08
10 2 -1 9.27 1.13
-2 -10 1 8.58 1.19
2 -12 -1 10.23 1.21
10 -12 1 9.68 1.14
-12 10 -1 9.54 1.19
12 -2 1 9.72 1.17
-10 12 1 10.61 1.4
-2 12 -1 9.99 1.17
-10 -2 -1 9.59 1.27
2 10 1 9.55 1.08
2 10 1 8.98 1.27
-12 2 1 10.55 1.27
10 -12 1 9.99 1.16
10 2 -1 8.24 1.19
12 -10 -1 10.29 1.16
-2 -10 1 11.04 1.35
2 10 -1 16.48 1.59
10 -12 -1 16.24 1.48
-10 -2 1 17.37 1.7
-12 2 -1 17.23 1.67
2 10 -1 16.62 1.5
-12 10 1 16.53 1.57
-2 -10 -1 15.39 1.6
12 -10 1 17.01 1.53
-2 -10 -1 18.32 1.61
10 2 1 15.56 1.5
2 -12 1 16.27 1.58
-10 12 -1 17.47 1.7
-2 12 1 18.43 1.65
12 -2 -1 15.6 1.44
1 11 1 20.94 1.98
1 -12 -1 20.38 1.89
-12 1 1 25.44 2.08
11 1 -1 18.14 1.87
11 -12 1 20.54 1.82
1 11 1 23.36 1.83
11 1 -1 22.74 1.85
11 -12 1 23.81 1.82
-11 12 1 25.69 2.08
-11 -1 -1 24.2 2.02
12 -1 1 22.81 1.82
-12 11 -1 22.54 1.93
-1 -11 1 23.21 1.94
-1 12 -1 24.11 1.99
12 -11 -1 22.54 1.8
1 -12 -1 22.92 1.92
-1 -11 1 23.31 2.02
-11 12 -1 16.34 1.59
-12 1 -1 15.92 1.59
11 -12 -1 13.35 1.3
-1 -11 -1 15.13 1.48
-1 -11 -1 13.67 1.47
1 -12 1 14.51 1.48
1 -12 1 13.84 1.47
11 1 1 13.92 1.38
1 11 -1 15.27 1.54
-12 11 1 14.52 1.57
12 -1 -1 13.37 1.31
12 -11 1 15.32 1.36
-1 12 1 13.17 1.49
-11 -1 1 14.12 1.5
0 12 1 45.52 3.55
0 -12 1 47.55 3.47
0 -12 -1 49.23 3.48
12 -12 1 50.43 3.44
0 -12 -1 45.97 3.46
-12 12 -1 46.59 3.49
0 12 -1 52.76 3.56
-12 12 1 49.78 3.56
12 0 1 46.26 3.4
12 -12 -1 47.08 3.4
-12 0 -1 45.74 3.5
-12 0 1 47.87 3.53
0 -12 1 45.32 3.5
12 0 -1 44.67 3.36
-13 7 -1 1.17 0.7
13 -6 1 1.33 0.62
-13 6 1 1.56 0.91
6 -13 -1 1.3 0.7
7 6 -1 0.15 0.63
7 6 -1 0.53 0.56
-7 13 1 1.06 0.63
7 -13 1 0.79 0.59
13 -7 -1 0.57 0.55
6 7 1 0.83 0.6
-6 -7 1 1.83 0.83
13 -7 -1 1.5 0.71
-7 -6 -1 1.85 0.75
-6 13 -1 0.12 0.72
7 -13 1 1.08 0.75
-13 7 -1 1.42 0.77
6 7 1 0.97 0.54
-13 6 1 1.41 0.6
-6 13 -1 0.97 0.67
6 7 -1 0.88 0.58
-6 -7 -1 1.41 0.75
-7 -6 1 1.69 0.72
-7 13 -1 1.05 0.68
7 6 1 1.32 0.63
-13 7 1 0.92 0.63
6 7 -1 0.93 0.67
13 -7 1 1.59 0.61
13 -6 -1 1.44 0.6
-13 6 -1 0.7 0.7
13 -7 1 -0.08 0.44
13 -6 -1 0.64 0.64
-13 6 -1 0.23 0.65
6 -13 1 0.91 0.79
7 -13 -1 0.64 0.66
-13 7 1 1.09 0.78
7 6 1 0.08 0.5
-6 13 1 1.29 0.67
-7 13 -1 1.11 0.76
-13 8 -1 24.1 2.18
-13 8 -1 25.39 2.11
-13 5 1 22.64 2.01
5 8 1 25.82 1.99
-8 -5 -1 27.75 2.13
13 -8 -1 25.02 2.13
-5 13 -1 26.55 2.07
5 -13 -1 25.41 2.08
13 -8 -1 26.36 2.04
13 -5 1 27.29 2.04
-5 -8 1 29.2 2.22
8 5 -1 24.83 2.02
8 -13 1 28.8 2.08
8 -13 1 25.82 2.13
-13 5 1 30.3 2.3
5 8 1 22.78 2.17
-8 13 1 22.78 2.12
8 5 -1 22.47 2.13
-8 13 -1 28.01 2.22
-5 13 1 26.64 2.05
-5 -8 -1 21.01 2.02
-8 -5 1 25.77 2.13
-8 13 -1 25.9 2.08
5 8 -1 23.01 2.09
5 -13 1 26.88 2.1
13 -5 -1 20.45 2.05
8 -13 -1 26.4 2.01
8 -13 -1 23.86 2.06
5 8 -1 26.36 2
-13 8 1 23.54 2.07
-13 8 1 23.11 2.21
8 5 1 24.61 2
-13 5 -1 27.03 2.12
13 -5 -1 25.83 2.04
-5 -8 -1 27.22 2.12
13 -8 1 26.71 2.02
-4 -9 1 3.62 0.77
9 4 -1 3.56 0.84
-9 13 1 4.68 0.97
9 4 -1 3.71 0.7
9 -13 1 5.67 0.94
-4 13 -1 6.73 0.97
-9 -4 -1 4.73 0.9
4 9 1 5.36 0.82
-4 -9 1 7.86 1.11
-13 4 1 5.78 1
4 9 1 2.85 0.87
13 -9 -1 4.62 0.93
4 -13 -1 5.86 0.9
-9 -4 -1 4.7 0.85
-13 9 -1 5.16 0.9
13 -9 -1 4.28 0.72
13 -4 1 5.61 0.8
9 -13 1 4.87 0.77
-9 -4 1 3.76 0.86
4 -13 1 4.43 0.86
13 -4 -1 2.05 0.76
-4 -9 -1 5.85 0.96
-13 9 1 2.18 0.86
4 9 -1 3.78 0.87
9 4 1 3.1 0.7
13 -4 -1 3.64 0.71
-13 9 1 3.59 0.81
-13 4 -1 5.08 0.91
9 -13 -1 5.14 0.78
13 -9 1 2.47 0.75
-9 13 -1 4.86 0.85
9 -13 -1 3.13 0.85
-4 13 1 5.55 0.93
4 9 -1 4.08 0.74
13 -9 1 5 0.77
-9 13 -1 3.6 0.88
-9 -4 1 3.62 0.89
-4 -9 -1 2.73 0.75
-13 10 -1 12.88 1.49
10 3 -1 13.32 1.33
13 -3 1 13.52 1.39
13 -10 -1 13.3 1.28
-13 3 1 13.54 1.56
-3 -10 1 15.24 1.59
3 10 1 12.38 1.53
-10 -3 -1 10.72 1.33
3 10 1 13.42 1.39
10 -13 1 14.92 1.33
-10 -3 -1 12.15 1.45
10 -13 1 13.24 1.42
3 -13 -1 12.82 1.38
-10 13 1 13.75 1.57
10 3 -1 11.18 1.38
-3 13 -1 13.88 1.44
-3 -10 1 12.39 1.42
-13 10 1 12.16 1.46
-3 -10 -1 13.81 1.42
-3 13 1 13.82 1.46
10 -13 -1 12.39 1.27
-10 -3 1 10.17 1.4
10 -13 -1 9.95 1.28
3 10 -1 12.45 1.47
3 -13 1 13.4 1.4
10 3 1 12.2 1.22
-10 13 -1 12.92 1.43
-13 3 -1 13.15 1.39
3 10 -1 11.44 1.29
13 -3 -1 11.47 1.25
-3 -10 -1 11.39 1.33
13 -10 1 12.7 1.28
13 -3 -1 9.53 1.33
-10 -3 1 12.21 1.38
-13 2 1 27.07 2.21
11 2 -1 25.27 2.07
-2 -11 1 27.09 2.25
13 -2 1 26.06 2.05
-11 -2 -1 25.07 2.21
-2 13 -1 27.77 2.23
2 11 1 26.53 2.26
11 -13 1 25.35 2.04
11 -13 1 24.93 2.09
-11 13 1 27.31 2.22
13 -11 -1 25.5 2.07
2 -13 -1 25.04 2.11
2 11 1 26.16 2.1
-2 -11 1 23.92 2.13
-13 11 -1 26.31 2.14
2 -13 1 23.8 1.97
-2 -11 -1 23.2 1.98
13 -11 1 22.54 1.89
13 -2 -1 21.88 1.9
-11 13 -1 24.92 2.11
-11 -2 1 22.9 2.01
2 11 -1 23.92 2.07
-2 13 1 23.25 2.04
-2 -11 -1 20.41 1.92
11 -13 -1 20.86 1.81
-13 2 -1 23.23 2.05
-13 11 1 21.54 2.01
11 2 1 22.85 1.89
-1 13 -1 7.26 1.26
12 -13 1 5.58 0.95
13 -12 -1 8.45 0.97
-13 12 -1 7.36 1.07
1 -13 -1 7.11 1.13
12 1 -1 5.23 0.96
-1 -12 1 8.36 1.31
-12 -1 -1 7.29 1.11
-13 1 1 7.36 1.23
1 -13 -1 7.41 1.19
-12 13 1 9.8 1.26
12 1 -1 4.67 0.81
13 -1 1 7.53 1.14
12 -13 1 6.75 1.04
1 12 1 4.56 1.01
-1 -12 1 6.57 1.01
-13 1 -1 9.57 1.3
-1 -12 -1 9.9 1.34
13 -1 -1 6.68 1.2
-12 -1 1 10.7 1.49
12 -13 -1 8.72 1.09
1 12 -1 10.43 1.44
13 -12 1 9.57 1.24
13 -1 -1 9.66 1.24
1 -13 1 11.33 1.34
-13 12 1 8.97 1.41
-12 13 -1 11.35 1.5
-1 13 1 8.72 1.36
12 1 1 8.22 1.22
1 -13 1 9.38 1.32
-1 -12 -1 10 1.36
0 13 -1 1.53 0.86
-13 0 1 1.34 0.89
0 13 1 1.05 0.84
0 -13 -1 1.93 0.77
0 -13 1 0.94 0.69
13 -13 -1 1.59 0.66
-13 13 -1 1.37 0.86
13 0 -1 1.17 0.65
0 -13 1 1.25 0.81
-13 0 -1 1.33 0.85
13 0 1 0.69 0.69
0 -13 -1 0.61 0.75
13 -13 1 1.52 0.65
-13 13 1 1.34 0.92
13 0 -1 0.91 0.69
7 -14 1 2.33 0.77
7 7 -1 2.16 0.71
-7 14 1 3.14 0.77
-7 -7 -1 3.3 0.81
7 7 1 3.16 0.75
-14 7 -1 2.67 0.89
14 -7 1 3.15 0.79
-7 -7 1 4.68 0.98
14 -7 -1 2.13 0.8
14 -7 -1 2.23 0.71
7 7 -1 2.32 0.81
-14 7 -1 2.61 0.75
7 -14 1 3.18 0.75
-14 7 1 3.19 0.79
-14 7 1 2.56 0.94
7 -14 -1 2.16 0.76
-7 14 -1 3.38 0.75
14 -6 1 25.22 2.04
8 6 -1 24.21 1.97
14 -8 -1 25.79 2.01
-14 8 -1 23.18 2.05
-14 6 1 20.84 1.94
-14 8 -1 20.51 2.09
14 -8 -1 20.89 2.05
-6 14 -1 24.06 2
-8 -6 -1 26.15 2.06
8 -14 1 25.77 2.09
6 8 1 24.93 1.99
8 -14 1 24.35 1.98
6 -14 -1 23.23 1.95
-6 -8 1 27.67 2.18
8 6 -1 20.01 2.05
-14 6 1 26.4 2.18
-8 14 1 23.23 1.99
-14 8 1 21.1 1.82
-8 14 -1 21.18 1.99
-14 8 1 19.32 1.96
-14 6 -1 24 2.03
-8 14 -1 22.43 1.9
-6 14 1 22.31 1.92
-6 -8 -1 21.67 1.88
14 -6 -1 21.91 1.8
8 -14 -1 21.67 1.78
-14 6 -1 19.44 1.8
-8 -6 1 23.95 2.03
8 6 1 21.74 1.77
14 -8 1 22.13 1.87
6 8 -1 18.28 1.89
8 -14 -1 21.73 1.92
-6 -8 -1 19.75 1.8
6 -14 1 21.72 1.89
6 8 -1 20.84 1.79
14 -6 -1 18.6 1.91
5 9 1 4.27 0.96
14 -5 1 5.65 0.85
-5 14 -1 6.4 0.97
9 -14 1 3.41 0.78
-14 9 -1 4.58 1
9 5 -1 4.67 0.82
-5 -9 1 6.44 1.02
14 -9 -1 4.91 0.81
5 -14 -1 6.52 0.98
-9 -5 -1 5.43 0.94
5 9 1 5.57 0.86
-9 14 1 5.09 1.02
-14 9 -1 5.18 0.96
9 -14 1 3.75 0.9
-14 5 1 5.69 1.05
9 5 -1 3.27 0.89
-14 9 1 4.42 0.89
-5 14 1 5.08 0.95
9 -14 -1 7.25 0.92
5 -14 1 7.28 1.03
-14 9 1 4.57 1.09
-9 -5 1 6.19 1.05
-14 5 -1 6.27 1.02
-9 14 -1 5.06 0.91
9 5 1 6.2 0.9
14 -5 -1 5.02 0.83
-5 -9 -1 4.27 0.87
5 9 -1 4.91 1
14 -5 -1 3.28 0.89
5 9 -1 4.49 0.82
-9 14 -1 6.3 1.08
9 -14 -1 6.16 1.02
14 -9 1 6.95 1.09
-5 -9 -1 6.35 1.16
-10 -4 -1 57.02 4.56
4 10 1 60.57 4.66
10 -14 1 70 4.55
14 -10 -1 58.61 4.61
14 -10 -1 66.75 4.51
14 -4 1 66.22 4.52
-14 10 -1 66.35 4.59
-10 14 1 62.25 4.62
4 -14 -1 62.76 4.54
-4 -10 1 56.24 4.51
-4 14 -1 67.09 4.6
-4 -10 1 71.71 4.68
10 -14 1 66.15 4.58
10 4 -1 65.5 4.51
-14 4 1 67.22 4.69
4 10 1 65.85 4.51
-10 14 -1 60.57 4.31
-10 -4 1 54.73 4.24
10 4 1 59.88 4.16
14 -10 1 62.01 4.16
4 10 -1 59.78 4.15
-10 -4 1 48.83 4.2
-14 10 1 61.19 4.25
-4 -10 -1 50.51 4.18
10 -14 -1 58 4.18
10 -14 -1 60.49 4.16
-4 -10 -1 62.95 4.26
4 10 -1 54.16 4.25
14 -4 -1 62.1 4.18
-4 14 1 66.3 4.31
-14 4 -1 60.88 4.31
4 -14 1 58.57 4.19
3 -14 -1 7.18 1.05
11 -14 1 6.72 1.02
11 3 -1 6.26 0.92
-11 14 1 7.57 1.3
11 -14 1 7.61 1.19
-3 -11 1 8.87 1.46
3 11 1 7.32 1.17
14 -11 -1 6.77 1.02
14 -3 1 6.36 0.9
-3 14 -1 7.69 1.25
-3 -11 1 6.85 1.19
-11 -3 -1 5.15 0.94
-11 -3 -1 6.19 1.06
11 3 -1 5.74 1.02
-14 3 1 7.6 1.26
3 11 1 6.56 1.06
-14 11 -1 9.23 1.17
11 3 1 9.05 1.24
-11 -3 1 10.56 1.47
3 -14 1 9.98 1.32
-3 -11 -1 9.66 1.31
14 -3 -1 7.22 1.26
3 11 -1 8.8 1.23
14 -11 1 9.73 1.22
14 -3 -1 8.47 1.27
-3 14 1 9.18 1.31
-14 3 -1 10.76 1.33
3 11 -1 9.73 1.4
-11 -3 1 8.44 1.32
-14 11 1 9.4 1.39
11 -14 -1 10.79 1.24
-11 14 -1 12 1.56
-3 -11 -1 9.17 1.27
-14 12 -1 6.2 0.98
12 2 -1 3.84 0.88
-12 14 1 5.77 1.15
14 -12 -1 5.42 0.81
2 -14 -1 5.75 0.91
2 12 1 5.66 1.11
-12 -2 -1 4.37 0.95
-2 14 -1 5.41 0.95
-2 -12 1 6.82 1.1
-2 -12 1 6.32 1.01
12 -14 1 3.26 0.82
14 -2 1 5.1 0.88
12 2 -1 4.33 0.83
12 -14 1 5.21 0.88
-2 -12 -1 7.73 1.31
12 2 1 8.34 1.03
-14 12 1 7.06 1.24
-14 2 -1 7.34 1.26
14 -2 -1 7.13 1
-2 14 1 8.69 1.22
12 -14 -1 9.18 1.05
2 -14 1 8.77 1.27
14 -12 1 7.4 1.18
2 12 -1 8.29 1.21
-2 -12 -1 6.04 1.03
-12 14 -1 10.28 1.33
14 -2 -1 5.54 1.02
-12 -2 1 8.02 1.25
14 -1 1 6.71 0.96
-13 14 1 6.18 1.14
-1 -13 1 4.24 0.94
1 -14 -1 7.51 1.24
13 1 -1 6.02 0.93
-13 -1 -1 6.28 1.08
-14 13 -1 7.35 1.07
13 -14 1 5.53 0.91
-1 14 -1 6.77 1.08
-14 1 1 8.68 1.44
-1 -13 1 6.15 1.07
1 13 1 4.84 1.08
14 -13 -1 7.95 0.98
1 -14 -1 5.04 0.93
1 -14 1 3.84 0.88
-1 14 1 4.92 1.04
1 13 -1 4.34 0.99
-14 1 -1 4.56 0.98
-1 -13 -1 4.7 0.97
13 1 1 5.5 0.89
-13 14 -1 5.73 1.05
-1 -13 -1 4.4 0.95
13 -14 -1 6.69 0.92
-13 -1 1 4.93 1.03
14 -1 -1 3.6 0.84
1 -14 1 6.06 1.02
14 -13 1 5.42 0.87
-14 13 1 6.06 1.09
14 -1 -1 4.89 0.86
0 -14 -1 1.77 0.83
-14 14 -1 0.52 0.5
0 -14 1 1.86 0.85
-14 14 1 0.84 0.89
0 -14 -1 1.09 0.82
14 0 -1 0.66 0.71
-14 0 1 1.17 0.9
14 -14 1 0.97 0.73
-14 14 -1 1.59 0.94
14 0 1 0.73 0.77
-14 14 1 0.03 0.43
0 -14 1 1.03 0.81
14 0 -1 0.24 0.57
-14 0 -1 1.54 0.93
0 14 -1 1.48 0.94
14 -14 -1 1.27 0.72
0 14 1 1.52 0.93
8 7 -1 6.54 0.95
-15 7 1 6.47 1
-8 -7 -1 8.13 1.29
7 8 1 9.1 1.05
7 -15 -1 7.79 1.1
-15 7 1 8.07 1.25
8 7 -1 6.47 1.06
15 -7 1 8.01 1.01
-15 8 -1 5.32 1.07
-7 -8 1 8.92 1.44
-7 15 -1 7.56 1.24
8 -15 1 4.97 0.88
8 -15 1 7.32 1.31
-15 8 -1 6.19 1.01
15 -8 -1 7.91 1.28
15 -8 -1 4.29 0.98
-8 15 1 6.93 1.13
15 -7 -1 4.22 0.97
-7 -8 -1 7.11 1.18
-15 8 1 6.7 1.03
7 -15 1 7.54 1.08
8 7 1 5.39 0.87
8 -15 -1 6.8 0.93
-15 8 1 5.58 1.18
15 -8 1 7.67 0.99
7 8 -1 6.39 0.94
-15 7 -1 5.81 1.02
7 -15 1 5.02 0.85
-15 7 -1 5.22 0.95
7 8 -1 5.5 1.03
8 -15 -1 7.72 1.1
-8 15 -1 9.21 1.16
15 -7 -1 6.59 0.95
-8 -7 1 8.66 1.45
15 -9 -1 1.06 0.72
-15 9 -1 1.15 0.83
15 -9 -1 0.72 0.82
-6 15 -1 1.35 0.73
15 -6 1 1.73 0.82
9 6 -1 0.81 0.67
6 -15 -1 1.32 0.79
9 -15 1 1.39 0.72
-15 9 -1 0.86 0.84
-9 15 1 -0.32 0.65
6 9 1 1.2 0.7
9 6 -1 0.89 0.76
-9 -6 -1 1.02 0.75
-15 6 1 1.3 0.95
-6 -9 1 2.56 0.95
6 9 1 0.91 0.66
9 -15 1 0.84 0.81
-9 15 -1 1.24 0.77
-6 -9 -1 2.03 0.8
9 6 1 1.29 0.73
15 -9 1 -0.07 0.72
15 -6 -1 1.03 0.79
-9 15 -1 1.41 0.9
-9 -6 1 1.54 0.89
-15 9 1 0.87 0.97
6 -15 1 1.45 0.83
6 9 -1 1.34 0.83
-6 -9 -1 0.82 0.63
-15 6 -1 0.05 0.46
-15 9 1 1.69 0.8
9 -15 -1 1.32 0.7
-15 6 -1 1.4 0.8
6 9 -1 1.36 0.72
-6 15 1 1.04 0.71
15 -9 1 1.18 0.7
9 -15 -1 0.73 0.8
15 -6 -1 0.53 0.8
-10 -5 -1 4.76 0.95
10 5 -1 6.17 1.06
15 -10 -1 4.72 1
10 -15 1 8.48 1.18
15 -5 1 7.68 1.01
10 5 -1 5.37 0.89
-10 15 1 5.59 1.11
10 -15 1 7.14 1.1
5 10 1 4.76 0.88
-5 15 -1 7.15 1.21
-15 5 1 7.64 1.3
15 -10 -1 8.9 1.02
-5 -10 1 8.13 1.46
5 -15 -1 6.76 1.17
5 10 1 5.54 1.05
-15 10 -1 6.57 1.03
-10 15 -1 3.94 1.03
10 -15 -1 5.15 0.99
-15 10 1 5.69 1.05
15 -5 -1 5.37 0.96
-15 5 -1 7.2 1.15
-10 -5 1 3.69 0.93
-5 15 1 5.02 0.94
10 5 1 5.58 0.9
15 -10 1 6.77 0.95
-5 -10 -1 7.52 1.07
5 10 -1 4.43 0.84
-15 10 1 3.86 1.02
-5 -10 -1 4.42 0.92
5 10 -1 3.54 0.94
10 -15 -1 5.15 0.83
15 -5 -1 2.92 0.9
5 -15 1 7.5 1.07
-15 11 -1 9.58 1.34
-11 15 1 9.38 1.59
-4 15 -1 9.91 1.37
-4 -11 1 8.03 1.15
15 -11 -1 8.22 1.41
-4 -11 1 12.79 1.56
11 -15 1 10.97 1.35
-15 4 1 10.77 1.41
4 11 1 8.49 1.21
4 -15 -1 8.2 1.24
4 11 1 8.83 1.45
11 4 -1 7.32 1.36
15 -4 1 9.89 1.25
15 -11 -1 7.92 1.14
-11 -4 -1 7.07 1.27
-11 -4 -1 8.38 1.34
11 4 -1 7.98 1.25
11 -15 1 8.71 1.41
4 11 -1 8.69 1.41
4 -15 1 11.18 1.37
15 -4 -1 7.69 1.29
-4 -11 -1 11.48 1.41
-11 -4 1 8.4 1.4
-11 15 -1 11.15 1.61
4 11 -1 10.67 1.33
-4 -11 -1 9.03 1.37
-15 4 -1 10.9 1.47
15 -11 1 9.71 1.2
-11 -4 1 7.5 1.38
11 -15 -1 11.27 1.31
11 -15 -1 8.61 1.21
-15 11 1 9.97 1.45
15 -4 -1 9.86 1.39
11 4 1 10.06 1.32
15 -11 1 7.35 1.23
-4 15 1 11.19 1.51
12 -15 1 9.51 1.34
12 3 -1 9.46 1.34
-3 -12 1 9.94 1.35
3 -15 -1 10.15 1.34
-12 -3 -1 6.73 1.31
3 12 1 9.02 1.23
-3 15 -1 10.65 1.47
-12 -3 -1 9.44 1.45
12 -15 1 10.47 1.28
3 12 1 9.51 1.6
-3 -12 1 12.16 1.57
15 -12 -1 9 1.15
-15 12 -1 9.61 1.47
15 -3 1 10.26 1.36
15 -12 -1 8.9 1.51
-12 15 1 9.8 1.61
-15 3 1 11.9 1.56
12 3 -1 7.7 1.31
15 -12 1 8.45 1.32
-15 3 -1 10.56 1.51
-3 15 1 12.67 1.62
15 -3 -1 11.58 1.4
3 -15 1 11.8 1.43
-15 12 1 9.8 1.51
-3 -12 -1 12.95 1.51
12 3 1 10.5 1.36
-12 -3 1 8.4 1.35
-3 -12 -1 11.08 1.44
-12 15 -1 10.72 1.61
15 -3 -1 7.06 1.27
15 -12 1 10.67 1.23
12 -15 -1 9.23 1.3
-12 -3 1 11.05 1.51
3 12 -1 9.83 1.48
-15 13 -1 43.8 3.26
13 2 -1 40.77 3.17
15 -13 -1 42.18 3.17
-15 13 -1 37.48 3.07
2 13 1 42.84 3.43
-2 -13 1 44.91 3.33
2 -15 -1 41.24 3.21
-2 15 -1 45.95 3.34
-2 -13 1 39.91 3.23
13 -15 1 46.09 3.24
-13 -2 -1 40.88 3.31
15 -2 1 44.33 3.22
-15 2 1 43.14 3.32
-13 -2 1 41.6 3.25
-15 13 1 36.27 3.05
-2 -13 -1 39.84 3.19
15 -2 -1 41.27 3.12
-15 13 1 43.06 3.28
13 2 1 38.47 3.08
-15 2 -1 44.35 3.26
-2 -13 -1 44.68 3.25
-2 15 1 41.07 3.32
15 -13 1 44.96 3.15
2 -15 1 42.54 3.2
13 -15 -1 42.97 3.09
15 -1 1 1.1 0.81
1 14 1 1.16 0.95
14 -15 1 1.29 0.76
14 1 -1 1.17 0.75
-14 15 1 1.47 0.99
1 -15 -1 1.79 0.88
15 -1 1 1 0.5
-1 -14 1 0.89 0.8
15 -14 -1 1.33 0.71
-1 15 -1 0.87 0.85
-15 14 -1 1.53 0.91
-15 1 1 1.68 0.9
-15 1 1 1.04 0.68
-1 -14 1 2.08 0.9
-14 15 1 1.83 0.64
-15 14 -1 1.55 0.72
-14 -1 -1 1.78 0.98
1 14 1 0.23 0.32
14 1 -1 -0.06 0.58
-1 -14 -1 2.47 0.9
14 1 1 1.63 0.81
1 14 -1 3.52 1.05
-1 15 1 1.71 0.99
15 -1 -1 -0.1 0.72
-14 15 -1 2.74 1.04
-15 1 -1 2.86 1.02
-14 15 -1 1.57 0.69
1 -15 1 3.44 0.97
15 -14 1 2.24 0.8
15 -1 -1 1.36 0.76
-15 14 1 2.49 1.03
-15 14 1 2.24 0.77
-1 -14 -1 3.26 0.95
14 1 1 1.07 0.5
-14 -1 1 3.04 1.07
14 -15 -1 2.7 0.83
-1 15 1 1.11 0.43
15 -14 1 1.52 0.55
-15 1 -1 1.49 0.67
15 -15 -1 27.45 2.3
-15 0 1 25.02 2.27
0 -15 1 24.87 2.32
0 15 1 25.32 2.04
-15 15 -1 28.25 2.5
-15 15 1 29.16 2.32
15 0 -1 25.84 2.3
15 -15 1 29.32 2.35
-15 15 -1 28.62 2.29
0 15 -1 30.38 2.52
0 -15 1 26 2.35
0 15 1 28.23 2.54
-15 0 -1 25.46 2.25
-15 0 -1 25.92 2.39
15 0 1 28.73 2.36
0 -15 -1 29.4 2.42
-15 0 1 26.13 2.52
15 0 1 26.28 2.14
-15 15 1 29.61 2.53
0 -15 -1 25.97 2.32
16 -8 1 0.56 0.82
8 -16 -1 0.24 0.75
-8 16 -1 0.33 0.76
8 -16 1 0.61 0.73
16 -8 -1 -0.26 0.75
-16 8 -1 0.07 0.8
8 8 1 0.01 0.7
8 -16 1 0.55 0.84
-8 16 1 -0.2 0.29
16 -8 -1 0.56 0.84
-16 8 1 0.09 0.92
-8 -8 -1 0.21 0.76
16 -8 1 0.16 0.36
8 -16 -1 0.15 0.84
8 8 -1 0.18 0.77
-16 8 -1 0 0.85
-8 -8 1 0.49 0.87
8 8 -1 -0.44 0.66
7 -16 -1 10.26 1.48
-16 7 1 12.81 1.77
9 -16 1 12.8 1.47
16 -9 -1 13.9 1.55
-16 9 -1 11.54 1.53
9 7 -1 10.64 1.48
9 -16 1 12.75 1.58
7 9 1 13.08 1.48
16 -9 -1 10.08 1.53
-9 -7 -1 14.14 1.61
-7 16 -1 14.11 1.53
16 -7 1 12.96 1.59
9 7 -1 13.2 1.47
-16 9 -1 9.27 1.56
-7 -9 1 14.68 1.69
16 -7 -1 11.83 1.56
7 -16 1 11.92 1.46
-16 7 -1 8.77 1.19
16 -7 -1 9.88 1.51
9 7 1 12.32 1.48
7 9 -1 10.36 1.49
9 -16 -1 11.73 1.5
-9 -7 1 14.74 1.68
-16 9 1 10.37 1.72
9 -16 -1 14.24 1.5
-7 16 1 13.03 1.55
7 -16 1 10.62 1.42
-9 16 -1 11.35 1.38
16 -9 1 13.02 1.55
-16 9 1 10.24 1.4
-16 7 -1 10.21 1.58
-7 -9 -1 13.77 1.53
7 9 -1 11.61 1.44
-6 -10 1 8.54 1.49
-10 -6 -1 6.28 1.07
6 -16 -1 7.88 1.12
16 -10 -1 6.78 1.06
10 6 -1 4.99 0.95
10 -16 1 6.43 1.16
10 -16 1 6.95 1.03
16 -10 -1 5.68 1.14
-6 16 -1 8.4 1.18
6 10 1 5.75 1.01
16 -6 1 6.73 1.08
-16 10 -1 4.94 1.01
-16 6 1 7.01 1.31
-10 -6 1 7.47 1.33
6 -16 1 7.34 1.26
-16 10 1 4.8 0.95
-6 -10 -1 3.45 0.75
16 -6 -1 4.49 1.02
10 6 1 6.98 0.98
16 -6 -1 6.23 0.99
10 -16 -1 7.69 1.33
-6 -10 -1 8.88 1.34
16 -10 1 5.67 0.72
6 10 -1 5.06 1
-10 16 -1 6.78 1.23
6 -16 1 4.92 0.86
-16 10 1 4.68 1.13
-6 -10 -1 3.45 0.82
6 10 -1 6.04 0.96
-16 6 -1 8.52 1.25
16 -10 1 7.52 0.98
11 5 -1 22.23 1.95
-5 -11 1 24.95 2.16
16 -5 1 19.69 1.71
-11 -5 -1 18.86 1.96
-5 16 -1 23.18 2.07
11 5 -1 16.58 1.9
5 11 1 22.02 1.99
16 -11 -1 22.57 1.88
16 -11 -1 18.18 2.05
-16 5 1 23.26 2.2
-16 11 -1 21.26 2.08
11 -16 1 22.72 1.98
11 -16 1 24.12 2.08
-11 16 1 20.63 2.16
5 -16 -1 21.34 1.94
16 -5 1 23.66 2.02
16 -11 1 22.03 1.87
5 11 -1 19.16 1.81
-11 -5 1 18.29 1.94
5 11 -1 18.93 1.96
16 -5 -1 20.89 1.91
-11 16 -1 20.4 2.14
5 -16 1 17.3 1.61
11 -16 -1 17.15 1.84
-5 -11 -1 18.69 1.84
-16 11 1 19.7 1.95
11 -16 -1 21.09 1.79
16 -11 1 17.36 1.6
5 -16 1 19.03 1.8
11 5 1 20.43 1.86
-5 -11 -1 21.96 1.99
-5 16 1 23.36 2.03
-16 5 -1 20.61 2.05
4 12 1 46.65 3.86
-12 16 1 55.58 3.99
4 12 1 51.92 3.75
-4 16 -1 59.73 3.91
12 -16 1 48.13 3.8
16 -12 -1 53.65 3.7
16 -12 -1 47 3.86
4 -16 -1 52.27 3.78
16 -12 -1 50.52 3.57
12 4 -1 50.42 3.76
-16 4 1 47.99 3.74
-16 12 -1 45.52 3.65
-16 12 -1 53.34 3.87
16 -4 1 47.44 3.58
-12 -4 -1 43.34 3.78
-4 -12 1 57.08 3.94
-16 4 1 58.14 3.99
16 -4 1 57.6 3.81
-4 -12 -1 46.18 3.82
12 -16 -1 58.93 3.82
4 12 -1 52.33 3.92
-12 16 -1 53.03 3.92
-16 12 1 55.11 3.9
16 -12 1 54.87 3.8
-4 -12 -1 56.18 3.89
-12 -4 1 42.43 3.8
-12 -4 1 43.78 3.81
16 -4 -1 55.09 3.83
16 -12 1 52.87 3.63
-16 4 -1 55.75 3.98
4 -16 1 55.97 3.85
-16 4 -1 48.38 3.73
-16 12 1 48.91 3.72
12 4 1 52.09 3.76
-16 3 1 1.97 0.98
16 -3 1 0.95 0.56
16 -3 1 0.62 0.83
16 -13 -1 0.28 0.51
16 -13 -1 0.89 0.92
-13 -3 -1 -0.54 0.55
-13 -3 -1 0.87 0.88
-3 16 -1 0.85 0.88
-16 3 1 1.28 0.75
16 -13 -1 0.8 0.72
-3 -13 1 1.8 0.99
-3 -13 1 0.96 0.77
3 -16 -1 0.05 0.8
13 3 -1 0.05 0.65
13 3 -1 0.3 0.73
-16 13 -1 0.82 0.77
3 13 1 0.1 0.38
13 -16 1 0.1 0.48
-13 16 1 0.98 1.03
3 13 1 -0.05 0.9
13 -16 1 0.6 0.82
-16 13 -1 0.71 0.88
-13 16 -1 0.07 0.46
-13 16 -1 1.47 0.96
13 -16 -1 0.81 0.73
-3 16 1 0.79 0.9
16 -3 -1 1.5 0.83
16 -13 1 0.85 0.58
-16 13 1 0.79 0.79
-16 13 1 0.8 0.84
13 3 1 0.67 0.51
3 -16 1 0.89 0.83
-3 16 1 0.91 0.54
-3 -13 -1 1.51 0.9
16 -13 1 -0.22 0.57
16 -13 1 1.03 0.75
-16 3 -1 1.37 0.98
13 3 1 0.06 0.73
3 13 -1 1.14 0.9
-3 -13 -1 1.52 0.85
-13 -3 1 -0.34 0.52
-16 3 -1 1.39 0.71
-13 -3 1 1.28 0.93
-16 14 -1 18.2 1.92
16 -2 1 17.25 1.57
-16 2 1 17.97 1.81
2 14 1 16.82 1.95
16 -14 -1 14.08 1.89
2 -16 -1 16.58 1.77
-14 16 1 16.38 1.66
-16 14 -1 17.31 1.77
2 14 1 15.04 1.46
16 -14 -1 17.46 1.5
-16 2 1 18.15 2.04
-2 16 -1 19.96 1.97
-14 -2 -1 17.13 1.96
14 2 -1 16.75 1.74
-2 -14 1 20.92 1.96
16 -14 -1 19 1.66
-2 -14 1 14.63 1.76
14 -16 1 17.41 1.8
14 2 1 10.93 1.51
-14 16 -1 11.56 1.78
-16 14 1 10.94 1.44
-2 -14 -1 11.02 1.64
2 -16 1 12.28 1.57
14 -16 -1 11.42 1.47
-2 -14 -1 10.1 1.45
16 -14 1 10.82 1.36
-14 -2 1 9.91 1.61
2 14 -1 9.35 1.58
-2 16 1 9.02 1.21
-16 14 1 10.26 1.61
-2 16 1 10.58 1.7
14 2 1 11.29 1.25
16 -14 1 10.34 1.19
-16 2 -1 12.26 1.7
16 -2 -1 10.11 1.5
-14 16 -1 12.07 1.47
-16 2 -1 11.5 1.45
15 -16 1 14.51 1.64
-16 15 -1 15.22 1.65
16 -1 1 13.41 1.41
16 -1 1 14.01 1.66
-16 1 1 14.67 1.63
1 15 1 12.02 1.33
-16 1 1 14.58 1.81
-1 -15 1 12.41 1.68
-15 -1 -1 13.81 1.77
-1 -15 1 14.13 1.73
-15 16 1 13.55 1.87
15 1 -1 10.7 1.57
-15 -1 -1 13.43 1.54
16 -15 -1 12.99 1.32
1 -16 -1 13.75 1.64
-15 16 1 15.51 1.68
-1 16 -1 14.84 1.81
-16 15 -1 14.01 1.83
16 -15 -1 14.37 1.57
1 15 1 12.72 1.79
-16 15 1 21.47 2.11
-16 15 1 23.05 1.97
-15 16 -1 21.93 2.18
1 -16 1 19.91 1.97
-15 -1 1 18.72 1.91
16 -15 1 20.56 1.73
15 1 1 20.99 1.97
15 -16 -1 20.33 1.86
16 -15 1 20.91 1.95
-16 1 -1 20.21 2.15
15 1 1 20.61 1.77
-16 1 -1 21.24 1.92
-1 16 1 19.75 1.72
-1 -15 -1 19.24 1.97
1 15 -1 20.65 2.14
-1 -15 -1 17.63 1.98
-15 -1 1 21.24 2.16
-15 16 -1 22.46 1.99
16 -1 -1 17.51 1.92
-1 16 1 20.24 2.19
-16 16 -1 10.41 1.53
-16 0 1 9.77 1.73
-16 0 1 10.83 1.46
-16 0 -1 10.58 1.46
16 0 1 10.16 1.29
-16 16 1 9.61 1.45
16 -16 -1 9.25 1.44
16 -16 1 9.84 1.21
0 -16 1 8.3 1.44
16 0 1 9.13 1.25
0 16 1 9.55 1.62
0 16 1 7.79 1.2
16 0 -1 8.37 1.07
16 -16 1 8.97 1.47
0 16 -1 11.62 1.67
0 -16 -1 10.24 1.55
-16 0 -1 11.44 1.75
-16 16 -1 9.94 1.69
-16 16 1 12.02 1.53
17 -9 -1 5.55 1
17 -9 -1 4.35 1.06
8 9 1 7.52 1.1
-8 -9 1 7.52 1.14
-17 9 -1 7.37 1.13
17 -9 -1 7.41 0.87
9 8 -1 5.17 1.05
-9 -8 -1 6.59 1.13
17 -8 1 8.54 0.92
-17 8 1 8.87 1.42
8 -17 -1 7.78 1.18
-17 9 -1 6.4 1.21
9 -17 1 5.44 0.96
9 -17 1 6.76 1.12
-8 -9 1 9.85 1.54
9 8 -1 6.34 1.03
8 -17 -1 8.47 1.12
-8 17 -1 8.74 1.2
9 -17 1 4.65 0.75
-9 -8 -1 8.22 1.4
17 -8 1 8.96 1.21
8 -17 1 7.28 1.05
17 -8 -1 4.21 1.02
17 -9 1 9.08 1.33
8 -17 1 6.03 1.03
-17 8 -1 5.02 1.11
8 9 -1 6.01 1
8 9 -1 5.47 1.11
-8 -9 -1 10.05 1.48
17 -8 -1 6.6 1.07
-9 -8 1 9.8 1.54
9 -17 -1 9.13 1.27
8 -17 1 10.29 1.29
-9 17 -1 8.24 1.38
-17 9 1 5.53 1.23
-9 -8 1 7.13 1.1
9 8 1 8.63 1.13
17 -8 -1 7.15 1
-8 -9 -1 9.38 1.54
9 -17 -1 8.44 1.47
17 -9 1 8.03 1.12
17 -10 -1 4.87 0.99
-17 10 -1 2.59 0.92
-10 -7 -1 2.37 0.78
-17 7 1 6.53 1.3
-17 10 -1 3.59 0.97
10 7 -1 3.68 0.88
10 -17 1 4.24 0.91
7 10 1 4.52 0.95
7 -17 -1 4.38 0.97
17 -10 -1 3.72 0.69
-17 7 1 2 0.73
7 -17 -1 5.52 0.95
7 10 1 2.74 0.5
-7 -10 1 5.35 1.02
17 -7 1 5.37 0.77
17 -7 1 5.54 1.03
17 -10 -1 2.68 0.94
10 7 -1 2.66 0.82
-10 -7 -1 6.19 1.11
10 -17 1 5.77 1.08
-7 17 -1 4.55 1
7 -17 1 3.72 0.86
10 7 1 5.98 0.99
-7 17 1 4.48 0.71
10 7 1 3.91 0.61
17 -10 1 7.48 1.12
-7 -10 -1 6.85 1.13
7 -17 1 4.22 0.72
-17 10 1 5.36 1.06
-17 7 -1 3.64 0.97
17 -7 -1 4.35 0.67
-10 -7 1 7.6 1.2
17 -7 -1 4.52 0.98
17 -10 1 4.66 0.78
-7 -10 -1 6.3 1.06
10 -17 -1 5.27 0.95
7 10 -1 3.72 0.98
-7 17 1 6.83 1.16
7 10 -1 4.29 0.92
-17 10 1 4.06 1.12
10 -17 -1 5.28 1.11
7 -17 1 5.79 1.09
-17 6 1 2.74 1.07
-17 11 -1 1.5 0.6
-11 -6 -1 1.81 0.89
-6 -11 1 4.42 1.1
-6 -11 1 3.4 0.97
11 -17 1 2.78 0.99
17 -11 -1 1.38 0.89
6 11 1 1.76 0.48
17 -6 1 2.88 0.88
11 6 -1 1.33 0.75
17 -6 1 3.17 0.72
17 -11 -1 2.05 0.83
11 -17 1 2.75 0.86
6 -17 -1 2.51 0.88
-17 11 -1 2.6 1.01
-6 17 -1 3.16 0.98
6 11 1 2.43 0.83
-17 6 1 2.24 0.81
17 -11 -1 2.88 0.69
11 -17 -1 2.06 0.81
-6 17 1 1.6 0.61
-6 -11 -1 2.72 0.88
-11 17 -1 1.81 0.94
6 -17 1 3.14 0.96
6 11 -1 2.15 0.92
6 -17 1 1.98 0.77
17 -6 -1 0.14 0.71
17 -11 1 2.13 0.9
-11 -6 1 2.21 0.93
17 -11 1 1.23 0.65
-17 11 1 1.8 0.88
11 6 1 2.08 0.82
17 -6 -1 1.55 0.52
-17 11 1 2.17 0.75
-6 -11 -1 3.33 0.99
6 11 -1 1.27 0.72
17 -6 -1 1.96 0.91
6 -17 1 1.62 0.59
11 6 1 1.61 0.54
-17 6 -1 2.53 0.74
-17 6 -1 2.28 1.04
-6 17 1 2.28 0.97
11 -17 -1 1.27 0.82
-17 5 1 3.49 1.12
17 -12 -1 0.96 0.92
-5 17 -1 1.47 0.88
12 -17 1 2.16 0.86
5 -17 -1 2.11 0.9
12 -17 1 1.55 0.92
17 -12 -1 1.69 0.76
12 5 -1 1.27 0.77
5 12 1 1.47 0.82
17 -5 1 2.27 0.65
-17 5 1 2.23 0.8
-5 -12 1 2.97 0.97
-12 -5 -1 1.49 0.91
-5 -12 1 4.04 1.09
-17 12 -1 2.07 0.79
5 12 1 1.43 0.54
-17 12 -1 2.38 0.98
-12 17 1 0.73 0.9
17 -12 -1 1.94 0.64
17 -5 1 1.91 0.84
-5 17 1 1.15 0.62
-12 -5 1 1.35 0.87
-17 5 -1 1.74 1.02
12 5 1 1.17 0.78
-17 5 -1 1.66 0.73
-12 17 -1 2.2 1.06
17 -12 1 1.27 0.64
-5 -12 -1 1.4 0.91
-17 12 1 1.41 0.91
5 -17 1 1.95 0.61
-5 -12 -1 1.02 0.68
-5 17 1 1.94 1.03
5 12 -1 1.03 0.88
5 -17 1 1.67 0.84
12 5 1 1.3 0.55
12 -17 -1 0.86 0.75
17 -5 -1 0.77 0.79
17 -12 1 2.42 0.91
-5 -12 -1 2.64 0.87
17 -5 -1 1.24 0.51
-17 12 1 1.5 0.78
-17 4 1 1.61 0.77
-4 -13 1 0.65 0.91
-4 -13 1 1.11 0.91
13 -17 1 0.12 0.79
-13 -4 -1 -0.46 0.58
17 -4 1 0.04 0.84
-17 13 -1 0.58 0.95
-17 13 -1 0.34 0.77
-17 4 1 0.99 0.94
17 -13 -1 0.58 0.58
-4 17 -1 0.65 0.93
17 -13 -1 0.23 0.86
-4 17 -1 -0.11 0.4
4 -17 -1 0.68 0.81
13 -17 1 0.34 0.53
-13 17 1 -0.11 1.02
17 -13 -1 0.31 0.73
4 13 1 0.28 0.52
13 4 -1 0.05 0.7
-13 -4 -1 -0.65 0.62
17 -4 1 0.34 0.59
4 13 1 0.1 0.75
-4 -13 -1 1.32 0.82
-17 4 -1 1.29 0.95
17 -13 1 0.5 0.76
-13 17 -1 -0.03 0.54
17 -4 -1 0.79 0.52
-17 13 1 0.92 0.8
13 4 1 0.62 0.75
-17 13 1 0.69 0.85
13 -17 -1 0.35 0.79
13 4 1 0.5 0.59
4 13 -1 0.49 0.89
4 -17 1 1.2 0.61
-4 -13 -1 1.33 0.92
17 -13 1 0.3 0.6
-13 -4 1 -0.21 0.57
-4 -13 -1 0.89 0.75
17 -4 -1 0.9 0.82
-13 17 -1 0.42 0.99
-4 17 1 1.34 0.99
-13 -4 1 -0.31 0.58
4 -17 1 0.75 0.82
-17 4 -1 1.46 0.76
-4 17 1 0.91 0.63
14 -17 1 0.57 0.82
-14 17 1 0.77 0.69
-3 17 -1 0 0.29
-17 3 1 0.87 0.76
-3 -14 1 0.82 0.97
17 -14 -1 0.11 0.86
3 -17 -1 1.13 0.9
3 14 1 0.16 0.69
-17 3 1 1.56 1.06
-14 17 1 1.04 1.03
-3 17 -1 0.12 0.9
-3 -14 1 1.32 0.91
17 -14 -1 -0.17 0.71
17 -3 1 0.73 0.63
-17 14 -1 0.13 0.74
-14 -3 -1 -0.01 0.8
17 -14 -1 0.28 0.58
-17 14 -1 0.82 0.92
14 3 -1 -0.08 0.46
-14 -3 -1 -0.6 0.4
14 3 -1 0.39 0.67
3 14 1 0.35 0.57
17 -3 1 0.07 0.78
-3 -14 1 -0.07 0.76
17 -14 1 3.01 0.92
-14 -3 1 1.29 0.88
14 -17 -1 2.98 0.92
17 -3 -1 2.51 0.61
-3 -14 -1 4.17 1.09
14 3 1 2.42 0.68
-17 3 -1 4.36 1.17
3 14 -1 3.6 1.06
-17 14 1 3.48 1.06
-14 17 -1 2.59 0.83
14 3 1 2.83 0.93
-14 17 -1 3.03 1.1
17 -14 1 2.87 0.68
3 -17 1 3.71 0.71
-3 -14 -1 2.03 0.87
-3 -14 -1 3.42 0.92
-17 14 1 3.58 0.88
-17 3 -1 4.46 0.85
-3 17 1 2.72 0.69
17 -3 -1 2.43 0.92
3 -17 1 3.7 1.02
-3 17 1 3.27 1.07
-2 17 -1 2.2 1.04
-2 -15 1 2.59 0.97
-17 15 -1 2.54 1.05
-15 -2 -1 2.07 0.72
-15 -2 -1 1.52 1.02
-2 -15 1 0.15 0.61
17 -15 -1 1.54 0.78
-17 2 1 2.84 0.8
-17 2 1 2.78 1.15
-15 17 1 1.43 0.84
17 -2 1 2.75 0.67
-2 -15 1 2.42 0.9
17 -15 -1 1.36 0.96
2 15 1 1.14 0.61
2 -17 -1 1.78 0.89
17 -15 -1 2.3 0.63
2 15 1 0.07 0.77
-15 17 1 1.29 0.95
17 -2 1 1.7 0.94
-17 15 -1 1.77 0.81
15 -17 1 2.4 0.93
-2 17 1 1.25 1.03
2 15 -1 1.09 0.94
-17 15 1 2.47 0.86
2 -17 1 2.07 0.65
17 -2 -1 1.41 0.84
-2 -15 -1 1.61 0.83
15 -17 -1 0.74 0.76
-17 2 -1 2.05 1.06
2 -17 1 1.73 0.9
-15 -2 1 1.09 0.92
-15 17 -1 1.68 1.06
17 -15 1 1.07 0.83
-2 -15 -1 1.55 0.92
-17 15 1 1.09 1
-17 2 -1 3 0.84
17 -15 1 1.36 0.65
-15 -2 1 0.99 0.69
15 2 1 1.41 0.66
17 -2 -1 1.07 0.59
-15 17 -1 1.38 0.88
-2 -15 -1 0.86 0.79
-2 17 1 1.01 0.63
15 2 1 1.39 0.87
1 16 1 15.56 1.52
17 -1 1 17.03 1.61
-17 1 1 16.12 1.99
-17 16 -1 16.3 1.94
-17 16 -1 17.76 1.73
16 -17 1 18.14 1.57
-16 -1 -1 13.37 1.9
-16 -1 -1 17.22 1.75
17 -16 -1 12.3 1.8
-16 17 1 15.35 1.98
16 1 -1 15.08 1.49
17 -1 1 15.88 1.83
-1 17 -1 18.6 2.02
-17 1 1 17.16 1.74
16 -17 1 18.39 1.85
1 -17 -1 18.06 1.85
-16 17 1 20.53 1.86
17 -16 -1 16.42 1.75
17 -16 -1 16.39 1.5
16 1 1 22.28 2.2
16 1 1 23.64 1.97
1 -17 1 20.66 2.14
-16 17 -1 26.61 2.4
1 16 -1 23.09 2.25
17 -16 1 22.12 2.12
-16 -1 1 22.99 2.04
17 -1 -1 23.16 1.93
-1 -16 -1 19.58 2.08
-17 1 -1 25.84 2.4
-17 16 1 24.53 2.33
-17 16 1 28.6 2.15
-16 17 -1 26.25 2.16
-16 -1 1 22.07 2.27
17 -16 1 26.27 1.93
1 -17 1 23.2 1.95
16 -17 -1 23.71 2.15
-17 1 -1 22.26 2.12
-1 17 1 20.04 2.14
-1 17 1 24.28 1.94
0 17 1 8.41 1.12
17 -17 1 5.45 1.04
17 -17 -1 5.05 1.1
-17 17 1 5.74 1.21
-17 0 1 8.56 1.03
17 0 -1 7.99 1.14
0 -17 1 8.69 1.15
-17 0 -1 6.85 1.25
0 17 -1 5.39 1.13
17 -17 -1 8.24 1.05
17 0 1 8 0.9
-17 17 -1 6.54 1.24
17 -17 1 8.49 1.1
17 0 1 4.94 1.02
-17 17 1 10.67 1.43
-17 17 -1 8.75 1.35
17 -17 -1 4.89 0.96
0 -17 -1 7.9 1.36
-17 0 1 6.15 1.23
-17 0 -1 7.04 1.01
9 9 1 5.71 1.03
9 -18 1 6.24 1.12
-9 -9 -1 6.25 1.17
18 -9 -1 5.13 1.07
18 -9 -1 5.73 0.81
9 -18 1 3.3 0.7
9 -18 -1 5.65 1.09
-9 -9 1 6.09 1.18
9 -18 1 4.48 0.92
9 -18 -1 3.97 0.7
18 -9 1 6.4 1.13
18 -9 1 5.08 0.79
9 9 1 3.2 0.66
9 -18 -1 4.25 0.94
-18 9 1 2.7 1.1
-18 9 -1 2.57 0.98
8 -18 -1 5.31 1.06
10 -18 1 6.33 0.8
10 -18 1 5.43 1
-18 10 -1 5.31 1.05
18 -8 1 6.74 0.86
-8 -10 1 8.92 1.34
-8 -10 1 9.43 1.63
-10 -8 -1 5.21 1.01
18 -8 1 5.7 1.09
8 -18 -1 5.89 0.8
18 -10 -1 5.48 1.04
-18 8 1 7.09 1.34
8 10 1 5.13 0.76
18 -10 -1 6.29 0.86
8 -18 -1 7.44 1.12
-8 18 -1 7.56 1.22
-10 -8 -1 7.47 1.24
10 -18 1 4.8 1.08
-18 8 1 3.78 0.87
8 10 1 6.09 1.06
-10 -8 1 6.52 1.11
-10 -8 1 10.22 1.6
10 -18 -1 10.09 1.25
8 -18 1 7.04 1.06
8 -18 1 6.05 1.09
18 -8 -1 8.73 1.25
-8 -10 -1 10.1 1.55
8 -18 1 7.02 1.08
-18 8 -1 5.89 1.26
-8 -10 -1 10.39 1.57
18 -10 1 6.69 1.11
10 -18 -1 8.29 1.25
-18 8 -1 4.85 0.91
18 -10 1 9.59 0.97
10 8 1 7.52 1.12
18 -8 -1 6.8 0.92
10 8 1 7.55 1.07
-11 -7 -1 8.37 1.6
11 -18 1 9.47 1.19
18 -11 -1 11.17 1.58
7 11 1 9.97 1.2
-18 7 1 12.28 1.86
11 -18 1 11.07 1.54
18 -11 -1 12.35 1.31
-11 -7 -1 11.16 1.67
-18 11 -1 9.75 1.38
-18 11 -1 11.7 1.66
-7 -11 1 12.7 1.75
-7 -11 1 14.09 1.71
7 -18 -1 13.58 1.59
7 -18 -1 10.25 1.55
18 -7 1 12.02 1.37
7 11 1 10.47 1.56
11 -18 1 13.17 1.62
7 -18 -1 10.95 1.27
-18 7 1 10.68 1.5
-7 18 -1 12.05 1.61
18 -7 1 11.33 1.52
18 -7 -1 12.07 1.37
18 -11 1 12.03 1.31
7 11 -1 8.93 1.4
11 -18 -1 8.94 1.39
7 -18 1 11.77 1.44
-7 -11 -1 14.57 1.72
7 -18 1 11.46 1.54
11 7 1 11.52 1.52
-11 -7 1 11.32 1.64
-18 7 -1 10.83 1.46
18 -11 1 10.37 1.56
-7 18 1 11.21 1.62
-7 18 1 11.11 1.26
-7 -11 -1 12.1 1.61
-18 11 1 9.78 1.45
11 7 1 11.57 1.28
18 -7 -1 13.61 1.65
7 -18 1 10.16 1.19
11 -18 -1 11.89 1.58
-18 7 -1 10.78 1.7
-6 -12 1 5.04 1.06
18 -12 -1 3.75 0.97
-18 6 1 4.55 1.21
6 12 1 2.18 0.64
-6 18 -1 4.63 1.09
12 -18 1 2.37 0.9
6 12 1 3.21 0.94
-12 -6 -1 2.89 1.01
18 -6 1 2.19 0.89
-18 6 1 3.58 0.86
-6 18 -1 1.65 0.54
6 -18 -1 4.17 1.03
18 -12 -1 3.43 0.71
-18 12 -1 2.84 0.99
-18 12 -1 3.47 0.86
18 -6 1 4.85 0.76
-6 -12 1 6.34 1.22
12 -18 1 2.77 0.88
18 -6 -1 1.02 0.86
12 6 1 1.71 0.62
6 -18 1 1.65 0.74
-6 18 1 2.06 1.05
-12 -6 1 2.02 0.92
18 -12 1 1.98 0.7
-6 18 1 1.46 0.62
-6 -12 -1 3.51 1.06
12 -18 -1 2.24 0.86
12 6 1 2.2 0.82
-18 6 -1 1.63 0.78
6 -18 1 3.06 0.97
18 -6 -1 1.92 0.68
-18 6 -1 3.15 1.15
-6 -12 -1 3.4 0.93
18 -12 1 1.02 0.82
6 -18 1 2.53 0.61
-12 -6 1 0.18 0.71
6 12 -1 1.15 0.81
-18 12 1 1.93 0.8
-5 18 -1 12.14 1.7
5 13 1 11.64 1.28
5 -18 -1 12.03 1.62
18 -5 1 12.16 1.68
-18 13 -1 11.71 1.54
-18 13 -1 10.77 1.67
18 -13 -1 12.13 1.33
-18 5 1 16.33 1.9
-5 -13 1 13.46 1.91
-18 5 1 12.85 1.59
18 -5 1 12.23 1.38
13 -18 1 11.72 1.6
-5 18 -1 8.97 1.12
-5 -13 1 15.66 1.82
18 -13 -1 12.11 1.62
-5 -13 -1 14.28 1.7
13 -18 -1 11.6 1.54
13 5 1 10.07 1.28
5 -18 1 12.11 1.27
5 -18 1 8.91 1.27
18 -13 1 11.66 1.34
5 -18 1 12 1.55
-18 5 -1 11.69 1.79
-18 5 -1 13.51 1.54
-18 13 1 10.12 1.59
-5 18 1 11.12 1.28
18 -5 -1 10.75 1.61
-5 18 1 12.78 1.78
-13 18 -1 8.93 1.57
18 -13 1 11.14 1.62
-18 13 1 11 1.48
-5 -13 -1 12.72 1.75
18 -5 -1 10.48 1.33
13 5 1 11.47 1.5
5 13 -1 9.97 1.57
-4 18 -1 -0.33 0.46
14 4 -1 -0.04 0.31
-14 18 1 0.15 0.69
-14 18 1 0.08 0.69
-4 -14 1 1.66 0.92
18 -14 -1 0.11 0.79
18 -14 -1 0.1 0.66
18 -14 -1 0.8 0.6
18 -4 1 0.37 0.62
14 -18 1 0.08 0.86
-18 4 1 1.14 0.73
-4 -14 1 1.31 0.97
18 -4 1 0.43 0.91
4 14 1 0.29 0.58
-18 4 1 0.86 1.09
4 -18 -1 1.1 0.87
-4 18 -1 -0.05 0.93
-18 14 -1 0.1 0.94
-18 14 -1 0.05 0.77
14 4 1 2.56 0.9
18 -4 -1 0.14 0.75
-18 14 1 1.22 0.97
14 -18 -1 1.38 0.88
-18 4 -1 1.7 1.05
14 4 1 1.61 0.6
4 -18 1 2.21 0.63
-18 14 1 1.54 0.8
4 14 -1 1.68 0.84
-4 -14 -1 -0.13 0.69
18 -14 1 0.97 0.84
-4 18 1 1.38 0.63
-4 -14 -1 2.6 1.01
-18 4 -1 2.57 0.81
18 -4 -1 2.71 0.66
18 -14 1 2.24 0.69
4 -18 1 2.63 0.95
-4 -14 -1 2.56 0.88
-4 18 1 1.34 0.95
-14 18 -1 0.71 0.93
-14 18 -1 1.54 0.84
-18 3 1 16.85 1.67
18 -3 1 16.3 1.8
18 -3 1 15.33 1.5
-15 18 1 16.81 1.78
15 -18 1 16.02 1.8
15 3 -1 13.26 1.33
-3 -15 1 16.09 1.96
3 15 1 15.45 1.44
-3 -15 1 14.36 1.75
3 -18 -1 15.71 1.79
-3 18 -1 12.56 1.33
18 -15 -1 14.97 1.43
-18 15 -1 14.02 1.66
-18 3 1 18.09 2.04
18 -15 -1 15.7 1.72
-3 18 -1 15.15 1.93
-18 15 -1 16.51 1.9
-3 18 1 20.08 2.13
-3 -15 -1 20.15 2.13
-18 15 1 23.63 2.18
3 -18 1 24.44 1.84
-18 15 1 21.72 1.98
15 -18 -1 21.24 2.09
3 15 -1 17.82 2
-15 18 -1 20.25 2
18 -15 1 24.42 1.84
3 -18 1 21.4 2.08
-3 -15 -1 21.14 2.06
-3 18 1 19.15 1.81
-18 3 -1 23.55 2.02
-18 3 -1 23.34 2.29
-15 18 -1 19.73 2.19
18 -15 1 20.99 2.06
18 -3 -1 22.61 1.83
15 3 1 22.34 1.86
15 3 1 21.05 2.02
-16 -2 -1 4.08 0.86
-2 18 -1 3.56 0.62
-18 2 1 5.79 0.88
-18 16 -1 3.87 1.08
18 -16 -1 4.91 0.75
16 2 -1 3.67 0.7
2 16 1 3.1 0.7
2 -18 -1 5.14 1.1
-2 -16 1 4.19 0.93
-16 18 1 3.73 0.96
-18 2 1 5.55 1.25
18 -2 1 4.33 1
16 -18 1 3.59 0.93
18 -2 1 4.24 0.78
-2 18 -1 4.77 1.16
-16 18 1 4.48 0.95
16 -18 1 6.4 0.81
18 -16 -1 2.87 0.84
18 -2 -1 3.91 0.76
2 -18 1 3.91 0.92
-16 -2 1 3.36 0.82
-18 16 1 4.85 0.94
-16 18 -1 6.07 1
16 2 1 3.34 0.89
2 -18 1 4.72 0.73
18 -16 1 3.41 0.7
18 -16 1 3.46 0.97
16 2 1 3.02 0.75
-18 2 -1 3.96 1.18
2 16 -1 2.01 0.77
-16 18 -1 2.03 1
16 -18 -1 3.24 0.91
-18 16 1 4.02 1.11
-2 -16 -1 5.26 1
-2 18 1 4.15 0.73
-18 2 -1 3.74 0.88
17 -18 1 1.75 0.76
-17 -1 -1 3.53 0.82
1 -18 -1 2.09 0.78
-18 17 -1 3.94 0.85
-1 -17 1 3.48 0.66
-18 17 -1 3.56 1.05
18 -17 -1 3.49 0.67
-17 18 1 4.11 0.9
-17 18 1 1.48 0.78
-18 1 1 2.34 0.87
1 17 1 3.45 0.68
17 1 -1 3.31 0.69
17 -18 1 5 0.74
-1 18 -1 1.78 0.54
-18 1 1 3.33 0.83
18 -1 1 3.78 0.73
18 -17 -1 2.73 0.85
-18 1 -1 0.49 0.85
-1 -17 -1 0.54 0.73
1 -18 1 1.48 0.58
-18 17 1 2.17 0.81
18 -17 1 1.91 0.63
-17 18 -1 1.36 0.85
17 -18 -1 0.67 0.74
17 1 1 2.36 0.71
17 -18 -1 2.5 0.64
-1 -17 -1 -0.06 0.74
-18 1 -1 1.97 0.75
-17 -1 1 2.35 0.77
18 -1 -1 1.73 0.67
18 -17 1 0.69 0.77
-1 18 1 1.68 0.63
-17 18 -1 2.51 0.83
-18 17 1 1.2 0.9
18 -18 1 26.36 2.03
-18 18 -1 26.37 2.16
0 -18 1 21.61 1.95
0 18 1 24.58 1.99
-18 0 -1 25.76 2.18
18 0 -1 23.89 2
18 -18 -1 25.1 1.99
-18 18 1 27.28 2.23
-18 0 1 25.76 2.16
18 0 1 25.65 2.04
19 -9 1 3.62 0.74
10 -19 1 2.29 0.64
9 10 1 2.25 0.63
-10 -9 -1 4.66 0.99
19 -9 1 1.84 0.92
-10 -9 -1 2.75 1.01
10 -19 1 2.39 0.79
10 -19 1 2.55 0.99
9 -19 -1 2.45 0.63
9 -19 -1 2.69 0.91
-19 9 1 1.72 0.93
-9 -10 1 3.68 1.07
19 -10 -1 2.8 0.73
-9 -10 1 2.77 0.9
19 -10 -1 1.76 0.89
9 10 1 2.27 0.88
9 -19 -1 2.18 0.95
-19 9 1 1.29 0.77
10 9 1 3.35 0.65
-19 9 -1 2.24 0.76
19 -9 -1 4.28 1.05
10 9 1 3.78 0.96
9 -19 1 4.26 0.71
19 -10 1 4.47 0.77
9 -19 1 3.58 0.99
-10 -9 1 5.73 1.06
-10 -9 1 6.05 1.21
-19 9 -1 1.98 0.93
10 -19 -1 3.35 0.88
19 -9 -1 3.3 0.72
-19 10 1 2.89 0.75
10 -19 -1 4.65 1.03
9 -19 1 2.02 0.7
-9 -10 -1 6.2 1.15
19 -10 1 4.52 1.09
10 -19 -1 3.16 0.68
11 -19 1 14.09 1.7
19 -11 -1 15.73 1.77
8 -19 -1 14.12 1.39
11 -19 1 13.15 1.39
8 -19 -1 14.44 1.67
19 -11 -1 12.88 1.48
19 -8 1 15.63 1.82
-11 -8 -1 13.11 1.75
11 -19 1 11.17 1.56
8 -19 -1 16 1.71
8 11 1 12.57 1.66
-8 -11 1 18.1 1.95
-8 -11 1 15.97 1.9
-11 -8 -1 13.43 1.75
8 11 1 14.19 1.36
-19 8 1 11.66 1.59
-8 19 -1 15.87 1.78
-19 8 1 10.98 1.79
-19 11 -1 15.14 1.56
19 -8 1 13.45 1.5
-19 8 -1 10.1 1.66
11 -19 -1 14.61 1.71
19 -8 -1 12.67 1.41
-8 -11 -1 16.51 1.71
11 8 1 12.3 1.54
-19 11 1 12.41 1.49
11 8 1 12.64 1.28
8 -19 1 12.66 1.59
19 -8 -1 13.79 1.69
-11 -8 1 12.95 1.71
8 -19 1 9.6 1.34
11 -19 -1 10.33 1.21
19 -11 1 12.41 1.37
19 -11 1 11.98 1.69
8 -19 1 12.27 1.26
-11 -8 1 11.43 1.74
-19 8 -1 10.03 1.45
-8 -11 -1 13.12 1.71
19 -7 1 12.57 1.66
12 -19 1 10.3 1.44
7 12 1 9.97 1.46
-19 12 -1 11.72 1.47
7 -19 -1 10.24 1.5
-19 12 -1 10.53 1.44
-19 7 1 10.89 1.74
19 -12 -1 9.91 1.28
-12 -7 -1 7.98 1.43
19 -12 -1 10.23 1.59
-19 7 1 11.63 1.5
-7 -12 1 13.19 1.75
12 -19 1 9.51 1.2
7 -19 -1 9.8 1.23
-12 -7 -1 9.35 1.63
7 12 1 10.61 1.22
7 -19 -1 12.27 1.54
-7 -12 1 13.59 1.83
19 -7 1 10.76 1.31
-7 19 -1 10.09 1.62
-7 -12 -1 11.59 1.61
-19 7 -1 5.65 1.23
19 -7 -1 7.26 1.13
12 7 1 7.5 1.1
12 7 1 5.3 1.01
-19 12 1 9.54 1.09
12 -19 -1 9.66 1.47
19 -12 1 8.6 1.19
-12 -7 1 7.41 1.27
7 -19 1 8.05 1.42
7 -19 1 8.26 1.06
-7 -12 -1 9.83 1.56
19 -7 -1 8.41 1.21
19 -12 1 9.04 1.25
-19 7 -1 8.6 1.41
-12 -7 1 6.13 1.05
-6 -13 1 4.17 0.98
6 13 1 2.85 0.63
-13 -6 -1 2.13 0.84
-19 6 1 2.85 0.83
6 -19 -1 1.47 0.85
13 -19 1 1.79 0.78
19 -13 -1 2.06 0.87
19 -6 1 3.05 0.67
6 -19 -1 2.07 0.82
-19 13 -1 2.22 0.91
-19 6 1 1.45 1.03
-19 13 -1 2.73 0.84
13 -19 1 1.37 0.55
19 -6 1 2.45 0.95
-6 19 -1 2.74 1.02
-6 -13 1 3.78 1.12
19 -13 -1 2.29 0.66
6 -19 -1 2.8 0.65
-6 -13 -1 1.88 0.94
-6 19 1 0.85 0.56
-19 6 -1 1.53 0.8
19 -6 -1 0.9 0.63
-19 13 1 0.74 0.76
6 -19 1 1.12 0.85
-19 6 -1 0.57 0.99
19 -13 1 0.47 0.82
13 6 1 1.26 0.6
-6 -13 -1 2.74 0.87
-13 19 -1 -0.08 0.53
-13 -6 1 0.12 0.71
6 -19 1 2.42 0.62
19 -6 -1 1.05 0.79
13 6 1 0.95 0.72
13 -19 -1 1.34 0.87
19 -13 1 2.01 0.68
-6 19 1 0.69 0.98
6 13 -1 0.04 0.36
5 -19 -1 0.82 0.82
5 14 1 0.81 0.6
-5 -14 1 3.1 0.92
-19 14 -1 1.42 0.77
-14 19 1 -0.13 0.55
19 -14 -1 1.42 0.87
14 -19 1 0.35 0.76
-19 14 -1 1.37 0.9
19 -5 1 1.39 0.91
19 -5 1 1.26 0.65
-19 5 1 2.01 0.76
-5 19 -1 0.64 0.53
-5 19 -1 1.13 0.93
14 5 -1 0.62 0.38
5 -19 -1 1.9 0.63
-19 5 1 1.26 0.98
19 -14 -1 0.98 0.61
-5 -14 1 2.03 0.96
-19 14 1 0.11 0.73
19 -14 1 0.19 0.85
-14 19 -1 0.23 0.75
14 -19 -1 0.75 0.85
19 -5 -1 -1.06 0.53
14 5 1 0.18 0.58
5 -19 1 0.91 0.58
-5 19 1 -0.13 0.87
19 -5 -1 0.54 0.62
19 -14 1 0.53 0.61
-19 5 -1 1.08 0.76
-5 -14 -1 0.69 0.9
-5 -14 -1 1.28 0.84
5 -19 1 0.78 0.8
-19 5 -1 0.08 0.91
-5 19 1 0.06 0.58
5 14 -1 0.03 0.26
14 5 1 0.15 0.67
15 4 -1 1.38 0.5
-4 19 -1 0.25 0.52
19 -4 1 1.52 0.66
19 -4 1 0.67 0.85
19 -15 -1 1.29 0.84
4 -19 -1 1.84 0.88
19 -15 -1 1.39 0.61
4 15 1 1.89 0.61
-4 19 -1 1.29 0.92
-4 -15 1 1.06 0.67
-4 -15 1 2.06 0.88
-19 4 1 2.87 0.81
-19 4 1 1.9 1.09
-19 15 -1 0.59 0.87
-15 19 1 2.38 0.87
15 -19 1 1.03 0.75
-19 15 -1 1.84 0.81
-4 19 1 0.56 0.59
4 -19 1 1.32 0.84
-19 4 -1 1.62 0.77
-4 19 1 0.26 0.68
-15 19 -1 0.71 0.77
4 15 -1 0.02 0.27
19 -15 1 0.58 0.62
15 4 1 1.04 0.61
-4 -15 -1 0.11 0.61
-19 4 -1 0.94 1.04
4 -19 1 1.41 0.58
19 -4 -1 1.15 0.64
15 4 1 0.02 0.5
15 -19 -1 0.28 0.82
-4 -15 -1 1.89 0.85
-19 15 1 0.67 0.73
19 -15 1 0.35 0.84
-19 3 1 17.04 1.69
19 -16 -1 15.1 1.4
-16 -3 -1 13.21 1.49
-3 19 -1 12.95 1.3
-3 -16 1 14.44 1.78
19 -16 -1 11 1.54
-19 3 1 14.05 1.82
-3 19 -1 11.74 1.61
-19 16 -1 11.02 1.69
3 -19 -1 13.39 1.62
3 16 1 14.97 1.39
-16 19 1 15.34 1.69
16 -19 1 17.57 1.46
19 -3 1 16.69 1.49
16 3 -1 14.49 1.36
-19 16 -1 16.74 1.59
19 -3 -1 19.67 1.68
-3 19 1 19.72 1.63
-19 3 -1 21.6 1.89
3 -19 1 21.27 1.63
-19 16 1 20.34 1.82
19 -16 1 19.07 1.6
-19 3 -1 15.75 2.04
16 3 1 18.25 1.63
16 -19 -1 18.02 1.83
19 -16 1 13.79 1.83
-16 -3 1 14.93 1.65
-16 19 -1 19.31 1.81
-3 -16 -1 17.84 1.99
-17 19 1 6.96 1
-2 -17 1 7.34 1.41
17 -19 1 5.97 0.79
-2 -17 1 3.58 0.64
-2 19 -1 3.23 0.62
17 2 -1 4.77 0.69
-19 17 -1 6.05 0.91
-17 -2 -1 4.82 0.82
19 -2 1 5.11 0.78
2 17 1 4.6 0.72
-17 -2 1 3.37 0.79
17 2 1 3.83 0.72
17 -19 -1 4.5 0.71
-17 19 -1 5.17 0.88
19 -17 1 3.74 0.71
2 -19 1 3.07 0.62
-19 17 1 5.95 0.92
-19 2 -1 4.24 0.83
-2 -17 -1 3.78 0.92
-2 19 1 3.16 0.69
19 -2 -1 3.86 0.73
-19 1 1 1.58 0.72
-19 18 -1 0.29 0.68
18 1 -1 0.39 0.56
1 18 1 0.57 0.56
-1 19 -1 0.69 0.41
1 -19 -1 1.08 0.6
-1 -18 1 0.93 0.52
-18 19 1 1.28 0.73
18 -19 1 0.62 0.59
19 -1 1 1.08 0.64
19 -18 -1 0.76 0.55
-18 -1 -1 0.41 0.68
1 18 -1 -0.05 0.3
-18 -1 1 0.49 0.66
19 -1 -1 0.86 0.61
-19 18 1 0.21 0.72
-1 19 1 0.09 0.57
18 -19 -1 0.07 0.54
19 -18 1 0.48 0.58
18 1 1 0.02 0.61
1 -19 1 0.45 0.48
-18 19 -1 0.7 0.71
-19 1 -1 0.49 0.68
-19 18 1 0.42 0.72
-19 0 1 1.92 0.69
0 19 1 2.32 0.59
0 -19 1 1.53 0.51
19 -19 1 2.02 0.64
0 -19 -1 2.25 0.57
19 0 1 1.73 0.63
19 0 -1 1.59 0.6
-19 19 1 1.82 0.75
-19 19 -1 1.66 0.72
-19 19 1 1.45 0.75
19 -19 -1 1.42 0.55
-19 0 -1 2.26 0.7
-20 10 1 2.19 0.64
10 -20 -1 3.9 0.67
10 10 1 3.06 0.65
20 -10 1 2.59 0.9
-10 -10 -1 3.32 0.97
-20 10 1 3.34 0.81
10 -20 1 2.62 0.82
10 -20 1 3.71 0.66
-20 10 -1 2.42 0.72
-10 -10 1 5.4 0.98
20 -10 -1 1.78 0.83
-10 -10 1 3.62 0.98
10 -20 -1 2.32 0.8
20 -10 1 4.75 0.75
20 -10 -1 4.35 0.71
-11 -9 -1 1.95 0.87
9 -20 -1 1 0.62
11 -20 1 1.78 0.6
20 -9 1 1.88 0.66
11 -20 1 0.43 0.53
20 -9 1 1.97 0.92
11 -20 1 0.34 0.77
20 -11 -1 1.07 0.62
-20 9 1 0.75 0.7
-20 11 -1 1.23 0.67
9 11 1 1.52 0.58
-9 -11 1 3.16 0.91
9 -20 -1 0.95 0.71
-20 9 1 -0.25 0.82
-11 -9 -1 2.85 0.92
-9 -11 1 1.99 0.92
20 -11 -1 0.27 0.76
9 -20 -1 1.84 0.58
9 11 1 0.18 0.59
-11 -9 1 1.4 0.84
9 11 -1 0.09 0.27
9 -20 1 0.97 0.55
20 -9 -1 0.82 0.63
9 -20 1 1.14 0.85
-20 11 1 1.1 0.74
20 -11 1 1.18 0.64
-9 -11 -1 3.13 0.91
11 -20 -1 1.54 0.77
11 9 1 0.61 0.55
-11 -9 1 1.44 0.83
20 -9 -1 -0.43 0.58
11 -20 -1 0.41 0.57
20 -11 1 0.42 0.81
11 9 1 0.06 0.54
-20 9 -1 0.6 0.66
-9 -11 -1 1.71 0.89
20 -12 -1 2.2 0.83
8 12 1 4.4 0.7
-20 12 -1 4.34 0.87
-8 -12 1 3.46 0.99
20 -8 1 1.96 0.87
20 -12 -1 3.06 0.69
-12 -8 -1 4.19 0.93
12 -20 1 3.09 0.64
8 -20 -1 2.95 0.83
8 -20 -1 3.16 0.75
-20 8 1 2.95 0.79
20 -8 1 4.86 0.76
8 -20 -1 3.94 0.66
-12 -8 1 4.51 0.89
8 -20 1 3.31 0.94
-20 8 -1 3.86 0.82
20 -12 1 6.54 0.79
20 -8 -1 6.01 0.8
12 8 1 4.44 0.68
20 -12 1 3.87 0.97
12 -20 -1 5.55 1
-8 -12 -1 5.36 1.05
12 -20 -1 2.81 0.65
-20 12 1 5.02 0.89
-20 13 -1 2.6 0.82
-13 -7 -1 3.24 0.9
-7 -13 1 4.9 1.04
-7 20 -1 4.03 0.97
7 -20 -1 4.64 0.68
20 -7 1 2.02 0.93
13 -20 1 3.64 0.66
-20 7 1 5.56 0.92
7 13 1 3.66 0.66
20 -13 -1 4.03 0.72
7 -20 -1 2.94 0.83
20 -13 -1 1.87 0.79
20 -7 1 4.58 0.72
-20 7 1 2.17 0.86
13 -20 -1 2.51 0.78
-13 -7 1 2.27 0.79
7 -20 1 3.77 0.94
20 -7 -1 4.22 0.73
13 7 1 2.95 0.65
-7 -13 -1 2.97 0.92
-20 7 -1 3.69 0.8
20 -13 1 4.19 0.7
-20 13 1 2.88 0.78
20 -13 1 2.69 0.94
7 -20 1 3.66 0.63
-14 -6 -1 4.87 0.89
6 -20 -1 3.13 0.77
-6 20 -1 4.98 0.98
20 -14 -1 2.25 0.68
-20 6 1 2.78 0.9
14 -20 1 3.06 0.54
-6 -14 1 2.57 0.78
14 6 -1 2.8 0.47
20 -6 1 1.08 0.73
-6 -14 -1 5.36 0.97
6 -20 1 3.92 0.87
14 -20 -1 2.48 0.78
20 -14 1 2.6 0.84
14 6 1 3.81 0.67
-14 20 -1 2.21 0.69
20 -6 -1 4.25 0.73
-20 6 -1 4.96 0.84
6 -20 1 4.04 0.65
-20 14 1 4.09 0.82
20 -14 1 4.68 0.72
-20 15 -1 21.24 1.93
-15 20 1 19.47 1.88
20 -5 1 21.21 1.81
5 15 1 21.51 1.76
20 -15 -1 21.24 1.77
-20 5 1 22.74 2.01
-5 -15 1 20.93 2.07
5 -20 -1 22.49 1.78
-20 5 -1 24.95 2.09
20 -15 1 23.76 1.88
-5 20 1 21.87 1.83
-20 15 1 23.66 2.01
-15 20 -1 21.66 2.02
-5 -15 -1 21.41 2.17
20 -5 -1 22.03 1.89
15 5 1 22.07 1.87
5 -20 1 25.19 1.83
4 -20 -1 9.24 1.14
-20 4 1 9.78 1.37
4 16 1 8.28 1.1
16 -20 1 9.57 1.14
16 4 -1 6.76 0.94
-16 20 1 9.99 1.44
20 -4 1 8.84 1.2
-20 16 -1 8.03 1.31
-4 -16 1 8.96 1.47
20 -16 -1 8.56 1.13
-20 16 1 4.99 0.85
4 -20 1 4.58 0.67
-4 -16 -1 4.71 0.91
-20 4 -1 5.3 0.9
20 -4 -1 5.45 0.79
16 4 1 3.54 0.7
-4 20 1 3.13 0.64
-16 20 -1 3.76 0.82
20 -16 1 4.86 0.7
20 -3 1 0.59 0.59
-17 20 1 0.63 0.74
-17 -3 -1 -0.11 0.56
17 -20 1 0.63 0.6
17 3 -1 0.77 0.47
-3 -17 1 1.22 0.76
20 -17 -1 0.37 0.53
3 -20 -1 1.37 0.57
-20 3 1 1.02 0.69
-20 17 -1 1.07 0.67
3 17 1 0.76 0.57
-3 20 -1 -0.19 0.42
-20 17 1 -0.31 0.67
-20 17 1 1.31 0.69
3 -20 1 0.64 0.52
17 3 1 0.26 0.54
-3 20 1 0.33 0.53
-17 20 -1 0.52 0.67
-20 3 -1 0.73 0.7
20 -17 1 0.23 0.55
3 17 -1 -0.07 0.28
20 -3 -1 0.76 0.6
-17 -3 1 -0.21 0.5
-3 -17 -1 1.35 0.75
17 -20 -1 0.72 0.56
20 -2 1 17.56 1.51
-2 -18 1 13.12 1.58
-18 20 1 16.52 1.6
18 -20 1 18.62 1.5
-20 2 1 18.62 1.66
18 2 -1 14.35 1.33
-18 -2 -1 15.67 1.62
20 -18 -1 16.57 1.44
-18 20 1 15.85 1.64
2 18 1 15.95 1.44
2 -20 -1 18.54 1.49
-20 18 -1 15.72 1.55
-18 -2 1 12.86 1.38
18 -20 -1 14.32 1.28
-2 -18 -1 11.04 1.5
20 -2 -1 14.15 1.33
18 2 1 13.69 1.32
20 -18 1 14.49 1.33
2 -20 1 12 1.21
-2 20 1 13.04 1.28
-20 2 -1 14.51 1.49
-20 18 1 11.91 1.44
-18 20 -1 13.36 1.44
-20 18 1 14.57 1.44
19 1 -1 5.43 0.76
-20 1 1 5.67 0.83
-19 -1 -1 4.87 0.83
1 19 1 4.6 0.7
20 -19 -1 7.25 0.76
-19 20 1 5.85 0.86
20 -1 1 5.59 0.78
19 -20 1 6.84 0.78
-19 20 1 6.32 0.95
1 -20 -1 6.72 0.75
-20 19 -1 5.73 0.83
-19 -1 1 3.47 0.69
-1 20 1 3.21 0.59
-20 19 1 3.44 0.72
20 -19 1 3.38 0.64
1 -20 1 2.92 0.54
-1 -19 -1 2.64 0.55
-20 1 -1 3.67 0.76
20 -1 -1 2.32 0.59
-19 20 -1 3.99 0.73
-20 19 1 2.36 0.72
19 1 1 3.66 0.63
0 -20 1 0.54 0.41
-20 20 1 0.65 0.59
-20 20 1 0.95 0.64
0 -20 -1 0.5 0.44
0 20 1 0.56 0.49
-20 0 1 0.34 0.57
-20 20 -1 0.42 0.61
20 0 -1 0.27 0.28
20 -20 -1 0.31 0.49
20 0 1 0.12 0.5
-20 0 -1 0.31 0.59
20 -20 1 0.37 0.52
21 -10 1 2.28 0.61
11 -21 1 1.75 0.55
10 11 1 2.07 0.59
21 -11 -1 2.2 0.62
-21 10 1 0.3 0.66
-10 -11 1 3.07 0.84
-11 -10 -1 2.95 0.9
-10 -11 1 -0.19 0.9
10 -21 -1 1.39 0.55
-11 21 1 1.87 0.76
10 -21 1 2.63 0.61
21 -10 -1 2.21 0.63
-10 -11 -1 -0.24 0.77
-21 10 -1 1.35 0.66
-10 -11 -1 3.07 0.83
11 10 1 1.96 0.57
11 -21 -1 1.92 0.58
-21 11 1 0.45 0.6
-11 -10 1 2.98 0.83
-21 11 1 1.51 0.65
21 -11 1 2.06 0.64
-12 -9 -1 11.04 1.59
9 12 1 11.16 1.2
-9 -12 1 13.9 1.62
21 -9 1 13.19 1.32
21 -12 -1 12.1 1.28
9 -21 -1 11.09 1.19
12 -21 1 12.34 1.19
-21 9 1 9.4 1.31
-21 12 -1 10.62 1.34
-12 -9 1 7.11 1.34
12 -21 -1 8.14 1.05
-9 -12 -1 11.34 1.55
-21 12 1 8.57 1.26
12 9 1 7.94 1.08
21 -12 1 8.69 1.1
21 -9 -1 9.11 1.15
9 -21 1 9.89 1.05
8 13 1 4.47 0.69
21 -13 -1 3.96 0.69
-21 8 1 3.19 0.77
-21 13 -1 4.92 0.85
13 -21 1 3.24 0.65
-13 -8 -1 3.92 0.88
8 -21 -1 3.34 0.62
-8 -13 1 5.53 0.92
21 -8 1 3.73 0.68
-21 13 1 3.18 0.77
-13 -8 1 3 0.8
21 -13 1 4.31 0.68
-21 8 -1 4.53 0.77
21 -8 -1 4.17 0.69
8 -21 1 4.12 0.63
13 8 1 3.08 0.62
-21 14 -1 4.1 0.83
7 -21 -1 5.65 0.69
21 -7 1 5.41 0.74
-7 -14 1 7.11 1.32
7 14 1 3.73 0.68
21 -14 -1 5.42 0.72
-21 7 1 5.96 0.9
14 -21 1 3.99 0.65
-14 -7 -1 2.64 0.84
-21 14 1 2.41 0.76
14 7 1 2.01 0.58
7 -21 1 3.49 0.58
21 -14 1 3.24 0.65
-7 -14 -1 3.68 0.83
21 -7 -1 2.53 0.65
-21 7 -1 2.65 0.75
21 -6 1 2.23 0.64
-6 -15 1 2.67 0.78
-21 15 -1 1.69 0.75
6 15 1 1.14 0.57
21 -15 -1 2.01 0.62
-21 6 1 2.45 0.73
6 -21 -1 2.08 0.53
15 6 1 3.12 0.6
-21 15 1 3.33 0.75
21 -6 -1 3.91 0.7
-21 6 -1 5.4 0.84
6 -21 1 3.72 0.6
-15 21 -1 1.88 0.61
21 -15 1 4.8 0.69
21 -5 1 1.24 0.62
16 -21 1 1.06 0.53
-16 21 1 0.9 0.53
-5 -16 1 2.57 0.79
5 16 1 1.37 0.56
5 -21 -1 1.42 0.52
-21 16 -1 1.32 0.67
-21 5 1 2.04 0.71
21 -16 -1 1.85 0.57
-16 21 1 1.99 0.82
-5 -16 -1 1.52 0.75
21 -5 -1 0.7 0.58
-16 21 -1 0.81 0.69
5 -21 1 1.04 0.51
-21 5 -1 0.76 0.67
-21 16 1 1.56 0.67
16 5 1 1.08 0.53
21 -16 1 1.21 0.55
-21 4 1 8.29 1.25
-21 17 -1 6.81 0.92
-17 21 1 8.33 1.08
4 17 1 8.29 1.05
-17 21 1 8.91 1.23
4 -21 -1 7.87 0.99
21 -17 -1 6.95 1.03
17 -21 1 8.71 1.05
-4 -17 1 7.15 1.27
21 -4 1 8.36 1.07
4 -21 1 8.68 0.96
-21 17 1 9.56 0.97
21 -17 1 6.57 1
17 -21 -1 7.91 0.99
-21 4 -1 7.87 1.25
21 -4 -1 6.73 0.84
-4 -17 -1 7.88 1.29
-17 21 -1 6 0.92
17 4 1 6.44 0.8
-18 21 1 3.46 0.81
3 18 1 1.7 0.57
-18 21 1 1.3 0.66
-3 -18 1 3.06 0.73
-21 3 1 3.86 0.75
21 -3 1 2.32 0.61
18 -21 1 3.17 0.65
3 -21 -1 3.43 0.56
-21 18 -1 2.84 0.7
21 -18 -1 2.22 0.57
18 3 1 4.31 0.65
-3 -18 -1 3.89 0.57
-21 18 1 4.63 0.73
-18 21 -1 4.14 0.76
-3 -18 -1 4.71 0.81
21 -3 -1 3.83 0.67
3 -21 1 5.69 0.84
21 -18 1 5.21 0.68
-3 21 1 5.8 0.83
-21 18 1 3.41 0.71
2 19 1 0.43 0.48
2 -21 -1 0.91 0.48
-19 -2 -1 0.26 0.5
-19 21 1 0.59 0.63
21 -2 1 0.31 0.53
-21 19 -1 0.6 0.59
21 -19 -1 0.77 0.49
-19 21 1 0.17 0.59
-21 2 1 0.48 0.59
-21 19 -1 0.28 0.57
19 -21 1 0.56 0.57
-19 21 -1 0.21 0.56
-2 -19 -1 -0.05 0.4
-21 19 1 0.35 0.56
2 -21 1 0.45 0.41
21 -2 -1 0.51 0.44
-2 21 1 -0.13 0.44
19 -21 -1 0.29 0.47
-21 19 1 0.06 0.58
-19 -2 1 -0.14 0.44
21 -19 1 -0.04 0.52
19 2 1 0.1 0.47
-21 2 -1 0.23 0.57
20 -21 1 2.38 0.57
21 -1 1 3.55 0.57
-20 21 1 2.3 0.63
21 -20 -1 3.03 0.55
-20 21 1 2.35 0.6
1 20 1 2.54 0.49
-21 20 -1 3.46 0.61
-21 20 -1 1.94 0.64
-21 1 1 2.64 0.59
1 -21 -1 2.82 0.47
-20 -1 -1 2.4 0.59
-20 21 -1 3.83 0.68
20 1 1 2.75 0.53
-1 -20 -1 2.01 0.46
20 -21 -1 3.82 0.55
21 -20 1 3.61 0.55
-1 21 1 2.46 0.49
-20 -1 1 2.55 0.55
-20 21 -1 3.17 0.66
-21 20 1 3.93 0.66
-21 1 -1 3.07 0.65
-21 20 1 3.03 0.66
1 -21 1 2.65 0.48
21 -21 1 5.88 0.65
-21 21 -1 5.58 0.87
21 -21 -1 5.84 0.83
21 0 1 4.02 0.56
-21 21 1 5.46 0.73
-21 0 -1 3.87 0.64
-21 21 -1 4.24 0.64
-21 21 1 3.59 0.66
0 -21 -1 3.89 0.53
-21 0 1 3.63 0.59
11 11 1 7.53 0.97
-11 -11 1 8.29 1.35
-22 11 1 5.63 0.84
11 -22 1 7.65 0.93
11 -22 -1 6.95 0.94
22 -11 -1 7.27 1.02
22 -11 1 7.68 1.01
-11 -11 -1 8.93 1.4
10 -22 -1 1.47 0.53
-22 10 1 0.4 0.58
22 -10 1 1.29 0.55
-12 -10 -1 1.94 0.75
12 -22 1 1.44 0.53
-12 22 1 1.09 0.74
-10 -12 1 2.4 0.76
22 -12 -1 1.78 0.57
10 12 1 1.91 0.55
-22 12 1 0.76 0.59
-10 -12 -1 1.53 0.76
22 -10 -1 0.49 0.53
10 -22 1 0.22 0.45
-22 10 -1 0.58 0.56
12 10 1 0.04 0.5
22 -12 1 0.53 0.52
12 -22 -1 -0.12 0.46
-12 -10 1 1.31 0.69
-9 -13 1 10.54 1.38
-22 9 1 7.89 1.17
22 -13 -1 9.82 1.1
22 -9 1 10.24 1.08
-22 13 -1 10.2 1.19
9 -22 -1 9.33 1.02
9 13 1 8.68 1.05
13 -22 1 9.31 1.01
-13 -9 -1 7.81 1.33
-13 22 1 8.9 1.37
22 -9 -1 8.66 1.06
-9 -13 -1 10.27 1.38
-13 -9 1 6.66 1.23
-22 9 -1 7.09 0.94
9 -22 1 8.57 0.98
13 9 1 8.14 0.99
22 -13 1 9.39 1.07
-22 13 1 8.58 1.14
-14 22 1 0.68 0.74
8 14 1 0.48 0.5
-22 8 1 0.56 0.64
22 -8 1 1.11 0.54
-14 -8 -1 0.2 0.62
8 -22 -1 0.86 0.48
-22 14 -1 0.9 0.63
14 -22 1 0.39 0.46
-8 -14 1 1.97 0.72
22 -14 -1 0.84 0.51
8 -22 1 1.04 0.47
-22 8 -1 0.6 0.61
22 -14 1 1.56 0.52
22 -8 -1 0.67 0.56
-22 14 1 0.88 0.62
-14 -8 1 0.38 0.58
14 8 1 0.56 0.49
-8 -14 -1 1.78 0.73
7 -22 -1 3.39 0.59
-15 22 1 4.99 0.96
7 15 1 3.51 0.63
22 -15 -1 4.68 0.67
-7 -15 1 5.39 0.84
-22 7 1 4.01 0.77
-22 15 -1 4.43 0.78
22 -7 1 5.34 0.7
7 -22 1 4 0.57
22 -7 -1 3.09 0.63
-22 15 1 2.73 0.72
-7 -15 -1 4.38 0.8
15 7 1 2.66 0.57
22 -15 1 3.54 0.6
-22 7 -1 2.9 0.74
-22 16 -1 4.08 0.78
-6 -16 1 6.15 1.14
22 -16 -1 6.5 0.75
16 -22 1 4.39 0.68
6 16 1 5.27 0.7
-16 22 1 7.55 1.02
22 -6 1 6.88 0.77
6 -22 -1 6.82 0.85
-22 6 1 7.23 1.16
-22 6 -1 7.44 1.16
16 6 1 4.86 0.7
22 -16 1 7.83 0.79
-22 16 1 6.09 0.85
-6 -16 -1 6.89 1.16
6 -22 1 6.7 0.86
22 -6 -1 6.55 0.79
5 -22 -1 2.1 0.51
-5 -17 1 2.3 0.64
22 -5 1 2.63 0.6
17 -22 1 2.46 0.55
-22 5 1 2.62 0.68
22 -17 -1 1.72 0.53
5 17 1 3.36 0.6
-22 17 -1 2.06 0.62
-17 22 1 3.24 0.82
-22 17 1 2.87 0.65
-5 -17 -1 3.73 0.72
22 -17 1 2.87 0.56
-17 22 -1 1.94 0.58
17 -22 -1 4.05 0.59
-22 5 -1 3.54 0.72
17 5 1 2.41 0.53
22 -5 -1 2.58 0.58
5 -22 1 4 0.55
-22 18 -1 1.98 0.6
22 -4 1 2.72 0.57
22 -18 -1 2.3 0.52
-4 -18 1 2.67 0.67
-22 4 1 2.97 0.66
-18 22 1 2.71 0.72
-18 22 1 1.48 0.49
18 -22 1 2.42 0.52
4 -22 -1 2.96 0.51
4 18 1 1.53 0.5
-4 -18 -1 3.17 0.69
4 -22 1 3.92 0.56
18 4 1 2.53 0.51
-22 18 1 3.47 0.64
22 -18 1 2.5 0.55
-18 22 -1 2.18 0.62
-22 4 -1 3.01 0.67
18 -22 -1 3.07 0.57
22 -4 -1 2.59 0.52
3 19 1 3.4 0.48
3 -22 -1 3.89 0.55
-19 22 1 3.52 0.7
-22 19 -1 3.68 0.65
-19 22 1 3.25 0.63
22 -3 1 4.09 0.59
22 -19 -1 3.22 0.54
-22 3 1 3.41 0.65
19 -22 1 4.44 0.59
-19 22 -1 1.79 0.61
-19 22 -1 1.6 0.57
19 -22 -1 2.92 0.51
19 3 1 2.24 0.5
-22 3 -1 2.32 0.64
-22 19 1 2.63 0.59
22 -19 1 2.53 0.52
3 -22 1 2.43 0.47
20 -22 1 2.6 0.56
22 -2 1 1.26 0.47
-20 22 1 1.12 0.52
-22 20 -1 1.21 0.52
22 -20 -1 1.98 0.5
-22 2 1 1.18 0.55
2 -22 -1 1.49 0.44
-20 22 1 1.13 0.58
22 -20 1 1.63 0.53
20 -22 -1 3.53 0.55
-20 22 -1 1.72 0.52
-22 2 -1 3.08 0.61
2 -22 1 2.05 0.45
-20 22 -1 2.83 0.61
20 2 1 1.79 0.42
-22 20 1 3.01 0.58
1 -22 -1 1.39 0.37
22 -1 1 0.78 0.31
22 -21 -1 2.44 0.51
-22 1 1 1.51 0.52
21 -22 1 1.76 0.54
-22 21 -1 1.88 0.56
-21 22 1 1.92 0.57
-21 22 1 1.41 0.48
-22 21 1 1.19 0.54
-21 22 -1 1.84 0.55
22 -21 1 1.77 0.5
-21 22 -1 1.02 0.55
21 -22 -1 2.23 0.49
-22 1 -1 1.58 0.51
11 -23 -1 4.31 0.57
-11 -12 1 5.69 1.05
23 -11 1 4.03 0.6
23 -12 -1 4.12 0.57
-12 -11 -1 5.78 0.81
12 -23 1 4.09 0.59
11 12 1 3.79 0.59
-23 11 1 3.07 0.63
12 11 1 4.2 0.61
12 -23 -1 4.09 0.57
23 -12 1 4.86 0.61
23 -11 -1 5.05 0.62
-12 -11 1 5.28 1.02
11 -23 1 5.45 0.64
-11 -12 -1 6.5 1.13
23 -10 1 10.23 1.03
10 13 1 9.44 1
23 -13 -1 9.4 0.96
-23 10 1 7.88 1.09
-13 -10 -1 8.96 1.19
-10 -13 1 10.74 1.23
13 -23 1 9.8 0.97
-13 23 1 7.98 1.16
10 -23 -1 10.01 1.01
10 -23 1 8.11 0.89
-23 10 -1 6.5 0.96
23 -13 1 7.3 0.92
-10 -13 -1 9.07 1.2
13 10 1 7.79 0.91
23 -10 -1 8.33 0.98
-13 -10 1 6.02 1.01
-23 13 1 8.08 0.93
-13 23 -1 6.66 1.05
23 -9 1 2.45 0.52
-14 23 1 1.58 0.64
-23 14 -1 1.73 0.54
9 -23 -1 1.98 0.47
23 -14 -1 1.89 0.5
14 -23 1 1.26 0.41
-9 -14 1 3.06 0.64
-14 -9 -1 1.43 0.61
-23 9 1 1.37 0.56
9 14 1 2.25 0.49
-9 -14 -1 1.99 0.65
14 9 1 1.21 0.47
-14 -9 1 1.01 0.58
9 -23 1 1.34 0.43
23 -14 1 1.24 0.47
-23 9 -1 1.08 0.53
23 -9 -1 0.91 0.5
-23 14 1 1.19 0.58
8 -23 -1 6.46 0.82
23 -8 1 5.78 0.86
-8 -15 1 6.28 0.98
23 -15 -1 5.26 0.66
-23 8 1 6.85 1.03
8 15 1 6.39 0.82
-23 15 -1 5.86 0.95
-15 23 1 5.07 0.84
15 -23 1 5.31 0.81
-8 -15 -1 7.79 1.14
23 -8 -1 7.44 0.93
-23 15 1 7.19 0.94
15 8 1 6.87 0.86
8 -23 1 7.3 0.83
23 -15 1 7.41 0.9
-23 8 -1 6.83 1.06
-23 7 1 0.73 0.58
7 -23 -1 1.3 0.43
-16 23 1 1.18 0.68
7 16 1 0.87 0.42
23 -7 1 0.76 0.49
-23 16 -1 1.5 0.61
-7 -16 1 1.55 0.61
16 -23 1 1.03 0.44
23 -16 -1 1.13 0.44
23 -16 1 1.39 0.49
23 -7 -1 0.71 0.47
-7 -16 -1 1.58 0.6
-23 16 1 0.96 0.52
7 -23 1 1.47 0.42
-23 7 -1 0.84 0.56
-16 23 -1 1.16 0.63
16 7 1 0.72 0.42
16 -23 -1 0.97 0.47
-23 6 1 8.44 1.09
6 17 1 5.74 0.74
-17 23 1 8.75 1.19
-23 17 -1 7.37 0.97
17 -23 1 6.66 0.87
6 -23 -1 9.28 0.86
23 -6 1 8.38 0.97
23 -17 -1 7.16 0.82
-6 -17 1 7.36 1.05
6 -23 1 6.69 0.79
17 -23 -1 7.83 0.87
-6 -17 -1 5.86 1.04
23 -6 -1 6.24 0.78
-17 23 -1 5.9 0.85
-23 17 1 5.52 0.89
-23 6 -1 6.83 1.06
23 -17 1 6.06 0.83
17 6 1 5.38 0.77
18 -23 1 2.59 0.5
-18 23 1 2.17 0.67
-5 -18 1 2.23 0.59
-23 5 1 3.51 0.63
23 -5 1 2.83 0.53
-23 18 -1 3.12 0.58
23 -18 -1 2.5 0.5
5 -23 -1 3.42 0.5
-5 -18 -1 0.96 0.52
5 -23 1 1.43 0.43
23 -5 -1 -0.01 0.23
18 -23 -1 1.37 0.48
18 5 1 0.38 0.34
-23 18 1 0.42 0.48
23 -18 1 0.62 0.45
-23 5 -1 0.83 0.58
-18 23 -1 0.9 0.62
23 -4 1 2.61 0.52
-23 19 -1 2.86 0.58
-19 23 1 3.4 0.7
23 -19 -1 3.55 0.52
19 -23 1 3.2 0.56
4 -23 -1 3.09 0.5
-23 4 1 3.17 0.64
-19 23 -1 3.37 0.7
-23 19 1 2.84 0.58
19 -23 -1 4.46 0.58
23 -19 1 3.67 0.54
4 -23 1 3.07 0.51
-23 4 -1 3.74 0.66
-23 20 -1 1.8 0.54
-20 23 1 1.42 0.59
23 -20 -1 1.49 0.46
-23 3 1 2.01 0.6
23 -3 1 0.67 0.29
20 -23 1 1.14 0.47
3 -23 -1 2.08 0.45
-20 23 -1 0.71 0.55
20 -23 -1 1.36 0.49
-23 20 1 1.03 0.49
-23 3 -1 1.67 0.61
23 -20 1 0.87 0.48
3 -23 1 0.74 0.37
-12 -12 1 9.62 1.15
-12 -12 -1 9.3 1.17
24 -12 1 9.59 0.94
12 -24 1 8.69 0.85
24 -12 -1 8.82 0.89
12 -24 -1 6.6 0.76
24 -13 -1 0.33 0.4
24 -11 1 0.18 0.41
-24 11 1 -0.4 0.28
11 13 1 0.03 0.21
-11 -13 1 1.01 0.55
11 -24 -1 0.02 0.35
-13 -11 -1 0.04 0.52
13 -24 1 0.47 0.34
24 -11 -1 0.25 0.42
-11 -13 -1 0.54 0.59
13 11 1 -0.01 0.24
-13 -11 1 0.05 0.48
11 -24 1 0.05 0.34
24 -13 1 0.09 0.39
24 -14 -1 2.04 0.45
14 -24 1 1.91 0.4
-14 24 1 0.58 0.39
-10 -14 1 2.51 0.6
10 -24 -1 1.42 0.38
-14 -10 -1 1.72 0.55
24 -10 1 2.61 0.49
-24 10 1 1.09 0.5
24 -14 1 2.63 0.48
-14 24 -1 0.79 0.41
-14 -10 1 1.55 0.56
24 -10 -1 2.33 0.46
10 -24 1 1.86 0.42
-24 10 -1 1.79 0.5
15 -24 1 5.55 0.7
-9 -15 1 6.48 1.02
24 -9 1 6.36 0.81
-15 24 1 5.15 0.92
-24 9 1 4.12 0.69
24 -15 -1 6.15 0.75
9 -24 -1 6.19 0.72
-24 15 1 5.26 0.69
9 -24 1 7.06 0.75
-24 9 -1 3.95 0.68
-9 -15 -1 7.94 1.05
-15 24 -1 5.39 0.79
24 -15 1 6.52 0.81
24 -9 -1 5.83 0.75
16 -24 1 0.59 0.38
8 -24 -1 0.57 0.38
-24 16 -1 0.21 0.31
-8 -16 1 0.92 0.57
24 -8 1 0.33 0.44
-24 8 1 0.59 0.55
-16 24 1 0.65 0.52
24 -16 -1 0.97 0.42
-8 -16 -1 0.75 0.54
16 8 1 0.04 0.23
24 -8 -1 0.23 0.27
24 -16 1 0.57 0.41
8 -24 1 0.46 0.43
-24 8 -1 0.31 0.48
-24 16 1 0.46 0.45
16 -24 -1 0.35 0.43
-16 24 -1 0.12 0.57
-24 17 -1 5.25 0.76
-17 24 1 4.92 0.78
24 -7 1 5.01 0.76
24 -17 -1 5.14 0.76
-24 7 1 6.37 1
7 -24 -1 5.97 0.72
-7 -17 1 5.36 0.96
7 -24 1 7.44 0.83
24 -17 1 6.96 0.82
-7 -17 -1 6.08 0.98
-17 24 -1 7.72 1.08
17 -24 -1 8.14 0.85
-24 7 -1 7.53 1.08
-24 17 1 5.83 0.88
18 -24 1 0.01 0.29
6 -24 -1 1.02 0.42
-18 24 1 0.61 0.58
-24 18 -1 0.57 0.47
-6 -18 1 0.58 0.49
24 -6 1 0.36 0.44
24 -18 -1 0.39 0.41
-24 6 1 0.46 0.59
-24 6 -1 0.92 0.56
-18 24 -1 0.59 0.57
18 -24 -1 0.84 0.43
24 -18 1 0.61 0.44
6 -24 1 0.47 0.4
-6 -18 -1 0.13 0.44
-24 18 1 0.43 0.49
-12 -13 1 2.1 0.59
25 -12 1 2.3 0.46
-13 -12 -1 1.73 0.57
25 -13 -1 1.57 0.35
25 -13 1 1.07 0.43
12 -25 1 0.29 0.25
-13 -12 1 1.25 0.57
-12 -13 -1 1.2 0.54
-11 -14 1 2.69 0.64
-11 -14 -1 3.18 0.59
0 0 2 0.08 0.17
0 0 -2 -0.23 0.13
0 0 2 0.08 0.15
0 0 -2 0.06 0.14
0 0 2 0.14 0.21
0 -1 -2 95.82 5.89
0 -1 2 96.84 5.85
-1 0 2 90.33 5.89
0 -1 2 91.87 5.89
1 0 -2 75.13 5.89
1 0 2 78.05 5.88
1 -1 -2 94.91 5.88
1 -1 -2 91.76 5.89
0 -1 -2 81.77 5.87
-1 1 -2 78.49 5.87
1 0 -2 85.07 5.86
1 -1 -2 84.51 5.89
1 0 2 86.94 5.9
1 -1 2 98.38 5.88
-1 0 -2 98.85 5.89
0 1 -2 79.24 5.89
-1 0 -2 89.13 5.89
0 1 2 85.83 5.89
0 -1 -2 100.14 5.91
1 -1 2 80.11 5.88
0 -1 -2 91.03 5.87
-1 1 -2 88.76 5.88
0 1 -2 90.36 5.88
0 1 2 93.39 5.91
1 0 -2 89.3 5.87
0 -1 2 87.4 5.88
-1 0 2 86.22 5.87
-1 1 2 91.31 5.88
1 -1 2 96.34 5.89
-1 0 -2 83.11 5.85
-1 1 -2 94.1 5.89
1 -2 2 192.79 12.62
-1 2 -2 193.48 12.61
1 -2 -2 203.76 12.64
-1 -1 2 177.3 12.59
1 1 -2 194.04 12.59
1 -2 -2 191.26 12.6
-2 1 2 189.86 12.62
-1 2 2 169.51 12.6
1 1 -2 192.59 12.59
-2 1 2 194.68 12.61
-1 -1 -2 202.57 12.62
-2 1 -2 196.37 12.58
-1 -1 -2 198.56 12.64
-1 -1 2 208.31 12.59
-1 -1 2 193.96 12.63
-1 -1 -2 192.6 12.58
1 1 2 193.86 12.58
1 -2 -2 189.87 12.61
-2 1 -2 195.98 12.61
-2 1 -2 194.99 12.62
2 -1 -2 185.54 12.61
2 -1 2 186.01 12.58
1 -2 2 179.32 12.6
2 -1 -2 196.11 12.58
-1 2 2 172.09 12.63
2 -1 2 181.24 12.63
-2 1 2 192.42 12.58
0 -2 -2 71.93 4.78
-2 2 -2 76.25 4.79
0 2 -2 71.02 4.77
-2 0 2 68.54 4.74
-2 0 2 76.7 4.77
0 -2 -2 75.81 4.77
0 -2 2 73.12 4.8
0 -2 2 78.16 4.77
-2 2 -2 69.78 4.78
0 -2 -2 76.54 4.83
-2 0 -2 72.97 4.8
-2 0 -2 74.34 4.78
2 -2 -2 70.12 4.75
2 -2 2 72.72 4.77
0 2 2 67.07 4.76
2 0 -2 68.77 4.76
2 0 -2 70.73 4.74
-2 2 -2 67.73 4.77
2 -2 2 60.83 4.78
-1 3 -2 92.65 6.01
1 2 2 76.49 6
3 -1 2 94.67 5.98
-2 -1 -2 88.64 5.98
-1 -2 2 91.34 6.05
-3 1 2 91.55 6.04
1 -3 -2 90.74 6.02
-3 2 -2 92.42 6.02
1 -3 -2 93.52 6.07
3 -2 -2 94.86 5.98
3 -2 -2 85.55 5.98
3 -1 2 82.89 5.97
-1 -2 2 89.79 6.01
-3 1 2 90.12 6.03
-2 -1 -2 92.29 6.07
-3 2 -2 90.43 6.04
2 -3 2 94.77 6.04
1 -3 -2 94.72 6.02
-2 -1 -2 95.94 6.03
2 1 -2 88.07 5.99
-2 -1 2 73.59 4.89
2 1 2 65.94 4.82
-2 3 -2 77.4 4.88
3 -2 2 75.29 4.84
3 -1 -2 69.45 4.8
1 -3 2 75.01 4.87
-3 2 2 77.28 4.89
-1 -2 -2 73.42 4.84
-3 1 -2 76.39 4.9
-3 1 -2 70.43 4.86
2 -3 -2 72.41 4.86
1 2 -2 69.76 4.84
-2 -1 2 69.33 4.83
2 -3 -2 66.43 4.88
2 -3 -2 72.48 4.85
-1 -2 -2 71.69 4.86
1 2 -2 67.71 4.86
-2 3 -2 71.92 4.86
-1 -2 -2 79.5 4.94
-2 -1 2 80.64 4.86
1 -3 2 74.5 4.88
-3 0 2 192.46 13.22
3 -3 -2 198.4 13.26
-3 0 -2 192.46 13.31
3 0 -2 188.38 13.22
-3 0 -2 192.99 13.23
-3 0 -2 211.58 13.28
0 3 -2 192.32 13.27
-3 3 -2 204.89 13.28
0 -3 -2 214.92 13.28
3 -3 2 214.18 13.28
0 -3 -2 197.47 13.28
-3 0 2 193.69 13.29
0 -3 2 207.64 13.29
0 -3 -2 210.29 13.34
-3 0 2 215.13 13.29
0 -3 2 206.07 13.31
3 -3 -2 194.09 13.28
3 0 2 193.49 13.24
-3 3 -2 198.35 13.3
2 -4 -2 116.87 7.85
2 2 -2 119.36 7.78
-2 4 -2 113.13 7.8
2 -4 -2 125.65 7.82
-4 2 -2 116.72 7.84
-2 -2 -2 122.63 7.88
-2 -2 -2 107.27 7.79
-2 -2 2 119.37 7.81
-4 2 2 113.06 7.82
2 -4 -2 120.57 7.81
-2 -2 2 115.47 7.83
-4 2 -2 114.57 7.8
4 -2 -2 115.82 7.73
4 -2 2 129.32 7.78
2 -4 2 123.35 7.84
4 -2 -2 103.24 7.73
-2 -2 -2 117.17 7.78
-4 2 2 121.72 7.83
-3 -1 -2 96.82 6.87
1 -4 -2 106.07 6.89
4 -3 -2 100.9 6.77
-3 -1 -2 95.21 6.77
1 -4 -2 104.39 6.82
-4 1 2 113.39 6.85
1 -4 -2 97.6 6.82
-1 4 -2 102.27 6.8
-4 3 -2 98.43 6.84
-1 -3 2 106.58 6.83
-3 -1 -2 102.41 6.81
3 1 -2 97.58 6.77
-4 3 -2 103.65 6.8
-4 1 2 102.15 6.84
-1 -3 2 103.04 6.85
3 -4 2 107.39 6.84
-3 4 -2 102.13 6.49
1 -4 2 103.14 6.48
-4 1 -2 95.2 6.43
-1 -3 -2 92.91 6.44
-1 -3 -2 103.16 6.54
4 -3 2 104.45 6.44
-4 3 2 100.58 6.49
-3 -1 2 100.67 6.47
3 -4 -2 91.58 6.45
-1 -3 -2 93.76 6.44
-3 -1 2 92 6.47
1 -4 2 93.75 6.48
3 -4 -2 93.58 6.5
-3 4 -2 93.65 6.44
1 3 -2 95.45 6.43
-4 1 -2 92.73 6.49
-4 0 2 14.51 1.21
-4 4 -2 14.72 1.23
-4 0 -2 14.42 1.1
4 -4 -2 15.71 1.2
-4 4 -2 15.67 1.16
0 -4 2 14.8 1.25
0 4 -2 15.26 1.17
-4 0 -2 15.6 1.12
0 -4 -2 16.14 1.31
0 -4 -2 14.27 1.14
4 -4 2 15.94 1.2
-4 0 2 14.08 1.02
-4 0 -2 15.26 1.26
0 -4 -2 15.81 1.21
0 -4 2 16.11 1.22
-4 0 2 17.94 1.26
-4 0 2 15.27 1.02
-2 -3 2 109.81 7.57
-3 -2 -2 117.2 7.63
5 -2 2 100.98 7.5
-3 -2 -2 107.03 7.51
2 -5 -2 115.79 7.61
-5 2 2 117.87 7.58
-2 5 -2 111.71 7.54
-2 -3 2 104.13 7.55
-5 3 -2 115.63 7.59
2 -5 -2 117.77 7.55
3 -5 2 115.7 7.57
5 -3 -2 112.91 7.47
2 -5 -2 121.86 7.56
-5 2 2 115.16 7.56
-3 -2 -2 115.36 7.53
-5 3 -2 112.24 7.52
-5 2 -2 97.77 6.67
-3 -2 2 92.55 6.71
-3 5 -2 99.33 6.69
-2 -3 -2 99.21 6.69
-5 3 2 102.63 6.73
2 -5 2 107.85 6.74
-5 2 -2 101.43 6.75
-2 -3 -2 97.39 6.68
3 -5 -2 101.74 6.75
2 -5 2 101.32 6.72
2 3 -2 100 6.67
5 -3 2 93.07 6.67
-2 -3 -2 105.88 6.8
3 -5 -2 104.07 6.71
-3 -2 2 99.88 6.73
-1 5 -2 68.87 4.76
4 -5 2 76.63 4.81
1 -5 -2 66.21 4.85
-4 -1 -2 74.55 4.76
-5 4 -2 71.21 4.75
-5 1 2 76.66 4.84
5 -4 -2 71.09 4.78
1 -5 -2 71.07 4.78
-1 -4 2 66.46 4.8
-4 -1 -2 67.37 4.73
-5 1 2 70.3 4.8
1 -5 -2 73.61 4.79
-1 -4 2 70.63 4.83
-5 4 -2 67.63 4.82
-4 -1 -2 71.4 4.88
-4 5 -2 58.04 3.78
-5 4 2 55.72 3.78
1 -5 2 58.12 3.77
1 4 -2 55.28 3.69
-4 5 -2 55.8 3.7
-4 -1 2 55.87 3.64
-4 -1 2 53.04 3.75
4 -5 -2 53.9 3.73
-5 1 -2 53.83 3.79
-5 1 -2 54.31 3.69
1 -5 2 55.17 3.77
-4 -1 2 55.94 3.76
-1 -4 -2 57.7 3.83
-1 -4 -2 48.52 3.7
-1 -4 -2 53.72 3.71
5 -4 2 50.36 3.71
0 -5 -2 239.7 16.04
-5 0 -2 246.91 15.94
5 -5 2 255.4 15.97
-5 5 -2 237.42 16
0 -5 -2 232.76 15.96
-5 0 -2 239.84 16.02
0 -5 -2 256.64 15.97
-5 0 2 258.37 16.01
0 -5 2 241.16 16
-5 0 2 237.09 15.98
-5 5 -2 232.86 15.95
0 5 -2 236.94 15.95
0 -5 2 241.01 16
-5 0 -2 229.43 15.91
5 -5 -2 230.91 15.96
-3 -3 2 28.29 2.19
-6 3 -2 29.94 2.12
6 -3 -2 27.51 2
-6 3 2 31.19 2.22
3 -6 -2 31.79 2.28
-3 -3 -2 30.37 2.15
-3 -3 -2 33.44 2.32
-6 3 -2 29.26 2.21
3 -6 -2 32.12 2.18
-3 -3 2 30.37 2.22
6 -3 2 25.87 2.1
3 -6 2 33.36 2.25
-3 6 -2 30.72 2.12
-3 -3 -2 30.96 2.15
3 -6 2 30.52 2.22
-2 -4 2 101.26 6.89
-4 -2 -2 100.13 6.82
-2 6 -2 99.75 6.84
6 -2 2 86.56 6.79
2 -6 -2 110.15 6.88
-6 4 -2 99.87 6.9
2 -6 -2 99.87 6.87
-4 -2 -2 104.44 6.95
-2 -4 2 93.88 6.88
-6 4 -2 111.73 6.83
4 -6 2 107.9 6.89
-6 2 2 99.5 6.87
2 -6 -2 101.88 6.93
-6 2 2 114.47 6.93
-4 -2 -2 103.34 6.83
-2 -4 -2 86.24 5.89
-2 -4 -2 91.98 6.01
-4 -2 2 86.76 5.92
6 -4 2 78.25 5.86
2 -6 2 93.28 5.95
2 -6 2 89.7 5.94
2 4 -2 89.91 5.87
-4 6 -2 90.54 5.88
-6 2 -2 85.24 5.85
-6 2 -2 88.75 5.95
-6 4 2 87.24 5.94
-4 -2 2 82.34 5.92
4 -6 -2 87.61 5.9
-2 -4 -2 89.1 5.88
4 -6 -2 87.43 5.96
1 -6 -2 67.83 4.87
-5 -1 -2 64.4 4.72
1 -6 -2 79.01 4.83
1 -6 -2 69.73 4.81
6 -5 -2 69.03 4.79
-1 -5 2 70.6 4.84
-6 1 2 70.91 4.81
-5 -1 -2 71.02 4.87
-6 5 -2 72.87 4.75
-1 6 -2 69.2 4.76
-1 -5 2 62.53 4.81
5 -6 2 70.1 4.8
-5 -1 -2 70.96 4.74
-6 1 2 80 4.88
-6 5 -2 70.22 4.85
-5 -1 2 62.22 4.1
-1 -5 -2 59.94 4.01
6 -5 2 54.55 4.01
1 -6 2 62.16 4.09
-1 -5 -2 57.33 4.01
-5 -1 2 57.51 4.05
5 -6 -2 60.29 4.03
-6 5 2 59.94 4.08
-1 -5 -2 62.05 4.15
-6 1 -2 58.41 4.1
-5 6 -2 60.92 4.02
1 -6 2 56.77 4.08
1 5 -2 60.53 4
-5 -1 2 53.7 3.91
-6 1 -2 57.73 3.98
-6 0 2 6.36 0.85
0 -6 -2 5.53 0.96
-6 0 2 7.01 0.99
-6 0 -2 7.09 0.72
6 -6 2 6.45 0.85
0 -6 -2 7.9 0.87
0 -6 2 7.39 0.96
0 -6 -2 7.51 0.88
-6 0 -2 6.24 0.69
-6 0 -2 7.34 0.94
0 6 -2 6.12 0.8
6 -6 -2 6.4 0.84
0 -6 2 6.19 0.93
-6 6 -2 7.15 0.94
-6 6 -2 6.39 0.67
-3 -4 2 64.39 4.51
-4 -3 -2 67.81 4.59
4 -7 2 70.79 4.56
-7 3 2 68.86 4.54
3 -7 -2 66.78 4.49
-3 7 -2 64.22 4.46
-7 4 -2 66.75 4.53
-3 -4 2 56.88 4.49
-7 4 -2 68.52 4.43
3 -7 -2 64.98 4.57
4 -7 2 69.71 4.52
7 -3 2 57.96 4.41
-4 -3 -2 60.48 4.43
-4 -3 -2 68.27 4.43
7 -4 2 61.1 4.68
-4 7 -2 68.41 4.72
3 -7 2 73.5 4.79
-7 3 -2 67.93 4.68
-3 -4 -2 77.02 4.91
-7 4 2 70.73 4.8
-7 3 -2 67.52 4.79
-3 -4 -2 70 4.72
4 -7 -2 71.94 4.85
3 -7 2 72.72 4.81
4 -7 -2 70.1 4.75
-4 -3 2 62.4 4.77
-3 -4 -2 70.7 4.71
-4 -3 2 69.94 4.77
2 -7 -2 153.86 10.08
-7 2 2 169.68 10.16
2 -7 -2 155.34 10.07
2 -7 -2 150.85 10.15
-7 5 -2 144.48 10.1
-7 5 -2 156.53 10.03
-5 -2 -2 148.06 10.15
-5 -2 -2 152.42 10.03
7 -5 -2 155.65 10.07
-5 -2 -2 143.23 10.01
5 -7 2 154.55 10.08
-7 2 2 139.81 10.06
-2 -5 2 152.21 10.11
-2 7 -2 148.18 10.04
-2 -5 2 135.61 10.09
2 5 -2 101.65 8.16
-7 2 -2 115.43 8.14
5 -7 -2 125.99 8.21
2 -7 2 125.83 8.27
-2 -5 -2 131.83 8.2
-5 7 -2 133.02 8.19
5 -7 -2 129.08 8.3
-7 5 2 134.85 8.29
-2 -5 -2 129.45 8.19
-2 -5 -2 135.03 8.33
-7 5 2 115.84 8.18
7 -5 2 113.66 8.17
-5 -2 2 116.36 8.23
-7 2 -2 125.27 8.26
-5 -2 2 105.32 8.1
-5 -2 2 129 8.23
2 -7 2 133.24 8.25
-2 -5 -2 103.88 8.19
-6 -1 -2 3.46 0.56
6 -7 2 3.29 0.64
7 -6 -2 3.21 0.64
-7 1 2 3.04 0.63
1 -7 -2 3.91 0.73
-6 -1 -2 3.01 0.49
7 -1 2 2.49 0.45
-6 -1 -2 3.35 0.71
1 -7 -2 2.97 0.7
-1 7 -2 2.31 0.51
1 6 2 2.61 0.46
-7 6 -2 2.79 0.64
-7 6 -2 2.93 0.56
1 -7 -2 4.25 0.7
-1 7 -2 3.96 0.57
-6 -1 -2 1.7 0.5
-1 -6 2 2.26 0.58
-7 1 2 2.86 0.7
-7 1 2 2.17 0.64
-7 6 -2 4.17 0.53
-1 -6 2 1.27 0.5
-1 -6 2 4.54 0.76
6 1 -2 1.83 0.49
-1 -6 -2 0.61 0.62
1 6 -2 0.85 0.41
6 -7 -2 0.33 0.29
6 -7 -2 0.98 0.53
-6 7 -2 0.97 0.54
1 -7 2 0.81 0.57
-7 6 2 1.13 0.54
7 -1 -2 0.54 0.45
-6 7 -2 1.12 0.55
-7 1 -2 0.9 0.58
1 -7 2 1.12 0.65
-1 -6 -2 0.92 0.43
7 -6 2 0.92 0.51
-6 -1 2 0.46 0.59
-1 7 2 0.53 0.39
-1 -6 -2 1.36 0.51
1 6 -2 0.87 0.45
6 1 2 0.56 0.38
-1 -6 -2 0.92 0.46
-6 -1 2 1.25 0.54
-7 1 -2 0.3 0.37
-7 1 -2 1.43 0.58
1 -7 2 0.1 0.34
0 7 -2 10.45 1.02
-7 7 2 9.64 1.05
-7 0 2 8.14 1.06
7 -7 -2 10.69 1.02
-7 0 2 10.41 1.14
-7 0 2 9.66 1.05
0 7 -2 9.1 0.97
-7 7 -2 11.12 1
-7 0 -2 8.21 0.86
-7 0 -2 10.02 1.06
0 -7 2 8.43 1.07
7 -7 2 9.53 1
-7 7 -2 10.13 1.09
0 -7 2 11.37 1.17
0 -7 -2 9.91 1.2
0 -7 -2 11.58 1.11
-7 0 -2 9.31 0.89
-7 7 -2 8.5 1.02
0 -7 -2 10.08 1.08
7 0 -2 8.92 0.96
-7 0 -2 9.95 1.17
7 -7 -2 9.24 0.92
7 0 2 9.64 0.92
0 7 2 9.74 0.93
-4 8 -2 54.25 4.05
4 -8 -2 65.2 4.14
-8 4 -2 63.08 4.18
-4 8 2 56.58 4.05
-4 -4 -2 60.63 4.14
8 -4 2 58.02 4.02
8 -4 2 52 4.03
-8 4 2 56.24 4.11
-4 -4 2 59.85 4.14
-4 -4 -2 63.88 4.08
4 -8 -2 59.85 4.21
4 -8 2 66.05 4.18
-8 4 2 69.02 4.23
4 4 2 58.08 4.01
-8 4 2 59.32 4.06
-4 -4 -2 60.19 4.07
-4 -4 2 50.52 4.12
4 -8 2 60.04 4.06
-4 8 -2 64.4 4.07
8 -4 -2 55.07 4.05
4 -8 2 63.44 4.15
-4 -4 2 53.04 4.1
-4 -4 -2 64.56 4.26
4 4 -2 55.3 4.06
-8 4 -2 53.67 4.02
-5 -3 -2 22.61 1.78
5 -8 2 21.25 1.75
3 -8 -2 19.63 1.55
-3 -5 2 20.62 1.73
-8 5 -2 20.06 1.45
8 -3 2 17.88 1.48
-8 3 2 23.65 1.79
-5 -3 -2 19.56 1.55
-5 -3 -2 19.38 1.6
-3 -5 2 16.37 1.65
8 -5 -2 20.96 1.59
-3 8 -2 21.16 1.58
3 5 2 19.62 1.52
-5 -3 -2 21.06 1.48
-8 5 -2 20.32 1.68
-3 -5 2 16.61 1.66
5 -8 2 20.87 1.67
-8 3 2 18.1 1.68
3 -8 -2 19.45 1.62
-5 8 2 19.23 1.55
3 -8 -2 20.96 1.82
5 3 -2 18.09 1.54
-3 8 -2 18.65 1.55
5 -8 2 18.86 1.53
8 -3 2 17.97 1.48
-3 -5 -2 28.19 2.09
3 5 -2 24.4 1.89
-5 8 -2 21.45 1.83
8 -3 -2 21.95 1.81
-3 -5 -2 27.55 1.81
5 3 2 22.89 1.76
3 -8 2 25.13 1.85
-8 3 -2 22.13 1.88
8 -5 2 22.72 1.82
-8 5 2 26.31 1.96
5 -8 -2 24.46 1.88
-3 -5 -2 23.35 1.9
-5 8 -2 27.45 1.81
-5 -3 2 20.4 1.91
-3 -5 -2 24.93 1.86
-5 -3 2 21.78 1.71
3 -8 2 26.39 2.02
-8 3 -2 21.44 1.71
8 -5 2 23.31 1.74
3 -8 2 28.39 2.03
5 -8 -2 25 2.04
-5 -3 2 24.64 1.92
-5 -3 2 22.16 1.89
-8 5 2 26.36 1.9
-8 3 -2 26.07 2.01
-8 2 2 6.35 0.85
2 -8 -2 6.59 0.91
-6 -2 -2 5.09 0.73
-6 -2 -2 4.56 0.83
2 6 2 5.14 0.79
2 -8 -2 5.96 0.87
-2 8 -2 5.62 0.84
-8 6 -2 5.38 0.94
-2 8 -2 5.5 0.72
6 -8 2 5.65 0.84
-6 -2 -2 5.21 0.77
-8 2 2 6.23 0.92
8 -2 2 6.33 0.83
-8 6 -2 5.79 0.66
6 -8 2 4.9 0.81
-2 -6 2 6.88 0.96
-2 -6 2 4.95 0.86
8 -6 -2 5.91 0.73
-8 2 2 6.27 1.1
-6 -2 -2 6.62 1.07
-6 -2 -2 5.16 0.72
8 -6 -2 6.87 1.01
6 2 -2 5.99 0.78
2 -8 -2 6.09 1
-8 6 -2 5.9 0.96
-2 -6 2 4.35 0.77
8 -2 -2 6.86 0.84
-6 -2 2 4.41 0.77
-6 8 -2 7.36 1
-2 -6 -2 5.23 0.99
-6 8 -2 6.7 0.72
8 -6 2 5.69 0.85
8 -6 2 7.13 0.79
2 -8 2 7.36 0.98
-8 2 -2 6.42 1.01
2 -8 2 6.16 0.93
-2 -6 -2 7.38 0.75
-8 6 2 6.2 0.91
-2 -6 -2 6.63 1.1
6 -8 -2 6.22 1.05
-6 -2 2 7.05 0.95
-6 -2 2 5.3 0.98
2 -8 2 5.51 1.02
6 -8 -2 6.03 0.84
-8 2 -2 5.36 0.68
6 2 2 5.68 0.75
2 6 -2 6.15 0.83
-8 2 -2 5.76 0.99
-8 6 2 7.24 1.08
-2 -6 -2 6.37 0.92
1 7 2 33.92 2.35
7 -8 2 32.47 2.42
-7 -1 -2 27.78 2.31
-7 8 2 32.04 2.4
8 -7 -2 35.53 2.44
-1 -7 2 30.21 2.42
1 -8 -2 33.97 2.43
-7 -1 -2 31.85 2.43
-1 8 -2 31.65 2.4
7 1 -2 31.18 2.37
-8 7 -2 33.09 2.49
-1 -7 2 33.71 2.52
1 -8 -2 33.89 2.55
1 -8 -2 36.21 2.4
-7 -1 -2 29.84 2.28
-8 7 -2 31.74 2.38
-1 -7 2 29.29 2.49
-1 8 -2 34.06 2.41
7 -8 2 29.68 2.3
-7 -1 -2 37.78 2.62
8 -1 2 34.39 2.33
7 -8 2 30.45 2.29
-8 1 2 33.31 2.43
-8 1 2 34.71 2.58
-8 1 2 28.43 2.43
8 -7 -2 34.15 2.33
-8 7 -2 36.18 2.39
7 1 2 29.4 2.08
-1 -7 -2 29.36 2.33
-7 -1 2 30.81 2.21
-7 -1 2 27.41 2.23
-7 -1 2 25.32 2.24
1 -8 2 27.04 2.27
8 -1 -2 28.49 2.18
7 -8 -2 27.14 2.05
1 7 -2 28.98 2.17
-1 8 2 30.48 2.09
-1 -7 -2 29.03 2.16
-8 1 -2 27.8 2.19
-1 -7 -2 28.47 2.18
8 -7 2 25.6 2.13
7 -8 -2 29.63 2.19
8 -7 2 29.12 2.09
-7 8 -2 29.72 2.21
-1 -7 -2 30.7 2.2
-8 1 -2 29.71 2.29
-7 8 -2 31.56 2.17
-8 1 -2 24.23 2.04
-8 7 2 30.8 2.23
1 -8 2 29.65 2.17
1 -8 2 29.65 2.29
-8 0 2 -0.05 0.71
0 8 -2 0.18 0.56
-8 0 2 -0.15 0.67
0 -8 2 -0.19 0.63
-8 8 -2 0.27 0.61
8 -8 2 0.34 0.56
0 -8 2 0.8 0.76
0 -8 2 -0.46 0.53
0 8 2 -0.07 0.27
0 -8 -2 0.18 0.59
8 -8 -2 0.02 0.46
-8 8 2 -0.04 0.59
8 -8 2 -0.18 0.41
0 8 2 0.04 0.45
-8 8 -2 0.26 0.62
-8 0 2 -0.4 0.61
8 0 2 -0.04 0.42
8 0 -2 0.11 0.51
-8 0 -2 -0.05 0.61
0 -8 -2 0.03 0.69
-8 0 -2 -0.11 0.68
0 -8 2 -0.09 0.53
8 -8 2 -0.02 0.44
8 0 -2 -0.12 0.29
8 -8 -2 -0.27 0.59
-8 0 -2 -0.02 0.32
0 -8 -2 -0.06 0.64
0 8 -2 -0.24 0.57
0 -8 -2 0.3 0.5
-8 8 -2 0.12 0.44
-8 0 -2 0.2 0.41
-4 9 -2 5.24 0.71
5 -9 2 5.76 0.98
-9 5 -2 5.33 0.93
-4 -5 2 5.35 0.9
-4 9 -2 5.4 0.88
-5 -4 -2 6.53 1.08
-4 -5 2 6.27 0.93
-9 5 -2 4.65 0.7
9 -4 2 3.84 0.64
9 -5 -2 6.15 0.93
-9 4 2 5.32 0.86
-9 4 2 5.42 0.96
-9 5 -2 4.66 0.74
-5 -4 -2 5.47 0.67
-4 -5 2 4.27 0.84
5 -9 2 6.27 0.93
-9 4 2 5.59 0.89
9 -4 2 6.18 0.78
-5 -4 -2 4.18 0.74
4 5 2 5.05 0.74
-5 -4 -2 6.26 0.94
4 -9 -2 5.43 0.87
-4 -5 2 3.73 0.63
4 -9 -2 5.23 0.96
9 -5 -2 5.62 0.7
5 -9 2 5.18 0.93
-9 5 -2 4.42 0.85
4 -9 -2 5.39 0.79
-5 9 2 5.39 0.8
5 4 -2 5.43 0.92
-4 9 2 5.16 0.87
-9 5 2 6.45 1.06
4 -9 2 5.14 0.9
-9 4 -2 5.39 1
4 5 -2 4.94 0.78
4 -9 2 4.68 0.84
-5 -4 2 3.67 0.77
-9 5 2 5.05 0.88
5 -9 -2 4.73 0.78
5 -9 -2 6.01 0.9
5 -9 -2 4.4 0.9
-4 -5 -2 5.12 0.91
-9 5 2 5.75 0.85
-4 -5 -2 5.53 1.07
9 -4 -2 4.46 0.69
-4 -5 -2 3.95 0.73
-9 4 -2 4 0.84
9 -5 2 3.56 0.63
-5 -4 2 3.35 0.77
-5 -4 2 4.12 0.58
9 -4 -2 5.91 0.91
-5 -4 2 5.51 0.93
-4 -5 -2 6.35 0.86
4 -9 2 6.6 0.86
-9 4 -2 4.79 0.64
5 4 2 4.91 0.73
-5 9 -2 5.33 0.8
-5 9 -2 5.03 0.83
9 -5 2 5.29 0.8
-5 9 -2 5.76 0.71
-9 6 -2 35.46 2.67
-3 9 -2 40.04 2.73
-6 -3 -2 34.18 2.71
-9 6 -2 36.83 2.72
-3 -6 2 40.46 2.87
-3 9 -2 38.7 2.76
6 3 -2 38.42 2.77
-6 -3 -2 33.27 2.7
3 -9 -2 37.79 2.74
9 -6 -2 41.97 2.82
-9 6 -2 38.08 2.87
3 -9 -2 40 2.95
-3 -6 2 36 2.82
9 -3 2 36.72 2.68
6 -9 2 42.26 2.95
3 6 2 38.16 2.7
-6 -3 -2 41.71 2.98
6 -9 2 40.25 2.75
6 -9 2 38.98 2.84
-3 -6 2 31.39 2.85
3 -9 -2 40.55 2.84
-6 -3 -2 38.75 2.82
-9 3 2 37.34 2.81
9 -6 -2 38.5 2.67
-3 9 2 41.02 3.02
-6 -3 2 40.98 3.1
-6 -3 2 35.93 3.13
-9 6 2 46.45 3.08
6 3 2 45.01 3.01
9 -3 -2 43.17 3.08
-9 3 -2 44.17 3.19
-3 -6 -2 45.25 3.14
3 -9 2 41.42 3.22
-9 3 -2 35.43 2.93
9 -6 2 38.32 3.04
-9 6 2 45.6 3.21
-6 9 -2 43.56 3.08
-6 9 -2 45.68 3.09
6 -9 -2 42.48 3.1
-6 9 -2 42.39 3.04
-3 -6 -2 44.33 3.28
3 -9 2 46.87 3.21
-9 3 -2 43.01 3.11
-3 -6 -2 47.18 3.1
9 -6 2 44.45 2.99
3 -9 2 44.52 3.06
-6 -3 2 43.47 3.12
3 6 -2 41.28 3.05
-3 -6 -2 39.7 3.05
6 -9 -2 45.79 3.24
9 -7 -2 129.67 8.41
9 -2 2 126.23 8.41
-9 2 2 122.99 8.54
-9 2 2 133.74 8.64
-7 -2 -2 128.06 8.62
-9 7 -2 128 8.6
-9 7 -2 122.71 8.46
2 -9 -2 144.58 8.53
7 -9 2 127.38 8.52
2 7 2 130.36 8.42
2 -9 -2 124.36 8.52
-2 -7 2 131.77 8.58
-7 -2 -2 108.63 8.41
7 2 -2 126 8.47
-9 7 -2 122.19 8.44
-7 -2 -2 121.95 8.5
-2 9 -2 127.05 8.47
-7 9 2 124.29 8.48
2 -9 -2 130.5 8.45
2 -9 -2 129.78 8.62
9 -7 -2 131.59 8.51
7 -9 2 121.85 8.4
-7 -2 -2 124.61 8.48
-2 9 -2 125.92 8.46
-9 2 2 121.47 8.5
7 -9 2 128.04 8.44
-2 -7 2 126.24 8.5
-2 -7 2 105.61 8.54
-2 -7 -2 114.86 8.05
-7 -2 2 109.61 8.02
2 7 -2 116.73 8.02
7 -9 -2 118.55 7.96
9 -7 2 125.32 7.98
-2 9 2 109.19 7.99
-7 -2 2 105.33 8.11
-2 -7 -2 125.46 8.08
2 -9 2 121.58 8.02
-9 2 -2 117.39 8.15
-9 7 2 125.17 8.17
7 -9 -2 114.68 8.06
7 2 2 121.78 7.97
-7 9 -2 114.65 7.99
2 -9 2 132.1 8.14
7 -9 -2 120.14 8.18
-7 -2 2 108.76 8.05
-2 -7 -2 124.76 8.04
-7 -2 2 120.31 8.08
-9 2 -2 122.44 8.09
9 -2 -2 121.43 8.04
-2 -7 -2 116.96 8.18
-9 7 2 126.2 8.06
-7 9 -2 122.33 8.05
-7 9 -2 123.92 8.05
1 8 2 24.7 1.81
-9 1 2 23.02 1.94
-1 -8 2 23.69 1.96
1 -9 -2 26.8 2.04
-9 8 -2 23.47 2.03
-8 9 2 23.93 1.99
9 -8 -2 23.88 1.94
8 -9 2 23.19 1.98
1 -9 -2 25.76 2
-1 9 -2 24.39 1.84
8 -9 2 22.4 1.8
-8 -1 -2 23.92 1.98
1 -9 -2 24.17 1.87
-9 8 -2 22.34 1.86
-1 -8 2 26.04 2.11
8 1 -2 23.56 1.91
-9 8 -2 23.47 1.87
1 -9 -2 24.64 2.17
8 -9 2 24.36 1.83
-8 -1 -2 22.76 2.11
-9 1 2 22.87 2.11
9 -1 2 26.16 1.86
-1 -8 2 21.6 1.86
9 -8 -2 25.23 1.8
-1 9 -2 25.01 1.9
-9 1 2 23.39 2.03
1 -9 -2 22.51 1.87
1 -9 2 27.78 2.27
-1 -8 -2 29.8 2.16
9 -1 -2 28.31 2.1
8 -9 -2 27.02 2.12
-9 1 -2 27.19 2.16
9 -8 2 28.3 1.98
1 8 -2 27.94 2.1
1 -9 2 23.54 2.21
-8 -1 2 26.93 2.14
-8 -1 2 23.54 2.15
-1 9 2 22.41 2.01
9 -8 2 22.81 2.03
-1 -8 -2 29.63 2.06
8 -9 -2 27.62 2
-8 9 -2 22.68 1.93
1 -9 2 29.6 2.12
-1 -8 -2 26.25 2.28
-9 1 -2 25.94 2.26
-1 -8 -2 26.02 2.13
-8 -1 2 26.31 2.12
8 1 2 28.24 2.01
-1 9 2 29.27 2
-8 9 -2 26.64 2.08
-8 9 -2 29.1 2.09
-9 8 2 28.53 2.1
1 -9 2 24.14 2.02
9 -9 2 12.32 1.11
9 0 -2 11.92 1.24
0 -9 -2 12 1.33
9 -9 2 10.5 1.1
-9 0 -2 13.53 1.26
9 -9 2 8.98 1.2
9 -9 -2 13.07 1.29
0 -9 -2 13.04 1.16
0 9 2 12.59 1.19
0 -9 2 12.42 1.45
-9 9 2 12.42 1.28
0 -9 -2 10.58 1.21
-9 9 -2 10.37 1.14
0 -9 2 11.15 1.18
-9 0 -2 12.45 1.47
9 0 2 12.6 1.1
0 -9 -2 11.03 1.45
-9 0 2 11.8 1.3
9 0 -2 9.31 0.98
0 9 2 9.82 1.14
-9 0 2 10.64 1.26
9 -9 -2 11.91 1.15
0 -9 2 10.94 1.28
-9 9 -2 12.68 1.2
0 9 -2 12.26 1.19
5 5 2 27.86 2.07
5 -10 2 25.18 2.24
5 5 -2 29.07 2.21
5 -10 2 29.66 2.2
-5 -5 2 28.5 2.28
-5 10 -2 28.46 2.12
5 -10 -2 28.14 2.4
5 -10 -2 27.56 2.14
-10 5 -2 25.3 2.09
-5 -5 -2 28.52 2.44
-10 5 2 29.63 2.16
-5 10 -2 24.67 2.16
-10 5 -2 26.42 2.31
10 -5 -2 28.58 2.08
5 -10 2 27.08 2.34
-5 10 -2 28 2.15
-10 5 2 30.74 2.37
10 -5 -2 29.44 2.19
-5 -5 2 27.9 2.25
-5 -5 -2 26.64 2.07
-5 -5 -2 30.48 2.26
-10 5 -2 27.26 2.19
-5 10 2 29.42 2.17
10 -5 2 29.4 2.12
-10 5 2 29.45 2.23
5 -10 -2 28.44 2.24
6 4 -2 5.58 0.95
-10 6 -2 3.69 0.68
-10 4 2 3.61 0.7
6 -10 2 3.25 0.61
4 -10 -2 4.63 0.91
-6 -4 -2 2.89 0.68
10 -6 -2 4.18 0.84
-4 10 -2 5.06 0.83
10 -6 -2 4.18 0.64
-4 -6 2 4.06 0.81
-6 10 2 5.29 0.91
-4 -6 2 3.61 0.92
6 -10 2 4.88 0.94
-6 -4 -2 4.1 1.04
6 -10 2 5.8 0.85
4 -10 -2 5.22 1.08
10 -6 -2 5.46 0.82
-6 -4 -2 4.67 0.8
4 6 2 4.75 0.75
6 -10 2 3.86 0.89
10 -4 2 6.04 0.75
4 -10 -2 3.84 0.69
-10 6 -2 4.41 0.97
-10 6 -2 3.97 0.77
-10 4 2 3.37 0.9
-4 10 -2 4.41 0.73
-10 4 2 5.52 0.94
-6 10 -2 7.28 1
-4 -6 -2 4.89 1.09
-10 6 2 7.02 1.26
4 -10 2 4.67 0.93
-10 4 -2 6.2 0.99
-4 -6 -2 6.68 0.81
10 -4 -2 6.7 1.03
6 -10 -2 6.37 0.96
-4 -6 -2 4.23 0.78
10 -6 2 7.58 0.91
10 -4 -2 6.12 0.87
-6 -4 2 6.92 1.05
6 -10 -2 6.15 1.07
-10 4 -2 4.87 0.96
4 6 -2 6.87 1.06
-10 6 2 7 1.04
-6 -4 2 5.57 0.92
-4 10 2 7.06 0.99
6 4 2 6.55 0.91
6 -10 -2 7.04 0.92
-6 10 -2 6.38 0.93
-4 -6 -2 7.63 1.1
4 -10 2 7 1.03
4 -10 2 6.76 0.97
-10 6 2 6.28 1.1
-6 10 -2 6.09 0.81
3 7 2 21.05 1.66
10 -3 2 23.26 1.69
3 -10 -2 23.97 1.91
-3 -7 2 20.45 1.87
7 -10 2 22.04 1.92
-10 3 2 22.48 1.94
-3 10 -2 22.21 1.71
7 3 -2 23.13 1.8
-10 3 2 22.58 2.03
-7 -3 -2 21.95 1.81
-10 7 -2 19.7 1.71
-7 10 2 16.9 1.73
10 -7 -2 23.17 1.85
3 -10 -2 21.56 1.99
7 -10 2 19.71 1.64
10 -7 -2 23.14 1.68
-10 7 -2 21.14 1.93
3 -10 -2 20.51 1.71
7 -10 2 20.04 1.7
-7 -3 -2 21.87 1.83
-7 -3 -2 22.79 2.13
-3 -7 2 23.67 2.04
3 -10 -2 21.07 1.88
-3 10 -2 20.44 1.72
3 -10 2 27 2.26
3 7 -2 27.57 2.04
-7 10 -2 26.5 1.98
10 -3 -2 24.1 1.94
-3 10 2 27.56 2.04
-10 3 -2 26.25 2.08
7 -10 -2 24.2 1.91
-3 -7 -2 25.79 2.06
7 3 2 26.72 1.93
3 -10 2 20.59 2.14
-10 7 2 28.43 2.28
-3 -7 -2 25.18 2.29
-10 7 2 26.46 2.04
-7 10 -2 24.53 1.99
7 -10 -2 24.29 2.09
-10 3 -2 27.04 2.29
10 -7 2 26.15 1.94
10 -3 -2 26.58 2.07
-7 -3 2 22.95 2.03
3 -10 2 28.48 2.04
-3 -7 -2 27.47 2.12
-7 10 -2 27.53 2.07
7 -10 -2 27.04 2.34
-7 -3 2 24.98 2.09
-7 -3 2 24.2 2.1
10 -8 -2 27.62 2.05
-2 -8 2 29.64 2.4
2 -10 -2 27.32 2.09
-2 10 -2 25.52 2.12
8 2 -2 27.86 2.08
2 8 2 27.45 2.05
-8 -2 -2 26.35 2.11
8 -10 2 27 2.04
8 -10 2 23.31 2.15
-2 -8 2 28.38 2.19
2 -10 -2 29.76 2.23
-2 10 -2 27.27 2.11
2 -10 -2 27.18 2.32
-8 -2 -2 25.04 2.11
2 -10 -2 25.72 2.15
-10 2 2 24.86 2.16
8 -10 2 26.96 2
-10 8 -2 23.97 2.06
10 -8 -2 29.29 2.22
10 -2 2 28.71 2.03
-10 8 -2 26.99 2.25
-8 10 2 27.63 2.19
-8 -2 -2 26.57 2.33
-8 10 -2 28.79 2.22
-8 -2 2 29.32 2.42
-2 10 2 29.39 2.3
-8 10 -2 31.79 2.33
10 -8 2 31.99 2.23
-2 -8 -2 25.97 2.51
-2 -8 -2 30 2.33
-10 8 2 31.81 2.34
8 -10 -2 28.27 2.23
8 -10 -2 29.32 2.37
-2 -8 -2 30.44 2.28
10 -2 -2 30.82 2.35
2 -10 2 32.82 2.36
-10 2 -2 33 2.41
2 8 -2 31.17 2.35
-8 -2 2 26.14 2.31
-10 2 -2 31.92 2.58
-8 -2 2 30.43 2.4
10 -2 -2 28.02 2.21
8 -10 -2 33.37 2.63
8 2 2 30.67 2.25
-8 10 -2 30.82 2.26
2 -10 2 31.63 2.5
-1 -9 2 15.83 1.64
9 -10 2 15.21 1.34
-9 -1 -2 13.94 1.73
1 -10 -2 14.85 1.32
1 9 2 14.72 1.29
-10 9 -2 14.36 1.42
10 -9 -2 14.13 1.25
9 -10 2 15.21 1.28
-1 -9 2 14.25 1.4
10 -1 2 15.6 1.27
1 -10 -2 14.99 1.35
10 -9 -2 14.6 1.43
-1 10 -2 15.1 1.34
-9 -1 -2 14.15 1.39
-9 -1 -2 12.53 1.3
9 1 -2 14.76 1.24
1 9 2 13.33 1.35
-9 10 2 15.46 1.53
9 1 -2 15.06 1.41
-10 1 2 13.92 1.54
-1 -9 2 14.37 1.45
-10 9 -2 14.23 1.55
-10 1 2 11.2 1.34
1 -10 -2 14 1.71
1 -10 -2 14.22 1.43
1 9 -2 16.2 1.47
10 -1 -2 14.64 1.37
10 -9 2 14.36 1.26
-10 9 2 14.88 1.45
-10 1 -2 13.46 1.6
-1 -9 -2 14.85 1.33
-10 1 -2 14.65 1.5
9 1 2 14.84 1.29
-9 -1 2 14.93 1.47
1 -10 2 13.75 1.4
-9 -1 2 13.74 1.51
-9 10 -2 15.55 1.48
-1 10 2 13.45 1.38
9 -10 -2 13.72 1.26
-1 -9 -2 14.18 1.46
9 -10 -2 16.32 1.57
-1 -9 -2 13.78 1.75
10 -9 2 17.05 1.38
1 -10 2 17.37 1.5
10 -1 -2 14.74 1.3
1 -10 2 15.68 1.61
0 -10 -2 0.54 0.69
10 0 -2 1.1 0.63
0 -10 2 0.64 0.65
-10 0 2 0.64 0.69
0 -10 2 -0.13 0.86
10 -10 2 0.93 0.56
-10 0 -2 0.79 0.62
0 -10 -2 0.37 0.69
-10 10 2 0.93 0.69
0 -10 2 0.53 0.65
0 -10 -2 1.34 0.6
10 0 2 1.35 0.54
-10 0 2 -0.02 0.57
10 -10 -2 0.55 0.6
0 -10 -2 -0.17 0.76
0 10 2 0.36 0.52
10 0 -2 0.84 0.49
-10 10 -2 1.41 0.67
0 10 2 0.72 0.64
0 10 -2 1.02 0.63
-10 0 -2 -0.05 0.75
10 -10 2 0.87 0.55
10 -10 -2 0.68 0.53
-5 11 -2 21.17 1.72
11 -6 -2 23.24 1.84
-5 -6 2 22.14 1.92
5 -11 -2 22.21 1.78
11 -6 -2 20.75 1.67
6 -11 2 18.25 1.69
-5 11 -2 19.76 1.78
-6 -5 -2 23.08 2.24
-11 5 2 22.92 1.97
11 -6 -2 20.9 1.78
6 5 -2 22.68 1.85
11 -5 2 22.91 1.71
5 -11 -2 21.5 1.87
5 -11 -2 20.7 2.06
6 -11 2 22 1.82
-11 6 -2 20.12 1.7
-11 6 -2 20.45 1.85
-11 6 -2 22.86 2.06
-6 11 2 22.05 1.75
-11 5 2 20.53 1.75
-6 -5 -2 23.36 1.89
5 6 2 21.08 1.68
-5 -6 2 20.1 1.97
-5 11 -2 20.07 1.76
-6 11 -2 20.71 1.75
-5 -6 -2 19.69 2.08
-6 -5 2 23.26 1.94
6 -11 -2 22.36 2.12
-11 5 -2 23.16 1.87
-11 6 2 20.62 1.76
5 6 -2 23.26 1.9
-5 11 2 23.37 1.84
-11 6 2 24.91 1.93
11 -5 -2 22.57 1.71
6 -11 -2 19.83 1.89
-11 5 -2 19.24 1.73
-6 -5 2 21.18 1.91
11 -5 -2 22.92 1.87
-11 5 -2 20.81 1.99
11 -6 2 23.77 1.79
-6 11 -2 22.65 1.76
5 -11 2 22.7 1.87
5 -11 2 18.54 1.89
-5 -6 -2 24.87 1.93
-6 11 -2 21.99 1.91
6 -11 -2 24.15 1.83
6 5 2 20.59 1.71
-4 -7 2 31.02 2.3
-11 7 -2 27.46 2.43
-7 -4 -2 29.69 2.58
-11 7 -2 27.48 2.17
4 -11 -2 24.63 2.27
4 -11 -2 26.82 2.16
7 4 -2 31.36 2.28
-7 11 2 23.5 2.18
-7 -4 -2 27.64 2.23
4 -11 -2 31.22 2.54
7 -11 2 27.22 2.16
7 -11 2 28.6 2.23
11 -7 -2 30.73 2.14
-4 11 -2 27.43 2.19
-11 7 -2 26.01 2.25
11 -7 -2 24.59 2.22
4 -11 -2 31.68 2.35
11 -4 2 32.9 2.22
11 -7 -2 32.65 2.3
-11 4 2 31.71 2.35
4 7 2 29.16 2.13
-7 -4 -2 31.99 2.32
-4 -7 2 26.66 2.35
-4 11 -2 29.21 2.19
11 -4 -2 34.89 2.53
-7 11 -2 32.66 2.49
-11 4 -2 33.85 2.75
4 7 -2 35.27 2.54
-4 -7 -2 27.58 2.74
-7 11 -2 33.68 2.54
4 -11 2 37.21 2.59
11 -7 2 35.91 2.44
-11 7 2 33.34 2.54
7 -11 -2 32.54 2.58
-4 11 2 35.02 2.51
4 -11 2 30.32 2.59
-11 4 -2 35.92 2.59
-11 7 2 32.7 2.6
-7 -4 2 35.98 2.61
7 4 2 33.05 2.46
-7 -4 2 27.05 2.58
-4 -7 -2 35.91 2.6
7 -11 -2 31.69 2.74
11 -4 -2 35.01 2.46
7 -11 -2 30.27 2.49
-7 11 -2 35.43 2.57
8 3 -2 3.19 0.75
-8 -3 -2 0.19 0.87
-11 3 2 3.09 0.89
8 -11 2 2.27 0.6
8 3 -2 1.61 0.46
-11 8 -2 2.45 0.69
3 -11 -2 3.45 0.7
-11 8 -2 1.57 0.73
3 -11 -2 3.26 0.86
-8 11 2 1.91 0.66
-3 11 -2 2.79 0.74
-3 11 -2 3.49 0.73
-3 -8 2 1.62 0.81
3 -11 -2 0.63 0.66
11 -8 -2 2.1 0.55
-8 -3 -2 1.67 0.66
-8 -3 -2 2.5 0.71
-3 -8 2 3.33 0.86
3 -11 -2 2.01 0.87
8 -11 2 0.27 0.62
3 8 2 2.63 0.58
-11 3 2 0.26 0.71
11 -8 -2 1.03 0.66
8 -11 2 2.88 0.74
11 -3 2 3.68 0.68
8 3 2 4.98 0.7
-11 3 -2 4.18 0.81
-8 -3 2 3.8 0.85
-3 11 2 3.4 0.71
11 -8 2 4.54 0.7
-8 -3 2 2.87 0.8
11 -3 -2 4.57 0.85
-11 8 2 4.93 0.86
3 -11 2 2.26 0.9
3 8 -2 4.83 0.84
11 -3 -2 4.45 0.68
-11 8 2 2.3 0.68
-8 11 -2 3.25 0.66
-11 3 -2 3.24 0.84
3 -11 2 4.67 0.86
-3 -8 -2 4.51 0.86
8 -11 -2 2.93 0.79
-8 11 -2 5.11 0.88
8 -11 -2 4.48 0.67
-3 -8 -2 1.64 0.7
8 -11 -2 2.77 0.87
2 9 2 22.08 2.11
-9 -2 -2 22.27 2.14
-2 11 -2 28.35 2.13
9 2 -2 26.37 2.11
-11 9 -2 25.92 2.16
11 -2 2 29.75 2.07
9 -11 2 28.47 2.13
-9 11 2 26.52 2.16
2 9 2 28.86 2.06
-9 -2 -2 27.04 2.15
2 -11 -2 29.33 2.14
-11 2 2 29.76 2.25
9 2 -2 27.11 2.04
9 -11 2 27.64 2.04
11 -9 -2 28.08 2.09
-2 -9 2 26.07 2.13
-2 -9 2 27.33 2.23
11 -2 -2 23.02 1.8
-2 -9 -2 21.31 1.92
-2 11 2 21.72 1.88
11 -9 2 23.53 1.78
-9 -2 2 17.65 1.89
-11 2 -2 23.54 1.99
2 -11 2 24.18 1.92
11 -2 -2 21.13 1.84
-9 11 -2 23.62 1.94
2 9 -2 24.97 1.95
9 -11 -2 21.47 1.78
-11 9 2 24.01 1.9
-9 -2 2 23.46 2
9 2 2 23.4 1.78
11 -1 2 25.13 1.94
-11 1 2 26.03 2.2
-11 10 -2 24.43 2.02
1 -11 -2 26.78 2.04
1 10 2 22.45 2.06
11 -10 -2 25.32 1.96
10 1 -2 23.18 1.92
10 -11 2 27.46 2
1 10 2 26.67 1.96
10 -11 2 23.55 1.98
1 -11 -2 26.18 2.05
10 1 -2 22.97 2.02
-1 -10 2 26.1 2.13
-1 -10 2 24.47 2.04
-10 11 2 26.94 2.1
-1 11 -2 26.27 2.03
-10 -1 -2 23.94 2.05
-10 11 -2 29.01 2.17
-1 -10 -2 30.1 2.15
11 -1 -2 23.41 2
1 -11 2 28.92 2.17
10 -11 -2 24.88 2.03
-10 -1 2 25.57 2.17
11 -10 2 24.09 1.99
1 -11 2 25.32 2.11
-1 -10 -2 24.7 2.15
11 -1 -2 23.53 2.11
-1 11 2 23.43 2.11
10 1 2 27.25 2.02
11 -10 2 28.9 2.03
-11 10 2 26.86 2.15
-11 1 -2 29.25 2.24
1 10 -2 27.67 2.12
0 -11 -2 0.76 0.69
0 -11 2 0.9 0.69
11 0 -2 0.7 0.64
0 -11 -2 0.37 0.71
11 -11 -2 0.64 0.55
11 0 2 0.19 0.58
-11 11 -2 0.67 0.71
11 0 -2 0.29 0.53
-11 0 2 0.5 0.8
-11 11 2 0.42 0.79
0 11 2 0.81 0.7
-11 0 -2 0.76 0.67
0 11 -2 -0.24 0.63
0 -11 2 0.73 0.72
11 -11 2 0.49 0.6
11 -11 2 0.17 0.56
6 6 2 0.59 0.53
6 6 -2 0.1 0.7
-12 6 -2 -0.02 0.66
12 -6 -2 -0.02 0.6
-6 12 -2 0.45 0.59
12 -6 2 0.59 0.56
-12 6 -2 0.16 0.65
6 -12 -2 -0.03 0.76
-6 -6 2 0.6 0.7
12 -6 -2 -0.29 0.55
6 6 -2 0.14 0.42
-6 12 2 0.21 0.63
-6 -6 -2 0.18 0.73
-6 12 -2 0.18 0.7
-6 -6 -2 0.04 0.71
6 -12 -2 0.51 0.66
6 -12 2 -0.05 0.51
-12 6 2 -0.06 0.84
-12 6 -2 0.24 0.6
-6 12 -2 0.29 0.48
-12 6 2 0.37 0.57
6 -12 2 -0.11 0.7
12 -5 2 18 1.54
7 5 -2 19.66 1.7
12 -7 -2 16.49 1.49
-12 7 -2 15.04 1.64
7 -12 2 18.67 1.66
-12 5 2 19.4 1.75
-7 -5 -2 19.57 1.71
12 -7 -2 19.8 1.7
7 5 -2 16.62 1.45
5 7 2 18.38 1.57
-5 12 -2 16.99 1.61
-12 7 -2 17.06 1.62
-5 -7 2 19.95 1.77
5 -12 -2 16.68 1.58
7 -12 2 17.01 1.54
-12 7 2 13.65 1.58
-7 12 -2 13.76 1.5
-5 12 2 15.41 1.37
-5 -7 -2 16.14 1.53
5 7 -2 10.96 1.17
5 -12 2 14.8 1.48
-12 5 -2 15.67 1.55
-7 -5 2 15.31 1.55
12 -7 2 14.75 1.31
-12 7 2 12.42 1.34
12 -5 -2 14.01 1.46
-12 5 -2 11.52 1.25
12 -5 -2 14.86 1.37
7 -12 -2 14.85 1.42
7 5 2 13.77 1.29
5 7 -2 15.48 1.5
-7 12 -2 13.64 1.38
12 -4 2 8.57 1.13
8 4 -2 7.64 0.95
-8 -4 -2 6.49 1.11
8 -12 2 6.97 1.06
-12 8 -2 7.33 1.13
12 -8 -2 7.63 0.98
4 8 2 8.58 1.08
-4 -8 2 10.48 1.35
8 4 -2 7.9 1.15
-12 4 2 8.54 1.24
4 -12 -2 7.58 1.1
12 -8 -2 9.25 1.25
-8 12 2 7.38 1.16
8 -12 2 7.46 1.15
-8 -4 -2 8.52 1.22
-12 8 -2 6.29 1.06
-4 12 -2 8.16 1.13
4 8 -2 6.56 0.88
4 -12 2 7.1 1.09
8 4 2 7.27 0.98
8 -12 -2 7.58 1.06
-8 -4 2 7.06 1.21
-4 -8 -2 8.81 1.24
8 -12 -2 7.28 0.95
-8 12 -2 8.72 1.24
4 8 -2 8.78 1.2
12 -4 -2 8.32 1.08
-8 12 -2 7.39 1.07
-12 8 2 6.83 1.23
-12 4 -2 8.82 1.15
-12 8 2 8.33 1.1
12 -8 2 9.56 1.08
-4 12 2 7.22 1.15
-8 -4 2 7.13 1.11
12 -4 -2 7.25 1.14
12 -3 2 15.03 1.35
-12 3 2 17.48 1.67
12 -9 -2 15.32 1.4
-12 9 -2 14.45 1.49
3 -12 -2 15.07 1.42
3 9 2 14.15 1.33
-9 12 2 14.97 1.56
-3 12 -2 15.41 1.48
9 3 -2 12.53 1.4
-3 -9 2 16.22 1.6
9 -12 2 15.62 1.49
9 -12 2 13.42 1.36
-9 -3 -2 13.76 1.45
-3 -9 2 11.89 1.32
9 3 -2 13.31 1.3
-9 -3 -2 13.81 1.42
3 9 -2 19.14 1.63
-9 -3 2 18.36 1.76
3 9 -2 15.76 1.45
12 -3 -2 17.41 1.56
3 -12 2 18.12 1.62
-9 -3 2 14.13 1.64
9 -12 -2 18.24 1.55
-9 12 -2 18.41 1.6
-3 -9 -2 19.14 1.72
-3 12 2 16.77 1.65
-12 3 -2 19.74 1.77
9 3 2 18.67 1.57
-9 12 -2 20.17 1.75
-12 9 2 18.91 1.64
12 -3 -2 15.04 1.65
12 -9 2 19 1.53
2 10 2 4.79 0.92
-10 -2 -2 5.06 0.88
10 2 -2 5.17 0.91
10 -12 2 4.38 0.75
-2 -10 2 5.47 0.92
-10 -2 -2 5.88 0.97
12 -2 2 7.18 0.86
10 -12 2 6.41 0.93
-12 10 -2 6.31 1.03
-2 -10 2 6.89 1.24
10 2 -2 5.47 0.78
2 10 2 7.54 0.88
12 -10 -2 6.94 0.86
2 -12 -2 7.27 0.95
-10 12 2 6.31 1.04
-2 12 -2 5.9 1.09
12 -2 -2 2.34 0.65
-10 -2 2 1.62 0.74
-2 -10 -2 4.15 0.85
12 -10 2 3.25 0.71
2 10 -2 3.47 0.82
-2 12 2 3.21 0.8
10 2 2 3.78 0.72
-12 10 2 2.86 0.79
-12 2 -2 3.42 0.82
10 -12 -2 2.74 0.62
2 10 -2 2.33 0.59
-10 12 -2 3.13 0.83
2 -12 2 3.37 0.87
-10 -2 2 2.21 0.85
-2 -10 -2 2.75 0.77
12 -2 -2 1.95 0.72
1 -12 -2 21.81 1.91
-1 12 -2 22.95 1.94
1 11 2 20.85 1.98
-12 1 2 24.76 2
-12 11 -2 21.52 1.88
11 -12 2 20.88 1.84
-11 -1 -2 22.68 1.93
1 -12 -2 21.8 1.88
12 -1 2 20.75 1.84
11 -12 2 23.64 1.87
-11 12 2 24.1 2.06
1 11 2 22.77 1.86
11 1 -2 20.74 1.8
-1 -11 2 23.37 2
-1 -11 2 20.17 1.91
12 -11 -2 21.93 1.78
-1 -11 -2 22.43 1.85
1 11 -2 21.48 1.88
1 -12 2 19.95 1.83
11 -12 -2 19.86 1.66
-11 12 -2 22.6 1.84
1 -12 2 22.37 1.87
12 -11 2 23.22 1.73
-11 -1 2 21.27 1.97
12 -11 2 16.98 1.62
-1 -11 -2 21.01 1.86
11 1 2 19.48 1.69
-1 12 2 18.57 1.82
-12 11 2 21.87 1.95
12 -1 -2 19.96 1.72
12 -1 -2 16.8 1.77
-12 1 -2 22.4 1.86
12 -12 2 3.32 0.74
0 -12 2 2.78 0.84
12 0 -2 2.72 0.66
12 -12 2 2.04 0.7
12 0 -2 1.39 0.69
12 0 2 3.16 0.69
-12 0 2 3 0.89
-12 12 2 3.79 0.98
-12 0 -2 4.01 0.94
0 12 2 3.25 0.89
0 -12 2 4.24 0.9
0 -12 -2 2.85 0.81
12 -12 -2 3.01 0.69
0 12 -2 4.12 0.9
0 -12 -2 3.65 0.83
-12 12 -2 2.84 0.81
-13 7 -2 0.28 0.7
7 6 -2 0.6 0.74
-13 6 2 0.22 0.81
13 -7 -2 1.05 0.72
-7 13 2 0.59 0.61
7 -13 2 0.47 0.59
13 -6 2 0.98 0.64
7 6 -2 0.26 0.51
7 -13 2 0.7 0.72
13 -7 -2 0.46 0.61
-13 7 -2 -0.46 0.69
-6 13 -2 -0.05 0.62
-6 -7 2 1.1 0.84
-7 -6 -2 0.58 0.65
-6 13 -2 0.55 0.69
6 -13 -2 0.28 0.64
6 7 2 0.47 0.55
13 -6 -2 1.5 0.65
6 7 -2 0.55 0.49
6 -13 2 1.81 0.63
13 -7 2 1.76 0.7
6 7 -2 0.95 0.75
-13 7 2 1.14 0.87
-13 6 -2 0.81 0.65
-13 7 2 1.38 0.66
6 -13 2 1.48 0.76
-13 6 -2 0.79 0.71
-7 -6 2 2.17 0.87
-7 13 -2 0.35 0.68
7 6 2 1 0.58
13 -6 -2 1.53 0.71
-6 -7 -2 1.56 0.76
-6 13 2 1.33 0.67
7 -13 -2 1.13 0.73
-7 13 -2 1.93 0.71
5 8 2 6.94 0.98
-8 13 2 4.97 0.92
5 -13 -2 6.87 1.11
8 5 -2 7.11 1.18
8 -13 2 6.89 1.06
-13 8 -2 6.97 1.01
-13 8 -2 5.8 1
13 -8 -2 7.58 1.23
8 -13 2 7.16 1.21
8 5 -2 6.4 0.98
-5 13 -2 7.53 1.16
-13 5 2 8.55 1.29
13 -8 -2 8.66 1.1
-5 -8 2 8.79 1.35
-8 -5 -2 8.52 1.25
13 -5 2 8.5 1.04
-8 13 -2 6.46 1.11
13 -5 -2 7.74 1.12
13 -5 -2 7.13 1.19
13 -8 2 7.19 1.01
5 8 -2 6.39 1.21
8 5 2 7.57 1.09
-13 8 2 7.26 1.23
-5 -8 -2 8.07 1.22
8 -13 -2 7.6 0.98
8 -13 -2 8.15 1.15
-8 -5 2 8.23 1.31
-13 8 2 8.63 1.2
-5 13 2 7.17 1.19
5 8 -2 6.21 0.92
-13 5 -2 7.86 1.29
5 -13 2 6.44 1.09
-8 13 -2 8 1.29
4 -13 -2 34.56 2.63
9 4 -2 33.41 2.58
-4 13 -2 35.9 2.67
-13 9 -2 34.22 2.71
13 -9 -2 37.04 2.62
13 -4 2 37.26 2.62
-13 4 2 37.08 2.8
9 -13 2 33.16 2.62
-9 -4 -2 32.7 2.69
9 4 -2 29 2.66
9 -13 2 38.18 2.73
4 9 2 37.05 2.65
13 -9 -2 41.02 2.81
-4 -9 2 40.12 2.83
-9 -4 -2 32.03 2.69
-9 13 2 29.85 2.72
-13 4 -2 44.7 3.19
-4 -9 -2 42.93 3.12
4 -13 2 41.77 3.06
9 -13 -2 40.81 3.03
-4 13 2 42.11 3.11
13 -4 -2 36.46 3.1
-13 9 2 38.72 3.15
13 -9 2 41.9 2.99
4 9 -2 45.42 3.15
-9 -4 2 34.9 3.07
13 -4 -2 41.56 3.02
-9 -4 2 39.07 3.11
4 9 -2 38.73 2.94
-9 13 -2 43.08 3.07
-9 13 -2 44.31 3.17
-13 9 2 43.7 3.11
9 4 2 41.91 2.99
9 -13 -2 42.47 3.01
10 -13 2 12.71 1.43
-13 10 -2 12.01 1.43
3 10 2 10.83 1.34
10 -13 2 11.13 1.29
10 3 -2 10.79 1.22
13 -10 -2 13.07 1.32
-10 -3 -2 11.31 1.33
-3 -10 2 11.15 1.3
-13 3 2 11.85 1.45
-10 13 2 11.94 1.53
-3 13 -2 13.17 1.43
-3 -10 2 14.05 1.54
10 3 -2 11.41 1.35
-10 -3 -2 10.21 1.33
13 -10 -2 14.89 1.56
13 -3 2 12.56 1.33
3 10 2 11.14 1.26
3 -13 -2 11.77 1.33
-10 -3 2 11.93 1.59
-10 -3 2 16 1.63
10 3 2 15.4 1.42
-10 13 -2 19.04 1.74
10 -13 -2 16.02 1.48
-3 -10 -2 16.65 1.57
3 10 -2 16.2 1.64
13 -3 -2 14.74 1.49
13 -3 -2 13.48 1.56
-3 13 2 14.23 1.58
13 -10 2 17.19 1.52
-13 10 2 15.78 1.64
-3 -10 -2 16.76 1.63
3 -13 2 17.51 1.62
-13 3 -2 17.79 1.62
3 10 -2 14.3 1.38
13 -2 2 1.29 0.67
-13 11 -2 1.37 0.77
-11 -2 -2 0.52 0.64
2 11 2 1.5 0.84
11 2 -2 1.26 0.69
-2 13 -2 0.82 0.66
-2 -11 2 1.45 0.89
2 -13 -2 0.49 0.51
-2 -11 2 0.8 0.77
-13 2 2 2.21 0.88
2 -13 -2 0.93 0.69
-11 13 2 1.56 0.88
2 11 2 1.28 0.66
13 -11 -2 1.04 0.62
11 -13 2 0.88 0.58
-11 -2 -2 0.76 0.71
11 -13 2 0.91 0.73
11 2 -2 1.39 0.64
-11 -2 2 0.24 0.72
11 2 2 0.45 0.61
13 -2 -2 0.96 0.61
-2 -11 -2 0.97 0.71
-11 13 -2 0.61 0.73
2 -13 2 1 0.72
13 -11 2 0.26 0.57
2 11 -2 0.28 0.72
-2 -11 -2 1.36 0.8
11 -13 -2 0.4 0.56
-13 2 -2 1.08 0.79
13 -2 -2 0.65 0.71
-11 -2 2 1.14 0.91
2 -13 2 0.55 0.56
-2 13 2 1.02 0.76
-13 11 2 0.81 0.79
-12 13 2 7.47 1.2
-1 -12 2 6.73 1.05
12 1 -2 4.32 0.92
1 -13 -2 5.97 1.06
-13 1 2 6.75 1.12
13 -1 2 8.03 0.99
1 12 2 4.54 1.03
-13 12 -2 7.72 1.09
12 -13 2 6.36 0.97
13 -12 -2 6.73 0.9
12 -13 2 5.29 0.88
-1 13 -2 9.5 1.18
-1 -12 2 8.37 1.35
1 -13 -2 4.41 0.89
-12 -1 -2 7.74 1.14
-13 12 2 2.29 0.87
1 -13 2 2.54 0.82
13 -12 2 1.65 0.66
-12 -1 2 2.88 0.99
13 -1 -2 1.26 0.62
-1 -12 -2 2.07 0.77
1 12 -2 1.98 0.74
-13 1 -2 2.59 0.83
13 -1 -2 1.84 0.79
-12 13 -2 2.75 0.83
1 -13 2 2.44 0.83
12 -13 -2 2.12 0.66
12 1 2 2.12 0.69
-1 -12 -2 1.7 0.77
-1 13 2 1.75 0.8
0 13 2 0.08 0.83
-13 13 2 0.78 0.87
13 -13 2 0.76 0.69
-13 0 -2 0.85 0.84
13 0 -2 0.3 0.61
-13 13 -2 0.5 0.83
0 -13 2 1.04 0.77
-13 0 2 0.81 0.82
13 -13 2 0.03 0.52
0 -13 -2 0.81 0.76
0 -13 -2 0.66 0.71
13 0 -2 0.25 0.73
13 0 2 0.41 0.68
13 -13 -2 0.55 0.65
0 13 -2 0.11 0.75
0 -13 2 0.44 0.81
7 7 -2 0.46 0.55
-14 7 -2 0.46 0.71
-7 -7 -2 0.53 0.69
-7 14 2 -0.14 0.67
14 -7 2 0.3 0.62
7 -14 2 0.63 0.74
7 7 2 0.68 0.59
14 -7 -2 0.51 0.69
-7 -7 2 0.56 0.81
14 -7 -2 0.35 0.74
-7 14 -2 0.69 0.75
-7 14 -2 0.27 0.68
-14 7 2 0.55 0.93
-14 7 -2 0.43 0.72
7 -14 2 0.05 0.56
7 -14 -2 0.7 0.65
7 7 -2 0.15 0.7
14 -6 2 11.13 1.36
-6 -8 2 13.84 1.56
6 -14 -2 10.4 1.24
8 -14 2 10.68 1.31
-14 8 -2 7.76 1.36
-6 14 -2 11.78 1.37
14 -8 -2 11.23 1.23
-14 8 -2 11.11 1.38
8 6 -2 9.93 1.4
8 6 -2 10.73 1.21
8 -14 2 11.74 1.34
14 -8 -2 10.12 1.4
-8 -6 -2 11.66 1.43
6 8 2 11.84 1.32
-14 6 2 12.6 1.54
6 8 -2 9.29 1.14
-14 8 2 11.14 1.37
-6 14 2 11.13 1.38
6 -14 2 9.41 1.25
8 6 2 10.64 1.29
6 8 -2 10.1 1.4
-8 14 -2 11.01 1.48
-14 6 -2 8.95 1.18
-6 -8 -2 11.5 1.37
6 -14 2 10.47 1.38
8 -14 -2 10.98 1.37
14 -8 2 11.24 1.35
-14 6 -2 11.92 1.46
14 -6 -2 11.44 1.33
-8 14 -2 9.67 1.32
-14 8 2 10.5 1.6
-8 -6 2 12.17 1.52
14 -6 -2 9.91 1.4
8 -14 -2 10.83 1.18
-14 5 2 7.06 1.16
5 -14 -2 6.36 1.14
9 5 -2 7.76 1.13
9 5 -2 6.36 1.05
-5 14 -2 6.79 0.98
14 -5 2 7.67 0.96
-9 14 2 5.51 1.04
5 9 2 8.62 1.03
-14 9 -2 5.23 0.96
-9 -5 -2 7.13 1.05
9 -14 2 4.56 0.86
9 -14 2 8.97 1.19
14 -9 -2 7.01 1.09
14 -9 -2 6.87 0.93
-5 -9 2 8.82 1.39
14 -9 2 7.71 0.93
9 5 2 6.29 1
-9 14 -2 6.04 1.09
-5 -9 -2 7.17 1.21
-14 9 2 8.18 1.07
5 9 -2 3.98 0.76
14 -5 -2 3.78 0.94
5 9 -2 7.12 1.24
9 -14 -2 5.13 0.96
-14 9 2 4.48 1.07
5 -14 2 7.77 1.02
-5 -9 -2 3.98 0.87
-9 14 -2 6.62 1.08
-5 14 2 5.88 0.96
9 -14 -2 7.16 1.08
14 -5 -2 5.09 0.87
-9 -5 2 7.57 1.12
-14 5 -2 6.65 1.15
-10 -4 -2 5.65 0.97
-14 10 -2 8.15 1.1
10 -14 2 7.67 1.29
-4 -10 2 9.12 1.43
10 4 -2 5.09 0.94
14 -4 2 6.36 1.05
-10 14 2 6.15 1.09
14 -10 -2 8.55 1.38
-14 4 2 8.36 1.45
14 -10 -2 6.9 1.11
10 -14 2 5.51 0.88
-4 14 -2 8.15 1.05
-10 -4 -2 4.12 0.92
10 4 -2 4.51 0.82
4 10 -2 9.61 1.24
-4 -10 -2 6.59 1.19
-4 -10 -2 7.68 1.28
-4 14 2 6.95 1.22
4 10 -2 6.5 1
-10 -4 2 6.51 1.07
-10 -4 2 6.57 1.14
10 -14 -2 6.9 1.09
14 -4 -2 7.53 1
10 -14 -2 5.45 1.01
-14 4 -2 7.67 1.21
-14 10 2 7.1 1.15
4 -14 2 6.94 1.23
10 4 2 6.26 1.04
14 -10 2 7.98 1.07
14 -4 -2 7.48 1.13
-10 14 -2 8.53 1.2
3 11 2 20.12 2.14
-11 14 2 25.8 2.29
11 3 -2 24.92 2.04
14 -11 -2 27.75 2.09
-3 -11 2 28.15 2.36
-14 3 2 27.25 2.34
11 -14 2 24.18 2.1
11 -14 2 26.18 2.18
3 -14 -2 25.38 2.06
-14 11 -2 26.46 2.16
11 3 -2 21.46 2.14
-11 -3 -2 24.71 2.19
-3 14 -2 26.91 2.13
-3 -11 2 21.42 2.1
14 -3 2 27.54 2.12
-11 -3 -2 22.11 2.1
3 11 2 28.22 2.13
14 -11 -2 30.03 2.33
11 3 2 22.38 1.86
14 -3 -2 18.23 1.95
-11 14 -2 25.61 2.11
14 -3 -2 19.93 1.84
-3 -11 -2 20.97 1.95
-3 -11 -2 20.17 1.91
-3 14 2 20.33 1.97
14 -11 2 22.89 1.85
3 -14 2 22.01 1.95
11 -14 -2 21.62 1.83
-11 -3 2 20.98 2.04
3 11 -2 22.88 2.01
-14 3 -2 22.09 2.03
-14 11 2 20.95 1.89
-11 -3 2 16.74 1.89
12 2 -2 4.48 0.98
-2 -12 2 7.22 1.17
-12 -2 -2 5.15 0.98
2 12 2 4.76 1.05
2 12 2 5.48 0.9
12 2 -2 3.25 0.76
12 -14 2 5.31 0.97
-14 2 2 6.18 1.09
-12 -2 -2 3.75 0.79
2 -14 -2 5.98 0.92
14 -12 -2 5.26 0.84
-14 12 -2 7.75 1.15
12 -14 2 3.73 0.83
14 -2 2 7.95 1
-2 -12 2 4.18 0.94
-12 14 2 6.68 1.16
12 -14 -2 6.24 0.91
14 -12 2 5.39 0.86
-2 -12 -2 4.97 0.95
-14 2 -2 5.78 1.01
-2 -12 -2 6.47 1.08
2 12 -2 5.59 1.03
14 -2 -2 4.21 0.84
-12 -2 2 5.58 1.16
-14 12 2 6.89 1.11
-2 14 2 3.76 1
12 2 2 5.72 0.91
14 -2 -2 3.82 0.95
2 -14 2 7.25 1.09
-12 14 -2 5.62 1.03
-14 1 2 1.23 0.86
-14 13 -2 0.1 0.42
-13 -1 -2 1.31 0.88
1 -14 -2 0.51 0.7
-1 -13 2 0.96 0.8
13 1 -2 0.19 0.73
1 13 2 0.86 0.88
-13 14 2 0.11 0.9
14 -13 -2 1.07 0.69
13 1 -2 -0.06 0.64
14 -1 2 1.01 0.75
1 -14 -2 1.69 0.85
-1 -13 2 1.53 0.9
14 -1 2 -0.07 0.38
-14 13 -2 1.71 0.88
-1 14 -2 1.33 0.83
13 -14 2 0.71 0.69
13 -14 2 1.31 0.72
-14 13 2 0.5 0.85
-13 14 -2 1.47 0.93
14 -13 2 1.12 0.75
-13 -1 2 1.15 0.95
-1 -13 -2 0.83 0.75
1 -14 2 0.75 0.74
14 -1 -2 0.57 0.76
-1 14 2 0.98 0.9
13 -14 -2 1.15 0.71
14 -1 -2 0.75 0.69
-1 -13 -2 1.31 0.83
1 -14 2 1.08 0.81
-14 1 -2 2.07 0.92
1 13 -2 1.59 0.91
13 1 2 0.74 0.73
-14 0 2 4.49 1.13
0 -14 -2 2.48 0.86
-14 0 -2 3.32 0.93
0 -14 2 4 0.95
-14 14 -2 2.6 0.68
14 0 -2 2.02 0.86
0 14 2 1.9 0.48
14 0 2 4.01 0.89
-14 14 2 4.5 1.11
0 -14 2 2.6 0.88
0 14 -2 3.85 0.96
14 0 2 1.9 0.5
-14 14 -2 3.88 1.04
14 -14 -2 3.91 0.85
14 0 -2 2.61 0.76
0 -14 -2 4.48 0.99
14 -14 2 4.37 0.9
0 14 2 3.49 1.05
7 8 2 23.11 1.93
7 -15 -2 22.38 1.96
15 -8 -2 19.83 1.98
8 7 -2 18.02 1.94
-7 -8 2 24.52 2.13
8 7 -2 17.74 1.76
-15 8 -2 22.3 1.98
-7 15 -2 22.8 1.98
15 -7 2 22.4 1.88
8 -15 2 21.85 1.99
-15 7 2 23.69 2.23
-15 8 -2 18.71 1.97
15 -8 -2 23.29 1.93
8 -15 2 19.88 1.88
-8 -7 -2 22.68 1.98
8 7 2 25.59 2.01
-8 15 -2 24.64 2.17
-15 7 -2 23.34 2.03
7 8 -2 20.69 2.09
-8 -7 2 27.18 2.24
-7 -8 -2 20.44 1.95
8 -15 -2 24.02 2.09
15 -7 -2 26.44 2.11
-8 15 -2 25.93 2.13
7 -15 2 22.83 2.03
8 -15 -2 25.87 2
15 -8 2 26.1 2.04
-15 8 2 24.31 2.32
7 -15 2 24.69 2.12
-15 7 -2 20.29 2.05
15 -7 -2 23.23 2.18
-7 -8 -2 26.37 2.11
6 9 2 6.72 0.94
-6 -9 2 10.06 1.5
-6 15 -2 7.51 1.18
9 -15 2 8.25 1.38
9 6 -2 6.22 1.01
15 -9 -2 8.16 1.23
15 -6 2 8.08 1.31
-15 9 -2 7.78 1.14
6 -15 -2 6.64 1.1
-9 -6 -2 7.62 1.31
-15 9 -2 4.82 1.02
-15 6 2 8.87 1.63
9 -15 2 6.94 0.98
15 -9 -2 7.32 1.34
-6 15 2 7.26 1.34
6 9 -2 7.94 1.32
9 -15 -2 8.34 1.33
15 -9 2 9.3 1.33
-15 6 -2 8.3 1.41
-6 -9 -2 7.44 1.29
-9 15 -2 9.72 1.5
-15 9 2 7.79 1.34
6 -15 2 7.89 1.19
6 -15 2 8.58 1.23
-15 9 2 8.7 1.35
-9 -6 2 10.06 1.47
-6 -9 -2 9.72 1.31
9 6 2 8.78 1.18
15 -6 -2 9 1.34
-9 15 -2 8.02 1.26
9 -15 -2 8.64 1.23
15 -6 -2 8.1 1.39
6 9 -2 7.6 1.02
5 -15 -2 31.66 2.49
10 -15 2 28.47 2.41
-15 5 2 36.42 2.78
15 -10 -2 30.94 2.41
10 -15 2 31.88 2.57
10 5 -2 27.89 2.37
10 5 -2 27.12 2.54
5 10 2 33.88 2.5
15 -5 2 33.6 2.47
-5 -10 2 36.58 2.74
-15 10 -2 32.66 2.57
-5 15 -2 33.21 2.57
15 -10 -2 30.86 2.62
-10 -5 -2 27.83 2.49
-10 15 2 27.36 2.54
15 -10 2 43.76 2.88
-5 -10 -2 38 2.87
10 5 2 37.74 2.81
-15 10 2 33.36 2.95
-15 5 -2 36.96 2.92
-10 -5 2 31.82 2.9
5 10 -2 39.83 2.97
-5 15 2 39.47 2.93
15 -5 -2 32.27 2.92
-5 -10 -2 35.51 2.85
5 -15 2 37.79 2.87
10 -15 -2 37.75 2.76
-10 15 -2 37.41 2.98
-15 10 2 37.34 2.9
10 -15 -2 32.13 2.81
15 -5 -2 40.15 2.86
-11 -4 -2 13.24 1.67
15 -4 2 16.99 1.64
-11 15 2 14.47 1.74
-11 -4 -2 12.98 1.56
-15 4 2 17.38 1.88
-15 11 -2 15.1 1.69
11 -15 2 14.91 1.67
11 4 -2 11.91 1.67
-4 -11 2 19.27 1.83
11 -15 2 15.31 1.61
4 -15 -2 15.91 1.58
11 4 -2 13.14 1.47
-4 15 -2 15.45 1.63
15 -11 -2 15.92 1.57
4 11 2 16.53 1.61
15 -11 -2 14.6 1.73
-15 11 2 24.81 2.2
-4 15 2 25.99 2.22
15 -4 -2 19.14 2.16
-11 -4 2 21.08 2.17
-4 -11 -2 24.01 2.13
15 -11 2 27.15 2.12
11 4 2 24.86 2.12
4 11 -2 26.12 2.25
15 -4 -2 24.12 2.09
-11 -4 2 23.59 2.2
-11 15 -2 26.22 2.3
-15 4 -2 26.62 2.2
11 -15 -2 24.77 2.08
4 -15 2 25.77 2.17
-4 -11 -2 25.07 2.14
12 -15 2 13.44 1.55
-12 -3 -2 11.42 1.55
12 3 -2 12.22 1.49
15 -3 2 15.82 1.6
3 12 2 15.79 1.61
12 3 -2 12.16 1.67
-15 12 -2 15.27 1.6
3 -15 -2 14.41 1.56
-12 -3 -2 13.42 1.69
-3 15 -2 16.62 1.68
15 -12 -2 15.96 1.55
15 -12 -2 16.81 1.83
-3 -12 2 19 1.87
12 -15 2 14.95 1.63
-15 3 2 17.42 1.87
-12 15 2 14.29 1.78
-15 3 -2 18.49 1.86
15 -3 -2 13.84 1.72
-12 -3 2 13.06 1.63
15 -12 2 17.37 1.69
3 -15 2 18.11 1.77
12 3 2 17.35 1.7
-12 15 -2 19.56 1.97
-3 15 2 15.77 1.81
12 -15 -2 16.1 1.62
-15 12 2 17.31 1.78
-3 -12 -2 15.86 1.72
3 12 -2 17.97 1.81
-3 -12 -2 16.53 1.73
-12 -3 2 16.04 1.85
15 -3 -2 16.67 1.67
2 -15 -2 7.86 1.26
13 2 -2 6.04 1.12
-13 -2 -2 7.27 1.21
-15 2 2 8.79 1.57
15 -2 2 8.39 1.28
-15 13 -2 7.47 1.13
-2 -13 2 8.94 1.56
-2 -13 2 8.64 1.33
13 -15 2 8.37 1.29
-15 13 -2 8.7 1.31
-13 15 2 6.46 1.21
15 -2 2 6.55 0.93
13 -15 2 5.52 0.99
15 -13 -2 7.97 1.21
2 13 2 5.15 0.81
15 -13 -2 8.79 1.53
13 2 -2 5.69 0.91
-15 2 2 4.43 0.88
13 2 2 10.01 1.11
-15 13 2 11.05 1.57
13 2 2 12.24 1.44
-13 15 -2 12.29 1.7
-13 -2 2 11.87 1.67
-2 15 2 9.64 1.09
13 -15 -2 10.66 1.27
15 -2 -2 8.48 1.45
15 -2 -2 9.94 1.4
-2 15 2 11.22 1.62
2 -15 2 13.09 1.51
-15 13 2 9.8 1.36
-2 -13 -2 10.95 1.51
-15 2 -2 10.24 1.31
-15 2 -2 12.88 1.65
2 13 -2 12.47 1.61
-2 -13 -2 12.62 1.54
15 -13 2 11.03 1.34
14 -15 2 9.67 1.44
15 -14 -2 9.33 1.38
15 -1 2 10.59 1.19
-14 -1 -2 10.69 1.56
-14 15 2 11.93 1.64
1 14 2 9.9 1.14
-1 15 -2 10.42 1.55
-15 1 2 11.56 1.71
-15 14 -2 11.8 1.57
-14 15 2 7.54 1.19
-15 1 2 9.71 1.41
-1 -14 2 12.84 1.62
15 -1 2 11.32 1.48
14 1 -2 8.52 1.4
-1 -14 2 10.79 1.47
1 -15 -2 11.58 1.48
14 1 -2 7.64 1.28
1 14 2 10.9 1.61
-15 14 -2 10.4 1.4
1 -15 2 9.6 1.41
15 -14 2 7.32 1.01
14 -15 -2 9.71 1.33
14 1 2 9.12 1.18
-15 14 2 11.51 1.45
-1 -14 -2 10.22 1.53
15 -1 -2 8 1.45
-14 -1 2 10.66 1.65
15 -14 2 9.33 1.39
1 14 -2 9.59 1.52
-1 15 2 8.8 1.62
-14 15 -2 9.81 1.37
-15 1 -2 10.33 1.35
-15 1 -2 9.68 1.45
-1 -14 -2 10.52 1.52
-15 14 2 7.56 1.11
14 1 2 9.6 1.39
-14 15 -2 11.26 1.59
-1 15 2 8.75 1.1
-15 0 2 6.91 1.28
0 -15 2 5.83 1.07
-15 0 2 5.58 0.91
15 0 2 5.28 1.01
0 15 2 5.11 1.19
-15 0 -2 6.02 0.95
0 15 2 6.07 0.77
0 -15 -2 5.66 1.08
-15 15 2 7.62 1.08
15 -15 -2 7.5 1.02
15 -15 2 6.33 0.81
-15 15 -2 6.4 1.14
0 15 -2 8.05 1.27
0 -15 -2 3.49 0.91
-15 15 -2 7.35 1.02
-15 0 -2 6.31 1.19
15 0 2 5.88 0.81
0 -15 2 4.21 0.93
-15 15 2 4.96 1.14
15 -15 2 4.14 0.93
8 -16 -2 3.43 0.95
8 8 -2 2.2 0.86
-16 8 -2 2.6 0.86
-8 16 2 1.77 0.48
-8 16 -2 3.1 0.91
16 -8 2 1.86 0.5
8 -16 2 3.82 0.99
8 8 2 3.08 0.81
-8 -8 -2 4.38 0.95
-16 8 -2 1.85 0.83
16 -8 -2 1.79 0.93
8 -16 2 2.65 0.8
16 -8 -2 2.16 0.82
16 -8 2 3.61 0.92
8 -16 -2 4.47 0.9
-16 8 2 2.94 1.11
9 7 -2 18.89 1.99
16 -7 2 24.65 2.06
-16 9 -2 17.66 2.02
9 -16 2 20.35 1.93
-16 9 -2 21.37 2.06
7 9 2 22.41 1.91
-7 16 -2 23.34 2.04
9 -16 2 23.37 2.1
16 -9 -2 21.4 2.11
-16 7 2 25.25 2.31
16 -9 -2 23.24 2.02
7 -16 -2 23.69 2.04
-9 -7 -2 23.17 2.03
16 -7 2 19 1.72
7 -16 2 28.93 2.45
-9 16 -2 32.36 2.56
16 -7 -2 27.94 2.64
7 9 -2 28.3 2.57
9 7 2 30.61 2.5
16 -7 -2 34.18 2.57
-7 -9 -2 33.69 2.55
-16 7 -2 25.9 2.55
-16 9 2 30.33 2.75
16 -9 2 35.84 2.59
9 -16 -2 32.71 2.57
7 -16 2 33.47 2.57
-9 16 -2 30.22 2.58
-9 -7 2 35.46 2.72
9 -16 -2 35.57 2.52
-7 16 2 24.09 2.24
16 -10 -2 9.28 1.5
-16 6 2 11.98 1.61
-6 -10 2 7.63 1.21
16 -6 2 8.54 1.1
6 10 2 9.78 1.42
16 -10 -2 9.74 1.39
6 -16 -2 9.72 1.39
-6 16 -2 10.13 1.45
-16 10 -2 9.93 1.48
10 -16 2 9.16 1.38
10 -16 2 11.14 1.53
-6 -10 2 13.64 1.7
16 -6 2 10.65 1.48
10 6 -2 8.42 1.41
-10 -6 -2 8.76 1.35
6 -16 2 8.02 1.34
-10 16 -2 8.29 1.3
16 -6 -2 7.69 1.09
16 -10 2 7.01 0.94
6 -16 2 8.02 1.22
-10 -6 2 8.19 1.47
-6 16 2 8.36 1.42
-16 10 2 7.06 1.3
10 -16 -2 7.68 1.25
10 -16 -2 7.54 1.3
-16 6 -2 9.9 1.51
16 -10 2 8.06 1.09
16 -6 -2 6.42 1.18
-6 16 2 6.69 0.99
-6 -10 -2 8 1.29
-6 -10 -2 6.24 1.24
6 10 -2 8.45 1.25
10 6 2 8.07 1.18
-6 -10 -2 6.74 1.09
11 -16 2 5.94 0.98
5 11 2 5.36 0.75
11 5 -2 5.32 1.08
-16 5 2 4.22 0.86
-5 -11 2 5.51 1.05
16 -11 -2 5.32 1.09
11 -16 2 7.44 1.18
-5 -11 2 9.29 1.57
16 -11 -2 7.31 1.02
16 -5 2 6.56 0.77
-16 11 -2 8.01 1.22
-11 16 2 3.11 0.93
5 -16 -2 7.12 1.25
-5 16 -2 8.33 1.18
-11 -5 -2 4.62 0.98
5 11 2 6.1 0.94
-11 16 -2 9.57 1.6
16 -5 -2 9.75 1.4
-11 -5 2 8.66 1.4
16 -5 -2 8.42 1.53
16 -11 2 10.36 1.34
-16 5 -2 10.59 1.56
5 -16 2 10.88 1.44
-5 -11 -2 10.45 1.39
-5 -11 -2 8.66 1.4
-5 16 2 10.59 1.53
-16 11 2 8.2 1.19
-5 -11 -2 9.36 1.37
5 -16 2 7.59 1.07
-16 5 -2 7.26 1.16
-5 16 2 8.19 1.14
5 11 -2 9.28 1.47
16 -11 2 8.93 1.06
11 5 2 10.39 1.4
11 -16 -2 10.43 1.26
11 5 2 8.49 1.01
-16 11 2 10.42 1.49
-4 16 -2 24.66 2.08
-12 -4 -2 17.96 1.95
-16 4 2 25.7 2.28
-16 4 2 19.87 1.97
16 -12 -2 20.89 2.12
4 12 2 19.45 1.69
4 12 2 23.4 1.99
12 -16 2 21.12 1.94
-4 -12 2 18.53 2.12
12 4 -2 18.27 2.03
16 -4 2 24.19 2.02
4 -16 -2 21.66 2
-16 12 -2 22.14 2.1
-16 12 -2 19.39 1.8
-12 16 2 22.59 2.17
16 -12 -2 24.04 1.95
12 -16 2 23 2.04
-4 -12 2 26.15 2.24
16 -12 -2 17.01 1.65
16 -4 2 22.22 1.77
16 -12 2 27.13 2.16
-12 16 -2 27.4 2.44
4 12 -2 25.93 2.37
16 -4 -2 26.43 2.21
-4 16 2 25.87 2.05
4 -16 2 29.54 2.28
-4 -12 -2 22.55 2.17
12 4 2 27.27 2.23
-16 4 -2 23.38 2.13
-4 16 2 26.18 2.38
4 -16 2 23.17 1.99
-16 4 -2 28.8 2.43
16 -4 -2 19.93 2.24
-4 -12 -2 25.29 2.25
16 -12 2 27.97 2.01
-16 12 2 28.22 2.35
12 -16 -2 28.84 2.21
12 4 2 26.35 2.01
-16 12 2 24.59 2.14
-12 -4 2 20.66 2.16
-4 -12 -2 26.04 2.26
-13 16 2 6.71 1.24
16 -13 -2 8.87 1.31
3 13 2 8.9 1.1
-16 13 -2 9.18 1.54
-13 -3 -2 8.32 1.31
-16 13 -2 8.07 1.31
-3 -13 2 7.23 1.18
-16 3 2 11.29 1.67
13 -16 2 8.71 1.4
13 -16 2 9.02 1.42
16 -3 2 9.95 1.49
-3 -13 2 10.25 1.64
16 -13 -2 7.78 1.07
16 -3 2 8.19 1.14
-16 3 2 9.93 1.39
-3 16 -2 10.27 1.49
16 -13 -2 8.41 1.56
3 -16 -2 8.59 1.43
-13 16 -2 8.9 1.35
-16 3 -2 7.53 1.27
-3 16 2 6.75 1.21
13 -16 -2 7.44 1.17
-3 16 2 7.38 0.87
3 13 -2 6.9 1.17
-3 -13 -2 7.18 1.15
-13 -3 2 7.26 1.23
-3 -13 -2 8.53 1.23
3 -16 2 7.17 1.09
-13 16 -2 4.62 0.87
3 -16 2 9.75 1.42
16 -13 2 7.08 1.07
-16 13 2 7.59 1.21
16 -3 -2 5.33 0.98
13 3 2 7.6 1.11
-16 13 2 8.24 1.06
16 -3 -2 4.88 1.08
13 3 2 8.08 1.1
16 -13 2 8.27 1.13
-16 3 -2 7.97 1.29
16 -14 -2 8.67 1.37
-14 16 2 4.89 0.89
-14 -2 -2 7.78 1.29
16 -14 -2 7.72 1.25
16 -2 2 5.56 1.01
-16 2 2 9.29 1.33
-16 14 -2 5.96 0.96
2 -16 -2 9.38 1.42
-2 -14 2 8.95 1.5
16 -14 -2 5.52 0.8
14 -16 2 8.55 1.15
2 14 2 7.59 1.05
-2 16 -2 9.2 1.48
-16 14 -2 9.61 1.31
-14 16 2 6.49 1.23
-2 -14 2 4.48 0.94
16 -2 2 8.16 1.11
-16 2 -2 11.69 1.48
-2 -14 -2 11.25 1.56
2 -16 2 10.69 1.24
16 -14 2 10.59 1.28
-14 16 -2 12.21 1.74
-2 16 2 10.34 1.71
-16 2 -2 12.3 1.68
-14 -2 2 11.12 1.68
2 14 -2 12.46 1.68
-14 16 -2 11.11 1.54
16 -2 -2 9.34 1.39
-16 14 2 11.01 1.67
16 -14 2 11.47 1.5
2 -16 2 12.19 1.56
14 -16 -2 11.76 1.47
-2 16 2 10.52 1.26
-2 -14 -2 9.74 1.5
-16 14 2 10.77 1.49
14 2 2 10.93 1.5
14 2 2 10.55 1.29
16 -15 -2 4.06 1.2
-16 15 -2 3.03 1.05
15 -16 2 2.33 0.66
15 -16 2 3.52 0.88
-15 16 2 2.66 1.08
-15 -1 -2 3.28 0.83
1 -16 -2 4.24 1.03
-15 16 2 3.32 0.92
-15 -1 -2 2.57 0.98
-16 1 2 4.21 0.87
-1 16 -2 2.81 0.93
-16 15 -2 4.24 0.87
-1 -15 2 2.44 0.84
16 -15 -2 2.01 0.62
15 1 -2 0.06 1.07
-16 1 2 2.74 1.07
16 -1 2 3.56 0.73
16 -1 2 2.65 0.9
16 -15 -2 3.25 0.88
1 15 2 2.94 0.66
-1 -15 2 3.22 0.93
-16 15 2 2.16 1
15 -16 -2 1.62 0.81
1 -16 2 1.56 0.59
-16 15 2 2.61 0.89
-15 16 -2 2.9 0.98
1 -16 2 1.56 0.85
-1 -15 -2 2.11 0.85
-15 -1 2 3.31 1.1
16 -15 2 2.61 0.93
-16 1 -2 2.69 0.81
-1 16 2 2.7 0.67
-16 1 -2 2.06 1.03
15 1 2 1.92 0.83
15 1 2 1.66 0.64
-15 -1 2 2.06 0.77
-15 16 -2 3.18 0.89
16 -15 2 1.31 0.65
-1 16 2 1.6 0.95
1 15 -2 2.33 1.04
-1 -15 -2 3.11 1
0 16 2 0.12 0.58
-16 0 2 -0.42 1
0 16 -2 0.53 0.87
-16 16 -2 0.76 1.01
0 -16 -2 0.97 0.91
16 0 2 0.12 0.84
16 -16 2 -0.27 0.62
-16 16 -2 0.87 0.79
16 -16 -2 0.35 0.7
-16 0 2 0.8 0.77
16 -16 2 0.01 0.78
0 -16 2 -0.19 0.54
16 0 2 0.71 0.64
-16 16 2 -0.2 1.02
0 -16 2 0.98 0.79
-16 0 -2 0.69 0.73
-16 0 -2 0.96 1.03
-16 16 2 0.01 0.86
9 -17 2 27.56 2.14
8 9 2 29.7 2.38
17 -8 2 27.6 2.21
8 -17 -2 29.03 2.39
17 -8 2 32.77 2.49
9 -17 2 29.32 2.45
-17 9 -2 23.07 2.38
-17 9 -2 27.95 2.38
-9 -8 -2 29.47 2.44
8 -17 -2 33.6 2.41
17 -9 -2 27.06 2.51
-8 -9 2 28.72 2.56
8 9 2 25.53 2.1
-17 8 2 28.53 2.63
17 -9 -2 27.27 2.38
-9 -8 -2 27.52 2.4
-8 17 -2 28.78 2.45
9 8 -2 23.63 2.38
9 -17 2 23.87 2.31
8 -17 2 20.49 1.72
8 -17 2 21.4 2.03
9 -17 -2 20.89 2.05
8 -17 2 18.74 1.9
-17 8 -2 16.97 2
17 -9 2 21.39 1.76
-17 9 2 20.75 2.23
8 9 -2 17.94 2
9 -17 -2 23.4 1.91
-8 -9 -2 21.84 2.03
-8 17 2 21.09 1.74
-8 -9 -2 21.28 2.05
9 8 2 19.63 1.7
17 -8 -2 17.85 2.07
-9 -8 2 25.49 2.21
9 8 2 20.98 1.96
-9 -8 2 19.26 2.17
17 -8 -2 21.7 2.01
-9 17 -2 20.94 2.04
17 -9 2 22.23 1.97
17 -10 -2 3.65 0.92
-7 17 -2 5.68 1.06
-10 -7 -2 5.35 1.07
-17 7 2 4.07 0.9
17 -7 2 6.43 1.08
17 -10 -2 4.62 1.12
-7 -10 2 4.65 1.01
7 10 2 5.25 1.01
10 7 -2 2.74 0.94
-17 10 -2 5.3 1.09
-17 7 2 7.05 1.39
17 -10 -2 4.71 0.68
7 -17 -2 6.47 1.1
10 -17 2 3.8 1.01
-7 -10 2 8.04 1.31
10 -17 2 4 0.7
17 -7 2 5.41 0.77
-10 -7 -2 2.67 0.84
10 -17 2 4.97 0.95
7 10 2 3.73 0.66
-10 -7 2 11.36 1.58
7 10 -2 8.1 1.46
7 -17 2 8.14 1.33
-17 10 2 8.83 1.62
7 -17 2 11.77 1.49
-7 -10 -2 11.34 1.48
10 -17 -2 9.72 1.41
7 -17 2 9.24 1.12
-7 17 2 9.07 1.18
-17 7 -2 7.91 1.46
17 -10 2 9.86 1.25
17 -10 2 10.02 1.55
-17 10 2 7.91 1.17
10 -17 -2 11.1 1.4
17 -7 -2 9.89 1.49
10 7 2 8.95 1.11
10 7 2 9.02 1.4
17 -7 -2 8.17 1.52
-7 -10 -2 11.63 1.55
-17 7 -2 6.3 0.95
17 -11 -2 32.87 2.56
-17 6 2 35.97 3.02
6 11 2 33.3 2.75
-17 11 -2 34 2.87
6 11 2 31.32 2.52
-17 6 2 35.05 2.73
11 -17 2 33.27 2.77
6 -17 -2 32.22 2.76
-6 -11 2 39.27 3
-11 -6 -2 29.78 2.75
17 -6 2 37.83 2.84
17 -6 2 34.51 2.61
-6 -11 2 34.34 2.98
17 -11 -2 36.09 2.79
11 -17 2 37.96 2.87
-6 17 -2 37.17 2.86
6 -17 2 35.29 2.65
17 -6 -2 29.13 2.96
-6 -11 -2 40.83 2.95
-11 17 -2 36.58 3.03
6 -17 2 36.98 2.89
-6 17 2 43.5 3.07
-17 6 -2 40.71 3.06
6 -17 2 29.19 2.72
-17 11 2 35.86 2.8
11 6 2 35.74 2.67
-17 6 -2 33.28 2.78
17 -11 2 41.09 2.96
-11 -6 2 31.61 2.91
-6 17 2 37.46 2.71
11 6 2 37.77 2.88
11 -17 -2 39.82 2.82
17 -11 2 38.92 2.72
-6 -11 -2 35.43 2.92
6 11 -2 34.08 2.93
17 -6 -2 37.27 2.9
5 -17 -2 13.99 1.6
12 -17 2 13.48 1.63
-17 12 -2 13.27 1.58
-5 -12 2 17.81 1.92
17 -12 -2 14.09 1.63
5 12 2 13.22 1.38
17 -12 -2 12.89 1.4
17 -5 2 13.46 1.45
17 -5 2 15.96 1.73
-5 -12 2 14.93 2.06
-12 -5 -2 12.16 1.67
12 -17 2 14.81 1.77
-17 5 2 13.25 1.61
5 12 2 13.61 1.58
-17 12 -2 14.77 1.82
-17 5 2 15.11 1.95
-5 17 -2 14.79 1.72
17 -12 -2 12.93 1.76
-12 17 -2 9.84 1.67
17 -5 -2 10.85 1.55
-17 12 2 10.83 1.44
-5 -12 -2 11.4 1.63
-5 17 2 9.92 1.31
5 -17 2 9.21 1.17
12 5 2 11.2 1.51
-5 -12 -2 11.82 1.54
-5 -12 -2 8.86 1.44
-17 5 -2 10.49 1.43
5 12 -2 9.58 1.54
5 -17 2 10.44 1.49
-12 -5 2 8.42 1.41
-5 17 2 10.45 1.66
-17 5 -2 11.6 1.68
12 -17 -2 9.43 1.41
17 -12 2 11.22 1.57
17 -12 2 10.86 1.31
12 5 2 10.52 1.2
13 -17 2 7.41 1.17
-17 13 -2 9.35 1.12
-13 17 2 4.85 1.11
-17 4 2 9.05 1.09
17 -13 -2 7.49 1.07
17 -13 -2 7.2 1.08
17 -4 2 8.82 0.92
17 -4 2 7.46 1.15
-4 17 -2 8.58 1.28
13 -17 2 5.57 1.05
-4 -13 2 8.8 1.69
17 -13 -2 6.93 1.29
-17 13 -2 7.06 1.18
4 13 2 6.22 0.83
-4 -13 2 10.68 1.66
4 -17 -2 5.99 1.07
-17 4 2 9.73 1.65
-13 17 -2 7.56 1.31
4 -17 2 8.57 1.1
13 4 2 8.07 1.19
4 13 -2 5.6 1.12
-17 13 2 7.38 1.04
-4 17 2 7.7 1.16
13 -17 -2 8.61 1.37
17 -13 2 5.54 1.03
17 -13 2 9.4 1.17
-17 4 -2 8.27 1.45
-4 -13 -2 8.95 1.6
-4 -13 -2 8.17 1.44
-4 -13 -2 7.09 1.14
-4 17 2 6.97 1.27
-13 17 -2 5.08 0.94
13 4 2 9.05 1.17
17 -4 -2 6.82 1.05
-17 4 -2 8.61 1.31
4 -17 2 10.35 1.44
-17 3 2 10.55 1.46
-3 -14 2 11.2 1.63
3 -17 -2 10.59 1.47
3 14 2 9.9 1.17
-17 3 2 12.33 1.75
-3 -14 2 10.37 1.66
-14 17 2 8.43 1.34
17 -14 -2 9.29 1.39
-14 17 2 5.97 1.28
14 -17 2 8.29 1.22
17 -3 2 10.1 1.55
-3 17 -2 8.11 1.3
17 -14 -2 9.81 1.17
17 -14 -2 9.91 1.61
-17 14 -2 11.8 1.48
-14 -3 -2 7.53 1.44
17 -3 2 10.3 1.23
-17 14 -2 9.59 1.45
3 -17 2 10.46 1.22
-3 17 2 9.48 1.65
-3 -14 -2 10.29 1.64
14 3 2 9.51 1.49
-3 -14 -2 8.94 1.43
17 -14 2 9.49 1.51
-3 -14 -2 9.52 1.54
-3 17 2 8.73 1.26
17 -14 2 9.15 1.24
-17 3 -2 10.23 1.71
3 -17 2 9.4 1.49
-17 3 -2 10.06 1.44
3 14 -2 9.76 1.59
-14 17 -2 9.35 1.61
14 -17 -2 8.84 1.4
14 3 2 9.6 1.24
-17 14 2 9.66 1.43
-14 17 -2 9.79 1.42
-15 -2 -2 2.63 1.05
-17 15 -2 3.29 0.89
-2 -15 2 2.33 0.93
2 15 2 2.31 0.64
17 -15 -2 2.52 0.63
-15 17 2 1.14 0.99
-17 2 2 2.86 0.84
15 -17 2 1.59 0.81
-2 -15 2 2.07 0.89
17 -2 2 2.25 0.96
17 -15 -2 1.94 1
-15 17 2 1.73 0.86
-2 17 -2 3.04 1.06
2 -17 -2 2.28 0.91
-17 2 2 3.56 1.11
17 -15 -2 2 0.81
-17 15 -2 2.64 1.02
17 -2 2 2.12 0.67
-15 -2 -2 2.96 0.77
-15 17 -2 2.81 0.84
-17 15 2 3.25 0.86
2 -17 2 3.45 0.96
-17 2 -2 4.25 0.88
17 -15 2 3.54 0.74
2 -17 2 2.85 0.65
-2 17 2 3.15 0.69
15 -17 -2 2.42 0.87
-2 -15 -2 3.18 0.88
-2 -15 -2 3.31 0.94
-17 2 -2 1.83 1.02
2 15 -2 3.38 1.09
-2 -15 -2 1.87 0.9
15 2 2 3.21 0.72
-15 -2 2 1.25 0.83
-15 17 -2 3.64 1.14
17 -15 2 2.13 0.85
-15 -2 2 2.55 0.78
15 2 2 1.99 0.84
-2 17 2 1.45 0.85
-17 16 -2 4.95 1.16
17 -16 -2 4.07 0.72
1 16 2 3.69 0.7
-17 16 -2 5.15 0.94
17 -16 -2 4.22 0.94
17 -1 2 5.14 0.77
-16 -1 -2 2.33 1.02
-1 17 -2 5.24 1.16
-16 17 2 5.87 0.99
-17 1 2 4.6 1.17
-17 1 2 5.13 0.9
16 -17 2 4.59 0.76
-16 17 2 4.21 1.16
1 -17 -2 3.43 0.96
16 -17 2 2.56 0.87
-16 -1 -2 5.38 0.93
17 -1 2 3.5 0.94
17 -16 -2 3.7 1.16
-17 16 2 4.34 0.96
17 -16 2 3.57 0.74
1 -17 2 1.66 0.77
-16 17 -2 3.73 0.9
-16 17 -2 4.42 1.14
16 -17 -2 3.13 0.88
-16 -1 2 2.16 0.96
1 -17 2 3.47 0.68
-1 -16 -2 3.62 0.99
-17 1 -2 4.63 1.23
17 -16 2 3.58 0.96
-17 1 -2 4.81 0.87
-16 -1 2 3.25 0.81
16 1 2 4.3 0.73
1 16 -2 3.59 1.08
16 1 2 2.75 0.92
-1 17 2 2.99 0.68
17 0 2 1.99 0.65
-17 17 -2 1.19 0.79
17 -17 2 0.7 0.76
0 -17 -2 1.14 0.88
17 -17 -2 0.93 0.57
17 -17 2 0.99 0.64
0 17 2 1.64 0.61
-17 0 -2 1.83 1.06
17 -17 -2 0.65 0.92
-17 0 2 -0.23 0.85
17 0 -2 -0.04 0.3
0 17 -2 0.75 0.93
-17 17 2 1.49 0.86
0 -17 2 0.98 0.56
-17 0 -2 2.13 0.78
-17 0 2 1.84 0.75
17 -17 -2 0.54 0.77
-17 17 -2 1.2 0.98
17 0 2 1.14 0.88
-9 -9 -2 3.54 0.99
-18 9 2 0.65 0.69
-9 -9 2 3.61 0.97
9 -18 2 2.53 0.63
18 -9 2 2.83 0.98
9 9 -2 2.74 0.91
9 -18 -2 2.23 0.81
-9 18 -2 2.75 0.93
9 -18 2 1.46 0.69
18 -9 -2 2.05 0.94
9 9 2 2.22 0.87
-18 9 2 1.36 1.02
-9 -9 -2 4.25 0.95
18 -9 -2 2.36 0.69
18 -9 2 3.08 0.71
9 -18 2 2.58 0.94
9 -18 -2 2.03 0.6
-9 -9 2 3.84 1.12
9 -18 -2 1.73 0.91
18 -9 -2 1.12 0.87
-18 9 -2 0.89 0.84
9 9 2 2.35 0.6
18 -8 2 21.01 1.8
18 -10 -2 14.94 2
-8 18 -2 20.9 2.07
10 -18 2 18.21 1.83
-18 8 2 19.76 2.21
18 -10 -2 20.27 2.06
18 -10 -2 20.66 1.77
8 -18 -2 23.97 2
8 10 2 21.3 1.97
-8 -10 2 21.36 2.15
-18 8 2 16.41 1.89
8 10 2 19.6 1.68
18 -8 2 21.02 2.06
10 -18 2 20.01 2.03
8 -18 -2 20.74 1.98
-10 -8 -2 19.95 2.07
10 -18 2 19.08 1.71
-10 -8 -2 21.78 2.1
-10 -8 2 26.72 2.27
18 -8 -2 25.06 2.14
8 -18 2 18.1 1.86
-8 -10 -2 25.93 2.17
8 -18 2 22.37 1.8
-18 10 2 22.16 1.89
8 10 -2 20.1 2.1
18 -10 2 25.52 1.91
-18 8 -2 17.46 2.13
10 8 2 22.62 1.82
-8 -10 -2 24.54 2.16
10 -18 -2 17.98 1.97
8 -18 2 23.32 2.16
18 -10 2 22.3 2.14
-18 8 -2 17.35 1.86
-10 -8 2 22.12 2.19
18 -8 -2 24.37 1.85
10 8 2 23.53 2.08
-7 -11 2 9.14 1.6
7 -18 -2 6.03 1.05
18 -7 2 5.83 0.82
-18 11 -2 4.72 0.84
7 11 2 6.56 0.77
-11 -7 -2 4.32 1.01
-18 11 -2 4.04 1.04
-11 -7 -2 4.23 0.97
-7 18 -2 5.03 1.06
-18 7 2 5.48 1
11 -18 2 2.89 0.87
18 -11 -2 2.98 1.05
18 -7 2 6.97 1.15
11 -18 2 6 0.8
7 11 2 4.16 0.96
-7 -11 2 8.01 1.15
7 -18 -2 4.67 1.02
18 -11 -2 4.57 0.78
11 -18 2 5.98 1.15
18 -11 -2 6 1.09
-18 7 2 6.26 1.33
-11 -7 2 3.72 0.93
-18 7 -2 6.2 0.9
7 -18 2 5.54 1.05
18 -11 2 6.54 1.13
-11 -7 2 5.82 1.11
7 -18 2 6.33 0.78
-7 18 2 5.66 0.79
-18 7 -2 3.97 1.07
11 7 2 5.51 0.99
11 -18 -2 7.5 1.09
-18 11 2 5.95 0.95
-7 -11 -2 9.43 1.5
18 -7 -2 3.74 0.98
11 7 2 5.58 0.78
18 -11 2 7.64 0.87
-7 -11 -2 5.54 1.07
18 -7 -2 5.36 0.78
18 -12 -2 3.41 0.74
12 -18 2 3.11 0.69
18 -12 -2 5.04 1.03
6 -18 -2 4.48 1.02
18 -6 2 4.48 0.76
12 -18 2 3.46 1.02
-12 -6 -2 4.26 1.02
-6 18 -2 5.4 1.13
-18 12 -2 3.8 0.91
-18 12 -2 4.94 1.12
-6 -12 2 7 1.23
-6 -12 2 6.38 1.06
6 12 2 3.53 0.88
12 -18 2 3.45 0.92
-18 6 2 5.89 0.98
-18 6 2 4.15 1.14
-12 -6 -2 2.28 0.84
18 -6 2 5.07 1.05
18 -12 -2 3.79 1.06
6 12 2 4.38 0.71
-18 12 2 4.02 0.87
6 -18 2 6.44 0.75
-12 -6 2 2.77 0.82
12 6 2 4.52 0.71
18 -6 -2 3.64 0.66
6 -18 2 6.93 1.13
-6 -12 -2 6.23 1.13
-12 -6 2 4.07 0.96
18 -6 -2 4.04 0.94
18 -12 2 3.34 0.94
-18 6 -2 6.27 1.22
-6 18 2 4.1 0.73
12 6 2 4.77 0.95
6 12 -2 4.68 1.04
12 -18 -2 5.28 0.98
-18 13 -2 2.24 1.01
18 -13 -2 1.97 0.88
13 -18 2 1.32 0.85
18 -13 -2 0.69 0.91
-18 13 -2 1.94 0.81
13 -18 2 0.36 0.52
-18 5 2 2.01 1.03
5 -18 -2 1.65 0.85
18 -13 -2 1.55 0.64
-18 5 2 3.08 0.86
18 -5 2 1.92 0.94
5 13 2 1.71 0.6
-5 -13 2 2.66 0.95
-5 -13 2 3.69 1.08
-5 18 -2 1.7 0.97
18 -5 2 1.82 0.66
13 -18 2 0.83 0.65
18 -13 2 3.19 0.73
-5 18 2 5.41 0.78
-5 -13 -2 3.35 0.97
-5 -13 -2 5.28 1
-13 18 -2 3.63 0.84
-18 13 2 3.63 0.85
-5 18 2 2.46 1.01
13 -18 -2 3.25 0.93
13 5 2 4.39 0.96
18 -5 -2 2.89 0.6
5 -18 2 3.65 0.67
18 -13 2 4.32 1.05
-18 5 -2 5.23 0.9
5 -18 2 5.53 1.08
-13 18 -2 3.05 0.94
-18 5 -2 3.1 1.06
5 13 -2 3.54 1.01
13 5 2 3.5 0.69
18 -4 2 5.73 1.13
18 -14 -2 4.61 0.94
18 -14 -2 5.11 0.76
-18 4 2 6.1 0.98
14 -18 2 3.52 0.94
18 -4 2 5.64 0.79
-4 -14 2 5.77 1.05
-4 18 -2 5.46 1.15
-18 14 -2 4.83 0.9
4 -18 -2 3.98 0.98
-4 -14 2 5.36 1.15
-18 14 -2 5.07 1.14
4 14 2 5.05 0.74
-18 4 2 5.34 1.21
-14 18 -2 3.48 1.04
-4 18 2 3.67 0.72
4 -18 2 5.24 0.75
14 -18 -2 4.66 0.98
-4 18 2 2.92 1.02
14 4 2 2.5 0.88
-18 4 -2 3.98 1.22
-4 -14 -2 4.56 0.93
-18 14 2 5.37 0.94
-18 4 -2 4.72 0.89
14 4 2 4.3 0.71
-14 18 -2 3.07 0.83
-4 -14 -2 5.13 1.09
4 -18 2 3.75 1.01
18 -4 -2 2.71 0.58
18 -14 2 3.81 1
4 14 -2 3.58 1.02
18 -14 2 5.05 0.79
-18 3 2 4.38 1.1
18 -15 -2 5.61 0.76
18 -3 2 6.97 0.84
-15 -3 -2 4.41 0.8
18 -3 2 4.11 1.03
-18 15 -2 5 1.09
18 -15 -2 2.75 0.98
15 -18 2 3.32 0.89
3 -18 -2 6.47 1.14
-3 -15 2 6.39 1.06
3 15 2 4.71 0.71
-3 18 -2 4.09 1.07
-3 -15 2 4.84 1.02
-18 15 -2 5.89 0.93
-15 18 2 6.15 1.07
-18 3 2 7.35 0.99
18 -15 -2 3.35 0.87
3 -18 2 3.86 0.68
18 -3 -2 2.51 0.54
15 -18 -2 3.26 0.93
-3 -15 -2 4.08 0.93
-18 15 2 4.41 0.91
18 -15 2 3.77 0.99
3 15 -2 2.52 0.97
15 3 2 3.65 0.72
-18 3 -2 4.77 1.24
-15 18 -2 2.99 0.82
-18 3 -2 4.08 0.87
-3 -15 -2 1.22 0.69
18 -15 2 3.63 0.74
3 -18 2 4.07 1.02
15 3 2 2.73 0.94
-15 18 -2 2.61 0.98
-3 -15 -2 3.06 0.9
-3 18 2 2.8 0.68
-18 15 2 2.56 0.84
-16 -2 -2 6.82 0.95
16 -18 2 4.54 0.78
18 -2 2 7.44 0.87
-18 16 -2 7.2 1.25
-16 18 2 6.22 1.04
-18 2 2 9.33 1.35
-18 16 -2 7.68 1.01
-2 18 -2 6.57 1.21
-18 2 2 4.82 1.15
-2 -16 2 6.58 1.08
2 16 2 5.4 0.79
2 -18 -2 7.98 1.21
18 -16 -2 5.53 0.8
18 -2 2 6.08 1.07
18 -16 -2 5.7 1
2 -18 2 2.93 0.79
-16 18 -2 4.26 1.09
-18 2 -2 6.24 0.95
-18 2 -2 4.05 1.2
-18 16 2 6.87 1.01
18 -2 -2 2.12 0.5
-16 18 -2 4.06 0.92
18 -16 2 3.61 0.94
18 -16 2 4.73 0.76
2 16 -2 3.97 1
16 2 2 5.48 0.8
-18 16 2 4.27 0.93
-2 -16 -2 5.75 1.02
16 -18 -2 2.86 0.86
16 2 2 2.8 0.9
-16 -2 2 3.6 0.79
2 -18 2 3.9 0.67
-2 18 2 3.85 0.72
1 -18 -2 1.08 0.78
-1 18 -2 0.52 0.75
-18 1 2 2.09 0.73
-18 17 -2 1.11 0.85
18 -1 2 2.13 0.66
18 -17 -2 -0.06 0.65
-17 -1 -2 2.39 0.79
-18 17 -2 2.1 0.77
18 -17 -2 2.4 0.63
18 -1 2 0.35 0.75
-1 -17 2 0.93 0.69
17 1 -2 -0.08 0.33
-18 1 2 -0.4 0.67
-1 -17 2 1.14 0.53
-17 18 2 2.5 0.86
1 17 2 1.77 0.59
17 -18 2 -0.31 0.57
17 -18 2 0.92 0.61
-17 18 2 1.76 0.82
18 -17 -2 0.51 0.62
-18 17 2 0.8 0.76
17 -18 -2 0.85 0.75
-18 17 2 1.97 0.82
-1 -17 -2 -0.12 0.57
-17 18 -2 1.62 0.76
-1 -17 -2 0.26 0.75
18 -1 -2 -0.08 0.31
17 1 2 0.89 0.64
-17 18 -2 0.93 0.85
17 -18 -2 1.23 0.58
-1 18 2 1.51 0.61
17 -18 -2 0.54 0.7
1 -18 2 0.76 0.52
-17 -1 2 1.6 0.7
-18 1 -2 0.27 0.84
1 17 -2 0.42 0.65
-18 1 -2 2.32 0.79
18 -17 2 1.24 0.66
17 1 2 0.03 0.68
18 -17 2 -0.33 0.6
-18 18 -2 5.28 0.87
-18 18 2 3.56 0.88
-18 0 -2 4.92 0.88
0 -18 2 3.14 0.61
18 0 2 3.76 0.75
-18 0 2 4.41 0.81
18 -18 -2 5.21 0.74
18 -18 2 3.47 0.72
0 18 2 4.22 0.7
-18 18 2 4.23 0.94
19 -9 2 4.92 1.08
-19 9 2 2.87 1.01
-10 -9 -2 5.36 1.1
-10 -9 -2 5.24 0.97
9 -19 -2 4.69 0.76
10 -19 2 3.6 1.02
19 -9 2 4.28 0.78
9 10 2 4.66 0.71
19 -10 -2 5.27 0.81
-9 -10 2 4.83 1.1
9 -19 -2 2.67 0.84
-19 9 2 3.21 0.84
10 -19 2 5.15 0.76
-9 -10 2 6.03 1.05
9 10 2 3.21 0.93
9 -19 -2 4.84 1
-19 9 -2 2.39 0.74
9 -19 2 3.58 1.03
-10 -9 2 3.25 0.91
10 -19 -2 3.18 0.94
19 -10 2 3.1 0.98
10 -19 -2 2.37 0.61
-19 10 2 2.28 0.75
19 -9 -2 1.37 0.83
10 9 2 1.81 0.59
-19 10 2 0.88 0.72
19 -9 -2 2.54 0.69
-9 -10 -2 3.63 0.99
-9 -10 -2 4.77 0.96
-10 -9 2 3.77 1.05
10 9 2 2.89 0.94
9 -19 2 2.79 0.62
19 -10 2 3.18 0.71
-19 11 -2 5.08 0.83
8 -19 -2 4.3 0.96
19 -8 2 3.44 0.97
-19 8 2 4.36 1.16
8 -19 -2 4.67 1.03
8 -19 -2 4.22 0.72
19 -11 -2 4.67 1.03
11 -19 2 3.85 0.7
8 11 2 4.54 0.71
8 11 2 5.41 1.03
-11 -8 -2 3.95 1
-11 -8 -2 5.74 1.01
-19 8 2 3.46 0.86
-8 19 -2 4.99 1.07
11 -19 2 5.78 1.12
-8 -11 2 5.77 1.15
19 -11 -2 4.67 0.8
19 -11 2 5.83 0.8
-19 11 2 4.01 0.82
-8 -11 -2 5.15 1.04
11 8 2 3.75 0.91
19 -8 -2 2.08 0.8
11 -19 -2 3.34 0.9
8 -19 2 5.77 1.12
-11 -8 2 3.68 0.99
11 8 2 4.93 0.69
19 -8 -2 4.67 0.77
19 -11 2 3.83 1.01
8 -19 2 4.95 0.69
-11 -8 2 4.56 0.93
-8 -11 -2 7.62 1.43
-19 8 -2 2.56 0.99
-19 8 -2 4.31 0.83
19 -7 2 7.36 0.84
12 -19 2 5.74 0.78
-19 7 2 5.75 1.31
-7 -12 2 8.34 1.56
7 -19 -2 6.05 1.1
19 -12 -2 4.01 1
19 -12 -2 4.64 0.79
-12 -7 -2 3.52 0.92
-19 12 -2 6.13 0.99
-19 7 2 6.84 1
-7 -12 2 6.51 1.2
19 -7 2 6.04 1.14
7 -19 -2 5.53 1.02
7 12 2 4.81 1.02
12 -19 2 4.12 0.94
-12 -7 -2 4.54 0.98
7 12 2 4.94 0.74
-7 19 -2 5.67 1.11
-19 7 -2 2.59 1.08
19 -12 2 4.11 0.73
-19 12 2 4.7 0.85
12 -19 -2 3.19 0.91
-12 -7 2 2.56 0.82
7 -19 2 2.85 0.93
19 -7 -2 3.66 0.71
-7 -12 -2 5.23 1.14
19 -12 2 3.73 1.02
-7 19 2 3.49 0.68
-19 7 -2 3.94 0.84
-7 -12 -2 4.85 0.93
-12 -7 2 1.97 0.82
7 -19 2 4.98 0.69
12 7 2 2.97 0.87
12 7 2 3.73 0.67
-6 -13 2 1.34 0.93
-13 -6 -2 0.53 0.76
19 -13 -2 0.05 0.61
19 -6 2 0.08 0.61
6 -19 -2 0.16 0.78
-19 13 -2 -0.1 0.77
-19 6 2 0.8 1.01
19 -13 -2 -0.47 0.79
19 -6 2 0.27 0.89
-6 19 -2 -0.09 0.82
-19 13 -2 -0.05 0.77
13 -19 2 0.16 0.59
-19 6 2 0.56 0.74
19 -13 -2 0.06 0.94
13 -19 2 0.48 0.61
-6 -13 2 1.32 0.85
6 13 2 0.11 0.55
6 -19 -2 0.81 0.86
-19 6 -2 0.9 0.73
13 6 2 0.04 0.78
-6 -13 -2 1.99 0.85
6 -19 2 1.31 0.9
-19 6 -2 0.03 0.96
6 -19 2 1.34 0.56
-6 19 2 0.31 0.55
13 -19 -2 0.79 0.83
-13 19 -2 0.38 0.62
-6 -13 -2 1.65 0.98
19 -13 2 1.47 0.66
6 13 -2 0.37 0.64
19 -13 2 0.11 0.84
-19 13 2 1.02 0.72
-13 -6 2 0.26 0.68
19 -6 -2 0.84 0.6
13 6 2 0.02 0.56
19 -14 -2 0.71 0.61
19 -14 -2 0.46 0.73
-19 5 2 1.59 1.07
5 14 2 0.83 0.58
19 -5 2 1.48 0.93
14 -19 2 0.38 0.5
-19 14 -2 0.82 0.83
-5 19 -2 0.5 0.84
-19 5 2 1.91 0.78
-5 -14 2 2.21 0.87
-5 -14 2 1.6 0.92
5 -19 -2 1.3 0.86
19 -5 2 0.74 0.63
-19 14 -2 0.57 0.77
14 -19 2 -0.07 0.58
-5 19 2 0.09 0.58
-5 -14 -2 0.93 0.88
-19 14 2 1.02 0.74
14 -19 -2 1.55 0.85
-19 5 -2 1.07 1.07
5 -19 2 1.45 0.84
5 14 -2 0.16 0.59
-19 5 -2 2.1 0.8
-14 19 -2 1.44 0.82
19 -14 2 -0.26 0.86
19 -5 -2 1.18 0.6
14 5 2 0.8 0.8
19 -14 2 1.1 0.65
14 5 2 1.38 0.6
-5 -14 -2 2.22 0.85
5 -19 2 1.57 0.59
19 -4 2 0.8 0.92
4 -19 -2 2.62 0.94
19 -15 -2 2.43 0.66
-4 -15 2 0.04 0.56
-19 15 -2 1.28 0.88
4 15 2 2.65 0.63
19 -15 -2 0.64 0.66
-19 4 2 3.1 0.8
19 -4 2 1.96 0.66
-4 19 -2 1.84 0.95
-19 4 2 0.91 0.94
-19 15 -2 2.42 0.8
-15 19 2 1.21 0.82
-4 -15 2 2.7 0.89
-4 19 2 1.28 0.61
-19 4 -2 0.64 0.98
15 -19 -2 0.58 0.8
-15 19 -2 0.6 0.75
-4 -15 -2 1.85 0.85
15 4 2 0.91 0.71
19 -4 -2 0.4 0.55
-19 15 2 1.04 0.75
-19 15 2 -0.08 0.47
-4 -15 -2 -0.43 0.53
4 15 -2 0.14 0.6
15 4 2 1.15 0.61
4 -19 2 1.14 0.79
19 -15 2 -0.11 0.78
-19 4 -2 1.69 0.78
19 -15 2 1.01 0.62
4 -19 2 1.5 0.57
-19 3 2 12.29 1.42
16 -19 2 8.47 1.14
-16 19 2 10.62 1.56
-16 19 2 9.78 1.55
3 16 2 8.2 1.14
-19 16 -2 9.8 1.36
19 -3 2 8.77 1.23
-3 19 -2 7.1 1.35
19 -16 -2 9.22 1.13
-16 -3 -2 8.39 1.33
-3 -16 2 9.84 1.62
3 -19 -2 8.67 1.36
3 -19 2 10.11 1.11
19 -16 2 10.68 1.24
-16 19 -2 8.5 1.32
-19 3 -2 6.34 1.25
-3 19 2 8.24 1.13
-19 3 -2 11.16 1.49
-3 -16 -2 10.91 1.56
-19 16 2 7.64 1.31
19 -3 -2 8.33 1.07
16 3 2 8.62 1.17
-19 16 2 8.15 1.31
19 -2 2 1.32 0.63
17 -19 2 1.02 0.62
19 -17 -2 1.07 0.58
-17 -2 -2 1.6 0.73
2 -19 -2 -0.11 0.57
-2 19 -2 0.04 0.76
-19 2 2 1.69 0.72
-19 17 -2 0 0.55
-17 19 2 1.51 0.85
-17 19 2 0.99 0.8
-19 17 -2 0.89 0.7
-2 -17 2 1.03 0.73
2 17 2 1.19 0.57
17 -19 -2 -0.14 0.51
-2 -17 -2 2.32 0.83
-19 17 2 0.67 0.73
-19 2 -2 2.68 0.8
-19 17 2 2.65 0.78
2 -19 2 1.45 0.54
19 -17 2 2 0.66
-2 19 2 1.26 0.6
-17 -2 2 1.19 0.66
17 2 2 1.05 0.59
19 -2 -2 1.18 0.45
17 -19 -2 2.34 0.62
-19 2 -2 -0.34 0.9
-17 19 -2 1.3 0.76
19 -18 -2 1.25 0.55
-18 -1 -2 2.11 0.74
-19 18 -2 1.97 0.69
-19 1 2 1.74 0.68
-18 19 2 1.26 0.78
19 -1 2 1.9 0.66
-18 19 2 0.84 0.73
1 18 2 1.78 0.57
18 -19 2 1.72 0.59
-1 -18 2 0.77 0.47
19 -18 2 0.75 0.62
-19 18 2 1.18 0.71
-18 -1 2 0.39 0.62
-19 18 2 0.5 0.69
19 -1 -2 0.01 0.28
18 1 2 0.93 0.62
18 -19 -2 0.1 0.52
-1 19 2 0.13 0.55
1 -19 2 0.12 0.47
-19 1 -2 1.07 0.73
-18 19 -2 0.93 0.7
-19 0 2 1.28 0.64
0 19 2 0.95 0.53
0 -19 2 0.56 0.46
-19 19 2 0.82 0.73
19 -19 -2 0.22 0.51
-19 19 -2 0.52 0.65
-19 19 2 0.75 0.68
19 -19 2 0.73 0.57
-19 0 -2 0.92 0.66
19 0 2 0.4 0.57
10 -20 2 11.9 1.27
-10 -10 -2 14.28 1.71
10 -20 2 12.67 1.54
-10 -10 2 14.6 1.66
-10 -10 2 13.89 1.67
10 -20 -2 13.74 1.29
10 10 2 9.15 1.33
10 10 2 12.22 1.31
10 -20 -2 13.01 1.6
20 -10 2 12.59 1.69
-20 10 -2 10.03 1.37
20 -10 2 14.84 1.42
-20 10 2 10.54 1.46
-10 -10 -2 14.73 1.74
-10 20 2 10.29 1.47
20 -10 -2 13.97 1.38
-20 10 2 12.55 1.35
20 -9 2 9.39 1.57
-11 -9 -2 12.75 1.67
9 -20 -2 12.33 1.56
9 -20 -2 11.48 1.23
20 -11 -2 12.43 1.35
-11 -9 -2 8.2 1.46
-9 -11 2 13.02 1.69
20 -9 2 12.57 1.31
-20 9 2 9.87 1.39
-9 -11 2 15.08 1.71
9 11 2 11.21 1.23
-11 20 2 11.15 1.56
11 -20 2 11.4 1.21
9 -20 2 10.11 1.48
-9 -11 -2 13.37 1.64
11 -20 -2 10.84 1.46
-20 9 -2 7.48 1.28
20 -11 2 10.39 1.24
-11 -9 2 10.36 1.52
11 -20 -2 9.66 1.12
-9 -11 -2 10.89 1.61
11 9 2 8.67 1.12
20 -11 2 9.35 1.31
20 -9 -2 10.25 1.28
-20 11 2 9.8 1.34
-11 -9 2 8.28 1.38
9 -20 2 10.28 1.15
20 -8 2 7.9 1.18
20 -8 2 8.52 1.21
8 -20 -2 7.73 1.1
-12 20 2 8.67 1.49
8 -20 -2 9.62 1.32
-12 -8 -2 8.11 1.47
-20 8 2 8.61 1.07
-8 -12 2 11.03 1.54
20 -12 -2 8.72 1.21
-8 -12 2 9.9 1.55
12 -20 2 7.84 1.1
-20 12 -2 8.65 1.32
8 12 2 6.14 0.86
12 8 2 10.84 1.23
-20 12 2 13.03 1.44
12 -20 -2 12.32 1.55
-8 -12 -2 13.93 1.67
20 -12 2 13.55 1.32
8 -20 2 12.74 1.23
-8 -12 -2 12.89 1.62
-20 8 -2 10.99 1.4
20 -12 2 10.14 1.61
8 -20 2 11.72 1.53
20 -8 -2 10.99 1.32
-12 -8 2 9.82 1.48
20 -7 2 8.09 1.11
-7 -13 2 9.5 1.49
7 13 2 7.1 0.81
-7 -13 2 8.35 1.41
-20 13 -2 6.03 0.96
13 -20 2 7.22 1.05
-13 -7 -2 4.73 0.99
20 -13 -2 6.52 0.86
-13 20 2 7.16 1.17
-7 20 -2 5.83 1.1
7 -20 -2 7.04 1.07
-20 7 2 7.27 1
7 -20 -2 4.73 0.89
7 -20 2 5 0.95
-20 13 2 7.38 1.17
13 -20 -2 4.7 0.9
-20 7 -2 8.51 0.99
-13 -7 2 5.87 0.93
-7 -13 -2 6.6 1.07
20 -7 -2 5.25 0.77
13 7 2 5.47 0.75
20 -13 2 7.39 0.83
20 -13 2 4.16 0.97
-6 -14 2 0.29 0.58
20 -6 2 0.49 0.6
6 -20 -2 0.06 0.54
-14 20 2 2.28 0.98
-14 -6 -2 -0.24 0.73
-20 6 2 0.08 0.68
6 -20 -2 0.15 0.48
-20 14 -2 0.34 0.74
-20 6 2 1.34 0.72
-6 -14 2 1.87 0.83
20 -6 2 -1.04 0.66
6 14 2 1.17 0.56
6 -20 -2 0.87 0.57
-6 20 -2 0.54 0.71
14 -20 2 0.67 0.54
20 -14 -2 0.77 0.61
14 -20 -2 0.45 0.59
6 -20 2 0.5 0.63
6 -20 2 0.04 0.49
-14 20 -2 0.02 0.68
20 -14 2 0.08 0.58
-14 -6 2 -0.51 0.58
14 6 2 0.27 0.53
14 6 2 -0.04 0.81
-20 6 -2 -0.76 0.65
-6 -14 -2 0.9 0.79
-20 6 -2 0.54 0.73
20 -14 2 -0.19 0.58
-6 20 2 -0.03 0.53
20 -6 -2 0.43 0.58
-6 -14 -2 0.11 0.56
-20 14 2 -0.19 0.67
-20 15 -2 11.01 1.43
-20 15 2 14.91 1.57
15 5 2 15.17 1.43
-5 20 2 14.59 1.38
5 -20 2 15.24 1.37
-20 5 -2 18.3 1.7
-5 -15 -2 15.93 1.75
-15 20 -2 13.47 1.54
20 -5 -2 12.83 1.39
20 -15 2 14.65 1.45
-16 20 2 1.74 0.92
4 -20 -2 1.31 0.58
-4 -16 2 1.22 0.76
20 -4 2 0.35 0.61
-20 4 2 0.95 0.68
4 16 2 0.42 0.56
16 -20 2 0.37 0.53
20 -16 -2 0.63 0.59
-20 16 -2 0.48 0.71
-16 20 2 0.72 0.76
-20 16 2 0.19 0.5
16 4 2 0.4 0.56
-4 -16 -2 1.12 0.8
-16 20 -2 -0.42 0.63
20 -4 -2 0.38 0.55
-20 4 -2 0.77 0.68
20 -16 2 0.4 0.6
-20 16 2 0.17 0.65
-4 20 2 0.07 0.53
4 -20 2 0.82 0.53
-17 20 2 5.25 0.96
-20 17 -2 4.76 0.82
20 -3 2 5.3 0.76
17 -20 2 3.9 0.7
-3 -17 2 4.56 0.86
-20 3 2 5.27 0.82
3 -20 -2 6.77 0.77
-17 -3 -2 2.44 0.7
20 -17 -2 3.32 0.66
3 17 2 3.77 0.66
-17 20 2 3.14 0.84
-3 -17 -2 4.56 0.89
17 3 2 6.33 0.75
-17 20 -2 5.35 0.84
20 -17 2 5.63 0.77
-20 17 2 3.75 0.83
17 -20 -2 7.2 0.77
20 -3 -2 4.13 0.62
3 -20 2 4.78 0.66
-20 17 2 7.1 0.92
-20 3 -2 5.52 0.91
-3 20 2 5.58 0.72
-2 -18 2 1.1 0.68
2 -20 -2 1.32 0.56
-18 20 2 1.44 0.76
-18 20 2 1.23 0.7
-20 18 -2 0.64 0.64
20 -18 -2 0.79 0.54
-20 2 2 1.4 0.68
20 -2 2 0.57 0.57
2 18 2 0.4 0.52
-18 -2 -2 0.57 0.62
18 -20 2 0.75 0.55
-2 20 2 0.61 0.51
-18 20 -2 0.06 0.63
18 2 2 0.45 0.53
20 -2 -2 -0.04 0.27
-2 -18 -2 0.31 0.67
-20 2 -2 0.74 0.68
-20 18 2 0.55 0.68
20 -18 2 0.03 0.55
2 -20 2 0.05 0.44
-20 18 2 0.21 0.63
18 -20 -2 0.39 0.5
-18 -2 2 0.43 0.55
1 19 2 0.68 0.51
-19 -1 -2 0.99 0.61
-20 19 -2 0.76 0.61
20 -1 2 0.45 0.55
-19 20 2 0.91 0.62
1 -20 -2 1.21 0.53
-20 1 2 1.41 0.62
-19 20 2 0.6 0.67
20 -19 -2 0.47 0.51
19 -20 2 0.49 0.53
-20 19 2 1.04 0.66
19 1 2 0.19 0.53
19 -20 -2 0.43 0.49
-19 20 -2 0.34 0.59
20 -19 2 0.3 0.56
-1 20 2 0.01 0.48
-20 19 2 0.9 0.64
-20 1 -2 0.66 0.62
-19 -1 2 0.7 0.54
1 -20 2 0.76 0.45
-20 20 2 1.93 0.64
-20 20 -2 2.93 0.66
0 20 2 2.15 0.52
20 0 2 1.64 0.54
-20 20 2 2.88 0.7
20 -20 2 1.24 0.55
-20 0 -2 2.93 0.69
0 -20 -2 2.32 0.52
20 -20 -2 2.52 0.56
0 -20 2 0.89 0.4
-20 0 2 2.11 0.59
-21 10 2 1.02 0.68
-10 -11 2 3.4 0.82
-11 -10 -2 2.85 0.87
11 -21 2 1.37 0.54
10 -21 -2 1.81 0.56
-21 10 2 1.03 0.47
-11 21 2 1.5 0.75
10 11 2 2.64 0.59
21 -11 -2 1.62 0.62
21 -10 2 -0.35 0.65
11 -21 -2 2.11 0.6
-21 10 -2 0.85 0.62
21 -10 -2 3.04 0.66
-21 11 2 0.81 0.66
21 -11 2 3.33 0.64
-10 -11 -2 4.1 0.9
-11 -10 2 3.28 0.86
11 10 2 2.84 0.62
10 -21 2 2.09 0.55
-21 11 2 1.73 0.69
-9 -12 2 5.81 0.94
-12 -9 -2 4.66 0.94
9 -21 -2 4.98 0.69
21 -12 -2 3.01 0.68
-21 12 -2 3.71 0.73
-12 21 2 3.33 0.91
12 -21 2 5.21 0.69
9 12 2 3.85 0.66
-21 9 2 2.99 0.76
21 -9 2 5.53 0.73
12 9 2 3.37 0.62
21 -12 2 3.07 0.65
9 -21 2 2.9 0.57
21 -9 -2 2.59 0.65
-9 -12 -2 5.27 0.94
-12 -9 2 2.58 0.78
-21 12 2 2.12 0.72
-21 9 -2 1.31 0.66
-8 -13 2 7.74 1.46
21 -8 2 5.72 0.73
-21 13 -2 4.53 0.87
21 -13 -2 4.46 0.71
-13 21 2 4.83 0.98
8 13 2 4.63 0.67
13 -21 2 3.95 0.68
8 -21 -2 4.53 0.67
-13 -8 -2 3.78 0.87
-21 8 2 3.64 0.81
8 -21 2 4 0.61
-21 13 2 3.23 0.77
21 -13 2 3.38 0.65
-8 -13 -2 3.68 0.86
-21 8 -2 2.52 0.7
13 8 2 2.26 0.58
21 -8 -2 2.23 0.63
-13 -8 2 2.33 0.71
-14 -7 -2 1.76 0.82
14 -21 2 1.62 0.56
21 -14 -2 2.15 0.63
-14 21 2 3.82 1.01
-21 7 2 3.26 0.76
21 -7 2 3.68 0.66
7 14 2 2.97 0.63
7 -21 -2 2.76 0.59
-21 14 -2 3.04 0.79
-7 -14 2 3.94 0.84
21 -14 2 1.1 0.58
-21 7 -2 1.66 0.72
-7 -14 -2 2.45 0.79
-14 -7 2 0.8 0.64
-21 14 2 1.81 0.7
7 -21 2 2.83 0.54
14 7 2 1.15 0.52
21 -7 -2 1.09 0.59
-14 21 -2 -0.11 0.42
-21 6 2 2.73 0.73
15 -21 2 1.22 0.54
-6 -15 2 2.46 0.75
-21 15 -2 1.79 0.72
-15 21 2 3.41 0.96
21 -15 -2 1.89 0.62
6 15 2 2.61 0.58
21 -6 2 2.86 0.65
6 -21 -2 2.46 0.58
-15 21 -2 1.55 0.66
-6 -15 -2 3.01 0.8
-21 15 2 3.06 0.75
-21 6 -2 2.74 0.76
6 -21 2 2.91 0.57
21 -15 2 2.73 0.61
15 6 2 2.3 0.57
21 -6 -2 2.03 0.61
16 -21 2 6.21 0.97
21 -16 -2 7.72 1.06
-21 5 2 8.06 1.23
-21 16 -2 6.1 0.9
21 -5 2 7.16 1.05
-16 21 2 9.24 1.51
-5 -16 2 7.95 1.23
5 16 2 6.25 0.96
5 -21 -2 7.05 1
-16 21 -2 3.85 0.77
-21 16 2 5.26 0.83
16 5 2 4.31 0.67
21 -16 2 5.86 0.75
-21 5 -2 5.3 0.85
-5 -16 -2 4.96 0.86
21 -5 -2 3.49 0.65
5 -21 2 5.72 0.67
-17 21 2 5.91 0.96
21 -17 -2 4.12 0.67
-21 17 -2 4.62 0.78
-17 21 2 4.82 0.81
21 -4 2 7.03 0.79
-4 -17 2 4.53 0.83
4 -21 -2 6.19 0.92
17 -21 2 3.83 0.68
4 17 2 6.16 0.74
-21 4 2 6.68 0.86
-4 -17 -2 6.88 1.29
-21 4 -2 5.9 0.87
-21 17 2 6.2 0.85
-4 21 2 4.61 0.67
17 -21 -2 5.86 0.71
21 -17 2 5.96 0.75
4 -21 2 5.85 0.71
17 4 2 4.74 0.7
3 -21 -2 6.27 0.88
21 -3 2 3.95 0.67
-18 21 2 6.17 0.9
3 18 2 3.44 0.61
18 -21 2 2.44 0.6
-18 21 2 4.32 0.79
-3 -18 2 3.75 0.76
-21 18 -2 5.99 0.78
21 -18 -2 4.6 0.67
18 -21 -2 3.74 0.6
-18 21 -2 2.98 0.67
21 -18 2 4.67 0.66
-21 18 2 4.6 0.75
3 -21 2 3.64 0.56
18 3 2 4.32 0.62
-3 -18 -2 3.08 0.73
-3 21 2 4.26 0.6
-21 18 2 3.14 0.68
-21 3 -2 5.74 0.79
-19 21 2 8.81 1.18
-19 -2 -2 8.47 1.09
-21 2 2 9.22 1.14
2 19 2 9.57 1
-19 21 2 7.87 1.14
21 -19 -2 8.47 1.01
21 -2 2 8.59 1.05
-21 19 -2 9.32 1.1
2 -21 -2 10.07 1.01
-2 -19 -2 7.52 0.9
2 -21 2 6.66 0.88
-19 21 -2 7.93 1.07
19 2 2 8.46 0.98
-21 19 2 7.16 1.07
-21 2 -2 7.44 1.09
21 -19 2 8.56 1.05
-2 21 2 7.66 0.9
19 -21 -2 8.05 0.92
-21 19 2 8.21 1.13
-20 21 2 0.08 0.57
-20 21 2 0.19 0.55
-20 -1 -2 0.08 0.5
-21 20 -2 0.65 0.53
20 -21 2 0.26 0.46
21 -1 2 0.32 0.47
-21 1 2 0.3 0.5
21 -20 -2 0.19 0.47
1 -21 -2 0.47 0.45
1 20 2 -0.3 0.42
-21 20 2 0.41 0.55
21 -20 2 1 0.54
-21 1 -2 0.45 0.52
-1 -20 -2 0.23 0.41
1 -21 2 0.18 0.34
20 -21 -2 0.14 0.45
-20 21 -2 0.34 0.54
-20 -1 2 0.39 0.46
-21 20 2 0.41 0.55
-1 21 2 0.34 0.4
20 1 2 0.02 0.44
21 -21 -2 5.77 0.81
0 -21 -2 3.37 0.47
-21 21 -2 4.17 0.69
0 21 2 4.79 0.68
-21 21 -2 4.86 0.68
-21 21 2 2.83 0.61
21 0 2 4.14 0.56
21 -21 2 3.67 0.58
-21 21 2 4.37 0.66
-21 0 2 3.19 0.55
-21 0 -2 4.01 0.63
-22 11 2 6.52 0.9
11 -22 -2 7.97 0.95
22 -11 -2 8.67 1.04
-11 -11 -2 8.78 1.44
-22 11 2 6.4 0.9
-11 -11 2 9.27 1.23
11 11 2 9.21 1
22 -11 2 7.86 1.03
11 -22 2 7.41 0.95
12 -22 2 0.55 0.49
22 -10 2 -0.12 0.48
22 -12 -2 -0.11 0.51
-22 10 2 0.14 0.56
10 -22 -2 0.47 0.45
-12 22 2 0.5 0.65
10 12 2 -0.03 0.48
-12 -10 -2 0.55 0.7
-10 -12 2 0.42 0.63
10 -22 2 0.97 0.47
-12 -10 2 1.44 0.64
-22 12 2 1.03 0.62
12 10 2 0.53 0.49
12 -22 -2 0.26 0.42
22 -10 -2 1.43 0.53
22 -12 2 0.9 0.53
-22 10 -2 0.83 0.61
-10 -12 -2 2.12 0.76
22 -13 -2 3.59 0.63
-22 13 -2 1.48 0.58
13 -22 2 2.94 0.56
-22 9 2 2.84 0.67
9 -22 -2 3.76 0.59
9 13 2 3.34 0.6
-13 -9 -2 2.61 0.76
22 -9 2 4.74 0.67
-13 22 2 3.01 0.79
-9 -13 2 3.72 0.72
-22 13 2 1.44 0.63
-13 -9 2 1.21 0.63
-9 -13 -2 3.54 0.78
9 -22 2 2.82 0.52
13 9 2 1.7 0.53
22 -9 -2 2.31 0.57
22 -13 2 1.75 0.57
-22 9 -2 1.82 0.63
22 -8 2 2.95 0.59
22 -14 -2 2.22 0.57
-14 -8 -2 1.8 0.74
8 -22 -2 2.53 0.53
14 -22 2 2.04 0.58
-22 8 2 2.29 0.69
-14 22 2 2.9 0.74
-22 14 -2 2.5 0.73
8 14 2 2.4 0.55
-8 -14 2 3.5 0.7
22 -8 -2 2.58 0.6
-8 -14 -2 3.49 0.76
-22 14 2 3.35 0.67
22 -14 2 3.04 0.59
8 -22 2 3.15 0.52
-14 -8 2 2.46 0.7
14 8 2 2.8 0.58
-22 8 -2 2.14 0.63
-22 15 -2 0.17 0.61
15 -22 2 0.19 0.47
-7 -15 2 1.07 0.65
22 -7 2 0.4 0.53
15 -22 2 0.07 0.4
7 15 2 0.82 0.52
7 -22 -2 0.44 0.44
22 -15 -2 0.22 0.5
-15 22 2 0.58 0.76
-22 7 2 0.53 0.62
22 -7 -2 0.52 0.51
-22 7 -2 1.19 0.63
-22 15 2 0.68 0.59
22 -15 2 0.64 0.5
-7 -15 -2 1.4 0.67
15 7 2 0.8 0.47
7 -22 2 1.45 0.45
6 -22 -2 1.1 0.47
-22 6 2 1.46 0.62
22 -6 2 1.37 0.52
-16 22 2 1.21 0.74
22 -16 -2 0.38 0.49
16 -22 2 0.63 0.49
-22 16 -2 0.4 0.59
6 16 2 0.61 0.51
-6 -16 2 1.24 0.64
-6 -16 -2 2.08 0.74
-22 16 2 0.97 0.56
-22 6 -2 2.08 0.65
-16 22 -2 0.67 0.43
22 -16 2 1.69 0.51
22 -6 -2 0.89 0.43
6 -22 2 1.76 0.46
16 6 2 0.72 0.48
5 17 2 0.9 0.49
17 -22 2 0.31 0.48
-17 22 2 0.75 0.71
-22 17 -2 0.45 0.58
5 -22 -2 0.43 0.45
22 -17 -2 0 0.46
-22 5 2 0.87 0.58
-5 -17 2 0.67 0.62
22 -5 2 0.71 0.49
5 -22 2 0.5 0.44
-22 5 -2 0.77 0.61
17 5 2 0.33 0.45
17 -22 -2 1.2 0.5
-5 -17 -2 0.91 0.62
22 -5 -2 0 0.26
-17 22 -2 -0.17 0.51
22 -17 2 0.1 0.49
-22 17 2 -0.03 0.53
4 -22 -2 1.28 0.45
4 18 2 0.42 0.44
-4 -18 2 1.05 0.61
-22 18 -2 0.6 0.53
18 -22 2 0.23 0.45
-22 4 2 0.83 0.58
-18 22 2 1.11 0.66
22 -18 -2 0.55 0.46
22 -4 2 0.82 0.5
-18 22 -2 -0.1 0.5
4 -22 2 0.65 0.42
18 -22 -2 0.9 0.5
18 4 2 0.56 0.43
22 -18 2 0.3 0.49
-22 4 -2 0.41 0.63
-22 18 2 -0.14 0.5
-4 -18 -2 0.32 0.56
22 -3 2 6.63 0.91
3 19 2 6.23 0.81
19 -22 2 5.58 0.86
-19 22 2 6.7 1.08
22 -19 -2 5.66 0.88
-22 19 -2 6.28 0.94
-22 3 2 6.41 0.97
3 -22 -2 7.73 0.83
-22 3 -2 4.55 0.68
19 -22 -2 4.04 0.57
22 -19 2 4.76 0.62
-22 19 2 4.19 0.64
19 3 2 4.34 0.56
-19 22 -2 2.94 0.62
3 -22 2 3.29 0.49
-22 2 2 0.53 0.54
2 20 2 0.22 0.38
20 -22 2 0.2 0.45
-20 22 2 0.15 0.35
-22 20 -2 0.24 0.5
22 -2 2 0.17 0.44
2 -22 -2 0.29 0.4
-20 22 2 0.39 0.55
22 -20 -2 0.22 0.46
-22 20 2 0.01 0.49
22 -20 2 0.56 0.49
20 -22 -2 0.2 0.45
2 -22 2 -0.02 0.3
-22 2 -2 0.31 0.56
-20 22 -2 -0.25 0.5
-20 22 -2 0.08 0.51
20 2 2 0.42 0.4
-21 22 2 5.83 0.93
22 -21 -2 7.44 0.9
22 -1 2 7.22 0.84
1 -22 -2 7.28 0.8
-22 21 -2 7.16 0.95
21 -22 2 6.33 0.79
-21 22 -2 4.99 0.91
-22 21 2 5.89 0.89
22 -21 2 6.79 0.84
21 1 2 5.86 0.71
-22 1 -2 5.96 0.97
-21 22 -2 5.52 0.86
21 -22 -2 6.93 0.88
-23 11 2 1.47 0.54
11 12 2 2.1 0.53
23 -12 -2 2.24 0.52
23 -11 2 3.29 0.52
12 -23 2 2.17 0.49
-11 -12 2 3 0.68
-12 -11 -2 3.51 0.75
11 -23 -2 1.46 0.46
-12 -11 2 3.98 0.76
-11 -12 -2 3.85 0.76
11 -23 2 3.45 0.53
12 11 2 2.33 0.53
23 -11 -2 2.17 0.53
-13 -10 -2 6.42 0.82
-23 10 2 3.72 0.69
23 -10 2 6.98 0.83
-13 23 2 3.67 0.71
13 -23 2 4.97 0.7
23 -13 -2 4.01 0.61
10 13 2 5.96 0.81
10 -23 -2 5.6 0.77
23 -10 -2 4.07 0.6
-13 -10 2 3.69 0.74
13 10 2 3.92 0.58
23 -13 2 4.34 0.6
-10 -13 -2 6.57 1.16
10 -23 2 4.43 0.57
-23 13 2 3.68 0.67
9 14 2 3.21 0.52
9 -23 -2 2.55 0.48
14 -23 2 1.76 0.42
-14 23 2 2.66 0.68
23 -14 -2 2.55 0.47
23 -9 2 3.8 0.57
-23 9 2 2.18 0.62
-14 -9 -2 1.55 0.61
14 -23 2 2.62 0.46
-23 9 -2 0.56 0.55
9 -23 2 2.3 0.45
-23 14 2 1.52 0.58
14 9 2 1.01 0.47
23 -9 -2 1.33 0.47
-9 -14 -2 2.56 0.68
-14 -9 2 1.52 0.61
23 -14 2 1.75 0.5
23 -8 2 0.58 0.49
23 -15 -2 0.53 0.45
8 15 2 0.42 0.43
-23 8 2 0.79 0.58
-23 15 -2 0.57 0.52
-15 23 2 0.54 0.6
15 -23 2 0.58 0.39
8 -23 -2 0.86 0.44
-8 -15 2 1.54 0.64
-23 15 2 0.49 0.54
15 8 2 0.17 0.42
8 -23 2 0.7 0.4
-8 -15 -2 1.47 0.6
23 -15 2 0.07 0.46
-23 8 -2 0.25 0.53
23 -8 -2 -0.16 0.37
7 -23 -2 3.18 0.49
-23 16 -2 2.07 0.59
-7 -16 2 2.79 0.63
23 -7 2 3.71 0.58
-23 7 2 3.03 0.64
23 -16 -2 2.1 0.48
16 -23 2 1.73 0.46
-16 23 2 2.28 0.72
7 16 2 2.39 0.5
23 -16 2 2.66 0.52
-23 7 -2 2.82 0.63
16 7 2 1.94 0.48
7 -23 2 3.13 0.48
-23 16 2 1.91 0.55
-7 -16 -2 2.54 0.62
-23 6 2 0.82 0.57
17 -23 2 0 0.38
-23 17 -2 0.22 0.49
23 -6 2 0.25 0.45
23 -17 -2 0.06 0.42
-17 23 2 0.42 0.62
6 17 2 0.06 0.43
-6 -17 2 0.93 0.59
6 -23 -2 0.43 0.37
6 -23 2 1.44 0.42
17 6 2 0.54 0.42
-23 17 2 0.25 0.52
-6 -17 -2 1.11 0.56
17 -23 -2 1.13 0.45
23 -17 2 0.87 0.47
-23 6 -2 0.88 0.57
5 -23 -2 6.95 0.76
5 18 2 5.99 0.76
18 -23 2 4.19 0.67
-5 -18 2 5.68 1
23 -18 -2 5.38 0.74
-18 23 2 6.46 1.09
-23 5 2 6.8 1.03
23 -5 2 5.94 0.81
-23 18 -2 5.9 0.87
18 5 2 5.8 0.79
18 -23 -2 6.94 0.83
-5 -18 -2 5.29 0.75
23 -18 2 5.55 0.83
5 -23 2 6.34 0.8
-23 5 -2 6.42 1.05
-23 18 2 5.88 0.87
23 -19 -2 0.25 0.42
4 19 2 0.18 0.29
-23 4 2 0.24 0.56
23 -4 2 0.37 0.46
-23 19 -2 0.16 0.49
4 -23 -2 -0.05 0.41
19 -23 2 -0.3 0.3
-19 23 2 0.44 0.55
-19 23 -2 -0.15 0.37
23 -19 2 0.63 0.46
19 -23 -2 0.36 0.44
-23 19 2 0.36 0.48
4 -23 2 0.47 0.4
-23 4 -2 0.34 0.57
-19 23 -2 0.62 0.55
19 4 2 0.41 0.38
-12 -12 -2 2.23 0.66
12 -24 2 1.82 0.41
24 -12 -2 1.18 0.4
24 -12 2 1.64 0.46
12 12 2 1.63 0.44
-12 -12 2 1.9 0.62
-11 -13 2 3.32 0.66
13 -24 2 2.6 0.42
-13 -11 -2 2.25 0.55
11 13 2 2.04 0.44
11 -24 -2 1.78 0.36
24 -13 -2 2.08 0.43
-11 -13 -2 3.96 0.68
13 11 2 2.64 0.47
24 -13 2 2.95 0.49
11 -24 2 3.36 0.48
-13 -11 2 1.87 0.57
-10 -14 2 0.68 0.56
10 -24 -2 0.56 0.36
24 -10 2 0.84 0.46
-24 10 2 0.4 0.44
10 14 2 0.36 0.38
-14 24 2 -0.08 0.29
14 -24 2 0.12 0.29
24 -14 -2 0.33 0.38
-14 -10 -2 0.2 0.52
10 -24 2 1 0.39
-24 14 2 0.12 0.25
-10 -14 -2 1.33 0.59
24 -14 2 0.86 0.43
14 10 2 0.13 0.38
-24 10 -2 -0.22 0.37
-14 -10 2 0.64 0.56
-14 24 -2 0.02 0.33
24 -9 2 0.98 0.45
-15 24 2 0.65 0.5
-24 9 2 0.34 0.47
-9 -15 2 1.55 0.58
9 -24 -2 0.61 0.38
24 -15 -2 0.7 0.39
9 15 2 0.67 0.36
9 -24 2 0.32 0.38
-24 9 -2 -0.17 0.48
-9 -15 -2 1.32 0.58
24 -15 2 0.21 0.44
-15 24 -2 0.17 0.51
-24 15 2 0.32 0.4
15 9 2 0.31 0.38
8 16 2 1.01 0.31
-8 -16 2 2.02 0.62
-24 8 2 1.55 0.55
24 -8 2 1.52 0.45
-16 24 2 1.17 0.56
24 -16 -2 1.2 0.4
8 -24 -2 1.6 0.41
24 -16 2 2.47 0.5
-24 8 -2 1.59 0.58
-8 -16 -2 2.51 0.6
16 -24 -2 2.34 0.49
-24 16 2 2.04 0.53
8 -24 2 2.15 0.44
-16 24 -2 1.55 0.56
16 8 2 1.72 0.4
-7 -17 2 3.52 0.69
24 -17 -2 2.41 0.45
-17 24 2 3.45 0.68
7 -24 -2 2.57 0.45
-24 7 2 1.96 0.6
24 -7 2 3.18 0.54
7 -24 2 3.32 0.5
-7 -17 -2 3.75 0.66
-24 7 -2 3.09 0.6
17 -24 -2 3.81 0.53
24 -17 2 3.33 0.51
-17 24 -2 3.88 0.7
-24 17 2 3.26 0.59
17 7 2 2.19 0.39
0 0 3 0.08 0.21
0 0 -3 0.21 0.29
0 0 3 -0.13 0.25
0 0 3 -0.05 0.1
-1 1 -3 0.49 0.23
1 0 3 0.04 0.26
0 -1 -3 -0.26 0.28
-1 1 -3 -0.04 0.3
1 -1 -3 0.64 0.21
1 -1 3 0.46 0.25
0 -1 3 -0.02 0.1
1 0 -3 0 0.15
-1 0 -3 0.24 0.24
0 1 -3 -0.03 0.2
0 1 -3 0.38 0.27
-1 0 3 -0.06 0.14
1 -1 3 -0.01 0.25
0 -1 -3 0.22 0.24
0 -1 3 -0.12 0.32
-1 0 -3 0.58 0.3
1 -1 -3 -0.04 0.16
-1 1 -3 0.14 0.2
0 -1 -3 0.44 0.22
1 0 -3 0.48 0.23
1 -1 -3 0.31 0.27
-1 0 3 0.26 0.27
0 1 3 -0.17 0.27
1 0 -3 0.19 0.13
-1 1 3 -0.04 0.14
2 -1 -3 2.56 0.38
1 -2 -3 3.51 0.44
-2 1 -3 3.05 0.49
-1 -1 -3 3.25 0.4
1 1 -3 2.71 0.36
-1 -1 -3 2.55 0.3
1 -2 3 2.72 0.39
-1 -1 -3 2.57 0.31
1 -2 3 3.59 0.48
-2 1 3 2.67 0.41
-2 1 -3 3.71 0.45
1 -2 -3 2.85 0.44
-2 1 -3 2.45 0.29
2 -1 -3 2.28 0.32
1 -2 -3 2.84 0.38
-1 2 -3 3.69 0.43
-1 -1 3 3.68 0.48
2 -1 3 2.67 0.3
-2 0 3 14.87 1.15
-2 0 3 14.35 1.06
2 0 -3 15.96 1.06
0 -2 3 15.07 1.04
0 -2 -3 14.79 1.2
2 -2 -3 14.66 1.14
0 -2 3 16.71 1.21
0 -2 3 13.63 1.03
2 -2 3 16.18 1.13
2 -2 -3 14.83 1.08
0 -2 -3 15.06 1.09
0 -2 -3 15.24 1.1
-2 0 -3 15.51 1.11
-2 2 -3 14.97 1.1
0 2 -3 15.17 1.07
-2 2 -3 14.74 1.12
-2 0 -3 16.09 1.19
2 -3 3 13.2 1.01
-2 -1 -3 12.79 0.95
1 -3 -3 12.34 0.93
-1 -2 3 12.74 0.9
-3 1 3 12.11 1
2 1 -3 11.96 0.9
-2 -1 -3 12.87 0.84
-1 -2 3 12.67 1.05
-3 1 3 10.1 0.94
1 -3 -3 12.57 0.97
1 -3 -3 12.31 1.07
-3 2 -3 11.51 1.01
3 -2 -3 12.26 0.89
-3 2 -3 12.25 0.93
-2 -1 -3 13.15 1.08
-1 3 -3 12.12 0.95
-1 -2 -3 12.8 0.99
1 -3 3 12.99 1
3 -2 3 13.28 0.96
-3 1 -3 12.93 1.04
-2 3 -3 12.77 0.97
2 -3 -3 13.24 0.99
1 2 -3 13.19 0.98
2 -3 -3 14.41 1.05
1 -3 3 13.73 1.08
-2 3 -3 12.42 1.01
-1 -2 -3 14.73 1.16
3 -1 -3 12.01 0.91
-1 -2 -3 12.28 0.97
-3 1 -3 14.21 1.1
-2 -1 3 13.91 0.97
-2 -1 3 13.36 1.09
2 -3 -3 12.49 1.09
-3 3 -3 58.18 4.08
-3 0 3 59.54 4.06
0 -3 -3 60.47 4.06
3 -3 -3 62.64 4.04
3 0 -3 57.42 4.01
-3 0 -3 61.85 4.08
-3 3 -3 60.11 4.09
3 -3 -3 61.83 4.11
-3 0 3 59.68 4.11
0 -3 3 60.8 4.05
0 3 -3 60.5 4.05
0 -3 -3 56.94 4.08
0 -3 3 62.23 4.14
-3 0 -3 59.11 4.12
0 -3 -3 67.05 4.17
-2 -2 -3 7.93 0.71
-2 4 -3 9.34 0.75
-4 2 -3 8.91 0.85
2 -4 3 9.32 0.89
-2 -2 -3 9.82 0.85
-2 -2 3 9.5 0.98
-4 2 3 8.55 0.84
4 -2 3 9.3 0.73
2 -4 -3 9.21 0.83
4 -2 -3 8.51 0.64
2 -4 -3 9.8 0.95
-2 -2 -3 11.27 1.05
-4 2 3 7.44 0.82
2 2 -3 8.37 0.71
-2 -2 3 10.04 0.82
2 -4 -3 10.16 0.81
-4 2 -3 9.44 0.76
3 -4 3 46.4 3.34
1 -4 -3 47.61 3.34
3 1 -3 47.55 3.27
4 -3 -3 52 3.28
1 -4 -3 54.11 3.44
-4 1 3 43.86 3.33
-1 -3 3 52.15 3.4
-4 3 -3 48.06 3.37
-3 -1 -3 44.53 3.24
-1 4 -3 46.86 3.33
-3 -1 -3 52.09 3.33
-1 -3 3 42.5 3.31
4 -1 3 49.58 3.24
1 -4 -3 53.37 3.34
-3 -1 -3 52.2 3.43
-4 3 -3 50.8 3.34
-4 1 3 50.77 3.37
-3 -1 3 62.56 4.19
3 -4 -3 61.05 4.23
4 -3 3 53.16 4.16
1 -4 3 56.35 4.19
-3 4 -3 63.26 4.18
-3 -1 3 65.19 4.24
1 3 -3 60.11 4.17
3 -4 -3 62.69 4.19
-4 1 -3 62.34 4.24
1 -4 3 67.57 4.25
-1 -3 -3 61.22 4.2
-1 -3 -3 59.68 4.16
3 -4 -3 63.29 4.17
-4 1 -3 65.45 4.19
-1 -3 -3 65.72 4.29
-3 4 -3 65.51 4.22
-4 0 3 32.1 2.3
0 -4 -3 33.89 2.37
0 -4 3 28.46 2.24
4 -4 -3 34.69 2.28
-4 0 -3 33.55 2.26
0 -4 -3 33.58 2.24
0 -4 -3 32.85 2.25
-4 0 3 31.35 2.26
4 -4 -3 33.33 2.2
-4 4 -3 31.85 2.22
4 0 -3 28.7 2.13
-4 0 -3 32.91 2.32
4 -4 3 28.62 2.24
0 4 -3 31.51 2.23
0 -4 3 35.19 2.33
-4 4 -3 32.15 2.29
-5 3 -3 13.27 1.04
-2 -3 3 12.43 1.15
3 2 -3 12.46 0.94
-5 2 3 10.75 1.06
-3 -2 -3 13.29 1.18
5 -2 3 12.92 0.94
-3 -2 -3 12.49 1.05
-5 3 -3 13 1.13
2 -5 -3 13.98 1.24
-2 5 -3 12.29 0.97
-3 -2 -3 12.62 0.95
5 -3 -3 11.64 0.87
-2 -3 3 10.93 1.02
-5 2 3 12.64 1.07
2 -5 -3 12.38 1.01
2 -5 -3 13.06 0.99
3 -5 3 13.14 1.08
-3 5 -3 4.01 0.49
-2 -3 -3 3.25 0.47
-2 -3 -3 3.73 0.75
-5 3 3 2.79 0.51
-5 2 -3 3.26 0.56
3 -5 -3 3.31 0.51
-3 -2 3 2.95 0.5
-3 -2 3 5.04 0.68
5 -3 3 2.77 0.43
2 3 -3 2.72 0.43
3 -5 -3 2.61 0.55
-5 2 -3 3.5 0.54
3 -5 -3 3.94 0.53
2 -5 3 3.33 0.59
2 -5 3 2.18 0.47
-2 -3 -3 3.45 0.45
5 -1 3 11.71 0.86
-4 -1 -3 10.43 0.85
-4 -1 -3 12.5 1.03
-1 -4 3 12.27 1.14
-5 4 -3 11.54 1
5 -4 -3 12.93 0.9
-5 4 -3 12.17 1.05
-1 -4 3 10.17 1.01
4 -5 3 11.02 1.05
-1 5 -3 12.6 0.94
-5 1 3 10.31 1.06
-5 1 3 12.67 1.12
1 -5 -3 12.77 1.21
-4 -1 -3 11.98 1.16
1 -5 -3 11.79 1.02
1 -5 -3 12 1.03
-4 5 -3 13.86 1.03
-1 -4 -3 14.91 1.33
-4 -1 3 13.53 1.15
-5 1 -3 13.55 1.03
-5 1 -3 13.88 1.19
4 -5 -3 14.11 1.04
1 4 -3 11.97 1.04
-1 -4 -3 13.34 1.05
-4 5 -3 13.22 1.15
1 -5 3 13.66 1.18
4 -5 -3 12.9 1.14
-4 -1 3 13.18 1.15
5 -4 3 11.71 1.08
4 -5 -3 12.39 1.2
1 -5 3 12.37 1.11
0 -5 -3 135.86 8.73
0 -5 -3 125.11 8.62
0 -5 -3 132.09 8.61
-5 0 3 133.26 8.65
-5 0 -3 132.04 8.61
0 -5 3 117.94 8.62
0 -5 3 133.64 8.67
-5 0 3 127.5 8.65
-5 5 -3 133.05 8.66
5 -5 3 112.03 8.6
0 5 -3 128.51 8.59
5 -5 -3 130.44 8.63
-5 5 -3 130.18 8.6
-5 0 -3 135.02 8.7
5 -5 -3 130.57 8.57
3 -6 -3 1.03 0.52
-3 -3 3 1.79 0.61
3 -6 3 1.52 0.5
3 -6 3 2.14 0.6
-3 -3 -3 1.59 0.42
-6 3 -3 1.76 0.56
6 -3 3 1.53 0.38
3 -6 -3 2.16 0.52
-3 -3 -3 1.74 0.7
-6 3 3 1.52 0.51
3 3 -3 1.69 0.38
-3 -3 -3 1.78 0.41
3 -6 -3 1.44 0.58
-3 6 -3 2.05 0.53
-6 3 -3 1.79 0.39
-3 -3 3 1.76 0.51
-6 4 -3 174.22 11.96
2 -6 -3 183.35 11.92
-2 6 -3 176.95 11.91
-4 -2 -3 188.88 12.02
-2 -4 3 191.27 11.98
-6 4 -3 194.67 11.9
4 -6 3 184.62 11.94
2 -6 -3 193.51 11.94
6 -2 3 155.82 11.84
6 -4 -3 168.13 11.82
-4 -2 -3 166.83 11.85
2 -6 -3 181.25 12.01
-4 -2 -3 192.57 11.91
-6 2 3 177.89 11.95
-6 2 3 189.43 11.95
-2 -4 3 151.69 11.91
-2 -4 -3 198.9 13.29
2 4 -3 201.89 13.29
2 -6 3 186.09 13.35
-4 -2 3 215.99 13.37
-2 -4 -3 203.37 13.32
6 -4 3 172.21 13.28
-4 6 -3 202.42 13.31
-4 -2 3 200.26 13.35
-6 2 -3 207.24 13.31
2 -6 3 210.83 13.38
-6 4 3 195.37 13.37
-6 2 -3 200.74 13.38
4 -6 -3 196.7 13.39
-2 -4 -3 217.31 13.45
4 -6 -3 197.72 13.32
4 -6 -3 206.01 13.34
6 -1 3 45.38 3.67
6 -5 -3 60.92 3.81
-5 -1 -3 46.63 3.68
-6 5 -3 59.94 3.76
-6 1 3 55.73 3.82
-1 6 -3 56.71 3.75
6 -5 -3 58.87 3.71
-5 -1 -3 59.1 3.92
5 -6 3 49.42 3.78
-6 1 3 56.15 3.84
-1 -5 3 57.47 3.86
-6 5 -3 56.08 3.85
1 -6 -3 55.16 3.8
-5 -1 -3 58 3.78
1 -6 -3 56.7 3.92
1 -6 -3 57.34 3.79
-1 -5 3 48.11 3.79
5 -6 -3 63.86 4.38
1 -6 3 66.12 4.47
1 -6 3 57.06 4.44
5 -6 -3 66.81 4.5
-6 1 -3 67.46 4.39
-1 -5 -3 61.31 4.39
5 -6 -3 66.72 4.42
-5 -1 3 68.43 4.47
-5 -1 3 68.81 4.46
-1 -5 -3 59.33 4.38
-6 1 -3 64.42 4.49
6 -5 3 59.7 4.39
-1 -5 -3 66.36 4.53
-5 6 -3 66.71 4.41
1 5 -3 66.71 4.37
6 0 -3 29.83 2.31
-6 0 -3 34.2 2.23
-6 0 3 33.9 2.4
0 6 -3 26.99 2.26
-6 0 -3 30.54 2.31
6 -6 -3 32.21 2.24
-6 6 -3 32.78 2.34
-6 6 -3 30.67 2.28
-6 0 -3 32.5 2.42
0 -6 3 28.06 2.33
6 -6 3 28.61 2.28
-6 0 3 25.99 2.33
0 -6 -3 34.87 2.3
0 -6 3 32.41 2.38
6 -6 -3 32.98 2.3
-6 6 -3 33.33 2.28
-6 0 3 33.62 2.37
0 -6 -3 31.63 2.3
0 6 -3 33.38 2.26
0 -6 -3 33 2.44
4 -7 3 31.15 2.35
-7 4 -3 32.74 2.35
-4 -3 -3 29.95 2.2
3 4 3 26.37 2.18
4 -7 3 30.7 2.26
-4 -3 -3 35.98 2.47
-4 -3 -3 33.57 2.23
4 3 -3 29.88 2.26
-7 3 3 32.09 2.36
-7 3 3 28.34 2.29
3 -7 -3 32.25 2.26
3 -7 -3 32.47 2.29
3 -7 -3 34.11 2.43
-4 -3 -3 29.99 2.29
7 -3 3 29.89 2.19
-3 -4 3 27.11 2.29
-3 7 -3 33.13 2.23
4 -7 3 33.38 2.33
-3 -4 3 31.04 2.34
7 -4 -3 30.08 2.26
-7 4 -3 34.29 2.22
-3 -4 3 34.69 2.37
3 4 -3 38.5 2.72
-4 -3 3 35.61 2.79
-4 7 -3 33.34 2.75
3 -7 3 36.84 2.75
-4 -3 3 46.27 2.88
4 -7 -3 41.06 2.91
-7 3 -3 41.63 2.9
4 3 3 33.26 2.7
-4 7 -3 41.38 2.79
-3 -4 -3 43.4 2.76
-3 -4 -3 44.29 2.99
-3 -4 -3 40.88 2.82
7 -4 3 36.68 2.73
3 -7 3 38.86 2.84
-7 3 -3 33.09 2.8
-4 -3 3 37.2 2.82
3 4 -3 39.11 2.78
4 -7 -3 40.27 2.8
-7 3 -3 43.43 2.77
-7 4 3 36.85 2.83
-3 -4 -3 43.61 2.76
4 -7 -3 41.33 2.77
3 -7 3 45.13 2.86
7 -3 -3 38.15 2.78
-2 -5 3 26.77 2.39
-7 2 3 34.24 2.4
-7 5 -3 34.96 2.45
-5 -2 -3 26.67 2.33
-7 5 -3 28.69 2.32
-7 5 -3 36.59 2.32
-7 2 3 31.28 2.41
-5 -2 -3 35.34 2.32
5 -7 3 33.06 2.43
2 -7 -3 35.02 2.5
-2 7 -3 34.19 2.32
-7 2 3 32.45 2.46
-2 -5 3 31.66 2.42
-2 -5 3 36.49 2.48
5 2 -3 31.55 2.38
2 -7 -3 36.39 2.39
2 5 3 29.72 2.3
2 -7 -3 32.01 2.39
7 -5 -3 35.68 2.39
-5 -2 -3 36.46 2.56
5 -7 3 30.69 2.33
5 -7 -3 31.33 2.31
-5 7 -3 30.9 2.33
7 -2 -3 30.67 2.32
5 2 3 28.45 2.24
2 -7 3 35.97 2.47
5 -7 -3 32.87 2.47
-2 -5 -3 34.03 2.3
-5 -2 3 34.24 2.4
2 5 -3 32.4 2.28
2 5 -3 30.46 2.32
-5 -2 3 30.75 2.4
5 -7 -3 33.45 2.34
-2 -5 -3 34.13 2.52
-7 2 -3 33.21 2.29
-7 2 -3 34.16 2.46
-2 -5 -3 31.3 2.36
-5 7 -3 33.12 2.32
7 -5 3 29.58 2.28
-7 5 3 31.29 2.38
-7 2 -3 30.6 2.36
2 -7 3 31.09 2.4
-7 5 3 32.21 2.35
-2 -5 -3 32.6 2.3
-1 -6 3 148.53 11.46
-7 1 3 179.47 11.54
7 -1 3 158.06 11.38
-1 -6 3 181.97 11.52
-6 -1 -3 162.53 11.46
-7 1 3 186.51 11.48
7 -6 -3 162.52 11.37
6 1 -3 168.54 11.45
-1 -6 3 157.15 11.44
-1 7 -3 154.9 11.42
-7 1 3 160.75 11.47
1 6 3 164.33 11.39
-6 -1 -3 173.99 11.55
6 -7 3 167.43 11.4
-7 6 -3 192.89 11.43
-6 -1 -3 189.24 11.43
-7 6 -3 163.31 11.43
6 -7 3 161.55 11.46
1 -7 -3 171.39 11.46
7 -6 -3 189.73 11.48
-7 6 -3 183.8 11.52
-1 7 -3 182.04 11.43
1 -7 -3 195.2 11.48
1 -7 -3 165.86 11.54
-7 6 3 169.13 11.2
-6 -1 3 175.26 11.25
-7 1 -3 172.9 11.29
6 -7 -3 162.74 11.18
-6 -1 3 139.56 11.2
7 -6 3 157.61 11.19
6 1 3 160.95 11.14
1 -7 3 159.9 11.24
6 -7 -3 180.72 11.31
-7 1 -3 159.06 11.23
-1 -6 -3 180.51 11.21
1 6 -3 161.74 11.19
-6 7 -3 169.02 11.21
-1 -6 -3 156.52 11.19
-7 1 -3 175.55 11.17
1 6 -3 175.16 11.18
1 -7 3 180.67 11.28
6 -7 -3 175.48 11.22
7 -1 -3 157.74 11.2
-1 7 3 162.94 11.15
-6 -1 3 179.35 11.28
-1 -6 -3 179.47 11.33
-6 7 -3 184.64 11.19
-1 -6 -3 155.51 11.17
-7 7 3 31.93 2.3
-7 0 -3 32.34 2.45
7 -7 3 28.67 2.31
0 -7 3 35.44 2.44
0 7 -3 30.23 2.3
7 0 3 31.24 2.22
-7 0 3 31.18 2.44
7 0 -3 31.31 2.33
0 -7 -3 32.07 2.31
0 7 3 32.28 2.25
-7 0 3 32.58 2.36
-7 7 -3 32.87 2.39
0 -7 -3 32.28 2.3
-7 0 -3 31.99 2.34
0 -7 -3 32.03 2.47
-7 7 -3 33.72 2.29
0 -7 -3 33.17 2.33
0 -7 3 27.46 2.34
-7 0 -3 31.77 2.24
-7 7 -3 30.69 2.33
7 -7 -3 31.81 2.31
7 -7 -3 26.29 2.16
7 -7 -3 29.27 2.21
-7 0 3 28.37 2.33
0 -7 3 29.77 2.3
0 7 -3 30.13 2.28
7 -7 3 27.99 2.2
4 -8 3 14.24 1.35
-4 -4 3 14.61 1.3
-8 4 3 11.2 1.23
-8 4 -3 11.37 1.17
-4 8 -3 12.45 1.05
4 -8 -3 13.62 1.25
-8 4 -3 11.96 1.08
4 4 3 12.26 1.12
-4 -4 -3 12.51 1.15
8 -4 3 11.24 1.02
4 -8 -3 12.3 1.36
4 -8 -3 11.7 1.21
8 -4 -3 12.73 1.14
4 -8 3 10.82 1.23
-4 8 3 10.95 1.06
-4 -4 -3 12.77 1.42
-4 -4 3 11.9 1.31
-4 -4 -3 13.27 1.28
4 4 -3 13.23 1.21
-8 4 3 12.55 1.2
-4 8 -3 12.69 1.15
-4 -4 -3 11.13 1.06
-8 4 -3 12.61 1.27
-4 -4 3 10.58 1.22
4 -8 3 12.38 1.13
-3 8 -3 38.37 2.85
-5 -3 -3 41.69 2.93
3 -8 -3 39.81 2.87
-3 8 -3 41.44 2.84
-3 -5 3 33.27 2.88
5 -8 3 41.56 2.94
3 -8 -3 42.52 2.92
-8 5 -3 42.76 2.81
-3 -5 3 42.81 2.98
-8 5 -3 36.15 2.84
-5 -3 -3 46.19 3.15
8 -3 3 39.9 2.8
-5 -3 -3 43.15 2.87
3 5 3 38.68 2.8
3 -8 -3 43.1 3.05
5 -8 3 37.92 2.96
-8 3 3 40.76 3.01
-3 -5 3 36.53 2.9
-8 3 3 38.72 2.93
-8 5 -3 41.23 2.97
8 -5 -3 40.82 2.89
5 -8 3 40.64 2.87
5 3 -3 40.54 2.88
-3 -5 -3 20.2 1.58
-5 8 -3 21.59 1.56
-5 -3 3 23.13 1.81
-3 -5 -3 20.96 1.66
8 -5 3 16.99 1.47
-8 5 3 23.61 1.69
-8 5 3 17.79 1.59
-3 -5 -3 20.7 1.64
3 -8 3 22.53 1.82
3 5 -3 21.58 1.68
5 -8 -3 18.13 1.63
5 3 3 21.43 1.58
3 -8 3 20.71 1.76
8 -5 3 18.27 1.55
5 3 3 19.59 1.58
5 -8 -3 20.76 1.65
-5 -3 3 18.7 1.69
-3 -5 -3 22.64 1.91
8 -3 -3 20.95 1.67
5 -8 -3 19.95 1.78
3 -8 3 21.16 1.66
-5 8 -3 21.54 1.66
-8 3 -3 19.79 1.68
-8 3 -3 20.01 1.75
-5 -3 3 19.53 1.74
-8 3 -3 19.6 1.5
-8 5 3 19.09 1.74
-8 6 -3 70.94 4.7
-2 -6 3 61.9 4.62
-8 6 -3 68.78 4.57
-6 -2 -3 59.54 4.59
6 2 -3 67.49 4.6
-2 -6 3 68.82 4.69
-8 2 3 68.5 4.63
8 -6 -3 74.12 4.66
2 -8 -3 69.96 4.63
-2 8 -3 66.74 4.56
2 6 3 65.83 4.53
-8 2 3 62.19 4.64
-6 -2 -3 65.82 4.6
8 -2 3 67.67 4.54
-2 8 -3 63.38 4.56
6 -8 3 67.41 4.56
-8 2 3 64.57 4.7
2 -8 -3 67.08 4.75
2 -8 -3 68.08 4.62
-8 6 -3 63.21 4.58
-6 -2 -3 69.44 4.76
6 -8 3 63.33 4.65
-6 -2 -3 69.75 4.55
2 6 -3 80.26 5.52
-2 -6 -3 79.03 5.53
-6 8 -3 83.71 5.54
2 -8 3 83.67 5.62
2 6 -3 78.62 5.48
6 -8 -3 86.74 5.56
-2 -6 -3 83.84 5.51
-6 8 -3 89.41 5.52
2 -8 3 79.02 5.5
-6 -2 3 75.53 5.58
-8 6 3 89.89 5.56
6 2 3 85.64 5.48
6 -8 -3 88.41 5.68
-8 2 -3 86.65 5.66
-6 -2 3 81.4 5.54
8 -6 3 70.06 5.44
-8 2 -3 71.9 5.47
8 -6 3 69.48 5.49
2 -8 3 72.72 5.58
8 -2 -3 85.69 5.54
-6 -2 3 83.07 5.58
-2 -6 -3 90.63 5.56
6 -8 -3 78.19 5.52
8 -6 3 67.01 5.43
-8 2 -3 82.6 5.59
-2 -6 -3 86.81 5.71
-1 8 -3 67.92 4.59
-8 1 3 62.54 4.73
8 -7 -3 72.91 4.66
-7 -1 -3 72.85 4.78
-8 1 3 64.7 4.65
-7 -1 -3 64.72 4.56
-7 -1 -3 64.85 4.65
-8 7 -3 70.42 4.74
-1 -7 3 71.82 4.74
-1 8 -3 62.41 4.59
-8 1 3 62.71 4.66
1 -8 -3 68.9 4.62
1 7 3 67.12 4.55
8 -7 -3 63.94 4.52
7 -8 3 58.96 4.64
7 1 -3 65.93 4.61
-7 8 3 66.37 4.63
7 -8 3 65.14 4.57
1 -8 -3 71.23 4.81
-8 7 -3 67.4 4.63
-8 7 -3 71.62 4.62
1 -8 -3 68.57 4.63
8 -1 3 68.24 4.56
-1 -7 3 65.9 4.65
1 -8 3 44.8 3.62
8 -7 3 45.17 3.47
7 -8 -3 46.51 3.52
8 -7 3 42.13 3.54
-1 -7 -3 51.65 3.6
-1 -7 -3 55.56 3.57
-8 7 3 55.3 3.61
-1 8 3 51.79 3.5
7 -8 -3 54.99 3.63
-7 8 -3 54.5 3.54
-8 1 -3 54.03 3.7
-8 1 -3 51.86 3.65
1 7 -3 52.08 3.55
-8 1 -3 44.33 3.47
1 -8 3 56.48 3.7
-1 -7 -3 47.26 3.54
7 -8 -3 50.14 3.48
7 1 3 54.05 3.5
-7 8 -3 50.94 3.56
-7 -1 3 50.59 3.68
7 -8 -3 56.3 3.76
-7 -1 3 52 3.64
1 7 -3 50.25 3.57
-1 -7 -3 51.56 3.74
1 -8 3 44.67 3.51
-7 -1 3 48.04 3.6
8 -1 -3 51.74 3.58
1 -8 3 52.55 3.56
8 0 -3 104.66 6.82
-8 8 -3 105.64 6.91
-8 0 3 104.44 6.86
8 -8 3 84.41 6.7
0 -8 -3 101.91 6.82
-8 0 -3 102.32 6.85
-8 0 -3 84.06 6.71
0 -8 -3 100.16 6.95
-8 0 3 95.38 6.84
0 -8 -3 108.72 6.85
8 -8 3 94.6 6.73
-8 8 3 102.28 6.8
0 -8 3 87.43 6.77
0 -8 -3 100.16 6.81
0 -8 3 104.98 6.92
0 8 -3 101.56 6.8
0 8 3 102.35 6.74
8 -8 -3 104.52 6.84
-8 0 -3 104.85 6.96
-8 8 -3 109.14 6.78
0 -8 3 88.16 6.76
-8 8 -3 103.72 6.81
0 8 -3 104.84 6.78
8 -8 -3 98.5 6.71
8 0 3 108.36 6.75
-5 -4 -3 183.78 11.36
-4 -5 3 179.18 11.25
5 -9 3 173.17 11.21
-9 4 3 155.38 11.25
9 -4 3 170.92 11.08
5 -9 3 144.87 11.2
5 4 -3 168.39 11.15
4 -9 -3 170.62 11.17
4 -9 -3 169.59 11.12
-4 9 -3 167.83 11.15
9 -5 -3 170.18 11.15
4 -9 -3 176.06 11.3
5 -9 3 165.53 11.12
-4 9 -3 151.07 11.13
-5 -4 -3 168.08 11.14
-4 9 -3 165.72 11.13
-9 4 3 172.93 11.2
-5 -4 -3 154.14 11.15
-9 5 -3 149.67 11.1
-9 5 -3 159.86 11.17
4 -9 -3 173.95 11.2
-9 5 -3 176.29 11.27
4 5 3 169.24 11.09
-4 -5 3 164.14 11.17
-5 9 -3 196.45 12.37
-9 4 -3 183.43 12.4
9 -5 3 181.97 12.28
-5 9 -3 175.23 12.32
4 5 -3 193.44 12.37
-5 -4 3 187.42 12.42
5 4 3 184.21 12.29
-5 -4 3 177.3 12.36
5 -9 -3 187.93 12.5
-9 4 -3 189.99 12.47
-4 -5 -3 191.08 12.53
4 -9 3 189.11 12.33
5 -9 -3 186.34 12.37
4 -9 3 191.94 12.43
-4 -5 -3 191.82 12.36
5 -9 -3 186.81 12.39
9 -4 -3 187.99 12.35
-5 9 -3 193.97 12.36
-9 5 3 168.41 12.44
-4 9 3 174.04 12.31
-4 -5 -3 182.6 12.37
-9 4 -3 159.32 12.29
-9 5 3 195.08 12.39
-9 6 -3 56.06 4.53
3 6 3 68.83 4.54
-9 3 3 67.28 4.75
-6 -3 -3 69.37 4.63
3 -9 -3 61.97 4.74
-6 -3 -3 63.2 4.61
6 -9 3 69.04 4.56
-3 -6 3 67.05 4.72
6 -9 3 56.94 4.61
9 -6 -3 73.9 4.67
-9 6 -3 66.53 4.59
6 -9 3 57.44 4.67
3 -9 -3 67.76 4.6
-9 6 -3 68.64 4.73
-3 9 -3 62.49 4.55
3 -9 -3 72.59 4.67
-3 -6 3 65.69 4.63
-3 9 -3 68.09 4.57
-6 -3 -3 69.33 4.56
-9 3 3 65.58 4.65
9 -3 3 68.92 4.54
9 -6 -3 65.41 4.5
9 -6 -3 67.57 4.6
3 -9 -3 63.61 4.54
-6 -3 -3 73.04 4.81
6 3 -3 68.86 4.61
-9 3 -3 47.81 3.93
6 -9 -3 60.67 4.06
-3 -6 -3 62.06 4.01
-9 6 3 55.47 4.14
-9 6 3 60.47 4.02
-9 3 -3 57.32 4.14
-3 -6 -3 64.45 4.31
9 -6 3 49.1 3.91
3 -9 3 48.6 4.08
6 -9 -3 52.21 4.01
6 -9 -3 59.79 4.17
3 -9 3 60.45 4.16
9 -3 -3 61.97 4.05
3 6 -3 58.26 4.01
3 -9 3 59.15 4
-6 -3 3 60.53 4.13
-9 6 3 53.95 4.02
-6 9 -3 52.28 3.95
9 -6 3 58.26 3.93
-9 3 -3 58.35 4.07
-6 9 -3 60.57 4.03
-3 -6 -3 57.95 4.03
-6 9 -3 61.08 3.99
6 3 3 60.24 3.96
-6 -3 3 57.89 4.07
2 -9 -3 163.79 10.48
-7 -2 -3 158.14 10.48
-2 9 -3 143.61 10.4
7 2 -3 158.22 10.43
-2 -7 3 148 10.44
2 -9 -3 161.65 10.46
-9 7 -3 149.44 10.52
-9 7 -3 155.36 10.43
2 -9 -3 157.11 10.6
9 -2 3 160.25 10.37
-7 -2 -3 158.68 10.6
-2 9 -3 153.91 10.42
-9 2 3 141.09 10.55
7 -9 3 161.84 10.4
-7 -2 -3 141.85 10.39
9 -7 -3 167.1 10.37
-9 2 3 164.38 10.49
9 -7 -3 168.07 10.48
7 -9 3 136.95 10.46
-9 2 3 146.51 10.48
-9 7 -3 162.54 10.42
-7 -2 -3 156.01 10.45
-2 -7 3 156.1 10.53
2 7 3 164.17 10.38
-7 -2 3 172.36 12.14
-9 2 -3 188.33 12.29
7 -9 -3 184.04 12.28
-2 -7 -3 183.21 12.17
2 -9 3 180.54 12.12
7 -9 -3 186.71 12.2
-9 7 3 195.25 12.15
-7 -2 3 169.02 12.15
7 2 3 161.54 12.07
9 -7 3 162.43 12.07
-2 -7 -3 176.49 12.16
9 -2 -3 191.03 12.17
7 2 3 188.54 12.09
7 -9 -3 174.65 12.06
-7 9 -3 180.61 12.15
2 7 -3 184.53 12.15
-7 9 -3 189.42 12.16
-9 2 -3 186.69 12.2
-7 -2 3 187.5 12.21
9 -7 3 170.41 12.06
-2 -7 -3 195.37 12.35
2 -9 3 191.16 12.25
-1 9 -3 40.89 2.84
-9 8 -3 41.02 2.86
1 8 3 41.39 2.81
1 -9 -3 39.36 3.09
-9 1 3 39.82 2.95
-8 -1 -3 34.21 2.85
8 1 -3 40.34 2.88
-1 -8 3 40.38 2.94
1 -9 -3 42.32 2.96
1 -9 -3 35.99 2.87
1 -9 -3 34.54 2.88
9 -8 -3 42.34 2.81
8 -9 3 34.74 2.77
-9 8 -3 42.04 3.05
-1 9 -3 38.7 2.86
-8 -1 -3 41.29 3.1
-9 1 3 36.69 2.94
-9 8 -3 37.22 2.87
-8 -1 -3 40.13 2.93
-1 -8 3 41.94 3.07
9 -1 3 44.5 2.85
9 -8 -3 40.3 2.93
8 -9 3 40.37 2.84
-8 9 3 39.51 2.92
-8 -1 3 38.85 3
8 -9 -3 40.26 2.99
-1 -8 -3 41 3.18
8 -9 -3 39.96 3.08
1 8 -3 40.61 2.91
-8 -1 3 33.78 2.86
1 -9 3 40.06 3.06
9 -8 3 39.55 2.83
-9 8 3 41.79 2.92
-8 9 -3 39.52 2.9
-1 -8 -3 36.07 2.91
-9 1 -3 41.02 3
-1 -8 -3 43.45 2.91
-1 9 3 41.33 2.83
-9 1 -3 40.62 3.09
-8 -1 3 39.42 2.99
8 1 3 44.41 2.84
9 -8 3 35.7 2.78
8 -9 -3 39.05 2.8
1 -9 3 39.79 2.88
1 -9 3 38.4 2.88
-8 9 -3 41.41 2.91
9 -1 -3 40.72 2.95
9 -9 -3 19.92 1.7
0 -9 3 17.69 1.67
0 -9 -3 19.56 1.69
0 -9 3 17.07 1.63
9 -9 3 16.81 1.52
-9 0 3 19.48 1.7
-9 9 -3 19.19 1.63
9 0 -3 19.32 1.62
9 0 3 22.07 1.6
9 -9 3 18.07 1.55
-9 0 -3 19.4 1.85
0 -9 3 19.59 1.86
0 9 3 19.7 1.54
-9 0 -3 18.36 1.67
9 -9 -3 18.67 1.5
0 -9 -3 17.6 1.87
0 9 -3 17.14 1.55
-9 9 3 19.83 1.66
0 9 -3 19.09 1.64
-9 0 3 19.78 1.72
0 -9 -3 19.96 1.6
-9 9 -3 16.02 1.54
5 -10 -3 0.59 0.76
-5 -5 -3 0.46 0.66
10 -5 -3 0.61 0.43
5 -10 3 0.8 0.61
5 -10 3 0.1 0.38
-5 10 3 0.92 0.57
-5 10 -3 0.88 0.62
5 -10 -3 1.24 0.77
5 -10 -3 0.68 0.6
-5 -5 -3 0.78 0.48
-5 -5 3 0.52 0.77
5 -10 3 0.22 0.57
5 5 3 0.58 0.49
-10 5 -3 0.61 0.66
-5 -5 3 0.74 0.81
10 -5 3 -0.03 0.29
5 -10 -3 1.07 0.9
-10 5 3 0.87 0.77
5 5 -3 0.9 0.61
-10 5 -3 0.33 0.29
-10 5 -3 0.62 0.78
-5 10 -3 0.36 0.68
-5 10 -3 0.74 0.54
-10 5 -3 0.7 0.52
5 -10 3 1.51 0.72
-5 -5 -3 0.62 0.87
-10 5 3 0.44 0.64
10 -5 -3 0.46 0.56
10 -5 3 0.73 0.51
10 -6 -3 3.95 0.87
-6 -4 -3 3.99 1.06
-6 -4 -3 2.87 0.56
-4 10 -3 3.89 0.73
-10 6 -3 3.03 0.73
6 -10 3 2.94 0.79
-6 -4 -3 4.68 0.84
-4 10 -3 2.68 0.68
-6 -4 -3 2.44 0.62
-10 4 3 1.85 0.76
10 -6 -3 3.47 0.59
-10 6 -3 3.07 0.64
4 6 3 4.47 0.66
-4 -6 3 3.06 0.91
-10 4 3 4.29 0.93
-4 10 -3 3.31 0.66
4 -10 -3 3.35 0.98
-4 -6 3 3.11 0.86
4 -10 -3 2.76 0.85
6 -10 3 3.66 0.72
10 -6 -3 4.64 0.77
6 4 -3 4.49 0.79
4 -10 -3 2.84 0.65
10 -4 3 3.68 0.63
4 -10 -3 3.46 0.89
-10 6 -3 2.85 0.82
-6 10 -3 5.74 0.96
6 -10 -3 4.75 0.8
4 6 -3 5.52 0.94
-10 4 -3 5.33 0.98
6 -10 -3 5.98 1.11
-4 -6 -3 7.03 0.94
-4 -6 -3 4.73 1.1
10 -4 -3 6.38 1.01
-6 -4 3 4.89 0.97
6 4 3 5.83 0.82
-6 10 -3 5.09 0.77
10 -6 3 5.85 0.89
10 -4 -3 4.16 0.68
-6 -4 3 5.72 0.96
-4 10 3 5.11 0.91
4 -10 3 4.62 0.94
-10 6 3 4.98 0.95
6 -10 -3 4.68 0.75
-6 10 -3 5.92 0.9
-10 6 3 5.64 0.92
-10 4 -3 5.17 1
4 -10 3 5.83 0.84
-4 -6 -3 5.15 0.75
-10 6 3 3.51 0.85
6 -10 -3 5.69 0.92
3 -10 -3 27.72 2.36
-7 -3 -3 30.72 2.4
-3 10 -3 29.53 2.33
10 -7 -3 32.11 2.34
10 -7 -3 32.46 2.47
-3 10 -3 32.6 2.38
-7 -3 -3 31.83 2.41
-10 7 -3 31.3 2.52
-7 -3 -3 33.26 2.71
-10 7 -3 29.64 2.34
-10 3 3 30.78 2.5
7 3 -3 31.9 2.38
3 7 3 31.12 2.25
-3 -7 3 29.45 2.43
10 -7 -3 32.01 2.28
3 -10 -3 28.69 2.28
3 -10 -3 32.17 2.35
10 -3 3 30.82 2.27
-3 -7 3 28.74 2.48
3 -10 -3 28.68 2.6
7 -10 3 29.88 2.3
-7 10 -3 22.97 1.85
10 -7 3 22.81 1.7
-10 3 -3 20.38 1.98
3 7 -3 22.88 1.81
3 -10 3 22.73 1.81
-10 7 3 18.52 1.75
7 -10 -3 22.56 2.03
-3 -7 -3 23.02 1.78
7 3 3 24.77 1.78
7 -10 -3 20.77 1.88
-3 10 3 18.79 1.76
-3 -7 -3 23.04 2.25
-7 -3 3 24.54 1.96
3 -10 3 21.43 1.97
-10 3 -3 22.7 1.88
-7 10 -3 20.74 1.74
-7 10 -3 23.77 1.84
10 -7 3 20.52 1.69
10 -3 -3 24.51 1.9
-7 -3 3 23.61 2
-10 7 3 24.38 1.83
-3 -7 -3 21.89 1.88
-7 -3 3 21.45 1.86
10 -8 -3 4.35 0.86
-2 -8 3 4.45 1.01
-10 8 -3 2.97 0.8
-8 -2 -3 2.93 0.93
2 -10 -3 2.86 0.58
2 8 3 4.51 0.67
-8 -2 -3 4.01 0.78
10 -2 3 5.66 0.83
2 -10 -3 4.35 0.93
-10 2 3 3.52 0.81
-10 2 3 4.64 0.91
-8 -2 -3 4.25 0.83
-2 10 -3 5.19 0.79
-2 10 -3 3.79 0.67
2 -10 -3 3.32 0.67
8 -10 3 5.15 0.79
-10 8 -3 5 0.8
2 -10 -3 3.72 1
10 -8 -3 4.23 0.66
-8 10 3 3.28 0.71
8 -10 3 2.61 0.55
2 -10 3 5.49 0.97
-8 10 -3 7.42 1.12
-8 10 -3 5.84 0.74
-2 -8 -3 4.52 1.14
10 -2 -3 6.07 0.99
-2 -8 -3 5.07 0.84
-10 2 -3 6.7 1.03
10 -8 3 6.59 0.9
8 -10 -3 5.12 0.79
-2 10 3 4.74 0.89
8 -10 -3 5.33 0.91
2 -10 3 4.69 0.81
-8 -2 3 5.61 0.96
10 -8 3 6.22 0.88
8 -10 -3 4.99 1.02
-10 8 3 7.83 1.14
-2 -8 -3 5.82 0.98
2 -10 3 5.67 1.04
2 8 -3 6.6 0.94
-8 -2 3 7.16 0.97
-8 -2 3 6.44 1.04
8 2 3 5.26 0.76
-10 2 -3 5.07 0.99
8 2 3 7.77 0.99
-8 10 -3 6.06 0.83
10 -9 -3 42.48 2.85
-1 10 -3 39.31 2.9
9 -10 3 38.18 2.85
10 -1 3 45.28 2.89
-9 -1 -3 38.13 2.96
-10 9 -3 41.45 2.95
-10 1 3 37.74 3.01
10 -9 -3 33.99 2.93
-1 -9 3 36.75 2.9
-9 -1 -3 33.96 2.93
-1 -9 3 40.64 2.99
9 1 -3 45.55 2.98
-1 -9 3 34.43 3.04
1 -10 -3 41.37 2.95
-9 -1 -3 38.16 3.17
1 9 3 44.67 2.89
1 -10 -3 39.91 2.99
1 -10 -3 35.95 3.15
9 -10 3 41.49 2.89
-9 10 3 45.08 3.01
1 9 -3 32.65 2.29
-1 10 3 26.47 2.2
-10 1 -3 31.38 2.33
-1 -9 -3 27.22 2.21
10 -1 -3 33.24 2.33
-9 10 -3 31.21 2.28
9 1 3 32.28 2.18
-1 -9 -3 28.25 2.29
-10 9 3 31.87 2.29
1 -10 3 29.81 2.28
9 -10 -3 29.92 2.18
-10 1 -3 22.97 2.35
-1 -9 -3 22.67 2.41
9 -10 -3 26.35 2.31
10 -9 3 30.18 2.19
-9 -1 3 27.56 2.25
10 -9 3 27.5 2.14
1 -10 3 29.49 2.26
-9 -1 3 28.6 2.33
-10 10 -3 77.93 5.2
-10 10 3 79.55 5.23
10 -10 3 71.79 5.12
0 -10 -3 74.93 5.2
0 -10 3 64.76 5.15
0 10 3 80.46 5.13
-10 0 3 73.06 5.28
10 0 -3 79.77 5.22
-10 0 -3 73.1 5.25
10 -10 -3 71.84 5.08
10 -10 3 67.76 5.08
10 0 3 79.9 5.13
0 -10 3 72.53 5.19
0 10 -3 77.19 5.18
5 6 3 19.4 1.57
-5 11 -3 17.9 1.64
-6 -5 -3 14.7 1.92
5 -11 -3 16.4 1.92
-6 -5 -3 21.63 1.79
6 5 -3 21.56 1.74
-11 6 -3 16.94 1.69
-11 6 -3 19.76 1.65
-11 5 3 21.95 1.81
5 -11 -3 19.17 1.63
-5 11 -3 18.27 1.63
11 -6 -3 18.06 1.51
-5 11 -3 18.09 1.69
11 -5 3 20.76 1.63
6 -11 3 20.96 1.72
11 -6 -3 20.62 1.66
-5 -6 3 19.41 1.82
-5 -6 3 15.35 1.75
-11 5 -3 16.09 1.5
-5 -6 -3 18.21 1.71
-6 11 -3 16.96 1.52
11 -6 3 18.91 1.53
-11 5 -3 19.86 1.73
6 -11 -3 15.48 1.78
-11 6 3 20.74 1.72
-5 -6 -3 13.55 1.94
6 -11 -3 19.16 1.61
11 -5 -3 20.85 1.68
-6 -5 3 16.35 1.73
6 5 3 19.93 1.58
5 -11 3 19.38 1.6
-5 11 3 18.37 1.55
5 6 -3 21.09 1.72
-6 11 -3 16.88 1.57
11 -5 -3 17.57 1.5
-6 11 -3 17.47 1.7
7 -11 3 10.15 1.1
-7 -4 -3 11.68 1.33
-4 11 -3 9.32 1.15
-11 4 3 11.91 1.48
-4 11 -3 10.81 1.21
-4 11 -3 9.61 1.14
-11 7 -3 9.17 1.23
-11 7 -3 9.62 1.22
4 7 3 11.42 1.09
11 -4 3 12.47 1.21
7 4 -3 12.44 1.28
11 -7 -3 11.94 1.22
-7 -4 -3 10.88 1.24
-4 -7 3 7.98 1.28
4 -11 -3 10.57 1.19
7 -11 3 11.36 1.18
-4 -7 3 11.58 1.43
4 -11 -3 7.9 1.29
11 -7 -3 11.39 1.07
4 7 -3 12.22 1.24
-11 4 -3 12.81 1.31
7 -11 -3 10.64 1.15
-11 7 3 10.6 1.33
-7 -4 3 9.93 1.37
-4 -7 -3 11.07 1.26
-7 11 -3 10.96 1.14
11 -7 3 11.77 1.12
4 -11 3 11.93 1.33
7 4 3 11.39 1.14
-4 11 3 9.89 1.2
-7 11 -3 12.94 1.41
-11 7 3 11.26 1.22
11 -4 -3 10.76 1.12
11 -4 -3 12.4 1.33
-8 -3 -3 11.78 1.36
8 -11 3 10.45 1.17
-11 8 -3 10.2 1.21
-3 -8 3 11.89 1.36
-3 11 -3 10.93 1.29
11 -3 3 12.78 1.2
-11 3 3 13.38 1.45
-8 11 3 10.64 1.3
11 -8 -3 12.96 1.22
8 3 -3 13.6 1.37
8 -11 3 11.78 1.3
3 -11 -3 10.73 1.25
-8 -3 -3 11.31 1.33
3 8 3 14.49 1.26
11 -8 -3 14 1.31
-11 8 3 9.92 1.25
-8 11 -3 13.12 1.32
-3 -8 -3 10.36 1.31
11 -8 3 12.23 1.19
-11 3 -3 13.27 1.42
8 -11 -3 10.64 1.09
-11 8 3 12.64 1.29
-8 11 -3 11.3 1.18
-8 -3 3 12.59 1.39
11 -3 -3 11.08 1.11
3 -11 3 11.56 1.25
-8 -3 3 10.36 1.36
8 3 3 12.2 1.15
-3 11 3 9.89 1.19
11 -8 3 10.63 1.11
11 -3 -3 12.25 1.36
3 8 -3 12.43 1.34
2 -11 -3 13.28 1.34
-9 11 3 12.72 1.42
9 -11 3 11.86 1.26
9 -11 3 12.7 1.35
-2 11 -3 13.1 1.29
-9 -2 -3 12.08 1.37
11 -9 -3 13.77 1.29
-2 -9 3 12.77 1.48
2 -11 -3 12.11 1.31
-11 9 -3 11.93 1.35
11 -2 3 13.9 1.3
2 9 3 13.44 1.31
-9 -2 -3 13.71 1.46
9 2 -3 14.49 1.43
-11 2 3 13.59 1.6
-2 -9 3 10.18 1.21
11 -2 -3 14.23 1.45
11 -9 3 11.77 1.23
-2 -9 -3 12.96 1.44
-2 11 3 12.19 1.31
-11 9 3 13.99 1.35
11 -9 3 12.11 1.17
-9 -2 3 13.67 1.53
2 9 -3 13.34 1.37
-9 -2 3 10.95 1.35
-9 11 -3 11.64 1.2
11 -2 -3 10.99 1.13
-9 11 -3 13.34 1.36
2 -11 3 11.2 1.24
2 -11 3 12.54 1.4
9 -11 -3 11.73 1.16
-11 2 -3 12.93 1.38
9 2 3 14.29 1.3
-1 -10 3 11.98 1.44
-10 -1 -3 11.22 1.43
1 -11 -3 12.24 1.36
10 -11 3 9.66 1.2
1 10 3 12.18 1.26
-10 11 3 12.75 1.44
10 -11 3 11.44 1.27
-10 -1 -3 9.9 1.28
-11 10 -3 12.16 1.33
10 1 -3 11.84 1.35
-1 11 -3 11.79 1.24
-1 -10 3 10.38 1.32
-11 1 3 12.75 1.54
11 -1 3 12.55 1.18
1 -11 -3 11.62 1.3
11 -10 -3 12.14 1.22
1 -11 3 9.33 1.22
10 -11 -3 9.19 1.05
10 1 3 10.87 1.1
11 -10 3 10.26 1.16
-10 11 -3 11.25 1.31
-10 -1 3 9.82 1.44
-10 -1 3 8.81 1.18
1 10 -3 9.74 1.18
11 -1 -3 10.55 1.32
1 -11 3 9.71 1.26
11 -10 3 8.16 1.11
-1 -10 -3 10.39 1.33
-11 10 3 11.02 1.24
-11 1 -3 10.6 1.26
-1 11 3 8.46 1.19
0 -11 3 4.74 0.9
0 -11 -3 5.26 0.93
-11 0 -3 5.97 1.11
11 0 3 8.04 0.92
11 0 -3 6.6 1.02
-11 0 3 7.98 1.21
-11 11 -3 7.53 0.95
11 -11 -3 3.92 0.72
11 -11 3 6.03 0.93
0 -11 3 6.26 1
-11 11 3 6.81 1.05
0 11 3 4.13 0.86
11 -11 3 5.98 0.98
6 -12 -3 2.22 0.74
6 6 3 2.52 0.62
-12 6 -3 0.95 0.59
12 -6 -3 1.52 0.58
-12 6 3 1.91 0.93
6 -12 3 2.55 0.83
12 -6 -3 1.74 0.74
6 -12 3 1.44 0.55
-6 12 -3 1.29 0.67
-6 -6 3 2.16 0.89
12 -6 3 1.82 0.61
6 6 -3 2.06 0.82
-12 6 -3 1.52 0.71
-6 -6 -3 2.12 0.79
-6 12 -3 2.12 0.79
-12 7 -3 1.03 0.64
-5 12 -3 0.97 0.67
7 -12 3 1.87 0.77
12 -7 -3 1.35 0.53
7 -12 3 1.24 0.56
-12 7 -3 1.87 0.71
5 7 3 2.38 0.66
5 -12 -3 1.52 0.64
7 5 -3 1.62 0.7
12 -7 -3 1.73 0.77
-7 -5 -3 2.33 0.65
-5 12 -3 2.65 0.72
-7 -5 -3 2.5 0.83
-12 5 3 1.72 0.88
12 -5 3 2.33 0.62
-5 -7 3 1.66 0.78
-12 5 -3 0.63 0.43
-7 12 -3 2.21 0.79
-5 12 3 1.27 0.68
12 -5 -3 1.8 0.72
-7 12 -3 1.96 0.71
-5 -7 -3 2.47 0.81
-12 7 3 0.67 0.8
5 -12 3 0.96 0.48
5 7 -3 2.39 0.8
7 -12 -3 1.9 0.73
-7 -5 3 1.79 0.82
7 5 3 1.58 0.58
12 -7 3 2.4 0.69
5 -12 3 1.98 0.76
12 -5 -3 1.22 0.58
-12 5 -3 1.66 0.72
12 -8 -3 17.99 1.48
12 -4 3 18.17 1.57
8 4 -3 18.25 1.66
8 -12 3 18.31 1.65
-8 12 3 13.04 1.53
-4 12 -3 17.37 1.61
12 -8 -3 17.98 1.61
-8 -4 -3 17.46 1.68
-8 -4 -3 16.32 1.56
8 -12 3 14.65 1.45
-12 4 3 19.52 1.77
-12 8 -3 15.22 1.54
4 8 3 17.5 1.48
-4 -8 3 19.21 1.8
4 -12 -3 16.92 1.56
8 -12 -3 12.08 1.26
4 -12 3 14.9 1.51
8 -12 -3 14.16 1.35
-8 12 -3 14.47 1.38
-8 -4 3 13.13 1.54
-4 -8 -3 14.04 1.5
-8 -4 3 12.4 1.43
-8 12 -3 15.25 1.48
-4 12 3 12.71 1.41
12 -8 3 14.33 1.31
-12 4 -3 14.17 1.48
4 8 -3 14.47 1.48
12 -4 -3 14.71 1.52
12 -4 -3 14.02 1.34
-12 8 3 14.83 1.51
-12 8 3 13.83 1.53
8 4 3 15.35 1.4
3 9 3 5.8 0.85
12 -9 -3 4.48 0.78
12 -3 3 6.31 0.85
9 -12 3 5.93 0.95
-12 3 3 6.88 1.16
9 3 -3 4.92 0.9
-3 -9 3 5.08 0.96
-3 12 -3 5.96 0.93
9 -12 3 3.85 0.73
-9 12 3 3.84 0.86
-12 9 -3 4.27 0.82
3 -12 -3 5 0.86
-9 -3 -3 4.28 0.92
12 -9 -3 6.03 0.98
-9 -3 -3 5.26 0.94
3 -12 3 3.7 0.89
3 9 -3 4.3 0.81
-9 -3 3 2.01 0.79
-12 9 3 5.22 0.93
-9 12 -3 4.27 0.89
-3 12 3 2.42 0.75
-9 12 -3 3.44 0.73
12 -3 -3 2.69 0.61
9 -12 -3 2.89 0.62
-12 3 -3 4.94 0.96
12 -3 -3 4.65 0.92
-3 -9 -3 3.95 0.88
9 3 3 3.58 0.67
12 -9 3 4.03 0.7
12 -9 3 2.79 0.6
-9 -3 3 2.77 0.81
-12 9 3 1.7 0.66
12 -10 -3 5.38 0.82
-2 -10 3 6.39 1.07
-10 -2 -3 4.33 0.9
-12 10 -3 6.72 0.99
2 -12 -3 5.88 0.91
12 -2 3 7.7 0.9
-10 12 3 4.88 0.97
-10 -2 -3 5.05 0.93
2 -12 -3 3.65 0.82
10 2 -3 6.34 1.01
-2 -10 3 4.12 0.87
-12 2 3 7.11 1.18
10 -12 3 4.95 0.79
10 -12 3 5.78 0.98
2 10 3 5.47 0.81
-2 12 -3 7.5 1.02
2 -12 3 5.53 0.93
12 -2 -3 4.37 0.92
-2 12 3 5.07 0.89
12 -2 -3 4.59 0.72
2 -12 3 4.29 0.81
-10 -2 3 4.55 0.95
12 -10 3 3.91 0.74
-2 -10 -3 4.33 0.87
12 -10 3 4.06 0.7
-12 2 -3 6.47 1
10 2 3 6.16 0.78
10 -12 -3 5.36 0.86
-10 -2 3 4.66 0.9
-12 10 3 6.94 1.06
1 11 3 46.54 3.28
-1 -11 3 42.38 3.33
12 -1 3 46.85 3.27
12 -11 -3 44.7 3.22
1 -12 -3 46.73 3.32
-11 12 3 46.03 3.4
-11 -1 -3 43.51 3.37
-12 1 3 49.25 3.52
11 1 -3 46.79 3.38
1 -12 -3 45.81 3.35
-12 11 -3 46 3.35
-1 12 -3 44.85 3.34
11 -12 3 39.58 3.24
-1 -11 3 42.34 3.4
11 -12 3 45.18 3.29
12 -11 3 43.26 3.3
12 -11 3 42.79 3.29
-1 -11 -3 51.01 3.39
-1 -11 -3 44.31 3.41
11 1 3 48.5 3.32
-1 12 3 41.03 3.38
1 11 -3 50.6 3.42
-11 12 -3 48.92 3.4
-11 -1 3 50.21 3.56
-12 1 -3 50.95 3.51
1 -12 3 43.43 3.36
12 -1 -3 37.38 3.22
11 -12 -3 47.98 3.29
1 -12 3 40.64 3.35
-12 11 3 47.19 3.39
12 -1 -3 45.26 3.4
0 -12 -3 24.93 2.11
-12 0 -3 26.75 2.14
12 -12 3 20.05 1.91
12 0 3 24.08 1.94
0 -12 3 24.01 2.1
12 -12 3 23.25 2.03
0 -12 -3 27.23 2.09
-12 0 3 26.61 2.3
0 -12 3 22.36 2.05
12 0 -3 21.62 2.06
-12 12 -3 24.03 2.1
-12 12 3 23.89 2.17
0 12 -3 25.74 2.09
0 12 3 22.25 2.07
12 -12 -3 24.13 1.91
7 6 -3 2.7 0.86
-7 -6 -3 3.22 0.81
-6 13 -3 2.5 0.8
-13 6 3 3.43 1.06
13 -7 -3 2.57 0.68
6 7 3 3.58 0.71
13 -7 -3 4.03 0.89
6 -13 -3 3.04 0.81
-6 -7 3 3.63 0.96
-6 13 -3 2.46 0.71
7 -13 3 2.06 0.67
7 -13 3 3.46 0.87
-13 7 -3 3.11 0.8
-13 7 -3 2.13 0.77
13 -6 3 3.3 0.72
13 -7 3 3.2 0.77
13 -6 -3 2.03 0.65
-13 7 3 1.84 0.92
-6 -7 -3 2.06 0.78
-7 -6 3 2.55 0.99
6 -13 3 3.11 0.87
13 -6 -3 2.98 0.86
6 7 -3 2.85 0.85
7 -13 -3 1.92 0.72
7 6 3 3.01 0.68
-13 6 -3 1.59 0.7
-13 6 -3 2.23 0.78
6 -13 3 1.74 0.62
-7 13 -3 2.23 0.77
-7 13 -3 2.23 0.85
-8 -5 -3 2.73 0.73
5 -13 -3 3.48 0.84
-5 -8 3 3.82 0.96
-5 13 -3 3.43 0.78
13 -5 3 3.26 0.72
-8 -5 -3 3.49 0.93
8 5 -3 3.28 0.87
13 -8 -3 3.3 0.88
8 -13 3 4.02 0.94
-13 8 -3 1.53 0.73
5 8 3 3.96 0.72
-13 8 -3 2.34 0.82
-13 5 3 4.01 1.06
13 -8 -3 3.31 0.71
8 -13 3 3.15 0.71
5 -13 3 2.1 0.59
-5 13 3 2.84 0.78
-5 -8 -3 4.26 0.92
-8 -5 3 3.04 0.95
13 -8 3 4.14 0.81
-8 13 -3 2.51 0.86
13 -5 -3 1.78 0.64
5 8 -3 4.33 0.91
8 -13 -3 3.56 0.71
5 -13 3 3.55 0.87
8 5 3 4.16 0.77
-13 5 -3 4.01 0.91
-13 8 3 2.6 0.93
8 -13 -3 1.93 0.74
13 -5 -3 3.84 0.93
-8 13 -3 2.81 0.77
-9 13 3 11.17 1.47
-4 13 -3 12.98 1.47
9 4 -3 14.6 1.53
13 -9 -3 14.12 1.58
9 -13 3 14.34 1.52
-13 4 3 15.73 1.75
9 -13 3 13.91 1.41
13 -4 3 14.67 1.45
-9 -4 -3 13.44 1.51
4 9 3 13.26 1.34
-9 -4 -3 12.35 1.51
-13 9 -3 12.66 1.48
4 -13 -3 13.5 1.43
-4 -9 3 15.76 1.71
13 -9 -3 13.84 1.39
-9 13 -3 11.13 1.31
9 4 3 13.42 1.33
-13 9 3 11.15 1.46
-9 13 -3 14.03 1.53
-4 13 3 10.71 1.41
-9 -4 3 10.14 1.45
4 9 -3 13.64 1.48
-9 -4 3 11.75 1.46
-13 4 -3 13.23 1.53
-13 9 3 13.15 1.47
9 -13 -3 11.78 1.22
13 -4 -3 12.05 1.28
13 -4 -3 12.17 1.5
4 -13 3 13 1.45
13 -9 3 13.52 1.36
-4 -9 -3 11.92 1.44
10 3 -3 9.54 1.33
-10 -3 -3 9.03 1.29
-3 -10 3 11.91 1.54
13 -10 -3 10.16 1.4
13 -3 3 9.46 1.25
10 -13 3 9.88 1.32
-13 10 -3 9.11 1.34
13 -10 -3 9.8 1.13
10 -13 3 8.61 1.21
-3 13 -3 9.2 1.28
3 -13 -3 9.16 1.23
-13 3 3 9.67 1.54
-10 13 3 8.33 1.35
3 10 3 9.4 1.23
-10 -3 -3 8.32 1.35
-3 13 3 8.21 1.24
13 -3 -3 7.64 1.12
-13 3 -3 10.17 1.31
-10 13 -3 10.54 1.29
-10 -3 3 6.99 1.26
-3 -10 -3 9.64 1.35
10 3 3 9.11 1.21
-10 -3 3 9.44 1.32
3 -13 3 9.57 1.35
13 -10 3 10.17 1.2
13 -3 -3 9.92 1.37
3 10 -3 10.28 1.33
10 -13 -3 9.41 1.18
-13 10 3 9.27 1.37
2 -13 -3 9.97 1.24
-11 -2 -3 9.4 1.37
-13 2 3 10.09 1.54
-11 13 3 7.66 1.23
13 -2 3 9.02 1.24
2 11 3 9.87 1.23
11 -13 3 9.95 1.29
-11 -2 -3 7.65 1.21
-2 13 -3 8.61 1.26
11 2 -3 7.64 1.23
13 -11 -3 10.31 1.23
-2 -11 3 7.98 1.23
11 -13 3 7.95 1.18
-2 -11 3 10.9 1.47
-13 11 -3 9.5 1.25
2 -13 -3 6.26 1.09
11 -13 -3 12.34 1.33
2 11 -3 13.43 1.48
2 -13 3 12.13 1.37
-11 -2 3 11.2 1.43
13 -11 3 10.78 1.23
-2 -11 -3 15.84 1.51
-11 -2 3 14.56 1.65
2 -13 3 9.77 1.23
-2 13 3 11.49 1.46
-2 -11 -3 11.86 1.48
13 -2 -3 11.88 1.47
-13 11 3 12.09 1.52
-13 2 -3 12.94 1.48
-11 13 -3 12.54 1.48
13 -11 3 11.73 1.33
11 2 3 11.88 1.26
13 -2 -3 11.14 1.25
12 -13 3 7 1.23
-1 -12 3 7.43 1.15
-1 13 -3 7.77 1.09
13 -12 -3 7.96 0.99
1 -13 -3 6.41 1.01
13 -1 3 8.55 1.03
-12 -1 -3 6.22 1.07
-13 1 3 7.16 1.32
1 -13 -3 6.74 1.19
-13 12 -3 6.83 1.02
-12 13 3 5.02 1.02
12 -13 3 5.98 0.93
12 1 -3 4.26 0.94
-1 -12 3 5.84 1.05
13 -12 3 6.19 0.92
-12 -1 3 7.58 1.34
13 -12 3 5.71 1.06
12 1 3 7.37 0.95
-13 12 3 6.77 1.09
-1 -12 -3 7.11 1.28
-12 13 -3 8.11 1.33
12 -13 -3 6.14 0.88
-1 -12 -3 7.53 1.27
1 12 -3 6.48 1.01
-13 1 -3 9.15 1.25
1 -13 3 7.54 1.26
-1 13 3 6.89 1.14
1 -13 3 5.24 0.99
13 -1 -3 6.22 1.05
0 -13 3 19.07 1.97
-13 13 3 23.32 2.06
-13 13 -3 20.65 1.96
13 -13 3 20.25 1.84
0 -13 -3 22.91 1.91
0 -13 3 18.33 1.94
-13 0 3 22.86 2.13
0 13 -3 21.41 1.94
0 13 3 17.62 1.9
-13 0 -3 22.4 1.99
13 -13 3 19.68 1.82
13 0 3 21.23 1.86
13 -13 -3 21.18 1.81
0 -13 -3 19.38 1.93
13 0 -3 17.16 1.91
-7 -7 -3 11.37 1.48
7 -14 -3 11.11 1.39
-7 14 -3 11.56 1.5
-14 7 -3 9.44 1.4
7 -14 3 11.44 1.37
-7 -7 3 12.85 1.6
-14 7 3 12.57 1.68
14 -7 3 11.84 1.42
-7 14 -3 11.52 1.4
7 7 -3 12.31 1.52
14 -7 -3 12.49 1.35
7 -14 3 10.31 1.27
7 7 3 11.65 1.37
-14 7 -3 10.3 1.36
14 -7 -3 12.3 1.42
-14 6 3 5.34 1.12
6 -14 -3 5.89 0.98
8 6 -3 4.4 0.99
-6 -8 3 6.17 1.11
-8 -6 -3 6 1.06
8 -14 3 3.95 0.8
-6 14 -3 4.24 0.87
-14 8 -3 3.73 0.92
8 -14 3 5.5 1
14 -8 -3 4.83 0.83
6 8 3 5.9 0.87
14 -8 -3 7.25 1.12
14 -6 3 5.18 0.85
-14 8 -3 5.02 0.99
14 -8 3 7.81 1.04
-8 14 -3 5.74 0.98
8 -14 -3 4.6 0.93
-14 6 -3 6.79 1.13
6 8 -3 7.96 1.15
-8 14 -3 4.97 1.03
6 -14 3 10.08 1.25
-14 8 3 6.75 1.23
-8 -6 3 6.56 1.17
8 -14 -3 7.75 0.97
14 -6 -3 7.21 1.33
8 6 3 7.24 0.95
14 -6 -3 5.4 0.91
-6 -8 -3 9.18 1.23
-5 14 -3 12.12 1.51
14 -9 -3 15 1.65
-9 -5 -3 11.35 1.44
-5 -9 3 14.44 1.71
9 -14 3 11.92 1.42
-14 5 3 14.89 1.65
9 5 -3 14.68 1.62
5 9 3 13.99 1.38
-14 9 -3 12.94 1.57
5 -14 -3 12.33 1.37
9 -14 3 14.26 1.58
-9 -5 -3 13.27 1.55
14 -9 -3 13.39 1.42
14 -5 3 14.56 1.51
-5 14 3 11.04 1.42
14 -5 -3 11.35 1.35
-9 14 -3 11.38 1.4
5 -14 3 12.67 1.48
-5 -9 -3 13.13 1.47
9 5 3 11.45 1.26
-14 5 -3 12.56 1.54
5 -14 3 8.69 1.15
14 -5 -3 11.86 1.52
9 -14 -3 12.41 1.32
5 9 -3 13.08 1.49
-9 14 -3 11.24 1.38
9 -14 -3 11.69 1.31
-14 9 3 11.07 1.56
14 -9 3 12.75 1.44
-9 -5 3 11.05 1.52
14 -10 -3 15.06 1.68
-10 -4 -3 12.37 1.45
14 -4 3 14.44 1.4
-14 10 -3 13.99 1.6
-4 14 -3 14.71 1.52
-4 -10 3 17.2 1.76
10 -14 3 13.05 1.47
10 -14 3 13.46 1.57
-14 4 3 14.8 1.79
10 4 -3 12.14 1.55
-10 -4 -3 11.71 1.54
14 -10 -3 13.7 1.45
-10 14 3 11.21 1.53
4 10 3 13.91 1.4
4 -14 -3 13.34 1.41
4 -14 3 14.83 1.55
-10 -4 3 11.37 1.55
14 -4 -3 11.38 1.38
14 -10 3 13.69 1.42
-4 14 3 11.59 1.46
-4 -10 -3 12.45 1.42
-14 4 -3 14.31 1.6
10 4 3 12.18 1.42
10 -14 -3 12.86 1.28
-4 -10 -3 13.3 1.5
-14 10 3 10.85 1.45
-10 -4 3 11.41 1.46
4 10 -3 13.09 1.54
-10 14 -3 12.4 1.46
14 -4 -3 11.74 1.51
14 -3 3 5.3 0.88
11 -14 3 3.5 0.83
14 -11 -3 5.06 1.05
-11 14 3 3.46 0.88
11 3 -3 4.33 0.96
14 -11 -3 3.26 0.77
-14 3 3 7.03 1.26
-11 -3 -3 2.75 0.86
11 -14 3 3.91 0.9
-3 -11 3 4.85 1.05
-14 11 -3 4.44 0.94
3 11 3 4.7 0.82
-3 14 -3 5.97 1.01
3 -14 -3 6.39 1.02
-11 -3 -3 3.21 0.88
3 -14 3 4.11 1.01
14 -3 -3 2.22 0.71
14 -3 -3 2.57 0.88
-14 11 3 5.2 1.03
-11 14 -3 3.67 1
11 3 3 3.66 0.77
3 11 -3 4.33 0.98
14 -11 3 2.31 0.7
-3 14 3 3.23 0.93
-3 -11 -3 4.2 0.95
-11 -3 3 2.45 0.84
-11 -3 3 3.19 1.03
-14 3 -3 4.79 0.97
11 -14 -3 2.65 0.7
-3 -11 -3 4.85 0.98
-2 -12 3 26.59 2.23
12 2 -3 20.14 2.09
-14 12 -3 24.38 2.16
-14 2 3 27.5 2.25
-12 14 3 22.67 2.19
14 -2 3 23.98 2.06
12 -14 3 23.57 2.09
12 -14 3 21.23 2.03
-12 -2 -3 23.51 2.2
14 -12 -3 26.59 2.28
14 -12 -3 23.22 1.96
2 -14 -3 25.92 2.1
-2 -12 3 20.53 2.01
-2 14 -3 24.25 2.12
2 12 3 23.27 1.98
-14 12 3 25.57 2.22
12 -14 -3 25.85 2.1
-12 -2 3 25.42 2.39
14 -12 3 23.19 2.11
-2 -12 -3 25.72 2.24
2 -14 3 25.33 2.23
-14 2 -3 27.58 2.3
-2 -12 -3 29.01 2.28
-12 14 -3 27.61 2.29
14 -2 -3 22.28 2.24
2 12 -3 26.68 2.25
12 2 3 26.72 2.13
-2 14 3 24.26 2.32
-14 1 3 26.05 2.33
-1 14 -3 24.84 2.14
1 -14 -3 25.02 2.11
1 -14 -3 21.69 2.02
13 1 -3 20.38 2.11
13 -14 3 21.83 2.04
13 -14 3 24.2 2.08
-13 14 3 22.53 2.24
-14 13 -3 23.4 2.1
-13 -1 -3 25.26 2.17
-1 -13 3 23.83 2.15
-1 -13 3 26.41 2.22
14 -13 -3 23.06 2.03
14 -1 3 24.98 2.08
1 -14 3 23.37 2.18
-1 -13 -3 23.81 2.17
1 13 -3 26.48 2.21
-14 13 3 23.72 2.25
14 -1 -3 20.58 2.16
-14 1 -3 28.39 2.33
13 -14 -3 24.16 2.05
1 -14 3 20.21 2.07
-1 14 3 23.81 2.24
-13 -1 3 25.35 2.35
14 -13 3 22.25 2.07
-13 14 -3 26.5 2.25
-1 -13 -3 28.47 2.21
13 1 3 24.66 2.07
14 0 3 13.04 1.43
0 14 3 12.18 1.21
-14 0 -3 10.83 1.34
14 0 3 12.63 1.26
14 0 -3 10.51 1.61
-14 14 3 13.21 1.62
-14 0 -3 12.21 1.59
-14 14 -3 14.03 1.68
0 -14 3 13.03 1.59
-14 14 -3 12.62 1.48
0 -14 -3 12.96 1.56
0 -14 3 12.68 1.59
0 -14 -3 13.22 1.52
-14 0 3 12.11 1.63
14 -14 -3 13.31 1.48
0 14 -3 14.08 1.64
14 -14 3 10.78 1.47
-8 -7 -3 16.3 1.73
8 7 -3 16.45 1.76
-7 15 -3 15.98 1.67
15 -8 -3 16.44 1.65
-7 -8 3 19.1 1.87
8 -15 3 16.52 1.74
-15 7 3 17.87 1.97
15 -7 3 16.4 1.69
7 8 3 15.5 1.53
8 -15 3 13.65 1.53
-15 8 -3 11.78 1.63
-15 8 -3 14.88 1.67
7 -15 -3 15.99 1.65
15 -8 -3 16.17 1.8
-7 -8 -3 16.07 1.65
7 -15 3 14.05 1.49
15 -8 3 17.7 1.69
8 -15 -3 16.35 1.59
-8 15 -3 15.58 1.65
-8 15 -3 16.1 1.75
15 -7 -3 15.15 1.6
-15 7 -3 12.57 1.43
-8 -7 3 18.61 1.83
7 8 -3 17.22 1.75
-15 8 3 15.88 1.79
15 -7 -3 16.24 1.79
8 -15 -3 16.27 1.65
8 7 3 15.34 1.53
7 -15 3 16.24 1.73
-15 7 -3 11.82 1.64
9 6 -3 2.67 0.92
-9 -6 -3 3.55 0.97
-6 -9 3 4.62 1.11
9 -15 3 2.22 0.77
15 -6 3 2.74 0.78
9 -15 3 2.99 0.95
15 -9 -3 1.89 0.89
-15 6 3 3.32 1.04
6 -15 -3 3.12 0.85
-6 15 -3 2.73 0.9
-15 9 -3 0.89 0.79
6 9 3 3.56 0.84
15 -9 -3 1.37 0.71
-15 9 -3 1.52 0.89
-9 15 -3 2.46 0.93
-9 -6 3 3.4 1.03
15 -6 -3 2.03 0.93
6 9 -3 3.68 0.98
-6 -9 -3 3.4 0.86
15 -6 -3 1.5 0.76
-15 9 3 1.84 0.99
9 6 3 2.82 0.76
-9 15 -3 2.19 0.83
6 -15 3 2.19 0.85
15 -9 3 2.26 0.77
9 -15 -3 3.27 0.87
6 -15 3 1.03 0.57
-15 6 -3 2.13 0.84
9 -15 -3 2.78 0.71
-15 10 -3 2.56 0.9
-10 -5 -3 2.19 0.79
5 -15 -3 3.5 0.91
15 -10 -3 2.84 0.75
-15 5 3 4.37 1.16
-5 -10 3 5.41 1.13
10 -15 3 2.27 0.77
15 -5 3 2.74 0.79
10 -15 3 2.78 0.93
-5 15 -3 3.27 0.87
-10 -5 -3 2.86 0.9
10 5 -3 2.41 0.88
15 -10 -3 3.22 0.98
5 10 3 3.5 0.82
15 -5 -3 1.5 0.77
5 -15 3 0.45 0.46
10 -15 -3 3.22 0.79
-15 5 -3 2.7 0.93
-5 15 3 1.89 0.88
-10 15 -3 2.29 0.95
5 -15 3 3.53 0.93
-5 -10 -3 2.32 0.84
-10 -5 3 1.52 0.82
-5 -10 -3 2.72 0.86
5 10 -3 3.52 0.99
10 5 3 2.65 0.77
15 -5 -3 1.28 0.87
-15 10 3 1.33 0.85
15 -10 3 3.63 0.9
15 -11 -3 0.6 0.87
-4 15 -3 -0.16 0.76
4 11 3 -0.08 0.33
4 11 3 0.33 0.7
-15 4 3 1.07 0.88
15 -11 -3 0.89 0.72
15 -4 3 1.1 0.76
-11 -4 -3 0.03 0.77
11 4 -3 0.27 0.8
-11 15 3 0.02 0.87
15 -4 3 0.11 0.31
11 -15 3 -0.66 0.67
11 -15 3 0.29 0.82
-15 11 -3 0.1 0.82
-4 -11 3 0.56 0.94
-11 -4 -3 0.07 0.73
4 -15 -3 0.73 0.74
-15 11 3 0.24 0.5
-11 15 -3 1.33 0.87
-4 15 3 0.22 0.38
4 11 -3 1.5 0.83
11 -15 -3 0.94 0.67
-15 4 -3 1.66 0.83
-4 -11 -3 1.8 0.79
-4 15 3 1.49 0.83
-11 -4 3 1.28 0.78
15 -4 -3 0.58 0.82
-11 -4 3 0.74 0.81
11 4 3 1.82 0.76
11 4 3 0.62 0.37
-4 -11 -3 2.04 0.86
15 -4 -3 0.29 0.65
4 -15 3 1.73 0.84
15 -11 3 1.45 0.82
-12 15 3 1.54 0.93
12 -15 3 1.39 0.81
15 -12 -3 1.55 0.74
15 -12 -3 1.83 0.97
3 -15 -3 1.39 0.84
-3 15 -3 0.92 0.79
-15 3 3 0.67 0.71
3 12 3 0.42 0.46
15 -3 3 1.06 0.49
-12 -3 -3 0.83 0.85
-15 3 3 2.14 1
15 -3 3 1.04 0.71
-12 -3 -3 0.64 0.73
-15 12 -3 0.23 0.44
-15 12 -3 0.62 0.91
12 -15 3 0.89 0.85
-3 -12 3 1.65 0.93
3 12 3 1.09 0.77
12 3 -3 0.71 0.81
15 -3 -3 -0.13 0.61
-12 -3 3 0.73 0.89
-15 3 -3 2.66 0.97
-15 3 -3 1.68 0.69
-3 15 3 1.36 0.9
-3 15 3 1.16 0.51
3 12 -3 2.18 0.92
-15 12 3 1.71 0.66
-12 15 -3 0.28 0.45
12 3 3 1.5 0.5
15 -12 3 1.58 0.78
12 -15 -3 2.08 0.7
3 -15 3 2.11 0.88
-3 -12 -3 2.02 0.85
12 3 3 2.28 0.83
-12 15 -3 2.24 0.99
-12 -3 3 1.27 0.77
-3 -12 -3 2.43 0.94
15 -3 -3 1.33 0.84
-2 15 -3 2.53 0.92
13 -15 3 1.53 0.9
15 -2 3 2.45 0.87
15 -13 -3 1.97 0.79
-2 -13 3 0.4 0.61
-13 -2 -3 2.64 1.01
15 -2 3 1.42 0.56
13 -15 3 2.12 0.82
-15 13 -3 1.55 0.7
-2 -13 3 3.43 1.02
2 13 3 1.41 0.55
-15 13 -3 1.78 0.96
2 -15 -3 1.76 0.81
-13 15 3 2.52 1.05
15 -13 -3 2.36 1.03
13 2 -3 1.72 0.89
-15 2 3 1.47 0.78
-15 2 3 2.57 1.02
15 -2 -3 2.86 0.96
-13 -2 3 4.82 1.17
13 2 3 4.75 0.72
13 -15 -3 4.33 0.89
-15 2 -3 6.29 1.19
2 13 -3 4.54 1.02
-2 -13 -3 5.06 1.05
-2 15 3 4.11 1.09
-13 15 -3 4.82 1.06
13 2 3 3.73 0.84
-13 15 -3 5.12 0.89
2 -15 3 5.43 1.02
-15 2 -3 5.52 0.91
-2 -13 -3 5.72 1.07
-2 15 3 5.21 0.73
-15 13 3 4.69 0.9
15 -13 3 2.99 0.82
-1 -14 3 15.22 1.66
-15 1 3 17.4 1.96
15 -14 -3 19.25 2
14 1 -3 15.03 1.79
1 14 3 15.94 1.47
-1 -14 3 18.56 1.9
-14 15 3 14.93 1.9
1 -15 -3 19.75 1.83
-15 14 -3 18.07 1.9
-15 14 -3 17.2 1.69
-1 15 -3 17.84 1.85
15 -1 3 17.35 1.48
-14 15 3 13.86 1.54
14 -15 3 12.95 1.5
15 -1 3 18 1.75
15 -14 -3 15.64 1.69
-15 1 3 16.59 1.77
14 -15 3 13.79 1.73
-14 -1 -3 15.43 1.57
14 -15 -3 18.58 1.78
-14 15 -3 17.15 1.81
15 -1 -3 15.21 1.88
-15 14 3 19.29 1.84
14 1 3 18.43 1.82
-14 15 -3 19.75 2.02
1 -15 3 16.36 1.86
-15 1 -3 19.4 2.01
-1 15 3 16.82 1.57
-1 -14 -3 21.02 1.94
15 -14 3 15.78 1.74
14 1 3 17.37 1.59
-15 1 -3 19.44 1.79
-1 -14 -3 15.86 1.84
-14 -1 3 18.13 2.04
1 14 -3 20.55 1.95
-15 0 -3 1.91 0.94
15 0 -3 2.2 0.95
-15 0 3 2.25 0.79
-15 15 -3 2.74 0.81
0 -15 3 2.51 0.75
15 0 3 2.91 0.67
-15 0 3 2.23 1.02
0 -15 3 2.56 0.91
15 0 3 2.54 0.88
15 -15 -3 2.12 0.84
-15 15 -3 3.62 1.08
-15 0 -3 3.24 0.81
0 -15 -3 3.88 1.02
0 15 -3 1.99 0.92
-15 15 3 2.71 0.87
0 -15 -3 0.85 0.68
0 15 3 3.03 0.67
15 -15 3 2.03 0.83
-16 8 3 6.09 1.24
-16 8 -3 3.57 0.83
8 -16 3 6.59 1.12
8 8 -3 5.03 1.02
8 -16 3 4.03 0.67
-8 -8 3 3.3 0.87
-8 16 -3 5.47 0.99
8 -16 -3 5.89 1.05
8 8 3 3.66 0.62
8 -16 3 3.92 0.78
-8 16 3 4.41 0.66
-8 -8 3 5.83 1.1
-16 8 -3 3.98 0.97
16 -8 -3 4.64 1.06
-8 -8 -3 2.92 0.77
8 -16 -3 5.07 0.85
-8 -8 -3 6.75 1.09
16 -8 -3 5.91 1
16 -8 3 5.52 0.99
16 -8 3 3.3 0.6
9 -16 3 -0.63 0.5
-7 -9 3 2.11 0.98
-7 -9 3 0.75 0.86
16 -7 3 1.84 0.86
-9 -7 -3 1.67 0.86
7 -16 -3 1.2 0.83
7 9 3 1.21 0.8
-16 9 -3 0.6 0.82
9 -16 3 1.01 0.89
9 7 -3 0.81 0.86
9 -16 3 0.43 0.69
-7 16 -3 0.9 0.83
-16 9 -3 0.21 0.77
16 -7 3 0.58 0.5
-16 7 3 1.01 1.08
7 9 3 0.62 0.48
16 -9 -3 0.63 0.78
16 -9 -3 0.65 0.9
16 -9 3 1.38 0.84
7 -16 3 1.53 0.85
-9 -7 3 2.23 1
-9 16 -3 1.18 0.87
-9 16 -3 1.58 0.81
-7 -9 -3 1.14 0.75
-16 7 -3 0.68 0.8
-16 9 3 -0.11 0.41
7 -16 3 1.13 0.55
7 -16 3 0.46 0.52
9 7 3 2.45 0.84
16 -9 3 0.98 0.43
-7 -9 -3 1.49 0.76
16 -7 -3 0.78 0.77
9 7 3 1.33 0.52
9 -16 -3 1.86 0.86
9 -16 -3 1.27 0.68
-7 16 3 1.21 0.55
7 9 -3 1.45 0.87
-7 -9 -3 1.93 0.88
-16 9 3 1.01 1.06
16 -7 -3 1.04 0.9
-10 -6 -3 7.96 1.18
-6 -10 3 10.32 1.62
16 -10 -3 7.44 1.09
-16 10 -3 8.51 1.47
-6 -10 3 8.73 1.23
6 -16 -3 7.26 1.1
16 -10 -3 5.78 1.17
16 -6 3 9.14 1.41
6 10 3 6.83 0.96
-16 6 3 9.8 1.68
-6 16 -3 6.8 1.11
10 -16 3 6.34 1.03
10 -16 3 7.06 1.17
10 6 -3 5.78 1.08
16 -6 3 7.59 1.08
6 10 3 8.07 1.1
-6 16 3 6.57 0.81
-10 16 -3 4.99 1.07
16 -10 3 8.77 1.14
6 -16 3 6.25 1.09
-16 10 3 5.94 1.21
-10 -6 3 7.1 1.16
-6 -10 -3 7.42 1.28
16 -10 3 5.45 0.86
16 -6 -3 7.46 1.24
-6 -10 -3 8.33 1.11
6 -16 3 6.61 0.97
10 6 3 7.27 0.99
10 6 3 8.21 1.19
16 -6 -3 5.11 0.96
10 -16 -3 7.6 1.03
-16 10 3 5.83 0.98
-6 -10 -3 6.37 1.07
-16 6 -3 8.02 1.24
6 10 -3 7.21 1.16
16 -11 -3 9.92 1.41
5 11 3 7.03 1
-16 11 -3 6.52 1.12
-16 5 3 8.08 1.49
-11 -5 -3 5.28 1.04
-5 16 -3 8.27 1.37
11 -16 3 6 1.05
-5 -11 3 8.03 1.17
16 -5 3 8.92 1.14
-5 -11 3 9.98 1.59
-16 5 3 7.1 1.09
11 -16 3 7.92 1.24
16 -11 -3 6.85 1.04
5 -16 -3 8.6 1.17
16 -5 3 6.71 0.84
5 11 3 7.75 1.07
-5 -11 -3 5.54 1.04
5 -16 3 7.8 1.37
11 5 3 7 0.99
16 -5 -3 4.76 0.91
16 -11 3 4.43 0.7
-5 -11 -3 8.61 1.2
-11 -5 3 7.64 1.33
-5 16 3 7.09 1.19
11 -16 -3 8.11 1.05
5 -16 3 6.41 0.98
-16 11 3 5.3 0.92
-16 5 -3 4.72 0.85
5 11 -3 5.95 1.11
-11 16 -3 7.86 1.25
16 -11 3 8.85 1.15
-5 16 3 6.47 0.82
16 -5 -3 7.03 1.22
-5 -11 -3 8.05 1.1
-16 5 -3 8.19 1.25
-4 -12 3 2.57 1.03
16 -4 3 1.16 0.76
16 -4 3 1.23 0.59
-16 12 -3 0.81 0.67
-12 16 3 0.69 0.91
-16 12 -3 1.34 0.9
4 -16 -3 0.34 0.77
4 12 3 0.92 0.57
16 -12 -3 1.56 1.04
-12 -4 -3 0.92 0.79
-16 4 3 1.1 0.82
4 12 3 0.88 0.76
-16 4 3 1.91 1.01
-4 -12 3 1.47 0.91
16 -12 -3 0.76 0.75
12 4 -3 0.72 0.88
-4 16 -3 1.21 0.86
12 -16 3 1.39 0.84
12 -16 3 0.74 0.89
-12 -4 -3 0.8 0.86
12 4 3 3.14 0.9
4 -16 3 2.09 0.6
16 -4 -3 2.56 0.94
4 -16 3 4.61 1.04
-16 4 -3 3.95 0.83
-12 16 -3 1.08 0.55
-4 16 3 2.71 0.69
-16 4 -3 5.06 1.12
12 4 3 2.38 0.63
16 -12 3 3.33 0.89
4 12 -3 2.77 0.95
-12 -4 3 1.78 0.85
-4 16 3 2.71 1.01
16 -12 3 2.18 0.6
-4 -12 -3 1.96 0.83
12 -16 -3 2.62 0.78
16 -4 -3 0.62 0.6
-4 -12 -3 3.13 0.89
-12 16 -3 4.14 1.06
-16 12 3 1.73 0.77
-4 -12 -3 3.44 0.89
16 -13 -3 31.05 2.39
13 -16 3 30.19 2.66
-3 16 -3 34.88 2.75
16 -13 -3 36.74 2.9
3 13 3 31.53 2.42
-16 3 3 33 2.65
-13 -3 -3 31.81 2.75
-3 -13 3 39.28 2.87
16 -13 -3 31.41 2.59
13 3 -3 25.67 2.68
-16 3 3 36.08 2.89
-16 13 -3 31.82 2.57
13 -16 3 33.75 2.73
3 -16 -3 33.6 2.68
16 -3 3 36.8 2.71
-16 13 -3 31.22 2.72
-3 -13 3 29.14 2.71
16 -3 3 30.61 2.44
16 -3 -3 23.71 2.48
3 -16 3 28.22 2.16
-3 -13 -3 26.56 2.41
3 13 -3 30.53 2.52
-13 -3 3 26.73 2.53
16 -13 3 25.11 2.13
-3 -13 -3 28.04 2.42
13 3 3 29.03 2.39
-16 3 -3 28.65 2.33
-3 16 3 25.64 2.55
-13 16 -3 28.42 2.37
-3 16 3 28.19 2.19
-13 16 -3 34.07 2.61
13 3 3 27.74 2.19
13 -16 -3 26.62 2.32
16 -13 3 27.94 2.39
-16 13 3 28.65 2.34
-16 3 -3 33.22 2.64
-3 -13 -3 25.4 2.35
3 -16 3 30.69 2.45
-16 2 3 2.82 0.84
-14 16 3 2.04 0.73
14 -16 3 1.24 0.8
-14 -2 -3 1.15 0.65
16 -14 -3 1.84 0.79
-2 -14 3 2.55 0.95
16 -14 -3 1.75 0.6
2 14 3 2.84 0.66
-16 14 -3 2.43 0.85
2 -16 -3 3.19 0.98
14 -16 3 1.58 0.69
16 -14 -3 2.53 1.13
16 -2 3 2.07 0.88
-16 14 -3 2.04 0.9
14 2 -3 1.33 0.93
-16 2 3 1.39 0.96
-2 -14 3 0.99 0.79
-14 -2 -3 2.22 1
-2 16 -3 2.46 0.91
16 -2 3 2.63 0.65
-14 16 -3 0.97 0.94
2 -16 3 1.19 0.84
-2 16 3 0.68 0.59
-14 -2 3 1.65 0.99
14 -16 -3 0.6 0.78
16 -2 -3 -0.11 0.86
14 2 3 0.99 0.6
2 -16 3 0.54 0.52
-16 2 -3 1.32 1.04
-14 16 -3 1.35 0.82
-16 2 -3 1.6 0.75
2 14 -3 1.03 0.93
16 -14 3 0.65 0.58
-2 -14 -3 0.97 0.74
-2 -14 -3 0.25 0.88
-2 -14 -3 1.25 0.84
-2 16 3 0.2 0.79
16 -14 3 0.76 0.79
-16 14 3 0.64 0.68
14 2 3 1.28 0.85
-16 14 3 1.17 0.83
-16 1 3 3.94 0.85
-16 15 -3 4.92 1.12
-16 1 3 2.82 1.02
1 15 3 2.6 0.65
-1 -15 3 3.85 0.91
-16 15 -3 3.07 0.84
16 -1 3 3.25 0.71
-15 -1 -3 2.64 1.03
15 1 -3 1.54 0.88
16 -1 3 2.44 0.9
16 -15 -3 3.16 0.87
-1 16 -3 3.65 1.04
15 -16 3 2.29 0.64
15 -16 3 1.91 0.81
-15 -1 -3 3.41 0.82
16 -15 -3 2.42 0.62
1 -16 -3 4.67 1.06
-15 16 3 3.11 0.91
16 -15 -3 4.15 1.22
-16 1 -3 2.66 0.81
-16 15 3 2.88 0.93
-15 16 -3 2.21 0.81
-1 -15 -3 2.65 0.98
16 -15 3 1 0.64
16 -15 3 1.89 0.87
15 1 3 2.14 0.66
-1 16 3 3.97 0.68
15 -16 -3 2.03 0.78
-15 -1 3 1.45 1
1 -16 3 0.91 0.54
-15 16 -3 3.04 1.1
-15 -1 3 2.8 0.79
-1 -15 -3 1.66 0.8
1 15 -3 2.5 0.96
-16 1 -3 2.53 1.04
1 -16 3 2.44 0.89
-16 15 3 1.97 0.83
16 -1 -3 1.39 0.82
15 1 3 2.21 0.92
-16 0 3 9.99 1.69
16 -16 3 8.88 1.2
-16 16 3 14.12 1.59
-16 16 -3 10.03 1.4
16 -16 -3 8.44 1.39
0 -16 -3 11.46 1.59
16 -16 -3 6.64 1.36
-16 0 -3 10.44 1.65
-16 0 3 9.26 1.4
0 16 -3 10.67 1.62
16 0 3 9.38 1.51
16 0 3 8.85 1.23
0 16 3 9.51 1.2
-16 16 3 8.56 1.45
-16 16 -3 10.3 1.59
-16 0 -3 10.73 1.42
17 -9 -3 1.55 0.99
17 -9 -3 2.18 0.89
8 -17 -3 3.17 0.97
-17 8 3 0.93 0.98
17 -8 3 2.81 0.69
-8 -9 3 2.64 0.95
8 9 3 1.8 0.79
-17 9 -3 0.72 0.79
8 9 3 2.16 0.61
17 -8 3 2.08 0.89
-8 17 -3 2.67 0.95
9 -17 3 1.64 0.65
9 8 -3 2.6 0.95
-17 8 3 0.35 0.67
9 -17 3 2.66 1
-9 -8 -3 2.05 0.85
-8 -9 3 3.34 1.1
8 -17 -3 1.99 0.74
-9 -8 -3 2.65 0.92
-8 -9 -3 -0.08 0.71
-17 9 3 1.26 1.05
8 -17 3 1.13 0.87
-8 -9 -3 2.42 0.89
9 -17 -3 1.2 0.87
17 -9 3 1.54 0.91
8 -17 3 0.21 0.49
17 -9 3 1.34 0.65
-8 -9 -3 1.92 0.85
9 8 3 1.37 0.8
-8 17 3 1.76 0.62
-17 8 -3 1.11 0.81
8 -17 3 1.64 0.61
17 -8 -3 1.33 1.01
8 9 -3 0.48 0.82
17 -8 -3 1.15 0.86
9 8 3 1.5 0.58
-9 -8 3 2.2 0.9
-9 17 -3 1.62 0.83
-9 -8 3 2.04 0.95
-17 9 3 1.43 0.59
9 -17 -3 1.12 0.81
-17 7 3 7.93 1.42
7 10 3 6.73 1.03
-17 10 -3 5.12 1.09
10 -17 3 4.99 0.9
17 -10 -3 6.66 1.1
17 -7 3 8.81 1.22
10 -17 3 6.19 1.13
10 7 -3 5.11 1.11
-7 -10 3 10.63 1.59
-17 7 3 7.04 1.06
17 -7 3 7.32 0.88
-10 -7 -3 7.49 1.35
-7 -10 3 8.62 1.2
10 -17 3 7.19 0.86
7 10 3 7.59 0.84
-7 17 -3 5.06 1.07
7 -17 -3 5.12 1.03
-10 -7 -3 6.1 1.02
17 -10 -3 6.05 1.23
7 -17 3 9.69 1.51
-10 -7 3 8.22 1.5
17 -7 -3 6.2 1.23
-10 -7 3 6.84 1.05
-17 7 -3 5.29 1.09
7 -17 3 7.01 1.03
-17 7 -3 5.2 0.84
17 -10 3 5.99 1.06
-7 -10 -3 8.62 1.38
17 -10 3 8.21 1.14
7 10 -3 8.94 1.29
-7 -10 -3 7.99 1.34
-7 -10 -3 6.81 1.13
10 -17 -3 8.68 1.35
10 7 3 7.51 1.11
-10 17 -3 4.82 1.02
-17 10 3 5.57 1.22
-17 10 3 7.38 1.15
-7 17 3 7.96 1.12
10 7 3 10.32 1.19
17 -7 -3 5.06 0.97
6 -17 -3 14.86 1.67
11 -17 3 17.83 1.85
17 -11 -3 18.5 1.95
-17 11 -3 18.11 1.9
-17 6 3 17.33 1.78
-6 -11 3 16.76 1.9
17 -11 -3 15.84 1.74
6 11 3 16.23 1.45
6 11 3 15.69 1.71
17 -6 3 18.98 1.83
-6 17 -3 16.09 1.79
-11 -6 -3 13.28 1.7
11 -17 3 15.41 1.5
11 6 -3 13.21 1.75
17 -6 3 16.47 1.53
11 -17 3 14.21 1.6
11 6 3 13.68 1.61
11 -17 -3 13.78 1.57
-17 6 -3 14.29 1.53
-6 17 3 13.85 1.44
17 -11 3 14.04 1.42
17 -6 -3 12.32 1.8
-11 17 -3 13.05 1.76
-17 11 3 11.95 1.49
-6 -11 -3 14.13 1.61
11 6 3 14.08 1.37
17 -11 3 15.53 1.61
6 -17 3 13.06 1.33
6 11 -3 14.03 1.73
-11 -6 3 13.4 1.69
-6 -11 -3 10.75 1.55
6 -17 3 15.07 1.71
-17 6 -3 14.02 1.77
-6 -11 -3 12.49 1.68
-5 -12 3 11.44 1.73
17 -5 3 8.55 1.23
12 -17 3 8.6 1.15
5 12 3 8.69 1.2
-17 12 -3 8.82 1.34
12 5 -3 7.87 1.3
-5 -12 3 12.61 1.69
12 -17 3 10.21 1.57
-5 17 -3 10.09 1.55
-12 -5 -3 7.89 1.46
-17 5 3 10.73 1.74
5 -17 -3 7.68 1.4
17 -12 -3 8.8 1.12
-17 5 3 9.76 1.47
17 -12 -3 10.5 1.69
17 -12 -3 9.18 1.44
17 -5 3 11.15 1.55
5 12 3 10.17 1.41
-17 12 -3 10.95 1.64
-12 -5 3 3.81 0.98
17 -12 3 6.15 1.09
12 5 3 7.16 0.82
5 12 -3 7.79 1.24
-17 12 3 7.11 0.98
12 5 3 6.24 1.03
-5 -12 -3 6.07 1.03
5 -17 3 6.71 0.81
17 -12 3 6.03 0.85
-12 17 -3 5.48 1.14
-5 -12 -3 7.36 1.16
12 -17 -3 5.62 0.98
-5 17 3 7.11 0.87
-5 -12 -3 6.88 1.13
5 -17 3 5.68 1.06
-17 5 -3 8.73 1.06
-17 5 -3 6.35 1.21
17 -5 -3 4.72 1.15
-12 17 -3 5.16 0.85
17 -13 -3 1.22 0.76
-4 -13 3 1.91 0.98
13 -17 3 -0.24 0.71
4 -17 -3 0.81 0.81
13 -17 3 0.2 0.92
-4 -13 3 1.23 0.91
-17 4 3 1.07 0.99
17 -13 -3 0.64 0.59
13 -17 3 -0.42 0.45
13 4 -3 0.48 0.89
-17 13 -3 0.56 0.91
-17 4 3 1.33 0.8
4 13 3 0.07 0.55
-4 17 -3 -0.08 0.84
-13 -4 -3 -0.26 0.57
-13 -4 -3 -0.37 0.68
-17 13 -3 0.48 0.73
17 -4 3 0.6 0.6
17 -13 -3 0.15 1.01
17 -4 3 1.08 0.88
-4 17 3 0.89 0.63
13 4 3 0.1 0.83
-17 4 -3 0.43 0.75
-4 -13 -3 0.14 0.84
-13 17 -3 0.76 0.74
-4 -13 -3 0.62 0.81
-17 4 -3 0.78 1.01
17 -13 3 0.2 0.64
13 -17 -3 0.64 0.75
-13 -4 3 -0.01 0.76
4 13 -3 0.73 0.93
4 -17 3 0.47 0.57
17 -13 3 0.25 0.86
-17 13 3 1.06 0.74
-4 -13 -3 0.81 0.83
4 -17 3 1.61 0.9
-13 17 -3 0.24 0.97
-4 17 3 0.04 0.87
17 -4 -3 0.6 0.89
13 4 3 0.83 0.59
-17 3 3 16.87 1.97
-14 17 3 11.38 1.49
-3 -14 3 14.86 1.86
17 -14 -3 15.28 1.64
-14 -3 -3 11.3 1.64
17 -3 3 16.69 1.46
14 -17 3 11.64 1.62
-17 3 3 15.88 1.69
-3 17 -3 15.34 1.78
3 -17 -3 15.55 1.74
17 -3 3 15.73 1.76
17 -14 -3 14.37 1.42
3 14 3 14.03 1.41
-3 -14 3 15.81 1.82
-17 14 -3 14.32 1.6
-17 14 -3 15.14 1.84
-3 17 3 12.04 1.39
14 3 3 12.41 1.38
3 -17 3 12.35 1.26
-17 14 3 12.85 1.54
3 -17 3 13.23 1.6
3 14 -3 13.93 1.74
-14 17 -3 14.03 1.55
-17 3 -3 14.54 1.57
14 3 3 12.58 1.6
-3 -14 -3 12.24 1.68
17 -14 3 10.96 1.66
-3 -14 -3 12.41 1.67
-3 -14 -3 12.24 1.66
17 -3 -3 8.47 1.47
-14 17 -3 12.9 1.8
17 -14 3 11.33 1.36
-17 3 -3 13.95 1.8
14 -17 -3 12.02 1.55
-2 17 -3 2.09 0.92
-17 15 -3 2.87 0.8
-15 17 3 2.68 0.92
-15 -2 -3 1.46 0.88
-17 2 3 2.4 0.8
15 -17 3 1.93 0.66
-15 -2 -3 2.87 0.82
-17 15 -3 3.27 1.05
2 15 3 2.38 0.63
-17 2 3 2.52 1.05
2 -17 -3 2.59 0.91
-15 17 3 2.8 0.91
17 -15 -3 1.34 1.03
-2 -15 3 3.06 0.88
15 -17 3 0.76 0.69
17 -2 3 1.74 0.85
17 -15 -3 1.7 0.81
-2 -15 3 2.19 0.82
17 -2 3 3.43 0.71
17 -15 -3 2 0.62
17 -2 -3 -0.03 0.69
2 -17 3 2.2 0.86
-2 -15 -3 2.2 0.89
-17 15 3 2.04 0.86
-15 -2 3 0.84 0.71
15 2 3 1.44 0.84
15 -17 -3 1.24 0.78
-2 -15 -3 1.52 0.93
17 -15 3 1.48 0.83
-2 17 3 1.74 0.64
15 2 3 2.12 0.67
-17 15 3 1.47 0.8
-17 2 -3 2.06 0.78
-15 17 -3 2.49 0.86
17 -15 3 1.48 0.65
2 -17 3 1.87 0.58
-15 17 -3 1.46 0.94
2 15 -3 1.99 0.99
-15 -2 3 0.23 0.63
-2 -15 -3 1.99 0.81
-17 2 -3 2.19 1.1
-17 16 -3 1.06 0.95
-16 -1 -3 0.18 0.94
17 -16 -3 0.95 0.61
-16 17 3 1.34 0.86
1 -17 -3 1.57 0.89
17 -1 3 1.03 0.64
-16 -1 -3 1 0.76
-17 1 3 1.33 1.02
1 16 3 0.92 0.58
-1 -16 3 0.06 0.69
17 -16 -3 1.6 1.09
17 -16 -3 1.3 0.76
-17 16 -3 0.92 0.71
16 -17 3 1.46 0.66
17 -1 3 -0.5 0.85
-16 17 3 1.42 0.85
16 -17 3 -0.43 0.57
-17 1 3 1.44 0.73
-1 17 -3 1.26 0.9
16 -17 -3 1.95 0.82
-16 -1 3 3.23 0.78
-16 -1 3 1.34 0.8
-16 17 -3 2.8 0.81
-17 16 3 2.04 0.83
16 1 3 2.69 0.94
16 -17 -3 3.01 1.13
-16 17 -3 2.96 1.06
-1 -16 -3 1.94 0.8
1 -17 3 2.12 0.59
16 1 3 2.78 0.68
-17 1 -3 1.95 1.06
17 -16 3 1.37 0.77
17 -16 3 2.91 0.69
-1 -16 -3 3.26 0.98
-1 17 3 3.36 0.68
1 16 -3 2.36 0.97
-17 16 3 2.6 0.87
-17 1 -3 2.73 0.79
17 -17 -3 1.54 1.02
0 -17 -3 2.87 0.96
0 17 3 2.23 0.63
-17 0 3 2.53 0.76
-17 17 3 2.71 0.85
-17 0 -3 1.7 0.94
0 -17 3 1.85 0.59
17 -17 -3 1.48 0.73
0 17 -3 2.02 0.92
17 0 3 1.57 0.85
17 -17 -3 1.31 0.61
-17 17 -3 3.02 0.79
-17 17 3 2.88 0.87
17 0 3 3.44 0.74
-17 0 -3 3.14 0.8
-17 17 -3 3.04 1
17 -17 3 2.78 0.68
9 9 3 1.19 0.86
9 -18 3 0.64 0.89
9 -18 3 0.64 0.62
-18 9 3 0.42 0.62
18 -9 3 -0.03 0.91
-18 9 3 0.42 0.95
9 -18 -3 0.7 0.82
-9 18 -3 0.49 0.84
-9 -9 -3 1.39 0.86
-18 9 3 -0.46 0.72
-9 -9 3 1.9 1
-9 18 3 -0.03 0.46
18 -9 -3 0.48 0.74
-9 -9 -3 1.29 0.9
9 -18 -3 0.49 0.74
-18 9 -3 0.23 0.75
18 -9 -3 0.62 0.39
9 9 3 0.75 0.56
9 9 -3 0.3 0.86
-9 -9 3 2.06 0.89
-18 9 -3 -0.63 0.41
18 -9 -3 0.6 0.95
-8 -10 3 8.91 1.55
-10 -8 -3 7.36 1.12
18 -10 -3 5 1.04
-18 8 3 4.33 0.95
8 10 3 6.61 1.12
8 -18 -3 6.77 1.13
-10 -8 -3 7.28 1.23
18 -10 -3 5.01 0.77
-10 18 3 3.93 0.96
18 -8 3 8.2 0.91
10 -18 3 6.54 0.83
18 -10 -3 5.88 1.25
-8 18 -3 4.56 1.08
10 8 -3 4.57 1.07
18 -8 3 4.62 1.03
8 10 3 5.26 0.77
-18 8 3 7.23 1.35
-8 -10 3 9.7 1.61
10 -18 3 8.28 1.27
8 -18 -3 6.37 1.04
-10 -8 3 2.39 0.9
-10 -8 3 3.95 1.1
-18 10 3 1.24 0.85
10 8 3 2.94 0.89
8 -18 3 2.52 0.93
18 -8 -3 1.99 1.01
18 -10 3 2.48 0.97
-18 8 -3 0.4 0.83
18 -10 3 3.35 0.71
-18 10 3 1.94 0.73
8 10 -3 2.37 0.94
10 -18 -3 2.29 0.85
8 -18 3 3.16 0.64
-8 -10 -3 3.36 0.92
18 -8 -3 0.52 0.64
-18 8 -3 1.91 0.66
-8 -10 -3 2.6 0.94
10 8 3 2.84 0.64
18 -7 3 1.27 0.9
7 11 3 1.55 0.58
7 -18 -3 0.68 0.75
-18 7 3 1.63 0.85
-7 18 -3 0.9 0.83
-18 11 -3 1.15 0.78
18 -11 -3 1.36 0.64
11 -18 3 2.64 1.03
7 11 3 1.7 0.85
18 -7 3 1.72 0.66
-11 -7 -3 1.22 0.83
-18 7 3 1.62 1.15
7 -18 -3 1.67 0.93
11 -18 3 0.97 0.61
-7 -11 3 2.08 0.92
-7 -11 3 3.39 1.1
18 -11 -3 1.6 0.98
-18 11 -3 0.84 0.59
-11 18 3 1.54 0.86
-11 -7 -3 1.96 0.92
18 -11 -3 -0.3 0.79
11 7 -3 1.23 0.85
-7 -11 -3 3.46 1.01
18 -11 3 3.2 0.98
11 7 3 2.85 0.84
18 -11 3 2.95 0.71
-7 -11 -3 3.78 0.93
7 -18 3 2.56 0.64
11 7 3 3.59 0.69
7 11 -3 2.53 0.97
18 -7 -3 2.7 1.01
-7 18 3 3.88 0.69
-11 -7 3 1.59 0.81
-18 7 -3 1.88 0.99
11 -18 -3 2.05 0.8
-18 11 3 2.64 0.77
-18 7 -3 1.9 0.74
-11 -7 3 2.77 0.97
7 -18 3 4.55 1.06
18 -6 3 0.59 0.87
12 -18 3 0.01 0.64
12 6 -3 -0.21 0.76
-12 -6 -3 -0.17 0.77
18 -6 3 0.23 0.6
18 -12 -3 -0.18 0.76
12 -18 3 -0.15 0.91
6 12 3 1.19 0.83
12 -18 3 0.03 0.63
-18 12 -3 0.4 0.77
-6 -12 3 1.13 1
-12 -6 -3 -0.11 0.75
6 -18 -3 0.91 0.89
-18 12 -3 0.17 0.92
-18 6 3 0.43 0.79
-6 18 -3 -0.07 0.87
-12 18 3 0.56 0.92
-18 6 3 0.82 1
6 12 3 0.44 0.57
18 -12 -3 0.48 0.63
-6 -12 3 1.33 0.89
18 -12 -3 -0.02 0.91
-18 6 -3 0.36 0.73
-18 12 3 -0.41 0.71
12 6 3 0.24 0.79
-12 18 -3 0.36 0.59
18 -6 -3 -0.09 0.77
12 -18 -3 0.65 0.74
-18 6 -3 0.56 0.96
-12 -6 3 -0.68 0.66
18 -12 3 -0.22 0.9
-6 -12 -3 -0.03 0.52
-6 -12 -3 0.98 0.89
-6 18 3 0.42 0.59
-12 -6 3 0.44 0.75
6 -18 3 0.02 0.54
12 6 3 -0.11 0.57
6 12 -3 0.44 0.85
-6 -12 -3 0.9 0.81
18 -12 3 0.39 0.65
6 -18 3 1.24 0.88
-12 18 -3 0.06 0.71
18 -5 3 6.12 1.08
-18 13 -3 8.53 1.33
18 -13 -3 8.03 1.15
-18 5 3 6.79 1.32
-5 18 -3 5.56 1.12
-5 -13 3 9 1.62
18 -5 3 8.54 1.15
-18 13 -3 8.04 1.27
13 -18 3 4.55 0.81
13 -18 3 6.71 1.15
-5 -13 3 10.29 1.65
5 -18 -3 7.78 1.38
-18 5 3 9.11 1.35
18 -13 -3 5.23 1.01
5 13 3 7.15 1.07
-13 18 3 10.22 1.65
18 -13 -3 4.76 1.17
-18 5 -3 8.74 1.42
-5 18 3 7.65 0.92
5 -18 3 8.47 1.06
18 -13 3 8.69 1.22
-5 -13 -3 8.98 1.55
13 5 3 9.01 1.43
5 -18 3 8.72 1.52
-18 5 -3 9.26 1.38
-18 13 3 9.18 1.08
-5 -13 -3 9.36 1.49
5 13 -3 8.38 1.51
-13 18 -3 5.69 1.12
18 -13 3 5.21 1.09
-13 18 -3 6.81 1
13 -18 -3 5.86 1.03
13 5 3 6.97 0.86
4 14 3 1.93 0.61
18 -14 -3 2.31 1.07
18 -14 -3 1.47 0.63
14 -18 3 0.93 0.54
18 -4 3 2.27 0.64
18 -4 3 1.37 0.89
-4 -14 3 3.62 0.95
18 -14 -3 1.66 0.8
-14 18 3 4.32 1.08
-18 14 -3 1.54 0.95
-18 4 3 3.35 0.82
-14 18 3 -0.15 0.58
-18 4 3 2.72 1.04
14 -18 3 0.05 0.82
4 -18 -3 2.51 0.96
-18 14 -3 1.09 0.78
-4 18 -3 1.41 0.91
-4 -14 3 2.93 1.02
14 4 3 0.84 0.59
18 -14 3 0.48 0.84
-4 18 3 0.24 0.59
-18 4 -3 0.85 1.01
4 -18 3 2.43 0.96
4 -18 3 0.64 0.57
18 -14 3 1.01 0.63
-4 -14 -3 -0.29 0.66
-4 -14 -3 0.25 0.84
-18 14 3 0.67 0.71
-4 -14 -3 1.56 0.85
-14 18 -3 0.53 0.83
-14 18 -3 0.97 0.77
14 -18 -3 1.14 0.8
14 4 3 0.77 0.84
-18 14 3 -0.14 0.4
-18 4 -3 1.76 0.74
4 14 -3 0.56 0.95
-18 15 -3 0.31 0.73
-18 15 -3 0.89 0.9
-18 3 3 0.24 0.93
-3 -15 3 0.9 0.85
-15 -3 -3 0.43 0.7
18 -15 -3 -0.42 0.65
3 -18 -3 1.12 0.81
18 -15 -3 -0.14 0.57
-15 18 3 1.04 0.92
-15 18 3 0.4 0.84
3 15 3 0.67 0.56
18 -15 -3 0.67 0.98
15 -18 3 0 0.59
18 -3 3 1.16 0.63
15 -18 3 -0.48 0.28
-3 -15 3 0.2 0.64
-18 3 3 1.49 0.75
-3 18 -3 1.35 0.94
18 -3 3 0.14 0.87
-18 3 -3 1.12 0.75
-15 18 -3 0.34 0.76
3 -18 3 0.63 0.52
-18 3 -3 1.03 1.01
-18 15 3 0.66 0.71
-18 15 3 0.19 0.75
-3 -15 -3 -0.02 0.62
18 -15 3 0.17 0.74
3 -18 3 1.04 0.74
15 3 3 0.2 0.83
-3 -15 -3 1.06 0.82
15 3 3 -0.05 0.56
18 -15 3 0.56 0.66
3 15 -3 0.81 0.94
-3 -15 -3 0.67 0.7
-15 18 -3 0.57 0.86
15 -18 -3 0.41 0.81
-3 18 3 0.73 0.6
-16 18 3 2.04 0.92
-18 2 3 1.83 0.76
16 -18 3 0.04 0.6
2 16 3 1.26 0.6
-18 16 -3 1.62 0.78
-16 18 3 1.32 0.82
18 -2 3 1.27 0.88
-2 -16 3 1.73 0.81
-16 -2 -3 1.35 0.73
-18 2 3 1.15 0.91
-2 18 -3 1.37 0.9
18 -16 -3 0.58 0.61
18 -2 3 1.26 0.65
2 -18 -3 1.59 0.86
18 -16 -3 0.25 0.56
18 -16 -3 1.3 0.93
-18 16 -3 1.38 0.96
16 -18 -3 0.22 0.67
-2 18 3 0.87 0.6
-16 -2 3 1.19 0.68
-16 18 -3 0.62 0.85
16 2 3 1.35 0.65
16 2 3 0.32 0.79
2 -18 3 0.05 0.85
18 -16 3 0.36 0.63
-2 -16 -3 0.51 0.64
-18 16 3 0.05 0.73
-18 2 -3 0.45 1.03
2 16 -3 1.22 0.9
-18 2 -3 2.06 0.78
18 -16 3 -0.46 0.58
-18 16 3 0.73 0.79
-2 -16 -3 1.18 0.85
2 -18 3 0.57 0.53
-16 18 -3 1.78 0.73
-18 17 -3 0.42 0.75
18 -17 -3 -0.2 0.55
-17 18 3 1 0.8
-1 -17 3 0.09 0.69
18 -17 -3 0.67 0.59
18 -1 3 -0.37 0.66
1 -18 -3 0.18 0.62
-18 17 -3 0.31 0.71
-18 1 3 1.53 0.71
18 -1 3 0.81 0.63
-17 -1 -3 0.47 0.72
-1 18 -3 0.74 0.73
17 -18 3 0.43 0.6
18 -17 -3 -0.01 0.65
1 17 3 1.36 0.6
-17 18 3 1.58 0.83
-18 1 3 -0.14 0.64
17 -18 -3 0.09 0.72
1 17 -3 0.13 0.6
-18 1 -3 0.37 0.75
-1 -17 -3 -0.13 0.72
-17 -1 3 1.08 0.68
17 1 3 0 0.68
-17 18 -3 0.95 0.75
18 -17 3 0.24 0.61
-1 18 3 0.41 0.58
-18 1 -3 -0.61 0.64
17 1 3 0.35 0.63
17 -18 -3 -0.1 0.47
-18 17 3 0.24 0.76
-1 -17 -3 -0.04 0.54
-17 18 -3 0.64 0.74
1 -18 3 0.47 0.51
-18 17 3 1.14 0.78
17 -18 -3 1.12 0.57
-18 18 3 4.69 0.89
0 18 3 3.81 0.7
18 0 3 4.48 0.74
-18 0 -3 4.91 0.87
-18 18 3 4.57 0.89
18 -18 -3 5.31 0.74
18 -18 3 2.25 0.7
-18 0 3 4.43 0.81
-18 18 -3 4.43 0.83
9 -19 -3 0.66 0.59
-10 -9 -3 0.91 0.85
19 -9 3 0.45 0.65
9 -19 -3 -0.06 0.56
19 -10 -3 0.12 0.73
9 10 3 0.54 0.85
19 -10 -3 -0.1 0.94
10 -19 3 1.13 0.92
-9 -10 3 1.51 0.97
-10 19 3 0.4 0.76
-10 -9 -3 0.73 0.88
-19 9 3 0.89 0.86
19 -9 3 0.32 0.88
9 10 3 1.24 0.57
-19 9 3 1.32 0.78
19 -10 -3 0.52 0.62
-9 19 -3 0.63 0.86
9 -19 -3 0.32 0.76
-9 -10 3 1.94 0.86
10 -19 3 0.42 0.55
10 9 -3 0.42 0.65
-19 9 3 0.29 0.6
19 -10 3 1.11 0.92
-9 19 3 0.04 0.47
10 9 3 1.11 0.82
-10 -9 3 2.28 0.97
19 -9 -3 0.67 0.56
-10 -9 3 2.29 0.85
-19 9 -3 1.06 0.67
9 -19 3 1.66 0.58
-19 10 3 2.02 0.7
-19 9 -3 -0.23 0.62
-19 10 3 -0.11 0.71
10 -19 -3 -0.09 0.46
9 -19 3 1.49 0.95
10 -19 -3 1.4 0.85
10 9 3 1.55 0.57
19 -10 3 1.24 0.64
-9 -10 -3 3.17 0.9
19 -9 -3 0.16 0.72
-9 -10 -3 2.38 0.97
9 10 -3 1.15 0.72
-8 -11 3 2.81 0.92
19 -8 3 1.86 0.66
19 -11 -3 -0.14 0.55
8 11 3 0.73 0.8
11 -19 3 1.55 0.92
11 8 -3 0 0.62
-19 8 3 1.31 0.93
19 -8 3 0.4 0.82
-19 11 -3 0.1 0.48
-11 -8 -3 1.01 0.83
19 -11 -3 -0.33 0.72
8 11 3 1.1 0.59
8 -19 -3 1.3 0.79
-8 19 -3 1.08 0.85
11 -19 3 1.67 0.61
-19 8 3 1.14 0.75
-8 -11 3 2.81 1.07
-11 19 3 1.06 0.86
-11 -8 -3 1.71 0.9
19 -11 -3 1.17 0.67
8 -19 -3 0.84 0.69
-19 8 -3 0.22 0.76
-8 -11 -3 1.57 0.9
8 11 -3 0.59 0.75
-11 -8 3 1.13 0.77
-11 -8 3 1.23 0.83
-8 -11 -3 2.57 0.85
19 -11 3 0.96 0.66
8 -19 3 1.56 0.59
8 -19 3 1.72 0.92
11 8 3 1.15 0.56
11 8 3 1.1 0.88
19 -11 3 0.89 0.95
-19 11 3 1.17 0.72
19 -8 -3 0.75 0.52
11 -19 -3 1.4 0.82
-19 8 -3 0.78 0.67
7 12 3 4.72 0.72
-19 7 3 5.48 1.27
7 12 3 4.15 0.99
19 -7 3 4.76 0.77
-19 7 3 5.47 0.95
-12 -7 -3 3.67 0.94
-19 12 -3 4.38 0.92
-12 19 3 5.99 1.08
-7 -12 3 4.66 1.1
7 -19 -3 4.55 0.99
7 -19 -3 3.63 0.89
19 -12 -3 5.55 0.8
19 -7 3 4.59 1.09
-7 19 -3 4.32 1.03
-7 -12 3 8.27 1.53
12 -19 3 4.21 0.76
12 -19 3 4.5 0.99
-7 -12 -3 4.72 0.95
12 7 3 4.57 0.73
-7 19 3 6.69 0.81
19 -12 3 5.65 0.81
19 -12 3 3.43 1.03
12 -19 -3 6.24 1.04
-19 7 -3 5.37 0.88
12 7 3 4.29 1
-19 12 3 4.5 0.86
7 -19 3 4.87 1
7 -19 3 5.72 0.74
-7 -12 -3 5.06 1.07
-19 13 -3 12.4 1.55
19 -13 -3 13.37 1.41
13 -19 3 11.55 1.33
6 -19 -3 13.38 1.6
19 -6 3 13.87 1.39
-13 19 3 18.04 1.92
-13 -6 -3 9.48 1.62
19 -6 3 11.7 1.67
6 13 3 11.99 1.3
-6 -13 3 14.1 1.81
-19 6 3 15.21 1.58
-6 19 -3 11.51 1.64
-6 -13 3 14.79 1.8
6 -19 -3 12.3 1.58
6 13 -3 8.7 1.43
-13 19 -3 11.2 1.42
13 -19 -3 11.52 1.51
-6 -13 -3 10.95 1.61
19 -13 3 10.64 1.63
19 -13 3 12.11 1.36
6 -19 3 11.93 1.62
-19 6 -3 10.91 1.7
-6 19 3 11.31 1.28
-19 13 3 11.64 1.38
13 6 3 11.58 1.26
-19 6 -3 12.67 1.45
13 6 3 9.52 1.55
-6 -13 -3 12.35 1.64
6 -19 3 12.45 1.21
-19 5 3 1.88 0.97
-5 -14 3 3.54 0.92
19 -5 3 0.59 0.81
-19 5 3 3.24 0.8
-19 14 -3 1.18 0.68
-5 -14 3 2.07 0.85
19 -5 3 3.21 0.68
19 -14 -3 1.52 0.66
14 -19 3 1.65 0.6
-14 19 3 3.83 1.07
5 14 3 1.99 0.62
-5 19 -3 1.89 0.9
19 -14 -3 0.02 0.69
-19 14 -3 2.12 0.79
5 -19 -3 1.9 0.89
14 -19 -3 2.54 0.83
-5 -14 -3 3.39 0.86
-14 19 -3 1.7 0.75
5 -19 3 2.85 0.88
14 5 3 3.04 0.66
-19 5 -3 2.77 1.08
19 -14 3 2.93 0.73
19 -14 3 1.62 0.8
14 5 3 3.64 0.94
5 14 -3 1.61 0.75
-19 14 3 3.48 0.8
-5 -14 -3 3.38 0.91
-19 5 -3 3.11 0.82
5 -19 3 3.86 0.65
-5 19 3 4.09 0.69
15 -19 3 4.54 0.67
-15 -4 -3 2.74 0.66
19 -4 3 3.57 0.9
-19 4 3 8.26 1.31
-15 19 3 6.04 0.9
-19 4 3 4.57 1.12
4 -19 -3 4.7 0.92
19 -4 3 8.29 1.04
19 -15 -3 7.73 1.07
15 -19 3 6.95 1.01
-4 19 -3 5.75 1.03
15 -19 -3 2.78 0.81
-4 -15 -3 3.61 0.87
-15 19 -3 3.93 0.79
-19 4 -3 3.14 1.03
19 -15 3 3.91 0.73
4 -19 3 5.87 0.73
15 4 3 2.86 0.84
-4 19 3 5.36 0.73
15 4 3 3.89 0.7
-19 4 -3 6.2 0.95
-19 16 -3 1.4 0.75
-16 19 3 1.92 0.89
3 -19 -3 0.34 0.62
3 16 3 1.44 0.58
-3 -16 3 1.21 0.8
19 -3 3 1.57 0.63
-3 19 -3 0.32 0.61
-19 3 3 0.1 0.66
-19 3 3 2.65 0.75
16 -19 3 1.5 0.6
19 -16 -3 1.45 0.6
-16 19 3 0.73 0.81
-16 -3 -3 0.71 0.69
-19 16 -3 0.04 0.55
-3 19 3 2.08 0.62
-19 16 3 2.15 0.78
-16 -3 3 0.78 0.54
19 -16 3 1.89 0.62
-19 3 -3 3.19 0.82
3 -19 3 2.56 0.58
-19 16 3 3.58 0.82
-16 19 -3 2.6 0.75
-3 -16 -3 3.03 0.87
3 16 -3 0.16 0.83
16 3 3 2.22 0.64
-17 19 3 0.58 0.82
19 -17 -3 0.58 0.58
-19 2 3 1.02 0.71
-17 19 3 0.88 0.78
17 -19 3 -0.07 0.56
-17 -2 -3 0.9 0.71
2 17 3 -0.04 0.54
19 -2 3 -0.02 0.59
-2 -17 3 0.82 0.74
-19 17 -3 0.18 0.69
-19 17 3 0.24 0.72
-19 2 -3 0.67 0.74
-2 -17 -3 0.91 0.77
2 -19 3 0.13 0.51
17 -19 -3 -0.03 0.55
-17 19 -3 0.28 0.72
-19 17 3 0.22 0.69
-17 -2 3 0.45 0.61
19 -17 3 -0.43 0.57
17 2 3 0.35 0.54
-2 19 3 0.62 0.54
-18 19 3 4.7 0.87
18 -19 3 3.37 0.69
-19 18 -3 4.32 0.8
19 -1 3 4.07 0.7
19 -18 -3 4.05 0.66
-18 19 3 4.42 0.89
-18 -1 -3 3.63 0.8
-19 1 3 4.94 0.79
1 18 3 4.25 0.67
18 1 3 4.41 0.69
19 -18 3 2.23 0.64
18 -19 -3 1.87 0.6
-19 1 -3 4.01 0.82
-1 19 3 3.04 0.63
-18 19 -3 4.2 0.8
-19 18 3 2.42 0.77
-18 -1 3 3.03 0.71
-19 18 3 3.37 0.8
1 -19 3 2.39 0.57
19 -19 -3 2.58 0.6
-19 19 3 2.82 0.78
-19 19 3 2.47 0.77
-19 0 3 2.78 0.66
19 -19 3 1.77 0.6
0 -19 3 1.05 0.45
-19 0 -3 2.3 0.71
19 0 3 2.82 0.64
-19 19 -3 3.34 0.71
0 19 3 2.5 0.58
10 -20 -3 1.04 0.56
-10 -10 -3 1.21 0.77
-20 10 3 0.95 0.66
-10 -10 3 1.45 0.78
20 -10 3 -0.06 0.75
-20 10 -3 0.27 0.61
-10 -10 3 1.22 0.75
10 -20 -3 0.97 0.73
10 -20 3 0.35 0.7
10 10 3 0.87 0.55
-10 -10 -3 0.66 0.78
-10 20 3 0.28 0.7
10 10 3 0.77 0.69
10 -20 3 1.18 0.54
20 -10 -3 0.76 0.61
20 -10 3 1.09 0.61
-20 10 3 0.58 0.75
-20 9 3 1.43 0.59
9 11 3 1.42 0.66
9 11 3 2.28 0.61
-11 20 3 1.41 0.81
9 -20 -3 1.84 0.6
9 -20 -3 1.34 0.74
11 -20 3 0.92 0.63
-20 9 3 1.46 0.75
20 -9 3 2.8 0.65
11 -20 3 2.12 0.6
-11 -9 -3 3.16 0.87
-9 -11 3 2.08 0.85
20 -9 3 0.09 0.75
20 -11 -3 1.49 0.64
-9 -11 3 3.77 0.87
-20 11 3 1.39 0.68
-11 -9 3 3.46 0.83
20 -9 -3 1.74 0.61
20 -11 3 0.4 0.73
-9 -11 -3 1.93 0.86
20 -11 3 2.36 0.66
11 9 3 1.79 0.58
-20 9 -3 2.07 0.69
11 9 3 2.11 0.73
-20 11 3 0.87 0.72
9 -20 3 1.88 0.55
9 -20 3 2.14 0.79
-9 -11 -3 3.31 0.82
11 -20 -3 1.04 0.72
8 12 3 2.27 0.61
20 -8 3 0.77 0.76
20 -8 3 3.33 0.65
-12 20 3 1.52 0.86
-8 -12 3 3.47 0.84
12 -20 3 2.56 0.62
-12 -8 -3 2.32 0.85
-20 8 3 2.11 0.77
-20 12 -3 2.23 0.78
-8 -12 3 3.08 0.87
20 -12 -3 2.86 0.71
12 -20 3 0.2 0.95
8 12 3 1.46 0.64
8 -20 -3 1.55 0.71
8 -20 -3 2.83 0.64
8 -20 3 2.51 0.82
-20 8 -3 3.02 0.73
12 -20 -3 1.9 0.72
-8 -12 -3 2.9 0.79
20 -12 3 2.83 0.66
-12 -8 3 1.98 0.73
20 -8 -3 1.64 0.58
-20 12 3 2.38 0.73
12 8 3 1.96 0.59
-8 -12 -3 1.79 0.85
12 8 3 1.21 0.66
8 -20 3 2.7 0.58
13 -20 3 7.64 1.09
-13 -7 -3 6.84 1.39
7 13 3 7.45 1.07
-7 -13 3 9.47 1.43
7 -20 -3 8.51 1.14
-13 20 3 10.41 1.64
-20 7 3 10.25 1.41
20 -13 -3 7.66 1.17
20 -7 3 8.81 1.18
-20 13 -3 8.39 1.35
-13 -7 3 6.04 1.18
-7 -13 -3 5.45 0.98
20 -7 -3 6.75 0.88
7 -20 3 9.82 1.05
13 7 3 9.81 1.05
-13 20 -3 6.98 1.04
7 -20 3 7.32 1.19
-20 13 3 8.92 1.21
-20 7 -3 9.92 1.35
-14 20 3 10.85 1.73
-20 14 -3 8.53 1.36
-6 -14 3 10.14 1.43
-20 6 3 11.04 1.43
6 14 3 8.59 1.12
20 -6 3 9.22 1.17
20 -14 -3 9.02 1.22
14 -20 3 9.48 1.11
-14 -6 -3 8.39 1.16
20 -14 3 7.78 1.18
-6 -14 -3 8.68 1.52
-14 -6 3 5.47 0.93
-20 6 -3 10.35 1.36
14 6 3 7.87 1.06
-14 20 -3 5.87 0.94
-6 20 3 8.27 1.02
-20 14 3 7.29 0.96
6 -20 3 9.49 1.04
20 -15 -3 0.28 0.6
-20 15 -3 0.4 0.73
20 -5 3 0.82 0.58
5 15 3 0.22 0.52
15 -20 3 0.57 0.53
-20 5 3 -0.04 0.93
-5 -15 3 0.77 0.78
-15 20 3 0.68 0.88
-20 5 3 1.04 0.71
15 -20 3 0.25 0.52
15 5 3 0.85 0.54
-5 20 3 0.58 0.53
-5 -15 -3 1.95 0.81
20 -15 3 0.42 0.61
20 -5 -3 -0.08 0.4
5 -20 3 1.49 0.57
-15 20 -3 0.32 0.69
-20 15 3 1.21 0.69
-20 5 -3 0.72 0.73
-4 -16 3 3.6 0.87
-20 16 -3 2.91 0.78
-20 4 3 4.33 0.79
-16 20 3 3.35 0.95
20 -16 -3 2.28 0.65
-16 20 3 2.55 0.72
16 -20 3 1.47 0.6
20 -4 3 3.97 0.71
4 16 3 2.89 0.61
-20 4 -3 4.59 0.84
-16 20 -3 2.71 0.73
-4 20 3 3.56 0.63
-4 -16 -3 3.65 0.88
20 -16 3 3.45 0.68
16 4 3 2.97 0.64
4 -20 3 3.35 0.62
-20 16 3 4.85 0.83
-17 20 3 0.3 0.75
-17 20 3 0.93 0.78
20 -17 -3 0.19 0.55
20 -3 3 0.9 0.57
-20 3 3 0.54 0.63
17 -20 3 -0.27 0.51
3 17 3 0.33 0.52
-17 -3 -3 0.23 0.61
-20 17 -3 -0.26 0.62
-3 -17 3 0.54 0.7
3 -20 3 0.52 0.46
17 3 3 0.11 0.52
20 -17 3 -0.18 0.52
-3 -17 -3 0.8 0.75
-17 20 -3 0.65 0.62
-3 20 3 0.08 0.52
-20 17 3 0.84 0.66
-20 17 3 0.2 0.66
17 -20 -3 0.38 0.51
-17 -3 3 -0.61 0.36
-20 3 -3 0.82 0.71
20 -18 -3 0.5 0.54
-20 2 3 1.38 0.61
-18 20 3 1.53 0.73
18 -20 3 0.37 0.52
-18 20 3 0.8 0.7
-18 -2 -3 0.5 0.62
-20 18 -3 0.52 0.61
-2 -18 3 0.65 0.67
20 -2 3 0.23 0.57
2 18 3 0.98 0.51
-18 -2 3 -0.11 0.53
-2 -18 -3 0.53 0.65
18 2 3 0.97 0.53
-20 18 3 0.38 0.65
-18 20 -3 1.09 0.68
18 -20 -3 0.37 0.5
-20 18 3 0.55 0.65
20 -18 3 0.22 0.56
2 -20 3 0.68 0.48
-20 2 -3 1.04 0.66
-2 20 3 0.98 0.52
-19 -1 -3 0.04 0.58
20 -19 -3 -0.05 0.49
-20 19 -3 0.08 0.58
1 19 3 0.4 0.49
-20 1 3 0.72 0.56
-19 20 3 0.52 0.64
19 -20 3 0.12 0.51
-19 20 3 -0.3 0.62
20 -1 3 0.13 0.52
19 -20 -3 0.49 0.46
-1 20 3 0.08 0.47
-19 20 -3 0.55 0.6
-20 19 3 0.21 0.59
20 -19 3 -0.17 0.52
-19 -1 3 0.34 0.56
1 -20 3 -0.21 0.4
-20 19 3 -0.02 0.63
19 1 3 -0.07 0.48
-20 1 -3 0.47 0.63
-20 0 3 4.18 0.68
0 -20 -3 5.43 0.64
0 20 3 4.47 0.62
20 -20 -3 3.35 0.59
20 0 3 4.03 0.62
-20 20 -3 4.44 0.71
-20 20 3 4.59 0.75
-20 20 3 3.3 0.68
-20 0 -3 4.07 0.7
21 -11 -3 0.22 0.58
-11 -10 -3 0.88 0.78
-11 21 3 0.16 0.66
11 -21 3 0.59 0.53
21 -10 3 0.52 0.53
-10 -11 3 0.9 0.74
-21 10 3 0.24 0.59
10 11 3 0.49 0.53
10 -21 -3 0.58 0.52
-21 10 3 -0.01 0.67
-10 21 3 -0.12 0.37
11 -21 -3 -0.02 0.43
11 10 3 0.76 0.5
-21 11 3 0.94 0.68
21 -10 -3 0.12 0.54
21 -11 3 0.56 0.54
-11 -10 3 0.89 0.72
-10 -11 -3 1.02 0.78
10 -21 3 0.49 0.5
-21 10 -3 0.03 0.58
-21 11 3 -0.09 0.67
-21 9 3 0.07 0.48
21 -12 -3 0.7 0.56
21 -9 3 2.05 0.57
-12 -9 -3 2.22 0.81
-21 9 3 0.91 0.65
9 -21 -3 1.28 0.54
-12 21 3 2.26 0.82
12 -21 3 1.53 0.56
-9 -12 3 3.08 0.82
9 12 3 1.49 0.55
21 -9 -3 1.67 0.55
9 -21 3 1.45 0.5
-21 9 -3 0.63 0.61
-12 -9 3 1.21 0.68
-9 -12 -3 1.95 0.82
-21 12 3 0.62 0.65
21 -12 3 1.37 0.6
12 9 3 1.21 0.54
-21 13 -3 15.6 1.52
-21 8 3 15.64 1.55
21 -13 -3 14.18 1.41
21 -8 3 15.84 1.41
-8 -13 3 14.94 1.66
13 -21 3 14.81 1.34
-13 21 3 15.32 1.71
8 -21 -3 15.04 1.35
8 13 3 15.99 1.35
-13 -8 -3 11.64 1.65
21 -8 -3 13.11 1.19
-8 -13 -3 13.79 1.64
-21 8 -3 13.14 1.42
-13 -8 3 10.45 1.42
-21 13 3 13.72 1.39
21 -13 3 14.31 1.35
8 -21 3 14.96 1.24
13 8 3 14.26 1.27
-14 -7 -3 4.07 0.89
-14 21 3 5.9 1.05
14 -21 3 3.36 0.63
7 14 3 4.13 0.67
-21 14 -3 2.7 0.76
-7 -14 3 5.54 0.91
21 -14 -3 3.74 0.7
-21 7 3 4.13 0.8
21 -7 3 5.89 0.73
7 -21 -3 3.71 0.65
-7 -14 -3 4.06 0.86
7 -21 3 3.97 0.6
21 -14 3 4.51 0.73
-21 14 3 3.87 0.74
-21 7 -3 3.89 0.8
14 7 3 3.06 0.6
21 -6 3 2.6 0.63
-21 6 3 3.74 0.74
21 -15 -3 2.16 0.63
6 15 3 2.79 0.58
15 -21 3 2.05 0.54
6 -21 -3 3.01 0.6
-15 21 3 4.17 0.98
15 -21 3 2.13 0.56
-21 15 -3 2.14 0.73
-21 6 -3 2.46 0.73
15 6 3 1.19 0.52
-21 15 3 2.11 0.67
-6 -15 -3 2.25 0.78
21 -15 3 1.53 0.61
6 -21 3 1.77 0.5
-15 21 -3 0.79 0.6
-21 5 3 6.44 0.86
16 -21 3 3.07 0.63
5 -21 -3 7.03 0.94
21 -5 3 4.27 0.69
-5 -16 3 4.28 0.87
-16 21 3 6.54 1
-21 16 -3 5.24 0.84
21 -16 -3 3.37 0.69
5 16 3 4.5 0.66
-5 21 3 6.42 0.91
21 -16 3 5.96 0.77
-16 21 -3 4.54 0.78
-5 -16 -3 5.18 0.9
-21 16 3 6.33 0.82
5 -21 3 7.07 0.9
16 5 3 5.62 0.72
-21 5 -3 7.31 0.93
-21 4 3 6.38 0.83
17 -21 3 3.23 0.61
4 -21 -3 5.3 0.65
-17 21 3 5.61 0.89
-4 -17 3 5.22 0.88
4 17 3 4.24 0.65
21 -17 -3 3.95 0.69
-21 17 -3 4.94 0.8
21 -4 3 4.35 0.68
4 -21 3 3.49 0.57
-21 17 3 4.76 0.71
17 -21 -3 4.71 0.63
-4 -17 -3 4.54 0.82
21 -17 3 3.09 0.63
-21 4 -3 5.78 0.82
-4 21 3 4.02 0.59
-17 21 -3 2.98 0.68
17 4 3 3.87 0.6
3 18 3 0.54 0.47
-18 21 3 1.06 0.69
21 -18 -3 0.6 0.5
3 -21 -3 1.39 0.51
-18 21 3 0.52 0.59
-21 18 -3 0.48 0.58
18 -21 3 0.63 0.5
21 -3 3 0.67 0.53
-21 3 3 0.72 0.57
-3 -18 3 0.95 0.67
3 -21 3 0.85 0.43
18 -21 -3 0.25 0.47
18 3 3 0.74 0.49
21 -18 3 0.42 0.5
-21 18 3 0.49 0.5
-21 3 -3 1.35 0.63
-3 21 3 0.75 0.43
-21 18 3 0.28 0.53
-3 -18 -3 0.95 0.65
-18 21 -3 0.58 0.55
-19 -2 -3 2.1 0.55
-19 21 3 2.11 0.61
21 -2 3 2.75 0.57
19 -21 3 1.89 0.53
-19 21 3 3.05 0.73
2 -21 -3 2.88 0.54
2 19 3 1.91 0.51
21 -19 -3 2.36 0.51
-21 19 -3 2.18 0.6
-21 2 3 2.56 0.61
21 -19 3 1.11 0.5
2 -21 3 0.82 0.42
19 2 3 1.12 0.49
-2 21 3 1.16 0.45
-21 2 -3 1.62 0.6
-21 19 3 1.33 0.56
-21 19 3 1.02 0.55
-19 21 -3 1.14 0.59
19 -21 -3 1.48 0.47
1 -21 -3 0.72 0.43
21 -1 3 0.44 0.46
-20 21 3 0.42 0.55
21 -20 -3 0.39 0.44
1 20 3 0.45 0.42
-20 21 3 0.79 0.52
-20 -1 -3 0.64 0.52
-21 1 3 0.29 0.49
20 -21 3 0.58 0.45
-21 20 -3 0.71 0.53
20 -21 -3 0.55 0.46
-21 20 3 0.46 0.51
21 -20 3 0.39 0.47
-20 21 -3 0.85 0.53
20 1 3 0.42 0.45
-1 -20 -3 0.76 0.4
-1 21 3 0.15 0.4
-21 20 3 0.55 0.52
-20 -1 3 0.21 0.31
-21 1 -3 0.51 0.53
21 0 3 0.57 0.46
0 -21 -3 0.71 0.42
-21 0 3 0.09 0.33
-21 21 3 0.49 0.54
21 -21 3 0.24 0.35
-21 21 -3 0.76 0.52
-21 21 3 0.39 0.52
21 -21 -3 0.66 0.45
0 21 3 1 0.4
-21 0 -3 0.43 0.49
-11 -11 3 3.41 0.79
11 11 3 1.93 0.52
11 -22 3 2.61 0.54
-11 -11 -3 3.18 0.81
22 -11 -3 2.28 0.55
-22 11 3 1.28 0.6
11 -22 -3 1.36 0.47
22 -11 3 2.1 0.55
-22 11 3 1.51 0.59
-12 -10 -3 4.71 0.86
10 12 3 3.96 0.62
10 -22 -3 3.21 0.57
-10 -12 3 4.74 0.83
22 -12 -3 4.38 0.65
-12 22 3 3.56 0.75
12 -22 3 4.72 0.61
-22 10 3 2.56 0.69
22 -10 3 5.43 0.66
-22 12 3 5.56 0.8
22 -10 -3 3.69 0.61
12 10 3 4.42 0.64
10 -22 3 6.34 0.84
-22 10 -3 4 0.69
-12 -10 3 4.49 0.81
22 -12 3 6.06 0.7
9 13 3 0.55 0.5
-13 22 3 0.01 0.63
13 -22 3 0.35 0.44
-22 9 3 0.08 0.61
-9 -13 3 1.07 0.71
22 -9 3 0.09 0.48
22 -13 -3 0.16 0.51
-22 13 -3 -0.05 0.31
-13 -9 -3 0.52 0.68
9 -22 -3 0.35 0.45
-13 -9 3 0.25 0.62
-9 -13 -3 1.23 0.73
9 -22 3 0.43 0.45
22 -13 3 0.12 0.49
-22 13 3 0.71 0.64
-22 9 -3 -0.3 0.52
13 9 3 -0.11 0.45
22 -9 -3 0.37 0.37
-22 8 3 7.97 1.21
22 -8 3 8.87 1.01
-8 -14 3 9.73 1.35
14 -22 3 7.64 0.93
8 -22 -3 7.25 0.93
8 14 3 8.34 0.97
-14 22 3 8.58 1.29
22 -14 -3 6.62 0.96
-22 14 -3 7.2 1.08
-14 -8 -3 6.14 1.23
-22 8 -3 5.97 1.01
-8 -14 -3 7.55 1.3
14 8 3 6.12 0.9
22 -14 3 6.47 0.77
-22 14 3 6.07 0.85
8 -22 3 6.79 0.86
-22 7 3 4.63 0.75
7 15 3 4.81 0.63
-15 22 3 5.46 0.95
22 -7 3 4.43 0.65
-7 -15 3 5.38 0.83
22 -15 -3 4.6 0.64
15 -22 3 3 0.58
-22 15 -3 3.34 0.71
7 -22 -3 3.94 0.59
-22 7 -3 5.54 0.77
-7 -15 -3 5.94 0.85
7 -22 3 5.6 0.81
22 -15 3 5.58 0.7
15 7 3 4.5 0.64
-22 15 3 4.65 0.75
-16 22 3 2 0.77
22 -16 -3 1.64 0.52
22 -6 3 1.78 0.55
-6 -16 3 2.47 0.72
6 -22 -3 1.43 0.47
-22 6 3 2.11 0.66
6 16 3 1.63 0.49
-22 16 -3 1.66 0.64
-22 6 -3 3.23 0.68
-6 -16 -3 2.28 0.67
6 -22 3 2.5 0.49
-16 22 -3 1.19 0.52
22 -16 3 1.75 0.54
-22 16 3 2.73 0.61
16 6 3 1.58 0.49
22 -17 -3 0.76 0.47
-22 5 3 1.21 0.6
-22 17 -3 0.57 0.55
-17 22 3 1.07 0.7
5 17 3 0.71 0.43
17 -22 3 0.33 0.38
5 -22 -3 0.97 0.45
22 -5 3 0.66 0.52
-5 -17 3 1.38 0.67
-22 5 -3 1.43 0.62
-5 -17 -3 0.91 0.61
22 -17 3 0.81 0.51
-22 17 3 0.86 0.55
-17 22 -3 0.79 0.52
17 5 3 0.89 0.45
17 -22 -3 0.97 0.49
5 -22 3 1.25 0.46
-22 18 -3 5.13 0.72
-22 4 3 6.22 0.75
4 -22 -3 6.6 0.83
4 18 3 5.79 0.8
22 -4 3 6.14 0.9
-4 -18 3 4.5 0.77
22 -18 -3 6.49 0.87
-18 22 3 6.38 1.12
18 4 3 4.76 0.58
-22 4 -3 4.95 0.72
-18 22 -3 4.11 0.64
4 -22 3 4.82 0.59
22 -18 3 4.22 0.61
-4 -18 -3 3.79 0.69
-22 18 3 3.8 0.63
18 -22 -3 5.68 0.63
3 19 3 1.23 0.45
22 -19 -3 1.71 0.49
-22 3 3 1.96 0.56
22 -3 3 1.45 0.51
-22 19 -3 0.97 0.53
-19 22 3 1.65 0.61
3 -22 -3 2.26 0.46
19 -22 -3 1.45 0.46
-22 19 3 1.93 0.54
-22 3 -3 2.18 0.6
19 3 3 1.63 0.45
-19 22 -3 1.47 0.49
3 -22 3 1.12 0.4
22 -19 3 1 0.47
-3 -19 -3 0.79 0.37
22 -2 3 0.8 0.47
22 -20 -3 0.93 0.44
2 -22 -3 1.22 0.42
-22 2 3 0.71 0.51
-22 20 -3 0.75 0.54
2 20 3 1.02 0.43
-20 22 3 0.75 0.59
20 -22 -3 -0.08 0.45
-20 22 -3 0.17 0.51
-22 2 -3 0 0.54
-22 20 3 0.08 0.53
22 -20 3 0.27 0.42
20 2 3 0.1 0.43
-2 -20 -3 -0.16 0.32
23 -11 3 0.45 0.45
-12 -11 -3 0.97 0.65
11 -23 -3 -0.29 0.31
-23 11 3 0.36 0.46
12 -23 3 0.78 0.4
23 -12 -3 0.23 0.39
-11 -12 3 1.09 0.64
11 12 3 1.12 0.48
23 -12 3 1.1 0.48
-11 -12 -3 1.38 0.65
12 11 3 0.11 0.42
-23 12 3 0.4 0.37
11 -23 3 0.66 0.4
23 -11 -3 0.12 0.28
-12 -11 3 1.09 0.64
23 -13 -3 1.36 0.44
10 13 3 1.49 0.47
-10 -13 3 2.59 0.69
10 -23 -3 1.14 0.43
13 -23 3 1.65 0.43
-13 -10 -3 0.81 0.62
23 -10 3 1.23 0.48
-13 23 3 1.18 0.55
-23 10 3 0.85 0.52
10 -23 3 1.29 0.41
23 -10 -3 -0.01 0.38
23 -13 3 1.31 0.47
-10 -13 -3 2.19 0.67
-23 13 3 1.47 0.55
13 10 3 0.75 0.46
-13 -10 3 0.59 0.58
-23 10 -3 0.16 0.48
23 -14 -3 0.99 0.42
9 -23 -3 0.8 0.41
14 -23 3 1.09 0.41
-23 9 3 0.41 0.46
-14 -9 -3 0.75 0.61
-14 23 3 0.8 0.56
23 -9 3 0.93 0.48
9 14 3 1.5 0.47
-9 -14 3 2.34 0.67
23 -14 3 0.78 0.47
-23 9 -3 0.34 0.51
-14 -9 3 0.54 0.58
-23 14 3 0.8 0.55
14 9 3 0.98 0.45
9 -23 3 0.94 0.42
-9 -14 -3 1.09 0.6
15 -23 3 0.49 0.36
-8 -15 3 1.24 0.62
8 15 3 0.78 0.43
23 -15 -3 0.44 0.43
8 -23 -3 0.28 0.39
-15 23 3 0.1 0.54
-23 15 -3 0.09 0.36
-23 8 3 0.94 0.55
23 -8 3 0.71 0.48
-8 -15 -3 1.48 0.6
8 -23 3 1.57 0.44
15 8 3 1.29 0.45
23 -15 3 1.31 0.48
-23 8 -3 0.51 0.51
-23 15 3 1.63 0.54
23 -7 3 0.1 0.45
-16 23 3 -0.01 0.61
-23 16 -3 0.56 0.49
-23 7 3 0.55 0.53
7 16 3 0.06 0.41
23 -16 -3 0.35 0.41
7 -23 -3 0.3 0.39
-7 -16 3 0.55 0.62
16 7 3 0.25 0.41
-7 -16 -3 0.9 0.57
-23 7 -3 0.2 0.56
7 -23 3 0.4 0.41
-23 16 3 0.05 0.53
23 -16 3 0.39 0.47
-23 6 3 2.23 0.56
-23 17 -3 1.12 0.52
23 -6 3 1.55 0.5
-6 -17 3 1.95 0.59
23 -17 -3 1.76 0.43
6 17 3 1.41 0.46
6 -23 -3 2.34 0.46
-17 23 3 1.2 0.63
23 -17 3 1.42 0.5
-23 17 3 1.63 0.52
-23 6 -3 2.19 0.66
17 -23 -3 1.27 0.46
6 -23 3 1.92 0.48
17 6 3 1.55 0.45
-6 -17 -3 1.73 0.58
-23 18 -3 0.23 0.48
5 -23 -3 0.74 0.41
23 -18 -3 0.36 0.38
-5 -18 3 0.42 0.54
23 -5 3 0.9 0.49
-18 23 3 0.47 0.63
-23 5 3 0.67 0.53
5 18 3 0.24 0.41
18 -23 -3 0.86 0.45
-5 -18 -3 0.35 0.46
-23 18 3 0.69 0.54
-23 5 -3 1.16 0.59
18 5 3 0.76 0.44
5 -23 3 0.7 0.42
23 -18 3 0.56 0.48
23 -19 -3 2.64 0.43
23 -4 3 2.93 0.54
-19 23 3 4.79 0.75
-23 19 -3 3.65 0.59
4 -23 -3 3.73 0.51
4 19 3 3.01 0.47
-23 4 3 3.78 0.65
19 4 3 3.21 0.53
19 -23 -3 4.33 0.55
23 -19 3 3.44 0.54
-23 4 -3 4.4 0.64
-23 19 3 4.06 0.6
12 12 3 2.61 0.49
-12 -12 3 3.87 0.71
12 -24 3 2.36 0.44
24 -12 3 3.19 0.53
-12 -12 -3 3.28 0.69
11 13 3 0.6 0.4
24 -11 3 0.64 0.45
13 -24 3 0.77 0.37
-13 -11 -3 0.48 0.5
-11 -13 3 1.39 0.62
-13 -11 3 1.01 0.57
11 -24 3 0.87 0.37
13 11 3 1.11 0.42
-11 -13 -3 1.76 0.62
24 -13 3 1.17 0.45
10 14 3 1.32 0.43
-14 -10 -3 0.88 0.52
24 -10 3 1.73 0.47
14 -24 3 1.15 0.35
-10 -14 3 2.26 0.63
-24 10 3 0.84 0.43
10 -24 3 1.53 0.39
-10 -14 -3 2.14 0.62
24 -14 3 1.38 0.44
14 10 3 1.54 0.43
-24 14 3 0.21 0.27
-14 -10 3 0.74 0.47
24 -15 -3 -0.13 0.29
9 15 3 0.21 0.39
24 -9 3 0.03 0.45
-9 -15 3 0.86 0.6
-15 24 3 0.38 0.47
9 -24 -3 0.32 0.33
-24 9 3 0.46 0.49
-24 9 -3 -0.31 0.43
-24 15 3 -0.07 0.28
-24 15 3 0.54 0.43
-9 -15 -3 0.53 0.55
24 -15 3 0.37 0.43
9 -24 3 0.72 0.36
15 9 3 0.32 0.41
8 -24 -3 0.66 0.37
-24 8 3 0.86 0.55
8 16 3 0.85 0.41
-16 24 3 0.65 0.56
-8 -16 3 1.16 0.6
24 -8 3 0.77 0.45
24 -16 -3 -0.09 0.3
8 -24 3 0.88 0.4
16 -24 -3 0.52 0.42
-8 -16 -3 0.56 0.56
-24 8 -3 0.75 0.54
16 8 3 0.56 0.42
24 -16 3 0.57 0.44
-24 16 3 0.36 0.45
7 -24 -3 2.49 0.45
-7 -17 3 3.38 0.64
-17 24 3 3.05 0.69
-24 7 3 2.69 0.6
24 -7 3 4.64 0.62
7 17 3 1.94 0.43
17 7 3 4.38 0.56
24 -17 3 4.08 0.57
-7 -17 -3 4.64 0.91
-24 7 -3 3.97 0.67
7 -24 3 5.52 0.72
17 -24 -3 5.03 0.75
-24 17 3 3.04 0.58
0 0 4 0.4 0.28
0 0 4 0.09 0.15
0 0 -4 0.17 0.24
0 0 -4 0.12 0.22
0 -1 4 3.72 0.5
0 1 -4 4.02 0.51
0 -1 -4 3.07 0.47
-1 0 4 3.81 0.57
1 -1 -4 4.62 0.5
0 -1 -4 3.87 0.47
-1 1 -4 4.01 0.43
1 -1 4 3.11 0.44
-1 0 -4 5.16 0.56
-1 0 -4 4.34 0.47
-1 1 -4 4.34 0.46
1 -1 -4 4.09 0.5
1 0 -4 4.67 0.48
-1 -1 -4 0.5 0.38
-2 1 4 0.67 0.37
-1 -1 4 0.59 0.44
1 1 -4 0.78 0.3
1 -2 -4 0.97 0.37
-2 1 -4 0.71 0.31
2 -1 4 0.53 0.2
1 -2 -4 0.85 0.32
1 -2 -4 0.69 0.39
-1 2 -4 0.33 0.28
1 -2 4 0.92 0.41
-2 1 -4 0.66 0.3
2 -1 -4 0.44 0.29
2 -1 -4 0.97 0.28
-1 -1 -4 0.53 0.21
-1 -1 -4 0.89 0.33
-2 2 -4 0.88 0.41
-2 0 -4 0.77 0.39
0 2 -4 0.37 0.34
0 -2 -4 -0.04 0.37
-2 2 -4 0.64 0.29
0 -2 -4 0.5 0.28
0 -2 4 0.61 0.45
-2 0 4 0.8 0.41
2 -2 -4 0.39 0.29
2 -2 -4 0.4 0.38
2 -2 4 0.5 0.33
2 0 -4 0.63 0.26
-2 0 -4 0.62 0.43
0 -2 -4 1.23 0.44
3 -2 -4 123.21 8.51
2 1 -4 128.67 8.52
1 -3 -4 122.68 8.54
1 -3 -4 127.48 8.56
-2 -1 -4 129.23 8.6
-1 3 -4 131.07 8.55
3 -2 -4 121.18 8.55
1 -3 -4 127.14 8.61
-3 1 4 123.52 8.57
2 -3 4 129.52 8.57
-1 -2 4 145.38 8.62
-3 2 -4 123.68 8.56
-3 2 -4 132.65 8.57
-2 -1 -4 137.57 8.57
-2 3 -4 123.99 8.43
-1 -2 -4 116.18 8.38
2 -3 -4 127.34 8.43
-2 -1 4 135.88 8.48
-1 -2 -4 130.54 8.45
2 -3 -4 129.57 8.49
1 -3 4 127.37 8.39
1 2 -4 125.8 8.42
-3 1 -4 126.04 8.44
-3 1 -4 126.48 8.46
-1 -2 -4 126.38 8.5
3 -1 -4 123.61 8.39
2 -3 -4 130.1 8.44
3 -2 4 133.34 8.39
1 -3 4 120.86 8.47
-3 3 -4 11.42 1.03
3 -3 -4 12.75 0.96
0 -3 -4 11.84 0.98
0 -3 4 14.62 1.18
-3 0 4 13.46 1.15
3 0 -4 12.72 0.92
0 -3 4 11.29 0.89
0 3 -4 12.81 0.96
-3 0 -4 13.21 1.07
3 -3 -4 12.9 1.1
0 -3 -4 13.43 1.17
0 -3 -4 13.99 1.06
-3 0 -4 12.53 1.11
-3 3 -4 12.6 0.99
3 -3 4 12.44 1.06
-2 -2 -4 98.11 7.39
2 -4 -4 120.15 7.55
-2 -2 -4 116.75 7.56
-2 4 -4 107.96 7.47
2 2 -4 111.57 7.44
-2 -2 -4 114.28 7.49
-2 -2 4 106.58 7.4
-2 -2 4 125.29 7.55
2 -4 -4 118.5 7.47
2 -4 4 106.84 7.5
2 -4 -4 112.51 7.47
4 -2 -4 103.53 7.4
-4 2 -4 111.23 7.5
-4 2 -4 116.91 7.49
-3 -1 -4 10.29 0.83
-1 -3 4 9.62 0.99
1 -4 -4 9.17 0.87
-4 3 -4 8.86 0.9
-3 -1 -4 10.24 1.07
-1 -3 4 8.94 0.74
-4 3 -4 9.58 0.8
3 -4 4 8.56 0.88
-4 1 4 7.38 0.8
-4 1 4 10.05 0.91
1 -4 -4 9.4 0.84
3 1 -4 9.27 0.73
1 -4 -4 9.29 0.95
-1 4 -4 9.62 0.79
4 -3 -4 9.5 0.74
-3 4 -4 15.53 1.27
3 -4 -4 15.77 1.37
-3 -1 4 16.31 1.35
-1 -3 -4 18.99 1.47
-1 -3 -4 17.31 1.26
-3 4 -4 15.76 1.23
1 -4 4 17.98 1.44
1 -4 4 15.32 1.24
4 -3 4 14.83 1.22
-1 -3 -4 15.98 1.22
-3 -1 4 16.33 1.19
4 -1 -4 16.68 1.14
1 3 -4 16.34 1.23
-4 1 -4 18.11 1.38
-4 1 -4 17.18 1.31
3 -4 -4 16.89 1.2
3 -4 -4 16.67 1.3
4 -4 -4 41.21 2.74
4 -4 -4 38.75 2.77
0 -4 -4 39.42 2.73
4 0 -4 33.08 2.6
0 4 -4 41.22 2.69
4 -4 4 33.73 2.7
4 -4 -4 40.34 2.67
-4 0 -4 41.88 2.72
0 -4 -4 43.27 2.87
0 -4 4 33.3 2.65
0 -4 -4 40.35 2.7
-4 0 4 33.59 2.67
0 -4 4 43.21 2.82
-4 4 -4 38.64 2.75
-4 0 -4 42.03 2.82
-4 0 4 43.07 2.79
-4 4 -4 40.7 2.7
-2 5 -4 109.18 7.12
2 -5 -4 115.68 7.15
3 2 -4 104.74 7.07
-5 2 4 90.99 7.12
2 -5 -4 112.06 7.23
-5 2 4 112.18 7.17
5 -3 -4 96.17 7.04
-2 -3 4 97.74 7.09
-3 -2 -4 113.14 7.14
-5 3 -4 112.63 7.13
-2 -3 4 117.15 7.21
-5 3 -4 108.84 7.17
3 -5 4 91.96 7.14
2 -5 -4 107.67 7.14
-3 -2 -4 110.29 7.23
2 3 -4 118.89 8.12
3 -5 -4 128.95 8.17
-5 2 -4 134.52 8.17
-2 -3 -4 124.76 8.17
-2 -3 -4 102.58 8.09
-5 2 -4 120.72 8.21
3 -5 -4 125.88 8.24
-2 -3 -4 128.86 8.27
-3 5 -4 123.33 8.16
-3 -2 4 132.04 8.23
3 -5 -4 124.86 8.15
2 -5 4 118.66 8.2
-3 -2 4 120.58 8.13
2 -5 4 108.08 8.15
1 -5 -4 4.41 0.57
-1 -4 4 3.85 0.71
4 -5 4 3.28 0.59
-4 -1 -4 1.61 0.48
-5 1 4 4.44 0.66
1 4 4 2.17 0.45
4 1 -4 3.43 0.36
-5 1 4 3.67 0.59
1 -5 -4 5.09 0.88
-1 -4 4 2.23 0.41
-1 5 -4 4.48 0.59
-1 -4 4 2.03 0.46
1 -5 -4 4.13 0.54
-5 4 -4 4.15 0.73
4 -5 4 2.9 0.49
5 -4 -4 3.79 0.42
-5 4 -4 4.86 0.63
-4 -1 -4 5.32 0.93
-5 1 4 2.45 0.54
5 -4 4 5.94 0.71
1 -5 4 6.44 0.75
1 4 -4 7.67 0.65
-4 -1 4 7.05 0.75
-4 5 -4 6.7 0.87
-5 1 -4 6.5 0.81
-1 -4 -4 4.88 0.7
-5 1 -4 7.49 0.89
-5 1 -4 8.02 0.72
5 -4 4 5.82 0.71
-4 -1 4 8.24 0.91
-1 -4 -4 7.31 0.7
4 -5 -4 7.27 0.9
-4 5 -4 7.49 0.69
1 -5 4 7.92 0.94
-1 -4 -4 8.31 1.09
4 -5 -4 7.96 0.71
4 -5 -4 6.95 0.76
0 -5 -4 20.99 1.66
0 -5 -4 21.54 1.69
-5 0 4 22.16 1.67
5 -5 -4 23.56 1.7
-5 0 -4 26.43 1.65
-5 5 -4 22.39 1.74
0 5 -4 23.58 1.61
0 -5 -4 23.48 1.84
-5 0 4 23.85 1.76
5 0 -4 20.56 1.71
-5 5 -4 23.59 1.63
5 0 4 18.47 1.61
0 -5 4 24.58 1.81
-5 0 -4 23.59 1.74
5 -5 4 20.84 1.64
5 -5 -4 24.78 1.78
-5 5 -4 21.68 1.73
5 -5 4 18.58 1.65
-5 0 4 20.36 1.73
5 -5 -4 24.53 1.6
-5 0 -4 22.13 1.76
0 -5 4 18.25 1.62
-3 -3 4 3.05 0.71
3 -6 4 2.17 0.49
-3 -3 -4 2.59 0.7
3 -6 -4 2.62 0.56
3 -6 -4 2.92 0.47
3 3 4 3.12 0.57
6 -3 4 2.15 0.46
3 -6 -4 2.88 0.64
6 -3 -4 2.06 0.54
3 -6 4 2.36 0.51
3 3 -4 2.34 0.5
3 -6 4 2.65 0.65
-3 6 -4 2.76 0.47
-6 3 -4 2.31 0.56
-6 3 -4 2.55 0.61
3 3 -4 2.12 0.38
-6 3 4 1.58 0.49
-3 -3 4 1.97 0.53
-6 3 4 1.96 0.53
-6 3 -4 1.37 0.43
-3 -3 4 1.18 0.42
-3 -3 -4 3.45 0.62
-3 6 -4 2.26 0.57
4 2 -4 3.1 0.57
2 -6 -4 4.69 0.62
2 -6 -4 3.97 0.72
6 -4 -4 2.51 0.52
-6 2 4 5.03 0.71
-2 6 -4 2.2 0.5
-6 4 -4 4.57 0.71
-6 2 4 3.78 0.65
4 -6 4 3.4 0.68
-4 -2 -4 4.54 0.8
2 4 4 2.81 0.57
4 2 -4 3.59 0.41
-2 -4 4 4.26 0.78
-6 4 -4 4.29 0.65
-2 6 -4 4.15 0.64
2 -6 -4 3.42 0.61
6 -2 4 3.1 0.53
-2 -4 4 4.37 0.68
-6 2 4 3.62 0.64
-4 -2 -4 4.77 0.68
4 -6 4 3.87 0.63
-6 2 -4 0.39 0.55
-4 6 -4 0.81 0.57
-4 -2 4 0.11 0.4
2 -6 4 0.91 0.58
-6 2 -4 0.53 0.51
-6 2 -4 0.84 0.39
4 -6 -4 0.71 0.45
-4 -2 4 0.49 0.45
2 4 -4 0.45 0.39
4 2 4 0.79 0.47
6 -4 4 0.6 0.33
6 -4 4 0.88 0.42
2 4 -4 0.38 0.41
-4 6 -4 1.04 0.54
-2 -4 -4 0.7 0.39
-2 -4 -4 0.48 0.34
-2 -4 -4 0.7 0.71
2 -6 4 0.87 0.47
2 -6 4 0.35 0.32
4 -6 -4 1.02 0.5
-4 -2 4 0.63 0.66
4 -6 -4 1 0.58
-6 4 4 0.23 0.36
6 -2 -4 0.73 0.53
-5 -1 -4 16.43 1.47
6 -5 -4 14.52 1.14
-1 -5 4 16.47 1.48
1 -6 -4 15.14 1.26
-6 5 -4 15.25 1.41
-6 1 4 16.78 1.39
-1 6 -4 16.47 1.3
6 -5 -4 17.13 1.34
5 -6 4 13.43 1.32
-5 -1 -4 17.67 1.35
-6 1 4 15.94 1.34
1 -6 -4 17.46 1.49
-1 -5 4 16.05 1.36
-6 5 -4 17.87 1.32
5 -6 4 15.19 1.3
6 -1 4 14.77 1.25
5 1 -4 15.97 1.35
1 -6 -4 15.89 1.33
-5 -1 -4 16.47 1.43
-6 1 4 13.92 1.36
-6 5 -4 15.76 1.4
6 -5 4 19.55 1.58
-5 -1 4 21.07 1.64
6 -1 -4 21.87 1.71
-1 -5 -4 21.42 1.58
-6 1 -4 21.78 1.73
1 5 -4 20.94 1.57
-6 1 -4 21.9 1.63
-1 -5 -4 24.87 1.91
-5 6 -4 22.25 1.57
5 1 4 19.12 1.55
1 5 -4 18.65 1.61
-5 6 -4 20.83 1.66
-5 -1 4 23.37 1.73
-6 1 -4 21.08 1.68
5 -6 -4 21.43 1.73
5 -6 -4 21.33 1.56
1 -6 4 23.47 1.81
5 -6 -4 19.57 1.61
1 -6 4 17.99 1.6
-1 -5 -4 18.47 1.53
0 -6 -4 44.18 3.14
6 0 4 40.44 3.08
6 -6 -4 42.96 3.21
6 -6 -4 43.02 3.06
0 -6 -4 49.12 3.36
-6 0 -4 47.96 3.3
6 -6 4 42.39 3.11
0 -6 -4 44.41 3.13
-6 0 4 43.39 3.18
-6 0 -4 45.14 3.19
-6 6 -4 48.35 3.12
-6 0 4 49.74 3.23
0 -6 -4 42.84 3.12
0 6 -4 41.05 3.14
-6 6 -4 42.23 3.16
6 0 -4 44.68 3.17
-6 0 4 40.36 3.17
-6 0 -4 47.83 3.12
0 6 -4 46.09 3.13
0 -6 4 49.58 3.27
0 -6 4 43.39 3.15
6 -6 -4 47.28 3.18
-6 6 -4 45.55 3.21
-7 4 -4 17.93 1.35
3 4 4 16.35 1.33
-7 4 -4 17.1 1.5
3 -7 -4 16.51 1.53
4 -7 4 15.02 1.38
3 -7 -4 16.26 1.34
7 -4 -4 16.59 1.39
7 -3 4 15.39 1.29
4 -7 4 14.44 1.45
-4 -3 -4 16.3 1.39
-7 3 4 14.85 1.39
4 -7 4 15.92 1.36
-3 -4 4 18.55 1.52
-4 -3 -4 17.4 1.29
3 4 4 14.34 1.23
-3 7 -4 16.92 1.35
-3 7 -4 15.42 1.35
-7 4 -4 12.64 1.3
-4 -3 -4 18.34 1.69
-7 3 4 16.05 1.45
3 -7 -4 16.35 1.38
-3 -4 4 15.84 1.38
4 3 -4 16.33 1.37
3 -7 4 19.49 1.64
-7 3 -4 22.48 1.56
3 -7 4 20.29 1.63
-4 -3 4 22.93 1.76
-3 -4 -4 20.61 1.65
7 -3 -4 21.05 1.67
-7 4 4 19.17 1.63
-3 -4 -4 20.88 1.57
4 -7 -4 21.06 1.61
7 -4 4 19.45 1.56
-7 3 -4 20.62 1.71
4 3 4 17.56 1.5
-7 3 -4 20.26 1.66
-4 7 -4 21.63 1.56
4 3 4 19.82 1.58
-4 -3 4 21.05 1.7
3 4 -4 20.18 1.66
4 -7 -4 22.14 1.84
4 -7 -4 21.5 1.62
-4 7 -4 20.5 1.64
3 -7 4 19.38 1.69
3 4 -4 19.21 1.52
-3 -4 -4 22.99 1.95
-2 7 -4 20.78 1.59
7 -2 4 19.73 1.6
2 -7 -4 22.3 1.7
-5 -2 -4 21.47 1.68
-5 -2 -4 23.53 1.96
7 -5 -4 22.73 1.7
5 -7 4 21.97 1.67
2 -7 -4 21.46 1.63
-5 -2 -4 22.11 1.7
-5 -2 -4 22.71 1.76
2 -7 -4 22.87 1.9
5 -7 4 18.17 1.7
-2 -5 4 24.12 1.83
-2 -5 4 20.19 1.72
-7 2 4 23.09 1.74
-7 2 4 19.81 1.71
-7 5 -4 20.62 1.66
-2 7 -4 18.3 1.61
5 2 -4 21.7 1.72
-7 5 -4 22.68 1.81
7 -5 -4 20.94 1.7
2 5 4 19.4 1.56
-7 5 -4 20.69 1.68
-7 2 4 21.06 1.78
-2 -5 -4 33.91 2.51
-2 -5 -4 30.55 2.23
7 -2 -4 32.77 2.3
-5 7 -4 32.26 2.35
-7 2 -4 31.12 2.33
2 5 -4 30.64 2.27
5 -7 -4 32.13 2.32
2 -7 4 30.43 2.26
5 -7 -4 29.94 2.23
2 5 -4 30.38 2.2
-2 -5 -4 31.16 2.3
2 -7 4 26.83 2.28
-7 2 -4 34 2.23
-5 7 -4 32.3 2.28
2 -7 4 31.32 2.37
5 -7 -4 32.21 2.42
-5 -2 4 30.24 2.28
7 -5 4 29.78 2.23
-7 5 4 27.05 2.23
5 2 4 29.5 2.25
-5 -2 4 33.51 2.36
-7 2 -4 30.99 2.37
5 2 4 30.58 2.21
-7 1 4 14.15 1.5
1 6 4 17.54 1.41
-7 6 -4 17.51 1.52
1 -7 -4 17 1.43
-7 1 4 19.07 1.55
-7 1 4 16.95 1.6
6 -7 4 14.65 1.46
-6 -1 -4 18.8 1.48
-1 7 -4 18.55 1.39
-6 -1 -4 18.12 1.47
-1 7 -4 16.4 1.47
-6 -1 -4 18.62 1.54
7 -6 -4 19.29 1.53
-1 -6 4 18.34 1.74
7 -1 4 18.69 1.42
1 -7 -4 17.62 1.67
-1 -6 4 17.68 1.53
1 -7 -4 18.4 1.45
-7 6 -4 18.62 1.39
6 -7 4 16.21 1.4
-7 6 -4 18.35 1.5
-6 -1 -4 18.97 1.73
1 -7 -4 16.9 1.48
6 1 -4 18.69 1.56
7 -1 4 16.86 1.39
-6 7 -4 18.49 1.41
-6 -1 4 20.34 1.67
-1 -6 -4 16.89 1.49
1 6 -4 18.54 1.52
6 -7 -4 19.11 1.66
-1 -6 -4 19.56 1.83
6 1 4 17.06 1.41
7 -6 4 17.53 1.45
-7 1 -4 19.01 1.57
-7 1 -4 19.96 1.7
-6 -1 4 18.02 1.5
-1 -6 -4 14.57 1.38
1 -7 4 15.69 1.41
-1 7 4 17.95 1.42
-7 1 -4 18.81 1.48
7 -1 -4 17.98 1.53
-6 -1 4 15.81 1.51
6 1 4 18.73 1.42
1 -7 4 18.73 1.64
1 6 -4 17.69 1.43
6 -7 -4 18.16 1.4
-6 7 -4 19.37 1.6
-1 -6 -4 19 1.54
6 -7 -4 18.19 1.51
1 -7 4 16.34 1.46
0 -7 -4 69.72 4.66
-7 0 4 73.72 4.74
-7 0 4 59.04 4.64
-7 0 -4 66.45 4.76
7 0 4 63.08 4.56
-7 7 -4 65.67 4.68
7 0 -4 67.31 4.63
7 -7 -4 68.29 4.65
7 0 4 70.79 4.57
0 7 -4 64.44 4.61
0 7 4 65.64 4.55
-7 0 -4 67.41 4.67
-7 7 -4 64.46 4.62
0 -7 4 66.35 4.73
0 -7 4 67.04 4.63
7 -7 -4 70.13 4.74
7 -7 4 63.76 4.56
-7 7 -4 70.35 4.59
0 -7 -4 70.58 4.83
0 7 -4 68.88 4.61
0 -7 -4 64.69 4.61
-7 0 -4 67.6 4.58
-8 4 -4 51.98 3.81
-8 4 -4 56.18 3.74
4 -8 -4 59.38 3.82
4 4 4 53.75 3.75
4 -8 -4 54.12 3.8
4 -8 4 47.84 3.84
-8 4 -4 54.98 3.91
-4 8 -4 55.51 3.75
4 4 -4 54.34 3.8
4 4 4 54.52 3.72
-4 8 -4 51.89 3.78
-8 4 4 52.48 3.81
-4 -4 -4 55.71 3.81
-4 -4 -4 54.77 3.79
-4 -4 -4 56.48 4
-4 -4 4 59.93 3.9
-8 4 4 47.06 3.83
-4 -4 4 54.85 3.83
4 -8 -4 57.71 3.99
8 -4 4 49.44 3.7
8 -4 -4 56.01 3.81
4 -8 4 53.91 3.76
-8 5 -4 3.54 0.7
-8 5 -4 4.18 0.62
-8 5 -4 3.02 0.66
-5 -3 -4 4.02 0.95
5 3 -4 4.19 0.71
-8 3 4 2.59 0.68
8 -3 4 3.96 0.59
8 -5 -4 5.15 0.74
3 -8 -4 5.07 0.79
3 5 4 4 0.61
-8 5 -4 4.55 0.86
5 -8 4 2.65 0.66
-5 -3 -4 4.38 0.76
8 -3 4 4.43 0.63
5 -8 4 4.33 0.67
-5 -3 -4 5.21 0.77
-5 -3 -4 4.51 0.83
3 -8 -4 4.34 0.68
-3 -5 4 3.52 0.87
5 -8 4 3.47 0.78
-3 8 -4 4.67 0.76
-3 -5 4 3.44 0.72
-8 3 4 4.67 0.78
3 -8 -4 4.23 0.93
-3 8 -4 4.29 0.75
-3 8 -4 3.79 0.63
3 5 -4 4.1 0.71
5 -8 -4 4.43 0.75
3 -8 4 4.99 0.88
-8 3 -4 4.43 0.87
-8 5 4 4.22 0.73
5 3 4 4.12 0.63
5 -8 -4 3.41 0.7
-3 -5 -4 5.79 0.78
3 -8 4 4.34 0.75
-5 -3 4 4.57 0.81
-5 8 -4 4.6 0.66
-8 3 -4 3.59 0.59
8 -5 4 4.14 0.68
5 3 4 3.92 0.66
-3 -5 -4 4.57 0.67
8 -3 -4 4.68 0.77
-5 8 -4 4.07 0.74
3 5 -4 2.81 0.52
-8 3 -4 4.46 0.77
-3 -5 -4 3.3 0.94
5 -8 -4 3.23 0.83
-5 -3 4 4.88 0.9
8 -2 4 8.55 0.93
8 -6 -4 9.11 1.09
-2 -6 4 8.03 1.14
2 -8 -4 9.73 1.09
-2 8 -4 7.93 1.01
2 -8 -4 8.92 0.95
6 2 -4 9.41 1.04
8 -2 4 9.08 0.95
-6 -2 -4 9.59 1.1
-2 -6 4 9.33 1.23
-8 6 -4 9.09 1.2
-6 -2 -4 8.94 1.41
8 -6 -4 8.81 1.09
2 -8 -4 10.22 1.27
-6 -2 -4 9.46 0.9
-8 2 4 9 1.1
-8 6 -4 8.26 1
-6 -2 -4 10.74 1.11
-2 8 -4 7.48 0.97
6 -8 4 6.5 1.02
6 -8 4 9.15 0.97
-8 6 -4 9.22 1.14
-2 8 -4 9.36 1.04
2 6 4 8.82 0.98
-8 2 4 7.89 1.18
-8 2 -4 8.8 1.07
-6 -2 4 7.54 1.05
-6 -2 4 8.86 1.1
-8 2 -4 7.82 1.14
6 -8 -4 7.6 0.88
6 2 4 7.47 0.96
8 -2 -4 8.04 1.01
6 2 4 8.28 0.91
8 -6 4 8.28 0.94
-2 -6 -4 7.3 0.87
-6 -2 4 8.28 1.11
-8 2 -4 8.97 0.83
2 6 -4 7.39 0.84
-8 6 4 5.79 0.86
2 6 -4 8.04 0.99
2 -8 4 8.72 1.15
-6 8 -4 8.58 1.06
6 -8 -4 8.61 1.23
2 -8 4 7.72 1
-2 -6 -4 9.17 1.08
-6 8 -4 8.72 0.86
6 -8 -4 8.27 1.01
-2 -6 -4 7.81 1.32
8 -1 4 16.99 1.31
-1 8 -4 15.1 1.26
-8 1 4 14.99 1.45
1 -8 -4 15.45 1.33
1 7 4 16.48 1.35
-1 -7 4 15.2 1.61
-8 1 4 14.08 1.44
-7 -1 -4 15.36 1.25
8 -1 4 13.62 1.27
-7 -1 -4 15.24 1.66
1 -8 -4 13.86 1.32
-1 -7 4 13.51 1.37
1 -8 -4 15.29 1.62
-7 -1 -4 16.5 1.52
-8 7 -4 14.44 1.25
-1 8 -4 15.98 1.4
1 -8 -4 15.09 1.39
8 -7 -4 16.33 1.45
-7 -1 -4 13.49 1.37
-8 7 -4 14.89 1.38
-8 7 -4 14.5 1.46
7 1 -4 16.07 1.4
7 -8 4 14.48 1.34
-7 8 -4 12.62 1.21
-7 8 -4 12.8 1.24
-1 8 4 12.97 1.1
-7 -1 4 11.11 1.24
-8 1 -4 12.71 1.52
8 -1 -4 13.2 1.3
1 -8 4 11.64 1.22
8 -7 4 11.88 1.11
7 -8 -4 11.8 1.34
1 7 -4 11.72 1.13
-8 1 -4 11.85 1.05
-1 -7 -4 12.71 1.15
1 7 -4 12.04 1.19
-7 -1 4 10.61 1.22
7 -8 -4 11.62 1.25
7 -8 -4 11.07 1.08
-1 -7 -4 11.92 1.25
-1 -7 -4 11.9 1.5
-8 1 -4 13.04 1.29
7 1 4 11.92 1.17
7 1 4 14.13 1.15
1 -8 4 10.39 1.18
-7 -1 4 12.31 1.36
1 -8 4 12.64 1.53
0 -8 -4 14.05 1.41
0 8 -4 14.4 1.32
-8 0 -4 12.19 1.16
8 0 4 16.04 1.29
8 0 -4 16.41 1.45
8 -8 -4 13.03 1.52
-8 0 -4 15.19 1.68
0 -8 -4 14.37 1.45
-8 0 -4 15.22 1.43
-8 8 -4 14.73 1.35
-8 0 4 16.25 1.6
0 8 4 14.61 1.31
-8 0 4 12.69 1.49
0 8 -4 15.3 1.31
0 -8 4 13.34 1.39
8 -8 -4 14.77 1.45
8 -8 -4 14.73 1.24
0 -8 -4 13.91 1.6
8 -8 4 13.6 1.31
0 -8 4 13.37 1.56
-8 8 -4 15.37 1.44
8 0 4 14.05 1.29
4 -9 -4 70.02 4.99
-4 9 -4 65.69 4.94
9 -4 4 73.16 4.93
-9 5 -4 68.76 4.95
-5 -4 -4 75.24 5.22
-4 9 -4 78.99 5.02
-4 -5 4 74.07 5.04
-4 -5 4 77.92 5.13
-5 -4 -4 65.83 4.97
4 -9 -4 72.51 5.04
-9 5 -4 73.24 4.99
-9 5 -4 68.35 5.02
9 -5 -4 74.03 5.01
-9 4 4 75.76 5.05
5 -9 4 74.3 4.97
-9 5 -4 72.72 5.1
-5 -4 -4 76.29 5.03
4 5 4 75.26 4.93
-5 -4 -4 71.5 5
9 -4 4 63.82 4.9
5 4 -4 72.73 4.99
4 -9 -4 72.16 5.2
-4 9 -4 73.4 5
5 -9 -4 67.58 4.65
-5 -4 4 67.42 4.69
-4 -5 -4 68.1 4.6
-9 4 -4 62.36 4.69
4 5 -4 64.84 4.58
-5 9 -4 63.76 4.58
-4 -5 -4 66.95 4.57
-9 5 4 66.99 4.62
9 -5 4 66.72 4.53
5 -9 -4 67.89 4.79
-9 4 -4 65.51 4.63
4 -9 4 61.98 4.67
-9 4 -4 62.26 4.54
-4 -5 -4 70.97 4.87
-5 9 -4 58.01 4.52
9 -4 -4 69.57 4.61
5 -9 -4 58.9 4.58
-5 9 -4 73.15 4.63
5 4 4 72.78 4.56
4 -9 4 71.25 4.6
9 -5 4 55.52 4.48
-5 -4 4 73.18 4.66
3 6 4 19.23 1.54
9 -3 4 19.17 1.5
9 -6 -4 17.61 1.56
-6 -3 -4 18.85 1.65
9 -6 -4 18.32 1.64
-3 9 -4 16.67 1.59
-3 9 -4 17.73 1.56
6 3 -4 18.52 1.64
-3 -6 4 18.1 1.68
-6 -3 -4 22.07 2.06
3 -9 -4 18.55 1.61
-3 9 -4 19.67 1.6
-6 -3 -4 18.63 1.58
9 -3 4 17.51 1.48
3 -9 -4 17.73 1.86
-9 6 -4 18.35 1.45
6 -9 4 19.89 1.59
3 -9 -4 17.67 1.65
-6 -3 -4 19.34 1.67
-9 3 4 18.89 1.66
-3 -6 4 18.67 1.77
-9 6 -4 18.09 1.58
-9 6 -4 17.55 1.66
9 -6 4 21.77 1.89
-9 3 -4 25.84 2.23
3 -9 4 27.23 2.05
-9 3 -4 27.85 2.1
6 -9 -4 26.12 2.06
3 -9 4 25.09 2.13
-6 -3 4 23.59 2
6 3 4 26.73 2.01
9 -3 -4 26.93 2.04
-6 -3 4 27.21 2.14
-6 9 -4 25.43 2.03
-6 -3 4 28.54 2.14
-9 3 -4 21.61 1.88
3 6 -4 27.01 2.08
-3 -6 -4 25.4 1.97
6 3 4 28.98 2.01
-3 -6 -4 26.24 2.08
-3 -6 -4 27.35 2.44
-9 6 4 23.97 2
-6 9 -4 27.17 2.05
6 -9 -4 26.68 2.28
9 -6 4 24.85 1.92
9 -7 -4 15.59 1.42
-7 -2 -4 13.07 1.16
2 -9 -4 13.66 1.27
-9 7 -4 11.61 1.4
9 -2 4 13.25 1.21
9 -2 4 16.25 1.27
-7 -2 -4 14.38 1.39
-7 -2 -4 14.22 1.61
-9 7 -4 13.13 1.41
-9 2 4 12.28 1.38
-9 7 -4 13.36 1.16
7 -9 4 13.31 1.25
9 -7 -4 12.14 1.14
-2 9 -4 15.22 1.34
7 2 -4 15.8 1.34
-9 2 4 15.28 1.5
-2 9 -4 11.41 1.22
2 7 4 14.31 1.22
-7 -2 -4 13.82 1.36
2 -9 -4 14.41 1.43
-2 -7 4 12.25 1.42
-2 9 -4 13.64 1.3
2 -9 -4 13.64 1.56
9 -7 -4 13.77 1.31
-2 -7 4 13.98 1.63
7 -9 -4 16.34 1.39
-7 9 -4 18.36 1.58
-2 -7 -4 17.19 1.83
9 -2 -4 17.31 1.59
2 -9 4 16.32 1.62
2 -9 4 16.9 1.52
-2 -7 -4 17.19 1.43
-7 -2 4 18.58 1.72
2 7 -4 16.6 1.52
-9 2 -4 15.9 1.63
7 -9 -4 16.16 1.52
-9 2 -4 18.34 1.59
7 -9 -4 16.79 1.63
2 -9 4 14.1 1.43
7 2 4 18.03 1.42
-2 -7 -4 16.23 1.49
7 2 4 16.86 1.45
-7 -2 4 17.48 1.6
9 -7 4 17.11 1.42
-7 9 -4 17.37 1.39
-9 7 4 13.57 1.4
-7 -2 4 15.46 1.5
-9 8 -4 4.76 0.68
-8 -1 -4 4.88 1
-1 9 -4 5.93 0.99
1 -9 -4 6.44 0.86
-9 1 4 5.8 0.95
9 -8 -4 5.58 0.85
1 -9 -4 4.68 1.01
-9 1 4 5.86 0.94
8 -9 4 6.14 0.82
9 -1 4 5.16 0.86
1 8 4 6.66 0.94
1 -9 -4 6.36 1.04
-8 -1 -4 5.59 1.02
9 -1 4 6.79 0.9
-1 9 -4 5.52 0.71
8 1 -4 6.7 1.07
-8 -1 -4 5.92 1
-1 -8 4 4.28 1.03
-1 -8 4 6.24 0.93
-9 8 -4 5.65 0.97
9 -8 -4 5.17 0.89
9 -1 -4 9.12 1.17
-1 -8 -4 8.73 1.16
1 -9 4 7.03 1.05
8 -9 -4 6.3 1.06
-8 -1 4 7.44 1.08
9 -8 4 6.7 0.86
-8 -1 4 8.55 1.19
-8 -1 4 7.23 1.09
9 -8 4 8.79 1.02
8 1 4 10.2 0.99
-1 -8 -4 5.62 1.13
-9 1 -4 8.9 1.24
-1 -8 -4 8.37 1.14
-8 9 -4 8.92 1.15
8 1 4 8.45 0.99
8 -9 -4 8.15 1.07
1 8 -4 7.98 1.01
-8 9 -4 7.36 0.98
-9 1 -4 7.42 1.31
8 -9 -4 8 0.98
1 -9 4 8.14 1.09
1 -9 4 7.56 1.17
0 -9 -4 8.98 1.21
0 9 -4 9.65 1.17
9 0 -4 12.65 1.29
0 -9 -4 9.49 1.19
0 -9 4 8.48 1.14
0 -9 4 7.71 1.1
9 -9 4 8.56 0.96
-9 0 4 7.98 1.16
-9 0 -4 10.6 1.23
9 0 4 10.85 1.08
-9 0 4 9 1.21
-9 0 -4 7.27 1.04
-9 9 -4 11.51 1.28
9 -9 4 9.69 1.03
9 -9 -4 10.55 1.07
9 -9 -4 8.22 1.1
0 9 4 11.5 1.13
10 -5 4 53.96 4.04
-5 -5 4 59.37 4.18
-5 10 -4 62.56 4.15
-5 -5 4 57.52 4.21
10 -5 4 54.43 4.03
5 -10 -4 51.93 4.25
5 5 4 63.37 4.07
5 -10 4 62.45 4.11
-5 10 -4 54.07 4.1
-10 5 4 62.81 4.18
-5 -5 -4 60.96 4.15
-5 -5 -4 58.59 4.41
-10 5 -4 54.69 4.13
-10 5 -4 53.62 4.06
10 -5 -4 60.12 4.1
5 -10 -4 59.14 4.08
-5 10 -4 57.03 4.09
5 5 -4 63.72 4.15
4 -10 -4 14.77 1.72
4 -10 -4 18.83 1.59
-10 4 4 19.34 1.79
-4 -6 4 15.06 1.73
-4 10 -4 17.27 1.64
10 -6 -4 20.61 1.67
-4 -6 4 17.35 1.66
-4 10 -4 18.35 1.51
10 -6 -4 16.39 1.63
-4 10 -4 17.62 1.55
10 -4 4 17.99 1.52
6 -10 4 21.35 1.66
10 -4 4 18.99 1.58
-6 -4 -4 17.45 1.65
-6 -4 -4 19.42 2.04
-6 -4 -4 19.98 1.72
-10 6 -4 19.66 1.68
6 4 -4 20.75 1.68
4 6 4 20.42 1.54
-10 4 -4 14.02 1.39
10 -4 -4 14.33 1.39
-6 10 -4 11.7 1.25
-10 6 4 14.29 1.42
-4 -6 -4 12.83 1.29
6 4 4 15.52 1.32
-6 10 -4 14.38 1.42
-6 10 -4 13.18 1.17
4 6 -4 13.78 1.4
-6 -4 4 11.52 1.44
4 -10 4 13.38 1.31
-6 -4 4 12.12 1.44
-4 -6 -4 13.52 1.4
-4 -6 -4 9.77 1.58
10 -6 4 12.82 1.23
10 -6 4 14.27 1.24
6 -10 -4 10.92 1.44
6 -10 -4 10.38 1.32
-3 -7 4 6.37 1.18
7 -10 4 6.85 0.98
-3 -7 4 4.84 1.04
10 -7 -4 7.42 1.08
-3 10 -4 6.75 0.93
-3 10 -4 7.2 1.03
-7 -3 -4 7.92 1.15
10 -7 -4 9.01 1.12
-10 7 -4 7.91 1.15
3 -10 -4 5.03 0.94
-3 10 -4 7.19 1.08
-7 -3 -4 8.25 1.16
-10 3 4 7.73 1.15
10 -3 4 7.59 0.9
10 -7 -4 7.13 0.9
-10 7 -4 6.04 1
10 -3 4 8.25 0.98
3 7 4 9.21 1.01
7 3 -4 9.4 1.15
-3 10 4 5.26 0.85
7 3 4 6.44 0.96
-10 3 -4 5.76 1.05
-7 10 -4 4.72 0.82
3 -10 4 7.75 0.98
-7 -3 4 5.35 1
10 -7 4 5.62 0.91
3 7 -4 5.66 0.94
-3 -7 -4 5.07 0.75
-10 7 4 5.01 0.95
7 -10 -4 5.01 0.8
-7 -3 4 3.7 0.89
-7 10 -4 6.99 0.95
-3 -7 -4 2.65 1.05
-3 -7 -4 7.61 0.98
10 -7 4 4.45 0.68
8 2 -4 9.09 1.18
8 -10 4 7.38 0.98
-8 -2 -4 7.89 1.22
-10 8 -4 7.4 1.07
10 -8 -4 8.21 1.08
-10 2 4 7.15 1.28
-8 -2 -4 6.84 1.14
10 -2 4 9.02 1.08
2 8 4 8.59 1.06
-2 10 -4 6.84 0.97
2 -10 -4 7.49 1.11
-2 -8 4 5.81 1.06
10 -2 4 7.66 0.92
10 -8 -4 8.36 0.99
8 2 4 11.16 1.17
-8 -2 4 10.48 1.33
8 -10 -4 10.91 1.12
-10 2 -4 12.57 1.34
10 -2 -4 13.47 1.35
10 -8 4 10.85 1.15
-8 10 -4 11.21 1.25
-2 -8 -4 9.24 1.18
2 -10 4 10.41 1.22
2 -10 4 11.07 1.28
2 8 -4 10.6 1.19
-10 8 4 9.01 1.12
8 2 4 13.45 1.22
-8 -2 4 10.14 1.25
10 -8 4 9.49 1.08
-9 -1 -4 5.07 0.88
-10 9 -4 6.24 0.9
-9 -1 -4 5.79 0.96
-10 1 4 6.79 1.09
9 -10 4 3.7 0.66
1 -10 -4 4.83 0.85
-1 -9 4 6.55 0.98
1 9 4 6.21 0.97
10 -1 4 4.72 0.86
10 -9 -4 5.5 0.74
10 -1 4 6.44 0.93
-1 10 -4 6.24 1.04
9 1 -4 6.54 1.11
9 -10 4 5.57 0.98
-10 1 -4 5 0.93
10 -9 4 3.84 0.7
-1 -9 -4 3.7 0.81
1 9 -4 4 0.76
9 -10 -4 3.36 0.62
9 1 4 4.43 0.71
9 1 4 3.89 0.73
-9 -1 4 4.36 0.96
-9 10 -4 5.22 0.9
10 -9 4 2.66 0.57
-9 -1 4 3.38 0.83
10 -1 -4 5.94 0.95
1 -10 4 3.03 0.76
1 -10 4 3.84 0.79
0 10 4 1.32 0.6
10 0 4 0.47 0.56
-10 0 4 0.02 0.5
10 0 -4 0.91 0.72
0 -10 4 0.45 0.66
0 10 -4 1.5 0.69
-10 0 -4 1.48 0.76
0 -10 4 0.58 0.7
10 0 4 0.79 0.61
0 -10 -4 0.43 0.71
-10 0 4 0.81 0.74
-10 10 -4 1.11 0.72
10 -10 -4 1.17 0.58
10 -10 4 0.28 0.52
10 -10 4 1.15 0.65
-10 0 -4 1.26 0.57
5 -11 -4 3.56 0.77
-11 5 4 4.99 0.95
11 -5 4 5.08 0.87
-6 -5 -4 3.96 0.81
-11 6 -4 3.61 0.79
6 5 -4 6.99 0.97
-5 11 -4 4.42 0.86
-5 -6 4 4.18 0.93
5 6 4 5.71 0.79
11 -5 4 4.52 0.75
-6 -5 -4 6.42 0.98
11 -6 -4 5.15 0.84
-11 6 -4 4.9 0.82
6 -11 4 7.36 1
-5 11 -4 5.28 0.84
-6 11 -4 4.42 0.78
-5 -6 -4 6.49 0.98
-6 -5 4 5.39 1.03
-6 11 -4 4.42 0.82
-11 6 4 4.58 0.89
11 -6 4 4.21 0.74
5 6 -4 6.47 0.99
11 -5 -4 4.86 0.83
-11 5 -4 5.03 0.96
6 -11 -4 4.81 0.81
11 -6 4 4.46 0.75
6 5 4 6.44 0.83
5 -11 4 7.04 1.01
11 -4 4 24.93 1.91
-4 11 -4 23.77 1.93
-11 7 -4 23.13 1.89
11 -4 4 22.6 1.8
-11 7 -4 18.83 1.92
-11 4 4 25.15 2.06
11 -7 -4 21.63 1.8
11 -7 -4 23.96 1.92
-7 -4 -4 23.14 1.99
-4 -7 4 22.88 2.04
7 -11 4 24.29 1.92
-7 -4 -4 23.51 1.99
4 -11 -4 22.22 1.9
4 7 4 25.84 1.89
7 4 -4 24.82 1.93
-4 11 -4 21.64 1.94
-7 11 -4 22.3 1.84
11 -4 -4 23.26 1.85
4 -11 4 20.74 1.76
7 4 4 21.72 1.74
-4 -7 -4 19.73 1.79
-7 11 -4 18.51 1.68
-7 -4 4 16.32 1.66
-11 4 -4 21.33 1.9
11 -7 4 20.42 1.67
-11 7 4 18.74 1.8
-7 -4 4 21.43 1.9
11 -7 4 18.51 1.67
4 7 -4 21.92 1.8
8 -11 4 6.81 1.13
11 -3 4 5.65 0.82
3 -11 -4 6.82 1.08
-3 -8 4 9.09 1.16
-11 3 4 6.76 1.17
-8 -3 -4 6.82 1.21
-3 11 -4 6.33 1.07
11 -8 -4 6.27 0.99
11 -3 4 7.5 1.08
-8 -3 -4 4.51 0.89
-11 8 -4 6.76 1.11
3 8 4 7.75 0.97
-3 11 -4 5.61 0.97
11 -8 -4 7.06 1.14
8 3 -4 7.83 1.16
8 -11 -4 6 0.94
-11 3 -4 7.9 1.11
11 -8 4 4.43 0.73
11 -3 -4 6.61 0.95
-8 -3 4 4.79 0.94
-3 -8 -4 7.08 0.99
-3 11 4 3.78 0.79
3 -11 4 5.83 0.92
-8 -3 4 5.68 0.99
-8 11 -4 7.07 1.01
-8 11 -4 5.28 0.83
3 8 -4 8.37 1.05
8 3 4 7.44 0.89
11 -8 4 5.99 0.96
-2 -9 4 7.87 1.29
-11 9 -4 7.59 1.18
2 9 4 8.29 1.1
2 -11 -4 7.65 1.05
-9 -2 -4 6.85 1.23
-2 11 -4 7.89 1.16
11 -9 -4 8.93 1.1
2 -11 -4 7.81 1.13
11 -9 -4 9.22 1.25
9 2 -4 9.08 1.26
-11 2 4 7.06 1.36
9 -11 4 8.57 1.15
9 -11 4 6.87 0.94
-9 -2 -4 8.69 1.3
11 -2 4 9.06 1.05
9 2 4 6.7 1.03
9 -11 -4 6.24 0.97
11 -2 -4 6.91 1.16
-11 2 -4 7.39 1.25
-11 9 4 4.67 0.83
-2 -9 -4 6.63 0.99
11 -9 4 6.35 1.01
2 9 -4 6.82 1.1
-9 11 -4 6.5 1.07
-9 -2 4 5.83 1.03
11 -9 4 5.53 0.77
-9 -2 4 6.34 0.98
2 -11 4 6.78 0.97
-2 11 4 4.72 0.9
2 -11 4 4.4 0.86
-11 10 -4 2.74 0.78
-11 1 4 2.49 0.92
10 -11 4 1.96 0.72
11 -1 4 1.97 0.63
-1 11 -4 3.31 0.8
1 -11 -4 1.41 0.79
1 10 4 2.9 0.69
11 -10 -4 1.95 0.62
-10 -1 -4 1.48 0.78
-1 -10 4 1.62 0.71
10 -11 4 1.15 0.58
-1 -10 4 2.05 0.83
10 1 -4 1.88 0.7
-10 -1 -4 1.6 0.77
-1 -10 -4 3.11 0.84
1 -11 4 3.9 0.84
-10 -1 4 3.68 0.96
1 10 -4 4.7 0.89
10 1 4 4.41 0.79
-10 11 -4 4.64 0.83
10 1 4 2.9 0.7
-10 -1 4 2.34 0.81
11 -1 -4 4.57 0.93
10 -11 -4 3.49 0.7
-11 1 -4 4.85 0.94
11 -10 4 2.84 0.71
11 -10 4 2.65 0.64
1 -11 4 2.2 0.76
11 -11 4 13.65 1.49
11 -11 4 12.87 1.39
11 0 -4 15.03 1.49
0 -11 -4 15.2 1.58
11 -11 -4 15.09 1.41
-11 0 4 13.92 1.71
0 -11 4 13.74 1.55
0 -11 4 12.14 1.49
-11 0 -4 15.7 1.69
11 0 4 15.71 1.4
-11 11 -4 14.81 1.46
0 11 -4 14.43 1.51
-6 -6 -4 0.29 0.39
6 -12 -4 0.12 0.63
-6 12 -4 -0.2 0.61
-12 6 -4 0.35 0.64
12 -6 -4 0.59 0.62
12 -6 4 0.47 0.54
-6 -6 -4 0.25 0.72
6 6 4 0.77 0.58
6 6 -4 0.5 0.68
12 -6 -4 0.21 0.46
6 -12 4 0.51 0.77
-6 12 -4 0.51 0.65
12 -6 4 0.63 0.53
-12 6 -4 0.13 0.61
-6 -6 4 -0.64 0.76
-12 6 4 0.89 0.85
-7 -5 -4 10.11 1.29
-5 12 -4 12.07 1.3
-12 7 -4 9.01 1.21
12 -7 -4 9.88 1.12
-5 12 -4 9.9 1.31
7 5 -4 12.57 1.41
-7 -5 -4 10.73 1.39
12 -5 4 10.85 1.27
5 -12 -4 11.59 1.28
7 -12 4 12.17 1.39
-12 5 4 12.5 1.56
5 7 4 12.1 1.18
-12 7 -4 10.46 1.3
12 -7 -4 11.65 1.36
-5 -7 4 10.28 1.41
5 -12 4 11.89 1.32
12 -7 4 10.6 1.21
-12 7 4 11.18 1.43
-7 12 -4 10.58 1.38
-7 -5 4 10.82 1.42
-12 5 -4 12.24 1.47
-7 12 -4 11.35 1.29
-5 -7 -4 10.31 1.28
7 -12 -4 9.65 1.26
12 -5 -4 11.71 1.3
7 5 4 12.09 1.22
5 7 -4 12.47 1.39
12 -7 4 10.71 1.25
8 4 -4 9.1 1.18
-4 -8 4 8.42 1.37
-8 -4 -4 8.35 1.18
-4 12 -4 8.12 1.18
-8 -4 -4 8.88 1.35
-12 8 -4 7.48 1.23
-4 12 -4 8.82 1.13
12 -8 -4 9.08 1.1
8 -12 4 9.41 1.27
4 -12 -4 8.33 1.1
12 -8 -4 9.02 1.17
-12 8 -4 6.41 1.14
12 -4 4 9.57 1.2
-12 4 4 9.25 1.45
4 8 4 9.4 1.16
12 -4 -4 13.03 1.46
-12 4 -4 14.06 1.55
12 -8 4 10.77 1.2
-12 8 4 10.93 1.4
-4 -8 -4 12.81 1.43
-8 12 -4 10.83 1.25
8 -12 -4 12.2 1.25
12 -8 4 11.63 1.26
-8 -4 4 12.18 1.49
8 4 4 14.84 1.38
4 -12 4 12.09 1.44
-4 12 4 9.82 1.27
-8 -4 4 11.55 1.35
4 8 -4 12.27 1.41
-8 12 -4 13.16 1.5
3 -12 -4 0.61 0.62
-12 9 -4 0.1 0.7
9 -12 4 0.57 0.73
12 -9 -4 0.34 0.56
12 -3 4 0.28 0.64
3 -12 -4 0.29 0.41
3 9 4 1.16 0.65
-12 9 -4 0.08 0.65
12 -3 4 -0.06 0.34
12 -9 -4 1.35 0.71
9 -12 4 0.37 0.55
-9 -3 -4 0.41 0.72
-12 3 4 0.98 0.8
-3 12 -4 0.85 0.7
9 3 -4 -0.04 0.6
-3 -9 4 0.31 0.78
-9 -3 -4 0.39 0.77
3 -12 4 0.58 0.71
-9 12 -4 0.87 0.79
9 3 4 1.04 0.65
3 -12 4 0.11 0.37
-3 12 4 0.4 0.66
12 -9 4 0.46 0.53
3 9 -4 1.36 0.66
-9 -3 4 0.09 0.72
9 -12 -4 1.12 0.62
-9 12 -4 0.53 0.55
12 -3 -4 1.11 0.78
-3 -9 -4 0.56 0.72
-9 -3 4 1.39 0.85
12 -9 4 1.56 0.67
-12 9 4 1.07 0.67
-12 3 -4 1.52 0.76
12 -10 -4 7.91 1.12
12 -10 -4 5.45 0.84
-10 -2 -4 6.45 1.1
12 -2 4 7.09 0.94
-10 -2 -4 5.29 0.99
-12 2 4 5.93 1.09
-12 10 -4 7.05 1.01
-2 -10 4 4.65 1
2 -12 -4 4.93 0.94
2 -12 -4 8.34 1.08
10 -12 4 6.48 1
2 10 4 6.59 0.88
10 2 -4 8.06 1.13
-2 12 -4 5.54 0.95
-10 -2 4 2.37 0.91
-2 -10 -4 3.29 0.89
10 2 4 3.36 0.76
-12 2 -4 4.17 0.91
2 -12 4 2.94 0.87
10 -12 -4 2.09 0.62
2 10 -4 3.24 0.81
-10 -2 4 2.82 0.84
-10 12 -4 4.27 0.93
12 -10 4 3.13 0.77
12 -10 4 2.36 0.67
2 -12 4 2.42 0.77
-2 12 4 1.13 0.67
12 -2 -4 2.37 0.79
11 -12 4 22.09 2.08
-1 -11 4 25.82 2.27
1 -12 -4 25.64 2.2
11 1 -4 27.64 2.28
11 -12 4 26.2 2.17
-11 -1 -4 22.31 2.17
-11 -1 -4 28.55 2.37
-1 12 -4 28.45 2.25
1 11 4 27.2 2.14
12 -11 -4 27.59 2.12
-1 -11 4 22.42 2.17
12 -1 4 28.54 2.17
-12 1 4 28.26 2.42
1 -12 -4 28.77 2.21
-12 11 -4 26.84 2.2
-12 1 -4 32.32 2.46
-1 -11 -4 30.76 2.44
11 -12 -4 28.92 2.25
1 -12 4 26.35 2.36
-11 -1 4 25.66 2.3
-11 -1 4 31.87 2.57
1 11 -4 29.97 2.4
12 -11 4 28.8 2.29
-11 12 -4 30.47 2.4
1 -12 4 26.99 2.36
12 -1 -4 30.78 2.43
12 -11 4 25.15 2.24
11 1 4 30.36 2.26
12 -12 4 1.48 0.69
0 -12 -4 2.36 0.85
-12 12 -4 2.1 0.76
0 -12 -4 2.54 0.82
12 -12 4 2.64 0.84
12 0 -4 2.47 0.84
-12 0 4 2.38 0.92
12 0 4 1.45 0.73
-12 0 -4 2.36 0.88
0 12 -4 2.94 0.85
12 -12 -4 2.07 0.71
0 -12 4 2.35 0.83
0 -12 4 2.15 0.81
13 -7 -4 4.93 0.95
-13 7 -4 2.2 0.8
-7 -6 -4 4.03 0.93
-6 -7 4 4 1.03
6 7 4 3.38 0.76
6 -13 -4 2.31 0.79
-6 13 -4 2.93 0.88
13 -6 4 3.01 0.78
7 6 -4 4.52 1
-13 7 -4 2.6 0.81
-13 6 4 2.41 0.92
-6 13 -4 2.29 0.74
13 -7 -4 2.34 0.65
-7 13 -4 1.31 0.74
-7 -6 4 0.65 0.79
7 6 4 1.77 0.72
-7 13 -4 0.68 0.73
13 -7 4 1.22 0.68
13 -6 -4 0.6 0.58
6 -13 4 1.31 0.76
7 -13 -4 1.06 0.72
-13 7 4 0.46 0.77
6 7 -4 1.3 0.71
-13 6 -4 0.58 0.7
13 -6 -4 1.31 0.78
-6 -7 -4 1.72 0.81
-13 6 -4 1.07 0.59
-13 8 -4 6.12 1.18
-5 -8 4 8.7 1.42
5 8 4 9.09 1.11
8 -13 4 8.41 1.33
5 -13 -4 8.95 1.22
-13 5 4 9.53 1.41
13 -8 -4 9.81 1.12
-13 8 -4 8.07 1.29
13 -8 -4 8.88 1.31
-8 -5 -4 6.44 1.21
-5 13 -4 8.1 1.31
-5 13 -4 8.28 1.23
13 -5 4 9.26 1.24
-8 -5 -4 8.17 1.37
8 5 -4 7.91 1.35
-8 13 -4 6.97 1.17
5 -13 4 7.97 1.32
8 -13 -4 7.31 1.02
5 8 -4 8.21 1.29
13 -5 -4 8.43 1.31
13 -8 4 6.39 0.93
-13 5 -4 8.84 1.37
-5 -8 -4 8.2 1.25
-8 13 -4 7.56 1.28
-13 8 4 6.15 1.11
8 5 4 8.08 1.19
8 -13 -4 6.67 1.03
13 -8 4 7.12 1.14
-8 -5 4 7.61 1.33
13 -9 -4 14.69 1.61
-4 13 -4 14.01 1.54
-4 -9 4 14.84 1.67
13 -9 -4 13.45 1.41
-9 -4 -4 13.45 1.59
-13 4 4 15.21 1.69
13 -4 4 14.89 1.5
9 -13 4 12.67 1.36
4 9 4 15.94 1.43
9 -13 4 15.73 1.51
-13 9 -4 14.37 1.58
-9 -4 -4 13.38 1.58
9 4 -4 15.9 1.64
4 -13 -4 14.37 1.42
4 -13 4 9.35 1.37
9 4 4 9.38 1.19
-9 -4 4 9.34 1.32
-9 13 -4 10.73 1.44
4 9 -4 10.05 1.36
-9 13 -4 9.55 1.2
-4 13 4 7.81 1.23
13 -9 4 7.68 1.23
-9 -4 4 8.49 1.37
13 -4 -4 10.46 1.43
9 -13 -4 9.58 1.18
-13 9 4 9.67 1.37
-13 4 -4 11.15 1.48
13 -9 4 8.79 1.14
-4 -9 -4 9.78 1.32
10 3 -4 30.46 2.48
3 10 4 32.25 2.43
-3 -10 4 33.7 2.64
13 -10 -4 33.96 2.6
13 -10 -4 32.19 2.43
-3 13 -4 32.48 2.53
-10 -3 -4 29.87 2.57
10 -13 4 32.2 2.52
3 -13 -4 31.6 2.48
-13 3 4 32.52 2.7
13 -3 4 32.74 2.45
-10 -3 -4 27.06 2.51
10 -13 4 25.17 2.4
-13 10 -4 29.75 2.52
3 -13 4 38.4 2.84
3 10 -4 37.63 2.81
10 3 4 38.33 2.73
13 -10 4 30.12 2.66
-10 -3 4 36.45 2.82
-13 3 -4 38.83 2.86
-3 -10 -4 36.66 2.81
13 -3 -4 37.79 2.87
-10 13 -4 38.92 2.82
10 -13 -4 37.4 2.69
13 -10 4 30.65 2.67
-10 -3 4 32.71 2.76
-3 13 4 29.96 2.75
-2 13 -4 2.24 0.76
13 -11 -4 1.69 0.68
-2 -11 4 1.6 0.86
11 -13 4 1.8 0.72
11 -13 4 2.32 0.85
-13 2 4 2.48 0.96
-11 -2 -4 1.77 0.82
13 -11 -4 2.04 0.91
-11 -2 -4 1.77 0.84
2 -13 -4 2.16 0.78
-13 11 -4 1.82 0.85
2 11 4 2.13 0.72
13 -2 4 2.43 0.72
2 -13 -4 1.61 0.69
11 2 -4 1.82 0.83
-2 13 4 2.04 0.77
2 11 -4 2.77 0.82
13 -11 4 2.16 0.77
13 -11 4 2.77 0.74
-11 -2 4 1.79 0.82
-11 13 -4 2.95 0.82
2 -13 4 2.86 0.75
13 -2 -4 4 0.99
-11 -2 4 3.38 0.97
2 -13 4 2.88 0.88
11 -13 -4 3.18 0.74
11 2 4 3.29 0.74
-13 2 -4 4.99 1
-2 -11 -4 2.63 0.86
-12 -1 -4 13.74 1.64
-13 1 4 15.96 1.86
1 -13 -4 14.07 1.59
-1 -12 4 12.82 1.52
-1 13 -4 14.62 1.63
1 -13 -4 15.65 1.61
12 -13 4 12.06 1.51
-13 12 -4 15.28 1.65
13 -12 -4 14.5 1.5
12 1 -4 15.01 1.68
12 -13 4 15.7 1.63
13 -1 4 14.36 1.45
-1 -12 4 13.43 1.71
-13 1 -4 18.51 1.9
1 12 -4 16.16 1.63
13 -1 -4 15.23 1.79
13 -12 4 13.91 1.57
-12 13 -4 17.22 1.64
12 -13 -4 16.51 1.58
-1 -12 -4 16.21 1.71
1 -13 4 15.27 1.67
13 -12 4 15.12 1.62
-1 -12 -4 18.93 1.74
12 1 4 16.81 1.55
-12 -1 4 17.44 1.94
1 -13 4 15.68 1.69
-13 0 -4 2.78 0.99
0 13 -4 1.8 0.8
13 -13 4 0.91 0.78
13 -13 4 1.18 0.73
-13 13 -4 0.51 0.46
-13 13 -4 1.72 0.82
-13 0 4 3.01 1.09
0 -13 -4 1.69 0.86
0 -13 4 2.63 0.89
13 0 -4 2.4 0.9
0 -13 4 1.42 0.84
13 -13 -4 2.17 0.77
0 -13 -4 2.65 0.89
13 0 4 2.34 0.82
7 -14 4 0.19 0.81
-7 14 -4 0.92 0.77
14 -7 4 0.77 0.68
-14 7 4 0.6 0.89
-7 -7 4 0.86 0.92
-7 14 -4 0.2 0.79
7 7 4 0.32 0.63
-14 7 -4 0.55 0.71
7 7 -4 0.7 0.86
-7 -7 -4 0.97 0.87
14 -7 -4 0.98 0.78
-14 7 -4 0.5 0.73
14 -7 -4 -0.09 0.61
7 -14 -4 0.3 0.76
14 -8 -4 18.21 1.72
-14 8 -4 15.75 1.82
6 -14 -4 19.34 1.82
-14 8 -4 17.78 1.85
8 6 -4 21.22 2
14 -8 -4 20.35 1.94
-14 6 4 22.85 2.16
-6 14 -4 16.12 1.83
-6 -8 4 22.47 2.03
8 -14 4 21.48 1.86
-8 -6 -4 20.27 1.95
14 -6 4 20.67 1.83
-6 14 -4 18.83 1.84
6 8 4 21.44 1.83
-8 14 -4 14.77 1.67
-8 14 -4 14.8 1.62
-14 8 4 13.87 1.77
8 -14 -4 15.11 1.53
-6 -8 -4 15.59 1.7
14 -8 4 14.96 1.57
-14 6 -4 15.59 1.71
6 8 -4 16.58 1.73
14 -6 -4 11.91 1.4
14 -6 -4 17.79 1.76
-8 -6 4 16.33 1.78
8 6 4 16.19 1.58
8 -14 -4 17.49 1.55
6 -14 4 16.08 1.63
5 -14 -4 17.15 1.71
9 -14 4 19.14 1.82
-9 -5 -4 16.9 1.8
14 -5 4 19.23 1.74
5 9 4 17.81 1.71
-14 9 -4 17.28 1.76
14 -9 -4 16.97 1.63
-5 -9 4 20.04 1.96
-9 -5 -4 13.71 1.72
-5 14 -4 17.2 1.76
-14 5 4 20.86 2.04
14 -9 -4 17.7 1.84
9 5 -4 17.89 1.88
9 5 4 27.4 2.18
-14 9 4 26.01 2.34
5 -14 4 26.26 2.21
-5 -9 -4 26.02 2.23
5 9 -4 26.58 2.25
14 -9 4 23.2 2.14
-9 14 -4 23.64 2.17
-14 5 -4 28.12 2.36
-9 14 -4 23.28 2.16
14 -5 -4 26.98 2.33
9 -14 -4 27.36 2.13
-9 -5 4 25.09 2.26
4 10 4 19.04 1.69
14 -4 4 18.96 1.68
-4 14 -4 18.19 1.8
-10 -4 -4 16.65 1.85
-14 10 -4 16.44 1.73
10 4 -4 20.27 1.91
4 -14 -4 18 1.75
14 -10 -4 19.46 1.72
10 -14 4 14.76 1.64
10 -14 4 20.19 1.87
-14 4 4 18.45 2.03
14 -10 -4 20.54 1.91
-4 -10 4 22.03 2.03
-10 -4 -4 15.75 1.8
-4 -10 -4 18.05 1.83
-10 -4 4 16.97 1.81
4 10 -4 20.29 1.89
10 4 4 19.92 1.71
14 -10 4 16.41 1.72
4 -14 4 20.25 1.92
-10 -4 4 16.48 1.85
-14 4 -4 19.47 1.97
-10 14 -4 20.63 1.89
14 -4 -4 19.47 1.91
10 -14 -4 19.85 1.71
-14 10 4 16.53 1.82
14 -11 -4 31.09 2.54
-14 3 4 29.7 2.65
11 -14 4 28.94 2.44
3 -14 -4 29.2 2.4
-11 -3 -4 27.35 2.49
-3 -11 4 31.55 2.59
11 3 -4 29.83 2.51
14 -11 -4 27.88 2.33
3 11 4 30.3 2.38
-3 14 -4 29.87 2.47
14 -3 4 29.41 2.39
-11 -3 -4 25.41 2.42
-14 11 -4 30.11 2.47
-11 -3 4 28.1 2.47
3 -14 4 30.08 2.4
14 -11 4 23.21 2.15
14 -11 4 24.91 2.26
-3 -11 -4 29.63 2.4
-11 14 -4 29.43 2.41
-11 -3 4 24.07 2.36
-3 -11 -4 32.73 2.41
3 11 -4 31.42 2.44
11 -14 -4 29.05 2.27
11 3 4 30.06 2.32
-3 14 4 23.29 2.36
-14 3 -4 32.09 2.47
14 -3 -4 27.81 2.46
2 12 4 0.7 0.35
-14 2 4 2.02 0.95
2 12 4 0.36 0.33
-14 12 -4 0.1 0.43
-2 -12 4 0.05 0.66
2 -14 -4 -0.05 0.46
-2 14 -4 1.76 0.84
12 -14 4 0.82 0.69
12 2 -4 2.66 0.94
-12 -2 -4 1.24 0.7
14 -12 -4 1.84 0.76
-14 12 -4 2.1 0.87
-12 14 4 0.61 0.62
12 -14 4 2.09 0.92
-12 -2 -4 1.9 0.97
14 -2 4 0.02 0.29
14 -2 4 1.37 0.71
2 -14 -4 2.16 0.87
-2 -12 4 2.07 0.96
14 -12 -4 1.09 0.86
12 2 4 0.26 0.34
-2 14 4 0.59 0.66
14 -12 4 0.51 0.66
-12 14 -4 0.52 0.41
-2 -12 -4 2.61 0.92
2 -14 4 2.13 0.89
-12 14 -4 2.16 0.86
-12 -2 4 1.33 0.91
-2 -12 -4 1.21 0.87
-12 -2 4 1.01 0.67
12 -14 -4 1.51 0.73
14 -2 -4 1.87 0.87
-2 14 4 0.45 0.35
14 -12 4 1 0.67
-14 12 4 0.4 0.48
-14 2 -4 1.2 0.57
12 2 4 1.73 0.76
-14 2 -4 1.6 0.96
2 -14 4 0.23 0.46
2 12 -4 1.43 0.79
14 -13 -4 11.07 1.38
13 -14 4 10.34 1.4
-13 14 4 9.17 1.39
-14 13 -4 12.42 1.57
1 13 4 9.5 1.15
-1 -13 4 12.74 1.55
-13 -1 -4 11.91 1.66
13 -14 4 11.55 1.52
14 -1 4 8.98 1.07
1 -14 -4 12.79 1.5
13 1 -4 10.97 1.61
-14 1 4 11.73 1.72
-1 14 -4 11.82 1.51
-1 -13 4 8.26 1.33
-14 13 -4 11.36 1.39
1 -14 -4 10.84 1.42
14 -1 4 12.54 1.49
14 -13 -4 14.14 1.73
-14 1 -4 9.59 1.36
1 -14 4 8.66 1.34
14 -1 -4 8.55 1.46
-1 -13 -4 12.32 1.52
1 13 -4 9.3 1.47
14 -13 4 8.39 1.31
-1 -13 -4 8.56 1.46
-14 1 -4 11.22 1.64
13 1 4 9.64 1.07
13 1 4 9.3 1.34
-13 14 -4 9.39 1.45
-14 13 4 6.95 1.12
-13 14 -4 9.51 1.32
-1 14 4 8.92 1.06
14 -13 4 8.6 1.31
1 -14 4 9.87 1.47
-13 -1 4 9.39 1.65
13 -14 -4 9.02 1.32
-14 0 4 2.53 0.77
-14 0 -4 4.56 1.17
0 -14 4 3.81 0.93
0 -14 -4 4.14 0.97
-14 14 -4 3.19 0.82
-14 0 -4 4.21 0.86
14 -14 -4 2.91 0.84
14 0 4 2.65 0.8
0 -14 -4 2.83 0.91
-14 14 4 3.34 0.79
0 -14 4 2.88 0.92
14 -14 4 2.53 0.85
14 0 4 4.23 0.7
14 -14 4 3.47 0.92
-14 14 -4 4.15 1.03
-14 14 4 3.64 0.89
0 14 -4 5.21 1.07
14 0 -4 2.73 0.94
-14 0 4 3.88 1.1
0 14 4 2.66 0.62
15 -7 4 4.5 0.91
15 -8 -4 4.07 0.85
-7 15 -4 3.58 0.9
-15 7 4 4.73 1.17
-15 8 -4 3.27 0.93
8 -15 4 7.29 1.18
8 7 -4 6.73 1.14
7 8 4 6.36 1
15 -8 -4 3.8 0.99
-15 8 -4 3.54 0.9
-7 15 -4 4.96 1
-8 -7 -4 6.11 1.09
7 -15 -4 4.17 0.94
8 -15 -4 0.78 0.77
-15 7 -4 0.02 0.45
15 -7 -4 0.48 0.63
7 8 -4 1.32 0.9
8 -15 -4 0.87 0.68
-15 8 4 1.29 0.95
8 7 4 0.17 0.29
8 7 4 1.49 0.75
-7 -8 -4 1.2 0.82
-8 -7 4 1.86 0.96
-15 7 -4 0.8 0.81
15 -8 4 1 0.69
7 -15 4 1.64 0.93
-8 15 -4 1.05 0.83
15 -7 -4 0.79 0.91
-8 15 -4 1.27 0.82
6 9 4 2.32 0.83
-6 -9 4 3.76 1.07
15 -9 -4 2.46 0.9
-9 -6 -4 0.02 0.55
9 -15 4 0.21 0.48
6 9 4 1.13 0.37
-15 9 -4 1.42 0.77
6 -15 -4 1.36 0.77
-6 15 -4 0.19 0.82
9 -15 4 3.17 1.02
9 6 -4 3.14 1.02
15 -9 -4 1.73 0.74
-9 -6 -4 2.64 0.94
-6 15 -4 3.12 0.91
-15 6 4 2.17 1
-15 9 -4 1.8 0.86
15 -6 4 1.73 0.78
15 -9 4 3.35 0.89
-15 6 -4 3.36 0.96
-9 15 -4 3.77 0.95
-15 9 4 2.83 1.02
9 -15 -4 2.69 0.75
-9 -6 4 5.39 1.15
-9 15 -4 3.51 0.89
9 6 4 4.29 0.91
15 -6 -4 5.04 1.17
6 -15 4 4.77 1.08
6 9 -4 4.6 1.04
5 10 4 8.44 1.35
-15 5 4 11.36 1.68
10 -15 4 9.44 1.48
-15 10 -4 8.87 1.5
5 -15 -4 8.25 1.33
15 -5 4 9.32 1.27
-5 -10 4 11.49 1.62
5 10 4 7.9 0.92
15 -10 -4 9.24 1.54
-5 15 -4 8.22 1.4
15 -10 -4 7.92 1.24
-10 -5 -4 8.07 1.29
10 5 -4 10.16 1.59
-10 -5 -4 8.12 1.23
-15 5 -4 13.71 1.54
-10 -5 4 9.51 1.53
-5 -10 -4 12.08 1.5
5 -15 4 13.78 1.63
15 -10 4 10.76 1.43
10 5 4 10 1.04
15 -5 -4 11.9 1.65
10 5 4 12.04 1.47
5 10 -4 12.72 1.6
-15 10 4 8.08 1.16
10 -15 -4 12.32 1.39
-10 15 -4 11.15 1.54
4 11 4 9.03 1.12
-11 -4 -4 5.05 1.07
4 11 4 6.99 0.97
-4 15 -4 7.53 1.34
-15 4 4 6.9 1.02
15 -4 4 6.41 1.01
15 -11 -4 8.67 1.53
-15 4 4 7.89 1.45
4 -15 -4 7.82 1.14
11 4 -4 8.23 1.51
-4 -11 4 9.59 1.58
-11 -4 -4 6.66 1.14
11 -15 4 8.35 1.4
11 -15 4 4.66 0.92
15 -11 -4 7.7 1.24
-15 11 -4 8.44 1.24
-11 -4 4 4.52 0.96
11 -15 -4 6.83 0.95
-15 11 4 4.53 0.79
11 4 4 8.42 1.3
-4 15 4 6.23 0.89
15 -4 -4 6.55 1.15
-15 4 -4 4.14 0.8
15 -11 4 4.28 0.87
11 4 4 4.88 0.68
-11 -4 4 4.97 0.93
-4 -11 -4 3.34 0.77
-15 12 -4 5.41 0.86
-12 15 4 5.3 1.03
3 -15 -4 4.56 0.97
12 3 -4 6.84 1.19
-15 3 4 5.15 0.95
15 -3 4 3.75 0.65
15 -3 4 5.77 1
-12 -3 -4 4.32 0.97
-3 -12 4 7.22 1.23
-12 -3 -4 5.39 1.12
12 -15 4 3.63 0.85
-3 15 -4 6.2 1.07
15 -12 -4 7.84 1.28
-15 3 4 5.49 1.16
-15 12 -4 5.07 1.04
12 -15 4 4.94 1.11
3 12 4 4.55 0.7
15 -12 -4 3.73 0.84
3 12 4 6.91 1.02
-3 15 4 3.96 0.66
-12 15 -4 3.76 0.74
15 -3 -4 3.33 1.05
-3 -12 -4 2.45 0.87
-15 12 4 3.23 0.82
15 -12 4 2.44 0.85
3 -15 4 5.16 1.05
12 3 4 4.2 0.95
-12 15 -4 2.59 0.91
12 3 4 2.6 0.62
-15 3 -4 4.59 1.09
-3 -12 -4 1.41 0.73
-3 15 4 1.83 0.83
-12 -3 4 3.15 0.89
-12 -3 4 3.49 1.05
12 -15 -4 2.88 0.8
-3 -12 -4 4.93 1.09
3 12 -4 4.25 1.01
-15 3 -4 3.58 0.84
-2 15 -4 11.77 1.59
-13 -2 -4 9.99 1.62
15 -2 4 11.04 1.21
2 -15 -4 11.74 1.55
-15 13 -4 10 1.5
15 -13 -4 11.42 1.72
15 -13 -4 10.24 1.43
2 13 4 10.23 1.19
-15 2 4 13.69 1.8
13 -15 4 10.78 1.64
-2 -13 4 12.56 1.62
-15 2 4 9.46 1.46
13 2 -4 9.45 1.56
-13 15 4 12.42 1.65
15 -2 4 10.31 1.48
-15 13 -4 9.62 1.56
-15 2 -4 12.66 1.57
2 -15 4 10.48 1.54
13 2 4 10.92 1.47
-13 -2 4 10.35 1.68
-2 15 4 10 1.19
15 -2 -4 8.57 1.55
-13 15 -4 10.75 1.51
13 2 4 10.16 1.21
-2 -13 -4 11.4 1.57
2 13 -4 10.39 1.53
-15 13 4 11.01 1.44
15 -13 4 7.68 1.17
-2 -13 -4 9.11 1.53
-15 2 -4 11.65 1.73
13 -15 -4 11.57 1.38
-13 15 -4 10.4 1.61
-15 1 4 1.09 0.79
15 -1 4 1.91 0.84
1 14 4 2.12 0.61
-15 14 -4 2.77 0.84
15 -1 4 2.34 0.64
14 -15 4 0.55 0.72
15 -14 -4 3.34 1.12
14 -15 4 1.42 0.83
1 -15 -4 2.03 0.9
-14 -1 -4 2.04 0.79
-1 15 -4 1.66 0.87
-14 15 4 2.35 0.89
-1 -14 4 3.25 1
-1 -14 4 0.15 0.9
15 -14 -4 2 0.76
-15 14 -4 3.1 1.03
14 1 -4 0.57 0.85
-14 15 4 1.67 0.71
-15 1 4 2.45 1.07
-14 -1 -4 2.23 1.04
15 -14 4 1.45 0.8
1 14 -4 1.5 0.93
14 1 4 1.64 0.62
-15 14 4 1.46 0.82
-1 -14 -4 2.03 0.98
-1 15 4 1.34 0.59
-15 1 -4 2.04 1
14 1 4 1.53 0.86
-1 -14 -4 1.22 0.86
14 -15 -4 1 0.77
-15 1 -4 2.7 0.87
15 -1 -4 0.77 0.92
-14 15 -4 2.47 0.98
-14 15 -4 1.77 0.78
-14 -1 4 0.51 0.65
-14 -1 4 2.67 1.07
1 -15 4 2.3 0.9
1 -15 4 0.15 0.56
-15 14 4 1.52 0.81
15 -15 -4 1.37 1.02
-15 15 -4 1.98 0.79
-15 0 4 2.2 0.79
0 -15 4 0.42 0.61
-15 0 -4 1.17 1.03
-15 15 -4 1.85 0.98
15 -15 4 0.32 0.71
-15 0 -4 2 0.8
15 0 4 1.82 0.86
-15 15 4 1.35 0.85
15 0 -4 1.82 0.92
15 0 4 2.75 0.65
0 15 4 1.37 0.59
-15 15 4 1.22 0.81
0 -15 4 0.4 0.67
-15 0 4 2.32 1.06
15 -15 -4 0.64 0.75
0 -15 -4 2 0.95
0 15 -4 1.69 0.9
8 -16 4 0.59 0.84
-8 -8 -4 1.36 0.84
-8 16 -4 0.85 0.84
16 -8 4 0.93 0.8
-8 16 -4 1.11 0.71
-8 16 4 0.76 0.51
16 -8 -4 0.03 0.6
-16 8 4 0 0.33
8 8 4 0.62 0.81
-16 8 -4 0.26 0.76
-16 8 -4 -0.02 0.51
-8 -8 -4 1.2 0.86
8 8 -4 1.22 0.93
8 -16 -4 0.52 0.79
-8 -8 4 1.77 1
16 -8 -4 1.35 1.01
-8 -8 4 0.34 0.82
-16 8 4 1.61 1.07
8 -16 -4 1.2 0.76
8 8 4 0.65 0.55
8 -16 4 0.65 0.6
16 -8 4 0.78 0.43
-9 -7 -4 24.77 2.17
7 -16 -4 22.1 2.06
-7 -9 4 20.02 2.15
7 9 4 20.35 1.8
-16 7 4 26.43 2.32
-16 7 4 17.35 1.91
7 9 4 26.04 2.1
9 -16 4 25.84 2.2
9 7 -4 24.77 2.23
9 -16 4 20.88 1.83
16 -9 -4 26.15 2.3
-16 9 -4 19.73 2.06
16 -7 4 24.84 2.11
16 -7 4 20.14 1.75
16 -9 -4 22.04 1.96
-9 -7 -4 18.22 2.02
-7 16 -4 23.19 2.11
-9 16 -4 20.32 2.13
-7 -9 -4 24.41 2.15
16 -7 -4 25.33 2.35
-9 -7 4 28.36 2.32
7 9 -4 24.04 2.26
7 -16 4 22.55 1.89
16 -9 4 23.67 2.13
9 7 4 25.47 2.11
9 -16 -4 25.04 2.08
-7 16 4 22.83 1.89
7 -16 4 24.62 2.2
-16 7 -4 19.74 2.13
-7 -9 -4 21.18 2.13
-16 9 4 20.89 1.89
-16 9 4 26.98 2.44
-9 16 -4 22.65 2.13
9 7 4 23.07 1.87
6 10 4 6.83 1.06
-16 10 -4 6.02 1.11
6 -16 -4 6.11 1.07
16 -6 4 7.72 1.1
10 -16 4 7.25 1.23
-16 6 4 6.5 1.24
10 -16 4 4.83 0.8
6 10 4 6.27 0.77
-6 -10 4 6.87 1.14
-16 6 4 6.74 1.04
-6 16 -4 7.16 1.15
-6 -10 4 9.53 1.6
10 6 -4 7.34 1.23
-10 -6 -4 4.46 1.02
16 -10 -4 4.16 1.11
-10 16 4 4.04 0.93
16 -6 4 4.95 0.75
16 -10 -4 6.5 0.99
-6 -10 -4 5.41 1.01
10 6 4 4.52 0.7
-16 10 4 5.86 0.91
-16 6 -4 5.87 1.14
-10 -6 4 6.2 1.14
16 -6 -4 5.79 1.21
-10 16 -4 4.89 1.05
-6 16 4 6.26 0.79
10 6 4 6.66 1.04
-16 6 -4 4.67 0.82
-16 10 4 4 1.13
10 -16 -4 6.07 0.98
-6 -10 -4 7.16 1.14
6 -16 4 5.12 1.06
6 10 -4 6.01 1.12
16 -10 4 3.19 0.9
6 -16 4 5.53 0.77
16 -11 -4 31.6 2.61
5 11 4 35.17 2.62
-16 11 -4 31.3 2.73
16 -5 4 34.7 2.7
11 -16 4 34.62 2.78
-16 5 4 30.15 2.64
16 -11 -4 34.47 2.87
5 11 4 32.37 2.45
-11 16 4 34.48 2.76
5 -16 -4 29 2.63
-5 -11 4 31.77 2.79
16 -5 4 30.28 2.46
-5 16 -4 33.84 2.75
-11 -5 -4 28.85 2.69
-16 5 4 38.27 2.99
-5 -11 4 39.91 2.92
11 5 -4 34.88 2.86
11 -16 4 30.49 2.45
5 11 -4 32.66 2.68
11 5 4 31.94 2.36
16 -5 -4 31.07 2.7
5 -16 4 34.75 2.69
-16 5 -4 30.8 2.53
-5 16 4 31.9 2.39
11 -16 -4 30.05 2.48
5 -16 4 31.05 2.35
-5 -11 -4 29.44 2.67
-5 -11 -4 30.48 2.57
-16 11 4 30.27 2.48
-16 5 -4 31.27 2.71
11 5 4 33.05 2.52
-5 -11 -4 27.1 2.58
4 12 4 32.59 2.46
-16 4 4 27.37 2.42
-16 12 -4 27.6 2.33
-12 16 4 32.52 2.59
-4 -12 4 33.94 2.63
-4 -12 4 27.04 2.58
-4 16 -4 28.74 2.51
12 -16 4 29.55 2.62
16 -4 4 27.85 2.22
12 -16 4 26.06 2.18
4 12 4 27.66 2.22
4 -16 -4 27.88 2.45
16 -12 -4 27.17 2.37
12 4 -4 27.77 2.58
16 -4 4 32.2 2.49
-16 12 -4 29.38 2.53
16 -12 -4 30.85 2.67
-16 4 4 32.84 2.72
-12 -4 -4 24.8 2.44
4 -16 4 25.18 2
-4 -12 -4 23.58 2.26
-16 4 -4 29.61 2.48
-4 -12 -4 25.51 2.26
12 4 4 27.12 2.25
16 -12 4 22.92 2.25
12 4 4 27.22 2.04
-4 -12 -4 23.17 2.31
-16 12 4 24.15 2.16
-4 16 4 26.14 2.06
-16 4 -4 26.78 2.29
-12 16 -4 24.8 2.14
-12 -4 4 20.48 2.21
12 -16 -4 27.22 2.19
4 -16 4 28.46 2.37
4 12 -4 28.26 2.36
16 -4 -4 22.21 2.33
-16 13 -4 3.55 1.02
-13 16 4 4.12 1.02
-3 16 -4 4.61 1.05
13 3 -4 2.55 1.01
16 -3 4 4.6 0.71
16 -13 -4 4.19 1.14
16 -13 -4 3.6 0.89
-16 3 4 4.23 0.88
3 13 4 5.24 0.74
-3 -13 4 5.42 1.16
-3 -13 4 4.22 1.01
16 -3 4 5.14 1.01
13 -16 4 3.07 1.03
-16 3 4 5.56 1.24
3 -16 -4 5.43 1.08
-16 13 -4 4.39 0.91
-13 -3 -4 3.15 1.03
16 -3 -4 5.05 1.13
-13 16 -4 6.77 1.18
3 -16 4 4.58 0.72
-13 -3 4 3.49 0.93
16 -13 4 3.52 0.65
13 3 4 6.79 1.09
-16 13 4 6.5 0.97
-3 -13 -4 5.92 1.05
3 -16 4 4.78 1.02
-3 16 4 6.74 0.8
-3 -13 -4 5.05 1.07
-3 -13 -4 5.8 1.07
16 -13 4 3.78 0.95
-13 16 -4 5.54 0.94
3 13 -4 7.43 1.19
-16 3 -4 6.02 1.19
13 3 4 4.97 0.77
13 -16 -4 4.12 0.86
-16 14 -4 19.21 1.81
-16 14 -4 17.84 1.92
16 -2 4 18.85 1.92
-2 -14 4 15.18 1.88
-2 -14 4 22.97 2.05
14 -16 4 17.37 1.87
-14 16 4 16.25 1.72
16 -14 -4 18.36 1.59
16 -2 4 19.66 1.64
14 2 -4 17.71 2.03
-14 -2 -4 19.92 2.06
16 -14 -4 17.22 1.85
-16 2 4 21.67 2.16
16 -14 -4 19.99 2.22
2 -16 -4 21.68 2.03
-16 2 4 19.55 1.85
-14 -2 -4 18.52 1.81
-2 16 -4 18.52 1.97
-14 16 4 19.36 2.01
2 14 4 17.71 1.63
16 -14 4 11.36 1.31
-14 16 -4 14.82 1.81
2 -16 4 12.1 1.31
14 2 4 15.37 1.43
16 -14 4 12.39 1.73
2 14 -4 16.37 1.85
-14 16 -4 15.83 1.72
2 -16 4 13.25 1.69
-2 -14 -4 14.02 1.63
-16 14 4 14.6 1.62
-14 -2 4 13.79 1.82
-2 16 4 15.07 1.39
-2 -14 -4 17.74 1.79
-16 2 -4 17.35 1.97
14 -16 -4 13.69 1.61
-2 -14 -4 13.13 1.66
16 -2 -4 12.01 1.75
-16 2 -4 17.39 1.69
14 2 4 15.35 1.71
-16 14 4 12.7 1.57
-1 -15 4 -0.8 0.66
1 15 4 -0.59 0.56
-16 1 4 0.54 1
16 -15 -4 0.3 1
16 -1 4 -0.18 0.58
15 1 -4 0.01 0.91
-15 16 4 0.83 0.83
-16 15 -4 0.28 0.74
15 -16 4 -0.69 0.53
-15 -1 -4 0.29 0.91
16 -15 -4 -0.38 0.58
-15 -1 -4 0.59 0.76
16 -15 -4 0.21 0.71
1 -16 -4 0.28 0.88
-1 -15 4 0.79 0.66
-16 1 4 0.31 0.73
-15 16 4 0.46 0.82
16 -1 4 0.25 0.77
-1 16 -4 0.93 0.94
-16 15 -4 -0.13 0.94
-1 -15 -4 -0.56 0.62
-1 -15 -4 0.19 0.58
-15 -1 4 0.95 0.76
-15 16 -4 0.87 0.77
-16 1 -4 0.95 0.97
1 -16 4 -0.36 0.44
1 -16 4 0.79 0.67
16 -15 4 0.61 0.59
-1 16 4 0.52 0.57
-16 1 -4 2.33 0.81
15 1 4 1.13 0.88
-1 -15 -4 1.45 1
15 1 4 1.34 0.62
16 -15 4 0.05 0.69
15 -16 -4 0.44 1.03
-15 -1 4 1.48 1
16 -1 -4 1.16 0.89
1 15 -4 1.02 0.87
-16 15 4 0.73 0.82
15 -16 -4 1.1 0.79
-15 16 -4 0.7 1
-16 15 4 0.81 0.81
16 -16 4 -0.31 0.82
0 -16 -4 0.73 0.91
-16 16 -4 1.42 0.76
-16 16 -4 1.64 1.01
16 -16 4 1.08 0.61
16 0 4 1.59 0.64
16 -16 -4 0.94 0.74
16 0 4 1.44 0.91
-16 16 4 1.5 0.81
-16 0 -4 1.57 0.77
-16 0 4 1.41 0.94
16 0 -4 0.29 0.73
0 16 4 1.08 0.59
16 -16 -4 1.37 1.1
-16 0 4 2.31 0.8
0 16 -4 2.17 0.99
-16 0 -4 0.12 0.94
-16 16 4 1.16 0.83
17 -8 4 2.26 0.68
-17 9 -4 1.04 0.78
-8 -9 4 3.54 0.95
8 -17 -4 2.55 0.88
17 -8 4 3.67 0.96
-17 8 4 2.5 0.6
-9 -8 -4 3.98 1.02
-9 17 4 2.25 0.61
9 8 -4 3.99 1.1
-17 8 4 3.11 1.13
9 -17 4 3.6 0.72
-8 17 -4 2.97 0.96
9 -17 4 2.95 1.01
-17 8 4 1.4 0.82
17 -9 -4 2.37 1.06
-8 -9 4 3.03 1.01
8 9 4 3.35 0.67
8 9 4 2.42 0.86
-9 -8 -4 3.43 0.97
8 -17 -4 2.75 0.82
-9 -8 4 2.84 0.9
17 -9 4 3.04 0.97
9 8 4 2.7 0.65
-17 9 4 3 0.74
17 -9 4 3.2 0.69
8 -17 4 4.61 1.11
-8 17 4 3.27 0.67
-9 17 -4 3.16 0.97
8 -17 4 2.8 0.68
17 -8 -4 2.66 1.09
9 8 4 2.7 0.92
-8 -9 -4 3.79 1
8 9 -4 2.41 0.96
-8 -9 -4 2.84 0.91
-9 -8 4 4.75 1.14
-17 8 -4 2.44 0.94
9 -17 -4 2.84 0.81
-17 9 4 2.07 1.05
-17 7 4 1.52 1.06
7 10 4 0.85 0.81
17 -7 4 1.26 0.63
-7 -10 4 1.53 0.89
-10 -7 -4 0.85 0.84
-17 7 4 -0.05 0.53
17 -7 4 0.68 0.84
10 -17 4 0.45 0.63
7 10 4 0.27 0.48
-10 -7 -4 1.12 0.86
10 7 -4 0.65 0.96
-17 10 -4 1.25 0.76
-7 -10 4 1.39 0.97
7 10 4 1.55 0.6
10 -17 4 1.14 0.98
17 -10 -4 -0.21 0.62
-17 7 4 1.18 0.81
-7 17 -4 1.04 0.91
7 -17 -4 1.08 0.86
17 -10 -4 0.74 1.06
-10 17 4 0.85 0.82
-7 -10 -4 1.81 0.89
-17 10 4 1.94 0.74
7 -17 4 1.4 0.63
17 -10 4 1.53 0.61
-10 -7 4 1.78 0.96
10 7 4 1.25 0.62
10 -17 -4 1.52 0.78
-10 -7 4 0.47 0.74
-17 7 -4 1.27 0.66
-7 -10 -4 0.95 0.81
-7 -10 -4 1.87 0.89
-7 17 4 1.09 0.6
-17 7 -4 1.11 0.86
10 7 4 1.22 0.83
17 -10 4 0.42 0.79
-10 17 -4 0.8 0.81
17 -7 -4 1.47 0.96
7 10 -4 0.7 0.95
7 -17 4 2.53 0.99
-17 10 4 1.17 0.9
-11 17 4 5.43 1.09
6 11 4 5.13 0.74
17 -11 -4 3.84 1.13
-6 -11 4 5.04 1.19
17 -11 -4 1.67 0.74
-11 -6 -4 2.13 0.82
-17 11 -4 2.97 1.04
17 -6 4 2.62 0.87
11 6 -4 3.13 1.03
-6 -11 4 3.36 0.98
6 -17 -4 4.42 1
11 -17 4 4.04 1.1
-11 -6 -4 2.1 0.87
6 11 4 3.02 0.89
-6 17 -4 3.71 1.02
11 -17 4 3.66 0.75
17 -6 4 4.08 0.72
-17 6 4 2.99 0.88
-17 6 4 4.01 1.22
-11 17 -4 7.08 1.23
11 6 4 9.13 1.18
6 -17 4 9.67 1.16
-11 17 -4 6.32 1.11
11 -17 -4 10.83 1.36
17 -11 4 9.65 1.47
-6 -11 -4 10.08 1.62
17 -6 -4 6.41 1.26
-17 6 -4 10.12 1.66
-17 6 -4 10.09 1.38
-6 -11 -4 7.92 1.45
17 -11 4 8.39 1.17
-11 -6 4 8.65 1.44
11 6 4 10.99 1.5
-17 11 4 10.08 1.34
-6 -11 -4 9.17 1.4
6 -17 4 12.72 1.57
6 11 -4 10.62 1.6
-6 17 4 10.35 1.25
12 -17 4 2.04 0.66
5 12 4 1.62 0.79
-5 -12 4 3.44 0.95
17 -5 4 1.82 0.85
-17 12 -4 2.63 0.81
-5 17 -4 3.43 1.03
5 12 4 2.71 0.66
17 -5 4 3.62 0.69
-12 17 4 4.31 1.05
17 -12 -4 2.68 0.8
12 5 -4 3.16 1.05
17 -12 -4 2.76 1.09
-17 5 4 2.93 1.04
-17 12 -4 2.58 1.01
-17 5 4 3.2 0.87
12 -17 4 4.25 1.15
-12 -5 -4 2.13 0.84
5 -17 -4 1.74 0.86
-5 -12 4 3.62 1.07
12 5 4 6.23 0.8
17 -5 -4 4.44 1.15
-17 5 -4 6.22 1.25
-17 12 4 6.19 0.96
17 -12 4 3.5 0.73
5 -17 4 4.95 1.07
-12 17 -4 4.5 0.88
12 -17 -4 3.92 0.9
5 12 -4 5.74 1.17
17 -12 4 5.44 1.06
-5 -12 -4 5.45 1.04
-12 17 -4 5.2 1.12
-5 -12 -4 6.03 1.07
12 5 4 5.95 1.08
-5 17 4 4.86 0.79
-17 5 -4 6.93 0.97
-5 -12 -4 4.93 1.07
5 -17 4 5.86 0.78
-12 -5 4 4.21 0.98
17 -4 4 7.9 0.87
-4 -13 4 5.01 1.04
4 13 4 5.43 0.77
17 -13 -4 8.01 1.4
-4 17 -4 7.12 1.21
17 -13 -4 4.78 0.75
13 -17 4 4.28 0.75
17 -4 4 5.03 1.03
13 4 -4 6.23 1.2
13 -17 4 5.24 1.15
-17 13 -4 4.93 1.08
-17 4 4 4.97 1.15
4 -17 -4 5.95 1.1
-17 4 4 7.26 1
-17 13 -4 7.82 1.01
17 -13 -4 5.17 0.94
4 13 -4 3.01 1.02
13 4 4 2.13 0.88
-4 -13 -4 3.65 0.95
-13 17 -4 5 1.09
4 -17 4 2.51 0.65
17 -4 -4 1.59 0.98
-17 4 -4 3.95 1.12
13 -17 -4 3.68 0.91
-4 -13 -4 2.74 0.96
17 -13 4 3.13 0.71
4 -17 4 5.33 1.09
13 4 4 4.53 0.71
-4 17 4 5.18 0.75
-13 17 -4 2.62 0.84
-17 4 -4 3.56 0.84
-4 -13 -4 4.52 0.94
-17 13 4 2.95 0.85
17 -13 4 1.15 0.86
-3 -14 4 5.96 1.05
17 -14 -4 2.78 0.76
17 -3 4 6.07 0.79
-17 14 -4 5.32 0.9
3 14 4 6.12 0.76
17 -14 -4 4.84 1.2
-17 14 -4 4.85 1.09
14 3 -4 3 1.02
3 -17 -4 3.85 0.96
-14 17 4 1.82 0.68
-14 17 4 4.77 1.06
-17 3 4 4.8 0.88
17 -3 4 3.2 0.94
-17 3 4 4.51 1.21
-3 17 -4 5.22 1.13
14 -17 4 2 0.75
-14 -3 -4 3.13 0.76
-3 -14 4 3.8 1.06
17 -14 -4 3.81 0.73
14 -17 4 3.56 0.66
3 -17 4 2.38 0.64
17 -14 4 0.61 0.78
-17 3 -4 2.22 1.08
-3 17 4 4.1 0.73
-17 14 4 1.99 0.78
14 3 4 3.18 0.7
14 -17 -4 2.07 0.79
-3 -14 -4 2.99 0.96
-14 17 -4 4.01 0.9
17 -3 -4 2.99 1.01
17 -14 4 2.57 0.7
-3 -14 -4 3.27 1.05
-17 14 4 5.05 0.97
-14 17 -4 3.09 1.11
-17 3 -4 3.33 0.82
-3 -14 -4 2.76 0.87
3 -17 4 2.58 0.93
14 3 4 3.18 0.96
3 14 -4 3.32 1.05
2 15 4 4.27 0.7
17 -2 4 2.35 0.87
-15 -2 -4 4.26 0.84
2 -17 -4 3.95 1.03
17 -15 -4 4.55 1.23
-17 15 -4 2.79 0.95
-2 -15 4 4.13 0.97
17 -15 -4 3.22 0.72
-2 17 -4 2.9 0.98
-15 17 4 3.94 0.98
-15 -2 -4 2.36 0.94
-17 2 4 3.63 0.83
-17 15 -4 4.81 0.9
-15 17 4 3.67 0.95
17 -2 4 4.06 0.74
15 2 -4 1.51 0.82
-17 2 4 4.47 1.2
-15 17 -4 2.28 1.01
15 -17 -4 2.9 0.88
-17 2 -4 3.92 1.19
-17 2 -4 4.42 0.9
-2 -15 -4 4.17 1.08
-2 -15 -4 3.85 0.97
17 -2 -4 1.02 0.78
-15 17 -4 3.36 0.86
2 -17 4 2.99 0.65
-15 -2 4 3.19 0.79
17 -15 4 2.79 0.72
-17 15 4 1.88 0.83
-2 17 4 4.95 0.74
2 15 -4 3.29 1.06
15 2 4 2.6 0.95
-17 15 4 4.93 0.95
15 2 4 4.5 0.75
17 -16 -4 0.78 0.6
1 16 4 0.09 0.38
-17 1 4 0.75 0.69
1 -17 -4 0.5 0.89
-1 -16 4 0.41 0.76
-16 -1 -4 -0.72 0.77
-16 -1 -4 0.84 0.75
17 -1 4 0.28 0.85
17 -1 4 0.5 0.61
16 -17 4 0.29 0.58
-1 17 -4 0.84 0.83
17 -16 -4 -0.38 0.46
-16 17 4 1.83 0.88
-16 17 4 0.66 0.81
-17 16 -4 0.65 0.75
-17 16 -4 0.3 0.91
-17 1 4 0.56 0.92
1 16 4 0.16 0.58
17 -16 -4 -0.11 1
1 -17 4 0.84 0.56
16 -17 -4 -0.06 0.57
-16 -1 4 -0.06 0.65
-1 -16 -4 1.15 0.93
17 -16 4 0.12 0.63
16 -17 -4 0.91 1.07
-1 17 4 1.18 0.6
1 16 -4 0.92 0.9
16 1 4 0.77 0.63
-17 1 -4 1.27 0.76
-1 -16 -4 0.31 0.77
-17 1 -4 0.06 0.95
-16 17 -4 1.36 0.76
16 1 4 0.24 0.81
-16 17 -4 0.88 0.91
-17 16 4 0.69 0.83
-16 -1 4 1.32 0.75
-17 16 4 0.65 0.77
0 17 4 0.03 0.54
17 -17 -4 -0.08 0.96
0 17 -4 0.08 0.77
17 -17 4 0.3 0.62
-17 0 4 0.7 0.68
-17 0 -4 -0.7 0.67
-17 17 4 0.44 0.76
17 0 4 -0.46 0.58
-17 17 -4 0.41 0.85
-17 17 4 0.32 0.77
-17 0 -4 0.25 0.73
-17 0 4 -0.05 0.82
0 -17 -4 0.88 0.79
-17 17 -4 0.28 0.7
17 0 4 0.22 0.8
17 -17 -4 -0.13 0.58
-9 -9 -4 8.74 1.48
18 -9 4 8.24 1.21
-9 -9 4 10.19 1.63
9 9 4 8.71 1.1
-9 -9 -4 8.1 1.44
18 -9 -4 7.65 1.4
9 -18 4 7.09 1.11
9 9 4 8.81 1.23
-18 9 4 8.02 1.01
9 -18 4 8.42 1.51
9 9 -4 8.44 1.55
-18 9 4 7 1.1
-9 18 -4 6.76 1.19
9 -18 -4 8.95 1.4
-9 -9 4 9.1 1.43
18 -9 4 7.47 1.19
18 -8 4 15.28 1.48
8 10 4 13.22 1.4
-10 18 4 13.23 1.65
-10 -8 -4 13.72 1.71
18 -10 -4 14.98 2.01
-8 -10 4 17.21 1.86
10 -18 4 13.43 1.75
10 8 -4 13.24 1.75
18 -8 4 13.61 1.78
8 10 4 16.47 1.75
8 -18 -4 16.33 1.67
-18 8 4 11.49 1.68
10 -18 4 13.39 1.4
-18 8 4 12.53 1.4
-18 8 4 16.23 1.99
-8 -10 4 15.33 1.72
-8 18 -4 13.4 1.75
-10 -8 -4 13.32 1.77
8 10 -4 12.92 1.74
-18 10 4 8.42 1.41
18 -8 -4 12.84 1.8
-10 -8 4 15.3 1.76
8 -18 4 13.28 1.3
10 8 4 13.15 1.31
-8 -10 -4 12.18 1.63
18 -10 4 13.47 1.67
-8 18 4 10.15 1.23
10 -18 -4 13.52 1.58
10 8 4 14.44 1.65
-10 -8 4 12.53 1.56
-18 8 -4 9.65 1.36
18 -10 4 12.72 1.35
8 -18 4 14.03 1.69
-18 10 4 12.36 1.37
7 11 4 5.76 0.76
11 -18 4 4.01 0.74
7 11 4 4.12 0.95
-18 7 4 6.17 1.36
-11 18 4 5.69 1.08
-7 -11 4 7.41 1.11
11 7 -4 3.88 1.09
11 -18 4 6.79 1.22
-18 7 4 4.82 0.97
-7 -11 4 5.69 1.18
-11 -7 -4 3.25 0.93
-7 18 -4 5.12 1.08
18 -11 -4 4.95 1.26
7 -18 -4 4.7 1.01
18 -7 4 5.94 0.8
18 -7 4 3.36 0.95
7 -18 -4 4.38 0.94
-11 -7 -4 3.66 0.98
7 -18 4 5.9 1.13
18 -11 4 7.1 1.13
18 -7 -4 6.28 1.25
-7 -11 -4 8.69 1.43
-7 18 4 8.88 1.1
7 11 -4 8.49 1.55
11 7 4 8.47 1.09
-18 11 4 7.99 1.18
-18 7 -4 6.68 1.22
-11 -7 4 7.85 1.41
-7 -11 -4 7.77 1.45
-18 7 -4 5.46 0.92
11 -18 -4 6.7 1.05
11 7 4 6.84 1.05
7 -18 4 9.1 1.07
-11 -7 4 6.5 1.02
18 -11 4 7.99 1.15
-12 -6 -4 5.89 1.08
6 12 4 7.42 1.06
-12 18 4 7.1 1.2
6 -18 -4 7.02 1.17
6 12 4 5.56 1.01
18 -12 -4 6.74 1
12 -18 4 8.33 1.34
18 -6 4 8.17 0.88
-18 6 4 4.69 1.19
12 -18 4 6.17 0.85
-18 6 4 8.72 1.42
-6 -12 4 10.88 1.65
-6 -12 4 5.99 1.07
18 -12 -4 6.55 1.35
18 -6 4 7 1.17
12 6 -4 4.89 1.14
-18 12 -4 8.39 1.05
-6 18 -4 7.84 1.26
18 -6 -4 5.34 1.17
18 -12 4 5.58 0.83
-18 6 -4 8.03 1.3
12 -18 -4 6.33 1.01
-6 -12 -4 7.91 1.42
-12 -6 4 4.35 0.93
-6 18 4 7.74 1.13
6 12 -4 5.22 1.13
12 6 4 6.5 1.04
-12 18 -4 4.98 0.94
-18 6 -4 6.06 0.96
18 -12 4 5.58 1.1
-18 12 4 8.43 1
-6 -12 -4 7.4 1.43
12 6 4 7.63 0.83
6 -18 4 8.95 1.08
-12 18 -4 3.78 0.92
6 -18 4 8.31 1.25
-18 5 4 12.61 1.54
13 -18 4 9.63 1.23
18 -5 4 11.16 1.63
-13 18 4 13.48 1.8
13 5 -4 8.4 1.45
-18 13 -4 10.06 1.59
-18 13 -4 10.61 1.43
-18 5 4 10.8 1.75
5 13 4 10.84 1.2
18 -13 -4 11.41 1.9
18 -5 4 11.14 1.28
-5 18 -4 11.05 1.6
5 -18 -4 9.82 1.53
13 -18 4 9.35 1.55
-5 -13 4 10.48 1.61
18 -13 -4 11.32 1.28
-5 -13 4 13.33 1.8
18 -13 4 11.93 1.31
-13 18 -4 13.14 1.53
-5 18 4 14.21 1.36
5 -18 4 13.03 1.65
-5 -13 -4 8.68 1.37
13 5 4 12.62 1.61
-18 5 -4 13.64 1.53
-5 -13 -4 12.2 1.63
-18 13 4 11.96 1.47
13 5 4 13.22 1.33
5 13 -4 12.67 1.71
-18 5 -4 13.4 1.82
13 -18 -4 13.39 1.54
18 -13 4 9.82 1.51
5 -18 4 14.13 1.3
18 -5 -4 8.32 1.49
-13 18 -4 9.92 1.55
-5 -13 -4 11.67 1.58
-4 18 -4 5.97 1.13
4 -18 -4 5.12 1.05
-18 14 -4 5.24 0.94
-4 -14 4 5.42 1.14
14 -18 4 5.2 0.76
-4 -14 4 5.95 1.05
-18 4 4 7.82 0.99
-18 14 -4 4.68 1.1
4 14 4 5.24 0.76
18 -4 4 5.26 1.09
-18 4 4 4.05 1.12
18 -14 -4 4.71 0.77
18 -4 4 5.32 0.79
18 -14 -4 4.78 1.27
-18 4 -4 6.98 1.28
4 -18 4 7.02 1.03
-4 -14 -4 4.62 1.03
-18 14 4 7.31 0.99
14 4 4 5.43 1.03
-4 -14 -4 7.59 1.11
14 4 4 7.33 0.84
4 14 -4 6.6 1.27
-14 18 -4 4.03 1.04
14 -18 -4 6.04 1.01
-4 18 4 7.09 0.86
-18 4 -4 9.1 1.38
18 -14 4 6.88 0.88
-14 18 -4 8.61 1.03
4 -18 4 6 1.07
-18 3 4 5.65 0.9
-15 -3 -4 3.54 0.82
3 15 4 4.12 0.7
-18 3 4 3.57 1.09
-3 -15 4 3.54 0.95
-18 15 -4 3.38 1.03
18 -3 4 3.19 0.72
3 -18 -4 2.65 0.95
-18 15 -4 3.71 0.85
15 -18 4 2.96 0.65
-15 18 4 4.86 1.01
18 -15 -4 3.99 0.74
18 -3 4 3.33 0.96
18 -15 -4 2.56 1.11
-3 18 -4 2.23 0.97
-15 18 4 3.7 0.91
-3 18 4 7.64 0.83
15 3 4 7.39 1
3 15 -4 6.36 1.19
15 -18 -4 3.2 0.8
-15 18 -4 8.97 1.04
-18 3 -4 5.86 1.24
18 -15 4 4.37 0.79
-3 -15 -4 6.97 1.06
-15 18 -4 4.6 1.01
-18 3 -4 6.72 0.97
-3 -15 -4 3.84 0.91
-18 15 4 5.58 0.99
15 3 4 5.61 1.01
3 -18 4 5.41 0.75
-2 -16 4 1.41 0.81
-2 18 -4 0.78 0.81
18 -16 -4 0.86 0.63
-18 2 4 0.69 0.74
16 -18 4 0.54 0.57
-16 18 4 2 0.9
2 16 4 1.74 0.6
18 -16 -4 0.78 0.84
-18 16 -4 0.83 0.75
-18 16 -4 0.49 0.77
18 -2 4 1.49 0.64
-16 18 4 0.25 0.85
2 -18 -4 0.67 0.78
18 -2 4 0.58 0.77
-16 -2 -4 0.77 0.72
-18 2 4 2.41 0.76
-16 -2 4 0.46 0.66
-2 -16 -4 0.12 0.6
16 2 4 0.46 0.77
-18 16 4 0.22 0.76
-18 2 -4 1.64 0.77
18 -16 4 0.48 0.63
16 -18 -4 0.07 0.49
-18 16 4 0.53 0.74
-2 18 4 0.63 0.6
-2 -16 -4 0.98 0.8
-16 18 -4 0.79 0.71
2 16 -4 0.84 0.84
16 -18 -4 0.29 0.89
2 -18 4 0.97 0.56
-16 18 -4 0.62 0.77
-18 2 -4 -0.17 0.87
16 2 4 0.33 0.59
-18 16 4 -0.12 0.41
-18 1 4 4 0.78
-17 -1 -4 4.58 0.88
-17 18 4 3.82 0.91
18 -17 -4 4.05 0.72
18 -1 4 4.41 0.73
1 17 4 4.61 0.7
-18 17 -4 5.49 0.88
-1 -17 4 3.01 0.85
17 -18 4 2.45 0.69
-17 18 4 4.21 0.94
1 -18 4 2.89 0.64
-18 17 4 5.21 0.97
17 1 4 5.54 0.76
-17 -1 4 3.81 0.77
-18 17 4 3.93 0.93
17 -18 -4 4.72 0.72
-1 -17 -4 2.92 0.85
-18 1 -4 4.94 0.88
-1 18 4 4.87 0.71
18 -17 4 3.07 0.72
-18 18 4 0.4 0.75
-18 18 -4 0.44 0.7
0 18 4 -0.1 0.53
18 -18 -4 -0.04 0.55
-18 0 4 0.63 0.63
18 -18 4 -0.28 0.59
-18 0 -4 0.55 0.75
18 0 4 0.22 0.59
-18 18 4 0.4 0.71
10 -19 4 4.57 1.07
10 9 -4 4 0.93
-10 19 4 2.51 0.83
10 -19 4 4.8 0.74
-19 9 4 2.38 0.87
9 -19 -4 3.62 0.88
9 10 4 5.23 0.72
19 -9 4 4.61 0.75
-19 9 4 4.46 0.83
19 -10 -4 3.23 1.01
-10 -9 -4 5.89 1.06
-9 -10 4 5.99 1
-9 -10 4 5.69 1.17
-10 -9 -4 3.06 0.99
9 10 4 4.01 0.94
19 -9 4 2.93 0.93
10 9 4 4.17 1.02
9 10 -4 5.08 1.05
-9 -10 -4 7.41 1.11
9 -19 4 6.87 1.18
-10 -9 4 8.73 1.55
10 9 4 7.77 0.83
-10 -9 4 6.09 1.03
-19 10 4 5.37 0.87
-19 10 4 5.29 0.99
19 -10 4 6.95 0.86
-9 -10 -4 5.9 1.15
9 -19 4 7.5 0.83
19 -10 4 4.85 1.01
10 -19 -4 6.21 1.05
-11 -8 -4 13.36 1.71
-11 19 4 14.41 1.67
8 11 4 15.69 1.41
8 -19 -4 15.15 1.68
19 -8 4 16.33 1.45
8 11 4 14.74 1.71
-8 -11 4 16.81 1.76
-19 8 4 13.15 1.36
11 -19 4 14.51 1.4
19 -11 -4 12.29 1.76
-19 8 4 14.4 1.84
-19 8 4 14.25 1.65
-8 -11 4 17.61 1.88
19 -11 -4 11.57 1.26
19 -8 4 14.98 1.77
-11 -8 -4 12.22 1.57
11 -19 4 15.45 1.78
-8 19 -4 13.31 1.58
-8 19 4 12.66 1.37
11 8 4 16.08 1.77
-11 -8 4 14.25 1.62
11 -19 -4 15.25 1.72
11 8 4 17.95 1.46
-8 -11 -4 15.23 1.83
-19 8 -4 15.06 1.56
-19 11 4 15.35 1.54
8 -19 4 18.33 1.46
8 11 -4 16.64 1.83
8 -19 4 15.92 1.82
19 -11 4 17.93 1.52
-8 -11 -4 17.49 1.82
19 -11 4 15.33 1.74
-11 -8 4 15.27 1.71
-19 12 -4 6.43 0.96
7 12 4 7.16 1.1
-7 19 -4 5.71 1.07
7 12 4 6.7 0.81
7 -19 -4 6.44 1
-12 19 4 8.02 1.18
19 -7 4 3.56 0.98
19 -12 -4 6.91 0.85
-12 -7 -4 5.64 1.03
12 -19 4 6.55 0.84
-19 7 4 6.61 1.02
19 -12 -4 5.47 1.16
-7 -12 4 8.34 1.48
12 -19 4 4.29 1.03
-19 7 4 6.4 1.32
19 -7 4 7.69 1.09
-7 -12 4 10.12 1.61
7 -19 4 7.69 1.22
12 -19 -4 5.31 1.01
7 -19 4 7.64 1.05
12 7 4 9.19 0.89
7 12 -4 4.2 1.03
-19 7 -4 6.26 0.92
19 -12 4 6.48 0.85
12 7 4 6.42 1.08
-7 -12 -4 6.99 1.07
-19 12 4 7 0.93
-7 19 4 8.79 0.87
-12 19 -4 7.74 1.2
-7 -12 -4 7.06 1.19
-6 -13 4 3.57 0.92
-6 19 -4 1.54 0.76
13 -19 4 0.2 0.57
6 -19 -4 3.34 0.85
19 -13 -4 1.25 0.9
13 -19 4 1.99 0.6
19 -13 -4 1.79 0.67
-13 -6 -4 1.06 0.79
6 13 4 2.61 0.62
6 -19 -4 0.49 0.6
-19 6 4 2.03 0.98
-13 19 4 3.09 1.03
-6 -13 4 3.23 1.02
19 -6 4 2.17 0.64
-19 13 -4 1.72 0.79
19 -6 4 1.12 0.89
6 13 4 1.63 0.5
-19 6 4 3.39 0.84
-13 19 -4 1.9 0.74
13 6 4 1.56 0.79
-19 6 -4 1.08 0.9
19 -13 4 0.85 0.61
13 -19 -4 1.43 0.71
19 -13 4 -0.13 0.58
-19 13 4 1.27 0.68
13 6 4 1.75 0.59
-13 -6 4 -0.1 0.66
6 -19 4 1.75 0.58
-6 -13 -4 1.03 0.84
6 -19 4 1.64 0.87
6 13 -4 0.52 0.8
-6 -13 -4 1.64 0.8
-19 6 -4 1.79 0.73
-6 19 4 1.21 0.58
-19 5 4 2.95 0.8
5 -19 -4 0.49 0.63
-5 -14 4 0.81 0.68
19 -14 -4 0.2 0.73
19 -14 -4 1.49 0.66
5 14 4 1.81 0.59
19 -5 4 0.81 0.76
-19 14 -4 1.58 0.76
19 -5 4 2.11 0.63
-5 -14 4 2.84 0.91
-14 19 4 3.75 1.02
-19 5 4 1.41 0.89
14 -19 4 1.44 0.59
-5 19 -4 0.56 0.68
5 -19 4 0.69 0.61
14 5 4 1.21 0.59
-14 19 -4 1.03 0.72
-5 19 4 1.06 0.59
-19 5 -4 0.45 0.94
-5 -14 -4 1.14 0.79
-19 5 -4 1.51 0.75
-19 14 4 1.29 0.68
14 -19 -4 0.05 0.52
-5 -14 -4 0.29 0.6
19 -14 4 0.47 0.59
5 -19 4 1.91 0.59
14 5 4 0.84 0.74
5 14 -4 0.52 0.68
-19 4 4 5.22 0.99
15 -19 4 3.9 0.59
-19 15 4 10.41 1.33
15 4 4 9.5 1.17
-19 4 -4 11.99 1.46
-4 19 4 9.75 1.17
-15 19 -4 9.32 1.28
-19 15 4 7.26 1.14
19 -15 4 8.77 1.22
-4 -15 -4 10.38 1.51
4 -19 4 10.32 1.11
-16 -3 -4 3.66 0.8
-16 19 4 5.12 0.97
19 -16 -4 4.36 0.73
16 -19 4 3.99 0.63
-3 -16 4 5.13 0.98
-19 16 -4 5.03 0.86
16 -19 4 2.81 0.64
-16 19 4 7.37 1.06
3 16 4 5.09 0.72
-19 3 4 6.14 0.87
-19 16 4 5.1 0.91
-3 -16 -4 6.32 0.99
-19 16 4 5.67 0.89
3 -19 4 6.5 0.95
-16 19 -4 5.35 0.87
-3 19 4 6.26 0.77
-19 3 -4 8.22 1.29
19 -16 4 5.86 0.84
19 -2 4 4.35 0.7
-19 2 4 4.04 0.76
-19 17 -4 3.61 0.77
-17 19 4 4.08 0.9
17 -19 4 2.67 0.66
-2 -17 4 3.09 0.86
2 17 4 4.43 0.66
19 -17 -4 3.1 0.66
-17 -2 -4 2.7 0.78
-17 19 4 1.88 0.83
-19 2 -4 2.04 0.75
19 -17 4 1.25 0.65
-19 17 4 0.63 0.7
17 2 4 2.08 0.6
2 -19 4 1.29 0.54
-17 -2 4 0.81 0.64
-19 17 4 1.88 0.74
-2 -17 -4 1.63 0.78
17 -19 -4 1.54 0.57
-17 19 -4 1.83 0.73
-2 19 4 1.8 0.57
1 18 4 0.14 0.5
-19 18 -4 -0.46 0.58
18 -19 4 -0.06 0.56
-18 19 4 0.15 0.67
19 -1 4 0.38 0.57
-18 19 4 0.81 0.74
-19 1 4 0.82 0.65
19 -18 -4 0.15 0.56
-18 -1 -4 0.31 0.67
18 1 4 0.7 0.55
19 -18 4 0.52 0.57
-19 1 -4 1.27 0.69
-19 18 4 0.6 0.71
-18 19 -4 1.06 0.66
-1 19 4 1.64 0.55
18 -19 -4 1.44 0.57
1 -19 4 1.12 0.48
-19 18 4 1 0.72
-18 -1 4 1.44 0.62
19 -19 4 1.46 0.58
0 19 4 2.16 0.54
-19 0 4 1.87 0.61
-19 19 4 1.09 0.64
19 -19 -4 1.75 0.55
-19 19 4 1.75 0.67
19 0 4 2.13 0.54
-19 19 -4 1.83 0.65
-19 0 -4 2.12 0.68
-10 -10 4 17.98 1.72
10 -20 4 16.47 1.4
-20 10 4 14.54 1.67
-10 -10 -4 17.88 1.77
20 -10 4 17.86 1.48
-20 10 4 15.95 1.52
-10 20 4 13.1 1.51
10 10 4 16.28 1.4
10 -20 -4 11.3 1.27
-20 10 -4 12.04 1.43
-20 9 4 16.86 1.84
20 -9 4 20.54 1.65
-20 9 4 18.4 1.64
-11 -9 -4 20.09 1.9
9 11 4 18.97 1.61
-11 20 4 17.08 1.81
20 -11 -4 16.53 1.49
11 -20 4 18.88 1.6
-9 -11 4 19.89 1.92
9 -20 -4 19.57 1.6
20 -11 4 21.22 1.69
-9 -11 -4 18.67 1.92
9 -20 4 20.49 1.61
-20 9 -4 15.18 1.68
-11 -9 4 18.88 1.86
-20 11 4 17.51 1.79
-20 11 4 19.99 1.76
11 9 4 21.21 1.62
-20 8 4 12.58 1.52
-20 12 -4 11.2 1.26
-8 -12 4 13.14 1.62
12 -20 4 12.15 1.21
-12 20 4 11.89 1.58
20 -12 -4 11.11 1.24
20 -8 4 11.77 1.28
8 12 4 11.63 1.23
8 -20 -4 11.99 1.26
-12 -8 -4 10.34 1.54
8 -20 4 9.26 1.07
-20 12 4 9.88 1.22
-20 8 -4 8.07 1.22
20 -12 4 8.06 1.15
12 8 4 9.33 1.09
-12 -8 4 7.13 1.25
-8 -12 -4 10.39 1.48
-13 20 4 4.93 1.03
-13 -7 -4 1.86 0.82
13 -20 4 3.41 0.65
20 -13 -4 3.51 0.72
7 13 4 4.96 0.69
-7 -13 4 4.68 0.96
20 -7 4 4.75 0.73
-20 13 -4 2.62 0.81
-20 7 4 4.63 0.87
13 7 4 3.55 0.63
-20 13 4 2.86 0.72
-13 -7 4 2.29 0.79
-20 7 -4 3.14 0.78
-13 20 -4 2.4 0.69
20 -13 4 2.33 0.63
7 -20 4 3.58 0.61
-7 -13 -4 3.41 0.82
-14 20 4 7.1 1.16
14 -20 4 4.28 0.69
-20 14 -4 3.61 0.84
-20 6 4 4.64 0.86
-6 -14 4 4.78 0.96
20 -14 -4 4.2 0.74
20 -6 4 3.28 0.69
6 14 4 5.35 0.73
-14 20 -4 7 1.11
20 -14 4 6.01 0.82
-14 -6 4 5.66 0.94
-20 6 -4 8.62 1.27
-6 20 4 7.09 0.99
14 6 4 7.9 1.03
-20 14 4 7.04 1.12
6 -20 4 7.76 0.99
-6 -14 -4 8.08 1.37
-5 -15 4 3.24 0.86
20 -5 4 2.22 0.64
5 15 4 2.59 0.6
-20 5 4 3.77 0.76
20 -15 -4 1.56 0.64
-20 15 -4 2.28 0.76
15 -20 4 2.42 0.59
-15 20 4 2.65 0.93
20 -15 4 0.87 0.57
-15 20 -4 0.66 0.59
-20 5 -4 1.97 0.74
5 -20 4 0.99 0.54
-20 15 4 1.04 0.61
-5 -15 -4 1.14 0.7
-5 20 4 1.05 0.5
15 5 4 0.31 0.53
20 -16 -4 1.56 0.62
-4 -16 4 3.22 0.89
4 16 4 1.85 0.57
16 -20 4 1.22 0.53
-20 16 -4 1.95 0.73
-16 20 4 3.57 0.93
-20 4 4 2.51 0.7
20 -4 4 2.82 0.66
-4 -16 -4 2.9 0.8
20 -16 4 1.75 0.6
-20 16 4 3.51 0.72
-4 20 4 2.29 0.57
-20 16 4 1.28 0.51
4 -20 4 2.16 0.54
-20 16 4 1.41 0.66
16 4 4 2.97 0.6
-20 4 -4 3.98 0.78
-16 20 -4 2.95 0.71
3 17 4 2.56 0.56
20 -3 4 2.2 0.63
-17 20 4 1.15 0.7
-20 17 -4 2.24 0.72
20 -17 -4 1.85 0.61
-20 3 4 2.36 0.7
-17 -3 -4 1.59 0.65
-3 -17 4 2.73 0.81
-17 20 4 2 0.79
-3 20 4 1.08 0.52
-20 3 -4 2.06 0.72
-20 17 4 0.89 0.65
-20 17 4 0.81 0.6
-3 -17 -4 0.96 0.73
-17 20 -4 1.13 0.64
20 -17 4 0.69 0.55
17 -20 -4 0.52 0.51
3 -20 4 0.93 0.5
17 3 4 1.52 0.55
20 -18 -4 3.19 0.64
-2 -18 4 2.92 0.74
-18 20 4 4.01 0.8
-20 2 4 4.8 0.77
20 -2 4 4.55 0.69
-18 20 4 4.71 0.83
18 -20 4 2.24 0.58
-20 18 -4 4.67 0.76
2 18 4 4.34 0.63
-18 -2 -4 3.83 0.78
18 -20 -4 3.28 0.6
-20 18 4 2.6 0.73
2 -20 4 2.45 0.53
20 -18 4 2.07 0.6
-20 18 4 3.05 0.69
-18 20 -4 3.56 0.69
-2 -18 -4 1.92 0.71
18 2 4 4.16 0.63
-2 20 4 3.8 0.59
-18 -2 4 1.88 0.55
-20 2 -4 4.25 0.78
1 19 4 1.35 0.49
20 -19 -4 1.32 0.52
-20 19 -4 1.49 0.59
-19 20 4 1.19 0.6
19 -20 4 0.81 0.46
-20 1 4 1.93 0.59
-19 20 4 1.7 0.68
20 -1 4 1.17 0.52
-19 -1 -4 1.16 0.61
-20 19 4 1.16 0.6
-20 1 -4 1.51 0.62
20 -19 4 0.94 0.51
-19 20 -4 1.39 0.59
19 -20 -4 1.41 0.49
19 1 4 1.31 0.49
-1 20 4 1.43 0.48
-20 19 4 1.35 0.65
-19 -1 4 1.52 0.54
-20 20 -4 0.59 0.55
-20 20 4 0.33 0.55
20 -20 4 0.31 0.36
0 20 4 0.41 0.43
-20 20 4 0.49 0.59
20 0 4 0.28 0.46
-20 0 4 0.51 0.49
-20 0 -4 0.18 0.55
20 -20 -4 -0.08 0.46
11 -21 4 6.9 0.91
-10 -11 4 7.96 1.31
-11 -10 -4 7.99 1.47
-11 21 4 5.34 0.85
10 11 4 6.33 0.93
10 -21 -4 4.59 0.67
-21 10 4 5.71 0.79
-21 10 4 4.61 0.82
21 -10 4 6.96 1.01
21 -11 4 8.3 1.06
-21 10 -4 6.07 0.89
-21 11 4 8.52 1.17
-11 -10 4 9.34 1.33
10 -21 4 8.04 0.99
-10 -11 -4 8.76 1.37
11 10 4 8.1 1.01
12 -21 4 4.44 0.65
9 12 4 4.14 0.64
-12 21 4 3.83 0.82
9 -21 -4 3.67 0.62
-21 9 4 3.14 0.77
-9 -12 4 5.1 0.87
21 -9 4 4.95 0.7
21 -12 -4 4.11 0.61
-12 -9 -4 3.38 0.86
9 -21 4 6.43 0.9
21 -12 4 5.48 0.75
12 9 4 5.87 0.71
-21 9 -4 4.61 0.8
-21 12 4 5.89 0.87
-9 -12 -4 6.61 1.27
-12 -9 4 5.52 0.9
21 -13 -4 10.93 1.17
-21 8 4 12.27 1.46
21 -8 4 12.62 1.19
13 -21 4 11.19 1.13
8 -21 -4 11.57 1.16
-21 13 -4 10.49 1.21
-13 -8 -4 9.44 1.41
-13 21 4 11.7 1.51
-8 -13 4 12.52 1.54
8 13 4 11.26 1.16
8 -21 4 12.44 1.13
-21 8 -4 10.16 1.28
21 -13 4 11.86 1.23
-21 13 4 12.9 1.31
-13 -8 4 8.86 1.36
-8 -13 -4 11.93 1.52
13 8 4 11.73 1.14
-7 -14 4 5.23 0.89
-21 7 4 5.43 0.86
-14 -7 -4 2.96 0.82
7 14 4 4.42 0.66
7 -21 -4 4.36 0.66
21 -14 -4 3.55 0.67
14 -21 4 4.77 0.65
-14 21 4 5.01 0.96
21 -7 4 6.28 0.73
-21 14 -4 3.19 0.78
-7 -14 -4 7.03 0.97
7 -21 4 5.99 0.9
-21 7 -4 6.38 0.88
21 -14 4 5.17 0.75
-21 14 4 7.12 0.9
14 7 4 6.13 0.73
-21 15 -4 0.97 0.67
21 -6 4 1.26 0.57
21 -15 -4 0.9 0.57
15 -21 4 1.35 0.53
-15 21 4 2.19 0.84
-21 6 4 2.13 0.7
6 -21 -4 1.58 0.56
6 15 4 1.03 0.49
-6 -15 4 1.63 0.79
6 -21 4 1.29 0.51
-21 6 -4 1.33 0.68
21 -15 4 0.67 0.5
-6 -15 -4 0.77 0.72
-15 21 -4 0.19 0.57
-21 15 4 0.73 0.56
15 6 4 1.19 0.49
21 -16 -4 7.35 1.05
21 -5 4 7.11 1.02
-16 21 4 9.37 1.39
-21 5 4 8.48 1.24
-5 -16 4 8.37 1.41
5 -21 -4 7.91 1.02
-21 16 -4 7.03 1.14
5 16 4 7.92 0.97
16 -21 4 6.77 0.92
-21 5 -4 10.45 1.29
21 -16 4 8.34 1.03
-21 16 4 7.22 1.11
5 -21 4 9.32 1
-21 16 4 9.63 1.09
16 5 4 8.38 1.01
-16 21 -4 7.98 1.09
-5 -16 -4 9.36 1.34
21 -17 -4 11.42 1.18
21 -4 4 11.66 1.19
4 17 4 11.03 1.13
-17 21 4 13.54 1.43
4 -21 -4 12.32 1.18
-4 -17 4 11.07 1.42
-21 4 4 12.47 1.31
-21 17 -4 10.48 1.26
17 -21 -4 10.17 1.02
-21 17 4 10.2 1.16
-21 4 -4 11.95 1.32
4 -21 4 10.24 1.02
-4 -17 -4 9.09 1.35
-17 21 -4 9.56 1.16
17 4 4 11.15 1.08
-4 21 4 10.91 1.08
21 -17 4 8.73 1.1
-21 18 -4 0.25 0.57
21 -18 -4 0.53 0.51
-18 21 4 0.98 0.68
3 -21 -4 1.72 0.5
-3 -18 4 0.72 0.62
-21 3 4 1.18 0.57
3 18 4 0.62 0.47
-18 21 4 -0.09 0.37
21 -3 4 0.73 0.53
3 -21 4 0.82 0.43
-21 18 4 0.96 0.58
18 -21 -4 1.02 0.48
18 3 4 0.99 0.47
21 -18 4 0.76 0.5
-18 21 -4 0.9 0.58
-21 18 4 0.2 0.41
-3 21 4 1.48 0.46
-3 -18 -4 0.41 0.58
-21 3 -4 1.68 0.64
2 19 4 5.58 0.82
-21 2 4 6.07 0.94
21 -2 4 6.32 0.84
-21 19 -4 6.23 0.94
-19 -2 -4 3.94 0.66
-19 21 4 5.69 0.86
2 -21 -4 7.22 0.86
21 -19 -4 5.46 0.83
-19 21 4 6.17 1.08
21 -19 4 5.58 0.87
19 -21 -4 6.46 0.8
-19 21 -4 5.62 0.9
19 2 4 6.51 0.91
-21 19 4 5.56 0.9
-21 19 4 6.64 0.94
-21 2 -4 7.44 1.11
-2 21 4 6.31 0.81
-20 21 4 1.13 0.61
21 -20 -4 0.42 0.42
1 20 4 0.75 0.43
-21 20 -4 0.76 0.54
21 -1 4 0.88 0.48
-21 1 4 0.89 0.48
-20 21 4 0.64 0.51
1 -21 -4 1.38 0.47
-20 -1 -4 0.62 0.46
-1 -20 -4 1.46 0.47
21 -20 4 -0.01 0.29
20 1 4 0.28 0.44
20 -21 -4 0.66 0.45
-20 21 -4 0.86 0.53
-21 20 4 0.77 0.48
-1 21 4 0.75 0.41
-21 20 4 0.72 0.58
-20 -1 4 -0.42 0.41
-21 1 -4 0.64 0.51
21 0 4 10.01 0.92
0 -21 -4 11.01 0.93
-21 21 4 7.47 0.9
-21 21 4 8.45 1
21 -21 -4 9.17 0.86
-21 21 -4 10.73 1.08
-21 0 -4 7.94 0.97
0 21 4 9.28 0.93
-22 11 4 2.8 0.66
-22 11 4 3.27 0.67
11 11 4 5.62 0.67
-11 -11 -4 4.82 0.87
11 -22 4 4.14 0.58
-11 -11 4 4.78 0.84
22 -11 4 3.47 0.62
-10 -12 4 1.3 0.74
-12 22 4 -0.08 0.57
-22 10 4 0.24 0.3
12 -22 4 0.7 0.43
-22 10 4 0.21 0.55
10 12 4 0.25 0.47
-12 -10 -4 1 0.75
22 -10 4 0.52 0.5
10 12 4 0.15 0.28
10 -22 -4 -0.07 0.41
22 -12 -4 -0.08 0.25
-22 12 4 -0.44 0.33
22 -12 4 0.2 0.48
-22 12 4 0.17 0.56
10 -22 4 0.45 0.43
-22 10 -4 -0.01 0.52
-10 -12 -4 1.11 0.72
12 10 4 0.41 0.47
-12 -10 4 0.8 0.69
9 13 4 5.43 0.65
13 -22 4 5.35 0.79
-22 9 4 5.16 0.78
-13 22 4 3.26 0.78
22 -9 4 6.05 0.89
9 -22 -4 4.66 0.62
-13 -9 -4 4.7 0.87
-9 -13 4 6.85 1.29
13 9 4 7.61 0.91
-22 9 -4 6.28 0.83
22 -13 4 7.56 0.98
-13 -9 4 6.15 1.16
-9 -13 -4 7.76 1.33
-22 13 4 7.98 1.07
9 -22 4 7.14 0.86
-14 -8 -4 3.58 0.78
-22 8 4 4.13 0.72
8 -22 -4 3.02 0.55
22 -14 -4 3.79 0.55
14 -22 4 4.3 0.59
-14 22 4 4.61 0.83
8 14 4 4.47 0.57
22 -8 4 4.91 0.64
-22 14 -4 2.67 0.53
14 8 4 5.74 0.83
-8 -14 -4 6.74 1.23
-22 14 4 5.62 0.76
-22 8 -4 3.83 0.7
8 -22 4 5.84 0.8
22 -14 4 3.86 0.63
-14 -8 4 4.2 0.78
-22 15 -4 1.5 0.6
7 -22 -4 1.76 0.5
22 -7 4 1.69 0.52
-7 -15 4 2.27 0.74
22 -15 -4 0.76 0.46
-15 22 4 1.96 0.75
-22 7 4 1.9 0.62
15 -22 4 1.17 0.48
7 15 4 1.74 0.5
-22 7 -4 2.56 0.67
22 -15 4 2.28 0.53
-22 15 4 1.99 0.65
15 7 4 2.63 0.52
-22 15 4 2.71 0.57
-7 -15 -4 2.69 0.73
7 -22 4 3.88 0.54
-22 6 4 6.06 0.8
6 -22 -4 6.35 0.85
-16 22 4 7.86 1.31
-22 16 -4 5.38 0.73
16 -22 4 4.47 0.7
-6 -16 4 6.97 1.17
6 16 4 6.41 0.71
22 -6 4 6.19 0.9
-22 6 -4 7.77 1.13
6 -22 4 7.92 0.87
16 6 4 6.98 0.87
22 -16 4 5.79 0.89
-22 16 4 6.22 0.97
-16 22 -4 5.05 0.85
-6 -16 -4 7.35 1.16
-17 22 4 5.88 0.86
5 17 4 4.6 0.61
-22 17 -4 4.12 0.69
-22 5 4 6.27 0.99
22 -17 -4 4.02 0.57
5 -22 -4 4.04 0.57
-5 -17 4 4.3 0.78
-5 -17 -4 3.02 0.67
22 -17 4 3.12 0.55
-17 22 -4 2.46 0.58
17 5 4 4.63 0.57
5 -22 4 3.8 0.52
-22 17 4 3.67 0.64
17 -22 -4 3.66 0.54
-22 18 -4 0.36 0.52
4 -22 -4 0.77 0.43
-4 -18 4 0.84 0.55
-22 4 4 1.05 0.54
22 -18 -4 0.77 0.39
4 18 4 0.52 0.43
-18 22 4 1.26 0.7
22 -4 4 0.91 0.52
-22 4 -4 2.05 0.59
-18 22 -4 0.78 0.5
18 -22 -4 2.18 0.46
4 -22 4 1.71 0.42
18 4 4 1.4 0.43
-22 18 4 1.93 0.57
-4 -18 -4 1.6 0.58
22 -18 4 1.05 0.47
-22 3 4 7.09 0.96
3 19 4 5.48 0.75
-19 22 4 6.42 1.07
22 -3 4 6.52 0.85
22 -19 -4 5.52 0.67
-22 19 -4 5.92 0.9
3 -22 -4 7.73 0.84
19 3 4 7.58 0.91
-22 3 -4 6.34 1
19 -22 -4 6.82 0.83
-19 22 -4 6.66 0.92
-22 19 4 7.07 0.97
2 -22 -4 1.31 0.44
-20 22 4 1.39 0.63
-22 20 -4 1.14 0.57
-22 2 4 1.52 0.52
2 20 4 1.83 0.45
22 -2 4 1.29 0.48
20 2 4 1.72 0.46
-22 20 4 1.49 0.55
-2 -20 -4 1.29 0.39
20 -22 -4 1.59 0.45
-22 2 -4 1.96 0.53
-20 22 -4 2.19 0.58
23 -11 4 3.23 0.56
-12 -11 -4 3.17 0.75
11 12 4 2.59 0.53
12 -23 4 3.04 0.49
-11 -12 4 3.64 0.71
23 -12 4 3.11 0.56
-11 -12 -4 4.97 0.78
-12 -11 4 4.48 0.77
12 11 4 2.58 0.52
11 -23 4 4.07 0.53
-23 12 4 2.94 0.55
23 -10 4 3.63 0.57
-13 23 4 2.34 0.56
13 -23 4 2.67 0.46
-23 10 4 2.43 0.57
10 13 4 2.86 0.51
-13 -10 -4 2.66 0.65
-10 -13 4 3.38 0.71
-13 -10 4 2.7 0.66
-10 -13 -4 3.65 0.7
13 10 4 2.88 0.52
-23 13 4 2.7 0.59
23 -13 4 2.86 0.53
10 -23 4 2.88 0.47
-14 23 4 1.16 0.62
14 -23 4 1.09 0.42
-9 -14 4 1.38 0.62
-14 -9 -4 0.53 0.59
9 14 4 0.93 0.44
23 -9 4 1.3 0.49
9 -23 -4 0.49 0.37
-23 9 4 0.65 0.5
-9 -14 -4 1.72 0.62
-23 9 -4 0.73 0.51
14 9 4 1.29 0.46
-14 -9 4 1.12 0.61
9 -23 4 1.45 0.4
23 -14 4 1.26 0.47
-23 14 4 1.31 0.55
8 15 4 3.43 0.51
8 -23 -4 1.63 0.43
15 -23 4 2.27 0.44
-8 -15 4 2.44 0.66
-23 8 4 2.3 0.59
-15 23 4 1.86 0.63
23 -8 4 2.86 0.53
15 8 4 2.91 0.52
-23 15 4 2.93 0.63
-23 8 -4 2.9 0.58
-8 -15 -4 4.06 0.7
23 -15 4 2.49 0.5
8 -23 4 4.02 0.5
-23 15 4 4.34 0.6
7 16 4 1.76 0.45
-23 7 4 2.15 0.58
-7 -16 4 2.75 0.67
-16 23 4 2.07 0.71
7 -23 -4 1.6 0.41
23 -7 4 2.25 0.51
23 -16 4 0.82 0.44
-23 16 4 1.35 0.51
7 -23 4 1.29 0.43
-7 -16 -4 1.32 0.59
16 -23 -4 1.11 0.44
16 7 4 1.06 0.44
-23 7 -4 1.1 0.55
-23 6 4 0.68 0.53
6 17 4 1.31 0.45
-23 17 -4 -0.07 0.39
-6 -17 4 0.25 0.55
23 -6 4 0.46 0.47
-17 23 4 0.32 0.69
6 -23 -4 0.31 0.37
17 -23 -4 0.2 0.43
6 -23 4 0.3 0.4
-23 6 -4 0.56 0.55
-6 -17 -4 0.4 0.55
23 -17 4 0.03 0.42
17 6 4 -0.14 0.41
-23 17 4 -0.04 0.49
5 18 4 2.87 0.46
-18 23 4 3.71 0.74
-23 18 -4 1.9 0.48
-23 5 4 2.88 0.59
23 -5 4 3.26 0.57
5 -23 -4 3.02 0.46
18 5 4 1.43 0.46
18 -23 -4 1.63 0.45
23 -18 4 0.39 0.32
-23 18 4 0.86 0.47
5 -23 4 0.59 0.36
-23 5 -4 1.25 0.58
12 12 4 0.16 0.42
-12 -12 -4 0.88 0.63
-12 -12 4 0.38 0.61
12 -24 4 0.27 0.37
24 -12 4 -0.04 0.44
-11 -13 4 3.98 0.7
-13 -11 -4 1.96 0.61
13 -24 4 2.59 0.43
24 -11 4 2.79 0.53
11 13 4 2.48 0.47
-13 -11 4 1.73 0.6
-11 -13 -4 1.92 0.64
11 -24 4 2.33 0.43
13 11 4 1.69 0.48
24 -13 4 1.47 0.5
-24 13 4 1.52 0.55
14 -24 4 0.79 0.37
-10 -14 4 0.67 0.62
-24 10 4 0.03 0.36
10 14 4 0.77 0.43
24 -10 4 0.96 0.44
14 10 4 0.98 0.43
10 -24 4 1.46 0.39
24 -14 4 1.1 0.47
-24 14 4 0.8 0.53
-24 14 4 0.32 0.27
-10 -14 -4 1.49 0.63
-24 9 4 2.63 0.55
24 -9 4 2.4 0.5
9 15 4 1.78 0.47
-9 -15 4 2.8 0.67
9 -24 4 4.7 0.68
15 9 4 3.69 0.55
-9 -15 -4 3.71 0.68
-24 15 4 3.65 0.57
24 -15 4 3.8 0.56
-16 24 4 1.31 0.55
-8 -16 4 1.6 0.62
-24 16 4 1.32 0.45
-8 -16 -4 1.08 0.58
0 0 5 -0.06 0.28
0 0 -5 -0.16 0.37
1 -1 -5 1.57 0.32
-1 0 -5 2.84 0.43
-1 1 -5 2.25 0.32
0 -1 -5 2.5 0.41
1 -1 5 1.44 0.36
-1 0 -5 3.17 0.48
-1 1 -5 2.46 0.41
1 0 -5 3.08 0.45
0 -1 5 1.69 0.42
-1 0 5 1.75 0.42
0 1 -5 2.42 0.45
1 -1 -5 2.58 0.38
-1 -1 -5 24.53 1.77
1 -2 -5 26.24 1.72
1 -2 -5 23.19 1.76
-1 -1 -5 26.46 1.75
1 -2 5 22.5 1.76
-1 -1 -5 21.39 1.65
1 1 -5 24.24 1.72
1 -2 -5 26.89 1.76
-2 1 -5 23.84 1.73
-1 -1 5 22.79 1.78
-2 1 5 20.69 1.74
-1 2 -5 25.18 1.76
2 -1 -5 26.82 1.71
-2 1 -5 25.19 1.79
-2 2 -5 1.86 0.39
-2 2 -5 1.17 0.29
0 2 -5 0.4 0.33
0 2 -5 1.46 0.33
0 -2 -5 0.58 0.43
2 0 -5 1.74 0.35
2 -2 5 1.29 0.36
-2 0 -5 1.46 0.41
0 -2 5 1.13 0.48
2 -2 -5 1.32 0.38
0 -2 -5 1.21 0.32
-2 0 5 1.33 0.48
2 -2 -5 2.03 0.38
0 -2 -5 2.33 0.41
-2 0 -5 1.79 0.53
2 -3 5 12.62 1.09
-1 -2 5 12.41 1.11
3 -2 -5 12 1.01
-3 1 5 12.03 1.07
1 -3 -5 10.81 1.11
-2 -1 -5 14.76 1.13
-2 -1 -5 13.11 1.08
-3 1 5 10.34 1.05
-3 2 -5 13.41 1
1 -3 -5 13.73 1.04
2 1 -5 14.3 0.95
-2 -1 -5 9.92 1.06
2 1 -5 10.54 1.11
3 -2 -5 12.1 0.92
-1 -2 5 9.82 0.97
-1 3 -5 12.28 0.95
-1 3 -5 10.73 1.05
1 -3 -5 12.46 0.99
-3 2 -5 12.09 1.01
3 -1 -5 11.06 0.83
2 -3 -5 10.67 1.02
3 -1 -5 8.43 0.96
-1 -2 -5 11.27 0.92
1 2 -5 8.43 0.95
1 2 -5 11.24 0.85
2 -3 -5 11.81 0.97
-1 -2 -5 11.42 1.07
2 -3 -5 11.61 0.92
-2 -1 5 11.23 1.01
-3 1 -5 11.43 0.92
-3 1 -5 10.38 0.98
1 -3 5 10.72 1.1
-2 3 -5 10.75 0.89
3 -3 -5 3.58 0.59
-3 0 -5 4.32 0.71
0 -3 5 3.59 0.71
0 -3 -5 3.78 0.51
-3 0 -5 4.42 0.56
-3 3 -5 3.99 0.52
3 0 -5 4.22 0.43
3 -3 5 3.3 0.51
0 3 -5 2.93 0.58
3 0 -5 3.99 0.63
-3 0 -5 3.13 0.57
-3 0 5 5.18 0.71
3 -3 -5 3.79 0.5
0 -3 5 2.89 0.52
-3 0 5 2.74 0.56
-3 3 -5 3.41 0.55
0 -3 -5 4.87 0.64
0 -3 -5 3.9 0.63
0 3 -5 3.87 0.48
-4 2 5 24.65 1.93
-4 2 -5 27 1.93
-2 -2 -5 29.2 1.88
-2 4 -5 27.12 1.85
-4 2 -5 29.32 1.89
2 2 -5 26.23 1.82
2 -4 -5 26.76 1.87
4 -2 -5 25.42 1.77
-2 -2 5 24.8 1.9
4 -2 -5 25.97 1.85
-4 2 -5 22.06 1.9
4 -2 5 23.71 1.86
2 2 -5 25.72 1.91
-2 -2 -5 27.75 1.98
-2 4 -5 27.11 1.96
2 2 5 21.42 1.83
-2 -2 -5 21.4 1.88
2 -4 5 26.55 1.99
2 -4 -5 25.92 1.99
2 -4 -5 28.79 1.88
-4 1 5 2.81 0.64
3 -4 5 1.83 0.42
4 -1 5 2.25 0.48
-3 -1 -5 3.22 0.52
-1 4 -5 2.72 0.6
4 -3 -5 1.83 0.37
3 1 -5 2.25 0.56
1 -4 -5 2.92 0.47
-3 -1 -5 2.02 0.53
-1 -3 5 1.94 0.48
1 3 5 1.3 0.4
1 -4 -5 1.98 0.59
1 -4 -5 2.08 0.47
-1 4 -5 2.46 0.44
3 1 -5 3.13 0.44
-4 3 -5 3.52 0.51
-4 3 -5 2.12 0.47
-1 -3 5 3.04 0.69
4 -3 -5 2.33 0.5
3 -4 5 3.2 0.62
-3 -1 -5 2.71 0.59
-4 1 5 2.96 0.61
1 3 -5 3.66 0.54
1 -4 5 3.71 0.73
-1 -3 -5 5.35 0.84
3 -4 -5 2.91 0.63
3 -4 -5 3.79 0.58
-1 -3 -5 4.39 0.65
3 -4 -5 3.75 0.52
-3 -1 5 2.41 0.48
-3 4 -5 3.16 0.59
4 -1 -5 3.66 0.39
-4 3 5 2.53 0.53
-4 1 -5 3.28 0.59
-3 -1 5 4.29 0.69
3 1 5 3.54 0.56
-4 1 -5 3.8 0.71
-3 4 -5 3.78 0.59
-4 1 -5 3.73 0.56
1 3 -5 2.61 0.56
4 -3 5 2.72 0.49
-4 4 -5 47.5 3.49
0 -4 -5 46.66 3.45
0 -4 -5 53.15 3.51
-4 0 5 57.9 3.62
-4 0 -5 56.03 3.52
-4 4 -5 54.21 3.5
4 0 -5 50.83 3.53
0 4 -5 49.06 3.52
-4 0 5 51.47 3.57
-4 4 -5 48.97 3.52
4 -4 -5 50.32 3.46
0 -4 5 47.83 3.51
4 -4 -5 54.87 3.53
4 -4 5 42.88 3.48
0 -4 5 50.16 3.59
-4 0 -5 54.5 3.59
4 -4 -5 51.77 3.57
-4 0 -5 52.73 3.58
4 0 5 46.5 3.47
0 4 -5 53.23 3.48
0 -4 -5 53.22 3.62
4 -4 5 47.76 3.49
-5 2 5 96.51 6.36
3 -5 5 86.28 6.27
2 3 5 88.97 6.28
2 -5 -5 96.04 6.29
5 -3 -5 85.78 6.29
3 2 -5 84.22 6.22
2 -5 -5 97.04 6.3
-5 3 -5 78.73 6.3
-3 -2 -5 102.08 6.32
5 -2 5 87.94 6.27
-5 3 -5 105.73 6.31
3 2 -5 94.87 6.31
2 -5 -5 96.54 6.39
-3 -2 -5 96.2 6.39
-2 -3 5 105.61 6.4
-5 3 -5 98.7 6.33
-2 5 -5 90.95 6.3
-2 5 -5 96.98 6.28
-3 -2 -5 99.49 6.35
3 -5 5 87.67 6.32
-2 -3 5 87.93 6.29
2 3 -5 88.33 6.22
-5 2 -5 90.7 6.26
3 -5 -5 94.02 6.3
-5 3 5 88.98 6.25
2 -5 5 92.05 6.29
-5 2 -5 89.8 6.25
3 2 5 87.42 6.2
-5 2 -5 99.28 6.25
-3 -2 5 107.01 6.33
-3 -2 5 89.09 6.22
-3 5 -5 89.84 6.23
-2 -3 -5 93.66 6.22
-3 5 -5 92.49 6.2
5 -3 5 84.71 6.18
-2 -3 -5 93.56 6.33
3 -5 -5 98.48 6.21
3 -5 -5 92.29 6.22
2 3 -5 90.56 6.17
5 -4 -5 46.61 3.27
1 -5 -5 47.72 3.21
-5 4 -5 44.9 3.24
-1 5 -5 48.73 3.19
4 -5 5 40.41 3.23
1 4 5 45.79 3.23
1 -5 -5 48.65 3.37
4 1 -5 40.75 3.23
1 -5 -5 44.53 3.19
-4 -1 -5 49.84 3.22
-1 5 -5 46.76 3.26
-5 4 -5 50.7 3.25
-5 1 5 47.48 3.31
5 -1 5 42.06 3.18
4 -5 5 44.68 3.22
-1 -4 5 44.89 3.24
-4 -1 -5 47.26 3.27
-5 1 5 49.6 3.29
-4 -1 -5 49.27 3.34
4 1 -5 45.66 3.24
-5 4 -5 45.62 3.25
1 4 -5 52.96 3.48
4 -5 -5 51.34 3.52
4 -5 -5 53.69 3.47
-4 -1 5 48.66 3.55
-4 5 -5 51.04 3.49
-4 5 -5 48.25 3.53
4 -5 -5 53.01 3.61
-5 1 -5 53.82 3.54
5 -1 -5 47.24 3.53
4 1 5 46.64 3.47
-1 -4 -5 51.83 3.5
-5 1 -5 53.31 3.6
-4 -1 5 54.5 3.61
1 -5 5 50.68 3.62
-5 1 -5 53.92 3.57
-4 -1 5 49.7 3.51
5 -4 5 47.81 3.47
1 -5 5 44.1 3.48
-1 -4 -5 55.45 3.68
-5 4 5 48.75 3.54
1 4 -5 49.49 3.52
-5 0 -5 14.03 1.11
0 -5 -5 10.51 1.04
-5 0 -5 13.4 1.33
0 5 -5 13.55 1.13
0 -5 5 12.22 1.14
5 -5 -5 11.84 1
-5 0 5 13.14 1.23
5 -5 -5 13.37 1.16
5 -5 5 13.43 1.16
5 0 5 12.05 1.1
0 -5 -5 13.62 1.1
5 0 -5 12.89 1.19
0 -5 5 13.64 1.4
5 -5 -5 12.56 1.24
-5 0 5 14.88 1.32
-5 5 -5 12.83 1.29
0 -5 -5 13.77 1.33
-5 0 5 11.74 1.1
5 0 -5 13.43 1.21
-5 0 -5 14.67 1.25
-5 5 -5 13.45 1.09
-5 5 -5 12.46 1.12
0 5 -5 12.34 1.16
-3 6 -5 0.43 0.59
3 3 -5 0.27 0.55
-6 3 -5 0.04 0.41
-3 -3 -5 0.71 0.69
3 -6 5 -0.04 0.3
3 -6 -5 0.2 0.5
3 -6 -5 0.02 0.5
3 -6 5 0.44 0.51
-6 3 -5 0.26 0.42
3 3 5 0.47 0.48
-6 3 -5 0.17 0.57
3 -6 5 0.03 0.63
3 -6 -5 -0.02 0.58
3 3 -5 0.31 0.29
-3 -3 -5 0.27 0.56
3 3 -5 0.58 0.46
-6 3 -5 0.25 0.54
-3 -3 5 0.09 0.56
-6 3 5 0.07 0.57
6 -3 5 0.36 0.42
-3 6 -5 0.16 0.39
6 -3 -5 0.04 0.52
-3 -3 5 -0.05 0.65
-3 -3 -5 0.27 0.54
-6 4 -5 7.64 1.02
-6 4 -5 6.58 0.86
4 -6 5 7.82 0.88
-4 -2 -5 8.48 0.97
-6 4 -5 9.14 0.83
-4 -2 -5 7.93 0.97
-6 4 -5 7.53 0.98
4 2 -5 7.27 0.92
-2 6 -5 8.87 1.05
-2 -4 5 8.63 1.17
6 -4 -5 7.7 0.95
6 -2 5 7.19 0.84
-2 -4 5 7.66 0.93
2 4 5 8.75 0.98
4 2 -5 8.43 1.01
2 -6 -5 7.35 0.9
-4 -2 -5 8.69 1.11
4 -6 5 6.22 0.94
-6 2 5 8.96 1
-2 6 -5 8.59 0.8
2 -6 -5 9.35 1.06
2 -6 -5 8.9 0.94
-6 2 5 7.44 0.98
4 -6 -5 6.59 0.75
2 4 -5 6.53 0.88
-2 -4 -5 7.69 1.23
-6 2 -5 6.97 0.76
2 -6 5 6.23 0.82
-6 4 5 6.53 0.89
4 -6 -5 6.44 0.88
-6 2 -5 6.08 0.92
-4 -2 5 5.76 0.9
-6 2 -5 6 0.96
2 4 -5 6.13 0.88
-4 6 -5 6.49 0.9
6 -4 5 5.89 0.76
4 -6 -5 6.12 1.05
-4 -2 5 7.99 1.04
-4 -2 5 6.35 0.95
4 2 5 6.28 0.88
6 -2 -5 5.96 0.98
-2 -4 -5 6.97 0.75
-4 6 -5 6.24 0.74
2 4 -5 6.88 0.71
2 -6 5 5.9 0.91
-1 -5 5 71.76 4.56
-6 1 5 65.15 4.48
6 -5 -5 58.47 4.4
1 -6 -5 57.54 4.36
-1 -5 5 59.87 4.41
1 -6 -5 68.09 4.58
-1 6 -5 65.94 4.38
5 1 -5 65.87 4.43
-5 -1 -5 65.08 4.39
6 -5 -5 61.38 4.45
-1 6 -5 63.87 4.42
-6 1 5 64.71 4.47
-5 -1 -5 66.17 4.54
-6 5 -5 65.9 4.45
1 -6 -5 64.66 4.42
5 -6 5 59.63 4.36
-6 5 -5 58.77 4.43
6 -5 -5 63.65 4.42
5 1 -5 63.57 4.42
6 -1 5 61.04 4.37
-5 -1 -5 71.67 4.49
-6 5 -5 68.11 4.39
-6 1 -5 71.37 4.55
-5 -1 5 68.74 4.56
5 -6 -5 65.5 4.64
-5 6 -5 67.24 4.55
-5 -1 5 63.2 4.59
5 -6 -5 64.74 4.55
-5 -1 5 73.87 4.68
-5 6 -5 64.8 4.56
1 -6 5 65.15 4.67
5 1 5 64.23 4.52
5 -6 -5 64.99 4.49
-1 -5 -5 73.35 4.75
1 5 -5 63.19 4.53
6 -5 5 64.45 4.52
-6 5 5 60.59 4.54
1 5 -5 65.26 4.51
1 -6 5 63.55 4.53
-1 -5 -5 64.76 4.53
6 -1 -5 68.93 4.61
1 5 -5 65.17 4.56
-6 1 -5 71.31 4.61
-6 1 -5 63.57 4.63
0 6 -5 1.69 0.61
0 -6 -5 1.85 0.53
6 -6 -5 2.06 0.65
-6 0 -5 2.51 0.65
-6 0 -5 2.28 0.55
0 -6 -5 1.59 0.73
-6 0 5 1.53 0.5
6 -6 -5 1.49 0.61
-6 6 -5 2.37 0.69
-6 0 5 1.57 0.74
-6 0 5 1.86 0.63
-6 6 5 0.94 0.38
0 -6 5 1.77 0.88
6 -6 5 1.52 0.51
6 0 -5 2.26 0.7
-6 6 -5 1.92 0.5
-6 0 -5 2.14 0.74
0 6 -5 1.8 0.56
0 -6 5 1.44 0.55
0 6 -5 2.54 0.6
-6 6 -5 1.35 0.5
6 0 5 1.42 0.51
-3 7 -5 27.94 2.08
3 -7 -5 26.72 2.05
7 -4 -5 25.81 2.05
-7 4 -5 26.11 2.15
-7 4 -5 28.66 2.02
-4 -3 -5 29.18 2.1
-4 -3 -5 28.38 2.03
-3 7 -5 25.36 2.05
3 4 5 29.42 2.08
7 -3 5 25.14 1.99
4 3 -5 22.25 2
-3 -4 5 28.15 2.11
4 -7 5 27.12 2.03
4 3 -5 26.76 2.07
-7 4 -5 26.64 2.12
-7 4 -5 26.38 2.05
3 -7 -5 28.41 2.03
-3 -4 5 29.19 2.23
3 -7 -5 28.81 2.21
-7 3 5 28.48 2.15
-4 -3 -5 29.18 2.33
3 -7 5 36.53 2.6
-7 3 -5 36.52 2.71
-3 -4 -5 36.92 2.57
7 -4 5 34.49 2.55
-7 3 -5 35.52 2.64
-4 7 -5 35.83 2.61
3 -7 5 29.99 2.68
4 -7 -5 35.24 2.61
4 -7 -5 36.35 2.58
-3 -4 -5 37.13 2.63
-4 7 -5 34.46 2.54
4 3 5 36.82 2.59
-7 4 5 33.34 2.61
-4 -3 5 39.91 2.81
-7 3 -5 35.68 2.61
3 4 -5 36.18 2.63
-4 -3 5 34.47 2.6
-3 -4 -5 36.4 2.84
4 -7 -5 36.05 2.72
7 -3 -5 36.83 2.65
2 5 5 1.57 0.42
2 -7 -5 1.81 0.54
-5 -2 -5 4.17 0.77
-7 5 -5 3.11 0.73
-2 7 -5 2.54 0.66
7 -2 5 2.62 0.54
2 -7 -5 3.24 0.85
-5 -2 -5 2.15 0.78
-7 2 5 2.55 0.67
5 2 -5 2.1 0.58
-2 -5 5 2.78 0.66
5 -7 5 3.66 0.66
-7 5 -5 2.14 0.63
7 -5 -5 2.44 0.66
-2 7 -5 2.47 0.62
7 -5 -5 1.95 0.61
-7 5 -5 2.05 0.68
5 2 -5 3.01 0.69
-5 -2 -5 3.29 0.6
2 -7 -5 3.33 0.75
-7 5 -5 1.68 0.51
-2 -5 5 2.62 0.83
-7 2 5 2.9 0.81
2 -7 5 0.41 0.69
-7 5 5 1.27 0.57
-5 -2 5 0.79 0.58
5 -7 -5 1.06 0.56
-5 -2 5 1.2 0.65
2 5 -5 1.04 0.55
-2 -5 -5 1.12 0.86
-2 -5 -5 1.22 0.49
2 5 -5 0.67 0.44
2 -7 5 0.92 0.51
7 -5 5 1.01 0.49
2 -7 5 1.61 0.57
-5 7 -5 1.36 0.48
5 -7 -5 0.69 0.64
7 -2 -5 1.45 0.6
2 5 -5 1.16 0.42
-5 -2 5 0.72 0.73
-7 2 -5 1.57 0.51
5 -7 -5 0.87 0.49
-7 2 -5 1.94 0.63
5 2 5 1.3 0.6
-5 7 -5 1.27 0.61
-7 2 -5 0.82 0.6
5 2 5 0.55 0.37
1 -7 -5 89.65 5.98
-6 -1 -5 93.47 6.03
-1 7 -5 85.92 5.97
-7 1 5 89.8 6.03
-7 1 5 90.56 6.05
1 -7 -5 90.47 6.17
-6 -1 -5 91.08 6.13
-6 -1 -5 88.17 5.96
-7 6 -5 89.83 6.01
-1 -6 5 94 6.13
7 -1 5 85.96 5.93
6 1 -5 89.22 6
1 6 5 73.49 5.89
6 -7 5 89.01 5.95
-1 7 -5 82.82 5.94
7 -6 -5 90.66 6.01
-1 7 -5 87.79 5.95
7 -6 -5 86.66 5.97
-7 6 -5 92.96 5.97
7 -6 -5 72.84 6
-1 -6 5 89.68 5.99
6 1 -5 88.32 5.98
-6 -1 5 102.37 6.46
6 -7 -5 89.59 6.41
-1 -6 -5 87.3 6.33
6 1 5 85.07 6.26
-6 7 -5 96.39 6.36
7 -6 5 90.88 6.28
6 1 5 90.01 6.28
-6 7 -5 97.81 6.31
1 -7 5 88.68 6.41
-7 1 -5 94.25 6.33
6 -7 -5 94.93 6.35
-1 -6 -5 93.39 6.49
-1 -6 -5 94.63 6.32
-6 -1 5 105.11 6.36
-6 -1 5 89.74 6.37
1 -7 5 93.73 6.32
-7 1 -5 98.22 6.38
-7 1 -5 95.05 6.45
7 -1 -5 101.08 6.38
1 6 -5 86.29 6.26
1 6 -5 96.5 6.34
-7 6 5 77.29 6.3
-7 0 5 19.44 1.77
0 -7 -5 23.02 2.11
0 -7 -5 23.52 1.85
-7 0 -5 24.36 1.88
-7 7 -5 23.38 1.73
7 0 5 21.62 1.75
7 -7 5 22.95 1.78
0 7 -5 21.08 1.72
0 -7 5 22 1.83
-7 0 -5 20.47 1.77
0 7 -5 24.57 1.84
7 -7 -5 21.87 1.88
-7 0 5 21.31 1.84
0 7 -5 18.55 1.74
-7 0 -5 23.12 1.95
7 0 -5 23.24 1.83
7 0 5 22.8 1.75
-7 0 5 23.54 1.94
0 -7 -5 22.75 1.79
0 -7 5 24 2.04
-7 0 -5 22.75 1.8
-7 7 -5 23.2 1.89
0 7 5 21.07 1.71
8 -4 5 76.09 5.2
8 -4 -5 78.03 5.27
4 -8 5 80.45 5.24
4 -8 -5 68.34 5.23
-4 8 -5 80.61 5.28
-8 4 -5 76.89 5.3
-4 -4 -5 81.05 5.49
-4 -4 5 82.81 5.3
-4 -4 -5 77.07 5.24
-4 8 -5 78.29 5.23
4 -8 -5 74.47 5.37
-8 4 5 78.49 5.29
-8 4 -5 70.02 5.32
4 4 5 76.4 5.22
-4 -4 -5 80.52 5.26
-4 -4 5 83.49 5.41
-8 4 -5 66.98 5.19
-4 -4 -5 76.75 5.26
4 -8 -5 68.48 5.21
4 4 5 72.32 5.19
-8 4 -5 75.69 5.24
4 4 -5 78.5 5.27
8 -5 -5 12.59 1.29
8 -3 5 12.89 1.2
3 -8 -5 12.94 1.16
-3 8 -5 13.03 1.12
5 -8 5 13.24 1.26
-5 -3 -5 14.88 1.33
-8 5 -5 12.31 1.33
-5 -3 -5 13.3 1.15
-8 5 -5 10.64 1.25
-8 5 -5 9.85 1.26
-5 -3 -5 13.07 1.27
5 3 -5 10.08 1.15
-3 -5 5 13.42 1.49
-5 -3 -5 13.13 1.63
-8 5 -5 13.28 1.13
-8 3 5 13.13 1.31
3 -8 -5 13.23 1.49
3 5 5 11.98 1.16
-3 8 -5 13.08 1.24
-3 -5 5 12.48 1.27
5 3 -5 13.93 1.34
-5 -3 5 13.87 1.54
-8 5 5 13.41 1.35
3 -8 5 9.78 1.36
5 3 5 13.62 1.3
-8 3 -5 14.47 1.44
-3 -5 -5 13.55 1.25
-5 -3 5 14.84 1.4
-8 3 -5 11.48 1.32
5 -8 -5 13.6 1.46
-5 8 -5 15.21 1.33
3 5 -5 13.82 1.36
-8 3 -5 14.03 1.29
8 -5 5 13.48 1.24
5 3 5 12.29 1.17
5 -8 -5 13.79 1.29
-5 -3 5 11.85 1.25
3 -8 5 13.42 1.31
-3 -5 -5 13.13 1.19
-3 -5 -5 12.42 1.57
8 -3 -5 14.21 1.38
-5 8 -5 13.57 1.29
8 -6 -5 79.12 5.32
8 -2 5 67.2 5.19
-6 -2 -5 78.89 5.26
-6 -2 -5 82.87 5.33
6 2 -5 80.82 5.31
-6 -2 -5 79.77 5.27
-8 2 5 76.08 5.34
2 -8 -5 73.73 5.23
-8 6 -5 78.07 5.29
-2 8 -5 78.1 5.27
2 6 5 70.87 5.19
-6 -2 -5 77.93 5.46
8 -2 5 75.72 5.22
-2 8 -5 79.4 5.25
2 -8 -5 77.52 5.46
-2 -6 5 79.2 5.4
8 -6 -5 77.81 5.28
6 2 -5 65.66 5.23
-8 2 5 81.66 5.36
2 -8 -5 75.9 5.28
-8 6 -5 80.79 5.26
6 -8 5 79.52 5.25
-2 -6 5 74.73 5.3
-2 8 -5 71.1 5.25
6 -8 -5 61.97 5.15
-8 2 -5 75.88 5.05
-6 -2 5 70.26 5.08
-6 8 -5 70.37 5.06
6 -8 -5 74.14 5.09
-6 -2 5 80.17 5.22
-2 -6 -5 72.24 5.27
2 -8 5 69.2 5.03
2 6 -5 76.95 5.08
-8 6 5 69.1 5.07
8 -2 -5 78.46 5.11
2 -8 5 75.25 5.05
-6 8 -5 78.78 5.09
-8 2 -5 83.38 5.17
-2 -6 -5 67.51 5.05
-8 2 -5 70.35 5.18
6 2 5 71.9 5.01
-6 -2 5 78.84 5.11
-2 -6 -5 74.1 5.1
6 2 5 73.94 5.02
8 -6 5 72.5 5.01
-8 1 5 18.48 1.69
-1 8 -5 20.18 1.66
-8 1 5 20.25 1.75
-8 7 -5 20.03 1.54
-7 -1 -5 20.02 1.71
-1 8 -5 17.93 1.61
8 -1 5 19.53 1.62
-8 7 -5 19.79 1.72
1 -8 -5 18.3 1.9
-1 -7 5 16.71 1.66
1 7 5 19.26 1.57
1 -8 -5 21.37 1.65
8 -7 -5 20.95 1.75
-7 -1 -5 19.32 1.53
8 -7 -5 18.97 1.68
-7 -1 -5 19.68 1.65
1 -8 -5 20.1 1.72
-7 -1 -5 17.63 1.84
8 -1 5 19.81 1.58
7 -8 5 20.16 1.58
7 1 -5 21.32 1.73
-1 -7 5 19 1.82
-1 8 -5 16.52 1.54
7 1 -5 18.98 1.65
1 7 -5 23.41 1.77
1 -8 5 18.08 1.66
-8 1 -5 24.11 1.82
1 -8 5 15.71 1.75
7 1 5 21.67 1.67
-1 -7 -5 20.6 1.66
-7 -1 5 23.54 1.95
-8 1 -5 16.07 1.75
-1 -7 -5 17.25 1.99
-1 -7 -5 21.26 1.71
-7 -1 5 20.87 1.76
7 -8 -5 21.46 1.77
1 7 -5 16.77 1.58
-7 8 -5 21.36 1.62
-7 -1 5 19.82 1.8
8 -7 5 21.06 1.65
-7 8 -5 23.29 1.81
-8 1 -5 20.7 1.59
8 -1 -5 21.91 1.74
-8 7 5 17.64 1.64
7 1 5 21 1.68
1 -8 5 22.21 1.75
0 -8 -5 2.6 0.8
8 0 -5 4.26 0.77
-8 0 5 2.66 0.85
8 -8 -5 1.86 0.64
-8 8 -5 3.27 0.59
0 -8 5 3.6 0.76
0 -8 -5 2.82 0.68
-8 0 -5 4.84 0.87
8 0 5 3.75 0.68
-8 0 5 2.65 0.7
-8 0 5 3.98 0.84
8 -8 5 4.46 0.74
-8 8 -5 2.76 0.72
0 8 5 3.95 0.63
0 8 -5 4.09 0.77
0 -8 5 3.12 0.67
8 0 5 3.48 0.63
0 -8 5 0.73 0.74
-8 0 -5 2.61 0.68
0 8 -5 2.64 0.64
4 5 5 54.65 3.66
5 -9 5 58.13 3.72
-9 5 -5 47.25 3.71
-4 -5 5 56.28 3.78
-9 5 -5 50.82 3.68
5 4 -5 54.18 3.74
-4 9 -5 49.52 3.68
-4 -5 5 50.68 3.81
-5 -4 -5 54.39 3.75
-5 -4 -5 56.83 3.74
-5 -4 -5 50.17 3.7
-5 -4 -5 42.91 3.9
-4 9 -5 48.77 3.65
-9 4 5 57.26 3.81
-4 9 -5 55.09 3.74
9 -4 5 47.37 3.63
9 -5 -5 51.06 3.71
9 -4 5 53.06 3.66
9 -4 -5 65.44 4.68
-5 -4 5 63.53 4.77
5 4 5 70.81 4.64
5 4 5 65.21 4.66
-9 4 -5 72.34 4.77
-5 -4 5 70.48 4.74
-9 5 5 71.37 4.75
-4 -5 -5 63.1 4.68
4 -9 5 69.26 4.68
-5 9 -5 62.96 4.64
-5 9 -5 69.41 4.69
-4 -5 -5 69.59 4.7
-4 -5 -5 65.04 4.67
4 5 -5 65.29 4.7
9 -5 5 64.92 4.62
-3 9 -5 40.85 3.1
-9 3 5 48.58 3.22
-9 6 -5 36.83 3.12
9 -6 -5 40.05 3.15
9 -6 -5 42.12 3.13
-3 9 -5 46.69 3.13
-3 9 -5 38.42 3.09
3 6 5 45.26 3.05
9 -3 5 42.84 3.07
-6 -3 -5 45.88 3.18
-6 -3 -5 50.32 3.19
-3 -6 5 45.73 3.2
9 -3 5 44.02 3.07
6 3 -5 44.85 3.14
-3 -6 5 34.26 3.2
-6 -3 -5 36.01 3.08
6 -9 5 47.36 3.1
-9 6 -5 45.02 3.13
-9 6 5 48.23 3.44
9 -3 -5 48.85 3.49
-3 -6 -5 45.28 3.4
-3 -6 -5 46.99 3.45
-6 -3 5 56.03 3.55
-6 -3 5 44.45 3.55
-9 3 -5 51.27 3.52
3 -9 5 50.38 3.45
-6 9 -5 53.46 3.5
-6 -3 5 42.82 3.43
6 3 5 47.41 3.37
6 3 5 46.89 3.41
3 6 -5 45.45 3.46
-6 9 -5 45.36 3.42
9 -6 5 47.11 3.39
2 -9 -5 15.82 1.52
-2 -7 5 12.92 1.5
-2 9 -5 17.01 1.53
7 -9 5 18.37 1.51
-9 7 -5 16.41 1.58
-7 -2 -5 16.73 1.58
9 -7 -5 15.69 1.52
-2 9 -5 15.23 1.51
2 7 5 18.29 1.47
7 2 -5 18.04 1.6
-9 2 5 17.15 1.59
9 -2 5 16.05 1.47
7 2 -5 15.73 1.45
9 -2 5 17.43 1.47
-7 -2 -5 18.71 1.59
-2 -7 -5 15.66 1.52
9 -7 5 15.81 1.44
2 7 -5 16.59 1.54
-9 7 5 14.91 1.48
7 2 5 16.36 1.45
-7 9 -5 17.67 1.52
7 2 5 17.5 1.48
2 -9 5 17.3 1.52
-7 9 -5 13.82 1.33
-7 -2 5 15.93 1.51
-9 2 -5 18.47 1.6
9 -2 -5 18.35 1.6
-7 -2 5 13.4 1.54
2 -9 5 15.12 1.49
-2 -7 -5 15.76 1.39
7 -9 -5 16.95 1.37
-7 -2 5 17.54 1.58
9 -1 5 15.45 1.39
1 8 5 16.38 1.38
9 -1 5 15.62 1.35
8 1 -5 16.63 1.47
-9 1 5 15.44 1.59
-1 9 -5 12.76 1.38
-1 9 -5 15.09 1.39
8 1 -5 13.84 1.43
-1 -8 5 12.18 1.46
1 -9 -5 15.89 1.48
-9 8 -5 14.18 1.49
-8 -1 -5 15.9 1.52
-8 -1 -5 14.5 1.46
8 -9 5 15.27 1.42
9 -8 -5 15.56 1.42
1 -9 5 13.14 1.43
1 8 -5 14.46 1.48
9 -1 -5 17.72 1.57
8 1 5 15.37 1.41
-9 1 -5 17.92 1.64
-9 8 5 13.53 1.35
1 -9 5 13.67 1.49
-8 -1 5 15.89 1.54
9 -8 5 14.21 1.38
8 -9 -5 15.85 1.34
8 1 5 16.89 1.46
-8 9 -5 16.14 1.47
-8 -1 5 13.78 1.46
-1 -8 -5 14.67 1.49
9 0 5 96.2 6.09
0 -9 -5 85.41 6.12
0 -9 5 74.96 6.07
-9 9 -5 91.77 6.13
-9 0 5 87.31 6.13
0 9 -5 88.04 6.12
-9 0 5 87.51 6.21
9 0 -5 98.23 6.18
9 0 -5 83.88 6.11
-9 0 -5 77.99 6.1
0 -9 5 87.49 6.13
-9 0 -5 100.88 6.23
0 9 5 98.03 6.07
9 -9 5 88.76 6.08
9 -9 -5 89.17 6.02
9 0 5 88.7 6.07
-5 -5 -5 14.59 1.49
-5 -5 -5 15.89 1.54
10 -5 5 15.19 1.38
-5 10 -5 12.89 1.4
10 -5 5 12.83 1.3
5 5 5 16.23 1.38
-5 -5 5 14.39 1.58
5 5 -5 15.93 1.52
-10 5 -5 14.73 1.46
-5 10 -5 16 1.53
-10 5 -5 14.44 1.54
5 -10 5 16.46 1.51
5 -10 -5 14.26 1.42
10 -5 -5 15.76 1.49
-10 5 5 16.97 1.6
-4 10 -5 7.93 1.08
-6 -4 -5 9.02 1.25
-6 -4 -5 8.44 1.22
10 -4 5 8.39 1.06
-4 -6 5 7.9 1.27
10 -4 5 6.96 1.05
6 4 -5 9.79 1.21
10 -6 -5 7.96 1.06
-10 6 -5 8.65 1.21
4 6 5 8.64 1.1
-10 6 -5 7.65 1.15
-4 10 -5 8.73 1.1
-10 4 5 8.1 1.19
6 -10 5 8.62 1.15
10 -4 -5 8.49 1.06
-4 -6 -5 6.37 1.13
-10 4 -5 7.21 1.06
-6 -4 5 7.14 1.09
4 6 -5 6.22 0.96
4 -10 5 5.51 0.88
-10 6 5 5.48 0.94
10 -6 5 5.93 0.96
10 -6 5 4.34 0.73
-6 10 -5 7.09 1.15
6 4 5 7.23 0.89
-6 -4 5 4.75 0.88
-10 3 5 19.28 1.78
-3 10 -5 14.05 1.56
3 7 5 18.56 1.56
-3 -7 5 18.34 1.71
-10 7 -5 17.53 1.67
10 -3 5 16.14 1.53
-10 7 -5 13.74 1.56
-3 10 -5 18.06 1.6
10 -7 -5 17.4 1.62
7 3 -5 19.14 1.62
-7 -3 -5 18.17 1.62
-7 -3 -5 17.01 1.63
7 -10 5 18.75 1.55
10 -3 5 18.57 1.53
3 -10 5 16.37 1.57
10 -3 -5 16.11 1.51
-10 3 -5 17.33 1.6
3 7 -5 17 1.49
-10 7 5 14.07 1.5
-7 -3 5 15.98 1.53
-3 -7 -5 15.92 1.57
7 3 5 15.31 1.47
10 -7 5 15.23 1.42
3 -10 5 13.23 1.36
10 -7 5 12.31 1.33
-7 10 -5 17.27 1.52
-7 -3 5 17.61 1.62
7 3 5 19 1.52
7 -10 -5 15.84 1.34
-8 -2 -5 50.47 4.02
-8 -2 -5 57.88 4.11
8 -10 5 58.83 4
-10 8 -5 53.5 4.02
10 -2 5 53.47 3.94
10 -8 -5 55.34 4
10 -2 5 55.49 3.96
2 8 5 61.5 3.97
2 -10 -5 50.28 4
-2 10 -5 59.43 4.02
-2 -8 5 54.74 4.06
8 2 -5 64.09 4.09
-10 2 5 57.55 4.11
8 2 5 42.83 3.17
2 8 -5 46.9 3.28
8 -10 -5 46.09 3.15
-8 -2 5 43.47 3.31
-10 2 -5 47.43 3.35
-10 8 5 35.89 3.19
-2 -8 -5 39.59 3.21
10 -2 -5 50.03 3.32
2 -10 5 44.87 3.24
10 -8 5 42.2 3.17
8 2 5 52.08 3.23
-8 -2 5 43.79 3.31
2 -10 5 38.08 3.19
-8 10 -5 48.66 3.29
-10 1 5 16.48 1.74
9 -10 5 17.33 1.58
-9 -1 -5 17.96 1.68
-1 -9 5 15.49 1.66
9 1 -5 17.34 1.64
1 -10 -5 15.47 1.63
1 9 5 17.71 1.46
10 -1 5 17.64 1.53
10 -9 -5 17.4 1.45
-1 10 -5 16.78 1.53
9 1 -5 14.36 1.49
-9 -1 -5 14.51 1.64
10 -1 5 16.42 1.52
10 -9 -5 16.93 1.63
-10 9 -5 17.49 1.67
10 -1 -5 17.69 1.61
1 -10 5 16.06 1.64
-10 1 -5 19.26 1.79
-9 -1 5 18.57 1.7
9 -10 -5 16.93 1.48
1 -10 5 14.44 1.58
9 1 5 17.19 1.55
9 1 5 18.3 1.59
10 -9 5 16.81 1.54
-9 -1 5 17.04 1.65
-9 10 -5 16.36 1.58
1 9 -5 16.7 1.62
-1 -9 -5 15.46 1.63
-10 0 5 21.87 2
0 -10 5 19.26 1.97
-10 0 -5 21.04 1.98
10 -10 5 24.74 2
10 -10 -5 24.95 1.92
0 -10 -5 23.23 2.05
10 0 -5 26.96 2.12
0 10 -5 25.07 2.05
-10 0 -5 26.08 2.14
10 0 5 24.64 1.97
0 -10 5 22.91 2.05
-10 0 5 24.28 2.11
10 0 -5 23.61 2.02
-10 10 -5 24 2.02
10 0 5 26.89 2.01
11 -5 5 32.81 2.52
11 -5 5 28.78 2.45
5 -11 -5 33.08 2.55
6 5 -5 35.54 2.6
5 6 5 37.42 2.52
6 -11 5 36.82 2.63
-6 -5 -5 30.39 2.6
11 -6 -5 34.19 2.57
-5 -6 5 32.29 2.62
-6 -5 -5 36.06 2.66
-5 11 -5 29.45 2.54
-11 6 -5 34.03 2.59
-5 11 -5 33.26 2.57
-11 5 5 36.71 2.68
11 -6 5 31.49 2.79
6 -11 -5 37.45 2.83
5 6 -5 39.55 2.97
-6 11 -5 35.42 2.83
11 -6 5 39.75 2.85
5 -11 5 39.65 2.89
-6 -5 5 40.35 3.01
-11 6 5 41.47 2.97
6 5 5 41.19 2.84
-11 5 -5 38.6 3
-5 -6 -5 37.96 2.94
-6 11 -5 42 2.96
11 -5 -5 38.68 2.9
11 -7 -5 25.27 2.08
-4 11 -5 20 2.02
7 -11 5 27.31 2.08
-4 11 -5 25.32 2.05
-11 4 5 26.66 2.16
-7 -4 -5 24.8 2.12
-4 -7 5 22.61 2.11
4 -11 -5 23.72 2
11 -4 5 22.25 1.96
-7 -4 -5 24.06 2.14
7 4 -5 28.15 2.13
4 7 5 27.55 2.02
11 -4 5 23.35 1.96
-11 7 -5 24.37 2.04
4 -11 5 35.63 2.65
-4 -7 -5 31.74 2.63
-7 -4 5 27.72 2.54
11 -7 5 29.56 2.51
-7 -4 5 37.35 2.74
-11 4 -5 36.74 2.75
11 -4 -5 34.68 2.61
11 -7 5 33.09 2.53
-7 11 -5 35.05 2.6
-11 7 5 31.62 2.64
7 4 5 39.07 2.56
4 7 -5 35.05 2.61
-11 8 -5 28.42 2.33
-3 11 -5 24.95 2.3
11 -3 5 27.19 2.25
-3 -8 5 29.6 2.45
-11 3 5 30.38 2.45
-3 11 -5 30.22 2.36
8 3 -5 31.37 2.35
-8 -3 -5 30.01 2.46
-8 -3 -5 26.35 2.36
11 -8 -5 30.54 2.37
3 8 5 31.03 2.26
8 -11 5 31.47 2.3
11 -3 5 30.82 2.29
3 -11 5 32.99 2.63
11 -3 -5 36.33 2.68
3 8 -5 37.49 2.68
-8 11 -5 35.41 2.61
11 -8 5 33.78 2.56
11 -8 5 28.39 2.49
-11 3 -5 36.6 2.73
-3 -8 -5 33.41 2.65
8 3 5 40.25 2.62
-8 -3 5 31.33 2.64
8 -11 -5 33.64 2.51
-11 8 5 28.31 2.59
-8 -3 5 33.52 2.69
9 2 -5 33.79 2.55
2 -11 -5 27.25 2.49
11 -9 -5 28.37 2.33
-9 -2 -5 29.53 2.53
-11 2 5 32.3 2.65
-2 -9 5 31.05 2.56
11 -9 -5 33.61 2.53
2 9 5 33.75 2.43
11 -2 5 29.48 2.4
-9 -2 -5 33.19 2.63
9 -11 5 34.32 2.5
11 -2 5 31.38 2.41
-2 11 -5 30.59 2.43
-11 9 -5 31.77 2.52
-9 -2 5 29.96 2.42
-11 9 5 23.44 2.28
9 -11 -5 30.06 2.25
-2 -9 -5 24.85 2.36
-9 11 -5 31.25 2.42
-9 -2 5 30.56 2.4
2 -11 5 26.47 2.36
11 -2 -5 32 2.43
2 -11 5 26.59 2.36
9 2 5 34.17 2.34
-11 2 -5 32.53 2.48
9 2 5 30.21 2.32
11 -9 5 28.81 2.28
2 9 -5 31.52 2.4
-1 11 -5 0.07 0.6
11 -1 5 0.96 0.68
11 -1 5 0.67 0.66
10 -11 5 0.45 0.74
-11 1 5 0.21 0.84
-11 10 -5 -0.04 0.67
-10 -1 -5 0.97 0.8
1 10 5 0.78 0.58
11 -10 -5 0.54 0.56
-1 -10 5 0.78 0.81
10 1 -5 0.53 0.67
11 -10 -5 0.55 0.71
10 1 -5 0.16 0.48
10 -11 5 -0.08 0.35
-1 -10 5 0.23 0.57
-10 -1 -5 0.78 0.74
1 -11 -5 0.39 0.71
11 -10 5 0.92 0.56
1 -11 5 1.65 0.8
-1 -10 -5 1.26 0.74
-11 1 -5 3.37 0.91
1 10 -5 2.71 0.79
-10 11 -5 2.29 0.76
11 -1 -5 3.16 0.86
-10 -1 5 1.56 0.88
10 1 5 3.27 0.79
11 -10 5 1.99 0.71
-10 -1 5 1.54 0.81
10 -11 -5 2.61 0.69
1 -11 5 1.3 0.79
10 1 5 1.58 0.71
11 0 5 1.91 0.75
0 -11 5 1.39 0.78
0 11 -5 2.14 0.83
11 -11 -5 2.57 0.69
-11 0 5 1.65 0.86
-11 0 -5 2.38 0.9
11 -11 5 2.01 0.74
-11 0 -5 1.12 0.6
0 -11 5 2.3 0.87
11 0 -5 1.03 0.61
11 -11 5 1.05 0.52
-11 11 -5 3.29 0.88
11 0 -5 2.75 0.79
0 -11 -5 2.25 0.85
11 0 5 2.96 0.79
-6 -6 -5 2.43 0.77
-6 -6 -5 1.44 0.62
6 6 5 3.53 0.77
-6 -6 5 2.17 0.83
12 -6 -5 3.92 0.86
6 -12 5 4.73 0.96
6 -12 -5 2.33 0.72
-6 12 -5 2.14 0.75
-12 6 -5 2.21 0.74
6 6 -5 3.19 0.84
-12 6 -5 2.38 0.76
-6 12 -5 2.92 0.84
12 -6 5 3.06 0.77
12 -6 5 2.57 0.71
-12 6 5 3.05 0.88
12 -5 5 9.71 1.17
-12 7 -5 8.51 1.24
5 -12 -5 11.13 1.33
-7 -5 -5 10.32 1.4
-7 -5 -5 10.63 1.4
5 7 5 12.32 1.24
-12 7 -5 10.67 1.33
7 5 -5 11.2 1.45
7 -12 5 12.1 1.38
-5 12 -5 9.85 1.35
-12 5 5 12.25 1.58
-5 12 -5 11.66 1.34
-5 -7 5 10.98 1.48
12 -5 5 11.36 1.27
12 -7 -5 12 1.38
5 -12 5 7.78 1.28
-7 12 -5 7.17 1.1
-12 7 5 8.36 1.22
12 -7 5 8.68 1.14
-12 5 -5 8.51 1.36
5 7 -5 9.15 1.31
7 5 5 9.3 1.25
12 -5 -5 8.59 1.27
-7 12 -5 8.46 1.26
-7 -5 5 7.87 1.37
12 -7 5 6.8 1.1
-5 -7 -5 6.84 1.22
-4 12 -5 15.87 1.73
-8 -4 -5 18.1 1.84
4 8 5 22.62 1.76
4 -12 -5 19.52 1.75
-4 -8 5 19.13 1.86
-12 8 -5 14.72 1.71
8 4 -5 20.95 1.85
-4 12 -5 20.19 1.8
12 -4 5 18.46 1.7
-12 4 5 20.09 1.98
12 -4 5 19.17 1.72
-8 -4 -5 18.01 1.85
8 -12 5 20.82 1.81
12 -8 -5 20.46 1.82
-12 8 -5 18.66 1.78
4 8 -5 13.6 1.52
-8 12 -5 12.76 1.53
-8 -4 5 11.26 1.36
-8 -4 5 12.38 1.59
-12 8 5 10.57 1.42
-12 4 -5 13.28 1.52
12 -4 -5 14.13 1.51
12 -8 5 10.57 1.29
12 -8 5 13.55 1.36
-4 -8 -5 10.63 1.39
4 -12 5 13.18 1.5
8 -12 -5 11.42 1.3
8 4 5 13.31 1.35
-9 -3 -5 5.19 1.07
12 -9 -5 5.99 1
-3 12 -5 4.88 0.93
-12 9 -5 4.16 0.92
12 -9 -5 3.28 0.7
-12 3 5 6.06 1.13
12 -3 5 3.97 0.8
-3 12 -5 3.29 0.79
-3 -9 5 5.52 1.1
3 -12 -5 5.73 0.94
9 -12 5 6.15 0.99
3 9 5 5.9 0.89
12 -3 5 2.86 0.77
9 3 -5 6.05 1.03
-9 -3 -5 2.23 0.85
-9 -3 5 0.93 0.82
-3 -9 -5 0.9 0.75
3 -12 5 1.98 0.85
3 -12 5 0.42 0.46
12 -9 5 1.51 0.63
-12 9 5 0.9 0.74
-12 3 -5 2.35 0.92
-9 12 -5 1.06 0.78
12 -3 -5 2.62 0.88
12 -9 5 1.71 0.72
9 3 5 2.23 0.7
-9 -3 5 1.36 0.84
3 9 -5 2.2 0.83
9 -12 -5 1.54 0.65
2 -12 -5 13.01 1.37
2 10 5 13.48 1.43
12 -2 5 11.93 1.35
12 -10 -5 12.49 1.32
-2 -10 5 12.47 1.61
-12 2 5 13.22 1.7
12 -2 5 12.08 1.31
-10 -2 -5 12.82 1.64
-2 12 -5 12.38 1.48
10 -12 5 13.83 1.51
-12 10 -5 12.3 1.47
-10 -2 -5 10.93 1.54
12 -10 -5 13.3 1.45
10 2 -5 15.25 1.57
2 -12 -5 11.59 1.43
-10 12 -5 10.81 1.41
-10 -2 5 9.37 1.37
10 -12 -5 10.12 1.21
-10 -2 5 9.1 1.43
10 2 5 12.54 1.37
12 -10 5 10.04 1.29
-12 2 -5 12.22 1.54
-2 -10 -5 8.56 1.37
12 -10 5 8.31 1.18
2 -12 5 9.86 1.38
2 10 -5 10.74 1.4
12 -2 -5 10.47 1.44
2 -12 5 8.52 1.35
12 -11 -5 29.68 2.45
12 -11 -5 30.64 2.31
12 -1 5 31.85 2.38
1 -12 -5 29.6 2.37
-1 12 -5 29.13 2.4
-1 -11 5 28.37 2.46
-12 11 -5 29.52 2.42
11 1 -5 31.37 2.49
12 -1 5 24.37 2.23
-11 -1 -5 24.94 2.39
-12 1 5 30.76 2.53
-11 -1 -5 30.68 2.5
1 -12 -5 28.2 2.41
11 -12 5 29.94 2.42
-11 -1 5 28.48 2.35
12 -11 5 22.31 2.07
11 -12 -5 26.31 2.11
-11 12 -5 28.43 2.29
1 -12 5 23.41 2.24
12 -11 5 26.93 2.2
11 1 5 29.83 2.16
1 -12 5 25.12 2.27
12 -1 -5 23.19 2.13
-12 1 -5 31.07 2.44
-11 -1 5 24.72 2.24
1 11 -5 28.16 2.28
-1 -11 -5 23.81 2.27
12 -1 -5 29.07 2.33
12 0 5 -0.45 0.69
0 -12 5 0.78 0.79
0 12 -5 -0.24 0.68
12 0 5 0.3 0.5
12 -12 -5 0.19 0.66
12 -12 5 0.03 0.77
-12 12 -5 -0.16 0.67
0 -12 -5 -0.31 0.81
12 0 -5 0.58 0.82
-12 0 -5 0.81 0.92
0 -12 -5 -0.08 0.74
-12 0 5 0.26 0.95
12 -12 5 -0.51 0.52
0 -12 5 0.8 0.81
-7 -6 -5 4.61 0.88
-6 -7 5 7.64 1.12
6 -13 -5 7.45 1.2
-13 6 5 8.81 1.51
-13 7 -5 5.32 0.98
6 7 5 7.65 1.21
-6 13 -5 5.23 0.95
13 -6 5 6.55 1.13
13 -6 5 6.46 0.92
7 -13 5 8.49 1.3
-7 -6 -5 7.54 1.3
-13 7 -5 4.32 0.9
-6 13 -5 7.41 1.2
13 -7 -5 7.65 1.27
-7 13 -5 9.43 1.29
-7 13 -5 9.68 1.38
6 -13 5 9.64 1.4
6 7 -5 10.74 1.41
7 6 5 8.72 1.3
-7 -6 5 9.2 1.47
7 -13 -5 8.1 1.25
-13 7 5 10.68 1.5
-13 6 -5 7.89 1.24
-6 -7 -5 8.5 1.35
13 -7 5 9.14 1.22
13 -6 -5 9.38 1.38
13 -7 5 8.05 1.22
-13 8 -5 11.03 1.5
-13 5 5 17.13 1.73
-5 13 -5 14.32 1.57
5 8 5 16.85 1.49
-8 -5 -5 14.98 1.71
-5 -8 5 14.22 1.67
8 -13 5 15.97 1.55
13 -5 5 12.4 1.46
5 -13 -5 15.7 1.55
13 -5 5 14.64 1.45
-13 8 -5 14.57 1.56
13 -8 -5 16.79 1.65
8 5 -5 16.77 1.73
-5 13 -5 12.89 1.54
-8 -5 -5 14.3 1.64
-8 13 -5 16.77 1.83
-8 13 -5 15.19 1.66
8 5 5 21.89 1.82
5 8 -5 20.3 1.86
13 -8 5 16.19 1.7
-8 -5 5 19.26 1.95
-13 5 -5 19.59 1.85
-5 -8 -5 19.13 1.83
13 -5 -5 20.04 1.89
8 -13 -5 17.91 1.6
5 -13 5 20.88 1.89
13 -8 5 17.77 1.7
-13 8 5 18.28 1.9
-13 9 -5 12.29 1.51
4 -13 -5 12.81 1.47
9 -13 5 14.42 1.46
13 -9 -5 15.03 1.59
-9 -4 -5 13.02 1.51
-13 4 5 15.03 1.78
13 -9 -5 11.08 1.24
-9 -4 -5 12.68 1.61
-4 13 -5 12.42 1.55
-4 -9 5 13.86 1.68
9 4 -5 15.41 1.62
13 -4 5 11.85 1.4
4 9 5 14.16 1.41
-4 13 -5 10.9 1.41
13 -9 5 17.72 1.81
4 -13 5 21.15 1.88
-9 -4 5 17.63 1.85
-13 4 -5 22.06 1.95
13 -4 -5 20.72 1.87
9 4 5 24.26 1.92
-9 -4 5 16.42 1.95
9 -13 -5 19.97 1.75
4 9 -5 20.84 1.85
-9 13 -5 20.82 1.96
-13 9 5 18.57 1.94
-4 -9 -5 20.63 1.92
-10 -3 -5 16.4 1.9
10 3 -5 21.65 1.93
3 -13 -5 18.3 1.82
-13 3 5 20.25 1.99
-13 10 -5 19.65 1.88
13 -10 -5 19.61 1.84
-3 -10 5 21.9 2.03
13 -3 5 17.6 1.69
3 10 5 20.24 1.81
13 -10 -5 17.75 1.68
-10 -3 -5 18.73 1.99
10 -13 5 21.76 1.95
-3 13 -5 19.37 1.87
3 10 -5 23.14 2.02
3 -13 5 19.95 1.98
-3 -10 -5 20.95 1.98
-13 3 -5 24.99 2.15
-13 10 5 17.2 1.9
-10 -3 5 18.33 2
13 -3 -5 23.82 2.04
-10 -3 5 20.29 2.04
-10 13 -5 21.37 1.92
10 -13 -5 21.24 1.83
10 3 5 23.11 1.87
13 -10 5 18.83 1.84
13 -10 5 20.64 1.85
2 11 5 3.02 0.82
13 -11 -5 2.83 0.89
13 -2 5 2.97 0.83
13 -11 -5 2.61 0.75
-2 -11 5 3.31 1.02
-2 13 -5 3.41 0.93
-11 -2 -5 2.6 1.02
11 2 -5 3.2 0.97
-11 -2 -5 1.84 0.87
-13 11 -5 2.94 0.91
-13 2 5 2.41 0.95
11 -13 5 3.09 0.95
2 -13 -5 3.21 0.9
2 -13 -5 1.79 0.73
-2 -11 -5 1.33 0.88
13 -11 5 0.06 0.68
13 -11 5 1.17 0.75
-11 13 -5 1.21 0.74
2 11 -5 1.76 0.88
2 -13 5 0.46 0.82
11 -13 -5 1.24 0.67
-11 -2 5 1.57 0.85
2 -13 5 0.68 0.7
13 -2 -5 1.94 0.87
-11 -2 5 1.72 0.99
11 2 5 1.5 0.79
-13 2 -5 1.28 0.87
13 -1 5 5.5 0.99
-13 1 5 8.16 1.37
-1 -12 5 5.63 1.1
1 -13 -5 6.21 1.12
12 -13 5 6.33 1.08
12 1 -5 7.47 1.18
13 -12 -5 4.88 0.91
-1 13 -5 5.84 1.05
-12 -1 -5 7.61 1.3
-13 12 -5 7.97 1.16
13 -12 -5 8.12 1.24
1 -13 -5 6.25 1.03
12 1 5 9.03 1.34
13 -12 5 8.68 1.31
-1 -12 -5 9.95 1.36
1 -13 5 7.98 1.39
13 -12 5 7.26 1.2
-13 1 -5 8.98 1.58
-1 -12 -5 7.91 1.42
1 12 -5 8.74 1.43
-12 13 -5 8.05 1.25
1 -13 5 7.35 1.38
12 -13 -5 8.92 1.25
13 -1 -5 9.74 1.48
-12 -1 5 9.04 1.58
13 0 5 6.59 1.03
13 -13 -5 5.79 1.14
13 0 -5 8.01 1.28
0 -13 -5 6.69 1.11
13 -13 -5 6.1 0.99
0 -13 -5 6.33 1.15
13 -13 5 8.11 1.2
-13 13 -5 7.66 1.16
0 13 -5 7.06 1.16
-13 0 -5 6.66 1.2
0 -13 5 5.56 1.04
-13 0 -5 6.99 1.13
-13 13 -5 5.38 0.87
-13 0 5 6.78 1.32
0 -13 5 6.62 1.15
7 -14 -5 0.47 0.75
-7 -7 -5 0.29 0.78
7 7 -5 0.94 0.84
7 7 5 0.36 0.68
14 -7 -5 0.53 0.83
14 -7 5 -0.06 0.45
-7 -7 5 0.99 0.94
-7 14 -5 0.66 0.77
7 -14 5 0.5 0.86
-14 7 -5 0.56 0.58
14 -7 5 -0.21 0.64
-14 7 5 0.22 0.88
-14 7 -5 0.38 0.76
-7 14 -5 0.89 0.78
-14 8 -5 -0.13 0.77
6 -14 -5 -0.3 0.76
-14 8 -5 -0.45 0.68
8 6 -5 -0.29 0.87
14 -8 -5 -0.08 0.79
-6 14 -5 0.29 0.79
6 8 5 0.26 0.76
-14 6 5 0.51 1
-8 -6 -5 0.55 0.86
8 -14 5 -0.18 0.79
-6 -8 5 -0.02 0.92
14 -6 5 -0.12 0.63
14 -8 -5 -0.2 0.37
-8 -6 -5 0.18 0.51
-6 14 -5 -0.24 0.73
14 -6 5 -0.14 0.45
-8 14 -5 0.27 0.8
8 6 5 0.48 0.69
8 -14 -5 0.07 0.66
-14 8 5 -0.16 0.8
-8 -6 5 1.14 0.97
14 -8 5 0.22 0.67
6 8 -5 0.2 0.84
-6 -8 -5 0.7 0.8
-8 14 -5 0.33 0.7
14 -8 5 0.08 0.56
14 -6 -5 0.5 0.84
8 -14 -5 -0.18 0.45
6 -14 5 0.68 0.89
-14 6 -5 0.35 0.75
9 -14 5 2.63 0.87
14 -9 -5 4.78 1.03
5 9 5 3.34 0.84
-9 -5 -5 2.68 0.89
-14 9 -5 1.59 0.72
14 -5 5 1.89 0.71
-5 14 -5 1.68 0.71
-14 9 -5 1.94 0.78
-9 -5 -5 2.03 0.87
9 5 -5 4.25 1.05
-5 14 -5 1.77 0.83
-14 5 5 3.8 1.16
5 -14 -5 2.72 0.9
5 -14 5 4.79 1.07
9 5 5 3.71 0.84
-14 9 5 3.62 1.08
5 9 -5 4.64 1.02
-5 -9 -5 4.79 0.97
-9 14 -5 2.22 0.68
-9 14 -5 4.03 0.97
-9 -5 5 4.81 1.08
9 -14 -5 4.02 0.81
14 -9 5 3.22 0.77
14 -9 5 3.4 0.85
14 -5 -5 4 0.96
-14 5 -5 4.32 0.99
-14 10 -5 -0.01 0.73
-14 4 5 -1.22 0.52
4 10 5 0.13 0.38
10 -14 5 0.66 0.86
-10 -4 -5 -0.06 0.79
14 -4 5 0.01 0.7
-10 -4 -5 0.1 0.81
-4 -10 5 1.14 0.95
4 10 5 0.64 0.78
-4 14 -5 0.64 0.82
14 -10 -5 0.78 0.81
10 4 -5 0.64 0.91
14 -10 -5 0.18 0.56
-10 14 5 -0.32 0.33
-10 14 5 -0.28 0.45
-14 4 5 0.95 0.94
4 -14 -5 0.08 0.73
14 -4 -5 0.45 0.88
4 -14 5 1.46 0.93
-14 10 5 0.73 0.86
-10 -4 5 0.5 0.72
-4 -10 -5 0.57 0.77
-10 14 -5 0.32 0.74
-14 10 5 0.02 0.45
10 4 5 0.9 0.81
14 -10 5 0.57 0.72
-14 4 -5 0.59 0.91
-14 4 -5 0.15 0.49
-10 -4 5 0.58 0.82
10 -14 -5 0.74 0.69
4 10 -5 0.88 0.85
14 -10 5 0.31 0.69
14 -11 -5 12.25 1.52
14 -11 -5 11.4 1.37
-3 -11 5 13.92 1.73
-14 3 5 12.85 1.76
-3 14 -5 11 1.56
-11 -3 -5 9.39 1.59
-11 14 5 8.66 1.42
-11 -3 -5 11.76 1.67
3 -14 -5 11.6 1.48
11 -14 5 12.64 1.62
14 -3 5 12.14 1.46
11 3 -5 12.36 1.63
3 11 5 13.18 1.46
-14 11 -5 11.63 1.57
-14 3 -5 16.82 1.79
-11 -3 5 16.3 1.86
11 3 5 17.5 1.73
-14 11 5 12.26 1.47
-14 3 -5 15.28 1.55
3 -14 5 14.88 1.74
14 -11 5 14.2 1.62
11 -14 -5 16.19 1.59
-3 -11 -5 15.12 1.71
-11 14 -5 17.94 1.78
-11 -3 5 14.41 1.7
14 -3 -5 16.06 1.81
14 -11 5 14.41 1.58
3 11 -5 16.2 1.75
12 -14 5 2.76 1.01
-12 -2 -5 1.82 0.78
-14 12 -5 1.77 0.66
14 -12 -5 1.84 0.72
14 -2 5 1.24 0.74
-14 12 -5 3.14 0.97
14 -12 -5 2.88 1.02
-14 2 5 1.47 0.77
2 12 5 2.01 0.54
-12 -2 -5 1.42 0.95
-14 2 5 2.13 0.98
-12 14 5 1.99 0.86
-2 14 -5 2.68 0.93
2 -14 -5 2.63 0.94
12 2 -5 3.39 0.97
-2 -12 5 2.59 1.02
2 12 5 1.3 0.59
-12 14 -5 1.23 0.67
2 12 -5 1.02 0.89
14 -12 5 0.87 0.76
-2 14 5 1.05 0.44
-14 2 -5 1.58 0.93
-12 14 -5 1.27 0.86
14 -2 -5 1.17 0.86
2 -14 5 0.21 0.49
-14 2 -5 1.43 0.78
14 -12 5 0.74 0.77
2 -14 5 1.54 0.89
-12 -2 5 0.66 0.66
-2 -12 -5 0.56 0.86
12 2 5 0.74 0.43
12 2 5 1.34 0.84
12 -14 -5 1.47 0.75
-14 12 5 0.83 0.7
-2 -12 -5 2.03 0.92
-12 -2 5 1.34 1.03
-14 1 5 6.56 1.28
-1 14 -5 5.69 1.1
14 -1 5 5.34 0.98
-1 -13 5 6.17 1.15
-14 13 -5 6.16 0.97
1 13 5 5.39 0.74
14 -13 -5 4.78 1.08
-14 1 5 3.92 0.88
-14 13 -5 5.26 1.07
13 1 -5 6.45 1.21
14 -1 5 4.05 0.67
-13 -1 -5 5.4 0.88
-13 14 5 4.65 0.99
-13 -1 -5 5.06 1.17
1 -14 -5 4.81 1
1 -14 -5 4.33 0.9
14 -13 -5 3.76 0.86
13 -14 5 5.81 1.11
-14 1 -5 9.43 1.68
14 -1 -5 8.1 1.28
14 -13 5 6.53 1.08
-13 -1 5 6.95 1.31
13 1 5 8.05 1.12
-14 1 -5 7.55 1.07
1 -14 5 8.09 1.39
-1 14 5 7.22 1.04
-13 14 -5 9.6 1.26
-14 13 5 5.84 0.98
-13 14 -5 6.34 0.98
-1 -13 -5 8.98 1.28
-14 13 5 5.75 0.97
1 -14 5 4.81 1
-1 -13 -5 9.27 1.42
13 1 5 7.56 1.05
13 -14 -5 7.44 1.04
1 13 -5 6.03 1.08
-14 14 -5 0.68 0.89
-14 14 5 0.23 0.83
-14 0 -5 0.46 1.01
0 14 5 0.69 0.57
14 0 -5 0.02 0.94
-14 14 -5 0.66 0.79
0 -14 -5 0.76 0.83
14 -14 5 0.36 0.82
-14 14 5 0.71 0.72
-14 0 -5 0.04 0.8
-14 0 5 0.26 0.74
-14 0 5 0.94 1.03
14 -14 -5 0.21 0.91
0 -14 5 0.31 0.79
14 0 5 0.42 0.82
0 -14 5 0.17 0.63
14 -14 5 -0.38 0.52
0 -14 -5 -0.15 0.78
14 0 5 0.43 0.58
14 -14 -5 0.33 0.72
0 14 5 0.25 0.42
0 14 -5 0.07 0.82
-7 -8 5 4.12 1.11
15 -7 5 2.06 0.81
7 8 5 2.16 0.83
-15 8 -5 0.77 0.66
7 8 5 1.28 0.47
8 -15 5 3.4 0.99
-7 15 -5 2.13 0.89
8 -15 5 1.65 0.62
-7 -8 5 0.74 0.73
15 -8 -5 2.83 1.01
-15 8 -5 2.07 0.88
-15 7 5 1.9 1
-7 15 -5 2.73 0.9
-8 -7 -5 1.89 0.9
7 -15 -5 2.05 0.86
8 7 -5 2.77 0.96
-8 15 -5 2.27 0.87
-8 -7 5 2.86 1.06
15 -7 -5 2.33 0.99
8 7 5 1.69 0.49
8 -15 -5 0.63 0.59
8 7 5 2.2 0.82
8 -15 -5 2.29 0.79
-15 8 5 2.18 1.06
7 -15 5 3.33 1.04
7 -15 5 0.5 0.54
-7 -8 -5 1.98 0.88
-8 15 -5 1.48 0.84
-15 7 -5 1.3 0.86
7 8 -5 2.27 0.9
15 -8 5 0.91 0.71
-15 8 5 0.48 0.47
-6 -9 5 -0.51 0.73
-9 15 5 0.23 0.46
6 9 5 0.24 0.46
15 -6 5 -0.11 0.71
-15 6 5 0.99 1.02
6 9 5 0.3 0.82
-15 6 5 -0.8 0.63
9 -15 5 -0.36 0.57
-6 15 -5 0.65 0.84
-6 15 -5 0.17 0.59
-9 -6 -5 0.11 0.5
15 -9 -5 -0.16 0.47
-9 15 5 -0.19 0.45
6 -15 -5 0.45 0.79
-6 -9 5 0.04 0.94
9 6 -5 -0.16 0.93
-15 9 -5 -0.5 0.66
9 -15 5 0.13 0.9
15 -9 -5 0.39 0.91
-15 9 -5 -0.31 0.8
-9 -6 -5 0.11 0.89
6 -15 5 0.43 0.9
9 6 5 -0.08 0.81
-9 15 -5 0.23 0.68
-6 15 5 -0.01 0.34
-9 -6 5 0.57 0.94
6 9 -5 0.21 0.76
-6 -9 -5 0.1 0.87
-15 6 -5 0.13 0.45
9 -15 -5 -0.12 0.62
-15 9 5 0.55 0.58
-9 15 -5 0.37 0.82
15 -6 -5 -0.54 0.9
-15 6 -5 0 0.77
15 -9 5 -0.28 0.73
-15 9 5 -0.07 0.92
6 -15 5 -0.49 0.51
-6 15 5 0.11 0.31
9 6 5 0.17 0.46
-15 5 5 3.16 1.06
-15 5 5 2.91 0.85
15 -10 -5 3.58 1.01
-5 15 -5 3.34 0.94
15 -5 5 2.71 0.84
-5 -10 5 3 0.94
5 -15 -5 3.61 0.97
-10 15 5 2.84 0.71
10 -15 5 2.18 0.64
5 10 5 4.7 0.96
-15 10 -5 3.68 1
-5 -10 5 6.23 1.27
10 5 -5 4.39 1.12
-10 -5 -5 3.01 0.94
-10 15 5 2.36 0.8
5 10 5 3.2 0.61
10 -15 5 4.14 1.05
-10 -5 -5 3.49 1.01
15 -10 5 3.16 0.86
-10 15 -5 6.04 1.09
-10 -5 5 2.97 0.95
5 -15 5 2.63 0.62
-5 15 5 3.75 0.59
5 10 -5 5.5 1.08
-15 10 5 5.35 0.87
-15 5 -5 5.84 1.12
5 -15 5 5.75 1.1
-15 10 5 3.17 1.05
10 5 5 5.63 0.72
10 5 5 5.09 0.96
15 -5 -5 6.24 1.16
10 -15 -5 5.73 0.95
-5 -10 -5 3.85 0.99
-15 5 -5 5.13 0.82
-15 4 5 12.56 1.76
-4 -11 5 12.23 1.7
4 -15 -5 9.99 1.44
-4 -11 5 8.08 1.54
15 -4 5 9.51 1.41
11 -15 5 10.71 1.6
4 11 5 10.6 1.44
-11 -4 -5 9.9 1.56
-11 -4 -5 9.16 1.55
4 11 5 10.44 1.2
-15 11 -5 10.13 1.52
4 11 5 9.03 1.12
11 -15 5 8.81 1.12
-11 15 5 9.35 1.58
15 -11 -5 12.02 1.64
-15 4 5 8.74 1.48
-4 15 -5 9.22 1.44
11 4 -5 11.91 1.69
-4 -11 -5 10.29 1.52
-15 11 5 8.97 1.36
4 11 -5 12.4 1.63
-4 15 5 10.37 1.17
11 -15 -5 11.06 1.4
4 -15 5 11.1 1.6
11 4 5 10.38 1.22
15 -4 -5 12.45 1.68
-15 4 -5 9.36 1.55
11 4 5 11.64 1.54
-11 15 -5 10.33 1.26
-11 -4 5 9.03 1.49
-15 4 -5 11.75 1.74
-11 15 -5 11.18 1.56
-3 15 -5 12.5 1.61
12 3 -5 12.94 1.71
15 -12 -5 9.74 1.32
-3 -12 5 9.95 1.58
15 -3 5 11.93 1.53
-15 12 -5 11.34 1.61
15 -3 5 10.74 1.17
3 12 5 10.89 1.37
-15 12 -5 10.53 1.43
3 -15 -5 12.5 1.58
3 12 5 11.28 1.24
12 -15 5 9.94 1.15
-15 3 5 10.27 1.51
15 -12 -5 12.77 1.74
-15 3 5 13.57 1.82
-12 -3 -5 11.79 1.65
12 -15 5 12.49 1.76
-12 15 5 11.12 1.62
-12 -3 -5 8.73 1.47
-3 -12 5 13.13 1.73
12 3 5 11.99 1.55
12 3 5 11.5 1.31
-15 3 -5 11.84 1.75
-15 3 -5 12.23 1.57
3 12 -5 10.57 1.59
-3 -12 -5 11.88 1.62
-15 12 5 10 1.46
-12 15 -5 10.73 1.55
15 -12 5 8.2 1.23
-3 -12 -5 9.81 1.53
3 -15 5 10.79 1.57
12 -15 -5 10.25 1.38
-12 -3 5 9.71 1.41
-3 15 5 10.44 1.22
15 -3 -5 11.32 1.67
-12 -3 5 11.46 1.63
-12 15 -5 11.06 1.4
-13 15 5 6.07 1.07
-2 -13 5 3.35 0.91
2 13 5 4.15 0.68
13 -15 5 4.46 0.69
-2 15 -5 6 1.14
13 2 -5 6.86 1.24
-2 -13 5 5.28 1.11
2 -15 -5 6.08 1.09
15 -2 5 6.72 1.08
15 -2 5 5.81 0.75
13 -15 5 5.01 1.1
15 -13 -5 4.19 0.86
-15 2 5 4.99 1.18
-15 2 5 6.67 0.97
15 -13 -5 4.97 1.12
-15 13 -5 5.55 0.95
-15 13 -5 6.51 1.18
-13 -2 -5 5.72 0.9
2 13 5 5.6 0.77
-13 -2 -5 4.86 1.19
-13 15 -5 8.67 1.28
13 2 5 7.3 1.14
13 2 5 8.58 1.18
-2 -13 -5 7.47 1.1
-15 2 -5 10.07 1.53
-2 15 5 8.05 1.13
-13 -2 5 7.76 1.39
-15 2 -5 10.88 1.71
-2 -13 -5 7.37 1.2
-2 -13 -5 9.53 1.53
2 13 -5 8.04 1.48
-15 13 5 10.86 1.2
-2 15 5 6 0.92
-13 15 -5 9.16 1.41
15 -2 -5 9.06 1.59
2 -15 5 8.63 1.5
-15 13 5 7.3 1.06
13 -15 -5 8.44 1.29
-14 -1 -5 7.25 1.01
14 -15 5 4.26 1.05
15 -1 5 5.47 0.99
-15 14 -5 5.29 1.04
-14 15 5 4.42 0.89
15 -1 5 7.56 0.86
14 1 -5 9.05 1.36
-1 15 -5 7.51 1.23
-15 1 5 6.64 1
14 -15 5 3.78 0.63
15 -14 -5 4.01 0.85
-1 -14 5 6.36 1.14
1 14 5 7.49 0.83
1 -15 -5 5.51 1.08
-14 -1 -5 6.95 1.33
-14 15 5 6.14 1.07
15 -14 -5 4.63 1.15
1 14 5 5.26 0.93
-15 1 5 5.68 1.19
-14 15 -5 8.2 1.08
14 1 5 7.12 0.86
-1 -14 -5 5.08 1.07
-15 1 -5 5.51 1.2
14 1 5 5.17 1
15 -1 -5 5.23 1.18
-15 1 -5 8.77 1.13
-14 -1 5 6.02 1.25
14 -15 -5 5.1 0.95
1 14 -5 6.81 1.18
-14 -1 5 4.02 0.88
14 -15 -5 8.17 1.37
-1 -14 -5 6.8 1.17
-14 15 -5 7.33 1.21
-1 15 5 5.3 0.9
-15 14 5 4.82 1.01
-1 15 5 6.92 0.82
-15 14 5 7.98 1.1
-15 0 5 12.62 1.58
0 -15 -5 14.84 1.76
15 -15 -5 10.93 1.46
0 15 -5 13.88 1.76
-15 0 5 13.7 1.9
15 0 5 14.07 1.67
0 15 5 13.95 1.38
-15 0 -5 15.06 1.66
-15 0 -5 13.96 1.86
-15 15 -5 12.26 1.71
15 0 5 14.28 1.41
0 15 5 11.2 1.28
15 -15 -5 15.02 1.92
-15 15 -5 13.28 1.62
-15 15 5 11.94 1.61
-15 15 5 11.36 1.66
15 0 -5 12.88 1.78
8 8 5 4.03 0.7
-16 8 5 4.56 0.76
-8 16 5 4.06 0.65
-8 16 -5 4.57 1
16 -8 -5 6.04 1.24
-8 -8 5 4.33 0.98
-8 -8 5 7.46 1.32
-8 16 -5 3.51 0.91
-8 16 5 2.87 0.72
-16 8 -5 3.04 0.89
8 -16 5 6.33 0.82
8 8 -5 3.96 1.05
8 -16 5 4.62 1.05
-16 8 5 2.29 0.75
-8 -8 -5 5.38 1.12
8 -16 -5 3.28 0.82
-16 8 5 3.33 1.06
16 -8 5 4.58 0.95
8 8 5 5.96 1.05
16 -9 -5 1.32 1
-9 16 5 0.54 0.6
7 9 5 1.3 0.86
-16 7 5 0.53 0.47
7 9 5 1.37 0.59
-9 -7 -5 0.96 0.91
-7 -9 5 1.66 1.03
16 -7 5 0.98 0.74
-16 9 -5 -0.09 0.56
-7 -9 5 1.21 0.84
-16 7 5 0.06 0.79
9 -16 5 0.91 0.65
-16 9 -5 0.37 0.69
7 9 5 0.23 0.3
7 -16 -5 0.67 0.8
-16 7 5 2.54 1.19
9 -16 5 0.94 0.93
-9 16 5 1.38 0.68
16 -7 5 0.61 0.42
9 7 -5 2.54 1.03
-7 16 -5 0.13 0.87
-7 16 -5 0.63 0.87
-16 9 5 0.18 0.94
7 9 -5 0.89 0.95
-9 -7 5 1.44 0.97
-9 -7 5 0.4 0.77
9 -16 -5 0.31 0.7
16 -9 5 -0.02 0.74
-7 16 5 0.8 0.57
9 7 5 0.2 0.82
7 -16 5 -0.09 0.86
16 -7 -5 0.9 1.01
-9 16 -5 0.45 0.73
-16 7 -5 0.54 0.81
-9 16 -5 0.6 0.82
7 -16 5 0.46 0.62
-16 9 5 0.92 0.7
-7 -9 -5 0.71 0.88
16 -9 5 -0.1 0.31
-7 16 5 0.41 0.54
9 7 5 1.23 0.61
-16 7 -5 0.19 0.46
-16 9 5 -0.84 0.65
-16 6 5 4.79 1.29
10 6 -5 2.86 1.05
-16 10 -5 3.01 0.98
-16 6 5 2.88 0.89
-10 16 5 2.48 0.78
6 10 5 3.72 0.95
10 -16 5 2.12 0.96
-6 -10 5 4.21 1.19
16 -6 5 2.05 0.54
6 -16 -5 1.73 0.87
-10 -6 -5 2.54 0.95
16 -10 -5 3.56 1.14
-6 -10 5 1.95 0.91
16 -6 5 2.47 0.84
10 -16 5 3.02 0.74
-6 16 -5 1.78 0.9
-10 16 5 2.56 0.92
6 10 5 1.67 0.54
6 10 5 2.59 0.66
6 -16 5 1.43 0.65
-16 6 -5 1.38 0.95
-16 6 -5 2.75 0.81
10 6 5 1.74 0.61
-10 16 -5 0.98 0.47
6 10 -5 2.42 1.03
10 -16 -5 1.96 0.8
-6 16 5 2.15 0.65
-6 16 5 1.8 0.65
6 -16 5 2.75 1.02
16 -6 -5 2.1 1.05
-16 10 5 2.3 1.07
-10 -6 5 1.85 0.92
-6 -10 -5 2.48 0.97
16 -10 5 1.33 0.79
10 6 5 2.47 0.87
-10 16 -5 1.66 0.86
-16 10 5 1.79 0.71
16 -5 5 3.3 0.91
-5 -11 5 4 1.12
16 -5 5 2.44 0.6
11 -16 5 3.87 0.75
-11 16 5 4.62 1.02
-11 -5 -5 2.5 0.94
5 11 5 2.56 0.68
-16 11 -5 4.32 1.08
-16 11 -5 2.38 0.63
11 -16 5 3.93 1.12
-16 5 5 4.09 0.94
16 -11 -5 4.59 1.12
-5 -11 5 5.18 1.08
11 5 -5 4.63 1.19
-16 5 5 3.48 1.1
5 11 5 5.1 1.03
5 -16 -5 2.88 0.93
-5 16 -5 3.33 0.96
5 11 5 4.03 0.72
5 -16 5 5.85 0.8
11 -16 -5 4.57 0.91
-16 5 -5 4.2 1.06
-11 16 -5 4.49 0.81
5 11 -5 7.8 1.28
-5 -11 -5 5.27 0.99
-16 5 -5 7.18 1.02
-5 -11 -5 6.47 1.13
16 -5 -5 7.26 1.32
-16 11 5 6.75 0.97
-11 16 -5 3.23 0.95
11 5 5 6.08 0.79
-5 -11 -5 5.44 1.07
-5 16 5 5.16 0.8
-5 16 5 4.73 0.77
-11 -5 5 3.59 0.96
11 5 5 5.08 0.96
16 -11 5 3.08 0.92
5 -16 5 4.4 1.06
16 -4 5 4.66 1
-16 12 -5 5.05 1.12
-4 -12 5 6.24 1.12
-4 16 -5 6.21 1.15
16 -12 -5 5.68 1.24
4 -16 -5 5.74 1.08
12 -16 5 3.98 1.12
4 12 5 5.4 0.76
4 12 5 5.84 1.03
12 -16 5 4.06 0.73
-12 16 5 4.29 1.05
-12 -4 -5 3.1 0.96
16 -4 5 3.5 0.69
12 4 -5 6.08 1.29
-4 -12 5 5.37 1.19
-16 12 -5 4.57 0.9
-16 4 5 3.6 1.17
4 12 5 3.2 0.75
-12 -4 -5 3.25 0.91
-16 4 5 5.45 1
-12 16 -5 2.73 0.81
4 -16 5 2.62 0.66
-16 4 -5 3.68 1.19
-4 16 5 3.51 0.71
4 -16 5 2.32 0.91
12 -16 -5 3.09 0.86
-16 12 5 4.55 0.9
-4 16 5 2.33 0.64
-12 16 -5 3.1 1
4 12 -5 4.18 1.13
-4 -12 -5 3.95 1.04
12 4 5 3.41 0.65
-4 -12 -5 4.81 1.11
12 4 5 2.87 0.92
-16 4 -5 3.87 0.91
16 -12 5 1.2 0.84
16 -4 -5 2.32 1
-12 -4 5 1.82 0.78
-4 -12 -5 3.98 1
13 -16 5 15.19 1.87
16 -3 5 15.65 1.46
-16 3 5 16.1 1.75
3 13 5 16.94 1.5
-3 16 -5 15.8 1.79
-3 -13 5 14.11 1.84
-13 -3 -5 15.24 1.59
-16 3 5 16.67 2.02
3 13 5 13.08 1.4
3 -16 -5 15.98 1.81
-3 -13 5 18.83 1.94
-13 -3 -5 14.66 1.88
-16 13 -5 14.94 1.72
13 -16 5 14.7 1.45
-16 13 -5 15.28 1.85
-13 16 5 16.7 1.83
16 -3 5 16.09 1.82
13 3 -5 16.73 1.98
-13 16 -5 16.32 1.91
-16 3 -5 18.16 1.84
-16 13 5 15.9 1.73
3 13 -5 15.99 1.85
-3 16 5 13.6 1.49
-13 16 -5 17.55 1.78
13 3 5 17.8 1.59
3 -16 5 13.56 1.46
13 -16 -5 15.83 1.7
13 3 5 17.65 1.83
-16 3 -5 19.03 2.07
16 -3 -5 16.37 1.98
-3 16 5 17.28 1.54
-3 -13 -5 16.07 1.78
-3 -13 -5 15.84 1.95
-3 -13 -5 17.43 1.93
3 -16 5 14.08 1.78
-14 -2 -5 6.84 1.25
-2 -14 5 5.41 1.13
16 -2 5 8.31 1.19
2 14 5 7.2 0.85
14 -16 5 7.05 1.22
2 14 5 6.12 0.86
14 -16 5 5.84 0.8
14 2 -5 6.85 1.27
2 -16 -5 6.11 1.13
16 -14 -5 5.93 1.24
-2 16 -5 7.8 1.24
-2 -14 5 6.14 1.09
-14 16 5 8.13 1.17
-16 14 -5 7.74 1.29
16 -2 5 6.02 0.85
-14 -2 -5 6.76 1.02
-14 16 5 5.7 0.97
-16 2 5 8.09 1.33
-16 2 5 7.09 1.36
-16 14 -5 6.79 1.03
-2 16 5 3.95 0.74
2 14 -5 4.26 1.04
-16 14 5 4.19 0.9
-2 16 5 5.67 0.77
16 -2 -5 2.24 1.05
-16 2 -5 5.23 0.98
-14 -2 5 2.6 0.74
14 -16 -5 3.24 0.83
-2 -14 -5 4.57 1.03
2 -16 5 3.85 0.89
14 2 5 4.05 0.74
-16 14 5 2.54 0.75
-14 16 -5 3.69 1.03
-2 -14 -5 4.29 0.99
-16 14 5 3.49 0.9
14 -16 -5 4.78 1.19
-2 -14 -5 3.62 1.02
14 2 5 4.39 1.02
-14 -2 5 2.44 0.86
-16 2 -5 5.65 1.28
2 -16 5 2.57 0.63
-14 16 -5 4.38 0.88
15 1 -5 4.19 1.15
1 -16 -5 4.08 1.05
-15 -1 -5 5.09 0.92
16 -1 5 6.5 0.78
-1 -15 5 3.57 0.94
-16 1 5 4.44 1.16
-16 15 -5 4.9 1.09
16 -15 -5 3.54 1.11
1 15 5 5.57 0.76
16 -15 -5 3.82 0.69
16 -1 5 3.84 0.98
15 -16 5 3.59 0.63
-16 15 -5 4.41 0.89
-15 -1 -5 3.94 1.11
-15 16 5 5.12 1.04
-16 1 5 5.46 0.92
-1 16 -5 3.49 1.02
-15 16 5 3.75 0.91
1 15 5 3.96 0.74
-16 1 -5 6.04 0.98
15 1 5 7.02 1.13
16 -1 -5 5.25 1.17
-16 15 5 7.48 1.05
-1 16 5 3.82 0.74
-16 15 5 2.84 0.73
15 -16 -5 4.3 1.15
15 -16 -5 2.35 0.74
-1 -15 -5 8.12 1.26
-1 16 5 7.1 0.81
-15 -1 5 5.14 0.88
-15 -1 5 3.78 1
-1 -15 -5 4.47 0.91
-15 16 -5 7.55 1.03
15 1 5 4.93 0.78
-15 16 -5 4.69 1.05
-16 15 5 4.31 0.96
-16 1 -5 5.32 1.23
1 15 -5 7.21 1.23
-16 0 5 4.02 1.02
0 -16 -5 4.96 1.08
0 16 -5 3.58 1.02
-16 16 5 4.29 0.95
-16 16 5 3.59 0.9
-16 0 5 3.51 0.83
0 16 5 5.42 0.75
-16 0 -5 3.61 0.85
0 16 5 4.44 0.76
-16 0 -5 4.89 1.17
-16 16 -5 3.93 1.04
16 -16 -5 3.74 0.73
-16 16 -5 7 0.93
16 0 5 3.67 0.95
16 -16 -5 4.79 1.23
16 0 -5 3.41 0.99
16 0 5 6.86 0.83
-8 -9 5 3.16 0.98
-9 -8 -5 3.86 1
9 -17 5 4.38 1.15
-9 -8 -5 3.1 1.07
17 -8 5 1.63 0.79
8 -17 -5 2.07 0.77
-17 8 5 3.45 1.18
-8 17 -5 2.16 0.89
8 9 5 3.29 0.68
17 -9 -5 2.54 1.09
-8 -9 5 5.15 1.23
-9 17 5 2.66 0.75
9 -17 5 3.08 0.72
17 -8 5 2.39 0.62
-9 17 5 2.75 0.79
-17 8 5 2.99 0.92
9 8 -5 2.84 1.09
-17 8 5 2.61 0.77
8 9 5 3.37 1.02
17 -9 5 1.88 0.83
8 9 -5 3.87 1.16
-8 -9 -5 5.3 1.15
9 8 5 4.34 0.71
-17 8 -5 2.05 0.93
8 -17 5 5.07 1.13
-17 9 5 4.27 0.81
-8 -9 -5 4.5 1.02
9 8 5 1.92 0.88
-9 -8 5 3.46 1.08
17 -9 5 3.33 0.65
-17 9 5 1.56 0.82
8 -17 5 2.8 0.71
-8 17 5 3.26 0.77
-17 8 -5 2.06 0.64
-17 9 5 3.41 1.21
9 -17 -5 3.62 0.88
-9 -8 5 2.87 0.94
17 -8 -5 4.11 1.23
-17 7 5 1.77 1.2
7 10 5 1.49 0.93
10 7 -5 1.18 0.96
-7 17 -5 1.87 0.91
17 -7 5 0.73 0.56
7 -17 -5 0.08 0.72
10 -17 5 1.77 0.97
-10 -7 -5 1.17 0.93
7 10 5 0.84 0.56
-7 -10 5 1.3 0.9
-10 17 5 1.42 0.83
10 -17 5 1.25 0.67
-17 7 5 1.59 0.61
7 10 5 0.48 0.61
-7 -10 5 1.8 1.1
7 -17 -5 1.68 0.81
-17 7 5 0.69 0.86
-10 -7 -5 1.07 0.86
17 -10 -5 1.16 1.07
17 -7 5 0.93 0.82
-17 10 5 1.22 0.71
10 7 5 1.33 0.89
-10 -7 5 1.59 0.93
7 -17 5 1.48 0.64
-17 7 -5 0.35 0.82
-7 -10 -5 1.19 0.88
-7 17 5 1.36 0.61
-10 17 -5 0.84 0.49
-10 17 -5 0.73 0.79
10 -17 -5 1.74 0.81
-7 -10 -5 2.06 0.92
17 -7 -5 1.74 1.07
7 10 -5 1.7 0.98
10 7 5 1.62 0.64
-17 7 -5 0.71 0.71
-10 -7 5 1.13 0.82
17 -10 5 0.14 0.78
-7 17 5 1.49 0.7
7 -17 5 2.29 1.02
-17 10 5 0.98 0.95
17 -10 5 0.84 0.55
6 11 5 6.08 1.06
11 -17 5 5.33 0.78
-17 11 -5 2.74 0.67
-17 11 -5 3.06 0.87
17 -11 -5 7.06 1.36
-11 -6 -5 4.36 1.05
-17 6 5 6.74 1.03
-6 17 -5 4.81 1.07
6 -17 -5 3.99 0.97
6 11 5 4.72 0.76
17 -6 5 5.44 0.71
-11 17 5 6.21 1.09
11 -17 5 7.32 1.33
-11 -6 -5 3.38 0.95
6 11 5 3.76 0.77
-6 -11 5 6.23 1.25
-17 6 5 6.64 1.37
11 6 -5 4.5 1.13
17 -6 5 2.26 0.85
-6 17 5 5.76 0.79
17 -6 -5 5.47 1.26
-6 17 5 3.73 0.75
6 -17 5 5.85 1.16
-11 17 -5 2.85 0.94
-17 6 -5 5.01 0.92
-17 11 5 4.66 0.83
-11 17 -5 4.14 0.84
6 11 -5 3.07 1.05
-6 -11 -5 5.05 1.04
-17 6 -5 4.4 1.14
17 -11 5 4.22 0.7
11 6 5 5.45 1.06
-6 -11 -5 5.16 1.04
6 -17 5 4.38 0.75
11 6 5 4.43 0.76
17 -11 5 1.83 0.85
11 -17 -5 4.34 0.92
-6 -11 -5 6.25 1.14
-11 -6 5 4.3 1.03
-5 -12 5 1.07 0.9
-17 12 -5 0.21 0.86
-17 5 5 0.27 0.78
17 -5 5 0.65 0.59
5 -17 -5 1.35 0.84
12 -17 5 0.2 0.59
5 12 5 0.44 0.84
-5 17 -5 0.05 0.89
-12 -5 -5 0.19 0.72
-17 12 -5 0.9 0.76
17 -12 -5 0.95 1.07
12 5 -5 0.12 1
-5 -12 5 1.41 1.08
5 12 5 0.61 0.6
-12 -5 -5 0.25 0.67
12 -17 5 1.41 1.05
-17 5 5 1.05 1.07
-12 17 5 1.86 0.94
17 -5 5 0.59 0.81
-5 17 5 0.58 0.66
5 -17 5 2.23 0.99
17 -5 -5 1.31 1.03
-5 -12 -5 1.57 0.91
-12 17 -5 2.16 0.76
12 5 5 1.64 0.64
5 12 -5 0.96 0.94
-5 -12 -5 1.56 0.87
-12 -5 5 0.64 0.68
-17 5 -5 2.23 0.83
-17 5 -5 1.18 0.95
12 5 5 1.42 0.9
-5 -12 -5 1.71 0.9
17 -12 5 0.72 0.73
17 -12 5 0.89 0.56
-5 17 5 1.69 0.65
-17 12 5 1.45 0.72
-12 17 -5 1.59 0.92
5 -17 5 1.47 0.63
12 -17 -5 1.3 0.75
4 13 5 0.88 0.59
4 13 5 1.14 0.62
-13 17 5 1.74 0.91
-17 4 5 2.21 1.11
-17 13 -5 1.17 0.77
17 -4 5 0.76 0.87
-13 -4 -5 0.22 0.52
-4 17 -5 1.25 0.89
4 -17 -5 0.47 0.83
13 -17 5 1.23 0.99
17 -4 5 0.95 0.6
13 -17 5 1.03 0.6
17 -13 -5 1.16 1
13 4 -5 1.13 1.04
-17 4 5 1.24 0.79
-17 13 -5 1.26 0.96
-4 -13 5 1.53 0.98
-4 -13 5 1.5 0.87
4 -17 5 2.53 0.64
-4 -13 -5 3.58 0.97
-4 17 5 1.36 0.68
-4 -13 -5 1.22 0.93
13 -17 -5 2.29 0.81
17 -13 5 2.18 0.61
4 -17 5 2.63 0.96
4 13 -5 2.27 0.97
-17 13 5 2.06 0.75
-17 4 -5 3.87 0.89
-13 17 -5 1.97 0.98
17 -4 -5 1.49 1
-4 17 5 3.18 0.7
-17 4 -5 3.38 1.15
13 4 5 2.28 0.66
-4 -13 -5 1.66 0.86
13 4 5 1.53 0.84
-13 17 -5 2.95 0.85
14 3 -5 5.29 1.2
-3 -14 5 8.36 1.47
-3 -14 5 5.45 1.04
-17 14 -5 6.34 1.2
3 14 5 8.27 0.86
-14 -3 -5 4.98 0.9
-14 17 5 8.06 1.16
17 -14 -5 4.67 1.17
-17 3 5 5.28 1.24
3 14 5 4.85 0.79
14 -17 5 6.53 0.81
-17 14 -5 4.73 0.9
14 -17 5 3.23 0.92
17 -3 5 5.98 0.82
-3 17 -5 5.04 1.1
-17 3 5 7.61 1.02
3 -17 -5 6 1.07
17 -3 5 6.57 1.1
14 3 5 7.63 1.14
3 14 -5 4.45 1.09
17 -3 -5 6.8 1.24
-3 -14 -5 7.96 1.45
-3 17 5 7.58 1.16
3 -17 5 7.25 1.07
-17 14 5 5.66 0.97
-3 17 5 8.41 1.17
-3 -14 -5 6.83 1.18
-3 -14 -5 4.6 1
-17 3 -5 8.69 1.37
14 3 5 7.88 1.06
17 -14 5 6.02 0.82
-17 3 -5 9.02 1.41
-14 17 -5 9.18 1.39
-14 17 -5 5.19 1.11
-17 14 5 8.24 1.25
15 2 -5 3.56 0.99
-17 2 5 2.82 1.12
-17 2 5 5.04 0.86
-15 -2 -5 4.22 0.87
17 -15 -5 2.16 0.66
-17 15 -5 3.99 0.85
17 -2 5 4.12 0.72
2 -17 -5 3.37 0.98
-15 17 5 4.32 0.9
-15 17 5 3.75 0.98
-17 15 -5 2.63 1.03
-2 -15 5 3.18 0.95
2 15 5 4.35 0.71
17 -15 -5 3.62 1.11
15 -17 5 3.48 0.7
17 -2 5 3.25 0.97
-2 17 -5 2.36 0.98
2 15 5 3.12 0.72
2 -17 5 2.26 0.62
-2 17 5 3.35 0.69
15 2 5 1.63 0.88
17 -15 5 1.27 0.58
-2 -15 -5 3.53 1.06
-15 17 -5 4.47 0.89
-15 -2 5 2.57 0.78
-17 15 5 2.09 0.77
-17 15 5 2.03 0.82
-17 2 -5 4.68 0.9
15 -17 -5 2.34 1.03
-17 2 -5 1.69 0.99
17 -2 -5 1.23 0.86
-2 -15 -5 2.89 0.88
-17 15 5 3.37 0.81
-2 17 5 2.36 0.7
2 15 -5 2.39 0.96
15 2 5 3.56 0.71
-15 17 -5 2.21 1.02
1 16 5 15.53 1.44
-17 16 -5 15.72 1.6
-17 1 5 15.36 1.64
17 -16 -5 16.16 1.45
17 -1 5 11.63 1.64
17 -1 5 16.33 1.46
1 -17 -5 14.65 1.77
-16 17 5 16.93 1.73
-16 -1 -5 15.79 1.6
-17 16 -5 14.81 1.76
16 -17 5 12.65 1.3
-1 17 -5 14.87 1.74
-16 17 5 15.5 1.65
17 -16 -5 15.09 1.93
-1 -16 5 13.77 1.69
1 16 5 13.39 1.41
-16 17 -5 9.53 1.38
-16 17 -5 8.67 1.52
16 1 5 8.78 1.41
-16 -1 5 8.79 1.39
-1 17 5 10.45 1.18
-17 1 -5 10.18 1.36
-1 -16 -5 8.95 1.55
-17 1 -5 8.49 1.6
16 1 5 10.87 1.23
-17 16 5 8.42 1.43
17 -16 5 6.31 1.04
1 16 -5 9.22 1.54
16 -17 -5 9.19 1.64
-1 -16 -5 8.45 1.51
-17 16 5 6.95 1.07
-1 17 5 8.15 1.17
-17 16 5 11.01 1.39
-17 17 -5 18.37 1.71
-17 0 -5 18.52 1.76
-17 17 5 17.08 1.71
0 17 5 17.71 1.54
0 17 5 13.73 1.51
-17 0 5 17.42 1.71
17 -17 -5 16.85 1.54
-17 17 5 16.47 1.73
17 0 5 19.94 1.58
-9 -9 5 2.3 0.88
-18 9 5 1.68 0.84
9 -18 -5 1.92 0.83
-9 18 5 2.94 0.78
-18 9 -5 0.9 0.56
18 -9 -5 1.95 1.13
18 -9 5 0.78 0.78
18 -9 5 2.01 0.62
-9 -9 -5 2.38 0.9
9 -18 5 2.68 0.67
9 -18 5 2.32 0.95
9 9 5 3.02 0.94
-18 9 5 2.19 0.99
-9 -9 -5 2.38 0.93
9 9 -5 1.05 0.94
-18 9 5 2.69 0.76
-9 -9 5 4.21 1.09
9 9 5 3.03 0.66
-9 18 5 1.62 0.68
-8 18 -5 -0.1 0.6
8 10 5 1.32 0.87
-10 18 5 1.45 0.77
8 10 5 1.1 0.57
18 -8 5 0.45 0.76
-18 8 5 1.12 0.84
18 -10 -5 0.95 1.04
18 -8 5 1.32 0.58
10 8 -5 1.42 0.96
10 -18 5 1.3 0.62
-10 -8 -5 2.52 0.93
-8 -10 5 2.08 1.01
10 -18 5 2.42 0.96
-10 -8 -5 1.76 0.91
8 10 5 2.47 0.64
-18 8 5 1.18 0.66
-8 -10 5 2.73 0.94
-18 8 5 1.1 1.08
8 -18 -5 2.18 0.81
8 -18 5 2.18 0.66
8 10 -5 2.28 1.03
10 8 5 2.3 0.63
10 8 5 1.96 0.86
-10 -8 5 2.39 0.89
-10 -8 5 2.07 0.94
-8 18 5 2.44 0.74
-18 8 -5 0.73 0.63
10 -18 -5 2.04 0.82
-18 10 5 1.38 0.77
8 -18 5 2.65 0.99
-18 10 5 0.1 0.83
-18 10 5 1.08 0.73
18 -8 -5 2.28 1.07
18 -10 5 1.23 0.76
-8 -10 -5 2.42 0.9
18 -10 5 2.1 0.64
-18 8 -5 0.47 0.7
-8 -10 -5 2.46 0.97
11 -18 5 5.19 1.22
-11 18 5 5.43 1.01
18 -7 5 2.7 0.91
-7 18 -5 4.43 0.91
-18 7 5 7.06 1.07
11 -18 5 5.86 0.8
-7 -11 5 5.37 1.16
18 -11 -5 4.62 1.22
-11 -7 -5 4.76 1
-11 -7 -5 3.7 0.99
18 -7 5 5.28 0.72
7 11 5 6.19 0.8
-7 -11 5 6.87 1.09
7 11 5 5.34 1.08
-18 7 5 5.14 1.28
11 7 -5 4.85 1.13
7 -18 -5 5.1 0.91
-18 7 5 3.43 0.69
11 7 5 6.86 0.81
18 -7 -5 6.76 1.35
-11 18 -5 4.12 0.81
-18 7 -5 3.56 1.01
-7 18 5 4.37 0.81
-7 18 5 6.18 0.76
-18 11 5 6.85 0.9
7 -18 5 5.53 1.11
7 -18 5 7.15 0.82
-11 -7 5 3.35 0.89
11 7 5 4.35 0.98
11 -18 -5 2.56 0.83
7 11 -5 4.55 1.14
-11 -7 5 4.1 0.97
-7 -11 -5 4.59 1.02
-18 7 -5 5.39 0.86
18 -11 5 4.85 0.73
-12 -6 -5 1.9 0.83
-6 18 -5 1.65 0.84
-18 12 -5 1.42 0.74
12 6 -5 1.92 1.04
-18 6 5 1.19 1.04
18 -6 5 0.47 0.84
18 -6 5 2.01 0.61
6 -18 -5 0.47 0.63
12 -18 5 1.57 1.06
-12 18 5 2.42 0.98
-18 6 5 1.67 0.8
6 12 5 1.51 0.9
6 12 5 1.1 0.61
-6 -12 5 2.97 1.09
-6 -12 5 2.85 0.92
12 -18 5 1.29 0.61
18 -12 -5 0.87 1.04
18 -6 -5 0.98 0.97
-12 -6 5 0.2 0.64
6 -18 5 2.39 1
-18 6 -5 1.9 0.76
-18 6 -5 1.58 1.02
-6 18 5 1.28 0.68
-12 18 -5 1.65 0.73
18 -12 5 -0.36 0.62
6 12 -5 1.87 1
-6 -12 -5 1.31 0.91
18 -12 5 1.09 0.61
12 -18 -5 1.19 0.72
12 6 5 0.97 0.82
-6 18 5 2.2 0.61
-12 18 -5 0.32 0.66
6 -18 5 1.2 0.6
12 6 5 1.31 0.61
-6 -12 -5 0.47 0.63
-12 -6 5 0.62 0.77
-6 -12 -5 1.63 0.82
-18 12 5 0.87 0.67
-18 5 5 3.74 1.14
18 -5 5 4.56 1
13 -18 5 4.64 1.09
18 -13 -5 7.54 1.39
13 5 -5 4.22 1.05
-13 -5 -5 4.36 0.93
-5 -13 5 7.33 1.14
5 13 5 6.93 0.8
13 -18 5 7.33 0.83
5 -18 -5 5.33 1.01
-5 -13 5 8.94 1.56
-18 13 -5 7.49 0.97
-5 18 -5 5.17 1.02
5 13 5 4.39 0.77
18 -5 5 5.64 0.78
-5 -13 -5 3.15 0.82
18 -5 -5 4.55 1.08
18 -13 5 6.21 0.83
-18 5 -5 5.57 1.16
-13 -5 5 3.82 0.86
-5 -13 -5 7.25 1.36
-5 18 5 6.28 1.08
5 13 -5 6.17 1.12
13 5 5 7.49 1.12
13 5 5 8.32 1.11
5 -18 5 7.52 1.02
-18 5 -5 8.69 1.25
-13 18 -5 3.62 0.87
-5 18 5 7.26 0.79
-5 -13 -5 4.88 0.99
-13 18 -5 5.88 0.9
5 -18 5 4.58 0.98
13 -18 -5 4.16 0.77
-18 4 5 12.71 1.54
18 -4 5 13.45 1.32
18 -4 5 10.13 1.52
-18 14 -5 12.46 1.44
18 -14 -5 11.06 1.21
4 14 5 11.73 1.27
-18 4 5 13.12 1.81
-14 18 5 15.56 1.74
-4 18 -5 10.83 1.53
18 -14 -5 13.21 1.91
4 -18 -5 10.26 1.48
-4 -14 5 10.38 1.5
-4 -14 5 12.87 1.74
-14 -4 -5 11.09 1.33
4 14 5 12.58 1.31
14 -18 5 12.32 1.29
-18 4 -5 7.07 1.32
-18 4 -5 9.91 1.35
-4 18 5 7.76 1.13
4 -18 5 7.97 1.1
-18 14 5 9.24 1.24
14 4 5 9.05 1.14
-14 18 -5 10.46 1.43
-4 -14 -5 9.51 1.44
14 4 5 9.01 1.42
-18 14 5 7.15 1.14
18 -14 5 8.08 1.2
4 14 -5 9.11 1.56
-4 18 5 8.66 1.17
-14 18 -5 5.95 1.09
-18 3 5 19.31 1.77
18 -15 -5 18.38 1.58
3 15 5 14.97 1.54
-15 18 5 22.05 1.95
3 -18 -5 13.54 1.69
18 -15 -5 17.45 2.03
18 -3 5 20.95 1.61
-15 -3 -5 17.43 1.69
15 -18 5 16.8 1.54
-15 18 5 18.32 1.66
-3 -15 5 18.45 2.01
-18 3 5 15.17 1.89
-18 15 -5 16.96 1.68
3 15 5 19.08 1.59
-18 15 5 12.49 1.56
-18 3 -5 12.38 1.79
3 15 -5 15.67 1.73
-3 -15 -5 15.76 1.79
3 -18 5 14.98 1.4
-18 15 5 13.31 1.61
-18 15 5 17.22 1.53
-18 3 -5 17.79 1.68
18 -15 5 14.94 1.45
-3 18 5 13.51 1.44
15 3 5 12.93 1.56
15 -18 -5 12.57 1.73
15 3 5 16.4 1.44
-15 18 -5 16.83 1.63
-3 18 5 15.6 1.45
-16 -2 -5 2.98 0.77
2 16 5 1.69 0.61
-18 2 5 3.3 0.8
-16 18 5 2.56 0.81
16 -18 5 1.49 0.58
-18 2 5 0.1 0.94
-18 16 -5 3.15 0.78
18 -16 -5 2.2 0.64
-16 18 5 4.11 0.97
18 -2 5 2.88 0.69
-2 -16 5 2.37 0.87
2 16 5 3.6 0.67
-16 -2 5 1.89 0.7
-18 16 5 2.41 0.74
18 -16 5 1.53 0.66
16 2 5 2 0.63
-16 18 -5 2.72 0.75
-2 18 5 3.52 0.65
-18 2 -5 2.72 0.8
-18 16 5 2.63 0.82
2 -18 5 2.14 0.59
-18 16 5 1.82 0.73
-2 18 5 1.36 0.6
-2 -16 -5 2.48 0.85
1 17 5 0.74 0.5
18 -17 -5 0.71 0.61
18 -1 5 1.27 0.61
-18 1 5 1.26 0.67
-18 17 -5 1.59 0.67
1 17 5 1.73 0.56
-17 18 5 0.88 0.75
-17 -1 -5 1.25 0.74
-1 -17 5 1.08 0.73
-17 18 5 1.7 0.77
-1 18 5 1.03 0.58
-17 -1 5 1.71 0.68
-18 17 5 1.98 0.75
18 -17 5 0.61 0.53
17 1 5 1.2 0.56
-18 17 5 0.99 0.75
-17 18 -5 1.56 0.69
-1 -17 -5 0.58 0.68
-18 17 5 -0.08 0.45
17 -18 -5 0.5 0.57
-1 18 5 0.4 0.46
1 -18 5 -0.25 0.42
-18 1 -5 0.93 0.71
18 -18 -5 6.06 0.79
-18 18 5 5.08 0.92
18 0 5 7.03 1.04
-18 18 -5 9.04 0.99
-18 18 5 4.77 0.85
-18 0 -5 7.01 0.94
-18 0 5 7.87 1.16
0 18 5 7.8 1
-9 -10 5 1.27 0.85
10 -19 5 1.03 0.57
-10 19 5 0.4 0.7
9 -19 -5 0.56 0.61
10 -19 5 0.93 0.84
19 -10 -5 0.56 0.85
9 10 5 0.54 0.81
9 10 5 0.51 0.57
-10 -9 -5 0.21 0.75
-19 9 5 0.54 0.66
19 -9 5 -0.44 0.54
-19 10 -5 -0.79 0.45
19 -9 5 0.51 0.56
10 9 -5 0.59 0.8
-10 -9 -5 1.18 0.85
-19 9 5 0.32 0.76
-9 -10 5 0.66 0.87
19 -10 5 0.33 0.57
19 -10 5 -0.38 0.75
-9 -10 -5 1.15 0.82
9 10 -5 0.46 0.84
-19 10 5 -0.14 0.73
-19 9 -5 0.09 0.62
9 -19 5 1.22 0.82
19 -9 -5 0.8 0.84
10 -19 -5 0.77 0.59
-9 19 5 0.04 0.53
-10 -9 5 1.01 0.82
-10 -9 5 1.06 0.83
10 9 5 0.76 0.58
-9 -10 -5 0.52 0.79
9 -19 5 0.25 0.54
10 9 5 0.29 0.82
-19 10 5 -0.19 0.68
-11 -8 -5 7.27 1.07
-8 -11 5 9.54 1.54
19 -8 5 5.27 0.76
8 -19 -5 3.92 0.83
-11 19 5 6.45 1
8 11 5 7.2 1.07
11 -19 5 6.31 1.13
-8 -11 5 8.9 1.47
11 -19 5 5.4 0.76
-19 8 5 6.76 0.86
8 11 5 5.21 0.96
-19 8 5 7.72 1.05
19 -11 -5 5.59 1.16
-8 19 5 4.5 0.84
8 11 -5 3.59 0.98
-11 19 -5 4.56 0.77
8 -19 5 7.52 0.8
-8 -11 -5 5.52 1.04
11 8 5 6.59 0.78
11 8 5 5.29 1.01
-8 -11 -5 5.92 0.99
-19 8 -5 4.5 0.8
8 -19 5 5.98 1.09
-19 11 5 6.71 0.91
19 -11 5 6.32 0.77
-19 11 5 3.72 0.85
-11 -8 5 4.17 0.92
7 12 5 4.46 0.96
-7 -12 5 4.73 1.08
19 -12 -5 4.33 1.07
7 -19 -5 2.91 0.73
-12 19 5 6.26 1.04
-19 7 5 3.4 1.05
-19 7 5 5.18 0.96
19 -7 5 6.67 0.79
12 -19 5 6.51 0.78
-19 12 -5 4.6 0.84
-12 -7 -5 4.73 0.96
7 12 5 7.15 0.79
7 -19 5 4.1 0.69
7 -19 5 3.57 0.88
-7 19 5 4.79 0.7
-7 -12 -5 2.12 0.83
-7 -12 -5 5.75 0.99
-19 12 5 3.16 0.75
7 12 -5 3.41 0.95
-19 7 -5 4 0.79
12 7 5 2.96 0.89
-12 19 -5 3.81 0.84
19 -12 5 2.71 0.66
-12 -7 5 3.52 0.88
-7 19 5 4.11 0.78
12 7 5 4.03 0.69
13 -19 5 0.34 1.15
19 -13 -5 -0.07 0.31
-13 -6 -5 0.51 0.76
6 13 5 0.84 0.6
19 -13 -5 0.4 0.77
6 -19 -5 0.62 0.55
-6 -13 5 1.67 0.9
-6 -13 5 0.85 0.74
6 13 5 0.48 0.57
-19 6 5 -0.1 0.76
19 -6 5 -0.63 0.55
13 -19 5 0.65 0.59
-19 6 5 0.69 0.76
-13 19 5 1.42 0.88
-19 13 -5 0.49 0.75
19 -6 5 0.27 0.58
13 6 5 1.87 0.6
-19 6 -5 2.08 0.76
-19 13 5 1.17 0.65
6 -19 5 0.37 0.57
-6 19 5 1.12 0.56
-6 -13 -5 2.14 0.85
6 13 -5 0.86 0.68
-6 19 5 1.1 0.64
13 6 5 0.47 0.64
-6 -13 -5 0.42 0.62
-13 19 -5 0.94 0.69
-13 -6 5 1.21 0.75
19 -13 5 0.89 0.6
6 -19 5 1.24 0.59
-19 5 5 2.51 0.78
5 14 5 1.23 0.62
19 -5 5 2.86 0.69
19 -14 -5 0.27 0.67
19 -14 -5 1 0.53
-14 -5 -5 -0.31 0.64
-19 5 5 0.64 0.67
19 -5 5 -0.38 0.9
14 -19 5 1.12 0.58
-5 -14 5 3.2 0.97
-14 19 5 1.68 0.91
-19 14 -5 1.83 0.77
5 14 5 2.13 0.6
-19 5 -5 -0.34 0.59
-19 5 -5 2.12 0.74
5 14 -5 0.54 0.57
5 -19 5 1.69 0.56
19 -14 5 0.81 0.62
14 5 5 1.46 0.58
-19 14 5 0.87 0.66
-14 19 -5 1.23 0.68
14 5 5 -0.44 0.52
-5 19 5 1.06 0.62
-5 19 5 2 0.57
-5 -14 -5 1.14 0.8
19 -15 -5 0.92 0.6
19 -4 5 1.21 0.6
-15 -4 -5 0.49 0.64
15 -19 5 1.28 0.59
-4 -15 5 1.3 0.88
-15 19 5 1.59 0.86
-19 4 5 0.07 0.8
4 15 5 0.8 0.55
-19 4 5 2.75 0.75
4 15 5 0.9 0.57
-19 15 -5 0.67 0.75
-19 15 5 0.97 0.62
19 -15 5 0.83 0.6
-4 19 5 0.48 0.51
4 15 -5 0.08 0.79
15 4 5 1.56 0.59
-19 15 5 1.16 0.63
-4 19 5 1.84 0.57
-19 4 -5 2.37 0.73
-19 15 5 0.7 0.76
-4 -15 -5 1.12 0.77
-19 4 -5 -0.29 0.95
4 -19 5 1.48 0.57
-15 19 -5 2.17 0.72
-16 19 5 13.09 1.42
19 -3 5 13.66 1.4
-16 -3 -5 13.34 1.49
3 16 5 14.59 1.37
19 -16 -5 15.64 1.42
-3 -16 5 15.18 1.75
-16 19 5 16.16 1.66
-19 3 5 15.68 1.61
-19 16 -5 14.71 1.51
16 -19 5 13.92 1.34
16 3 5 9.9 1.13
-16 19 -5 10.06 1.27
-3 -16 -5 8.84 1.43
-3 19 5 10.14 1.13
-19 16 5 9 1.3
3 -19 5 8.67 1.08
-19 3 -5 11.08 1.39
19 -16 5 7.83 1.17
-19 16 5 9.86 1.24
-19 16 5 8.11 1.28
-17 19 5 6.88 1.01
-19 2 5 8.28 1.19
-17 19 5 6.98 0.96
-17 -2 -5 5.77 0.86
19 -17 -5 4.77 0.74
19 -2 5 5.81 0.77
-19 17 -5 6.41 0.89
2 17 5 6.41 0.94
-2 -17 5 5.14 0.93
-17 19 -5 7.21 1.05
-2 19 5 7.38 0.79
-19 2 -5 8.09 1.23
17 2 5 7.77 0.81
2 -19 5 6.14 0.94
-2 -17 -5 5.1 0.9
-19 17 5 7.02 1.18
-19 17 5 8.74 0.98
19 -17 5 4.21 0.75
17 -19 -5 6.66 0.98
-17 -2 5 5.57 0.81
-19 1 5 1.38 0.62
-18 19 5 1.02 0.7
19 -18 -5 1.04 0.54
19 -1 5 0.73 0.56
-19 18 -5 0.83 0.63
1 18 5 1.38 0.53
-18 -1 -5 1.62 0.67
-18 19 5 0.89 0.68
-19 18 5 1.39 0.69
-19 1 -5 2.11 0.7
19 -18 5 0.69 0.42
-1 19 5 1.27 0.52
-18 -1 5 1.33 0.59
-19 18 5 1.58 0.71
18 -19 -5 0.82 0.56
-18 19 -5 1.57 0.66
18 1 5 1.14 0.54
0 19 5 0.72 0.46
-19 19 5 0.88 0.63
19 0 5 0.43 0.5
19 -19 -5 0.42 0.5
-19 0 5 0.29 0.53
-19 19 -5 0.19 0.55
-19 0 -5 0.48 0.59
-19 19 5 0.35 0.66
-10 -10 -5 7.24 1.36
10 10 5 7.59 0.94
-10 20 5 4.13 0.8
20 -10 5 5.07 0.71
-20 10 5 4.81 0.78
-20 10 5 4.66 0.87
-20 10 -5 4.2 0.75
10 -20 5 7 0.94
-11 -9 -5 4.17 0.93
-20 9 5 3.41 0.71
11 -20 5 3.23 0.61
-11 20 5 3.45 0.79
9 11 5 4.83 0.67
20 -9 5 2.64 0.6
9 -20 -5 2.78 0.58
-20 9 5 2.46 0.77
9 -20 5 4.66 0.66
-20 11 5 3.75 0.76
20 -11 5 2.99 0.66
-20 9 -5 2.92 0.71
11 9 5 4.56 0.67
-20 11 5 2.62 0.77
-9 -11 -5 5.34 0.93
20 -8 5 1.12 0.57
-12 -8 -5 0.79 0.75
-12 20 5 1.26 0.76
12 -20 5 1.68 0.56
-8 -12 5 2.31 0.89
-20 8 5 2.16 0.77
8 12 5 1.56 0.56
-20 8 5 1.35 0.56
-12 -8 5 0.86 0.74
20 -12 5 1.02 0.56
-20 8 -5 0.03 0.59
-8 -12 -5 1.17 0.74
-20 12 5 0.61 0.64
-20 12 5 -0.46 0.42
12 8 5 0.96 0.52
-12 20 -5 0.59 0.52
8 -20 5 1 0.53
-13 -7 -5 7.59 1.11
7 13 5 9.42 1.07
7 13 5 6.6 1.03
-7 -13 5 8.79 1.65
13 -20 5 8.08 1.05
-20 7 5 8.55 1.36
-13 20 5 9.15 1.37
20 -7 5 9.39 1.11
-20 13 -5 7.68 1.21
-13 20 -5 6.08 0.86
-7 -13 -5 7.88 1.01
-20 13 5 7.2 1.14
-7 20 5 4.39 0.79
7 -20 5 7.2 1
20 -13 5 5.14 0.77
-13 -7 5 6.27 0.97
-20 7 -5 6.29 0.87
13 7 5 7.82 0.8
-6 -14 5 1.54 0.85
6 14 5 -0.19 0.53
14 -20 5 0.66 0.52
-20 6 5 0.78 0.68
20 -14 -5 -0.01 0.34
-20 14 -5 0.39 0.69
-14 20 5 0.8 0.82
6 14 5 -0.02 0.5
-14 -6 -5 -0.19 0.68
20 -6 5 0.04 0.55
6 -20 5 0.45 0.54
-20 6 -5 0.16 0.66
-14 -6 5 -0.52 0.61
-20 14 5 -0.15 0.6
-14 20 -5 0.45 0.6
-6 20 5 0.11 0.49
-6 -14 -5 0.23 0.7
-6 20 5 0.86 0.52
14 6 5 0.17 0.48
20 -14 5 0.45 0.55
20 -5 5 9.19 1.09
5 15 5 6.39 0.94
-15 20 5 11.08 1.39
5 15 5 8.55 1.06
15 -20 5 8.81 1.05
-5 -15 5 10.72 1.48
20 -15 -5 7.22 0.96
-20 15 -5 9.17 1.24
-20 5 5 10.22 1.31
-20 5 -5 11.05 1.3
20 -15 5 9.17 1.12
-15 20 -5 8.71 1.13
-5 -15 -5 10.06 1.37
-20 15 5 9.53 1.19
15 5 5 9.21 1.08
-20 15 5 8.45 1.32
5 -20 5 9.21 1.06
-5 20 5 10.57 1.08
-4 -16 5 17.11 1.81
-20 4 5 16.75 1.65
-20 16 -5 16.89 1.58
20 -16 -5 15.84 1.47
4 16 5 17.98 1.49
16 -20 5 16.87 1.48
-16 20 5 20.75 1.8
20 -4 5 19.06 1.54
-20 16 5 13.54 1.57
-4 20 5 17.18 1.41
16 4 5 17.94 1.43
-4 -16 -5 15.49 1.63
20 -16 5 15.5 1.45
-20 4 -5 19.06 1.63
-20 16 5 16.58 1.5
-16 20 -5 15.46 1.45
4 -20 5 16.63 1.41
20 -3 5 2.95 0.64
-20 17 -5 3.62 0.72
3 17 5 3.71 0.59
-17 -3 -5 2.41 0.67
-17 20 5 4.61 0.9
-3 -17 5 4.1 0.83
20 -17 -5 3.22 0.63
-20 3 5 3.86 0.7
-20 17 5 3.98 0.73
17 -20 -5 2.99 0.59
-20 17 5 2.69 0.72
-3 20 5 4.45 0.65
3 -20 5 2.62 0.55
-3 -17 -5 3.19 0.78
-17 20 -5 3.49 0.7
20 -17 5 1.93 0.59
17 3 5 3.82 0.62
-20 3 -5 4.06 0.77
-18 20 5 8.15 1.2
2 18 5 8.01 0.98
20 -18 -5 8.05 0.99
-20 2 5 7.93 1.1
-18 20 5 7.78 1.12
-18 -2 -5 8.29 1.14
20 -2 5 8.31 1.02
-20 18 -5 8.41 1.12
-20 18 5 7.82 1.14
-20 2 -5 8.75 1.19
-2 20 5 8.59 0.99
18 2 5 9.34 1.04
-18 20 -5 7.69 1.05
-20 18 5 8.54 1.16
18 -20 -5 8.79 0.98
20 -19 -5 6.28 0.87
-19 20 5 6.93 1.1
-19 -1 -5 6.28 0.8
1 19 5 6.06 0.84
-19 20 5 5.42 0.83
-20 1 5 6.64 0.94
-20 19 -5 6.27 0.8
20 -1 5 6.36 0.88
-20 19 5 3.66 0.72
-20 1 -5 5.04 0.73
-19 20 -5 5.64 0.72
-1 20 5 4.34 0.6
-20 19 5 4.23 0.72
19 1 5 4.35 0.62
19 -20 -5 4.6 0.61
-19 -1 5 4.06 0.62
-20 20 -5 0.17 0.53
20 -20 -5 0.22 0.39
-20 20 5 0.21 0.54
-20 20 5 0.12 0.53
0 20 5 0.35 0.43
-20 0 5 0.37 0.47
-20 0 -5 0.53 0.52
20 0 5 -0.13 0.44
-21 10 5 6.89 1.15
21 -10 5 6.69 1
11 -21 5 8.04 0.9
-11 -10 -5 9.19 1.39
-11 21 5 6.26 1.15
-21 10 5 7.8 1.12
10 11 5 8.53 1.01
-10 -11 5 10.3 1.43
-10 -11 -5 8.42 1.3
11 10 5 7.08 0.98
21 -11 5 7 0.98
-21 11 5 7.89 1.1
-11 -10 5 9.64 1.34
-21 11 5 5.14 0.87
-21 10 -5 6.51 1.03
10 -21 5 8.37 0.91
12 -21 5 14.78 1.23
-12 21 5 12.4 1.44
-21 9 5 11.99 1.4
9 -21 -5 12.42 1.19
-9 -12 5 15.45 1.61
-21 9 5 11.6 1.21
9 12 5 15.05 1.24
21 -9 5 12.69 1.24
-12 -9 -5 11.36 1.5
12 9 5 12.05 1.12
9 -21 5 12.9 1.13
-21 12 5 12.49 1.25
21 -12 5 10.86 1.18
-21 9 -5 10.76 1.26
-9 -12 -5 11.78 1.47
-12 -9 5 11.41 1.44
8 -21 -5 0.08 0.49
-21 8 5 0.17 0.64
8 13 5 -0.31 0.48
21 -8 5 0.33 0.52
-13 21 5 0.31 0.74
8 13 5 0.05 0.5
13 -21 5 0.22 0.48
-8 -13 5 0.79 0.76
-21 13 -5 -0.14 0.33
-13 -8 -5 0.12 0.65
-21 13 5 0.09 0.58
13 8 5 -0.25 0.45
-21 8 -5 -0.16 0.56
-13 21 -5 0 0.37
8 -21 5 0.43 0.46
21 -13 5 0.16 0.5
-13 -8 5 -0.23 0.62
-8 -13 -5 -0.04 0.62
7 -21 -5 3.02 0.58
21 -7 5 3 0.64
-14 21 5 2.63 0.88
14 -21 5 2.05 0.54
-21 14 -5 2.15 0.68
-21 7 5 3.79 0.74
-7 -14 5 2.9 0.8
7 14 5 1.85 0.51
7 14 5 2.78 0.57
-14 -7 -5 1.48 0.7
-21 14 5 0.25 0.65
7 -21 5 1.65 0.49
21 -14 5 0.59 0.51
-21 7 -5 0.99 0.63
-14 21 -5 0.2 0.53
14 7 5 0.81 0.48
-7 -14 -5 1.26 0.65
-21 14 5 0.29 0.57
-14 -7 5 1.05 0.64
6 15 5 3.85 0.63
-15 21 5 5.85 0.98
-6 -15 5 4.5 0.86
-21 6 5 5.81 0.82
6 -21 -5 4 0.63
21 -6 5 3.46 0.65
-21 15 -5 4.27 0.75
15 -21 5 4.17 0.63
-6 -15 -5 2.69 0.76
-21 6 -5 2.75 0.7
6 -21 5 2.65 0.53
-21 15 5 1.42 0.7
21 -15 5 2.1 0.57
-21 15 5 2.44 0.63
15 6 5 2.76 0.55
-15 21 -5 1.5 0.57
21 -5 5 1.88 0.57
-21 5 5 2.16 0.62
-21 16 -5 0.62 0.62
16 -21 5 1.48 0.51
-16 21 5 1.9 0.8
-5 -16 5 1.48 0.74
5 16 5 1.68 0.51
16 5 5 0.64 0.45
-21 16 5 0.6 0.57
5 -21 5 1.06 0.45
21 -16 5 0.28 0.49
-21 16 5 0.39 0.61
-5 -16 -5 0.99 0.69
-21 5 -5 0.68 0.61
-16 21 -5 0.45 0.55
-21 4 5 7.66 1.05
-4 -17 5 6.68 1.15
-17 21 5 8.09 1.25
21 -4 5 6.24 0.93
4 17 5 6 0.88
-21 17 -5 6.06 1
-21 4 -5 6.99 1.08
-4 21 5 5.63 0.79
-17 21 -5 5.89 0.76
21 -17 5 4.01 0.63
17 4 5 6.13 0.81
-4 -17 -5 4.67 0.81
-21 17 5 6.18 0.93
4 -21 5 5.54 0.8
17 -21 -5 5.43 0.82
-18 21 5 1.93 0.72
3 18 5 1.77 0.49
21 -3 5 2.33 0.52
-21 3 5 2.37 0.54
-3 -18 5 1.31 0.56
-21 18 -5 1.66 0.59
18 3 5 3.07 0.52
-21 3 -5 3.21 0.69
-3 21 5 3.29 0.49
-18 21 -5 1.72 0.57
-3 -18 -5 1.82 0.56
18 -21 -5 2.77 0.52
-21 18 5 2.35 0.61
3 -21 5 1.47 0.38
-19 21 5 0.18 0.61
2 19 5 -0.04 0.44
21 -19 -5 -0.08 0.22
2 -21 -5 0.68 0.43
-21 2 5 0.15 0.48
21 -2 5 -0.13 0.45
-21 19 -5 0.35 0.52
-21 19 5 -0.17 0.55
19 -21 -5 0.1 0.4
19 2 5 -0.33 0.44
-19 21 -5 0.52 0.55
-21 2 -5 0.2 0.53
-21 19 5 0.06 0.33
-2 21 5 -0.03 0.4
1 20 5 1.84 0.47
-20 -1 -5 0.62 0.39
-21 20 -5 2.22 0.57
-21 1 5 1.56 0.49
1 -21 -5 2.91 0.5
-20 21 5 1.9 0.6
21 -1 5 1.28 0.49
-1 21 5 3.41 0.49
-21 1 -5 3.33 0.6
-21 20 5 1.59 0.45
-21 20 5 2.24 0.59
20 1 5 2.88 0.52
-20 21 -5 2.2 0.57
11 -22 5 14.22 1.21
-22 11 5 12.81 1.37
22 -11 5 13.95 1.28
11 11 5 15.23 1.28
-11 -11 5 15.98 1.55
-22 11 5 15.31 1.37
-11 -11 -5 14.96 1.58
12 -22 5 1.07 0.41
-22 10 5 0.6 0.35
10 12 5 0.59 0.46
-10 -12 5 1.1 0.67
10 12 5 0.37 0.44
22 -10 5 0.13 0.46
-12 22 5 0.56 0.56
-12 -10 -5 0.95 0.71
-22 10 5 0.72 0.56
12 10 5 0.85 0.47
-10 -12 -5 0.8 0.69
22 -12 5 0.24 0.45
-22 12 5 0.77 0.56
-22 12 5 -0.25 0.36
-22 10 -5 0.17 0.47
10 -22 5 1.12 0.44
-12 -10 5 0.87 0.66
22 -9 5 6.05 0.86
-13 22 5 3.58 0.75
-22 9 5 3.01 0.6
-13 -9 -5 4.76 0.81
9 -22 -5 3.25 0.51
13 -22 5 5.43 0.74
22 -13 5 3.99 0.6
9 -22 5 4.73 0.56
-13 -9 5 2.56 0.7
-22 13 5 3.06 0.63
13 9 5 5.03 0.6
-22 9 -5 2.68 0.62
22 -8 5 5.3 0.68
8 -22 -5 3.78 0.58
14 -22 5 4.63 0.6
-8 -14 5 6.22 1.19
-22 8 5 6.26 1.01
-14 22 5 5.32 0.84
8 14 5 6.72 0.69
-14 -8 -5 4.65 0.83
-8 -14 -5 3.45 0.74
14 8 5 4.36 0.56
-22 14 5 4.06 0.67
-14 -8 5 2.24 0.66
22 -14 5 2.61 0.54
-22 8 -5 2.64 0.6
-22 14 5 2.19 0.7
-15 22 5 0.64 0.75
-22 7 5 0.39 0.52
7 -22 -5 0.09 0.41
-7 -15 5 0.69 0.64
22 -7 5 -0.23 0.48
-22 15 -5 0.28 0.41
7 15 5 0.1 0.44
15 -22 5 0.39 0.43
-22 15 5 -0.14 0.6
7 -22 5 0.32 0.41
-22 7 -5 -0.32 0.54
-7 -15 -5 -0.06 0.62
15 7 5 -0.33 0.41
-22 15 5 0.45 0.5
22 -15 5 -0.1 0.45
-15 22 -5 -0.19 0.34
-22 6 5 7.64 1
6 16 5 7.49 0.86
22 -6 5 6.58 0.91
-16 22 5 8.78 1.25
16 -22 5 6.02 0.8
-6 -16 5 7.04 1.14
6 -22 -5 6.78 0.84
-22 16 -5 6.09 0.93
-22 16 5 7.53 0.91
6 -22 5 7.3 0.83
16 -22 -5 8.71 0.85
22 -16 5 6.02 0.87
-16 22 -5 6.58 0.86
-22 6 -5 7.89 1.09
-6 -16 -5 7.73 1.12
-22 16 5 6.63 1.01
16 6 5 8.22 0.89
-22 17 -5 1.4 0.54
-5 -17 5 2.06 0.66
22 -5 5 1.49 0.52
-17 22 5 2.29 0.75
5 17 5 1.86 0.48
5 -22 -5 2.16 0.45
-22 5 5 2.41 0.56
-5 -17 -5 2.54 0.65
17 -22 -5 3.27 0.52
-17 22 -5 1.58 0.54
-22 5 -5 2.94 0.64
5 -22 5 2.66 0.47
-22 17 5 3.16 0.59
17 5 5 3.13 0.5
4 18 5 0.28 0.44
22 -4 5 0.41 0.46
-22 18 -5 0.16 0.48
-18 22 5 0.67 0.65
-4 -18 5 -0.02 0.42
4 -22 -5 0.51 0.4
-22 4 5 0.77 0.53
18 -22 -5 0.71 0.42
-18 22 -5 0.34 0.44
-22 4 -5 0.59 0.53
-22 18 5 0.73 0.5
18 4 5 0.62 0.42
3 -22 -5 5.45 0.81
-22 19 -5 6.57 0.94
-22 3 5 6.38 0.98
3 19 5 5.79 0.77
-19 22 5 5.37 0.83
22 -3 5 6.27 0.83
-22 3 -5 3.76 0.6
-22 19 5 2.95 0.61
19 3 5 2.79 0.52
-19 22 -5 2.6 0.58
-12 -11 -5 7.52 1.17
11 12 5 7.29 0.84
23 -11 5 5.59 0.84
12 -23 5 7.64 0.79
-11 -12 5 8.45 1.16
12 11 5 8.72 0.88
11 -23 5 8.34 0.83
-23 12 5 6.7 0.77
-12 -11 5 8.56 1.13
23 -12 5 7.32 0.88
-11 -12 -5 7.74 1.2
23 -10 5 6.67 0.86
-23 10 5 3.54 0.59
-13 -10 -5 4.24 0.71
10 13 5 5.92 0.74
13 10 5 5.34 0.8
-10 -13 -5 6.41 1.15
10 -23 5 5.67 0.7
-23 13 5 6.25 0.88
-23 13 5 5.92 0.97
23 -13 5 5.11 0.65
-13 -10 5 4.91 0.98
-23 9 5 0.92 0.46
-9 -14 5 2.25 0.64
23 -9 5 1.3 0.51
14 -23 5 1.5 0.42
9 14 5 1.32 0.45
-14 23 5 0.87 0.58
-14 -9 -5 0.72 0.55
-23 14 5 1.31 0.64
-14 -9 5 1.15 0.53
9 -23 5 2.13 0.42
-23 14 5 1.18 0.52
-9 -14 -5 2.35 0.67
-23 9 -5 1.12 0.48
23 -14 5 1.7 0.45
14 9 5 2.07 0.48
-8 -15 5 7.15 1.08
-23 8 5 6.16 0.99
15 -23 5 6 0.72
23 -8 5 6.41 0.9
-15 23 5 6.62 1.07
8 15 5 6.15 0.82
-23 15 5 3.71 0.58
23 -15 5 2.67 0.48
-23 8 -5 2.65 0.57
-23 15 5 3.25 0.68
23 -7 5 1.72 0.51
-16 23 5 2.24 0.73
-23 7 5 2.08 0.58
7 -23 -5 1.81 0.36
-7 -16 5 2.62 0.65
7 16 5 2.39 0.45
7 -23 5 1.89 0.43
-23 16 5 1.84 0.54
16 -23 -5 1.14 0.42
16 7 5 0.92 0.45
-7 -16 -5 2 0.64
-23 7 -5 1.55 0.58
-23 6 5 2.42 0.62
-6 -17 5 1.87 0.59
6 17 5 1.98 0.46
6 -23 -5 1.37 0.4
23 -6 5 2.74 0.56
-17 23 5 2.62 0.75
17 -23 -5 2.05 0.44
-6 -17 -5 1.29 0.54
-23 6 -5 1.42 0.54
6 -23 5 1.42 0.4
17 6 5 1.6 0.48
-23 17 5 1.92 0.52
-24 12 5 10.14 1.13
-12 -12 -5 9.67 1.24
-12 -12 5 10.79 1.23
12 12 5 11.65 1.01
12 -24 5 10.53 0.94
24 -12 5 9.23 0.97
13 -24 5 1.89 0.42
11 13 5 1.61 0.47
-13 -11 -5 1.05 0.56
-11 -13 5 2.05 0.65
24 -11 5 1.79 0.46
-24 11 5 1.27 0.57
-11 -13 -5 1.25 0.63
24 -13 5 0.52 0.38
11 -24 5 1.39 0.4
13 11 5 1.95 0.49
-24 13 5 1.14 0.6
-13 -11 5 0.92 0.55
-10 -14 5 6.63 1.06
-10 -14 -5 6.33 1.08
0 0 -6 548.5 32.04
0 0 6 498.38 32.04
0 0 -6 409.92 32.02
1 -1 -6 45.69 3.54
-1 0 6 43.95 3.5
0 1 6 52.12 3.57
-1 0 -6 54.93 3.54
1 0 -6 55.7 3.6
0 1 -6 55.4 3.52
0 1 -6 55.84 3.61
0 -1 6 42.44 3.5
1 0 6 53.72 3.58
-1 1 6 49.76 3.55
-1 0 6 49.22 3.54
1 -1 -6 55.49 3.51
1 -1 6 52.63 3.57
1 0 -6 52.6 3.52
-1 1 -6 53.8 3.55
0 -1 6 49.19 3.54
-1 1 -6 49.08 3.56
0 -1 -6 55.63 3.55
1 1 -6 34.63 2.43
-1 2 -6 32.91 2.35
1 -2 -6 31.71 2.3
1 -2 6 32.46 2.38
1 -2 -6 34.33 2.32
2 -1 -6 33.22 2.43
-2 1 -6 35.14 2.35
2 -1 6 33.24 2.4
-1 2 -6 35.59 2.46
-1 -1 6 29.32 2.36
-1 -1 -6 34.87 2.34
1 1 6 33.45 2.41
2 -1 -6 33.63 2.3
-2 1 -6 33.16 2.42
-1 2 6 31.71 2.38
1 1 -6 33.88 2.32
-2 1 6 31.25 2.36
-1 -1 6 30.11 2.37
-2 2 -6 28.14 1.98
-2 0 6 25.44 1.97
2 -2 6 27.29 1.99
2 0 6 27.33 2.02
2 -2 -6 29.43 1.92
0 2 -6 28.24 1.91
0 2 -6 28.89 2.04
-2 0 6 22.9 1.96
2 0 -6 28.11 2.03
0 -2 -6 27.74 1.98
-2 2 6 24.55 1.96
-2 0 -6 28.21 2.01
2 0 -6 26.36 1.89
0 -2 6 25.82 1.97
-2 2 -6 27.12 2
2 -2 -6 25.84 2
-2 2 -6 25.57 1.98
-2 0 -6 27.48 2.04
2 0 6 24.82 1.92
0 -2 6 25.29 1.98
-1 -2 6 1.36 0.51
-1 3 -6 2.11 0.66
2 -3 6 1.36 0.5
2 -3 6 1.07 0.39
3 -1 6 1.13 0.45
1 -3 -6 1.62 0.42
-2 -1 -6 1.56 0.52
-3 2 -6 1.45 0.57
2 1 -6 1.43 0.39
3 -1 6 2.11 0.58
-2 -1 -6 1.43 0.48
1 -3 -6 0.95 0.35
1 2 6 1.15 0.44
-3 1 6 1.39 0.51
2 1 -6 2.05 0.63
-3 2 -6 1.06 0.56
3 -2 -6 2.1 0.38
3 -2 -6 1.54 0.55
-3 1 6 1.44 0.51
-3 2 -6 2.09 0.6
-2 3 6 0.68 0.43
-2 -1 -6 1.41 0.6
2 -3 6 0.39 0.38
-1 3 -6 1.61 0.5
-1 -2 6 1.36 0.59
3 -1 -6 3.21 0.64
-1 -2 -6 3.47 0.64
3 -2 6 3.23 0.58
2 -3 -6 4.4 0.62
3 -2 6 2.85 0.61
2 -3 -6 2.77 0.55
-3 1 -6 3.07 0.62
2 1 6 2.48 0.52
-3 2 6 3.02 0.56
-2 -1 6 2.68 0.63
-2 3 -6 3.81 0.73
-1 -2 -6 3.4 0.55
-2 3 -6 3.41 0.52
-1 -2 -6 2.91 0.56
1 -3 6 2.43 0.6
1 -3 6 3.65 0.62
1 2 -6 4.13 0.73
1 2 -6 3.67 0.47
-3 1 -6 4.12 0.59
3 -1 -6 3.59 0.46
-2 -1 6 2.43 0.54
3 -3 6 110.57 7.72
3 -3 6 114.78 7.71
-3 0 6 106.34 7.75
0 3 -6 128.78 7.72
-3 0 6 110.26 7.71
-3 0 -6 119.14 7.76
-3 3 -6 118.6 7.75
3 0 -6 119.58 7.76
0 3 -6 122.84 7.76
0 -3 -6 123.07 7.73
3 -3 -6 121.62 7.72
-3 0 -6 110.3 7.74
0 -3 -6 113.64 7.76
3 -3 -6 116.68 7.68
-3 3 -6 105.8 7.74
3 0 -6 96.3 7.65
3 0 6 111.34 7.7
-3 3 -6 121.05 7.74
0 -3 6 108.25 7.71
0 -3 6 114.21 7.78
3 -3 -6 111.47 7.73
-3 0 -6 131.28 7.75
2 -4 -6 8.35 0.82
2 -4 6 5.52 0.86
-2 -2 6 6.97 1.02
2 2 6 6.52 0.87
-4 2 -6 8.49 0.93
-4 2 -6 7.17 0.91
-2 -2 -6 7.83 0.96
-2 -2 -6 7.53 0.92
-4 2 6 5.97 0.75
2 -4 6 6.48 0.87
2 -4 6 6.86 0.81
-2 4 -6 6.68 0.96
2 2 -6 7.77 0.72
-2 -2 -6 7.44 0.92
-2 -2 6 6.93 0.91
2 -4 -6 5.73 0.77
-2 4 -6 7.7 0.84
2 2 -6 7.75 0.98
2 -4 -6 5.36 0.88
4 -2 6 7.57 0.88
4 -2 -6 7.64 0.94
-4 1 6 9.04 0.99
3 -4 6 11.37 1.08
3 1 -6 11.68 1.22
-3 -1 -6 11.82 1.1
-3 -1 -6 9.16 1.09
-4 3 -6 11.14 1.15
4 -1 6 10.66 1.05
-3 -1 -6 11.41 0.98
1 -4 -6 11.71 0.95
-4 3 -6 12.05 0.99
-1 -3 6 10.39 1.26
1 3 6 10.13 1.03
-1 4 -6 10.84 1.12
-4 3 -6 9.73 1.04
3 -4 6 10.08 1.02
-1 -3 6 9.94 1.07
-4 1 6 9.46 1.04
-1 4 -6 10.85 1.01
-1 -3 -6 14.54 1.16
4 -3 6 14.13 1.23
3 -4 -6 14.42 1.14
-3 -1 6 13.13 1.23
-3 4 -6 15.1 1.23
-3 4 -6 14.57 1.29
1 -4 6 12.81 1.39
1 3 -6 14.34 1.14
1 -4 6 13.33 1.23
4 -1 -6 13.86 1.27
-4 1 -6 14.9 1.18
-1 -3 -6 14 1.31
1 3 -6 15.3 1.38
-1 -3 -6 13.27 1.23
-4 1 -6 15.34 1.34
3 -4 -6 13.67 1.2
-4 1 -6 11.72 1.21
-3 -1 6 13.39 1.3
3 1 6 14.42 1.23
4 -3 6 11.21 1.14
4 -4 6 6.26 0.89
-4 0 6 7.36 0.95
0 -4 -6 6.48 0.89
-4 0 -6 5.47 0.91
-4 0 -6 6.9 0.92
-4 4 -6 6.42 1.03
4 -4 -6 7.04 0.8
0 4 -6 7.3 0.95
0 4 -6 6.43 0.8
-4 4 -6 6.48 0.74
0 -4 -6 6.41 0.87
-4 0 6 7.2 0.88
0 -4 6 5.74 0.95
0 -4 6 6.63 0.91
0 -4 -6 4.45 0.82
0 4 6 6.24 0.84
4 0 -6 6.27 0.92
-4 0 6 6.42 0.92
4 0 6 6.47 0.86
-4 0 -6 7.08 1
2 3 6 20.07 1.6
5 -2 6 19.72 1.57
-5 2 6 22.16 1.67
3 -5 6 19.68 1.6
2 -5 -6 21.23 1.59
-3 -2 -6 18.71 1.68
-5 3 -6 18.59 1.58
3 -5 6 17.51 1.53
3 2 -6 21.52 1.72
2 -5 -6 16.02 1.65
-3 -2 -6 21.03 1.64
-3 -2 -6 20.83 1.63
-2 5 -6 20.63 1.64
-5 3 -6 20.43 1.62
-5 3 -6 22.69 1.57
-2 -3 6 19.66 1.73
-2 5 -6 18.39 1.57
-2 -3 6 18.67 1.57
-2 -3 -6 15.69 1.42
3 2 6 16.46 1.4
-2 -3 -6 15.47 1.49
-2 -3 -6 16.92 1.41
-3 5 -6 17.32 1.32
3 -5 -6 17.56 1.34
-3 5 -6 17.1 1.51
2 -5 6 15.99 1.39
3 -5 -6 15.1 1.35
-3 -2 6 16.59 1.57
2 3 -6 17.5 1.51
2 -5 6 14.07 1.47
-5 2 -6 18.02 1.46
-3 -2 6 16.17 1.38
-5 2 -6 17.77 1.45
2 -5 6 15.95 1.39
-5 3 6 17.27 1.46
5 -3 6 15.66 1.34
-5 4 -6 25.09 1.96
-4 -1 -6 25.48 1.86
-5 1 6 21.28 1.83
-4 -1 -6 22.78 1.94
-1 -4 6 23.82 1.87
5 -4 -6 25.46 1.9
-5 1 6 26.3 1.98
-5 1 6 24.39 1.95
5 -1 6 22.78 1.85
4 -5 6 24.9 1.88
-5 4 -6 26.87 1.86
-4 -1 -6 26.08 1.94
-1 -4 6 23.92 2.08
-1 5 -6 25.24 1.93
1 4 6 25.02 1.9
1 -5 -6 25.31 1.85
1 -5 -6 23.17 1.99
-5 4 -6 23.25 1.91
4 1 -6 25.41 1.92
4 1 -6 25.25 1.93
-1 5 -6 24.92 1.81
1 -5 6 23.22 1.91
5 -1 -6 26.55 1.97
4 -5 -6 20.62 1.82
-1 -4 -6 26.18 1.98
-5 1 -6 27.61 2.04
-4 5 -6 24.97 1.95
4 1 6 25.23 1.93
1 4 -6 23.97 1.86
-4 -1 6 26.97 2.05
-1 -4 -6 25.58 1.97
1 4 -6 26.41 2.03
-5 1 -6 26.81 1.92
-4 5 -6 26.2 1.99
5 -1 -6 25.98 2
-4 -1 6 25.62 1.97
-1 -4 -6 26.04 2.09
-4 -1 6 28.47 2.15
4 -5 -6 24.82 1.93
5 -4 6 26.87 1.94
1 -5 6 23.18 2.06
-5 0 -6 48.28 4.06
0 5 -6 60.33 4.05
-5 5 -6 61.63 4.02
0 -5 6 50.87 4.1
5 -5 6 56.12 3.99
0 -5 -6 54.37 4.01
0 5 -6 55.79 3.99
-5 0 -6 60.59 4.06
0 -5 -6 51.45 4.12
-5 0 6 59.69 4.03
-5 0 6 63.86 4.13
5 0 -6 61.34 4.05
0 -5 6 57.73 4.03
-5 5 -6 60.98 4.08
5 0 6 55.67 3.98
0 -5 -6 59.63 4.02
5 -5 -6 57.27 4.02
-5 0 -6 63.16 4.11
5 0 -6 59.84 4.07
-5 0 6 61.95 4.11
3 -6 -6 12.84 1.14
3 3 -6 11.92 1.21
3 3 -6 12.69 1.22
-3 -3 -6 12.07 1.1
-6 3 6 12.59 1.33
3 -6 6 12.36 1.15
3 3 6 12.33 1.2
-3 6 -6 12.81 1.24
-3 -3 6 13.08 1.35
-6 3 -6 13.43 1.12
-3 -3 6 11.5 1.18
-6 3 -6 10.98 1.16
6 -3 6 12.13 1.16
6 -3 -6 11.71 1.24
-6 3 -6 12.18 1.29
-3 6 -6 12.2 1.19
-3 -3 -6 10.65 1.31
-3 -3 -6 12.65 1.26
3 -6 6 11 1.12
-2 -4 6 7.98 1.04
4 -6 6 7.47 0.93
-2 -4 6 8.08 1.15
2 4 6 8.13 1
6 -4 -6 6.61 0.9
4 2 -6 8.47 1.04
-6 4 -6 8.01 1
-2 6 -6 7.8 0.81
-6 2 6 8.64 1.16
-2 6 -6 7.41 0.99
-4 -2 -6 5.48 1.06
2 -6 -6 8.08 0.83
-6 4 -6 7.26 1.02
-6 4 -6 7.31 1.09
-4 -2 -6 7.4 0.85
4 2 -6 7.2 1.02
-4 -2 -6 8.55 1.01
6 -2 6 8 0.94
6 -4 6 2.48 0.56
-2 -4 -6 2.85 0.58
2 -6 6 2.44 0.62
-4 -2 6 2.08 0.62
-2 -4 -6 2.18 0.6
2 -6 6 2.32 0.63
2 -6 6 1.55 0.66
4 2 6 2.63 0.63
-6 2 -6 2.57 0.6
-6 4 6 2.59 0.65
2 4 -6 2.91 0.66
-6 2 -6 2.63 0.72
-2 -4 -6 1.21 0.66
-4 6 -6 2.4 0.55
4 -6 -6 1.5 0.38
6 -2 -6 2.46 0.71
2 4 -6 1.45 0.52
-4 6 -6 2.88 0.67
-4 -2 6 2.34 0.61
4 -6 -6 2.22 0.55
-4 -2 6 2.4 0.78
-6 5 -6 5.64 0.88
-5 -1 -6 6.87 0.82
6 -5 -6 5.9 0.88
5 -6 6 6.81 0.88
-5 -1 -6 7.64 0.99
-1 6 -6 7.39 0.87
6 -1 6 6.53 0.91
-1 -5 6 5.17 0.99
-6 1 6 5.97 0.85
-6 1 6 8.22 1.05
6 -5 -6 6.72 0.92
5 1 -6 7.13 1.04
-1 -5 6 6.94 1.02
-6 1 6 7.55 1.02
-1 6 -6 7.33 1
-6 5 -6 7.83 0.83
5 1 -6 7.52 1.11
1 -6 -6 6.87 0.82
-6 5 -6 7 1
-5 6 -6 11.23 1.14
-5 -1 6 11.99 1.36
1 5 -6 9.17 1.07
1 -6 6 9.91 1.11
-1 -5 -6 9.98 0.99
5 -6 -6 9.95 1.02
5 1 6 10.13 1.01
-6 1 -6 10.75 1.17
-6 1 -6 10.7 1.15
-1 -5 -6 9.79 1.02
6 -5 6 9.64 1.07
1 -6 6 8.2 0.96
6 -1 -6 10.48 1.14
1 5 -6 10.22 1.11
-1 -5 -6 7.36 1.27
-5 -1 6 10.36 1.15
-5 -1 6 10.39 1.23
6 -1 -6 9.66 1.11
-5 6 -6 10.23 1.1
6 -6 -6 -0.02 0.54
0 6 -6 0.5 0.59
-6 0 6 0.72 0.54
0 -6 -6 0.13 0.38
-6 0 -6 0.84 0.61
-6 6 -6 -0.21 0.32
-6 6 -6 0.27 0.59
-6 0 -6 0.74 0.5
0 6 -6 0.27 0.42
6 0 -6 0.77 0.66
-6 0 -6 -0.09 0.46
0 -6 -6 -0.6 0.58
6 0 -6 0.13 0.66
6 -6 6 0.43 0.58
0 6 6 0.05 0.28
0 -6 6 -0.06 0.7
0 -6 6 0.36 0.6
-6 6 -6 0.65 0.65
0 6 -6 0.84 0.54
-6 0 6 0.65 0.76
0 -6 6 0.04 0.36
6 0 6 0.36 0.49
-6 0 6 0.91 0.71
0 -6 -6 0.28 0.49
6 -6 -6 0.41 0.56
-7 3 6 27.92 2.08
-3 -4 6 26.55 2.04
4 -7 6 25.38 1.98
4 3 -6 26.38 2.04
-7 4 -6 26.92 2.07
-4 -3 -6 26.17 2.05
-7 4 -6 24.2 1.98
-4 -3 -6 26.15 2.01
-3 7 -6 25.12 2.01
7 -4 -6 24.91 2.02
3 4 6 27.83 2.01
-3 7 -6 22.62 1.95
3 -7 -6 22.76 1.93
7 -3 6 23.35 1.91
-7 4 -6 25.38 2.01
-3 -4 6 25.1 2.2
4 3 -6 25.64 2.06
4 3 6 24.19 1.85
-3 -4 -6 23.11 1.89
3 -7 6 21.85 1.79
3 4 -6 21.61 1.87
-7 3 -6 24.29 1.91
7 -3 -6 24.56 1.93
-7 3 -6 23.96 1.9
-4 7 -6 22.08 1.85
-4 -3 6 22.25 1.88
3 -7 6 23.28 1.86
-4 7 -6 25.03 1.88
7 -4 6 22.21 1.78
-3 -4 -6 22.55 1.88
-7 4 6 24.76 1.91
-4 -3 6 25.86 1.93
3 4 -6 21.45 1.83
-4 -3 6 21.52 1.95
7 -5 -6 0.52 0.57
-7 2 6 0.34 0.34
-5 -2 -6 0.33 0.66
-2 -5 6 0.23 0.69
5 -7 6 0.89 0.61
-7 5 -6 1.02 0.68
2 5 6 0.19 0.33
-7 5 -6 1.14 0.68
2 -7 -6 0.94 0.49
-5 -2 -6 -0.47 0.5
2 -7 -6 -0.32 0.56
-7 2 6 1.09 0.72
-2 -5 6 0.55 0.62
-2 7 -6 0.47 0.59
5 2 -6 1.59 0.71
7 -2 6 0.94 0.5
-5 -2 -6 0.65 0.68
7 -5 -6 0.21 0.55
-2 7 -6 0.83 0.45
-7 5 -6 0.86 0.6
5 2 -6 0.4 0.63
2 -7 6 1.83 0.61
-5 -2 6 2.59 0.74
-7 2 -6 2.22 0.71
5 2 6 2.79 0.67
-5 -2 6 2.3 0.73
7 -5 6 2.67 0.63
-5 7 -6 2.1 0.72
-2 -5 -6 2.66 0.6
2 5 -6 1.88 0.62
-7 5 6 2.57 0.66
-7 2 -6 1.98 0.59
-5 -2 6 1.18 0.76
-5 7 -6 2.58 0.7
2 -7 6 1.57 0.6
2 5 -6 2.52 0.65
-2 -5 -6 2.27 0.65
7 -2 -6 2.09 0.72
-1 7 -6 45.65 3.38
6 -7 6 51.39 3.38
7 -1 6 48.49 3.38
-7 6 -6 47.7 3.42
6 1 -6 51.41 3.47
-6 -1 -6 49.46 3.38
-1 7 -6 50.81 3.41
7 -6 -6 47.46 3.42
-6 -1 -6 49.43 3.46
6 1 -6 53.59 3.44
1 -7 -6 45.49 3.42
-1 -6 6 43.39 3.39
-7 6 -6 47.41 3.42
-7 1 6 44.11 3.48
-7 1 6 47.56 3.47
-7 1 6 41.36 3.37
7 -6 6 48.09 3.39
-6 7 -6 49.68 3.42
1 -7 6 40.12 3.38
1 -7 6 51.01 3.47
-6 -1 6 44.29 3.53
6 1 6 49.75 3.42
-1 -6 -6 48.23 3.43
7 -1 -6 52.01 3.51
-6 -1 6 47.51 3.49
1 6 -6 45.96 3.44
-6 7 -6 48.32 3.47
-7 1 -6 49.9 3.42
-7 1 -6 54.05 3.52
1 6 -6 48.12 3.44
-7 7 -6 44.82 3.21
0 -7 6 41.03 3.14
0 7 -6 46.71 3.17
-7 0 6 42.59 3.2
7 -7 6 49.04 3.14
0 7 6 38.89 3.04
-7 7 -6 45.26 3.15
0 -7 -6 37.3 3.13
-7 0 6 44.75 3.16
7 0 6 43.28 3.08
7 0 6 36.14 3.06
7 0 -6 49.34 3.23
-7 0 -6 37.42 3.1
-7 0 -6 50.29 3.24
0 7 -6 43.81 3.15
7 -7 -6 46.12 3.17
-8 4 -6 31.57 2.36
-4 -4 -6 27.02 2.24
-4 -4 -6 31.57 2.34
-4 -4 -6 33.99 2.37
4 4 6 26.88 2.23
-8 4 -6 26.39 2.22
-4 8 -6 26.53 2.21
4 4 -6 29.56 2.31
-8 4 -6 31.66 2.35
4 4 -6 27.02 2.3
4 4 6 31.79 2.29
-4 8 -6 34.32 2.4
8 -4 -6 30.65 2.36
-4 -4 6 34.25 2.4
-8 4 6 32.33 2.39
8 -4 6 28.49 2.26
4 -8 6 33.78 2.34
8 -5 -6 28.04 2.15
-5 -3 -6 24.56 2.03
5 -8 6 28.93 2.13
-8 3 6 29.36 2.21
-8 5 -6 23.34 2.13
-8 5 -6 28.53 2.19
-5 -3 -6 31.05 2.18
-3 -5 6 30.48 2.21
5 3 -6 26.13 2.16
8 -3 6 26.48 2.08
-5 -3 -6 28.69 2.16
-3 8 -6 29.55 2.18
3 5 6 22.48 1.98
5 3 -6 28.01 2.18
-8 5 -6 23.21 2.01
3 5 -6 26.6 2.3
5 3 6 27.43 2.24
3 5 -6 30.99 2.36
-5 -3 6 33.99 2.41
3 -8 6 30.02 2.29
5 3 6 32.27 2.32
-5 8 -6 32.03 2.35
-5 -3 6 28.27 2.31
-5 8 -6 27.07 2.22
3 -8 6 30.91 2.29
8 -3 -6 31.33 2.39
-3 -5 -6 26.83 2.31
-3 -5 -6 30.9 2.36
8 -5 6 29.82 2.27
-3 -5 -6 31.78 2.31
-8 5 6 32.29 2.42
-8 3 -6 34.77 2.45
6 2 -6 3.75 0.74
-2 -6 6 5.28 0.89
8 -6 -6 3.8 0.75
-2 8 -6 5.08 0.84
-2 8 -6 2.94 0.69
-6 -2 -6 5.34 0.82
-6 -2 -6 3.94 0.79
-8 2 6 3.94 0.84
-8 6 -6 2.05 0.64
-8 6 -6 3.78 0.8
-8 6 -6 2.42 0.64
6 2 -6 3.2 0.73
8 -2 6 3.9 0.7
2 6 6 3.19 0.63
6 -8 6 4.7 0.8
-6 8 -6 2.1 0.54
-8 2 -6 3.99 0.86
2 -8 6 2.05 0.61
-6 -2 6 3.1 0.79
8 -6 6 2.29 0.6
-8 2 -6 0.95 0.57
8 -2 -6 2.28 0.69
-6 -2 6 0.07 0.68
-2 -6 -6 1.52 0.59
-2 -6 -6 1.86 0.63
2 6 -6 2.32 0.62
-8 6 6 2.4 0.7
-2 -6 -6 1.27 0.7
6 2 6 2.21 0.61
-6 -2 6 2.9 0.78
2 6 -6 2.77 0.73
-6 8 -6 3.04 0.74
2 -8 6 3 0.72
6 2 6 3.48 0.7
7 -8 6 37.35 2.55
7 1 -6 33.82 2.57
-1 8 -6 30.13 2.49
-8 1 6 33.03 2.62
1 -8 -6 35.34 2.54
-8 7 -6 34.02 2.61
8 -7 -6 34.96 2.58
1 7 6 29.88 2.44
-7 -1 -6 35.67 2.61
7 1 -6 35.57 2.62
-7 -1 -6 32.89 2.56
-1 8 -6 34.57 2.55
-8 1 6 34.62 2.53
8 -1 6 32.1 2.46
-1 -7 6 33.16 2.58
8 -1 6 33.13 2.49
-7 -1 6 35.98 2.6
-7 -1 6 29.63 2.56
-7 8 -6 35.76 2.59
-1 -7 -6 32.97 2.53
-8 1 -6 38.92 2.65
1 7 -6 29.31 2.51
1 -8 6 34.18 2.57
7 1 6 33.7 2.5
7 1 6 33.72 2.5
8 -1 -6 35.8 2.62
1 -8 6 29.6 2.5
1 7 -6 33.46 2.56
8 -7 6 34.74 2.5
8 -8 6 19.93 1.64
-8 0 6 17.4 1.72
8 -8 -6 20.33 1.72
0 8 6 16.31 1.5
0 -8 6 18.35 1.71
8 0 -6 21.76 1.77
-8 0 -6 18.19 1.68
0 8 -6 16 1.62
0 -8 -6 18.29 1.65
8 0 6 19.58 1.63
-8 0 -6 22.52 1.87
8 0 6 18.66 1.64
-8 8 -6 18.98 1.68
8 0 -6 18.21 1.66
0 8 -6 19.72 1.71
-8 0 6 18.27 1.73
4 5 6 3.33 0.67
-9 5 -6 4.29 0.87
9 -5 -6 4.98 0.85
9 -4 6 4.48 0.74
-9 5 -6 2.86 0.79
-4 9 -6 5.2 0.91
-9 4 6 5.89 1
5 -9 6 5.36 0.85
-5 -4 -6 5.63 0.89
-5 -4 -6 5.44 0.92
5 4 -6 3.05 0.7
-4 -5 6 5.24 0.94
5 4 -6 5.17 0.87
4 -9 6 7.21 1.07
-9 4 -6 7.28 1.21
9 -5 6 6.06 0.98
-5 -4 6 5.36 0.95
4 5 -6 5.64 1
-9 4 -6 4.12 0.76
-4 -5 -6 6.37 1.08
9 -4 -6 5.88 1.1
4 5 -6 5.86 0.92
5 4 6 6.7 1.07
5 4 6 6.38 0.84
-5 9 -6 7.47 1.19
-9 5 6 6.7 1.19
-5 -4 6 9.2 1.13
-4 -5 -6 7.62 1.09
-3 9 -6 8.08 1.18
-6 -3 -6 8.37 1.12
9 -6 -6 7.5 1.12
9 -3 6 5.89 0.92
-9 6 -6 7.79 1.19
-3 9 -6 7.16 1.01
3 6 6 7.47 1
-6 -3 -6 9.19 1.19
9 -3 6 8.53 1.05
6 -9 6 8.26 1.03
6 3 -6 7.97 1.11
-9 3 6 7.83 1.17
-3 -6 6 7.75 1.22
6 3 -6 9.3 1.2
-9 6 -6 5.66 1.06
3 -9 -6 8.01 1.02
9 -3 -6 4.94 0.85
3 -9 6 4.14 0.8
-6 -3 6 7.56 1.06
-9 3 -6 5.93 0.96
-3 -6 -6 4.15 0.77
3 6 -6 4 0.77
-6 9 -6 6.54 0.92
6 3 6 5.27 0.83
6 3 6 4.02 0.74
-6 -3 6 3.85 0.86
-9 6 6 4.81 0.86
-3 -6 -6 6.55 0.93
3 6 -6 4.94 0.84
3 -9 6 5.79 0.89
9 -6 6 4.89 0.74
-2 9 -6 45.02 3.64
9 -2 6 52.17 3.63
-9 7 -6 51.28 3.7
2 -9 -6 51.39 3.65
-7 -2 -6 56.63 3.71
-2 -7 6 51.43 3.72
7 2 -6 47.26 3.66
2 7 6 48.4 3.59
-2 9 -6 48.19 3.67
-7 -2 -6 53.21 3.74
7 2 -6 54.86 3.71
9 -2 6 48.55 3.61
7 -9 6 55.47 3.68
-9 2 6 54.09 3.77
9 -7 -6 49.37 3.67
-2 -7 -6 50.53 3.61
-9 7 6 44.42 3.58
2 -9 6 52.53 3.62
2 -9 6 41.93 3.55
7 2 6 50.09 3.57
-7 -2 6 55.34 3.68
9 -2 -6 54.75 3.68
9 -7 6 50.22 3.56
2 7 -6 48.82 3.62
7 2 6 49.31 3.57
-9 2 -6 58.65 3.72
-7 9 -6 52.63 3.66
-7 -2 6 49.62 3.67
2 7 -6 42.5 3.53
-1 9 -6 0.7 0.67
1 8 6 0.93 0.55
9 -8 -6 0.25 0.6
9 -1 6 1.2 0.66
-8 -1 -6 1.56 0.77
-9 8 -6 1.1 0.72
-1 -8 6 0.76 0.68
9 -1 6 0.99 0.63
1 -9 -6 1.28 0.71
8 1 -6 1.46 0.72
8 -9 6 1.24 0.69
-9 1 6 1.61 0.84
-9 1 6 1.17 0.6
-1 9 -6 1.03 0.66
8 1 -6 0.56 0.62
-8 -1 -6 1.53 0.7
-8 -1 6 1.37 0.78
1 8 -6 1.28 0.62
8 1 6 1.02 0.61
1 -9 6 0.87 0.72
8 1 6 1.55 0.67
9 -1 -6 0.89 0.72
1 8 -6 1.14 0.64
-9 8 6 0.62 0.52
-8 -1 6 1.02 0.72
9 -8 6 1.25 0.63
8 -9 -6 0.14 0.31
-8 9 -6 1.73 0.77
9 -1 -6 0.74 0.68
1 -9 6 1.3 0.69
-1 -8 -6 1.03 0.69
-9 1 -6 1.4 0.79
-9 1 -6 1.1 0.62
0 9 -6 35.01 2.7
9 0 6 33.89 2.67
-9 0 -6 30.14 2.69
0 -9 -6 33.2 2.71
-9 9 -6 36.03 2.75
-9 0 -6 39.61 2.82
9 -9 -6 35.13 2.73
0 -9 6 34.79 2.75
9 0 -6 38.63 2.78
9 -9 6 36.79 2.67
-9 0 6 35.54 2.83
9 0 -6 32.93 2.71
-9 0 6 36.71 2.75
9 0 6 35.4 2.66
-10 5 6 75.81 4.96
-5 -5 -6 71.48 4.89
5 5 6 66.52 4.8
-5 -5 -6 68.14 4.89
-10 5 -6 61.01 4.8
5 5 -6 72.48 4.91
5 -10 6 71.27 4.84
10 -5 -6 69.73 4.88
-5 10 -6 74.28 4.89
-10 5 -6 62.46 4.9
10 -5 6 69.63 4.81
-5 -5 6 68.41 4.91
-4 -6 6 22.73 1.98
-6 -4 -6 24.58 1.96
10 -6 -6 21.3 1.83
-4 10 -6 20.62 1.79
6 4 -6 23.39 1.93
-4 10 -6 22.15 1.9
4 6 6 19.47 1.77
-10 6 -6 17.23 1.81
-10 4 6 24.41 2.03
-6 -4 -6 23.16 1.98
6 -10 6 24.53 1.88
6 4 -6 18.73 1.78
10 -4 6 19.42 1.77
-10 6 -6 22.68 1.93
10 -4 6 21.98 1.77
-6 -4 6 25.1 2.35
6 4 6 28.93 2.32
-6 -4 6 33.45 2.53
10 -4 -6 30.95 2.46
4 -10 6 31.98 2.42
-6 10 -6 31.88 2.41
-4 -6 -6 30.57 2.44
-10 6 6 34.11 2.53
-10 4 -6 32.45 2.54
10 -6 6 30.66 2.35
4 6 -6 31.59 2.43
-4 -6 -6 27.57 2.37
-3 10 -6 1.77 0.73
10 -3 6 0.43 0.65
10 -7 -6 0.61 0.68
3 7 6 0.21 0.6
-3 -7 6 0.08 0.77
3 -10 -6 -0.03 0.62
-3 10 -6 0.52 0.69
-10 7 -6 0.48 0.74
-10 3 6 0.76 0.82
7 3 -6 0.27 0.67
-7 -3 -6 0.05 0.7
-7 -3 -6 0.65 0.76
7 -10 6 0.99 0.7
10 -3 6 0.57 0.64
7 3 -6 0.35 0.7
-10 7 -6 0.04 0.6
-3 -7 -6 1.63 0.76
-7 -3 6 0.92 0.78
3 -10 6 1.33 0.69
7 3 6 0.89 0.64
-10 7 6 1.16 0.71
7 -10 -6 0.43 0.5
-7 10 -6 1.68 0.77
3 -10 6 0.63 0.67
-10 3 -6 0.82 0.74
10 -7 6 1.08 0.66
-7 -3 6 1.13 0.77
3 7 -6 1.38 0.75
10 -3 -6 1.48 0.7
7 3 6 1.05 0.7
3 7 -6 0.37 0.52
-8 -2 -6 47.74 3.41
-10 8 -6 44.68 3.32
8 2 -6 39.63 3.25
8 -10 6 46.53 3.27
-2 10 -6 40.43 3.25
10 -8 -6 46.42 3.31
8 2 -6 49.45 3.36
-10 2 6 44.57 3.37
2 -10 -6 44.19 3.28
2 8 6 38.71 3.15
10 -2 6 43.71 3.23
-2 10 -6 47.3 3.29
10 -2 6 48.09 3.25
-8 -2 -6 40.44 3.29
-2 -8 6 44.55 3.35
8 2 6 51.87 3.59
2 8 -6 51.95 3.6
-10 8 6 42.68 3.57
2 -10 6 43.03 3.56
-8 -2 6 47.99 3.64
8 2 6 49.59 3.56
10 -2 -6 52.44 3.63
-2 -8 -6 50.06 3.62
-10 2 -6 54.28 3.71
-8 -2 6 47.68 3.63
2 -10 6 52.84 3.63
-8 10 -6 50.77 3.6
10 -8 6 50.3 3.56
8 -10 -6 47.89 3.46
-10 9 -6 9.54 1.35
-10 1 6 9.54 1.41
-1 10 -6 6.68 1.14
1 9 6 7.45 1.1
-9 -1 -6 9.03 1.29
-1 -9 6 7.03 1.3
10 -1 6 8.69 1.2
-1 10 -6 7.42 1.23
1 -10 -6 7.83 1.26
9 1 -6 6.85 1.21
9 -10 6 9.41 1.22
9 1 -6 9.62 1.32
10 -9 -6 7.4 1.22
-9 -1 -6 8 1.3
10 -1 6 6.98 1.17
-1 -9 -6 7.74 1.09
10 -9 6 8.79 1.05
1 9 -6 7.3 1.06
10 -1 -6 8.44 1.11
1 -10 6 7.25 1.24
1 -10 6 5.82 0.99
9 -10 -6 4.55 0.8
-9 -1 6 6.98 1.11
9 1 6 5.91 0.94
10 -1 -6 6.03 1.01
9 1 6 6.45 1.15
-9 10 -6 9.49 1.16
-9 -1 6 6.52 1.2
0 10 -6 15.33 1.59
-10 10 -6 16.17 1.64
0 -10 6 11.16 1.46
10 -10 6 15.37 1.52
-10 0 -6 12.95 1.6
10 0 -6 13.19 1.55
10 0 6 14.14 1.52
-10 0 -6 16.4 1.67
-10 0 6 16.02 1.58
10 0 6 16.73 1.54
10 -10 -6 15.77 1.62
0 -10 6 13.75 1.6
10 0 -6 17.03 1.66
-10 0 6 15.12 1.64
0 -10 -6 13.15 1.62
5 6 6 2.74 0.72
-11 6 -6 2.9 0.85
-5 -6 6 3.84 0.96
6 5 -6 4.92 0.96
-5 11 -6 2.61 0.72
-6 -5 -6 3.91 0.92
5 -11 -6 3.29 0.83
-5 11 -6 3.72 0.89
-11 6 -6 3.41 0.9
11 -5 6 2.89 0.75
-11 5 6 4.49 0.96
-6 -5 -6 4.77 0.96
6 -11 6 4.53 0.91
11 -5 6 2.39 0.71
11 -6 -6 4.16 0.9
-11 6 6 9.86 1.39
5 -11 6 8.9 1.3
-5 -6 -6 8.48 1.27
-5 -6 -6 7.2 1.23
6 5 6 6.99 1.18
-6 -5 6 8.62 1.41
5 6 -6 8.79 1.37
11 -6 6 7.81 1.16
-11 5 -6 7.63 1.32
-6 11 -6 8.09 1.21
11 -5 -6 8.71 1.27
-4 11 -6 33.27 2.73
7 -11 6 39.12 2.77
7 4 -6 39.97 2.83
-11 4 6 39 2.92
-7 -4 -6 37.24 2.81
-4 -7 6 35.13 2.83
-4 11 -6 32.96 2.74
11 -4 6 30.75 2.64
-11 7 -6 34.25 2.71
4 7 6 32.97 2.67
11 -4 6 38.5 2.71
11 -7 -6 38.49 2.78
-7 -4 -6 36.9 2.84
-11 7 -6 29.7 2.74
-11 4 -6 50.42 3.59
4 7 -6 49.26 3.51
4 -11 6 49.29 3.48
7 4 6 47.65 3.42
-7 -4 6 52.36 3.58
-11 7 6 43.93 3.46
-4 -7 -6 45.75 3.46
-7 11 -6 48.03 3.47
-7 -4 6 39.78 3.41
7 -11 -6 44.94 3.32
11 -4 -6 46.43 3.48
11 -7 6 43.89 3.37
-8 -3 -6 25.01 2.21
11 -3 6 24.14 2.02
-11 8 -6 23.85 2.12
-3 11 -6 21.92 2.04
3 8 6 23.97 2
8 -11 6 25.6 2.08
8 3 -6 28.84 2.17
11 -3 6 23.64 2.04
11 -8 -6 25.21 2.1
-3 11 -6 24.19 2.07
3 -11 -6 21.7 1.98
-8 -3 -6 22.01 2.1
-3 -8 6 23.06 2.16
-11 3 6 25.92 2.26
-3 -8 -6 22.65 1.99
8 3 6 21.51 1.86
-8 -3 6 20.66 2.05
3 -11 6 19.18 1.92
11 -8 6 23.01 1.88
-8 11 -6 23.35 1.99
-11 3 -6 23.8 2.05
3 -11 6 21.65 1.93
8 -11 -6 20.89 1.78
8 3 6 20.71 1.89
11 -3 -6 23.19 2
-11 8 6 19.44 1.87
-8 -3 6 21.81 2.02
3 8 -6 24.2 2.03
9 2 -6 3.36 0.91
-11 9 -6 1.36 0.76
11 -2 6 2.22 0.77
9 -11 6 2.67 0.86
-2 11 -6 1.73 0.72
-9 -2 -6 1.34 0.79
-11 2 6 2.38 0.86
-2 -9 6 1.22 0.82
9 2 -6 1.46 0.7
-2 11 -6 1.49 0.72
2 -11 -6 1.8 0.83
2 9 6 1.22 0.65
-9 -2 -6 1.99 0.92
11 -9 -6 2.45 0.84
11 -2 6 0.98 0.66
2 -11 6 0.83 0.76
9 2 6 1.2 0.8
-2 -9 -6 0.38 0.73
-9 -2 6 0.82 0.8
11 -9 6 1.16 0.74
9 -11 -6 0.64 0.59
-11 2 -6 1.22 0.83
-9 -2 6 0.36 0.76
-11 9 6 0.73 0.69
2 -11 6 0.33 0.77
-9 11 -6 1.35 0.71
2 9 -6 0.74 0.68
9 2 6 0.79 0.64
11 -2 -6 0.92 0.79
11 -10 -6 11.25 1.46
10 1 -6 12.18 1.49
-10 -1 -6 10.56 1.59
-10 -1 -6 9.55 1.49
-1 -10 6 10.14 1.48
10 -11 6 11.49 1.39
11 -1 6 10.34 1.37
1 -11 -6 10.4 1.46
1 10 6 9.26 1.16
11 -1 6 10.65 1.39
10 1 -6 10.06 1.3
-11 10 -6 10.53 1.47
-1 11 -6 10.95 1.38
-11 1 6 11.76 1.48
11 -1 -6 12.58 1.48
1 10 -6 12.03 1.46
-10 -1 6 11.6 1.5
-10 11 -6 11.4 1.5
11 -10 6 11.27 1.36
-11 1 -6 13.45 1.64
10 -11 -6 11.03 1.2
1 -11 6 10.47 1.5
1 -11 6 8.87 1.37
-1 -10 -6 9.77 1.48
-10 -1 6 11.49 1.62
11 -1 -6 11.32 1.48
10 1 6 11.06 1.38
10 1 6 10.22 1.42
-11 0 -6 14.42 1.68
11 -11 -6 14.41 1.62
11 0 -6 14.42 1.62
-11 11 -6 13.76 1.51
0 -11 -6 13.15 1.55
0 11 -6 12.92 1.56
11 -11 6 15.64 1.54
0 -11 6 12.8 1.64
11 0 6 14.53 1.53
-11 0 6 14.4 1.78
11 -11 -6 11.49 1.25
0 -11 6 10.3 1.38
11 0 -6 12.37 1.5
6 6 6 44.26 3.1
-6 -6 -6 37.65 3.12
12 -6 6 46.07 3.12
-6 12 -6 38.58 3.08
-6 -6 -6 43.43 3.19
-12 6 -6 40.8 3.06
-6 -6 6 42.46 3.25
6 -12 -6 38.41 3.05
-12 6 -6 37.62 3.15
6 -12 6 46.05 3.19
12 -6 6 36.57 3.03
12 -6 -6 45.31 3.16
7 -12 6 47.17 3.27
-12 5 6 48.87 3.41
5 7 6 43.32 3.2
5 -12 -6 43.73 3.22
-7 -5 -6 40.05 3.28
12 -5 6 36.94 3.14
-5 -7 6 42.8 3.35
-12 7 -6 45.59 3.25
-5 12 -6 40.31 3.23
12 -7 -6 45.95 3.3
12 -5 6 45.75 3.21
-7 -5 -6 45.98 3.33
-5 12 -6 35.79 3.2
7 5 -6 49.98 3.37
-12 7 -6 37.04 3.27
12 -7 6 53.63 3.84
5 7 -6 56.04 3.94
7 5 6 52.62 3.85
-7 12 -6 53.52 3.9
-12 7 6 53.54 4
12 -5 -6 52.01 3.92
-7 -5 6 55.18 3.99
7 -12 -6 48.48 3.76
5 -12 6 55.18 3.93
-12 5 -6 54.55 4.02
-5 -7 -6 50.84 3.91
-8 -4 -6 30 2.44
-12 4 6 29.64 2.51
4 8 6 26.05 2.26
-4 -8 6 27.04 2.44
12 -4 6 24.64 2.23
-12 8 -6 29.34 2.35
12 -8 -6 28.92 2.35
8 4 -6 31.28 2.43
-4 12 -6 23.58 2.28
12 -4 6 27.31 2.31
-8 -4 -6 27.73 2.45
-4 12 -6 28.07 2.34
8 -12 6 30.29 2.39
4 -12 -6 28.94 2.3
-4 -8 -6 29.66 2.58
-12 4 -6 34.33 2.7
-8 12 -6 32.48 2.6
8 -12 -6 32.13 2.46
4 -12 6 31.35 2.62
8 4 6 33.64 2.58
-8 -4 6 34.26 2.73
4 8 -6 33.86 2.6
12 -8 6 32.04 2.53
12 -4 -6 33.08 2.59
-8 -4 6 29.08 2.58
-3 -9 6 13.63 1.75
-9 -3 -6 13.08 1.7
-12 3 6 16.73 1.75
-3 12 -6 12.25 1.54
3 -12 -6 14.08 1.59
9 -12 6 17.8 1.7
12 -3 6 15.78 1.61
12 -9 -6 17.15 1.69
3 9 6 14.92 1.54
-9 -3 -6 15.24 1.81
12 -3 6 15.21 1.55
-3 12 -6 15.25 1.68
-12 9 -6 15.47 1.7
9 3 -6 18.53 1.74
-9 -3 6 21.33 2.04
-12 9 6 18.52 1.95
9 -12 -6 21.77 1.83
-9 -3 6 20.93 2.06
12 -9 6 20.93 1.88
3 9 -6 23.32 2.02
12 -3 -6 22.58 2.03
-3 -9 -6 19.74 1.98
-9 12 -6 22.57 2.02
3 -12 6 19.44 1.95
-12 3 -6 25.76 2.22
9 3 6 22.74 1.96
12 -2 6 0.08 0.6
10 2 -6 0.38 0.84
-10 -2 -6 0.15 0.88
-2 12 -6 0.44 0.76
2 -12 -6 0.35 0.73
-2 12 -6 0.19 0.55
-12 10 -6 0.49 0.85
10 -12 6 0.31 0.73
-2 -10 6 0.59 0.85
2 -12 -6 -0.22 0.73
12 -10 -6 -0.1 0.71
-10 -2 -6 0.25 0.81
12 -2 6 0.34 0.78
-12 2 6 0.75 0.85
12 -10 -6 0 0.39
2 10 6 -0.05 0.63
-10 -2 6 0.05 0.79
10 2 6 -0.11 0.72
-10 -2 6 0.05 0.87
2 -12 6 0.78 0.81
12 -10 6 0.23 0.76
12 -2 -6 0.04 0.75
10 -12 -6 -0.13 0.61
2 -12 6 -0.05 0.78
-12 10 6 0.93 0.62
-10 12 -6 -0.27 0.77
-12 2 -6 0.6 0.92
12 -2 -6 0.76 0.84
-2 -10 -6 -0.41 0.73
2 10 -6 0.12 0.76
12 -10 6 -0.11 0.46
-12 1 6 17.9 1.96
-1 -11 6 15.49 1.82
11 1 -6 17.81 1.82
-1 12 -6 16.55 1.74
1 -12 -6 15.87 1.77
-12 11 -6 15.7 1.7
12 -11 -6 16.13 1.76
-11 -1 -6 14.59 1.73
12 -1 6 15.24 1.68
-11 -1 -6 18.9 1.94
12 -1 6 15.12 1.65
11 -12 6 17.23 1.74
11 -12 -6 17.1 1.62
-1 -11 -6 16.54 1.85
-11 -1 6 18.36 1.8
1 -12 6 16.55 1.86
1 -12 6 14.49 1.77
12 -1 -6 19.58 1.9
-11 12 -6 18.52 1.78
12 -11 6 19.6 1.79
-12 1 -6 22.77 1.98
11 1 6 17.36 1.84
1 11 -6 19.11 1.84
12 -1 -6 17.12 1.82
11 -12 -6 18.71 1.88
11 1 6 17.76 1.78
-11 -1 6 19.29 2.07
12 0 6 3.13 0.81
12 0 6 3.23 0.91
12 0 -6 3.64 0.98
12 0 -6 0.23 0.57
-12 0 -6 0.79 0.52
0 -12 6 0.88 0.63
12 -12 -6 3.66 1
0 -12 6 3.12 0.98
-12 12 -6 1.44 0.52
-12 0 6 2.41 0.97
-12 0 -6 3.08 1.04
12 -12 -6 1.88 0.62
12 -12 6 3.7 0.96
0 12 6 1.52 0.43
0 12 -6 2.16 0.83
0 -12 -6 3.74 1
-12 12 -6 4.66 1
7 6 -6 15.36 1.72
13 -6 6 14.65 1.51
6 -13 -6 13.84 1.47
-6 13 -6 12.07 1.51
13 -7 -6 14.04 1.63
-7 -6 -6 12.25 1.49
-13 7 -6 12.42 1.43
-6 13 -6 12.2 1.5
7 -13 6 14.58 1.63
6 7 6 14.19 1.45
-7 -6 -6 13.45 1.64
-13 6 6 16.65 1.87
13 -6 6 11.63 1.45
-6 -7 6 14.38 1.73
-13 7 -6 10.83 1.52
13 -6 -6 23.09 2.1
6 7 -6 24.54 2.14
-6 -7 -6 21.28 2.06
-13 6 -6 19.61 2.06
13 -7 6 23.49 1.98
-13 7 6 24.72 2.24
6 -13 6 24.02 2.11
-7 -6 6 20.56 2.12
7 6 6 22.52 2.02
13 -7 6 18.37 1.89
-8 -5 -6 13.1 1.67
-5 13 -6 10.43 1.48
5 -13 -6 11.52 1.43
8 5 -6 14.35 1.67
5 8 6 14.87 1.54
13 -8 -6 14.47 1.6
-13 8 -6 12.42 1.49
13 -5 6 12.7 1.5
-5 13 -6 12.18 1.49
13 -5 6 10.17 1.4
8 -13 6 13.99 1.61
-8 -5 -6 10.9 1.6
-13 5 6 13.33 1.81
-5 -8 6 11.21 1.66
5 8 -6 12.49 1.59
5 -13 6 11.42 1.53
-5 -8 -6 10.58 1.46
13 -8 6 7.86 1.24
-8 13 -6 11.02 1.51
-13 8 6 8.88 1.57
8 5 6 11.59 1.46
13 -5 -6 10.66 1.49
13 -8 6 10.2 1.4
-13 5 -6 11.86 1.49
-8 -5 6 10.18 1.58
8 -13 -6 11.32 1.3
-9 -4 -6 11.61 1.64
-4 13 -6 12.56 1.55
4 -13 -6 12.43 1.52
9 -13 6 13.29 1.56
13 -9 -6 12.72 1.46
9 4 -6 13.49 1.64
-4 -9 6 12.79 1.7
-13 4 6 12.59 1.78
-13 9 -6 12.54 1.53
4 9 6 13.8 1.46
13 -4 6 9.28 1.39
13 -4 6 12 1.45
-9 -4 -6 9.94 1.58
-4 13 -6 10.57 1.42
9 4 6 16.07 1.69
13 -4 -6 16.18 1.74
-13 9 6 16.52 1.81
-4 -9 -6 14.67 1.7
-13 4 -6 16.51 1.87
-9 -4 6 15.23 1.8
-9 -4 6 14.11 1.67
13 -9 6 15.63 1.62
-9 13 -6 15.76 1.75
4 -13 6 14.6 1.71
9 -13 -6 14.08 1.53
4 9 -6 17.19 1.76
10 -13 6 0.24 0.87
-10 13 6 -0.41 0.49
-10 -3 -6 -1.21 0.75
-3 13 -6 0.05 0.8
3 -13 -6 0.03 0.74
10 3 -6 -0.62 0.81
-3 -10 6 -0.32 0.94
-3 13 -6 0.25 0.53
10 -13 6 -0.68 0.34
-10 -3 -6 -0.14 0.9
-10 13 6 -0.06 0.38
-13 3 6 -1.06 0.46
3 10 6 0.23 0.3
-13 10 -6 -0.22 0.69
13 -3 6 -0.5 0.74
13 -3 6 -0.43 0.64
-13 3 6 -0.14 0.9
13 -10 -6 0.13 0.82
3 10 6 0.33 0.66
13 -10 6 -0.61 0.47
-10 13 -6 0.45 0.38
3 -13 6 0.12 0.8
3 10 -6 0.9 0.8
-13 10 6 0.45 0.7
-13 3 -6 0.81 0.86
-10 -3 6 0.36 0.84
-10 13 -6 0.99 0.87
-3 -10 -6 -0.14 0.77
10 3 6 1.05 0.74
13 -3 -6 0.54 0.81
-13 10 6 0.15 0.39
-13 3 -6 0.34 0.44
3 -13 6 0.21 0.5
10 -13 -6 0.55 0.62
-10 -3 6 0.5 0.93
13 -10 6 0.55 0.75
13 -11 -6 8.25 1.42
11 2 -6 8.3 1.43
13 -2 6 7.28 1.19
-11 -2 -6 6.33 1.17
-13 11 -6 7.04 1.08
-13 2 6 8.78 1.61
13 -2 6 5.07 0.96
2 11 6 6.74 0.92
2 -13 -6 6.35 1.14
11 -13 6 10.21 1.32
2 -13 -6 7.54 1.31
-11 13 6 5.64 0.99
-2 -11 6 10.64 1.41
-2 13 -6 8.23 1.4
-11 -2 -6 8.64 1.56
-11 -2 6 6.31 1.16
13 -2 -6 7.93 1.45
13 -11 6 7.59 1.32
-11 13 -6 7.41 1.04
-13 2 -6 8.79 1.25
11 2 6 6.26 1.03
2 -13 6 6.88 1.26
11 -13 -6 8.31 1.19
-11 13 -6 8.74 1.43
13 -2 -6 5.57 1.09
2 11 -6 10.49 1.33
2 -13 6 7.85 1.24
-13 2 -6 7.95 1.44
-11 -2 6 7.87 1.42
-2 -11 -6 9.45 1.28
-1 13 -6 5.69 1.06
1 -13 -6 6.61 1.11
12 1 -6 4.1 0.99
-12 -1 -6 4.55 0.82
1 12 6 4.77 0.71
-13 1 6 5.27 1.23
-13 12 -6 4.74 1
13 -12 -6 4.92 1.08
12 -13 6 5.23 1.08
-12 -1 -6 4.91 1.09
1 -13 -6 5.02 1.03
-1 -12 6 5.03 1.11
-13 12 -6 4.25 0.8
1 12 6 3.15 0.62
13 -1 6 4.25 0.9
-13 1 6 2.14 0.78
-12 13 6 3.23 0.9
-13 12 6 0.74 0.49
1 12 -6 2.91 0.96
12 -13 -6 2.5 1
-12 -1 6 0.04 0.76
-1 -12 -6 1.63 0.89
-12 13 -6 2.22 0.71
-13 1 -6 3.43 1.11
-13 1 -6 2.73 0.83
-1 13 6 1.29 0.57
1 -13 6 2.14 0.85
1 -13 6 1.75 0.86
13 -12 6 2.45 0.91
-13 12 6 0.3 0.55
13 -1 -6 0.14 0.57
12 1 6 1.16 0.74
-12 -1 6 2.12 1.01
-1 13 6 1.68 0.5
13 -1 -6 2.8 0.95
-12 13 -6 3.5 0.97
12 -13 -6 1.46 0.66
0 -13 6 17.18 1.82
0 13 -6 17.44 1.82
-13 13 -6 15.21 1.66
0 13 6 15.53 1.57
0 -13 -6 15.68 1.78
-13 0 -6 18.31 2
-13 13 -6 16.51 1.67
13 0 6 14.28 1.67
13 -13 6 17.06 1.8
-13 0 6 16.86 2.06
13 -13 -6 16.25 1.87
-13 0 -6 17.1 1.81
13 0 -6 16.96 1.86
-13 13 6 12.66 1.7
0 13 6 12.44 1.41
0 13 6 13.04 1.33
0 -13 -6 18.78 1.81
-7 14 -6 36.44 3.08
7 -14 6 44.95 3.19
14 -7 6 42.56 3.04
-7 -7 -6 44.05 3.2
-14 7 -6 33 3.1
7 7 -6 47.92 3.27
14 -7 6 33.91 2.98
-7 14 -6 32.5 2.96
-7 -7 6 42.28 3.24
14 -7 -6 44.22 3.21
14 -8 -6 5.95 1.12
-14 8 -6 2.81 0.89
8 -14 6 7.72 1.23
-6 14 -6 4.27 0.96
8 6 -6 5.08 1.05
-14 8 -6 2.99 0.89
-8 -6 -6 7.2 1.26
6 8 6 5.4 1
-6 -8 6 8.47 1.35
-6 14 -6 3.65 0.94
14 -6 6 4.9 0.89
14 -6 6 4.9 0.92
-14 6 6 6.84 1.36
6 -14 -6 4.85 0.99
14 -8 6 0.76 0.77
-6 -8 -6 2.38 0.98
-8 -6 6 2.12 1.06
-8 14 -6 -0.03 0.46
6 -14 6 1.56 0.93
14 -8 6 0.45 0.7
-14 8 6 1.17 0.97
8 -14 -6 0.78 0.67
-8 14 -6 1.58 0.82
14 -6 -6 1.15 0.84
8 6 6 1.5 0.88
-14 6 -6 1.42 0.89
6 8 -6 1.13 0.9
-6 14 6 0.44 0.49
-14 8 6 0.68 0.59
14 -5 6 0.3 0.57
-14 5 6 1.02 1.07
9 -14 6 0.16 0.53
-9 14 6 0.2 0.55
14 -9 -6 0.84 0.88
-14 5 6 -0.42 0.67
-9 -5 -6 0.91 0.9
-14 9 -6 0.07 0.63
-5 14 -6 1.38 0.76
-9 14 6 -0.19 0.5
-9 -5 -6 0.57 0.88
-5 14 -6 0.4 0.82
5 9 6 1.22 0.81
5 -14 -6 0.14 0.76
-5 -9 6 0.57 0.96
9 5 -6 0.78 0.98
5 9 6 0.12 0.39
9 -14 6 0.63 0.89
-14 9 -6 0.11 0.82
5 9 6 0.44 0.35
14 -5 6 0.77 0.74
-5 -9 6 -0.28 0.77
9 5 6 2.06 0.84
14 -9 6 2.07 0.85
14 -5 -6 2.49 0.93
-14 9 6 1.54 1.02
-5 -9 -6 1.41 0.9
-14 9 6 1.32 0.65
14 -9 6 0.79 0.7
5 -14 6 2.41 0.99
-14 5 -6 0.14 0.45
-9 14 -6 1.17 0.89
-9 -5 6 1.41 0.96
-9 14 -6 0.4 0.44
9 -14 -6 1.49 0.71
-5 14 6 1.08 0.52
5 9 -6 1.4 0.86
-14 5 -6 1.61 0.96
10 4 -6 9.29 1.55
4 -14 -6 8.1 1.38
10 -14 6 9.26 1.51
-14 10 -6 8.75 1.22
4 10 6 6.55 0.99
14 -10 -6 9.26 1.51
10 -14 6 6.63 1.01
4 10 6 11.45 1.45
-4 -10 6 9.37 1.6
-10 -4 -6 6.27 1.18
14 -4 6 6.89 1.03
-10 14 6 7.79 1.16
-14 4 6 9.27 1.64
-14 4 6 7.64 1.1
-4 14 -6 8.36 1.41
-10 14 6 7.53 1.32
-10 -4 -6 8.29 1.26
-4 -10 6 5.53 1.06
-4 -10 -6 15.91 1.75
4 -14 6 14.58 1.75
-10 -4 6 15.64 1.8
-10 14 -6 13.72 1.4
-14 4 -6 18.23 1.96
10 -14 -6 15.33 1.57
10 4 6 16.68 1.77
-10 14 -6 17.24 1.83
14 -10 6 15.62 1.66
-4 14 6 13.31 1.36
-14 10 6 16.27 1.58
-14 4 -6 16.01 1.65
-14 10 6 13.95 1.78
14 -4 -6 18.09 1.86
4 10 -6 18.77 1.86
-3 14 -6 0.86 0.87
-14 11 -6 0.39 0.45
-14 11 -6 0.44 0.79
3 11 6 0.09 0.4
-3 -11 6 -0.46 0.77
14 -3 6 -0.52 0.71
-11 -3 -6 0.65 0.99
-14 3 6 0.66 1.02
-14 3 6 -0.53 0.76
3 -14 -6 -0.42 0.75
11 3 -6 0.29 0.93
11 -14 6 0.08 0.52
3 11 6 0.26 0.77
3 11 6 0.35 0.58
-11 -3 -6 0.49 0.85
-11 14 6 0.2 0.8
11 -14 6 0.48 0.86
14 -11 -6 0.37 0.91
-3 -11 6 0.75 0.94
3 11 -6 0.39 0.82
14 -11 6 0.32 0.8
11 3 6 0.02 0.36
11 -14 -6 0.31 0.67
-11 14 -6 0.23 0.83
-11 -3 6 0.25 0.9
11 3 6 -0.35 0.78
14 -3 -6 0.24 0.85
14 -3 -6 0.23 0.83
-3 14 6 0 0.28
-11 -3 6 0.34 0.83
-3 -11 -6 0.81 0.86
-14 3 -6 -0.45 0.94
14 -11 6 -0.21 0.49
-14 3 -6 0.71 0.81
-11 14 -6 0.16 0.64
-3 14 6 0.45 0.53
-14 11 6 0.28 0.71
3 -14 6 0.52 0.87
12 2 -6 0 0.87
14 -12 -6 0.28 0.88
2 -14 -6 0.41 0.81
-14 12 -6 -0.4 0.78
2 12 6 0.35 0.58
-2 14 -6 0.66 0.89
14 -2 6 0.12 0.76
-12 -2 -6 0.94 1.02
2 12 6 -0.4 0.57
14 -2 6 -0.08 0.31
12 -14 6 -0.13 0.51
-14 2 6 0.25 0.78
12 -14 6 0.58 0.94
-12 -2 -6 0.38 0.67
-2 -12 6 -1.24 0.76
2 12 6 0.36 0.53
-12 14 6 -0.08 0.82
-2 -12 6 0.57 0.98
-12 -2 -6 0.86 0.69
-14 2 6 0.19 0.96
-14 12 -6 0.26 0.7
-12 14 -6 -0.12 0.79
12 -14 -6 -0.08 0.63
14 -2 -6 0.35 0.63
-14 2 -6 0.41 0.81
2 -14 6 1.22 0.89
12 2 6 -0.17 0.81
14 -2 -6 0.14 0.9
-12 -2 6 0.11 0.58
-2 -12 -6 -0.17 0.86
-2 14 6 0 0.43
-12 -2 6 0.01 1
14 -12 6 0.21 0.8
-14 12 6 -0.17 0.69
-2 14 6 -0.19 0.51
-14 12 6 -0.02 0.54
12 2 6 0.4 0.48
2 12 -6 0.3 0.88
2 -14 6 0.15 0.63
-12 14 -6 0.83 0.7
-14 2 -6 0.37 0.99
-1 14 -6 8.63 1.27
1 -14 -6 8.44 1.24
-1 -13 6 8.21 1.27
-14 1 6 5.72 1.02
1 13 6 5.43 0.86
14 -1 6 7.3 1.08
1 13 6 5.82 1.02
13 -14 6 4.65 0.75
1 13 6 5.41 0.79
-14 13 -6 8.06 1.06
13 -14 6 7.93 1.23
-13 -1 -6 8 1.38
-14 13 -6 7.3 1.18
-13 14 6 6.07 1.09
14 -1 6 4.76 0.74
-13 -1 -6 6.51 1.02
14 -13 -6 8.65 1.33
-14 1 6 8.43 1.47
-14 13 6 6.09 1.02
13 1 6 6.18 0.77
14 -1 -6 4.84 1.1
-14 1 -6 6.54 1.24
13 -14 -6 3.24 0.74
13 1 6 4.45 0.95
-1 14 6 5.74 0.75
-14 13 6 4.49 0.9
-13 -1 6 5.17 1.22
-13 14 -6 5.63 1.07
1 13 -6 5.17 1.07
-14 13 6 4.6 0.81
13 -14 -6 6.36 1.22
-13 14 -6 6.73 0.95
-14 1 -6 7.96 1.06
-13 -1 6 4.34 0.85
14 -13 6 7.01 1.15
-1 -13 -6 8.64 1.26
-1 -13 -6 5.66 1.1
-1 14 6 3.75 0.72
-14 0 6 0.24 0.75
14 -14 6 1.05 0.92
-14 14 6 0.14 0.79
-14 14 6 0.45 0.68
14 -14 6 0.66 0.52
-14 0 -6 0.58 0.81
0 14 -6 0.68 0.84
-14 0 6 0.2 1.07
14 0 6 0.28 0.76
0 -14 -6 1.15 0.96
-14 0 -6 0.5 0.92
14 -14 -6 0.17 0.9
0 -14 -6 0.5 0.72
14 0 -6 1.11 0.96
14 0 6 0.79 0.56
-14 14 -6 0.82 0.78
0 -14 6 0.6 0.76
0 14 6 0.87 0.6
0 14 6 1.03 0.59
14 -14 -6 0.05 0.7
-14 14 6 0.67 0.56
-14 14 -6 0.41 0.91
-8 15 6 3.56 0.74
15 -8 -6 2.39 1
7 8 6 4.9 1.05
8 7 -6 5.52 1.2
-7 15 -6 2.65 0.88
7 -15 -6 0.76 0.62
-15 8 -6 2.21 0.9
-7 -8 6 4.19 1.14
-7 -8 6 2.49 0.92
-8 -7 -6 4.62 1.13
-7 15 -6 2.94 0.83
-15 7 6 3.53 1.18
7 8 6 3.57 0.63
-15 7 6 2.48 0.67
8 -15 6 2.06 0.94
8 -15 6 3.52 0.73
-15 7 6 3.12 0.84
15 -7 6 1.89 0.75
7 8 6 2.23 0.47
-15 8 6 5.29 1.34
7 -15 6 5.07 0.81
-7 15 6 3.46 0.73
-15 7 -6 3.1 0.98
8 -15 -6 4.27 0.85
7 -15 6 3.92 1.05
15 -7 -6 6.17 1.19
-8 -7 6 4.62 1.05
8 7 6 6.45 1.11
-7 -8 -6 6.19 1.15
-8 -7 6 6.12 1.28
-8 15 -6 4.19 0.97
7 8 -6 6.93 1.24
8 7 6 4.38 0.7
-15 8 6 5.52 0.93
15 -8 6 3.82 0.89
6 9 6 17.21 1.82
-9 -6 -6 14.4 1.88
9 6 -6 18.17 1.92
-9 15 6 13.64 1.56
-6 15 -6 14.32 1.68
-15 6 6 16.97 2.11
6 -15 -6 14.37 1.64
6 9 6 15.47 1.42
15 -9 -6 18 1.89
9 -15 6 17.36 1.91
15 -6 6 12.14 1.59
-6 -9 6 16.45 1.97
6 9 6 14.41 1.35
-15 6 6 12.86 1.76
-15 9 -6 13.87 1.63
-9 15 6 14.41 1.51
-6 -9 6 12.62 1.77
9 -15 6 14.75 1.46
9 6 6 20.1 1.59
-9 15 -6 15.7 1.75
6 -15 6 17.93 1.62
-6 -9 -6 18.12 1.92
6 9 -6 19.61 2
9 -15 -6 17.6 1.74
-15 9 6 18.2 1.73
-6 15 6 16.02 1.66
15 -6 -6 19.76 2.01
-9 -6 6 19.89 2.08
-15 6 -6 16.63 1.95
9 6 6 19.66 1.89
-15 9 6 16.44 2.1
6 -15 6 19.51 1.99
15 -9 6 12.98 1.71
-10 -5 -6 -0.41 0.8
5 10 6 -0.5 0.55
-10 15 6 0.01 0.8
-15 5 6 0.6 1.04
-15 10 -6 0.05 0.87
5 10 6 0.28 0.58
-10 -5 -6 -0.01 0.85
-5 15 -6 0 0.84
10 -15 6 -0.3 0.89
-5 -10 6 1.26 1.05
-10 15 6 0.09 0.69
-5 -10 6 -0.61 0.86
5 -15 -6 -0.06 0.82
15 -5 6 -0.52 0.68
5 10 6 -0.5 0.82
10 5 -6 0.06 0.95
15 -10 -6 -0.17 0.92
-15 5 6 -0.68 0.81
10 -15 6 -0.06 0.58
15 -5 6 -0.22 0.4
-5 15 6 0.98 0.66
5 10 -6 0.5 0.95
-5 -10 -6 0.75 0.89
-15 5 -6 0.43 0.98
-10 15 -6 0.94 0.65
10 5 6 0.63 0.59
15 -5 -6 0.09 0.9
10 5 6 0.87 0.89
10 -15 -6 0.47 0.72
-10 15 -6 0.47 0.82
5 -15 6 0.34 0.58
-15 10 6 0.37 0.73
15 -10 6 -0.64 0.6
15 -10 6 0.52 0.57
-5 15 6 0.45 0.39
-15 5 -6 0.26 0.78
5 -15 6 1.02 0.91
-15 10 6 1.51 0.99
-10 -5 6 0.5 0.87
-4 15 -6 1.17 0.87
-11 -4 -6 1.11 0.91
4 -15 -6 1.19 0.86
11 4 -6 1.06 0.98
-15 11 -6 0.72 0.63
11 -15 6 0.33 0.95
4 11 6 1.48 0.62
-11 -4 -6 1.02 0.89
-11 15 6 1.53 0.88
11 -15 6 1.21 0.63
-15 4 6 2.26 1.16
-4 -11 6 1.06 0.93
4 11 6 0.93 0.81
-15 4 6 0.26 0.82
15 -4 6 -0.3 0.68
15 -11 -6 1.17 0.96
-4 -11 6 1.01 0.99
4 11 6 0.2 0.57
-15 11 -6 0.67 0.9
15 -4 6 0.4 0.34
-11 -4 6 0.6 0.84
15 -4 -6 0 0.88
11 4 6 0.84 0.61
-11 15 -6 0.7 0.7
-15 4 -6 -0.05 0.86
15 -11 6 -0.17 0.53
15 -11 6 0.36 0.65
-4 -11 -6 -0.02 0.88
11 4 6 0.96 0.91
-15 11 6 0.44 0.73
4 -15 6 -0.73 0.47
-4 15 6 0.55 0.63
-4 15 6 -0.04 0.49
4 11 -6 0.45 0.93
-11 15 -6 0.43 0.89
4 -15 6 0.71 0.85
11 -15 -6 0.03 0.69
-15 4 -6 0.6 0.85
-15 12 -6 1.44 0.79
12 -15 6 1.66 0.63
12 3 -6 3.28 1.11
-3 15 -6 2.34 0.97
3 12 6 1.46 0.63
-3 -12 6 1.27 0.95
-15 3 6 2.37 1.17
-12 -3 -6 2.01 1.05
-12 15 6 2.95 0.95
12 -15 6 1.82 0.97
15 -12 -6 2.85 1.08
-15 3 6 1.91 0.84
15 -3 6 1.69 0.5
3 -15 -6 2.41 0.93
-3 -12 6 2.83 1.07
-12 -3 -6 0.74 0.71
-15 12 -6 1.88 0.92
15 -3 6 0.61 0.75
-12 -3 -6 1.37 0.67
3 12 6 1.63 0.66
12 -15 -6 2.65 0.73
12 3 6 5.19 1.06
3 -15 6 4.28 1.05
-12 15 -6 2.62 0.92
15 -12 6 2.18 0.76
-15 3 -6 4.93 0.96
-3 -12 -6 4.7 1.1
-15 12 6 1.78 0.59
-15 3 -6 4.05 1.15
-3 15 6 3.31 0.72
-12 -3 6 1.08 0.71
-12 -3 6 2.19 0.91
-3 15 6 2.36 0.62
-15 12 6 4.59 0.9
-3 -12 -6 4.24 1.04
15 -3 -6 4.03 1.13
3 12 -6 2.47 0.95
12 3 6 3.47 0.7
-12 15 -6 4.96 0.89
15 -2 6 2.03 0.8
13 -15 6 2.96 1.07
-15 13 -6 4.49 1.07
2 13 6 2.9 0.7
15 -13 -6 5.43 1.2
-2 -13 6 3.67 1.07
2 -15 -6 4.4 1.08
-13 15 6 5.02 1.05
-2 15 -6 4.4 1.1
-15 13 -6 2.66 0.86
-13 -2 -6 3.19 1.11
2 13 6 3.87 0.73
-2 -13 6 3.94 1.04
15 -2 6 3.08 0.66
-15 2 6 5.2 0.96
-15 2 6 3.24 1.14
13 -15 6 3.94 0.72
-13 -2 -6 4.38 0.89
13 2 -6 4.33 1.15
-2 15 6 3.32 0.73
-13 15 -6 5.69 0.91
13 2 6 4.31 0.76
-13 -2 6 3.49 1.16
-2 15 6 5.44 0.75
-15 13 6 3.13 0.86
13 2 6 3.25 0.92
-2 -13 -6 4.36 1.04
-15 13 6 3.56 0.87
15 -2 -6 5.33 1.16
-2 -13 -6 4.36 1.06
-15 2 -6 4.75 1.15
15 -13 6 2.9 0.81
2 -15 6 2.8 0.83
13 -15 -6 3.64 1.08
-13 15 -6 5.47 1.13
2 13 -6 5.68 1.14
-15 13 6 3.66 0.91
14 1 -6 2.36 1.05
1 -15 -6 2.64 1
15 -1 6 0.65 0.77
-14 -1 -6 1.62 0.82
14 -15 6 1.02 0.94
1 14 6 1.38 0.64
-15 14 -6 0.66 0.88
15 -1 6 1.68 0.6
-15 1 6 1.58 0.81
-15 14 -6 2.76 0.9
14 -15 6 1.75 0.63
-14 15 6 0.74 0.72
15 -14 -6 2.91 1.1
1 14 6 1.49 0.63
-1 15 -6 1.66 0.93
-15 1 6 1.64 1.11
-14 -1 -6 1.2 1.05
-1 -14 6 2.14 0.89
-14 15 6 1.92 0.88
-1 -14 6 1.67 0.87
-1 -14 -6 2.4 0.87
-1 15 6 2.5 0.65
-15 1 -6 2.45 0.85
-15 14 6 0.82 0.78
-1 -14 -6 2.79 1.03
-14 -1 6 1.42 0.76
1 14 -6 1.58 0.91
14 1 6 0.77 0.82
14 1 6 2.58 0.68
-14 15 -6 2.34 1
-1 -14 -6 1.28 0.82
-14 -1 6 1.09 1.02
-15 1 -6 2.92 1.16
15 -14 6 0.91 0.49
15 -1 -6 2.27 1.07
15 -14 6 0.87 0.66
-15 14 6 2.7 0.82
-14 15 -6 2.55 0.84
-1 15 6 1.12 0.63
-15 14 6 1.11 0.76
14 -15 -6 2.33 1.1
-15 15 -6 7.27 1.01
15 0 -6 3.89 1.09
-15 15 6 4.33 0.88
15 0 6 4.04 0.94
-15 0 -6 4.36 0.92
0 15 6 6.08 0.84
15 0 6 5.07 0.75
15 -15 6 4.77 0.72
0 15 -6 4.84 1.14
-15 0 6 5.33 0.92
15 -15 -6 3.51 1.11
-15 0 -6 5.71 1.28
-15 15 6 4.94 0.97
-15 15 -6 4.26 1.06
0 -15 -6 6.05 1.14
0 15 6 6.4 0.8
-15 0 6 3.05 1.13
-15 15 6 2.82 0.78
8 -16 -6 8.53 1.34
16 -8 -6 8.21 1.35
8 8 6 7.68 0.98
-16 8 6 6.3 1.05
8 8 6 10.05 1.57
-16 8 6 8.59 1.3
-8 16 -6 7.44 1.3
8 8 -6 9.74 1.64
-8 -8 6 11.03 1.74
16 -8 6 6.05 1.03
8 -16 6 7.8 1.14
-8 -8 6 6.6 1.18
-8 16 6 8.19 1.24
-8 -8 -6 10.1 1.6
-16 8 6 10.31 1.61
8 8 6 10.45 1.23
-16 8 -6 7.66 1.4
8 -16 6 9.47 1.62
-7 -9 6 13.53 1.88
16 -9 -6 14.75 1.85
-9 16 6 9.87 1.4
9 -16 6 12.17 1.33
-16 7 6 14.21 2.05
-16 7 6 11.35 1.35
9 -16 6 14.57 1.84
7 9 6 10.76 1.26
-7 -9 6 11.37 1.72
-9 -7 -6 11.88 1.74
-16 7 6 11.27 1.69
7 9 6 14.78 1.74
-9 16 6 12.01 1.4
9 7 -6 13.26 1.8
7 9 6 13.18 1.4
7 -16 -6 10.88 1.46
9 7 6 10.06 1.53
-7 16 6 8.82 1.2
7 -16 6 10.2 1.6
-16 9 6 9.49 1.57
9 -16 -6 8.8 1.14
-16 9 6 9.33 1.35
-16 7 -6 7.22 0.99
-9 -7 6 8.67 1.29
9 7 6 10.26 1.23
-7 -9 -6 10.24 1.58
7 9 -6 10.1 1.59
-16 7 -6 7.35 1.27
7 -16 6 9.34 1.23
-9 16 -6 5.82 1.11
-9 -7 6 9.83 1.71
-7 16 6 8.25 1.02
-9 16 -6 6.93 0.98
16 -7 -6 9.61 1.69
16 -6 6 0.21 0.42
-6 16 -6 1.06 0.84
6 10 6 0.04 0.91
6 -16 -6 0.34 0.79
-16 6 6 0.29 0.56
-6 -10 6 0.98 0.95
10 6 -6 0.16 0.99
10 -16 6 0.04 0.6
10 -16 6 -0.07 1.01
16 -6 6 -0.52 0.72
16 -10 -6 -0.26 0.95
6 10 6 0.38 0.6
-10 16 6 0.53 0.68
-16 10 -6 0.25 0.66
-10 -6 -6 0.87 0.94
-16 6 6 0.27 0.81
-10 16 6 0.99 0.84
-6 -10 6 0.84 1
-16 6 6 0.91 1.12
6 10 6 0.2 0.62
-16 6 -6 0.55 0.98
-10 -6 6 0.46 0.88
-10 16 -6 0.88 0.65
-6 -10 -6 0.41 0.87
-6 16 6 0.52 0.55
6 10 -6 0.53 1.01
16 -10 6 -1.09 0.57
6 -16 6 0.67 0.66
10 6 6 0.92 0.65
-16 10 6 0.53 0.75
10 6 6 0.66 0.89
16 -6 -6 0.41 0.99
10 -16 -6 0.17 0.71
-10 16 -6 1.29 0.82
6 -16 6 0.83 0.97
-10 -6 6 -0.7 0.8
-16 6 -6 0.97 0.75
-16 10 6 0.54 0.92
-6 16 6 0.76 0.68
-16 11 -6 0.36 0.86
-16 11 -6 1.03 0.69
16 -5 6 0.3 0.48
-16 5 6 1.23 1.15
5 11 6 0.43 0.63
-5 -11 6 1.05 1.02
5 11 6 1.17 0.94
16 -5 6 0.02 0.73
-5 -11 6 1.66 1.13
11 -16 6 0.3 0.6
-11 16 6 0.55 0.87
-11 -5 -6 1.11 0.91
11 5 -6 -0.03 1
5 -16 -6 0.06 0.86
-16 5 6 0.54 0.79
11 -16 6 1.07 1.05
-5 16 -6 0.31 0.88
16 -11 -6 0.23 0.96
5 11 6 0.8 0.62
-11 -5 -6 0.18 1.06
-16 5 6 0.28 0.33
-16 5 -6 0.85 0.8
5 -16 6 0.99 0.94
-16 11 6 0.74 0.71
-5 16 6 0.17 0.64
16 -5 -6 0.87 1.07
-16 5 -6 0.98 1.05
5 -16 6 -0.4 0.59
11 -16 -6 0.33 0.72
-5 -11 -6 1.17 0.9
11 5 6 0.88 0.64
-11 16 -6 -0.1 0.82
-11 -5 6 -0.92 0.69
11 5 6 0.45 0.95
-5 16 6 0.52 0.56
5 11 -6 0.38 0.98
-11 16 -6 0.77 0.71
-11 -5 6 0.68 0.85
-4 16 -6 13.43 1.76
-12 16 6 15.57 1.8
-16 12 -6 14.78 1.78
16 -4 6 12.28 1.36
4 12 6 14.16 1.53
16 -12 -6 15.09 1.94
12 4 -6 16.35 2
12 -16 6 12.77 1.43
-16 4 6 16.31 2.08
-4 -12 6 18.2 1.98
4 -16 -6 13.94 1.75
-16 12 -6 13.86 1.7
4 12 6 15.36 1.46
-4 -12 6 14.01 1.94
12 -16 6 15.19 1.9
-16 4 6 14.2 1.76
16 -4 -6 18.46 2.03
4 -16 6 15.13 1.53
-4 16 6 15.58 1.61
-12 16 -6 16.38 1.86
-16 4 -6 19.14 1.85
-16 12 6 15.95 1.7
-4 -12 -6 16.08 1.88
12 4 6 20.13 1.63
4 -16 6 15.43 1.87
4 12 -6 16.89 1.97
-4 16 6 16.96 1.53
-4 -12 -6 17.03 1.9
-16 4 -6 19.93 2.07
12 -16 -6 13.18 1.58
-12 16 -6 17.43 1.68
12 4 6 17.59 1.88
3 -16 -6 5.81 1.1
-16 3 6 7.1 1.03
-3 -13 6 6.84 1.27
-16 13 -6 5.9 1.01
3 13 6 9.26 0.94
-3 16 -6 8.04 1.44
16 -3 6 7.46 0.84
-13 -3 -6 4.53 1.1
-16 13 -6 6.12 1.19
-13 -3 -6 6.19 0.97
13 -16 6 7.21 0.86
3 13 6 4.65 0.83
16 -13 -6 6.31 1.27
-16 3 6 7.35 1.45
13 -16 6 7.83 1.35
-13 16 6 6.49 1.11
13 3 -6 4.69 1.2
-3 -13 6 8.14 1.21
3 13 -6 4.54 1.07
-3 16 6 4.74 0.82
16 -3 -6 5.17 1.17
-16 13 6 5.88 1
13 3 6 5.31 0.77
3 -16 6 4.27 0.95
-13 16 -6 6.85 0.98
3 -16 6 5.08 0.77
13 -16 -6 4.7 1.15
-16 3 -6 6.15 1.23
-3 -13 -6 5.1 1.09
-16 13 6 5.45 0.96
-3 16 6 8.21 1.14
-13 16 -6 8.16 1.27
13 3 6 7.61 1.16
-16 3 -6 8.74 1.39
-3 -13 -6 4.33 1.03
-2 -14 6 1.84 0.91
-16 2 6 1.76 1.13
14 -16 6 1.3 0.92
14 2 -6 0.72 0.99
-2 -14 6 1.64 0.85
-14 -2 -6 1.37 0.82
14 -16 6 0.81 0.6
16 -2 6 1.82 0.6
2 14 6 1.38 0.64
16 -14 -6 2.26 1.03
-2 16 -6 1.86 0.94
-14 16 6 0.96 0.61
-16 14 -6 1.76 0.84
-16 2 6 1.44 0.78
-16 14 -6 1.12 0.98
16 -2 6 0.51 0.74
-14 -2 -6 0.36 0.88
-14 16 6 1.36 0.84
2 14 6 1.07 0.62
2 -16 -6 2.13 1
-16 14 6 0.75 0.76
2 14 -6 2.3 1
-14 16 -6 3.28 0.82
-2 -14 -6 2.76 0.93
-2 -14 -6 1.43 0.74
16 -2 -6 1.61 1.05
-16 14 6 2.64 0.81
-2 16 6 2.61 0.67
14 2 6 2.03 0.66
-16 2 -6 2.13 1.12
14 2 6 1.17 0.85
-14 -2 6 1.33 0.71
-16 14 6 1.13 0.77
14 -16 -6 2.06 1.05
2 -16 6 -0.05 0.5
-14 16 -6 1.08 0.87
-2 16 6 1.36 0.66
-2 -14 -6 2.26 1
-16 2 -6 2.22 0.85
-14 -2 6 0.06 0.87
1 15 6 6.54 0.81
-15 16 6 4.83 0.96
15 1 -6 6.38 1.26
16 -1 6 6.44 0.79
-16 15 -6 5.69 1.13
-15 -1 -6 3.7 1.06
-15 16 6 4.88 0.9
1 -16 -6 6.14 1.17
-15 -1 -6 7.03 1.02
15 -16 6 4.27 0.74
1 15 6 5.93 0.82
16 -1 6 3.64 0.89
-1 -15 6 5.82 1.04
-1 16 -6 5.34 1.11
-16 15 -6 6.34 0.98
16 -15 -6 5.88 1.29
-16 1 6 4.61 0.9
-16 1 6 5.18 1.26
-1 -15 -6 6.43 1.07
15 1 6 5.44 0.82
15 -16 -6 5.51 1.26
-16 15 6 5.89 0.93
1 15 -6 4.8 1.13
-1 -15 -6 4.18 1.05
-1 16 6 6.48 0.81
16 -15 6 4.13 0.66
-15 -1 6 7.69 0.98
-16 15 6 6.25 1.01
-15 16 -6 4.8 1.06
-16 1 -6 7.97 1.03
15 1 6 5.63 1.04
-15 16 -6 8.3 1.01
-16 1 -6 4.83 1.15
-1 16 6 6.33 0.87
-16 15 6 4.72 0.93
16 -1 -6 5.47 1.22
-16 0 6 2.56 0.79
16 -16 -6 1.5 0.95
0 16 6 1.46 0.65
0 16 6 1.71 0.61
-16 16 6 1.73 0.78
-16 16 6 0.87 0.7
16 0 6 2.09 0.65
-16 0 -6 0.62 0.84
-16 16 -6 1.8 0.93
16 -16 -6 0.38 0.52
0 16 -6 1.3 0.82
-16 16 6 1.01 0.8
-16 0 -6 1.87 0.78
16 0 -6 0.87 0.81
-16 0 6 0.06 0.64
-16 16 -6 2.2 0.8
0 -16 -6 1.46 0.93
16 0 6 0.57 0.63
16 -16 6 1.83 0.59
8 -17 -6 0.41 0.75
9 -17 6 0.46 1
8 9 6 0.44 0.92
9 8 -6 0.67 1.03
-8 -9 6 1.05 1
9 -17 6 -0.22 0.58
-9 17 6 0.05 0.68
8 9 6 0.37 0.56
-17 8 6 0.92 1.14
-9 17 6 0.19 0.67
-17 8 6 0.65 0.66
17 -9 -6 0.27 1.08
8 9 6 0.66 0.62
-8 -9 6 0.21 0.93
17 -8 6 -1.21 0.58
-17 8 6 0.47 0.78
-9 -8 -6 -0.09 0.92
17 -8 6 0.12 0.51
-9 -8 -6 0.88 0.85
-17 9 -6 -0.29 0.43
17 -8 -6 0.08 0.94
-9 17 -6 0.68 0.46
-17 9 6 0.98 0.71
8 -17 6 -0.09 0.6
-17 8 -6 0.16 0.64
8 -17 6 0.77 0.97
-9 17 -6 0.14 0.57
17 -9 6 0.36 0.48
-17 9 6 0.42 0.8
-9 -8 6 -0.67 0.89
9 -17 -6 0.1 0.68
8 9 -6 -0.29 0.93
-8 17 6 0.39 0.51
-8 -9 -6 0.02 0.9
17 -9 6 -0.77 0.51
9 8 6 0.06 0.89
9 8 6 0.2 0.51
-17 8 -6 -0.2 0.7
-9 -8 6 -0.01 0.99
-8 -9 -6 0.32 0.8
9 8 6 -0.08 0.61
-17 9 6 -0.19 1.02
-8 17 6 0.82 0.69
10 -17 6 -0.4 0.59
7 10 6 -0.35 0.55
-17 7 6 0.43 0.66
-7 -10 6 1.02 1
-10 -7 -6 -0.37 0.87
10 7 -6 -0.87 0.98
-17 7 6 -0.18 0.81
7 10 6 0.3 0.92
-7 -10 6 0.49 0.95
7 10 6 0.45 0.62
-10 -7 -6 0.36 0.84
-17 7 6 -0.77 1.03
-7 17 -6 0 0.69
10 -17 6 0.07 1
17 -7 6 0.15 0.52
7 -17 -6 0.47 0.71
17 -10 -6 -0.41 1.01
-10 17 6 -0.02 0.73
17 -7 6 -0.9 0.63
17 -7 -6 0.12 1.06
-7 -10 -6 1.04 0.84
17 -10 6 -0.37 0.73
-7 17 6 0.64 0.54
7 -17 6 0.01 0.92
7 10 -6 0.28 1.01
-17 7 -6 0.14 0.88
-17 10 6 -0.05 0.67
-17 10 6 0.83 0.73
-10 17 -6 0.54 0.68
17 -10 6 0.39 0.42
10 -17 -6 0.64 0.67
7 -17 6 1.08 0.65
-10 -7 6 1.11 0.97
-10 -7 6 0.54 0.86
-17 10 6 0.37 0.79
-7 17 6 0.51 0.68
-10 17 -6 0.42 0.63
-7 -10 -6 0.72 0.95
10 7 6 -0.09 0.85
-17 7 -6 0.06 0.68
10 7 6 0.53 0.62
10 7 6 0.35 0.32
17 -11 -6 8.14 1.36
-17 6 6 7.12 1.42
-17 6 6 8.64 1.11
11 -17 6 5.7 1.23
17 -6 6 6.64 0.82
-11 -6 -6 4.77 1.05
6 11 6 8.03 1.2
-17 6 6 7.33 1.09
-6 -11 6 11 1.72
6 11 6 7.38 0.9
11 -17 6 6.92 1.06
-11 17 6 8.35 1.41
-17 11 -6 5.08 0.84
11 6 -6 9.01 1.42
-11 -6 -6 7.87 1.15
6 11 6 6.44 1.13
-6 -11 6 7.57 1.23
-6 17 6 7.46 1.04
-17 6 -6 10.32 1.44
6 11 -6 6.17 1.19
-6 17 6 6.41 1.12
-17 6 -6 7.56 1.34
-17 11 6 6.38 0.96
-6 -11 -6 8.19 1.49
-6 -11 -6 7.64 1.18
17 -6 -6 8.06 1.31
-6 -11 -6 7.19 1.16
11 -17 -6 4.74 0.85
6 -17 6 7.77 1.15
6 -17 6 9.11 1.54
-11 -6 6 4.35 1.01
-11 17 -6 6.46 0.92
-11 -6 6 5.93 1.06
11 6 6 8.78 1.16
-11 17 -6 5.49 1.06
11 6 6 6.34 1.09
-5 -12 6 4.81 1.07
12 -17 6 3.92 0.71
17 -5 6 1.55 0.77
5 -17 -6 1.38 0.75
12 5 -6 2.17 1.03
-17 5 6 4.35 0.92
-5 17 -6 1.86 0.76
17 -5 6 2.1 0.59
-12 17 6 2.87 0.91
5 12 6 3.3 0.68
5 12 6 1.28 0.67
-12 -5 -6 2.77 0.88
-17 12 -6 2.15 0.78
17 -12 -6 4.28 1.21
-17 5 6 3.47 1.2
12 -17 6 2.69 1.08
-17 12 -6 0.46 0.65
-5 -12 6 3.12 1.1
12 5 6 1.81 0.87
-5 -12 -6 3.52 1.06
-12 17 -6 3.55 1
-5 -12 -6 4.02 0.94
-12 17 -6 2.95 0.8
-5 17 6 3 0.67
-12 -5 6 1.96 0.8
12 5 6 3.42 0.71
-5 -12 -6 3.76 1.01
5 -17 6 4.26 0.72
-17 5 -6 2.84 1.09
5 -17 6 3.31 0.98
-17 12 6 3 0.79
17 -5 -6 2.16 1.04
-5 17 6 3.14 0.75
5 12 -6 3.07 1.01
-17 5 -6 4.98 0.93
13 -17 6 1.67 0.97
4 13 6 2.54 0.68
17 -13 -6 2.31 1.06
-13 17 6 3.07 0.9
-17 4 6 4.11 0.89
-4 17 -6 1.39 0.76
4 13 6 2.39 0.7
4 -17 -6 1.99 0.88
13 -17 6 2.89 0.66
-17 13 -6 2.17 0.85
-17 4 6 1.85 1.1
-17 13 -6 3.01 0.83
13 4 -6 2.33 1.11
17 -4 6 0.67 0.68
-13 -4 -6 2.91 0.74
17 -4 6 2.23 0.61
-4 -13 6 3.47 1.09
-4 -13 6 2.88 0.98
4 -17 6 1.32 0.69
4 -17 6 1.31 0.63
13 4 6 2.45 0.68
-13 17 -6 2.02 0.99
13 4 6 2.33 0.94
-4 -13 -6 1.86 0.89
13 -17 -6 1.65 1.01
-17 13 6 2.22 0.78
-13 17 -6 2.81 0.82
-4 17 6 1.88 0.72
-4 17 6 2.1 0.65
-17 4 -6 2.55 0.87
-4 -13 -6 2.09 1.02
17 -4 -6 1.94 1.03
-17 4 -6 1.71 1.06
-17 13 6 1.9 0.66
-4 -13 -6 2.6 0.92
4 13 -6 1.47 0.89
17 -14 -6 2.14 1.02
-14 17 6 3.94 0.93
-3 -14 6 3.36 0.97
-14 -3 -6 3.13 0.83
3 14 6 3.07 0.68
14 -17 6 0.97 0.68
-17 14 -6 2.17 0.8
3 14 6 2.03 0.68
-3 17 -6 1.89 0.77
3 -17 -6 2.49 0.87
14 -17 6 2.86 0.66
-17 3 6 3.27 0.82
-17 3 6 3.02 1.14
-17 14 -6 2.49 0.93
17 -3 6 2.79 0.64
14 3 -6 2.02 1.07
-3 -14 6 1.56 0.74
17 -3 -6 3.24 1.11
-3 -14 -6 4.73 0.99
-17 3 -6 5.12 0.93
14 -17 -6 3.68 1.06
-17 14 6 3.31 0.87
-14 17 -6 4.27 0.87
-3 17 6 2.82 0.75
-3 17 6 3.98 0.7
-17 3 -6 3.45 1.14
-17 14 6 3.15 0.79
-3 -14 -6 4.08 1.07
-14 17 -6 1.84 0.91
3 14 -6 1.92 0.94
-17 14 6 2.85 0.89
14 3 6 3.54 0.93
3 -17 6 2.55 0.68
14 3 6 2.84 0.68
17 -15 -6 6.01 1.21
2 -17 -6 4.24 1
2 15 6 6.88 0.82
-17 2 6 8.1 1.29
-2 -15 6 6 1.04
-17 15 -6 7 0.96
15 -17 6 3.97 0.75
-15 -2 -6 5.7 0.92
-15 17 6 4.55 0.91
17 -2 6 5.37 0.74
15 2 -6 3.29 0.96
2 15 6 5.4 0.84
-17 2 -6 3.15 1.03
15 2 6 4.93 0.75
-17 15 6 4.96 0.95
-2 -15 -6 2.6 0.92
-2 17 6 6.02 0.78
2 15 -6 4.34 1.01
-17 15 6 5.25 0.96
-15 17 -6 7.35 1
2 -17 6 4.07 0.7
-15 -2 6 4.98 0.83
-2 -15 -6 4.67 0.95
-2 17 6 4.96 0.82
-17 15 6 5.03 0.91
15 -17 -6 2.59 0.93
-15 17 -6 3.68 1
-16 17 6 2.55 0.83
1 16 6 3.6 0.67
-1 -16 6 1.66 0.79
-17 16 -6 3.38 0.8
1 16 6 2.5 0.67
-16 17 6 2.53 0.78
17 -1 6 3.34 0.66
17 -16 -6 0.96 0.5
-16 -1 -6 2.43 0.76
-17 1 6 2.53 0.75
16 -17 6 1.63 0.6
-1 17 6 3.3 0.77
-16 17 -6 6.27 0.91
-16 -1 6 4.53 0.84
-17 1 -6 5.57 0.88
-1 -16 -6 3.63 0.9
16 1 6 5.61 0.76
16 -17 -6 2.66 0.65
-17 16 6 4.17 0.88
-17 16 6 3.88 0.82
-17 16 6 2.86 0.81
-1 17 6 4.62 0.72
-16 17 -6 1.5 0.76
-17 0 6 0.87 0.64
17 -17 -6 0.49 0.54
-17 17 -6 0.49 0.67
-17 0 -6 1.09 0.72
-17 17 6 0.26 0.7
-17 17 6 0.45 0.48
0 17 6 0.6 0.63
17 -17 6 0.57 0.43
17 0 6 0.44 0.58
-17 17 6 0.39 0.77
0 17 6 0.53 0.58
-9 18 -6 0.3 0.4
-18 9 6 0.08 0.77
9 -18 6 0.34 0.94
-9 -9 -6 -0.11 0.86
9 9 -6 0.02 0.96
9 9 6 0.06 0.6
-9 -9 6 0.43 0.89
-9 -9 -6 0.61 0.83
-18 9 6 -0.27 0.83
-9 18 6 -0.02 0.7
-18 9 -6 -0.39 0.56
9 9 6 0.15 0.89
9 -18 6 0.31 0.59
9 -18 -6 0.43 0.51
9 9 6 0.17 0.55
-9 18 6 0.27 0.65
-9 -9 6 0.88 1
18 -9 6 -0.37 0.52
18 -9 -6 0.34 1.04
-18 9 6 0.1 0.64
18 -10 -6 1.86 1.08
10 -18 6 1.48 0.98
8 10 6 1.01 0.64
18 -8 6 1.15 0.56
-8 -10 6 2.71 1.01
-10 -8 -6 2.11 0.91
-8 -10 6 2.41 1.09
-10 18 6 1.19 0.75
-18 8 6 1.99 1.04
8 -18 -6 1.2 0.62
8 10 6 0.84 0.88
-18 8 6 1.23 0.78
10 8 -6 1.83 1.02
-18 8 6 1.5 0.67
-10 -8 -6 1.9 0.97
8 10 6 1.85 0.66
10 -18 6 2.52 0.67
8 10 -6 2.93 1.09
18 -10 6 1.41 0.59
-18 10 6 1.65 0.81
8 -18 6 2.54 0.64
-18 10 6 1.94 0.7
-8 -10 -6 2.06 0.94
10 8 6 2.56 0.64
-8 18 6 3.17 0.77
-18 8 -6 -0.18 0.96
8 -18 6 2.43 0.99
-10 -8 6 2.46 0.95
-10 18 -6 2.14 0.68
-18 8 -6 1.7 0.66
-10 -8 6 2.73 1.01
10 8 6 1.27 0.48
18 -8 -6 0.86 1.02
-8 -10 -6 3.02 0.91
10 8 6 2.03 0.9
-7 -11 6 11 1.68
18 -11 -6 8.08 1.42
7 11 6 7.74 1.18
-11 18 6 7.1 1.07
7 -18 -6 4.56 0.87
-18 7 6 6.27 1.39
-7 -11 6 9.39 1.7
11 -18 6 9.85 1.66
-18 7 6 9.64 1.13
11 -18 6 7.45 1.06
-18 7 6 7.23 1.16
18 -7 6 6.55 0.82
-11 -7 -6 5.34 1.03
7 11 6 7.62 0.92
11 7 -6 7.3 1.31
7 11 6 6.67 0.88
-7 -11 -6 8.56 1.5
7 11 -6 5.86 1.19
-7 18 6 7.23 1.04
-11 18 -6 8.15 0.99
-18 11 6 7.7 1.21
11 7 6 6.04 1.07
-7 18 6 7.71 1.17
-18 11 6 6.2 0.97
7 -18 6 8.68 1.11
11 7 6 9.88 1.13
18 -11 6 6 0.83
-11 -7 6 7.58 1.13
7 -18 6 5.66 1.14
18 -7 -6 9.02 1.41
-18 7 -6 7.52 1.2
-7 -11 -6 7.8 1.22
-18 6 6 0.59 1.1
-18 12 -6 0.63 0.7
12 -18 6 0.62 0.6
18 -6 6 -0.41 0.69
18 -12 -6 0.79 1.07
-18 6 6 1.17 0.79
6 12 6 0.97 0.6
18 -6 6 0.71 0.53
-12 -6 -6 1.5 0.83
12 -18 6 1.1 0.98
-6 -12 6 2.45 0.98
-6 -12 6 2.02 1.01
6 -18 -6 0.57 0.58
-18 6 6 0.8 0.5
-12 18 6 0.78 0.86
12 6 -6 0.57 0.91
6 12 -6 1.29 0.96
-6 -12 -6 1.49 0.87
18 -12 6 0.9 0.55
-18 6 -6 1.05 0.86
-6 -12 -6 0.02 0.55
18 -6 -6 1.33 0.94
-6 -12 -6 1.44 0.91
12 6 6 1.53 0.83
-12 -6 6 0.78 0.76
6 -18 6 0.85 0.73
-12 18 -6 1.06 0.7
-18 12 6 1.04 0.73
12 6 6 1.55 0.62
6 -18 6 2.09 0.66
-6 18 6 1.35 0.56
-18 6 -6 1.66 0.75
-12 18 -6 0.05 0.64
-6 18 6 1.58 0.67
18 -5 6 2.75 0.61
13 -18 6 0.91 0.74
-13 18 6 4.44 0.99
-5 -13 6 2.08 0.87
-18 5 6 2.16 1.1
-5 -13 6 3.47 0.99
-18 5 6 3.4 0.83
-13 -5 -6 1.72 0.79
18 -13 -6 2.09 1.03
5 13 6 2.32 0.67
5 13 6 2.42 0.68
13 5 -6 2.08 0.93
-18 13 -6 1.38 0.73
13 -18 6 1.79 0.63
13 5 6 2.24 0.75
5 -18 6 4.16 0.68
5 -18 6 0.21 0.85
18 -5 -6 2.35 0.88
-5 -13 -6 2.47 0.77
5 13 -6 4.04 0.99
18 -13 6 2.71 0.55
-13 -5 6 2.45 0.78
-13 18 -6 3.98 0.76
-5 18 6 3.79 0.71
-18 5 -6 2.26 0.91
4 14 6 5.3 0.75
-18 14 -6 4.81 0.88
4 14 6 3.99 0.75
-18 4 6 6.53 0.91
-4 -14 6 4.91 1.01
18 -14 -6 2.56 0.94
14 -18 6 4.72 0.72
-14 18 6 5.63 1.05
18 -4 6 3.37 0.67
-14 -4 -6 4.25 0.79
-18 4 6 3.32 1.06
-4 -14 -6 4.55 0.91
-14 18 -6 4.73 0.9
-18 14 6 4.21 1.01
4 14 -6 3.73 0.91
-18 14 6 4.8 0.86
-4 18 6 5.77 0.76
-4 18 6 3.53 0.74
4 -18 6 4.89 0.72
14 4 6 6.73 0.79
-18 14 6 3.78 0.82
18 -3 6 3.3 0.65
-3 -15 6 4.38 0.99
-18 15 -6 4.31 0.85
3 15 6 4.6 0.72
-15 18 6 5.28 1.03
-15 -3 -6 4.68 0.81
-18 3 6 4.45 0.83
3 15 6 3.36 0.72
15 -18 6 4.24 0.72
3 -18 6 4.14 0.73
-3 18 6 6.73 0.77
-15 18 -6 6.66 0.95
-18 3 -6 7.2 0.97
-18 15 6 3.85 0.93
15 3 6 5.5 0.77
-3 18 6 5.61 0.85
-18 15 6 5.72 0.9
-18 15 6 4.2 0.88
-3 -15 -6 4.63 0.94
16 -18 6 1.38 0.57
2 16 6 0.69 0.58
-16 -2 -6 1.01 0.69
-2 -16 6 0.98 0.78
18 -2 6 0.96 0.62
2 16 6 0.29 0.57
-16 18 6 0.92 0.76
-16 18 6 0.99 0.78
-18 2 6 1.5 0.68
-18 16 -6 0.64 0.67
-2 18 6 0.95 0.58
16 -18 -6 0.19 0.55
-2 -16 -6 0.73 0.78
-18 16 6 0.49 0.71
16 2 6 0.36 0.54
-18 2 -6 1.15 0.73
-2 18 6 0.88 0.63
-16 -2 6 0.22 0.61
-18 16 6 0.75 0.74
2 -18 6 0.02 0.48
-18 16 6 0.38 0.72
-16 18 -6 1.18 0.7
-1 -17 6 7.25 1.17
-17 -1 -6 8.29 1.2
-18 1 6 8.49 1.2
1 17 6 7.65 1
17 -18 6 6.92 0.89
-17 18 6 8.44 1.37
18 -17 -6 5.1 0.84
-18 17 -6 7.61 1.16
1 17 6 6 1.06
18 -1 6 7.45 1.03
-17 18 6 6.63 0.99
-18 1 -6 9.4 1.24
17 -18 -6 7.1 0.96
-1 -17 -6 4.9 0.88
-18 17 6 7.1 1.23
-18 17 6 6.16 0.92
17 1 6 7.58 1.01
-17 18 -6 8.12 1.18
-1 18 6 7.32 1.06
-17 -1 6 7.23 1.11
-18 17 6 4.62 0.82
-1 18 6 8.41 1.04
-18 18 6 21.15 1.84
0 18 6 23.64 1.72
-18 18 6 21.93 1.89
18 0 6 23.43 1.72
0 18 6 18.32 1.7
-18 0 -6 22.45 1.82
-18 18 -6 20.1 1.75
-18 0 6 19.97 1.76
18 -18 -6 18.97 1.63
-9 -10 6 1.58 0.86
10 -19 6 0.96 0.72
10 9 -6 0.58 0.64
-19 9 6 1.01 0.67
-19 9 6 0.91 0.74
9 10 6 0.05 0.54
-9 -10 6 0.41 0.64
19 -10 -6 0.43 0.68
-10 -9 -6 1.23 0.83
-10 19 6 0.31 0.7
10 -19 6 1.76 0.57
19 -9 6 0.74 0.53
9 10 6 0.99 0.61
-10 -9 -6 -0.28 0.52
-19 10 -6 -0.37 0.46
19 -9 -6 0.61 0.7
-9 -10 -6 1.68 0.82
-9 19 6 0.87 0.6
-19 10 6 0.4 0.75
10 9 6 1.31 0.6
-10 -9 6 0.21 0.61
-10 19 -6 0.26 0.41
-19 10 6 1.07 0.65
-19 9 -6 0.74 0.64
-9 -10 -6 0.21 0.56
19 -10 6 1.05 0.56
10 9 6 1.12 0.52
9 -19 6 2.32 0.6
10 9 6 0.17 0.56
-10 -9 6 2.17 0.92
9 10 -6 0.33 0.65
9 -19 6 1.12 0.68
19 -11 -6 -0.2 0.68
-8 -11 6 3.36 0.95
-11 -8 -6 2.09 0.83
11 8 -6 0.27 0.59
8 11 6 2.88 0.64
11 -19 6 2.6 0.61
-19 8 6 1.57 0.67
-11 19 6 1.33 0.74
19 -8 6 1.4 0.56
8 11 6 -0.07 0.5
-19 8 6 1.54 0.81
11 -19 6 0.53 0.67
-8 -11 6 0.33 0.68
19 -8 -6 0.01 0.64
-19 8 -6 1.22 0.64
8 -19 6 0.3 0.58
-11 19 -6 1.54 0.65
11 8 6 0.11 0.54
-8 -11 -6 2.32 0.82
-8 -11 -6 0.41 0.59
-8 19 6 1.27 0.69
-19 11 6 1.56 0.69
19 -11 6 1.42 0.58
8 -19 6 1.63 0.56
11 8 6 1.88 0.61
-11 -8 6 1.78 0.82
-19 11 6 1.38 0.74
8 11 -6 0.33 0.62
-19 12 -6 3.46 0.69
7 12 6 5.84 0.74
-19 7 6 3.56 0.69
-12 -7 -6 4.94 0.95
-12 19 6 4.04 0.91
12 -19 6 5.57 0.71
-19 7 6 6.47 0.94
19 -7 6 3.37 0.66
19 -12 6 3.64 0.71
12 7 6 6.65 0.77
-12 19 -6 4.9 0.85
7 -19 6 5.32 0.74
-19 12 6 5.77 0.86
-19 7 -6 6.06 0.87
-7 19 6 5.96 0.86
-12 -7 6 4.16 0.9
-19 6 6 8.21 1
6 13 6 5.68 0.82
-6 -13 6 8.49 1.53
13 -19 6 7.87 0.86
19 -6 6 6.59 0.8
6 13 6 6.86 0.82
-19 13 -6 5.44 0.89
-13 -6 -6 5.21 0.98
-13 -6 6 7.52 1.32
-6 -13 -6 9.98 1.45
-6 19 6 11.07 1.16
-19 6 -6 11.39 1.37
-6 19 6 10.04 1.22
-19 13 6 10.72 1.51
13 6 6 11.06 1.16
19 -13 6 8.44 1.15
6 -19 6 10.88 1.14
-13 19 -6 9.34 1.34
-19 13 6 9.48 1.24
5 14 6 1.15 0.61
-5 -14 6 2.13 0.86
-14 -5 -6 -0.38 0.61
5 14 6 1.29 0.57
-14 19 6 2.29 0.93
19 -5 6 0.67 0.52
-19 14 -6 0.64 0.68
-19 5 6 2.05 0.71
14 -19 6 0.91 0.56
-5 19 6 1.2 0.56
-5 19 6 0.88 0.63
14 5 6 1.47 0.58
-5 -14 -6 1.13 0.75
-19 14 6 1.63 0.67
19 -14 6 0.87 0.51
-19 14 6 1.22 0.84
5 -19 6 1.35 0.54
-14 19 -6 1.16 0.65
-19 5 -6 1.05 0.72
19 -4 6 5.76 0.73
4 15 6 4.48 0.75
-15 19 6 5.28 1.01
4 15 6 6.32 0.77
-19 4 6 6.79 0.89
-15 -4 -6 5.24 0.8
-19 15 -6 4.41 0.81
-4 -15 6 5.45 0.98
15 -19 6 4.09 0.72
-4 -15 -6 8.81 1.45
-15 19 -6 8.98 1.29
-19 4 -6 9.08 1.32
-4 19 6 10.59 1.1
4 -19 6 8.17 1.05
-19 15 6 9.21 1.19
-19 15 6 7.87 1.14
15 4 6 9.26 1.06
-4 19 6 7.53 1.11
-19 15 6 7.9 1.39
3 16 6 0.37 0.52
3 16 6 -0.04 0.53
-19 3 6 0.2 0.62
-19 16 -6 0.12 0.63
-16 19 6 0.8 0.76
-3 -16 6 0.59 0.74
-16 -3 -6 0.21 0.62
16 -19 6 0.07 0.51
-16 19 6 0.08 0.42
19 -3 6 -0.14 0.55
19 -16 -6 -0.31 0.43
-16 -3 6 -0.41 0.33
16 3 6 -0.03 0.53
16 -19 -6 0.15 0.51
-19 16 6 -0.25 0.62
-3 19 6 0.22 0.53
-3 -16 -6 0.66 0.73
-19 3 -6 0.4 0.63
-3 19 6 0.08 0.56
-19 16 6 0.01 0.64
-16 19 -6 -0.11 0.65
-19 16 6 0.02 0.65
3 -19 6 0.62 0.5
2 17 6 1.63 0.6
-17 -2 -6 3.02 0.71
-2 -17 6 2.03 0.74
-19 2 6 3.26 0.67
-19 17 -6 2.91 0.72
-17 19 6 2.06 0.71
19 -2 6 1.99 0.61
2 17 6 2.24 0.59
-17 19 6 3.37 0.85
17 -19 6 2.33 0.54
17 -19 -6 0.35 0.52
17 2 6 0.36 0.5
-2 19 6 0.47 0.5
-2 19 6 0.56 0.51
-19 2 -6 0.9 0.64
-2 -17 -6 1.1 0.68
-19 17 6 1.36 0.68
-17 19 -6 0.8 0.59
-17 -2 6 0.42 0.53
-19 17 6 0.8 0.6
-19 17 6 0.94 0.69
-18 19 6 3.24 0.79
-19 1 6 6.23 0.96
-19 18 -6 5.6 0.81
-18 19 6 3.89 0.77
1 18 6 5.61 0.67
19 -1 6 3.86 0.65
-18 -1 -6 4.5 0.76
-19 1 -6 2.68 0.68
-18 19 -6 2.99 0.66
18 -19 -6 1.93 0.51
-19 18 6 2.41 0.73
-19 18 6 1.92 0.66
-1 19 6 2.77 0.55
-18 -1 6 1.68 0.61
18 1 6 2.53 0.55
19 -19 -6 -0.53 0.26
-19 19 6 0.09 0.58
0 19 6 0.15 0.48
-19 0 6 0.85 0.54
-19 19 6 0.23 0.58
19 0 6 0.26 0.45
-19 0 -6 0.58 0.56
-19 19 -6 -0.08 0.55
-10 20 6 0.39 0.61
-10 -10 6 0.39 0.76
-10 -10 -6 0.28 0.75
-20 10 6 0.55 0.68
-20 10 -6 -0.41 0.49
-20 10 6 -0.04 0.63
10 -20 6 0.46 0.48
20 -10 6 -0.11 0.5
10 10 6 0.08 0.56
20 -9 6 1.28 0.53
-20 9 6 1.95 0.71
-11 -9 -6 2.18 0.84
-11 20 6 1.41 0.74
-9 -11 6 3.56 0.9
11 -20 6 2.29 0.54
9 11 6 3.43 0.64
-20 9 6 1.77 0.64
9 -20 6 1.96 0.52
-20 11 6 1.75 0.71
20 -11 6 1.79 0.57
11 9 6 2.6 0.6
-11 -9 6 2.46 0.84
-9 -11 -6 1.77 0.78
-20 11 6 1.95 0.65
-20 9 -6 1.43 0.62
-20 8 6 6.73 0.99
20 -8 6 6.9 0.96
-8 -12 6 8.79 1.41
8 12 6 7.57 1.02
-20 8 6 8.41 1.24
-12 20 6 7.73 1.28
-12 -8 -6 6.08 0.98
8 12 6 6.26 1.01
12 -20 6 7.53 0.96
-20 12 6 5.83 0.81
-12 20 -6 4.69 0.73
8 -20 6 6.58 0.88
-20 8 -6 4 0.73
20 -12 6 3.8 0.65
-12 -8 6 3.41 0.82
13 -20 6 1.24 0.54
-20 7 6 0.79 0.66
-13 20 6 1.45 0.81
20 -7 6 0.62 0.52
7 13 6 2.16 0.58
-13 -7 -6 1.34 0.75
-7 -13 6 3.14 0.9
-20 13 -6 0.54 0.56
7 13 6 1.21 0.6
-13 20 -6 1.54 0.64
13 7 6 1.7 0.53
-7 -13 -6 1.66 0.75
7 -20 6 1.49 0.52
-20 13 6 1.78 0.85
20 -13 6 1.35 0.56
-7 20 6 1.47 0.65
-20 7 -6 1.49 0.63
-13 -7 6 0.96 0.7
-20 13 6 2.48 0.67
20 -6 6 9.75 1.1
6 14 6 8.93 1.13
-14 -6 -6 6.61 1.28
-20 6 6 10.63 1.32
-6 -14 6 12.33 1.55
6 14 6 11.12 1.14
-14 20 6 14.63 1.63
-20 14 -6 9.68 1.2
14 -20 6 10.07 1.11
-6 -14 -6 6.94 1.31
-20 14 6 6.6 1.03
-14 20 -6 4.5 0.78
20 -14 6 6.1 0.94
-6 20 6 6.63 1.03
-20 6 -6 8.23 1.18
14 6 6 7.13 0.95
-20 14 6 7.09 1.04
6 -20 6 7.26 0.91
-20 15 -6 7.56 0.91
15 -20 6 7.55 0.97
-20 5 6 8.05 1.1
5 15 6 5.92 0.98
20 -5 6 6.86 0.98
5 15 6 7.59 1.01
-5 -15 6 8.54 1.34
-15 20 6 7.27 1.09
-5 20 6 6.76 1.01
-20 15 6 7.69 1.07
-20 15 6 7.35 1.29
-5 -15 -6 7.37 1.29
-20 5 -6 8.56 1.24
-5 20 6 7.96 0.99
-15 20 -6 6.76 1.06
5 -20 6 7.45 0.93
15 5 6 8.07 0.96
-4 -16 6 2.08 0.77
16 -20 6 0.96 0.49
4 16 6 0.78 0.53
-20 4 6 1.68 0.58
-20 16 -6 1.03 0.61
-16 -4 -6 -0.44 0.42
20 -4 6 0.98 0.52
-16 20 6 2.16 0.85
4 16 6 0.84 0.52
16 -20 -6 0.33 0.47
-4 -16 -6 0.99 0.67
-4 20 6 0.94 0.44
-20 4 -6 0.86 0.61
-20 16 6 0.13 0.32
-4 20 6 0.49 0.49
-16 20 -6 0.84 0.57
4 -20 6 0.78 0.45
16 4 6 0.98 0.5
-20 16 6 0.65 0.59
20 -16 6 -0.2 0.48
-20 16 6 0.45 0.63
17 -20 6 0.86 0.44
-17 -3 -6 0.66 0.55
20 -3 6 0.4 0.52
-3 -17 6 1.19 0.67
-20 3 6 1.22 0.56
-20 17 -6 0.53 0.57
-17 20 6 0.94 0.72
3 17 6 0.66 0.39
3 17 6 0.79 0.5
-20 3 -6 3.24 0.68
-3 20 6 2.49 0.52
17 3 6 2.89 0.5
-17 20 -6 3.29 0.64
17 -20 -6 2.23 0.52
3 -20 6 1.41 0.41
-20 17 6 2.04 0.61
-20 17 6 1.58 0.6
-3 -17 -6 2.41 0.71
-20 17 6 2.83 0.64
-18 20 6 4.36 0.76
2 18 6 4.72 0.61
-20 2 6 3.97 0.68
20 -2 6 3.64 0.61
-20 18 -6 4.96 0.72
-18 -2 -6 3.48 0.66
-20 18 6 3.79 0.7
18 2 6 4.34 0.55
-2 20 6 3.96 0.57
-18 20 -6 3.66 0.67
-20 2 -6 4.04 0.69
18 -20 -6 2.79 0.49
-20 18 6 3.36 0.68
-19 -1 -6 12.49 1.24
-20 19 -6 12.59 1.24
1 19 6 13.89 1.17
-20 1 6 12.28 1.22
-19 20 6 12.16 1.28
20 -1 6 12.85 1.17
19 1 6 12.67 1.13
-20 19 6 11.87 1.22
-20 19 6 10.38 1.18
-19 20 -6 12.65 1.2
-20 1 -6 11.92 1.27
-1 20 6 14.28 1.17
-20 20 6 3.56 0.67
20 0 6 4.43 0.6
-20 20 -6 5 0.71
-20 0 -6 4.58 0.67
0 20 6 4.71 0.57
-11 21 6 1.63 0.63
-10 -11 6 2.62 0.77
21 -10 6 1.38 0.52
10 11 6 1.89 0.54
11 -21 6 2.42 0.5
-21 10 6 2.4 0.61
-21 10 6 1.57 0.63
-11 -10 -6 2.83 0.78
21 -11 6 1.3 0.52
-11 -10 6 2.15 0.76
-21 11 6 1.59 0.62
-21 10 -6 0.14 0.5
-10 -11 -6 1.28 0.7
11 10 6 1.57 0.53
-21 11 6 0.84 0.57
10 -21 6 1.34 0.46
-12 -9 -6 0.95 0.68
12 -21 6 1.32 0.45
-21 9 6 1.01 0.61
-12 21 6 1.05 0.68
9 12 6 0.41 0.51
-21 9 6 1.2 0.53
9 12 6 1.71 0.55
-9 -12 6 1.61 0.74
21 -9 6 0.75 0.48
-9 -12 -6 1.25 0.7
-21 9 -6 0.45 0.55
9 -21 6 2.05 0.48
-21 12 6 0.37 0.57
-12 -9 6 1.43 0.68
12 9 6 2.02 0.53
21 -12 6 1.29 0.5
21 -8 6 4.53 0.7
-8 -13 6 8.53 1.28
8 13 6 5.71 0.91
8 -21 -6 5.93 0.84
8 13 6 7.36 0.93
-13 -8 -6 5.67 0.89
-21 8 6 7.4 1.09
13 -21 6 6.93 0.86
-13 21 6 7.12 1.19
-21 8 -6 3.5 0.69
-13 21 -6 3.5 0.6
21 -13 6 3.89 0.62
13 8 6 4.9 0.63
-8 -13 -6 5.92 0.85
-21 13 6 5.01 0.91
-21 13 6 5.1 0.73
-13 -8 6 3.83 0.79
8 -21 6 6.42 0.8
7 14 6 1.25 0.53
-21 7 6 2.75 0.65
7 -21 -6 1.5 0.49
-14 21 6 2.61 0.78
-21 14 -6 0.9 0.42
14 -21 6 1.81 0.5
21 -7 6 1.51 0.52
7 14 6 1.41 0.51
-14 -7 -6 1.09 0.63
-7 -14 6 2 0.73
21 -14 6 1.42 0.48
-14 -7 6 1.05 0.62
-14 21 -6 1.13 0.52
-21 14 6 1.25 0.58
-21 14 6 2 0.79
-21 7 -6 1.53 0.61
-7 -14 -6 2.22 0.68
14 7 6 1.84 0.5
7 -21 6 1.97 0.49
6 15 6 0.13 0.43
-21 6 6 0.46 0.56
-6 -15 6 0.7 0.67
6 15 6 0.13 0.47
-21 15 -6 -0.26 0.55
21 -6 6 0.14 0.44
15 -21 6 0.7 0.47
-15 21 6 -0.06 0.72
21 -15 6 -0.08 0.33
-6 -15 -6 -0.06 0.61
6 -21 6 0.5 0.41
-21 15 6 0.32 0.67
-15 21 -6 0.1 0.49
15 6 6 0.26 0.45
-21 6 -6 0.53 0.6
-21 15 6 -0.42 0.51
16 -21 6 3.37 0.56
-5 -16 6 4.49 0.8
-16 21 6 4.84 0.89
5 16 6 5.23 0.65
-21 5 6 3.95 0.67
21 -5 6 4.03 0.62
-21 16 -6 3.95 0.68
-5 -16 -6 3.24 0.73
-16 21 -6 2.11 0.57
-21 16 6 2.11 0.57
16 -21 -6 2.94 0.5
16 5 6 3.25 0.53
5 -21 6 2.85 0.48
-21 16 6 2.71 0.66
-21 5 -6 4.34 0.69
-21 4 6 0.75 0.52
21 -4 6 0.95 0.51
4 17 6 0.78 0.49
17 -21 6 0.42 0.34
-17 21 6 0.02 0.69
-21 17 -6 0.2 0.53
-4 -17 6 1.02 0.61
-21 4 -6 1.72 0.62
4 -21 6 0.79 0.35
-4 -17 -6 1.01 0.62
17 4 6 0.76 0.44
-17 21 -6 1.05 0.56
-21 17 6 0.66 0.43
17 -21 -6 0.86 0.42
-21 17 6 0.6 0.53
-21 3 6 3.99 0.63
-21 18 -6 3.1 0.61
21 -3 6 4.08 0.59
3 18 6 3.88 0.57
-18 21 6 3.07 0.75
-18 21 -6 2.86 0.6
-21 3 -6 3.63 0.64
18 3 6 2.43 0.51
-21 18 6 2.05 0.59
-21 2 6 5.61 0.85
-19 21 6 6.3 1.07
-21 19 -6 4.68 0.7
21 -2 6 6.46 0.87
2 19 6 6.48 0.8
-21 19 6 3.43 0.61
19 2 6 4.16 0.55
-21 2 -6 4.19 0.66
-2 21 6 4.04 0.57
-19 21 -6 4.04 0.68
11 11 6 0.56 0.45
-11 -11 -6 1.23 0.72
11 11 6 1.1 0.46
-11 -11 6 1.49 0.68
-22 11 6 0.65 0.51
-22 11 6 0.31 0.54
22 -11 6 0.55 0.46
11 -22 6 1.17 0.42
22 -10 6 1 0.47
-12 -10 -6 1.01 0.69
10 12 6 1.49 0.48
-12 22 6 1.02 0.49
10 12 6 0.58 0.46
-10 -12 6 2.52 0.72
-22 10 6 0.9 0.5
12 -22 6 1.94 0.44
12 10 6 2.31 0.48
22 -12 6 1.46 0.48
10 -22 6 1.56 0.44
-10 -12 -6 2.66 0.74
-22 12 6 1.69 0.58
-22 12 6 2.03 0.7
-12 -10 6 1.94 0.67
13 -22 6 5 0.72
-22 9 6 2.81 0.57
22 -9 6 4.55 0.59
-13 22 6 3.99 0.75
9 13 6 4.92 0.6
-13 -9 -6 4.18 0.74
9 13 6 3.41 0.57
-22 13 6 5.14 0.85
13 9 6 4.49 0.59
-22 9 -6 2.98 0.63
9 -22 6 5.05 0.7
-9 -13 -6 4.04 0.78
-13 -9 6 3 0.7
-22 13 6 4.71 0.65
-22 8 6 0.62 0.55
8 14 6 0.08 0.32
14 -22 6 0.43 0.4
-8 -14 6 0.45 0.64
-14 22 6 0.22 0.62
-14 -8 -6 -0.55 0.54
22 -8 6 0.3 0.44
8 14 6 0.18 0.45
8 -22 -6 -0.59 0.27
8 -22 6 0.61 0.39
-22 14 6 -0.16 0.52
-8 -14 -6 0.43 0.64
-14 -8 6 -0.08 0.5
-22 14 6 0.54 0.69
22 -14 6 0.09 0.32
-22 8 -6 0.09 0.52
14 8 6 -0.3 0.43
-7 -15 6 12.36 1.3
15 -22 6 11 0.98
22 -7 6 8.5 1.03
7 15 6 11.3 1.05
-15 22 6 14.03 1.4
7 -22 -6 9.47 0.98
-22 7 6 10.03 1.13
-7 -15 -6 8.78 1.16
-22 15 6 8.64 1.04
-22 7 -6 9.85 1.15
15 7 6 9.6 0.96
-22 15 6 7.61 1.13
7 -22 6 10.2 0.92
-22 6 6 5.78 0.94
6 16 6 6.63 0.68
-6 -16 6 5.22 0.82
16 -22 6 4.61 0.7
22 -6 6 3.78 0.61
-16 22 6 6.91 0.92
6 -22 -6 5.19 0.75
16 -22 -6 3.47 0.51
-22 6 -6 4.47 0.7
-22 16 6 4.5 0.67
-22 16 6 3.77 0.72
16 6 6 3.54 0.54
6 -22 6 3.38 0.49
-6 -16 -6 3.97 0.73
-22 5 6 0.4 0.49
17 -22 6 -0.05 0.31
-5 -17 6 0.53 0.56
22 -5 6 0.22 0.48
5 17 6 0.06 0.45
-22 17 -6 -0.01 0.39
-17 22 6 0.03 0.68
5 -22 -6 0.65 0.4
-17 22 -6 -0.12 0.43
-22 5 -6 0.41 0.53
17 -22 -6 -0.59 0.25
-22 17 6 0.12 0.5
-5 -17 -6 0.02 0.54
17 5 6 -0.1 0.44
5 -22 6 -0.12 0.25
4 -22 -6 1.62 0.44
4 18 6 1.83 0.48
-18 22 6 2.7 0.68
-22 4 6 1.28 0.52
-22 18 -6 0.72 0.48
22 -4 6 1.75 0.45
18 4 6 1.08 0.46
-18 22 -6 1.09 0.53
-22 4 -6 1.43 0.55
-22 18 6 1.17 0.56
12 -23 6 1.77 0.43
-23 11 6 2.19 0.64
-11 -12 6 1.67 0.66
11 12 6 2.18 0.48
23 -11 6 1.58 0.42
-12 -11 -6 1.52 0.68
12 11 6 1.63 0.48
-11 -12 -6 2 0.67
23 -12 6 0.55 0.35
-23 12 6 1.73 0.65
-12 -11 6 1.92 0.63
11 -23 6 1.42 0.42
13 -23 6 1.78 0.4
10 13 6 1.12 0.47
-23 10 6 0.8 0.5
-10 -13 6 2.14 0.68
23 -10 6 1.45 0.44
-23 10 6 1.81 0.56
-13 -10 -6 1.28 0.62
-13 -10 6 0.7 0.61
-23 13 6 1.07 0.45
13 10 6 0.57 0.35
23 -13 6 0.03 0.26
10 -23 6 0.98 0.4
-23 13 6 1.55 0.67
-10 -13 -6 2.03 0.66
13 10 6 1.4 0.47
-14 23 6 0.48 0.41
23 -9 6 0.94 0.4
-23 9 6 1.45 0.54
-23 9 6 1.42 0.54
9 14 6 1.2 0.44
14 -23 6 1.13 0.39
-9 -14 6 1.32 0.63
-9 -14 -6 1.45 0.65
-23 14 6 0.71 0.65
14 9 6 0.56 0.45
-23 14 6 1.08 0.45
9 -23 6 0.94 0.41
-23 8 6 2.29 0.62
-15 23 6 1.36 0.63
23 -8 6 1.85 0.48
-8 -15 6 2.5 0.66
15 -23 6 1.63 0.39
8 15 6 2.61 0.49
-23 8 6 1.32 0.55
15 8 6 0.81 0.44
-23 15 6 0.7 0.45
-23 8 -6 0.35 0.46
15 -23 -6 0.8 0.31
-23 15 6 0.67 0.57
8 -23 6 1.38 0.41
-8 -15 -6 1.08 0.63
7 16 6 0.31 0.42
-16 23 6 0.1 0.66
-23 7 6 0.65 0.57
-23 7 6 0.18 0.42
16 -23 6 -0.01 0.16
23 -7 6 -0.08 0.42
-7 -16 6 0.73 0.61
16 -23 -6 -0.33 0.18
-23 16 6 -0.1 0.31
-7 -16 -6 0.39 0.61
-23 7 -6 0.32 0.52
-23 16 6 0.24 0.53
16 7 6 0.16 0.43
7 -23 6 0.05 0.33
0 0 -7 0.26 0.37
0 0 -7 -0.07 0.54
0 0 7 -0.23 0.47
1 0 -7 5.48 0.72
-1 0 7 5.67 0.91
0 -1 -7 5.94 0.98
-1 1 -7 6.6 1.03
0 1 -7 5.9 0.77
-1 1 7 6.03 0.85
0 1 -7 6.78 1.06
1 -1 7 6.28 0.94
1 0 7 6.23 0.95
0 1 7 6.08 0.93
1 0 7 4.72 0.72
0 -1 -7 6.32 0.82
1 -1 -7 6.76 0.9
1 -1 -7 6.18 0.74
0 -1 7 5.86 0.83
-1 0 -7 5.81 0.98
-1 1 -7 6.48 0.83
-1 0 -7 6.28 0.85
1 0 -7 7.21 1.09
2 -1 -7 0.58 0.36
-1 2 -7 0.36 0.65
-1 2 -7 0.15 0.52
-1 -1 7 0.08 0.49
-2 1 -7 0.33 0.51
2 -1 -7 0.35 0.65
1 1 -7 1 0.65
-1 2 7 0.39 0.56
1 -2 7 0.27 0.34
1 -2 -7 0.38 0.64
-1 -1 7 0.03 0.38
-2 1 -7 0.16 0.57
1 1 7 0.06 0.42
2 -1 7 0.33 0.49
-1 -1 -7 0.29 0.5
1 1 -7 0.43 0.3
2 -1 7 0.43 0.57
1 -2 -7 0.33 0.37
-2 1 -7 0.11 0.54
-1 -1 -7 0.04 0.34
-1 -1 -7 0.49 0.43
-2 1 7 0.51 0.56
1 -2 7 0.65 0.57
2 -2 7 0.73 0.49
0 2 7 -0.16 0.32
-2 0 7 0.26 0.52
-2 0 7 -0.03 0.39
-2 2 -7 0.66 0.58
0 -2 -7 0 0.32
-2 2 7 0.31 0.53
2 0 -7 0.93 0.63
0 -2 7 0.43 0.58
2 -2 -7 0.25 0.59
2 -2 7 0.64 0.57
-2 2 -7 0.61 0.59
-2 0 -7 0.75 0.46
0 -2 -7 0.09 0.56
-2 0 -7 0.56 0.61
0 2 -7 0.6 0.59
-2 0 -7 0.47 0.58
0 2 -7 0.66 0.36
2 -2 -7 1.24 0.43
2 0 7 0.61 0.5
-2 2 -7 0.67 0.64
2 0 -7 0.4 0.3
-2 -1 -7 15.26 1.33
3 -2 -7 15.31 1.42
-2 3 7 14.52 1.33
1 -3 -7 14.64 1.2
2 1 -7 16.02 1.4
3 -1 7 14.95 1.32
-1 3 -7 15.53 1.39
-3 1 7 14.39 1.33
-3 2 -7 14.78 1.35
-1 -2 7 14.77 1.33
-2 -1 -7 15.74 1.26
-1 3 -7 14.06 1.26
2 -3 7 13.48 1.24
2 -3 7 15.02 1.36
-3 2 -7 15.15 1.36
1 2 7 12.67 1.26
-3 2 -7 16.42 1.26
-3 1 -7 15.05 1.19
3 -1 -7 13.93 1.29
-2 3 -7 13.18 1.12
3 -2 7 13.05 1.28
-1 -2 -7 13.62 1.26
3 -2 7 13.16 1.19
-3 2 7 13.03 1.25
-3 1 -7 12.84 1.21
-1 -2 -7 12.79 1.22
1 -3 7 13.29 1.27
1 2 -7 14.68 1.4
-2 -1 7 13.29 1.26
-3 1 -7 14.25 1.32
-2 3 -7 13.77 1.3
1 2 -7 11.13 1.07
2 -3 -7 13.1 1.13
-2 3 -7 14.17 1.32
2 1 7 11.91 1.16
2 -3 -7 14.67 1.33
3 -3 -7 0.07 0.58
3 -3 -7 -0.18 0.35
3 -3 7 0.02 0.54
-3 3 -7 0.32 0.44
3 0 7 0.44 0.52
0 -3 7 0.39 0.57
3 -3 7 0.11 0.49
0 -3 -7 0.55 0.44
3 0 -7 0.63 0.62
-3 3 -7 -0.09 0.56
-3 0 7 0.57 0.5
0 -3 7 -0.19 0.81
-3 3 -7 0.37 0.64
-3 0 -7 0.14 0.46
0 3 -7 0.25 0.45
0 3 7 0.47 0.45
0 -3 -7 0.56 0.51
3 -3 -7 -0.01 0.28
-3 3 7 0.13 0.49
0 3 -7 0.26 0.6
-3 0 -7 0.51 0.54
-3 0 7 0.16 0.46
-4 2 7 4.53 0.72
-4 2 -7 5.3 0.83
-2 -2 -7 4.85 0.72
-2 4 -7 7.18 0.93
2 -4 -7 4.62 0.7
-2 -2 -7 5.56 0.94
4 -2 -7 5.77 0.85
4 -2 7 5.12 0.87
-2 -2 7 6.02 0.8
2 2 7 5.03 0.76
-4 2 -7 3.68 0.72
2 2 -7 6.76 0.89
2 -4 7 4.97 0.9
-2 4 -7 4.27 0.74
-4 2 -7 5.39 0.74
2 -4 7 4.8 0.75
-2 4 -7 4.52 0.82
3 -4 7 6.56 0.98
-1 -3 7 6.81 0.98
-3 -1 -7 7.62 1.04
1 -4 -7 7.35 0.78
-4 3 -7 7.63 1.01
-4 3 -7 7.78 0.99
-1 4 -7 7.47 1.13
-4 3 -7 8.15 0.97
4 -3 -7 6.34 0.98
-3 -1 -7 8.12 1.02
1 3 7 6.34 0.92
4 -1 7 6.89 0.95
-4 1 7 6.34 0.87
3 1 -7 7.54 1.14
3 -4 7 7.68 0.99
-1 4 -7 6.43 0.83
1 3 -7 5.98 0.96
-1 4 7 3.68 0.67
4 -1 -7 5.9 1
-3 4 -7 4.87 0.68
-1 -3 -7 5.48 0.86
-3 4 -7 4.4 0.78
4 -3 7 4.8 0.74
1 -4 7 4.05 0.7
4 -3 7 5.78 0.91
-3 -1 7 5.52 0.9
-3 4 -7 5.87 0.96
1 -4 7 5.22 0.82
3 1 7 5.31 0.87
-4 3 7 4.43 0.79
-1 -3 -7 5.57 0.83
-4 1 -7 5.53 0.89
-4 1 -7 5.92 0.77
3 -4 -7 5.94 0.84
-4 4 7 0.97 0.49
-4 0 7 0.67 0.56
0 4 7 1.08 0.56
-4 0 -7 1.76 0.72
-4 4 -7 1.62 0.53
-4 0 -7 1.82 0.63
4 -4 -7 1.32 0.65
-4 4 -7 1.76 0.66
-4 4 -7 1.05 0.6
4 -4 7 1.38 0.6
4 0 7 2.22 0.62
0 -4 7 1.87 0.62
0 -4 -7 1.63 0.52
0 4 -7 2.13 0.69
4 0 -7 2.29 0.66
-4 0 7 2.07 0.65
0 -4 -7 1.98 0.63
4 -4 7 2.01 0.63
-3 -2 -7 18.81 1.67
-5 3 -7 21.13 1.69
3 2 -7 21.42 1.72
2 3 7 20.36 1.65
-5 2 7 17.38 1.61
-5 3 -7 20.51 1.73
5 -3 -7 18.58 1.67
-2 5 -7 21.73 1.71
-3 -2 -7 20.23 1.71
-2 -3 7 20.4 1.68
-5 3 -7 21.64 1.62
-2 5 -7 16.6 1.52
3 -5 7 19.63 1.66
3 -5 7 21.91 1.68
5 -2 7 20.73 1.64
-5 2 -7 23.76 1.89
-3 5 -7 22.95 1.89
5 -2 -7 23.05 1.93
-5 2 -7 22.29 1.83
-5 2 -7 25.23 1.83
-3 5 -7 22.79 1.76
3 -5 -7 23.23 1.87
2 -5 7 21.3 1.84
2 -5 7 22.64 1.85
3 2 7 23.64 1.84
-3 -2 7 24.66 1.89
-2 -3 -7 23.52 1.8
5 -3 7 22.95 1.81
-2 -3 -7 23.51 1.85
2 3 -7 24.79 1.9
-1 -4 7 -0.54 1.02
-5 4 -7 2.61 0.59
-4 -1 -7 2.34 0.75
1 -5 -7 1.96 0.59
-1 5 -7 1.15 0.4
-4 -1 -7 2.8 0.66
-5 4 -7 2.49 0.7
4 1 -7 3.84 0.8
1 4 7 2.61 0.67
-1 5 -7 3.25 0.78
4 -5 7 3.16 0.71
-1 -4 7 2.57 0.68
5 -1 7 2.62 0.63
-5 4 -7 1.93 0.61
-5 1 7 2.67 0.63
1 -5 -7 1.9 0.62
4 1 -7 1.78 0.57
4 -5 7 2.4 0.61
5 -4 7 2.67 0.64
-5 1 -7 3.93 0.81
4 1 7 3.06 0.62
1 -5 7 2.89 0.62
-1 -4 -7 3.66 0.72
5 -4 7 3.83 0.71
-4 5 -7 4.08 0.8
-4 5 -7 1.67 0.57
-5 1 -7 4.06 0.78
1 4 -7 4.37 0.81
-5 4 7 2.24 0.53
-1 -4 -7 2.93 0.59
1 -5 7 2.96 0.6
-4 5 -7 2.93 0.58
5 -1 -7 2.39 0.65
-4 -1 7 4.14 0.75
5 -1 -7 4.36 0.78
5 -5 7 25.93 1.95
0 -5 7 22.38 1.94
-5 5 -7 23.18 2.01
5 -5 7 23.27 1.89
-5 0 -7 24.26 1.89
5 0 -7 23.95 1.97
5 0 7 25.66 1.89
-5 5 -7 25.09 1.88
-5 0 -7 26.81 1.98
5 0 -7 26.12 1.97
-5 0 7 27.44 1.97
0 5 -7 27.81 2.05
-5 5 -7 20.65 1.89
0 -5 -7 20.5 1.84
0 -5 -7 25.48 1.97
-3 6 -7 11.95 1.31
3 3 -7 11.1 1.2
3 -6 7 10.7 1.16
-3 -3 -7 11.43 1.23
6 -3 7 10.74 1.07
6 -3 -7 10.34 1.21
-3 6 -7 8 0.93
-3 -3 -7 11.06 1.16
-6 3 7 8.12 1.07
-6 3 -7 11.44 1.06
3 -6 7 10.77 1.17
-3 -3 7 12.98 1.25
-6 3 -7 9.79 1.2
3 3 -7 9.35 1.14
-6 3 -7 11.62 1.19
3 3 7 10.91 1.17
-6 4 -7 26.29 2.09
-6 4 -7 26.23 2.09
-6 2 7 22.55 2.02
-2 6 -7 27.43 2.11
6 -4 -7 25.32 2.09
4 2 -7 25.48 2.1
-2 -4 7 26.83 2.11
2 4 7 27.99 2.08
-6 4 -7 26.48 2.08
4 -6 7 28 2.09
-6 2 7 29.96 2.17
-4 -2 -7 25.45 2.08
6 -2 7 27.54 2.06
4 -6 7 25.58 2.05
-4 -2 -7 26.09 2.01
4 2 -7 29.89 2.13
6 -4 7 32.32 2.26
4 2 7 30.06 2.22
2 -6 7 26.97 2.22
-4 6 -7 23.99 2.2
-2 -4 -7 30.27 2.3
-2 -4 -7 26.89 2.19
-6 2 -7 30.21 2.23
2 -6 7 28.76 2.26
-4 6 -7 31.6 2.37
6 -2 -7 30.62 2.33
-6 2 -7 32.61 2.32
2 4 -7 31.72 2.3
-4 -2 7 32.61 2.32
2 4 -7 26.44 2.23
6 -2 -7 30.77 2.29
-1 6 -7 29.69 2.12
5 -6 7 22.89 1.98
-1 -5 7 25.23 2.09
5 1 -7 26.56 2.11
-6 5 -7 27.31 2.16
-6 5 -7 22.15 2.03
1 -6 -7 27.51 2.09
-5 -1 -7 25.25 2.06
-6 1 7 26.98 2.15
-6 5 -7 26.5 2.07
5 1 -7 29.87 2.13
-6 1 7 23.59 2.06
6 -1 7 28.64 2.06
5 -6 7 29.62 2.08
-5 -1 -7 29.1 2.16
6 -5 -7 25 2.05
1 -6 7 21.72 1.85
-6 1 -7 21.45 1.79
5 1 7 22.37 1.81
-5 6 -7 22.47 1.95
6 -1 -7 22.41 1.93
1 5 -7 24.34 1.9
1 -6 7 21.56 1.88
6 -5 7 23.69 1.86
-1 -5 -7 23.57 1.91
-5 -1 7 25.05 1.92
-6 1 -7 24.86 1.97
6 -1 -7 24.94 1.96
0 -6 -7 1.21 0.64
6 -6 7 1.48 0.65
0 6 -7 -0.08 0.36
0 6 -7 1.56 0.75
0 -6 -7 -0.12 0.43
-6 0 7 1.47 0.64
6 0 7 1.83 0.64
6 0 -7 1.95 0.7
-6 0 7 1.59 0.72
-6 6 -7 0.57 0.57
-6 0 -7 1.69 0.68
-6 6 -7 1.03 0.7
0 -6 7 0.75 0.62
-6 0 -7 0.14 0.58
6 -6 -7 0.56 0.53
-6 6 -7 0.52 0.52
6 0 -7 1.52 0.7
0 -6 7 0.11 0.5
6 -6 7 -0.16 0.45
7 -3 7 14.48 1.32
4 -7 7 14.26 1.39
3 4 7 15.64 1.43
-3 7 -7 15.85 1.53
-4 -3 -7 13.95 1.39
4 3 -7 13.32 1.42
4 3 -7 15.93 1.52
4 -7 7 16.42 1.45
7 -4 -7 13.78 1.45
-3 -4 7 15.38 1.49
-7 4 -7 12.96 1.4
-7 3 7 16.97 1.57
-7 4 -7 14.91 1.51
7 -4 7 16.77 1.48
-3 -4 -7 16.23 1.48
3 -7 7 15.6 1.51
3 4 -7 18.53 1.6
-7 3 -7 17.51 1.55
-4 7 -7 17.85 1.54
7 -3 -7 16.21 1.58
4 3 7 15.75 1.43
-7 3 -7 14.27 1.44
3 4 -7 14.99 1.51
3 -7 7 15.87 1.51
-4 -3 7 17.34 1.58
-2 -5 7 44.88 3.2
5 2 -7 45.9 3.21
7 -5 -7 42.07 3.17
-5 -2 -7 41.05 3.17
5 2 -7 46.3 3.18
-7 5 -7 37.22 3.17
-7 2 7 37.3 3.11
7 -2 7 44.31 3.13
-7 2 7 48.49 3.27
-2 7 -7 46.09 3.22
2 -7 -7 41.7 3.14
5 -7 7 46.94 3.17
-7 5 -7 44.29 3.18
7 -2 -7 44.3 3.18
-5 -2 7 46.96 3.18
2 5 -7 45.09 3.16
7 -2 -7 40.87 3.15
-5 7 -7 44.14 3.19
-7 2 -7 45.84 3.18
2 5 -7 40.89 3.13
2 -7 7 40.06 3.1
2 -7 7 38.22 3.1
7 -5 7 42.79 3.09
5 2 7 42.24 3.07
-2 -5 -7 42.73 3.15
6 1 -7 4.72 0.85
-7 6 -7 4.32 0.83
-7 1 7 5.46 0.92
6 1 -7 4.28 0.85
-7 1 7 3.16 0.75
7 -1 7 5.83 0.83
7 -6 -7 4.19 0.81
1 -7 -7 3.71 0.73
6 -7 7 6.52 0.9
-6 -1 -7 6.89 0.99
-1 -6 7 5.33 0.87
-7 6 -7 3.61 0.78
-1 7 -7 5.28 0.89
1 -7 7 4.74 0.84
1 -7 7 3.82 0.77
7 -1 -7 6.67 0.96
7 -1 -7 6.09 1.03
-1 -6 -7 5.67 1.01
-6 7 -7 7.4 1.02
1 6 -7 6.22 0.93
1 6 -7 5 0.86
-7 1 -7 6.97 1.01
6 -7 -7 3.65 0.73
7 -6 7 5.39 0.96
-6 -1 7 5.89 1.08
6 1 7 6.41 0.87
-6 -1 7 4.33 0.86
0 -7 7 10.4 1.33
-7 7 -7 9.69 1.3
-7 0 -7 12.13 1.33
0 -7 -7 10.79 1.2
-7 0 7 12.48 1.45
7 0 7 11.6 1.17
7 -7 7 12.39 1.27
0 7 -7 11.41 1.34
7 0 -7 12.08 1.37
7 0 -7 13.37 1.41
0 7 -7 10.56 1.25
7 -7 -7 10.9 1.28
-7 0 7 11.33 1.32
8 -4 7 4.48 0.76
4 4 7 6.35 0.9
4 4 -7 3.68 0.78
-4 -4 7 7.26 1.02
8 -4 -7 4.69 0.89
-8 4 7 6.5 1.17
4 4 -7 4.07 0.81
-8 4 -7 4.85 0.87
4 -8 7 4.9 0.8
-8 4 -7 4.1 0.85
-4 8 -7 6.61 0.97
4 -8 7 4.17 0.81
-4 -4 -7 5.28 0.91
-8 5 -7 7.03 1.2
-3 -5 7 6.82 1.16
5 3 -7 6.04 1.14
-3 8 -7 6.82 1.19
5 3 -7 7.14 1.16
-5 -3 -7 7.45 1.07
-8 3 7 8.19 1.16
5 -8 7 7.4 1.13
8 -3 7 6.94 1.02
8 -5 -7 6.28 1.13
-8 5 -7 5.77 1
-5 8 -7 8.53 1.09
3 -8 7 4.55 0.86
-3 -5 -7 5.82 0.99
-8 5 7 6.64 1.01
8 -3 -7 6.91 1.04
5 3 7 8.45 0.99
3 5 -7 6.13 0.96
3 -8 7 5.99 0.91
8 -5 7 5.94 0.92
3 5 -7 5.47 0.91
-5 -3 7 6.34 1.17
-8 3 -7 7.31 1.21
-8 6 -7 10.68 1.35
-8 6 -7 12.88 1.48
8 -6 -7 13.67 1.41
8 -2 7 13.29 1.34
-2 -6 7 13.69 1.45
6 2 -7 14.41 1.47
-6 -2 -7 12.7 1.39
6 -8 7 13.51 1.3
-8 2 7 12.45 1.26
-2 8 -7 12.89 1.44
6 2 -7 13.45 1.47
-8 2 7 14.11 1.57
2 6 -7 10.16 1.29
8 -6 7 11.57 1.23
2 -8 7 8.98 1.25
8 -2 -7 11.04 1.36
6 2 7 10.99 1.17
-2 -6 -7 10.4 1.19
-2 -6 -7 11.21 1.27
-8 2 -7 12.62 1.43
-6 -2 7 11.95 1.38
2 -8 7 10.69 1.31
8 -2 -7 11.9 1.33
-6 -2 7 11.33 1.36
-6 8 -7 11.34 1.43
2 6 -7 10.88 1.27
8 -1 7 -0.26 0.69
7 -8 7 2.48 0.69
-1 8 -7 2.55 0.77
8 -1 7 2.49 0.71
7 1 -7 1.71 0.7
1 7 7 1.49 0.53
1 -8 -7 2.01 0.7
-8 7 -7 1.23 0.57
-8 7 -7 2.39 0.82
-8 1 7 2.65 0.84
-1 8 -7 1.46 0.65
-1 -7 7 1.41 0.72
-7 -1 -7 2.11 0.75
7 1 -7 2.87 0.8
-8 1 7 2.19 0.75
8 -7 -7 1.73 0.7
-7 8 -7 1.01 0.72
-1 -7 -7 0.29 0.56
1 7 -7 0.87 0.71
8 -1 -7 1.39 0.8
8 -7 7 1.1 0.6
1 -8 7 1.15 0.68
-7 -1 7 1.16 0.77
-8 1 -7 1.33 0.73
7 -8 -7 0.5 0.66
1 7 -7 1.14 0.69
7 1 7 1.21 0.65
8 -1 -7 0.95 0.71
-1 -7 -7 1.28 0.7
1 -8 7 0.83 0.67
-7 -1 7 1.05 0.73
7 1 7 0.02 0.5
0 8 -7 0.95 0.68
8 -8 7 1.6 0.67
8 0 -7 1.13 0.73
8 -8 -7 0.87 0.68
0 -8 7 0.21 0.47
0 -8 7 1.33 0.72
-8 8 -7 1.67 0.81
-8 0 -7 2.66 0.88
0 -8 -7 1.58 0.72
8 0 -7 2.25 0.8
8 0 7 0.63 0.57
-8 0 7 2.36 0.88
-8 0 -7 1.27 0.69
8 0 7 1.53 0.64
-8 0 7 1.82 0.79
0 8 -7 1.52 0.75
-5 -4 -7 16.13 1.53
-9 5 -7 14.86 1.54
5 4 -7 12.49 1.46
-4 9 -7 14.53 1.47
-9 4 7 15.38 1.55
5 4 -7 13.82 1.54
9 -4 7 15.3 1.43
-4 -5 7 14.12 1.58
-9 5 -7 12.82 1.5
5 -9 7 15.37 1.55
-5 -4 -7 14.72 1.56
9 -5 -7 14.53 1.44
4 5 7 12.12 1.34
9 -5 7 12.25 1.33
5 4 7 13.39 1.39
-9 5 7 12.68 1.42
-4 -5 -7 13.11 1.43
4 -9 7 13.3 1.41
4 5 -7 11.41 1.35
9 -4 -7 11.78 1.45
-5 9 -7 13.86 1.41
-9 4 -7 13.57 1.5
-5 -4 7 13.54 1.49
4 5 -7 12.41 1.46
4 -9 7 11.22 1.31
-4 -5 -7 12.72 1.43
5 4 7 10.87 1.27
6 3 -7 7.82 1.23
-6 -3 -7 9.01 1.28
9 -3 7 8.45 1.11
-9 6 -7 5.8 1.14
6 -9 7 7.91 1.09
-6 -3 -7 8.47 1.16
-3 -6 7 7.66 1.25
-3 9 -7 8.39 1.26
-9 3 7 9.49 1.37
6 3 -7 7.03 1.17
9 -6 -7 7.41 1.2
-9 6 -7 7.86 1.28
3 6 7 6.18 1.02
9 -3 -7 11.04 1.38
3 6 -7 9.54 1.29
-6 -3 7 11.66 1.45
3 -9 7 9.56 1.29
6 3 7 10.24 1.24
6 3 7 10.81 1.27
3 6 -7 10.31 1.36
-6 9 -7 11.04 1.43
-3 -6 -7 11.73 1.33
3 -9 7 10.42 1.36
-3 -6 -7 10.73 1.33
-9 3 -7 10.83 1.34
9 -6 7 10.6 1.24
-6 -3 7 10.05 1.33
-9 6 7 11.84 1.38
9 -2 7 7.51 1.11
7 2 -7 8.04 1.1
-7 -2 -7 8.19 1.3
9 -7 -7 7.71 1.2
-2 9 -7 6.32 1.11
-9 2 7 8.38 1.38
-9 7 -7 8.77 1.13
-7 -2 -7 7.14 1.2
2 -9 -7 6.82 1.17
7 2 -7 7.04 1.24
-2 9 -7 7.89 1.06
7 -9 7 7.08 1.15
-2 -7 7 9.25 1.19
2 7 7 6.67 1
-9 7 -7 5.51 0.96
-7 9 -7 7.43 1.18
9 -7 7 6.89 1.09
2 -9 7 7.25 1.22
2 7 -7 7.02 1.01
7 2 7 6.54 0.96
-7 -2 7 6.36 1.08
7 -9 -7 6.1 1.02
-9 2 -7 8.56 1.21
-2 -7 -7 7.54 1.17
2 7 -7 6.58 1.19
9 -2 -7 9.52 1.19
7 2 7 8.43 1.16
9 -2 -7 7.28 1.24
2 -9 7 6.2 1
-7 -2 7 6.79 1.22
8 1 -7 3.45 0.82
8 1 -7 5.42 0.96
1 8 7 3.72 0.72
1 -9 -7 3.45 0.8
8 -9 7 5.26 0.9
9 -1 7 2.91 0.73
-1 9 -7 3.84 0.85
-9 8 -7 4.22 0.92
-1 9 -7 2.9 0.8
-1 -8 7 5.38 1.01
-8 -1 -7 6.38 1.08
9 -1 7 4.98 0.87
-9 1 7 3.94 0.88
9 -8 -7 3.51 0.84
-9 1 7 5 1.06
-8 -1 -7 4.26 0.88
8 -9 -7 3.88 0.91
-9 1 -7 4.15 0.87
-8 9 -7 7.43 1.1
-8 -1 7 3.83 0.94
1 8 -7 4.15 0.87
1 8 -7 5.24 0.89
1 -9 7 3.61 0.84
9 -1 -7 4.83 0.91
8 1 7 6.97 0.97
9 -1 -7 5.73 1
1 -9 7 5.31 1.01
-1 -8 -7 4.81 0.88
-9 1 -7 6.55 1.04
9 -8 7 7.09 0.96
-8 -1 7 4.88 0.98
8 1 7 3.95 0.82
-9 0 -7 4.02 0.88
-9 0 7 5.61 1.12
0 -9 -7 4.42 0.91
-9 0 7 4.68 0.99
0 9 -7 4.18 0.89
9 0 7 3.75 0.84
-9 0 -7 5.97 1.07
9 0 7 5.24 0.9
-9 9 -7 6.99 1.07
9 0 -7 5.22 1
9 0 -7 4.32 0.93
9 -9 -7 4.67 0.94
0 -9 7 4.57 0.96
9 -9 7 5.52 0.89
0 9 -7 3.81 0.86
-5 -5 -7 32.46 2.6
5 5 -7 28.95 2.51
10 -5 7 33.57 2.51
-5 10 -7 33.28 2.57
-5 -5 -7 32.37 2.56
5 -10 7 34.75 2.6
5 5 -7 34.83 2.64
-10 5 -7 28.92 2.59
-5 -5 7 33.93 2.66
10 -5 -7 31.1 2.59
5 5 7 30.61 2.49
-10 5 7 35.94 2.71
-10 5 -7 31.31 2.52
10 -4 7 1.04 0.7
6 4 -7 0.77 0.79
4 6 7 0.7 0.64
4 -10 -7 -0.14 0.42
-6 -4 -7 0.8 0.73
-10 4 7 0.49 0.77
10 -6 -7 0.98 0.77
6 -10 7 1 0.81
-10 6 -7 0.24 0.75
-10 6 -7 0.7 0.73
-4 10 -7 0.52 0.79
-4 -6 7 0.49 0.75
6 4 -7 0.69 0.71
-6 -4 -7 0.7 0.8
10 -6 7 0.49 0.67
-4 -6 -7 0.64 0.73
4 6 -7 0.41 0.65
-6 -4 7 0.08 0.83
4 6 -7 0.6 0.78
4 -10 7 0.2 0.57
-6 10 -7 -0.08 0.79
4 -10 7 0.41 0.76
10 -4 -7 -0.06 0.76
6 4 7 0.8 0.68
-10 4 -7 0.9 0.83
-10 6 7 0.35 0.71
-4 -6 -7 0.13 0.72
7 -10 7 14.74 1.52
-10 3 7 16.24 1.64
3 -10 -7 14.66 1.45
7 3 -7 13.03 1.49
-3 10 -7 11.42 1.33
-10 7 -7 11.67 1.48
-7 -3 -7 15.05 1.6
-10 7 -7 12.57 1.58
3 7 7 12.47 1.37
-3 -7 7 14.27 1.61
-7 -3 -7 15.09 1.65
7 3 -7 15.32 1.58
10 -7 -7 14.29 1.53
10 -3 7 15.22 1.49
-3 10 -7 12.66 1.5
7 3 7 9.41 1.31
10 -3 -7 9.63 1.37
3 7 -7 7.71 1.22
3 -10 7 8.27 1.24
-3 -7 -7 10.9 1.33
3 7 -7 9.85 1.38
-10 3 -7 11.41 1.38
7 3 7 9.42 1.2
-10 7 7 9.11 1.32
-7 -3 7 9.28 1.34
-7 -3 7 10.07 1.48
3 -10 7 9.21 1.31
-7 10 -7 9.81 1.41
10 -7 7 9.38 1.24
-10 8 -7 11.47 1.47
-10 2 7 10.1 1.58
2 8 7 10.47 1.23
2 -10 -7 10.07 1.39
-2 -8 7 10.09 1.46
8 2 -7 9.12 1.41
-2 10 -7 10.06 1.31
10 -2 7 12.03 1.33
8 -10 7 10.89 1.25
-8 -2 -7 9.71 1.39
10 -8 -7 10.65 1.39
-2 10 -7 8.72 1.34
-8 -2 -7 11.8 1.53
10 -2 7 8.24 1.24
8 2 -7 12.48 1.45
2 8 -7 11.65 1.43
-8 -2 7 11.64 1.51
8 2 7 11.04 1.4
-2 -8 -7 12.18 1.46
-10 2 -7 12.06 1.47
8 -10 -7 10.42 1.45
-8 10 -7 10.95 1.38
2 -10 7 11.83 1.5
8 2 7 12.54 1.39
10 -8 7 12.17 1.33
2 -10 7 8.92 1.36
10 -2 -7 11.5 1.38
2 8 -7 9.63 1.3
-8 -2 7 10.91 1.52
10 -2 -7 14.04 1.48
9 1 -7 4.38 0.96
-10 1 7 2.9 0.76
10 -1 7 2.11 0.73
10 -1 7 2.88 0.83
-9 -1 -7 3.34 0.93
-1 10 -7 2.11 0.74
1 -10 -7 3.79 0.93
-10 1 7 4.59 1.03
9 1 -7 2.72 0.88
-9 -1 -7 2.85 0.87
-1 -9 7 3.09 0.95
-1 10 -7 2.66 0.83
-10 9 -7 3.43 0.9
10 -9 -7 3.06 0.85
9 -10 7 3.99 0.86
10 -1 -7 4.05 0.92
1 -10 7 3.89 0.96
-10 1 -7 1.93 0.75
-9 -1 7 2.33 0.92
1 -10 7 1.48 0.74
9 1 7 1.63 0.78
10 -9 7 3.77 0.86
1 9 -7 2.37 0.76
1 9 -7 3.17 0.91
9 1 7 3.37 0.88
-9 -1 7 3.1 1
10 -1 -7 2.48 0.87
-1 -9 -7 2.66 0.91
9 -10 -7 2.79 0.89
-10 1 -7 3.11 0.96
-9 10 -7 3.82 0.92
10 0 7 12.81 1.44
-10 10 -7 13.02 1.55
0 -10 -7 10.57 1.49
-10 0 7 11.48 1.54
-10 0 -7 9.88 1.5
-10 0 7 11.55 1.7
-10 0 -7 11.33 1.5
10 0 -7 10.22 1.48
10 -10 7 12.41 1.43
0 10 -7 8.93 1.35
10 -10 -7 9.81 1.45
0 10 -7 11.55 1.48
10 0 7 11.07 1.43
10 0 -7 12.53 1.53
0 -10 7 10.27 1.5
6 -11 7 31.06 2.39
6 5 -7 31.77 2.47
5 6 7 27.89 2.3
-6 -5 -7 30.05 2.43
-11 5 7 32.63 2.48
-5 -6 7 29.9 2.46
-5 11 -7 30.33 2.4
-11 6 -7 25.43 2.3
-6 -5 -7 26.88 2.39
5 -11 -7 25.52 2.24
11 -5 7 30.58 2.31
-11 6 -7 22.9 2.35
6 5 -7 22.56 2.22
11 -6 -7 30.01 2.42
-5 -6 -7 30.35 2.49
11 -6 7 30.16 2.38
-6 11 -7 30.9 2.49
-5 -6 -7 27.52 2.44
-6 -5 7 28.63 2.5
-11 6 7 32.88 2.53
5 6 -7 30.44 2.51
6 5 7 27.55 2.37
11 -5 -7 30.37 2.49
-11 5 -7 25.98 2.43
5 -11 7 31.3 2.5
-7 -4 -7 23.88 2.07
11 -4 7 24.18 2
11 -7 -7 23.62 2.08
-11 7 -7 21.82 2.05
-7 -4 -7 24.4 2.14
7 4 -7 17.79 1.93
-4 -7 7 21.56 2.12
4 7 7 22.42 1.96
7 -11 7 24.36 2.07
-4 11 -7 21.2 2.02
7 4 -7 23.39 2.03
-11 4 7 24.67 2.17
-4 -7 -7 21.11 1.92
11 -4 -7 20.78 1.92
-11 7 7 19.5 1.92
-7 11 -7 20.92 1.85
-11 4 -7 20.62 1.94
-7 -4 7 15.86 1.78
4 -11 7 16.78 1.8
-7 -4 7 19.84 1.99
4 7 -7 21.01 1.96
7 4 7 21.87 1.89
11 -7 7 21.18 1.81
-8 -3 -7 3.32 0.96
-11 3 7 5.3 1.1
-3 -8 7 5.61 1.12
-3 11 -7 4.17 0.9
-3 11 -7 2.63 0.79
3 -11 -7 3.92 0.89
11 -3 7 1.8 0.71
8 3 -7 2.35 0.8
-11 8 -7 2.83 0.81
11 -3 7 4.96 0.91
8 3 -7 3.93 0.92
11 -8 -7 5.52 1.01
3 8 7 3.21 0.77
8 -11 7 5.66 1.02
-11 8 -7 3.01 0.93
-8 -3 -7 5.05 1.03
3 8 -7 0.72 0.57
-8 -3 7 3.05 0.98
-11 8 7 1.47 0.72
8 3 7 3.05 0.89
-8 11 -7 2.82 0.84
-11 3 -7 3.68 1
11 -8 7 1.58 0.75
3 -11 7 1.84 0.83
11 -3 -7 2.35 0.89
8 3 7 1.36 0.78
3 8 -7 3.05 0.9
3 -11 7 2.27 0.85
-3 -8 -7 3.63 0.95
-8 -3 7 1.14 0.78
-2 11 -7 25.19 2.23
11 -2 7 27.72 2.22
11 -9 -7 26.75 2.25
-9 -2 -7 28.45 2.39
-2 11 -7 22.6 2.16
-2 -9 7 26.4 2.32
-11 9 -7 24.37 2.25
9 2 -7 29.8 2.34
2 9 7 22.78 2.08
9 2 -7 21.95 2.19
-9 -2 -7 22.92 2.29
-11 2 7 29.27 2.47
2 -11 -7 22.28 2.24
9 -11 7 29.24 2.25
11 -2 -7 29.88 2.37
11 -2 -7 27.04 2.35
11 -9 7 28.91 2.24
9 2 7 27.83 2.28
-11 2 -7 30.91 2.48
-9 -2 7 26.44 2.42
9 -11 -7 25.37 2.35
2 9 -7 25.7 2.28
-2 -9 -7 24.78 2.3
2 -11 7 25.11 2.33
-9 11 -7 26.73 2.25
9 2 7 26.7 2.26
2 -11 7 20.99 2.22
-9 -2 7 28.71 2.37
-1 11 -7 1.89 0.81
-10 -1 -7 2.35 0.91
10 1 -7 3.16 0.98
11 -10 -7 1.16 0.79
-11 1 7 3.51 1.15
11 -1 7 2.06 0.77
-10 -1 -7 2.02 0.92
-1 11 -7 1.03 0.74
10 1 -7 1.19 0.82
10 -11 7 2.63 0.85
11 -1 7 2.31 0.85
1 -11 -7 2.08 0.94
-11 10 -7 3.66 1
-1 -10 7 2.11 0.99
1 -11 7 0.46 0.85
-10 -1 7 0.69 0.85
-10 -1 7 -0.32 0.91
-11 1 -7 0.25 0.83
10 -11 -7 0.13 0.79
-1 -10 -7 -0.11 0.81
1 10 -7 0.04 0.5
-10 11 -7 0.62 0.85
11 -1 -7 1.04 0.82
11 -10 7 0.41 0.78
1 10 -7 0.7 0.81
10 1 7 0.12 0.78
1 -11 7 0.17 0.7
10 1 7 0.58 0.8
11 -1 -7 0.36 0.79
-11 1 -7 0.4 0.68
0 11 -7 7.89 1.18
11 0 7 7.26 1.1
11 0 -7 8.28 1.42
11 -11 7 8.13 1.34
11 0 7 8.39 1.37
-11 0 -7 8.95 1.33
-11 11 -7 7.5 1.16
11 0 -7 6.9 1.16
0 -11 7 5.14 1.12
-11 0 7 7.13 1.27
0 -11 -7 6.07 1.12
11 -11 -7 6.89 1.16
12 -6 7 8.67 1.31
12 -6 -7 10.05 1.32
-6 -6 -7 7.87 1.39
-12 6 -7 5.78 1.18
-6 12 -7 7.75 1.34
-6 -6 -7 5.94 1.11
6 6 7 8.2 1.12
-6 -6 7 6.27 1.17
-12 6 7 10.71 1.49
6 -12 7 8.63 1.42
6 6 -7 8.93 1.29
5 7 7 17.38 1.79
12 -5 7 18.16 1.8
7 5 -7 21.16 2
12 -7 -7 19.47 1.9
-12 7 -7 14.81 1.82
-12 7 -7 17.99 1.83
5 -12 -7 18.37 1.71
-5 12 -7 16.1 1.79
-5 -7 7 17.45 1.95
-7 -5 -7 18.31 1.91
7 -12 7 19.63 1.9
-7 -5 -7 17.83 1.94
-12 5 7 21.34 1.99
-5 -7 -7 18.77 1.89
7 5 7 18.5 1.82
-12 7 7 18.3 1.97
5 -12 7 18.6 1.91
5 7 -7 19.25 1.92
7 -12 -7 15.64 1.56
-12 5 -7 18.39 1.98
-7 12 -7 19.42 1.89
12 -5 -7 18.37 1.89
-7 -5 7 19.38 1.97
12 -7 7 17.56 1.76
12 -8 -7 6.22 1.09
-12 8 -7 6.03 1.08
4 -12 -7 3.93 0.95
12 -4 7 7.54 1.27
8 4 -7 6.89 1.14
-8 -4 -7 5.99 1.17
-8 -4 -7 8.39 1.27
-4 -8 7 7.02 1.22
8 -12 7 6.98 1.11
-12 4 7 7.58 1.27
-4 12 -7 5.25 0.96
-12 8 -7 4.34 1.01
4 8 7 4.67 0.9
-4 12 -7 5.76 1.05
4 -12 7 4.51 1
-12 8 7 6.84 1.21
-8 -4 7 5.79 1.13
-8 -4 7 5.47 1.02
8 4 7 6.21 1.02
-4 -8 -7 7.2 1.12
12 -8 7 8.18 1.25
4 8 -7 7.56 1.34
12 -4 -7 7.32 1.23
-8 12 -7 8.02 1.24
-12 4 -7 8.27 1.5
-12 9 -7 46.76 3.59
9 3 -7 53.92 3.68
-3 12 -7 39.7 3.5
12 -3 7 41.85 3.47
12 -9 -7 49.84 3.62
-3 12 -7 44.55 3.56
-9 -3 -7 48.75 3.7
-12 3 7 50.92 3.8
3 9 7 43.82 3.48
3 -12 -7 46.57 3.51
9 -12 7 53.45 3.63
12 -3 7 52.36 3.57
-9 -3 -7 44.51 3.62
-3 -9 7 48.06 3.66
12 -9 7 46.69 3.36
12 -3 -7 40.96 3.44
12 -3 -7 48.48 3.47
-9 -3 7 43.47 3.46
9 3 7 45.11 3.39
-9 12 -7 44.22 3.35
-12 3 -7 48.23 3.58
3 9 -7 44.09 3.42
-3 -9 -7 42.09 3.4
-9 -3 7 41.7 3.45
-12 10 -7 6.8 1.17
-10 -2 -7 5.43 1.1
10 -12 7 9.53 1.28
10 2 -7 6.92 1.16
-12 2 7 6.7 1.34
12 -2 7 7.51 1.16
-2 12 -7 4.75 0.94
12 -10 -7 7.48 1.37
-2 12 -7 7.45 1.17
2 -12 -7 6.27 1.11
-10 -2 -7 7.91 1.34
-2 -10 7 6.02 1.17
12 -2 7 4.49 0.98
-10 -2 7 6.16 1.19
12 -2 -7 8.73 1.5
2 -12 7 7.43 1.36
10 -12 -7 8.61 1.44
12 -10 7 8.07 1.32
-12 2 -7 7.07 1.11
2 -12 7 9.48 1.46
-12 2 -7 11.44 1.69
-10 12 -7 7.59 1.01
-10 12 -7 9.86 1.37
12 -2 -7 10.51 1.43
-10 -2 7 10 1.63
-2 -10 -7 8.5 1.44
10 2 7 9.49 1.43
2 10 -7 9.11 1.45
11 1 -7 13.74 1.63
-12 1 7 13.18 1.85
-1 -11 7 11.53 1.64
1 11 7 10.38 1.13
12 -11 -7 12.58 1.59
1 -12 -7 10.44 1.53
-12 11 -7 8.07 1.07
-1 12 -7 10.41 1.53
11 -12 7 13.28 1.51
11 -12 7 9.01 1.01
-11 -1 -7 11.01 1.49
12 -1 7 11.96 1.59
-11 -1 -7 10.31 1.59
-12 11 -7 10.27 1.45
-11 12 7 8.2 1.36
12 -1 7 9.59 1.41
1 11 7 8.62 1.06
-11 -1 -7 8.79 1.17
1 11 -7 8.86 1.46
12 -11 7 9.1 1.37
11 1 7 8.99 1.45
-1 12 7 7.21 1.01
-11 -1 7 10.7 1.69
-11 -1 7 8.9 1.41
1 -12 7 8.76 1.53
-12 1 -7 10.62 1.33
12 -1 -7 10.79 1.53
11 1 7 10.34 1.49
-1 -11 -7 8.63 1.46
-11 12 -7 9.62 1.22
-12 1 -7 10.27 1.57
-11 12 -7 10.29 1.51
11 -12 -7 8.41 1.55
-12 11 7 6.05 1.06
12 -1 -7 6.63 1.15
0 -12 -7 15.27 1.83
12 -12 7 17.88 1.81
0 12 -7 16.58 1.83
12 0 7 14.05 1.71
-12 12 7 14.95 1.72
-12 0 -7 16.93 1.99
-12 0 7 17.39 2.08
-12 12 7 12.56 1.47
12 -12 -7 18.28 1.88
0 12 7 14.91 1.48
-12 0 -7 17.45 1.76
-12 12 -7 17.17 1.84
-12 12 -7 16.57 1.57
0 12 7 15.99 1.45
12 -12 7 13.74 1.36
12 0 -7 18.02 1.89
12 0 7 18.94 1.88
0 -12 7 17.62 1.87
-13 7 -7 0.21 0.51
-13 6 7 -0.46 0.39
-13 6 7 0.13 0.39
-7 -6 -7 0.36 0.84
-13 7 -7 0.44 0.86
-7 13 7 0.42 0.48
-7 -6 -7 0.03 0.77
7 -13 7 0.43 0.93
-6 -7 7 0.21 0.95
-6 13 -7 0.85 0.81
13 -6 7 0.34 0.82
13 -7 -7 0.47 0.83
6 7 7 0.32 0.79
-13 6 7 -0.27 1.01
7 6 -7 0.85 0.94
6 -13 -7 -0.15 0.51
6 7 7 0.01 0.3
-13 7 7 0.06 1.02
7 6 7 0.1 0.73
13 -6 -7 -0.13 0.8
-13 7 7 0.39 0.53
-13 6 -7 -0.12 0.78
6 7 -7 -0.23 0.88
7 -13 -7 0.4 0.6
6 -13 7 -0.08 0.94
-6 -7 -7 0.24 0.55
-7 13 -7 0.24 0.81
-6 13 7 -0.04 0.51
13 -7 7 -0.28 0.67
-7 -6 7 -0.32 0.88
6 -13 7 -0.59 0.31
7 6 7 -0.13 0.31
13 -7 7 -0.02 0.78
-6 -7 -7 0.44 0.85
-13 5 7 14.91 1.91
5 8 7 13.67 1.56
-5 13 -7 10.4 1.46
-13 8 -7 9.68 1.47
5 -13 -7 12.99 1.47
8 -13 7 14.32 1.71
-13 8 -7 11.37 1.5
-8 -5 -7 13.15 1.69
8 5 -7 13.39 1.76
13 -5 7 11.52 1.55
-5 -8 7 12.32 1.71
8 -13 7 9.45 1.11
-8 13 7 9.89 1.19
5 8 7 10.24 1.07
13 -8 -7 11.97 1.59
-8 -5 -7 11.63 1.63
8 -13 -7 12.09 1.39
5 -13 7 12.75 1.66
13 -8 7 15.26 1.63
-13 8 7 14.2 1.8
-13 5 -7 15.62 1.74
-8 13 -7 16.23 1.72
-5 -8 -7 13.98 1.71
5 8 -7 14.72 1.78
8 5 7 14.43 1.64
-5 13 7 12.33 1.33
-13 8 7 13.5 1.45
13 -5 -7 14.11 1.7
-4 13 -7 4.47 0.97
13 -4 7 5.24 1.02
-13 9 -7 5.19 1.04
-4 -9 7 3.3 0.98
9 4 -7 5.34 1.08
-9 13 7 4.95 0.76
-13 4 7 7.28 1.39
9 -13 7 3.93 0.66
4 -13 -7 4.85 1.01
-13 4 7 3.24 0.81
-4 -9 7 6.04 1.23
9 -13 7 5.89 1.09
-4 13 -7 5.86 1.02
4 9 7 4.14 0.65
-9 -4 -7 5.02 1.17
13 -9 -7 5.04 1.07
4 9 7 4.15 0.89
-9 -4 -7 4.31 1.06
13 -4 7 3.07 0.85
4 -13 7 3.6 0.99
-4 -9 -7 4.27 1.06
-9 -4 7 1.61 0.77
13 -9 7 3.5 0.91
-13 9 7 3.23 0.81
9 4 7 3.55 0.92
-13 9 7 2.81 0.99
4 9 -7 2.74 0.95
-9 -4 7 4.08 1.08
-4 13 7 2.22 0.62
-13 4 -7 4.49 1.12
-13 4 -7 2.38 0.6
-9 13 -7 3.33 0.92
-9 13 -7 3.06 0.65
13 -4 -7 3.01 0.92
10 -13 7 -0.02 0.83
10 3 -7 0.77 0.87
-13 3 7 -0.48 0.68
13 -3 7 0.31 0.76
13 -3 7 0.71 0.87
-10 -3 -7 0.58 0.87
-13 3 7 1.41 1.11
3 10 7 0.68 0.54
-3 13 -7 -0.08 0.65
-13 10 -7 0.54 0.83
-3 -10 7 0.84 0.99
-10 13 7 -0.41 0.72
13 -10 -7 0.74 0.88
-3 -10 7 -0.02 0.81
3 -13 -7 0.2 0.82
-10 -3 -7 0.7 1.03
-10 13 7 0.2 0.61
-3 13 -7 0.71 0.85
3 10 7 0.31 0.76
10 -13 7 0.69 0.54
-13 3 -7 1.86 0.77
-10 -3 7 1.43 0.98
-3 -10 -7 0.71 0.84
3 -13 7 0.24 0.85
-10 13 -7 2.02 0.94
10 3 7 0.91 0.85
-3 13 7 1.14 0.6
3 -13 7 1.29 0.88
13 -3 -7 1.97 0.95
13 -3 -7 2.8 1.04
-10 13 -7 2.01 0.72
3 10 -7 2.33 0.95
-13 3 -7 2.31 1
13 -10 7 1.71 0.87
-13 10 7 2.01 0.77
-10 -3 7 1.52 0.97
-11 -2 -7 5.2 1.25
11 -13 7 4.96 0.71
-13 11 -7 3.76 0.97
2 -13 -7 4.75 1.02
2 11 7 5.19 0.77
13 -2 7 3.95 1
-11 13 7 3.85 0.92
-11 -2 -7 3.62 1.02
-13 2 7 5.72 1.36
2 11 7 4.16 0.72
-2 -11 7 5.71 1.23
13 -2 7 4.2 0.95
11 2 -7 4.85 1.06
-2 13 -7 4.84 1.05
-2 -11 7 2.71 0.92
11 -13 7 3.94 1.05
-13 11 -7 4.29 0.78
13 -11 -7 3.63 0.98
-11 -2 -7 3.95 0.8
-13 2 7 3.6 0.86
-2 13 7 2.96 0.55
-2 -11 -7 4.94 1.09
13 -2 -7 3.24 1.01
-13 2 -7 4.21 1.08
11 2 7 3.27 0.96
-13 2 -7 3.9 0.89
-11 -2 7 2.69 0.95
2 11 -7 4.62 1.09
-11 13 -7 5.56 1.09
-13 11 7 3.48 0.83
11 -13 -7 3.46 1.02
-11 13 -7 4.08 0.83
2 -13 7 3.1 0.95
-11 -2 7 4.24 1.21
13 -2 -7 5.74 1.15
-2 13 7 3.37 0.69
-13 11 7 2.43 0.81
2 -13 7 2.5 0.78
13 -11 7 2.98 0.94
-12 -1 -7 1.4 0.84
13 -1 7 1.5 0.85
1 -13 -7 1.15 0.83
-13 1 7 2.22 1.18
-13 1 7 1.68 0.79
-13 12 -7 1.65 0.95
1 12 7 1.56 0.65
12 -13 7 2.14 1.02
-13 12 -7 1.31 0.74
13 -1 7 0.81 0.8
-12 13 7 0.71 0.83
-1 13 -7 0.85 0.85
13 -12 -7 1.88 0.99
12 1 -7 1.95 0.98
1 -13 -7 2.36 0.93
-12 -1 -7 1.66 0.98
1 12 7 1.2 0.63
-1 -12 7 1.89 0.98
12 -13 7 0.5 0.58
-12 13 7 0.53 0.54
-13 12 7 1.07 0.8
-1 13 7 1.16 0.62
12 1 7 1.46 0.84
1 12 -7 2.21 0.94
12 -13 -7 1.79 0.95
13 -12 7 1.94 0.54
1 -13 7 1.28 0.87
-12 -1 7 2.76 1.17
13 -1 -7 1.39 0.92
-13 1 -7 2.37 0.85
-12 13 -7 2.44 0.81
13 -1 -7 0.43 0.66
-13 12 7 1.16 0.77
1 -13 7 0.12 0.67
13 -12 7 2.24 0.94
-12 13 -7 1.36 0.88
-13 1 -7 1.96 1.09
-1 -12 -7 1.63 0.92
-12 -1 7 0.14 0.53
-13 12 7 0.88 0.7
-1 13 7 1.16 0.65
-13 13 -7 0.22 0.87
-13 13 7 0.42 0.66
0 13 -7 1.15 0.9
-13 13 -7 0.93 0.73
-13 0 7 0.11 0.74
-13 0 -7 0.73 1.03
13 -13 7 0.72 0.58
13 -13 7 0.47 0.91
0 13 7 0.48 0.66
-13 13 7 0.43 0.85
13 0 -7 1.12 0.96
0 13 7 0.29 0.44
-13 0 -7 1.19 0.83
13 -13 -7 0.63 0.95
13 0 7 -0.04 0.82
0 13 7 0.42 0.6
-13 0 7 1.2 1.2
0 -13 -7 0.77 0.86
0 -13 7 1.18 0.91
-13 13 7 0.68 0.65
0 -13 -7 1.07 0.9
13 0 7 0.14 0.37
7 -14 7 2.83 1.09
14 -7 -7 3.84 1.07
-14 7 7 2.82 0.79
-7 14 7 2.93 0.7
-7 -7 -7 4 1.06
7 7 7 2.75 0.94
7 -14 -7 1.51 0.7
-7 -7 7 2.59 1.04
7 7 -7 3.1 1.06
-14 7 -7 2.22 0.94
7 7 7 2.65 0.57
-7 -7 7 1.76 1
-14 7 7 3.61 1.23
14 -7 7 4.18 0.99
7 -14 7 2.99 0.67
-14 7 7 1.87 0.7
-7 14 -7 3.13 0.95
-14 6 7 9.73 1.54
8 -14 7 11.65 1.29
-8 -6 -7 13.76 1.77
6 8 7 12.86 1.62
14 -6 7 11.8 1.58
8 -14 7 15.31 1.79
-14 6 7 15.31 2.05
-8 14 7 14.08 1.39
-6 -8 7 9.02 1.7
-14 8 -7 9.74 1.55
-14 6 7 12.55 1.37
-6 -8 7 14.65 1.86
14 -8 -7 12.55 1.72
-6 14 -7 10.24 1.49
8 6 -7 14.93 1.78
6 8 7 11.82 1.23
8 6 7 12.02 1.55
-8 -6 7 7.06 1.48
6 -14 7 9.4 1.13
6 -14 7 10.89 1.72
6 8 -7 11.36 1.67
8 6 7 7.96 0.99
14 -8 7 10.76 1.53
-6 -8 -7 11.83 1.63
14 -6 -7 11.23 1.64
-8 -6 7 13.67 1.75
-14 8 7 11.74 1.39
-6 14 7 11.13 1.34
-14 8 7 11.44 1.76
-8 14 -7 9.87 1.54
-8 14 -7 8.28 1.08
-14 6 -7 10.79 1.59
8 -14 -7 11.55 1.27
9 -14 7 0.58 0.92
5 9 7 0.23 0.33
-5 -9 7 -0.17 0.91
-14 5 7 0.73 0.54
-5 14 -7 0.4 0.76
14 -9 -7 0.58 0.91
5 -14 -7 -0.12 0.75
-9 -5 -7 0.31 0.88
-9 14 7 0.12 0.75
14 -5 7 -1.1 0.6
-5 -9 7 1.41 1.04
-5 14 -7 0.21 0.56
9 -14 7 -0.22 0.57
-14 9 -7 -0.43 0.76
-14 5 7 0.92 1.15
-14 9 -7 0.06 0.53
-9 -5 -7 0.18 0.9
14 -5 7 0.26 0.81
5 9 7 0.5 0.79
-9 14 7 0.32 0.66
-14 5 7 -0.4 0.75
9 5 -7 0.32 1
5 9 7 0.35 0.54
-14 5 -7 0.31 0.94
9 5 7 0.16 0.29
14 -5 -7 0.48 0.83
9 5 7 0.12 0.39
-9 14 -7 1.23 0.67
9 5 7 -0.08 0.82
-14 5 -7 0.94 0.68
-14 9 7 0.81 0.94
5 -14 7 0.17 0.89
5 9 -7 0.64 0.89
-5 -9 -7 0.27 0.88
14 -9 7 1.17 0.85
9 -14 -7 -0.02 0.52
-5 14 7 0.94 0.64
-9 -5 7 -1.19 0.63
-14 9 7 0.34 0.76
-9 14 -7 0.18 0.93
-9 -5 7 0.32 0.91
5 -14 7 -0.84 0.41
14 -4 7 3.76 0.9
-10 -4 -7 4.21 1.13
-4 -10 7 2.29 1
-4 14 -7 3.68 0.94
-14 4 7 3.58 0.9
14 -10 -7 3.43 1.03
-10 14 7 4.75 0.82
4 -14 -7 2.54 0.89
10 4 -7 6.14 1.28
10 -14 7 4.12 0.74
-10 -4 -7 3.83 1.07
4 10 7 4.85 0.97
-14 4 7 4.7 1.29
4 10 7 3.87 0.69
-4 -10 7 3.91 1.12
-14 10 -7 2.85 0.93
-10 14 7 3.71 0.95
10 -14 7 6.63 1.27
14 -10 7 4.91 1.01
-10 14 -7 3.88 1.02
-14 4 -7 4.36 1.19
4 10 -7 3.82 1.05
-14 10 7 4.28 0.93
-4 -10 -7 2.38 1
-14 4 -7 4.04 0.95
-10 14 -7 4.17 0.86
14 -4 -7 3.43 0.99
4 -14 7 3.86 1.07
-10 -4 7 3.87 1.07
10 4 7 3.27 0.96
14 -4 -7 3.26 1.02
-4 14 7 3.11 0.73
11 -14 7 13.95 1.36
11 3 -7 16.02 1.85
-3 -11 7 14.78 1.87
14 -11 -7 15.89 1.81
-3 14 -7 15.24 1.72
-14 3 7 15.18 2.07
-14 11 -7 13.41 1.48
11 -14 7 16.56 1.84
3 -14 -7 15.22 1.69
-11 -3 -7 14.35 1.86
14 -3 7 9.72 1.48
-11 -3 -7 11.78 1.72
-11 -3 -7 13.15 1.45
-14 11 -7 15.01 1.7
-3 -11 7 12.78 1.79
-14 3 7 9.92 1.6
3 11 7 14.21 1.34
3 11 7 11.09 1.18
-11 14 7 11.73 1.66
3 11 -7 13 1.73
-3 14 7 10.36 1.33
-14 11 7 13.16 1.57
11 -14 -7 12 1.72
-3 -11 -7 12.87 1.68
-14 3 -7 14.54 1.88
-14 3 -7 13.22 1.7
-11 14 -7 13.31 1.73
11 3 7 11.65 1.63
14 -3 -7 13.07 1.72
-14 11 7 12.77 1.54
-11 14 -7 12.82 1.44
-11 -3 7 11.77 1.64
14 -11 7 13.57 1.6
3 -14 7 11.12 1.67
-11 -3 7 10.69 1.57
14 -3 -7 11.58 1.67
2 -14 -7 8.85 1.48
2 12 7 9.14 1.21
2 12 7 9.14 1.2
-2 -12 7 6.45 1.2
14 -12 -7 9.34 1.64
-12 -2 -7 9.11 1.48
12 -14 7 11.77 1.6
-14 12 -7 9.24 1.52
-12 14 7 9.77 1.26
14 -2 7 7.09 1.13
12 -14 7 9.4 1.14
-14 2 7 9.73 1.19
-14 12 -7 9.23 1.38
-12 -2 -7 10 1.7
-2 14 -7 9.58 1.52
12 2 -7 9.85 1.65
2 12 7 7.72 1.09
-14 2 7 8.65 1.55
-2 -12 7 11.15 1.68
-2 14 7 10.18 1.09
14 -2 -7 13.09 1.75
-12 14 -7 11.47 1.66
-14 12 7 10.89 1.57
14 -12 7 11.51 1.15
12 2 7 10.98 1.18
2 12 -7 13.71 1.68
14 -12 7 13.02 1.63
12 2 7 10.34 1.61
-14 2 -7 13.8 1.87
-2 -12 -7 12.72 1.69
-14 12 7 9.55 1.51
-14 2 -7 12.5 1.63
-14 12 7 13.06 1.59
-2 14 7 11.39 1.29
-12 14 -7 11.71 1.41
12 -14 -7 11.51 1.73
-12 -2 7 13.36 1.87
-14 13 -7 3.86 0.85
1 13 7 2.83 0.73
14 -1 7 1.67 0.83
1 13 7 1.7 0.62
-13 14 7 2.09 0.66
13 -14 7 3.03 1.08
-13 14 7 1.85 0.88
-1 -13 7 1.55 0.85
13 1 -7 1.59 0.95
14 -13 -7 1.71 0.98
14 -1 7 1.99 0.54
1 -14 -7 3.45 1.02
-13 -1 -7 2.43 0.87
-1 14 -7 2.12 0.94
-14 13 -7 1.62 0.87
-13 -1 -7 2.55 1.12
1 13 7 2.29 0.69
-14 1 7 2.32 1.3
-13 14 7 2.79 0.78
-1 -13 7 3.43 1.03
13 -14 7 2.55 0.67
-14 1 7 1.96 0.83
14 -13 7 4 1.01
-13 14 -7 4.59 1.1
-13 -1 7 4.21 0.89
-14 1 -7 4.17 1.18
13 1 7 3.59 0.69
-13 -1 7 3.34 1.2
-14 1 -7 6.05 1
14 -13 7 3.22 0.67
-1 14 7 2.42 0.63
-13 14 -7 4.6 0.9
14 -1 -7 3.3 1.05
-14 13 7 3.5 0.88
-14 13 7 2.62 0.81
13 -14 -7 4.85 1.12
-1 -13 -7 3.27 1
-1 14 7 5.05 0.81
1 13 -7 3.49 1
13 1 7 3.44 0.95
-14 13 7 4.75 1
-1 -13 -7 4.8 1.12
0 -14 -7 0.12 0.58
0 -14 -7 0.37 0.93
0 14 -7 0.03 0.88
-14 14 -7 0.21 0.85
14 0 7 0.17 0.57
-14 0 -7 0.34 0.76
-14 14 7 -0.53 0.79
0 -14 7 0.2 0.57
-14 14 7 0.03 0.73
0 14 7 0.19 0.57
14 -14 7 0.44 0.91
-14 14 -7 -0.4 0.76
0 14 7 -0.16 0.58
0 -14 7 -0.99 0.64
-14 0 7 -1.19 1.09
-14 0 7 0.7 0.75
14 -14 -7 -0.29 0.89
-14 0 -7 0 0.98
14 -14 7 0.05 0.55
-14 14 7 0.18 0.73
14 0 -7 0.05 0.93
14 0 7 -0.05 0.74
-8 15 7 0.24 0.65
-7 15 -7 0.03 0.79
-7 15 -7 0.44 0.41
-7 -8 7 -0.04 0.96
8 -15 7 0.66 1
-15 8 -7 0.34 0.78
15 -7 7 -0.38 0.8
-8 -7 -7 0.36 0.98
8 -15 7 -0.78 0.57
-15 7 7 0.2 0.69
-15 7 7 -0.05 1.18
15 -7 7 -0.08 0.54
15 -8 -7 -0.01 0.91
7 8 7 0.59 0.57
-8 15 7 0.19 0.65
-7 -8 7 -0.33 0.91
7 8 7 0 0.55
7 -15 -7 0.32 0.64
8 7 -7 -0.52 0.94
7 8 7 0.62 0.88
-15 7 7 -0.12 0.75
-8 15 -7 0.49 0.85
-7 -8 -7 -0.05 0.93
-15 8 7 -0.14 0.69
15 -8 7 -0.57 0.62
7 8 -7 0.74 1.03
-8 -7 7 0.84 1.05
-15 7 -7 -0.5 0.79
8 7 7 -0.3 0.53
-7 15 7 0.06 0.59
-15 8 7 0 0.68
-15 7 -7 0.4 0.55
8 -15 -7 0.27 0.6
-7 15 7 0.14 0.41
-8 -7 7 -1.41 0.89
-15 8 7 -0.75 1.04
8 7 7 0.32 0.86
15 -7 -7 0.07 0.92
8 7 7 0.59 0.54
7 -15 7 -0.07 0.96
7 -15 7 -0.38 0.6
-8 15 -7 0.79 0.55
9 -15 7 6.45 1.32
9 -15 7 2.82 0.71
6 9 7 4.81 0.75
-15 6 7 5.22 0.83
9 6 -7 5.47 1.19
-6 -9 7 3.51 1.08
-9 15 7 3.55 0.9
-15 6 7 2.24 0.88
-9 15 7 3.52 0.79
15 -9 -7 4.09 1.09
-6 15 -7 2.37 0.81
-6 -9 7 4.78 1.15
-9 -6 -7 3.43 1.07
-15 6 7 6.73 1.49
6 9 7 4.92 1.04
6 9 7 2.95 0.67
-6 -9 -7 2.63 1.01
9 6 7 2.4 0.58
-9 15 -7 2.36 0.69
-9 -6 7 3.48 1.17
-9 15 -7 2.04 0.9
6 -15 7 2.06 1.04
9 6 7 2.93 0.63
15 -9 7 1.52 0.75
-15 6 -7 2.21 0.81
-9 -6 7 1.53 0.97
9 -15 -7 1.13 0.57
-15 6 -7 2.19 0.98
-15 9 7 2.77 0.81
-15 9 7 2.22 1.14
9 6 7 1.9 0.87
15 -6 -7 3.76 1.1
6 9 -7 2.79 1.01
6 -15 7 2.24 0.7
-6 15 7 3.39 0.79
10 -15 7 10.72 1.24
5 -15 -7 9.09 1.45
5 10 7 9.6 1.19
-10 -5 -7 9.82 1.63
-15 5 7 10.97 1.23
-15 5 7 9.12 1.51
-5 -10 7 9.89 1.73
5 10 7 11.52 1.57
-10 15 7 8.99 1.57
-10 15 7 11.14 1.4
10 -15 7 11.42 1.73
5 10 7 10.14 1.25
10 5 -7 12.84 1.82
-15 10 -7 8.28 1.39
-5 -10 7 12.57 1.83
-15 5 7 12.7 2.01
15 -10 -7 10.8 1.69
5 -15 7 10.39 1.6
5 10 -7 12.86 1.7
-15 5 -7 12.18 1.83
10 5 7 11.23 1.28
-15 5 -7 12.91 1.64
-5 -10 -7 11.46 1.67
5 -15 7 8.96 1.22
-10 15 -7 11.92 1.67
15 -5 -7 12.7 1.7
15 -10 7 9.45 1.37
-10 -5 7 9.34 1.64
10 5 7 9.68 1.57
10 5 7 9.56 1.06
-10 15 -7 12.23 1.4
-5 15 7 11.87 1.36
-15 10 7 12.82 1.46
11 -15 7 1.91 0.65
15 -4 7 -0.09 0.65
4 11 7 2.21 0.62
-11 -4 -7 1.97 0.61
15 -11 -7 1.67 0.99
-15 4 7 2.45 1.23
-4 -11 7 2.21 1.01
-11 15 7 2.78 0.94
4 11 7 2.46 0.66
4 -15 -7 2.17 0.93
-15 11 -7 2.16 0.76
-11 -4 -7 1.82 0.97
11 4 -7 3.4 1.16
-11 -4 -7 1.57 0.92
11 -15 7 3.5 1.16
-15 4 7 1.31 0.43
-15 4 7 0.97 0.79
-4 -11 7 1.74 1.03
-15 11 -7 0.4 0.84
-4 15 -7 0.98 0.71
-4 15 7 1.65 0.7
-4 -11 -7 1.33 0.95
-4 15 7 0.71 0.5
-11 15 -7 0.84 0.94
15 -4 -7 1.94 1
-11 15 -7 1.1 0.7
-15 4 -7 1.18 0.96
15 -4 -7 1.79 0.95
4 -15 7 0.95 0.87
-15 11 7 0.91 0.79
4 -15 7 0.43 0.54
11 4 7 1.58 0.61
-15 11 7 0.09 0.41
11 4 7 1.22 0.86
11 -15 -7 1.13 1
-15 4 -7 1.34 0.87
4 11 -7 1.45 1
-11 -4 7 1.13 0.86
15 -11 7 1.06 0.75
3 12 7 1.03 0.64
-15 3 7 1.42 1.19
-12 15 7 1.94 0.91
3 12 7 2.64 0.73
-12 15 7 0.29 0.44
15 -12 -7 1.94 1.04
-12 -3 -7 2.37 1.06
3 -15 -7 1.85 0.9
-12 -3 -7 1.08 0.81
-3 -12 7 1.58 0.95
15 -3 7 0.17 0.63
12 -15 7 2.67 1.16
-15 12 -7 1.42 0.93
-15 12 -7 1.71 0.81
-3 15 -7 1.45 0.85
-15 3 7 2.01 0.8
-12 -3 -7 0.28 0.83
15 -3 7 1.19 0.46
12 -15 7 1.6 0.63
3 12 7 2.21 0.65
12 3 -7 1.88 1.03
-3 -12 7 1.37 1
3 -15 7 2.45 0.8
-15 3 -7 3.93 1.12
-15 12 7 3.97 0.92
3 12 -7 4.76 1.13
15 -12 7 4 0.61
-3 15 7 3.43 0.67
-12 15 -7 4.62 0.85
15 -3 -7 5.17 1.17
-12 15 -7 4.23 1.01
12 -15 -7 4.06 1.12
12 3 7 2.43 0.89
-3 15 7 5.37 0.83
-15 12 7 4.34 1
12 3 7 4.06 0.74
-3 -12 -7 4.16 1.08
-15 3 -7 5.93 1.03
-15 12 7 4.01 0.9
15 -12 7 2.57 0.85
13 -15 7 6.51 0.83
-2 15 -7 4.6 1
2 13 7 4.42 0.79
-15 2 7 5.69 0.94
-2 -13 7 6.06 1.23
13 -15 7 4.43 1.12
-13 15 7 5.01 1.03
15 -13 -7 4.78 1.17
15 -2 7 4.67 0.73
-2 -13 7 5.53 1.06
-13 -2 -7 4.5 1.19
13 2 -7 5.42 1.24
-15 13 -7 6.06 0.98
2 13 7 7.01 0.89
-15 13 -7 4.17 1.04
2 13 7 3.82 0.72
2 -15 -7 5 1.09
-15 2 7 4.58 1.4
-13 15 7 2.79 0.74
-13 -2 -7 4.95 0.93
-15 13 7 6.03 1.01
15 -13 7 6.45 1.07
13 2 7 6.33 1.08
2 13 -7 4.78 1.09
-2 15 7 6.32 1.11
-13 15 -7 8.66 1.45
-15 2 -7 7.37 1.32
13 -15 -7 7.1 1.28
15 -2 -7 7.69 1.33
-13 15 -7 8.52 1.27
-2 15 7 6.41 0.81
13 2 7 5.39 0.79
-2 -13 -7 6.61 1.19
-2 -13 -7 5.25 1.13
-15 2 -7 8.86 1.1
15 -13 7 6.64 1.02
-15 13 7 6.33 1.06
-13 -2 7 6.11 0.92
1 -15 -7 8.94 1.26
-15 1 7 7.74 1.52
-15 1 7 5.98 0.97
1 14 7 6.38 1.07
-1 15 -7 5.91 1.12
-14 15 7 4.74 1.02
14 -15 7 5.69 0.78
1 14 7 6.61 0.82
14 1 -7 4.75 1.17
-14 -1 -7 5.45 0.98
-15 14 -7 6.43 1.21
-14 15 7 5.28 0.94
15 -1 7 6.71 0.81
15 -14 -7 6.11 1.26
14 -15 7 7 1.24
-14 -1 -7 7.84 1.37
-15 14 -7 5.41 0.95
-14 15 7 5.48 0.93
-1 -14 7 5.75 1.07
-15 1 -7 5.89 0.99
-14 -1 7 4.83 0.9
-1 15 7 4.83 0.8
-14 15 -7 4.05 1.01
-15 14 7 3.09 0.87
-1 15 7 4.85 0.74
-15 1 -7 3.71 1.14
14 -15 -7 4.99 1.2
14 1 7 2.48 0.81
1 14 -7 4.69 1.13
15 -1 -7 2.13 1.02
-15 14 7 4.59 0.98
14 1 7 3.72 0.72
-15 14 7 3.33 0.86
-1 -14 -7 5.28 1.14
15 -14 7 3.72 0.69
-14 15 -7 6.64 0.96
-15 15 -7 3.68 1.03
15 0 -7 4.29 1.11
-15 15 7 2.28 0.85
0 15 7 1.97 0.65
0 -15 -7 3.84 1.04
15 -15 -7 1.7 0.94
-15 15 7 2.77 0.81
-15 0 7 0.96 0.87
0 -15 -7 2.74 0.83
-15 0 -7 2.64 1.07
0 15 7 3.53 0.67
-15 15 -7 3.19 0.84
0 15 -7 2.66 0.87
-15 15 7 3.09 0.91
-15 0 -7 4.33 0.9
-15 0 7 3.02 0.81
15 0 7 2.72 0.66
0 -15 7 2.07 0.79
15 -15 7 2.72 0.65
-8 -8 -7 1.25 1.01
8 8 -7 1.36 0.99
-8 16 -7 1 0.73
-8 16 7 0.78 0.67
-8 16 7 1.31 0.71
-8 -8 7 1.24 0.94
8 8 7 1.01 0.59
-16 8 7 0.9 1.15
16 -8 -7 1.37 1
-16 8 -7 0.3 0.74
-16 8 7 0.39 0.76
8 8 7 1.95 0.96
-16 8 7 1.14 0.7
8 -16 7 0.52 0.6
-16 8 -7 0.72 0.59
8 8 7 1.25 0.65
8 -16 -7 0.54 0.52
-8 -8 7 1.09 1
-8 16 -7 1.37 0.6
8 -16 7 0.84 1
-7 16 -7 0.59 0.46
7 9 7 1.28 0.64
16 -9 -7 2.46 1.12
-9 16 7 1.45 0.77
9 -16 7 0.82 1.02
7 9 7 1.42 0.9
-16 7 7 2.05 0.75
7 9 7 1.54 0.6
-7 -9 7 1.79 1
9 7 -7 1.99 1.04
-16 7 7 1.1 1.21
-16 7 7 1.25 0.85
7 -16 -7 1.34 0.6
-9 16 7 1.91 0.74
9 -16 7 1.84 0.64
-7 16 -7 0.58 1.06
-7 -9 7 3.03 1.16
-9 -7 -7 1.25 1.02
-7 -9 -7 3.15 1.13
-16 9 7 1.64 1.07
16 -7 -7 2.62 1.03
-7 16 7 1.94 0.52
9 7 7 1.62 0.9
-9 -7 7 2.35 0.98
-16 9 7 2.19 0.75
7 -16 7 3.67 1.15
-9 16 -7 1.61 0.66
-16 7 -7 2.16 0.75
-7 16 7 3.14 0.71
-9 16 -7 2.24 0.89
-9 -7 7 3.59 1.19
9 7 7 2.39 0.66
7 9 -7 3.3 1.12
9 7 7 1.35 0.63
-16 7 -7 1.38 0.89
7 -16 7 2.09 0.67
-16 9 7 1.79 0.81
10 6 -7 1.94 1.07
-10 16 7 1.53 0.88
-16 6 7 1.34 1.2
-10 -6 -7 1.49 0.96
10 -16 7 0.82 0.62
-16 6 7 1.63 0.86
6 10 7 1.37 0.66
6 10 7 1.13 0.86
-6 -10 7 2.08 1.11
6 10 7 1.01 0.6
16 -10 -7 1.17 1.04
10 -16 7 2.1 1.09
-6 -10 7 2.2 1.01
-16 6 7 1.78 0.71
6 -16 7 0.49 0.62
-10 16 -7 1.16 0.79
16 -6 -7 0.89 0.95
6 10 -7 1.42 1.05
10 6 7 0.16 0.55
-16 10 7 0.25 0.57
6 -16 7 1.63 1.04
-10 -6 7 1.27 0.94
-10 -6 7 0.21 0.84
10 6 7 1.58 0.64
10 6 7 1.14 0.86
-10 16 -7 0.9 0.63
-6 16 7 0.78 0.53
-16 6 -7 0.91 0.74
-6 -10 -7 1.01 0.93
-16 6 -7 1.15 0.98
-6 16 7 1.33 0.64
-16 10 7 0.87 0.74
-16 10 7 0.35 0.76
-16 5 7 0.88 0.79
5 11 7 1.68 0.63
-16 11 -7 -0.09 0.53
16 -5 7 -0.36 0.6
-16 11 -7 0.48 0.73
5 11 7 0.44 0.56
-5 -11 7 0.67 0.92
-16 5 7 1.11 0.63
5 -16 -7 0.09 0.58
-11 16 7 1.46 0.88
-5 -11 7 1.76 1.07
11 5 -7 0.31 0.96
16 -5 7 0.45 0.41
-11 -5 -7 0.26 0.43
11 -16 7 1.13 0.64
16 -11 -7 1.39 1.05
-11 -5 -7 1.01 0.84
11 -16 7 0.49 0.97
-16 5 7 1.26 1.19
-16 5 -7 0.83 1
-11 16 -7 0.65 0.69
-11 -5 7 -0.68 0.79
5 -16 7 0.23 0.61
-5 16 7 0.64 0.55
5 11 -7 0.85 1.03
11 5 7 1.25 0.47
-16 5 -7 1.33 0.84
-11 16 -7 0.97 0.85
-5 16 7 1.01 0.7
-16 11 7 2.02 0.8
5 -16 7 0.93 0.95
16 -5 -7 0.24 0.74
11 5 7 1.04 0.63
11 5 7 0.3 0.79
-11 -5 7 1.2 0.79
16 -5 -7 0.85 0.97
-5 -11 -7 0.38 0.9
-12 -4 -7 6.94 0.96
-16 12 -7 4.65 0.95
-16 4 7 6.51 1.41
16 -4 7 5.45 0.77
4 12 7 6.63 0.91
-16 12 -7 5.97 0.98
12 4 -7 9.46 1.48
12 -16 7 7.68 0.89
-4 -12 7 9.78 1.72
4 -16 -7 4.92 0.99
-16 4 7 8.57 1.08
12 -16 7 8.86 1.44
-4 -12 7 6.21 1.15
4 12 7 6.87 0.86
16 -12 -7 6.23 1.24
4 12 7 7.69 0.9
-12 16 -7 6.42 0.99
-16 12 7 11.32 1.34
-4 -12 -7 8.62 1.31
-4 16 7 8.03 1.23
-16 4 -7 9.28 1.7
-4 -12 -7 7.86 1.25
-16 4 -7 7.84 1.09
4 -16 7 7.54 1.13
-16 12 7 7 1.19
-12 16 -7 8.34 1.27
16 -4 -7 7.65 1.37
12 4 7 8.08 1.13
12 4 7 4.73 1.01
-16 12 7 8.59 1.33
4 12 -7 8.9 1.38
-4 16 7 6.01 0.83
16 -3 7 2 0.6
3 13 7 1.88 0.63
-3 16 -7 0.13 0.6
3 13 7 1.53 0.67
-13 16 7 2.64 0.91
3 -16 -7 1.67 0.88
-13 16 7 0.73 0.48
-16 3 7 1.8 0.78
-16 13 -7 0.64 0.81
-13 -3 -7 1.8 0.79
13 -16 7 2.45 0.67
13 3 -7 2.13 1.08
-3 -13 7 1.42 0.9
-13 -3 -7 -0.05 0.67
-3 -13 7 2.7 1.05
-16 13 -7 2.98 0.84
-16 3 7 2.16 1.23
13 -16 7 1.64 1.02
16 -13 -7 1.4 1.02
16 -3 7 -0.38 0.87
13 -16 -7 1.38 0.83
-16 13 7 1.78 0.81
-13 16 -7 2.22 0.81
13 3 7 1.69 0.61
13 3 7 0.45 0.71
-3 16 7 1.46 0.69
-16 3 -7 1.85 1.1
-3 16 7 0.99 0.58
16 -13 7 1.05 0.5
16 -3 -7 1.96 1.02
-16 3 -7 2.36 0.84
-16 13 7 2.5 1
-3 -13 -7 1.56 0.87
3 13 -7 1.39 0.97
-13 16 -7 0.66 0.86
-16 13 7 1.61 0.79
-3 -13 -7 1.51 0.94
3 -16 7 1.18 0.58
-16 14 -7 1.55 0.86
-14 16 7 1.78 0.69
2 -16 -7 2.13 0.89
-2 -14 7 2.35 0.9
14 -16 7 2.03 0.67
-14 16 7 2.27 0.74
-16 14 -7 2.05 0.79
16 -14 -7 1.33 0.97
14 2 -7 2.06 1.08
-16 2 7 2.05 1.15
2 14 7 2.53 0.69
-16 2 7 3.54 0.84
2 14 7 2.56 0.67
-14 -2 -7 2.96 0.79
-14 16 7 3.76 0.98
16 -2 7 1.75 0.61
14 -16 7 2.34 0.87
-14 16 -7 2.99 0.83
-16 14 7 1.97 0.82
16 -14 7 2.83 0.61
-16 2 -7 3.93 0.86
-2 16 7 1.85 0.7
-16 14 7 2.26 0.87
14 2 7 1.55 0.63
-16 2 -7 1.87 1.08
14 -16 -7 0.84 0.78
-14 16 -7 2.11 0.97
-2 16 7 2.3 0.64
-2 -14 -7 1.94 0.89
16 -2 -7 1.18 0.93
-16 14 7 2.6 0.86
-14 -2 7 2.34 0.76
-2 -14 -7 2.43 1
2 14 -7 1.47 0.88
-16 15 -7 0.87 0.79
-16 15 -7 -0.21 0.73
15 -16 7 0.29 0.57
1 -16 -7 0.89 0.8
-15 -1 -7 0.34 0.7
-15 -1 -7 -0.14 0.61
-15 16 7 0.16 0.7
-1 16 -7 0.09 0.66
-16 1 7 1.18 0.72
15 1 -7 0.56 0.86
16 -15 -7 0.1 0.78
-1 -15 7 0.98 0.82
-15 16 7 0.22 0.79
-15 16 7 0.14 0.67
-16 1 7 0.01 0.72
16 -1 7 -0.19 0.55
1 15 7 0.38 0.6
1 15 7 -0.24 0.58
-1 -15 -7 2.1 0.91
-16 1 -7 2.47 1.01
-16 15 7 2.15 0.78
15 1 7 1.9 0.57
-1 -15 -7 1.33 0.84
-15 16 -7 1 0.88
-15 16 -7 3.49 0.84
-16 15 7 1.63 0.81
-16 1 -7 3.3 0.85
-1 16 7 2.1 0.62
-1 16 7 2.15 0.7
-16 15 7 1.93 0.83
-15 -1 7 2.61 0.76
16 -1 -7 1.89 0.93
15 -16 -7 0.16 0.67
16 -15 7 1.86 0.61
-16 0 -7 10.8 1.43
-16 16 7 9.68 1.47
0 16 7 9.95 1.18
16 0 7 9.41 1.16
-16 16 7 8.95 1.35
-16 16 -7 9.84 1.37
0 -16 7 7.36 1.22
0 16 7 10.13 1.2
-16 16 7 9.92 1.35
16 -16 7 10.42 1.12
-16 0 7 11.54 1.37
8 9 7 0.98 0.59
-17 9 -7 0.4 0.57
17 -9 -7 1.12 1.04
9 8 -7 0.65 1.07
9 -17 7 1.16 1.05
-8 -9 7 1.13 0.95
-17 8 7 1.46 1.14
-17 8 7 0.63 0.76
-9 17 7 1.32 0.7
-8 -9 7 1.73 1.07
8 9 7 1.09 0.85
9 -17 7 1.35 0.61
8 9 7 0.85 0.63
-8 17 -7 1.48 0.55
-17 8 7 1.51 0.71
-9 -8 -7 1.36 1.05
-9 17 7 1.06 0.73
-17 8 -7 -0.04 1.08
-8 17 7 1.02 0.65
-17 9 7 1.32 0.7
-9 -8 7 1.69 1.03
9 8 7 1.1 0.79
-17 9 7 0.89 0.81
17 -8 -7 1.15 1.05
8 -17 7 0.9 0.62
-17 8 -7 0.83 0.72
-8 17 7 0.71 0.66
-8 -9 -7 1.3 1.07
-9 17 -7 1.35 0.67
17 -9 7 -0.2 0.46
9 8 7 0.4 0.58
8 -17 7 1.97 1.09
8 9 -7 1 1.02
-9 -8 7 0.62 0.9
-17 9 7 1.21 0.92
9 8 7 1.23 0.62
-17 7 7 4.79 1.42
10 -17 7 4.57 1.15
17 -7 7 2.8 0.57
17 -10 -7 3.8 1.16
-17 7 7 3.07 0.77
-17 7 7 3.88 0.92
-10 -7 -7 3.21 1.02
7 10 7 4.28 0.72
7 10 7 4.83 0.77
-10 17 7 3.26 0.88
-7 -10 7 5.94 1.29
7 10 7 3.32 0.9
10 -17 7 3.76 0.72
10 7 -7 4.58 1.18
-7 -10 7 5.9 1.16
-7 -10 -7 3.59 1.05
-17 7 -7 1.03 0.72
-17 10 7 4.16 0.84
-17 7 -7 3.17 0.8
-10 -7 7 3.66 1
10 7 7 2.63 0.63
7 10 -7 3.19 1.07
7 -17 7 2.67 0.66
-17 10 7 2.17 0.79
17 -7 -7 2.02 1.02
10 7 7 2.71 0.87
7 -17 7 3.26 1.05
-10 -7 7 2.87 0.9
-7 17 7 2.9 0.72
10 7 7 4.27 0.7
-10 17 -7 2.32 0.72
17 -11 -7 2.64 1.14
-11 -6 -7 2.62 0.85
11 -17 7 2.83 1.12
-17 6 7 2.76 1.29
-17 6 7 3.01 0.84
17 -6 7 1.47 0.55
6 11 7 1.81 0.82
11 6 -7 3.17 1.14
-6 -11 7 4.54 1.09
-17 11 -7 1.25 0.57
-17 6 7 2.12 0.67
-11 17 7 2.42 0.94
11 -17 7 3.01 0.67
6 11 7 3.24 0.68
6 11 7 1.87 0.64
-6 -11 7 2.79 1.09
11 6 7 1.45 0.76
6 11 -7 1.95 1.02
11 6 7 2.74 0.65
-6 17 7 2.7 0.6
11 6 7 2.57 0.59
-17 6 -7 2.01 0.93
-11 -6 7 1.66 0.86
-6 17 7 3.06 0.7
6 -17 7 2.03 0.62
6 -17 7 2.56 0.87
-11 17 -7 1.22 0.7
-17 11 7 2.57 0.8
-17 11 7 1.12 0.63
17 -6 -7 3.15 1.07
-17 6 -7 3.76 0.85
-11 17 -7 3.43 0.77
-6 -11 -7 3.34 1.05
5 12 7 3.34 0.74
12 -17 7 4.08 0.72
-17 5 7 4.48 1.29
12 5 -7 2.95 1.06
17 -12 -7 2.71 1.08
-12 -5 -7 2.21 0.6
17 -5 7 3.37 0.66
12 -17 7 4.13 1.16
-12 17 7 5.15 1.04
-12 -5 -7 3.5 0.94
-5 -12 7 6.1 1.3
-5 -12 7 4.52 1.07
-17 5 7 3.76 0.87
5 12 7 4.96 0.81
-17 12 -7 3.66 0.83
5 12 7 4.4 0.75
-17 12 7 5.89 0.93
5 -17 7 3.57 0.71
-12 -5 7 2.96 0.91
-5 17 7 4.69 0.71
-12 17 -7 6.3 0.93
-12 17 -7 2.73 0.87
-17 5 -7 5.94 0.91
-17 5 -7 3.27 1.07
-5 -12 -7 4.82 1
-5 -12 -7 4.7 1.12
-5 17 7 4.05 0.78
12 5 7 4.26 0.71
5 12 -7 4.76 1.15
-17 12 7 4.69 1.05
-5 -12 -7 5.25 1.08
17 -5 -7 4.51 1.12
-17 13 -7 11.47 1.47
17 -4 7 9.74 1.21
-17 4 7 10.95 1.9
4 13 7 12.7 1.31
4 13 7 10.46 1.27
-4 -13 7 9.63 1.49
13 4 -7 9.66 1.77
13 -17 7 11.16 1.56
-17 4 7 12.3 1.52
-4 -13 7 12.16 1.65
-13 17 7 12.74 1.66
13 -17 7 11.75 1.26
17 -13 -7 10.7 1.75
-13 -4 -7 9.94 1.42
-17 13 7 11.46 1.44
13 4 7 13.57 1.32
-13 17 -7 10.67 1.56
-17 13 7 14.32 1.84
-4 -13 -7 11.2 1.55
-17 4 -7 10.6 1.73
-17 4 -7 14.02 1.59
-13 17 -7 13.68 1.46
4 13 -7 10.65 1.62
-17 13 7 12.6 1.45
4 -17 7 12.62 1.31
-4 17 7 11 1.27
-4 17 7 11.57 1.38
17 -4 -7 11.55 1.76
-4 -13 -7 12.76 1.68
14 3 -7 0.44 0.81
17 -14 -7 -0.15 0.79
3 14 7 0.69 0.61
-14 17 7 0.19 0.4
3 14 7 0.29 0.59
-17 14 -7 -0.55 0.72
17 -3 7 0.27 0.53
3 -17 -7 -0.1 0.77
-14 -3 -7 0.49 0.72
14 -17 7 0.18 0.59
-3 -14 7 0.61 0.85
14 -17 7 0.12 0.76
-17 3 7 0.09 0.9
-14 17 7 0.1 0.64
-14 17 7 1.47 0.88
-17 3 7 0.78 0.69
-17 3 -7 4.15 0.88
-3 -14 -7 1.79 0.79
17 -14 7 1.58 0.46
-3 17 7 1.78 0.58
-14 17 -7 1.48 0.77
-14 -3 7 0.29 0.51
-17 14 7 2.99 0.81
3 -17 7 1.13 0.59
-17 14 7 1.36 0.75
-17 14 7 1.44 0.87
-3 17 7 1.78 0.69
17 -3 -7 1.37 0.83
-14 17 -7 3.14 0.84
-3 -14 -7 2.44 0.89
-17 3 -7 0.66 0.83
14 3 7 2.31 0.61
3 14 -7 0.47 0.65
-15 17 7 1.54 0.68
-15 17 7 0.85 0.54
15 -17 7 1.94 0.6
-17 15 -7 2.2 0.75
-2 -15 7 1.65 0.83
17 -2 7 1.16 0.57
15 2 -7 0.06 0.64
-17 2 7 2.49 0.73
2 15 7 1.72 0.61
-15 17 7 1.54 0.85
2 15 7 1.68 0.65
-15 -2 -7 1.54 0.73
17 -15 -7 -0.07 0.69
-15 17 -7 0.12 0.59
-15 17 -7 2.32 0.77
-17 15 7 2.59 0.87
15 2 7 1.37 0.56
-2 17 7 1.6 0.59
-17 15 7 1.85 0.79
-2 17 7 2.5 0.71
-15 -2 7 1.73 0.75
-17 15 7 1.85 0.78
-17 2 -7 2.65 0.8
-2 -15 -7 1.96 0.86
17 -15 7 1.52 0.53
-1 -16 7 13.27 1.49
-16 17 7 12.17 1.44
-16 -1 -7 12.56 1.44
-16 17 7 10.3 1.32
16 -17 7 12.58 1.27
-17 1 7 14.37 1.43
17 -1 7 11.02 1.25
-16 17 7 13.3 1.56
1 16 7 14.5 1.32
-17 16 -7 12.29 1.47
1 16 7 12.22 1.32
-17 16 7 7.94 1.24
-17 16 7 8.57 1.34
16 1 7 7.98 1.07
-17 16 7 7.58 1.31
17 -16 7 8.82 1.01
-16 17 -7 9.62 1.36
-1 -16 -7 8.14 1.38
-17 1 -7 10.42 1.34
-1 17 7 9.24 1.21
-16 -1 7 9.72 1.34
-1 17 7 8.49 1.1
-17 0 -7 2.15 0.69
17 0 7 1.36 0.52
-17 17 -7 2.31 0.72
-17 17 7 1.03 0.7
-17 0 7 2.19 0.7
0 17 7 1.99 0.67
17 -17 7 1.92 0.54
-17 17 7 0.94 0.68
-17 17 7 0.94 0.71
0 17 7 2.05 0.61
9 9 7 -0.06 0.56
9 -18 7 1 0.87
9 9 7 0.15 0.59
18 -9 7 0.18 0.44
9 -18 7 0.47 0.58
-9 -9 7 0.75 0.81
-9 -9 7 0.5 0.85
-9 18 -7 0.51 0.55
9 9 7 -0.06 0.55
-9 -9 -7 0.85 0.87
-18 9 -7 -0.25 0.59
-9 18 7 0.51 0.66
18 -9 -7 -0.29 0.85
-18 9 7 0.43 0.78
-9 -9 -7 0.11 0.77
9 9 -7 0.05 0.84
-18 9 7 1.03 0.67
-9 18 7 0.21 0.7
8 10 7 1.74 0.66
-18 8 7 1.76 0.83
-10 -8 -7 2.64 0.94
10 -18 7 1.99 0.92
10 8 -7 1.5 0.89
-18 8 7 0.09 0.82
-18 8 7 2.11 0.74
10 -18 7 2.4 0.61
18 -8 7 1.38 0.53
-8 -10 7 3.22 0.98
-8 -10 7 1.84 0.91
18 -10 -7 0.68 0.88
-10 18 7 1.12 0.75
8 10 7 0.04 0.61
8 10 7 1.51 0.61
-8 -10 -7 3.36 0.94
-10 -8 7 2.52 0.93
8 -18 7 1.38 0.79
-8 18 7 2.2 0.72
10 8 7 0.15 0.68
18 -8 -7 2.29 0.99
-18 10 7 1.87 0.81
-8 -10 -7 2.32 0.9
-18 8 -7 2.01 0.7
10 8 7 1.77 0.62
-8 18 7 1.17 0.55
-10 18 -7 2.62 0.68
8 10 -7 1.84 0.94
-18 10 7 1.83 0.67
8 -18 7 2.18 0.62
10 8 7 2.11 0.63
-18 7 7 2.74 0.83
11 -18 7 2.39 0.9
11 7 -7 3.15 0.95
-11 -7 -7 2.84 0.9
18 -11 -7 2.18 0.95
-7 -11 7 2.05 0.92
-7 -11 7 5.01 1.06
7 11 7 3.28 0.71
11 -18 7 3.83 0.67
-18 7 7 2.51 0.68
7 11 7 3.98 0.73
18 -7 7 1.39 0.56
-11 18 7 2.46 0.81
-18 7 7 0.49 0.84
11 7 7 2.9 0.62
-11 -7 7 2.13 0.82
7 -18 7 0.12 0.63
-18 11 7 1.83 0.84
-7 -11 -7 1.51 0.78
-7 18 7 2.06 0.68
7 11 -7 2.04 0.89
-11 18 -7 1.83 0.67
18 -7 -7 0.96 0.84
-7 -11 -7 4.17 0.92
11 7 7 1.42 0.58
11 7 7 0.09 0.99
-18 11 7 3.46 0.76
7 -18 7 2.88 0.62
-18 7 -7 2.22 0.71
-12 18 7 0.1 0.81
18 -12 -7 0.28 0.77
12 6 -7 0.37 0.7
-18 12 -7 0.15 0.64
12 -18 7 0.35 0.65
-6 -12 7 0.34 0.71
6 12 7 -0.15 0.61
-18 6 7 0.23 0.73
6 12 7 0.34 0.63
-12 -6 -7 0.12 0.74
-6 -12 7 0.09 0.88
12 -18 7 0.12 0.55
-18 6 7 0 0.77
18 -6 7 -0.04 0.53
-6 18 7 0.17 0.5
6 -18 7 0.03 0.53
-18 6 -7 0.83 0.71
12 6 7 0.09 0.29
-12 18 -7 1.16 0.67
-6 18 7 0.18 0.6
-18 12 7 0.14 0.87
-12 -6 7 0.06 0.73
-6 -12 -7 0.79 0.83
6 12 -7 0.29 0.65
-18 12 7 0.37 0.68
18 -6 -7 0.25 0.68
-6 -12 -7 -0.38 0.55
12 6 7 0.39 0.54
-13 -5 -7 1.89 0.79
-18 13 -7 2.34 0.75
18 -5 7 2.23 0.61
-13 18 7 3.19 0.94
5 13 7 2.78 0.69
-5 -13 7 3.28 0.94
-13 -5 -7 1.49 0.57
13 -18 7 3.34 0.66
-18 5 7 0.01 0.74
5 13 7 3.33 0.72
-18 5 7 3.45 0.78
-13 -5 7 3.93 0.92
-18 5 -7 6.3 0.94
-13 18 -7 6.36 0.92
13 5 7 5.6 0.72
-18 13 7 7.07 0.93
5 -18 7 4.26 0.72
-5 18 7 4.66 0.7
-18 13 7 7.67 1.21
-5 18 7 4.76 0.77
-5 -13 -7 5.29 0.95
-4 -14 7 0.61 0.86
4 14 7 -0.01 0.6
14 -18 7 -0.26 0.56
-14 18 7 0.14 0.79
-18 4 7 0.39 0.66
4 14 7 -0.31 0.63
-14 -4 -7 -0.18 0.65
-18 14 -7 -0.12 0.68
18 -4 7 0.07 0.51
14 4 7 0.57 0.52
-4 -14 -7 1 0.82
-14 -4 7 -0.55 0.42
-18 14 7 0.18 0.67
4 -18 7 0.6 0.53
-18 4 -7 1.32 0.71
-14 18 -7 0.82 0.72
-18 14 7 0.56 0.65
-4 18 7 0.3 0.58
-18 14 7 0.54 0.88
-4 18 7 0.54 0.58
-3 -15 7 8.15 1.41
-18 3 7 8.97 1.21
3 15 7 9.37 1.15
3 15 7 5.91 1.05
-15 -3 -7 7.3 1.17
-18 15 -7 7.95 0.99
-15 18 7 8.35 1.41
15 -18 7 7.29 1.04
18 -3 7 6.66 0.85
-18 15 7 9.6 1.26
-3 -15 -7 8.44 1.39
3 -18 7 7.97 1
-18 3 -7 10.06 1.28
-3 18 7 9.72 1.11
-15 18 -7 9.6 1.36
-3 18 7 8.7 1.18
15 3 7 8.48 1.08
-18 15 7 8.24 1.44
-18 15 7 8.31 1.29
-18 2 7 1.07 0.64
-18 16 -7 0.79 0.67
18 -2 7 0.42 0.51
2 16 7 0.46 0.58
-16 -2 -7 0.64 0.61
16 -18 7 0.65 0.54
-16 18 7 0.34 0.61
-16 18 7 0.79 0.75
2 16 7 1.46 0.59
-2 -16 7 1.01 0.73
-16 -2 7 0.9 0.56
-18 16 7 1.5 0.75
-2 18 7 0.92 0.54
-18 2 -7 2.41 0.66
-16 18 -7 1.62 0.67
-18 16 7 1.58 0.71
-18 16 7 0.97 0.72
16 2 7 0.78 0.52
-2 18 7 1.48 0.64
-2 -16 -7 1.66 0.79
18 -1 7 3.62 0.62
-18 1 7 4.59 0.76
-17 18 7 4.2 0.81
-17 18 7 5.75 0.89
-18 17 -7 4.04 0.74
17 -18 7 4.28 0.64
1 17 7 6.03 0.75
-1 -17 7 3.66 0.76
-17 -1 -7 3.86 0.73
1 17 7 3.69 0.7
-1 18 7 4.88 0.74
-18 17 7 3.03 0.76
-17 18 -7 5.58 0.78
-18 17 7 4.4 0.81
-1 -17 -7 2.59 0.7
-18 1 -7 5.05 0.76
17 1 7 3.54 0.59
-17 -1 7 4.19 0.72
-18 17 7 4.25 0.82
-1 18 7 5 0.68
-18 18 7 16.73 1.53
-18 18 7 15.58 1.48
-18 18 -7 16.21 1.44
18 0 7 14.5 1.33
-18 0 7 14.25 1.41
0 18 7 17.74 1.41
-18 0 -7 15.98 1.44
0 18 7 15.08 1.41
9 10 7 0.1 0.61
-19 9 7 0.19 0.71
10 -19 7 0.26 0.5
-10 19 7 0.74 0.69
-19 9 7 0.25 0.61
19 -9 7 0.02 0.49
-19 10 -7 -0.88 0.41
-9 -10 7 0.84 0.83
-10 -9 -7 0.23 0.79
9 10 7 0.45 0.58
-10 19 -7 -0.03 0.51
10 9 7 0.11 0.55
-19 10 7 0.45 0.65
-19 10 7 0.34 0.7
-19 9 -7 0.74 0.62
10 9 7 -0.26 0.55
-10 -9 7 0.61 0.8
19 -10 7 -0.09 0.44
-9 19 7 0.23 0.59
-9 -10 -7 -0.32 0.77
9 -19 7 -0.11 0.5
-11 19 7 2.85 0.81
-11 -8 -7 2.62 0.82
-19 8 7 3.22 0.71
11 -19 7 2.73 0.6
-8 -11 7 4.46 0.96
19 -8 7 2.47 0.58
-19 8 7 3.8 0.83
8 11 7 3.08 0.67
8 -19 7 3.25 0.63
-11 -8 7 3.12 0.85
11 8 7 3.59 0.66
-19 11 7 3.13 0.88
11 8 7 2.71 0.58
-19 11 7 2.87 0.7
-11 19 -7 2.93 0.72
-8 -11 -7 5.12 0.94
-19 8 -7 2.78 0.68
-8 19 7 3.26 0.72
7 12 7 11 1.23
-7 -12 7 10.48 1.49
-12 -7 -7 7.22 1.32
-12 19 7 11.1 1.41
7 12 7 8.19 1.16
-19 7 7 10.92 1.36
12 -19 7 9.7 1.08
19 -7 7 6.83 1.06
-19 12 7 7.95 1.16
-12 19 -7 7.77 1.14
7 -19 7 10.5 1.05
-12 -7 7 6.42 1.28
12 7 7 9.32 1.1
-7 19 7 8.33 1.15
-19 7 -7 6.63 1.14
-7 -12 -7 8.16 1.38
-19 12 7 9.25 1.48
-13 19 7 3.11 0.91
-19 6 7 3.55 0.78
13 -19 7 4.58 0.67
6 13 7 4.66 0.73
6 13 7 4.26 0.72
-6 -13 7 4.49 0.96
-19 13 -7 2.38 0.69
-13 -6 -7 2.96 0.81
19 -6 7 3.56 0.65
-19 6 -7 4.25 0.79
-19 13 7 5.12 0.78
6 -19 7 4.38 0.64
13 6 7 3.89 0.66
-6 19 7 4.06 0.73
-13 19 -7 5.02 0.81
-19 13 7 4.89 1.04
-13 -6 7 2.39 0.8
-6 -13 -7 4.87 0.89
-14 19 7 0.94 0.79
-19 14 -7 0.65 0.64
14 -19 7 0.82 0.55
19 -5 7 0.98 0.52
-5 -14 7 1.79 0.85
5 14 7 0.76 0.61
-19 5 7 1.52 0.66
5 14 7 0.78 0.59
-5 19 7 1.77 0.64
-5 19 7 2.25 0.56
-5 -14 -7 2.96 0.84
-19 5 -7 2.34 0.69
14 5 7 2.19 0.57
5 -19 7 2.65 0.58
-19 14 7 2.99 0.95
-14 19 -7 2.73 0.73
-19 14 7 2.98 0.72
-19 15 -7 2.91 0.69
-15 -4 -7 2.44 0.65
-19 4 7 5.22 0.78
15 -19 7 2.96 0.6
19 -4 7 3.09 0.61
4 15 7 3.48 0.66
-4 -15 7 4.56 0.91
4 15 7 2.62 0.63
15 4 7 2.92 0.56
-4 -15 -7 3.18 0.83
4 -19 7 1.96 0.52
-4 19 7 2.64 0.54
-19 15 7 2.34 0.69
-4 19 7 2.29 0.64
-19 15 7 1.27 0.59
-19 15 7 2.45 0.81
-15 19 -7 3.09 0.74
-19 4 -7 3.31 0.73
-19 3 7 13.7 1.37
-3 -16 7 13.75 1.49
19 -3 7 10.74 1.22
16 -19 7 12.64 1.21
-19 16 -7 12.62 1.31
-16 -3 -7 11.91 1.29
-16 19 7 14.22 1.54
3 16 7 13.57 1.28
3 16 7 12.72 1.26
-19 16 7 12.2 1.37
-16 19 -7 13.63 1.34
-19 16 7 12.89 1.51
-3 19 7 12.36 1.26
-3 19 7 13.7 1.22
-19 16 7 12.83 1.34
16 3 7 11.82 1.19
-3 -16 -7 12.64 1.46
-19 3 -7 13.3 1.38
-17 19 7 2.7 0.78
19 -2 7 1.8 0.47
17 -19 7 1.43 0.5
-19 2 7 2.23 0.6
2 17 7 1.34 0.58
-17 -2 -7 2.49 0.65
-19 17 -7 1.82 0.63
-2 -17 7 1.87 0.68
2 17 7 2.46 0.58
17 2 7 2.75 0.53
-19 2 -7 3.98 0.67
-17 19 -7 2.71 0.63
-19 17 7 1.89 0.67
-2 -17 -7 2.78 0.69
-19 17 7 2.61 0.68
-2 19 7 2.89 0.59
-2 19 7 3.76 0.58
-19 17 7 2.26 0.66
-17 -2 7 1.28 0.45
19 -1 7 2.42 0.5
1 18 7 4.47 0.64
-19 18 -7 3.48 0.65
-18 19 7 3 0.7
-19 1 7 3.37 0.6
-18 -1 -7 3.06 0.64
1 18 7 2.31 0.56
-18 19 7 2.21 0.6
-19 18 7 1.67 0.63
-18 -1 7 1.77 0.51
-19 18 7 2.33 0.62
-1 19 7 2.64 0.55
18 1 7 1.88 0.47
-19 1 -7 2 0.6
-18 19 -7 1.74 0.55
-1 19 7 1.1 0.48
-19 0 7 2.8 0.53
-19 19 -7 4.11 0.65
19 0 7 2.03 0.47
-19 0 -7 3.17 0.62
0 19 7 3.25 0.53
-19 19 7 3.11 0.61
-19 19 7 3.02 0.68
20 -10 7 1.08 0.49
10 10 7 1.61 0.59
-10 20 7 1.32 0.63
-10 -10 7 2.3 0.84
-10 -10 -7 3.41 0.84
-20 10 7 1.49 0.6
10 -20 7 2.15 0.52
-20 10 7 1.58 0.75
-20 10 -7 0.2 0.47
-20 9 7 1.26 0.64
-11 -9 -7 1.74 0.76
11 -20 7 1.19 0.48
-20 9 7 1.4 0.59
-11 20 7 1.09 0.69
9 11 7 1.19 0.56
20 -9 7 0.93 0.51
-9 -11 7 1.86 0.81
-9 -11 -7 3.03 0.81
-11 20 -7 1.17 0.5
-20 9 -7 1.44 0.6
9 -20 7 1.87 0.5
11 9 7 2.07 0.59
-11 -9 7 1.93 0.79
-20 11 7 1.47 0.65
-20 11 7 2.4 0.8
-20 11 7 1.64 0.74
20 -11 7 1.41 0.44
20 -8 7 1.87 0.56
8 12 7 2.14 0.59
12 -20 7 2.37 0.54
-20 8 7 2.31 0.71
-12 -8 -7 2.36 0.74
-12 20 7 2.2 0.74
-8 -12 7 3.31 0.86
8 12 7 3.47 0.64
-20 12 7 -0.01 0.42
-20 12 7 2.36 0.67
-20 8 -7 1.02 0.58
12 8 7 1.54 0.56
8 -20 7 1.66 0.5
-12 -8 7 1.02 0.69
-8 -12 -7 1.41 0.7
-20 12 7 2.1 0.85
-12 20 -7 0.89 0.58
7 13 7 2.33 0.63
-7 -13 7 3.58 0.87
20 -7 7 1.2 0.54
-13 -7 -7 1.32 0.69
-13 20 7 2.08 0.79
7 13 7 2.6 0.59
-20 7 7 2.86 0.68
13 -20 7 2.48 0.53
7 -20 7 3.1 0.54
13 7 7 3.6 0.62
-13 20 -7 1.67 0.63
-7 -13 -7 4.06 0.82
-20 13 7 5.74 1.05
-20 7 -7 3.16 0.65
-13 -7 7 2.27 0.72
-7 20 7 2.57 0.66
6 14 7 0.13 0.55
-6 -14 7 0.9 0.74
-14 20 7 0.29 0.77
20 -6 7 0.23 0.48
14 -20 7 0.38 0.48
-14 -6 -7 -0.48 0.55
-20 6 7 0.9 0.58
-20 14 -7 -0.15 0.54
6 14 7 0.03 0.52
-20 14 7 0.09 0.8
14 6 7 0.22 0.49
-6 20 7 0.22 0.56
-20 6 -7 0.83 0.6
6 -20 7 0.66 0.44
-14 -6 7 -0.23 0.53
-6 -14 -7 0.43 0.67
-14 20 -7 0.57 0.56
-20 14 7 0.42 0.54
5 15 7 4.83 0.89
5 15 7 6.73 0.75
-5 -15 7 6.64 1.2
20 -5 7 5.14 0.71
15 -20 7 6.11 0.83
-20 5 7 6.16 0.99
-20 15 -7 4.77 0.77
-15 20 7 7.45 1
-20 15 7 6.68 1.18
5 -20 7 6.47 0.84
-20 15 7 6.67 0.83
-5 -15 -7 6.41 1.18
-5 20 7 5.33 0.95
15 5 7 6.23 0.85
-15 20 -7 6.94 0.84
-20 5 -7 7.9 0.87
-20 4 7 8.64 1.01
-4 -16 7 8.32 1.22
16 -20 7 7.86 0.94
-16 20 7 9.46 1.31
20 -4 7 7.38 0.95
-20 16 -7 8.6 1.06
4 16 7 6.5 0.95
4 16 7 8.77 0.96
-4 -16 -7 7.26 1.18
16 4 7 7.5 0.89
-16 20 -7 8.88 1.03
-20 16 7 8.02 1.03
-4 20 7 7.03 0.97
-20 4 -7 8.92 1.13
-4 20 7 7.69 0.92
4 -20 7 5.32 0.76
-20 16 7 6.68 1.19
3 17 7 0.61 0.49
-20 3 7 1.24 0.49
-20 17 -7 -0.07 0.53
3 17 7 0.65 0.5
-3 -17 7 0.57 0.57
20 -3 7 0.38 0.41
17 -20 7 0.55 0.42
-17 -3 -7 0.28 0.48
-17 20 7 0.72 0.66
-3 -17 -7 0.25 0.56
-20 17 7 1.09 0.62
-20 17 7 0.35 0.55
-17 20 -7 0.82 0.52
-3 20 7 0.42 0.43
-20 3 -7 0.99 0.57
-20 17 7 0.49 0.4
17 3 7 0.68 0.45
-3 20 7 0.72 0.46
-20 18 -7 6.46 0.93
2 18 7 8.24 0.94
20 -2 7 6.16 0.85
-18 -2 -7 7.33 0.95
-18 20 7 8.19 1.15
-20 2 7 7.7 0.99
18 2 7 5.7 0.79
-20 18 7 5.75 0.77
-20 18 7 4.58 0.83
-2 20 7 5.82 0.82
-20 2 -7 5.89 0.96
-18 20 -7 5.57 0.73
20 -1 7 2.81 0.52
1 19 7 4.13 0.54
-20 1 7 3.55 0.55
-20 19 -7 4.39 0.66
-19 -1 -7 4.09 0.61
-19 20 7 3.42 0.68
19 1 7 4.15 0.55
-20 19 7 2.6 0.58
-20 1 -7 4.98 0.66
-20 19 7 3.46 0.65
-19 20 -7 5.28 0.65
-1 20 7 4.09 0.57
-20 20 7 0.06 0.45
11 -21 7 3.41 0.51
21 -10 7 1.32 0.47
-11 -10 -7 2.75 0.75
-10 -11 7 3.58 0.78
10 11 7 1.85 0.55
-21 10 7 3.15 0.73
-11 21 7 1.46 0.57
10 11 7 2.91 0.57
-21 10 7 2.07 0.62
10 -21 7 3.29 0.52
-11 -10 7 3.05 0.77
-10 -11 -7 3.01 0.74
-21 11 7 2.21 0.67
11 10 7 3.04 0.57
-21 11 7 4.14 0.81
-21 11 7 3.23 0.66
12 -21 7 2.8 0.5
-9 -12 7 4.05 0.79
-12 21 7 2.56 0.72
21 -9 7 2.02 0.5
-21 9 7 2.05 0.67
9 12 7 2.03 0.52
-12 -9 -7 1.86 0.66
9 12 7 2.91 0.57
-21 9 7 3.15 0.68
12 9 7 4.2 0.59
-12 -9 7 2.82 0.71
9 -21 7 4.7 0.57
-9 -12 -7 4.9 0.79
-21 12 7 3.17 0.62
-21 9 -7 2.67 0.62
-8 -13 7 5.02 0.83
13 -21 7 4.56 0.58
-21 8 7 3.8 0.72
8 13 7 2.89 0.58
-13 -8 -7 2.98 0.72
8 13 7 2.23 0.57
-13 21 7 3.34 0.79
21 -8 7 2.87 0.56
-13 -8 7 3.55 0.73
-21 8 -7 3.43 0.64
8 -21 7 5.83 0.77
-13 21 -7 3.26 0.58
13 8 7 3.91 0.6
-8 -13 -7 5.58 0.82
7 14 7 -0.02 0.48
-21 7 7 -0.03 0.5
21 -7 7 -0.05 0.45
-14 21 7 0.09 0.74
7 14 7 0.66 0.5
-14 -7 -7 -0.41 0.49
14 -21 7 0.53 0.41
-7 -14 7 0.9 0.67
7 -21 -7 -0.4 0.34
-14 21 -7 0.49 0.5
-14 -7 7 0.26 0.45
-21 7 -7 0.62 0.54
-7 -14 -7 0.95 0.64
7 -21 7 1.21 0.42
14 7 7 0.58 0.46
-21 14 7 1.07 0.58
-21 14 7 0.96 0.74
15 -21 7 0.58 0.4
6 15 7 0.76 0.49
-21 6 7 1.2 0.52
6 15 7 0.41 0.45
-15 21 7 0.61 0.74
-6 -15 7 1.25 0.65
21 -6 7 0.15 0.45
-21 15 -7 0.08 0.33
-6 -15 -7 1.12 0.6
-21 15 7 1.65 0.58
-21 6 -7 1.5 0.6
-15 21 -7 0.75 0.5
6 -21 7 1.33 0.42
-21 15 7 1.26 0.72
15 6 7 0.94 0.46
-16 21 7 0.55 0.71
-21 16 -7 0.34 0.48
5 16 7 0.26 0.46
-21 5 7 0.78 0.53
5 16 7 0.61 0.41
-5 -16 7 1.04 0.63
16 -21 7 0.58 0.41
21 -5 7 0.12 0.44
-21 5 7 0.2 0.34
-21 16 7 0.48 0.64
-21 5 -7 1.58 0.59
-21 16 7 0.54 0.56
-5 -16 -7 0.82 0.61
5 -21 7 0.66 0.34
-16 21 -7 0.79 0.46
16 5 7 0.57 0.44
-17 21 7 3.98 0.78
-21 17 -7 3.06 0.59
-4 -17 7 2.95 0.61
21 -4 7 3.41 0.53
4 17 7 3.6 0.56
17 -21 7 1.99 0.4
-21 4 7 4.25 0.62
-17 21 -7 5.14 0.7
-21 17 7 6.13 0.78
17 4 7 4.64 0.61
-21 4 -7 5.32 0.73
-18 21 7 9.33 1.17
3 18 7 8.95 0.93
-21 18 -7 8.58 1
21 -3 7 7.18 0.88
-21 3 7 8.47 1.03
-18 21 -7 9.02 1.04
-21 3 -7 8.31 1.1
18 3 7 8.63 0.9
-21 18 7 9.6 1.13
11 -22 7 5.85 0.76
11 11 7 5.92 0.84
-22 11 7 6.16 1.08
-11 -11 -7 5.42 0.83
-11 -11 7 6.29 1.05
11 11 7 4.72 0.76
10 12 7 1.5 0.47
-22 10 7 1.5 0.57
-10 -12 7 2.28 0.69
10 12 7 2.39 0.53
12 -22 7 1.92 0.44
-12 -10 -7 2.1 0.7
-22 10 7 1.99 0.65
-12 -10 7 1.71 0.62
12 10 7 1.77 0.5
-10 -12 -7 2.37 0.7
10 -22 7 2.1 0.45
-22 12 7 2.26 0.7
12 10 7 1.87 0.5
-22 9 7 3.69 0.66
9 13 7 4.34 0.58
9 13 7 3.06 0.52
-9 -13 7 5.75 1.04
-13 -9 -7 3.07 0.65
-13 22 7 2.41 0.63
13 -22 7 3.59 0.51
-22 9 7 2.71 0.64
-9 -13 -7 2.72 0.66
9 -22 7 2.95 0.49
-22 13 7 3.1 0.74
-13 -9 7 1.98 0.6
13 9 7 2.46 0.51
-22 13 7 2.43 0.54
-14 22 7 2.91 0.73
-22 8 7 3.88 0.68
8 14 7 3.45 0.6
-8 -14 7 5.29 0.78
-22 8 7 3.95 0.68
8 14 7 3.65 0.57
14 -22 7 3.89 0.52
14 8 7 2.39 0.51
8 -22 7 2.86 0.48
-22 8 -7 1.36 0.54
-22 14 7 2.46 0.56
-22 14 7 2.99 0.77
-8 -14 -7 2.81 0.71
7 15 7 2.16 0.51
-15 22 7 1.77 0.75
-7 -15 7 2.4 0.67
-22 7 7 1.54 0.58
15 -22 7 1.98 0.45
22 -7 7 0.74 0.37
-22 7 7 1.27 0.51
15 7 7 0.68 0.46
-22 15 7 1.16 0.52
-22 7 -7 1.28 0.57
-7 -15 -7 1.79 0.65
7 -22 7 1.39 0.4
-22 15 7 1.51 0.75
-16 22 7 7.49 1.19
6 16 7 6.61 0.83
-22 6 7 5.97 0.97
-6 -16 7 6.96 1
16 -22 7 5.29 0.69
-22 16 7 7.19 0.91
-22 6 -7 7.34 1.04
-6 -16 -7 5.98 1.07
-22 16 7 5.74 1
16 6 7 6.97 0.87
-17 22 7 1.39 0.73
22 -5 7 0.11 0.21
5 17 7 1.4 0.47
5 -22 -7 -0.05 0.23
-5 -17 7 0.59 0.39
-17 22 -7 1.04 0.43
17 5 7 1.61 0.45
-22 17 7 1.11 0.54
12 -23 7 2.1 0.45
-23 11 7 2.16 0.69
-12 -11 -7 1.8 0.68
-11 -12 7 1.92 0.62
11 12 7 1.64 0.49
-11 -12 -7 2.4 0.69
-12 -11 7 1.78 0.59
-23 12 7 1.92 0.67
12 11 7 2.62 0.47
11 -23 7 2.05 0.44
10 13 7 8.57 0.91
-10 -13 7 8.33 1.08
-23 10 7 8.04 1.11
13 -23 7 7.65 0.79
13 10 7 11.84 1.06
-23 13 7 11.46 1.28
10 -23 7 10.77 0.97
-10 -13 -7 10.84 1.3
0 0 -8 0.08 0.68
0 0 8 -0.45 0.56
0 0 8 -0.2 0.31
0 0 -8 0.1 0.28
1 -1 8 14.31 1.4
0 1 -8 17.46 1.6
1 -1 -8 17.31 1.59
1 0 -8 17.26 1.59
0 -1 8 16.33 1.46
-1 1 8 17.23 1.46
1 0 8 16.27 1.46
-1 0 -8 19.21 1.62
0 1 8 18.36 1.54
-1 0 8 19.3 1.54
-1 1 -8 17.85 1.61
1 -1 8 16.7 1.52
1 0 8 14.3 1.41
-1 0 -8 16.77 1.5
0 -1 -8 17.12 1.59
1 -2 -8 17.5 1.56
2 -1 8 15.06 1.44
-1 2 8 17.56 1.5
-1 2 -8 17.55 1.6
2 -1 8 16.9 1.5
1 1 -8 16.61 1.57
-2 1 -8 18.57 1.6
1 -2 8 14.8 1.43
-1 -1 -8 19.05 1.55
1 1 8 14.16 1.4
1 -2 8 16.02 1.5
-2 1 -8 13.45 1.37
-2 1 8 17.41 1.5
2 -1 -8 16.7 1.51
-1 -1 -8 16.86 1.48
-1 -1 8 18.13 1.52
-2 1 -8 18.84 1.57
2 -2 8 2.3 0.62
-2 2 -8 2.82 0.73
-2 2 -8 3.48 0.77
0 -2 8 3.49 0.68
-2 0 -8 2.12 0.69
-2 0 8 4.24 0.79
2 -2 -8 3.15 0.74
-2 2 8 4.41 0.76
2 0 8 3.56 0.69
-2 0 -8 1.86 0.62
0 2 8 2.17 0.56
2 0 -8 3.5 0.72
0 -2 -8 3.27 0.72
-2 0 -8 3.08 0.69
0 2 -8 4.05 0.82
2 -2 8 3.04 0.7
2 -3 8 4.9 0.79
3 -2 -8 5.5 0.9
-1 -2 8 4.68 0.86
-1 3 -8 6.54 0.94
1 2 8 4.69 0.74
3 -1 8 5.61 0.86
2 1 -8 5.96 0.9
-2 -1 -8 4.78 0.9
-3 2 -8 4.75 0.82
-3 1 8 4.74 0.86
-3 2 -8 3.09 0.71
2 -3 8 5.13 0.81
-3 2 -8 5.43 0.86
1 -3 -8 5.5 0.86
2 1 8 4.94 0.78
1 -3 8 4.37 0.76
-1 -2 -8 5.84 0.86
-2 -1 8 7.01 0.9
-3 1 -8 4.89 0.86
3 -1 -8 5.61 0.86
1 2 -8 6.05 0.88
3 -2 8 5.35 0.81
2 -3 -8 5.51 0.92
-3 2 8 5.49 0.84
-2 3 -8 4.88 0.85
3 -2 8 5.34 0.83
-2 3 -8 5.92 0.95
-3 1 -8 6.11 0.88
1 -3 8 4.31 0.8
3 -3 8 5.89 0.91
3 0 8 5.77 0.98
0 3 8 4.81 0.85
-3 0 -8 6.47 0.94
3 -3 -8 5.94 0.87
0 3 -8 6.62 1.02
3 0 -8 6.75 1.12
-3 3 -8 6.35 1.02
-3 3 -8 7.26 1.07
-3 0 -8 3.86 0.66
0 -3 8 5.66 0.97
0 -3 -8 5.38 0.89
3 -3 8 5.9 1
-3 0 8 5.68 0.97
-3 3 8 5.78 0.96
-4 2 -8 18.08 1.62
2 -4 8 16.68 1.56
-2 4 -8 15.34 1.57
2 2 8 17.79 1.52
4 -2 -8 15.12 1.53
-2 4 -8 18.89 1.69
2 -4 -8 17.84 1.62
2 -4 8 17.6 1.56
-4 2 8 16.95 1.53
-4 2 -8 18.64 1.57
2 2 -8 19.88 1.67
4 -2 8 18.11 1.5
-2 -2 -8 16.13 1.56
-2 -2 8 17.66 1.58
3 -4 8 17.27 1.53
-1 -3 8 18.56 1.6
1 3 8 15.27 1.52
-4 3 -8 17.5 1.66
-1 4 -8 20.07 1.65
-3 -1 -8 18.85 1.58
-4 3 -8 20.11 1.68
4 -3 -8 16.23 1.57
4 -1 8 19.69 1.59
3 -4 8 15.83 1.58
-4 1 8 19.68 1.61
3 1 -8 18.29 1.6
4 -1 -8 10.92 1.3
-3 -1 8 10.98 1.22
-3 4 -8 9.8 1.3
3 -4 -8 10.04 1.28
-4 1 -8 10.97 1.16
3 1 8 11.41 1.18
-1 -3 -8 10.06 1.19
1 -4 8 10.57 1.12
-3 4 -8 9.11 1.2
1 3 -8 11.47 1.23
1 -4 8 9.75 1.17
-4 3 8 8.97 1.15
-1 4 8 8.71 1.03
4 -3 8 12.02 1.21
-4 1 -8 11.47 1.26
4 -3 8 10.74 1.19
0 4 8 5.23 0.93
-4 0 -8 7.61 1.01
4 0 8 6.96 1
4 -4 -8 6.4 1.11
4 -4 8 7.23 1.04
0 -4 8 5.9 1
-4 0 8 7.52 1.08
-4 4 -8 4.93 0.93
4 -4 8 6.15 1.02
0 4 -8 7.29 1.07
-4 4 -8 5.97 1.04
4 0 -8 6.9 1.06
0 -4 -8 6.54 1.03
-4 4 8 5.46 0.93
-3 -2 -8 7.99 1.12
2 3 8 7.4 1.05
3 2 -8 8.88 1.2
-2 -3 8 7.74 1.12
-5 2 8 7.13 1.09
3 -5 8 7.59 1.11
-2 5 -8 7.1 1.04
5 -3 -8 6.76 1.15
3 -5 8 6.99 1.09
-2 5 -8 9.65 1.17
5 -2 8 8.67 1.08
-5 3 -8 8.26 1.21
-5 3 -8 8.69 1.1
2 -5 8 7.85 1.09
-5 3 8 6.54 0.99
-2 -3 -8 7.06 1.1
-3 5 -8 6.13 1.05
5 -3 8 8.69 1
3 -5 -8 8.2 1.17
-5 2 -8 8 1.08
-5 2 -8 8.47 1.14
-3 5 -8 9.02 1.26
3 2 8 8.05 0.99
5 -2 -8 7.73 1.08
-3 -2 8 8.17 1.12
2 -5 8 7.27 1.08
2 3 -8 8.97 1.13
1 -5 -8 12.92 1.31
-1 5 -8 14.65 1.43
-5 4 -8 12.72 1.34
5 -4 -8 11.64 1.36
4 1 -8 14.43 1.49
-1 -4 8 14.12 1.41
4 -5 8 15.31 1.42
4 -5 8 13.93 1.37
-5 1 8 13.73 1.38
-5 4 -8 12.42 1.38
5 -1 8 14.96 1.38
1 4 8 11.84 1.31
-4 -1 -8 15.03 1.37
1 -5 8 14.71 1.47
-1 -4 -8 14.77 1.46
-4 -1 8 17 1.5
1 -5 8 13.3 1.38
5 -4 8 15.79 1.41
4 1 8 15.93 1.42
-4 5 -8 15.57 1.58
-4 5 -8 12.69 1.44
1 4 -8 16.68 1.57
5 -4 8 14.66 1.43
5 -1 -8 16.7 1.55
-5 1 -8 16.02 1.46
4 -5 -8 14.3 1.51
0 -5 -8 23.97 2.02
5 0 -8 26.75 2.15
5 -5 8 27.87 2.07
5 0 8 25.8 1.99
-5 5 -8 24.45 2.08
5 -5 -8 24.68 2.13
-5 5 -8 22.15 2.01
5 0 -8 24.35 2.03
0 5 -8 27.79 2.1
0 -5 8 25.11 2.09
5 -5 8 25.34 2.03
-5 0 -8 27.62 2.08
-5 0 8 26.8 2.08
3 3 8 35.12 2.59
6 -3 -8 28.64 2.59
-3 -3 -8 33.44 2.64
6 -3 -8 34.08 2.62
-6 3 -8 32.32 2.63
6 -3 8 36.58 2.6
3 -6 8 34.57 2.62
-3 6 -8 36.96 2.66
3 3 -8 35.94 2.63
-3 -3 8 36.11 2.64
3 -6 8 32.69 2.61
-6 3 -8 37.18 2.65
4 2 -8 42.47 3.01
-2 -4 8 41.36 3.01
6 -2 8 42.92 2.98
-6 4 -8 40.13 3.04
4 -6 8 41.05 2.99
-6 4 -8 39.02 3.02
2 -6 -8 39.35 2.97
2 4 8 43.66 2.99
6 -4 -8 36.94 2.99
-6 2 8 36.6 2.95
-4 -2 -8 41.76 3.04
4 2 -8 35 2.94
4 -6 8 43.03 3
-2 6 -8 44.11 3.07
6 -2 -8 34.68 2.71
4 -6 -8 33.99 2.7
2 -6 8 31.98 2.64
-4 -2 8 37.25 2.7
6 -4 8 37.48 2.65
2 4 -8 37.59 2.73
4 2 8 34.81 2.64
-6 2 -8 38.1 2.74
6 -2 -8 30.38 2.63
2 -6 8 34.77 2.67
-2 -4 -8 34.59 2.68
-4 6 -8 37.42 2.76
-5 -1 -8 5.64 0.99
6 -1 8 5.33 0.94
-1 6 -8 6.72 0.97
6 -5 -8 5 0.95
5 1 -8 5.48 0.91
-6 1 8 5.34 0.9
-1 -5 8 7.99 1.02
5 -6 8 6.33 1.11
-6 5 -8 5.79 0.94
1 -6 -8 5.5 0.97
5 1 -8 6.95 0.97
-6 5 -8 5.29 0.91
5 -6 8 5.89 1.01
1 5 -8 4.94 0.87
5 1 8 5.94 0.87
-5 -1 8 3.92 0.83
6 -5 8 4.3 0.76
-6 1 -8 4.96 0.85
-6 5 8 2.92 0.64
5 -6 -8 4.07 0.91
1 -6 8 4.78 0.87
6 -1 -8 3.56 0.83
1 -6 8 2.67 0.73
-1 -5 -8 4.24 0.81
-5 6 -8 4.73 0.93
6 -1 -8 5.69 0.93
6 -6 -8 -0.06 0.39
0 -6 8 0.11 0.63
6 0 -8 0.76 0.75
6 0 8 0.3 0.63
6 -6 8 0.2 0.65
-6 0 8 -0.34 0.64
-6 6 -8 -0.08 0.72
-6 0 -8 0.25 0.7
0 6 -8 0.08 0.76
6 0 -8 -0.16 0.67
-6 6 -8 0.05 0.58
0 -6 -8 0.12 0.62
6 -6 -8 -0.47 0.68
6 -6 8 0.13 0.52
-7 4 -8 4.5 0.91
7 -3 8 5.82 1.02
3 4 8 6.64 0.96
7 -4 -8 5.16 0.95
4 -7 8 6.82 0.97
4 3 -8 8.43 1.08
7 -4 -8 7.91 1.07
-4 -3 -8 6.6 0.98
4 -7 8 6.09 1.11
-7 3 8 4.87 0.87
-3 -4 8 8.11 1.04
4 3 -8 3.98 0.85
-7 4 -8 5.76 0.96
3 -7 8 6.39 1.14
4 3 8 5.7 0.97
-7 4 8 4.52 0.87
-7 3 -8 6.78 1.09
-4 -3 8 6.45 1.18
7 -3 -8 5.9 0.98
3 4 -8 4.61 0.89
-3 -4 -8 6.93 1.12
3 4 -8 7.03 1.21
-7 3 -8 6.21 1.04
7 -3 -8 7.1 1.12
3 -7 8 5.67 0.93
7 -4 8 6.63 1.04
-4 7 -8 8.99 1.12
-5 -2 -8 17.79 1.64
5 -7 8 17.85 1.62
-7 5 -8 13.73 1.57
7 -5 -8 16.64 1.63
7 -2 8 15.98 1.52
7 -5 -8 16.09 1.59
5 -7 8 14.74 1.55
-7 5 -8 17.04 1.6
5 2 -8 18.36 1.68
-7 2 8 15.2 1.55
5 2 -8 15.8 1.6
-2 7 -8 18.39 1.69
-2 -5 8 16.22 1.63
2 -7 -8 16.55 1.58
-2 -5 -8 19.85 1.79
5 2 8 18.71 1.65
2 -7 8 18.61 1.76
7 -5 8 20.2 1.71
2 -7 8 18.7 1.76
-5 -2 8 21.36 1.84
5 -7 -8 17.7 1.8
-7 2 -8 20.51 1.77
2 5 -8 17.21 1.66
7 -2 -8 19.56 1.79
2 5 -8 20.14 1.75
7 -2 -8 20.55 1.83
-5 7 -8 19.49 1.79
7 -6 -8 7.76 1.24
-1 -6 8 9.57 1.26
-1 7 -8 10.93 1.26
6 1 -8 11.79 1.32
7 -1 8 10.63 1.22
6 -7 8 10.68 1.19
6 1 -8 10.03 1.33
-6 -1 -8 9.66 1.35
-7 1 8 9.34 1.26
1 -7 -8 10.28 1.26
-7 6 -8 8.16 1.24
-7 6 -8 10.14 1.42
1 -7 8 10.97 1.32
-1 -6 -8 13.69 1.44
7 -1 -8 12.52 1.46
1 -7 8 10.89 1.38
1 6 -8 14.03 1.53
6 1 8 13.21 1.36
7 -6 8 13.13 1.38
-6 7 -8 13.32 1.45
7 -1 -8 12.25 1.49
-6 -1 8 13.96 1.48
-7 1 -8 12.3 1.48
-7 0 -8 4.39 0.89
0 -7 8 4.14 0.92
0 -7 -8 3.47 0.81
7 0 -8 3.52 0.88
7 0 -8 3.14 0.86
7 -7 8 5.14 0.91
7 0 8 4.86 0.87
0 7 -8 3.48 0.83
-7 0 8 4.83 0.95
-7 7 -8 3.2 0.87
8 -4 -8 42.1 3.14
-8 4 -8 40.93 3.11
4 4 -8 39.59 3.1
4 4 8 42.06 3.07
4 -8 8 41.78 3.07
-8 4 -8 36.47 3.05
4 4 -8 41.16 3.11
-4 -4 -8 39.98 3.11
8 -4 8 42.52 3.04
4 -8 8 40.55 3.08
-4 -4 8 41.27 3.12
8 -4 -8 43.69 3.13
-4 8 -8 43.18 3.1
5 -8 8 13.65 1.48
8 -3 8 12.07 1.27
-3 8 -8 13.29 1.41
-5 -3 -8 13.48 1.47
5 3 -8 14.02 1.49
-8 5 -8 11.08 1.34
5 3 -8 13.05 1.44
5 -8 8 12.32 1.39
-8 3 8 10.79 1.31
3 -8 -8 10.71 1.32
-8 5 -8 12.8 1.51
-3 -5 8 13.44 1.48
8 -5 -8 13.26 1.49
3 -8 8 11.82 1.39
5 3 8 11.52 1.35
8 -3 -8 11.13 1.49
3 5 -8 10.78 1.39
-8 3 -8 12.19 1.48
3 -8 8 10.38 1.33
-5 8 -8 12.69 1.39
8 -3 -8 10.62 1.4
8 -5 8 11.69 1.31
-3 -5 -8 10.55 1.38
-5 -3 8 12.66 1.46
3 5 -8 10.73 1.38
8 -6 -8 4.81 0.94
8 -2 8 5.65 0.98
-8 2 8 6.26 0.98
-6 -2 -8 6.05 0.98
-8 6 -8 6.92 1.08
-8 6 -8 5.14 0.98
2 -8 -8 5.19 0.99
6 2 -8 6.11 0.96
6 2 -8 6.99 1.05
-2 8 -8 7.68 1.05
8 -2 -8 7.21 1.06
8 -2 -8 5.73 1.02
8 -6 8 7.73 1
-6 8 -8 8.1 1.15
-8 2 -8 6.5 1.07
2 6 -8 3.74 0.86
-6 -2 8 5.33 1
2 6 -8 5.05 0.89
-2 -6 -8 5.46 0.97
2 -8 8 6.74 1.06
2 -8 8 4.36 0.94
6 2 8 5.62 0.98
-1 8 -8 4.42 0.94
-8 7 -8 2.37 0.77
-1 -7 8 3.5 0.88
-8 1 8 3.97 0.88
7 -8 8 4.61 0.87
-7 -1 -8 4.09 0.86
7 1 -8 3.86 0.9
8 -7 -8 2.41 0.8
-8 7 -8 3.76 0.96
8 -1 8 5.12 0.85
7 1 -8 2.56 0.86
1 -8 8 1.93 0.75
-1 -7 -8 5.6 0.95
-8 1 -8 5.85 1.04
1 7 -8 4.21 0.86
-7 -1 8 3.15 0.9
7 1 8 4.42 0.83
1 7 -8 4.33 0.92
-1 -7 -8 3.11 0.82
8 -1 -8 4.52 0.99
8 -1 -8 5.83 1.05
-7 8 -8 6 1.08
8 -7 8 6.07 0.93
1 -8 8 3.12 0.87
8 -8 -8 0.74 0.73
0 -8 -8 0.99 0.72
8 0 8 1.23 0.75
0 -8 8 0.57 0.79
8 0 -8 1.71 0.84
0 8 -8 0.88 0.69
-8 8 -8 1.26 0.89
-8 0 -8 1.26 0.81
8 -8 8 1.36 0.68
0 8 -8 1.05 0.7
-8 0 8 1.36 0.84
-8 0 8 1.16 0.8
8 0 -8 0.87 0.78
-9 5 -8 13.89 1.61
5 4 -8 15.05 1.54
-5 -4 -8 16.36 1.69
-9 5 -8 13.15 1.55
5 4 -8 14.53 1.66
-4 -5 8 15.94 1.65
9 -5 -8 16.28 1.69
-4 9 -8 16.97 1.71
-5 -4 -8 16.05 1.62
9 -4 8 17.3 1.57
5 -9 8 16.88 1.67
-5 9 -8 17.2 1.75
-4 -5 -8 17.5 1.66
4 -9 8 14.67 1.6
4 5 -8 13.85 1.53
-5 -4 8 16.8 1.73
9 -4 -8 16.94 1.79
9 -4 -8 15.42 1.68
4 5 -8 14.93 1.72
-4 -5 -8 16.32 1.67
4 -9 8 15.58 1.66
-9 4 -8 15.85 1.63
9 -5 8 16.23 1.53
5 4 8 15.23 1.6
-9 6 -8 6.31 1.07
-9 3 8 6.56 1.23
-3 -6 8 9.41 1.21
-9 6 -8 4.75 0.98
-3 9 -8 7.05 1.09
9 -6 -8 5.69 1.07
6 3 -8 5.58 1.02
-6 -3 -8 6.07 1.03
9 -3 8 7.35 1
-6 -3 -8 7.02 1.26
6 -9 8 7.64 1.08
6 3 -8 5.76 1.01
-6 -3 8 7.84 1.39
-3 -6 -8 7.28 1.23
9 -3 -8 6.98 1.3
3 6 -8 6.13 1.02
-9 3 -8 7.87 1.38
-6 9 -8 8.15 1.41
-3 -6 -8 7.4 1.28
6 3 8 8.63 1.24
3 6 -8 7.52 1.25
3 -9 8 6.94 1.24
3 -9 8 7.19 1.27
9 -6 8 7.9 1.17
9 -3 -8 11.33 1.33
2 -9 -8 7.53 1.23
7 -9 8 7.77 1.23
-9 7 -8 7.9 1.17
-7 -2 -8 8 1.32
9 -2 8 8.38 1.19
7 2 -8 7.69 1.27
7 2 -8 7.41 1.2
-9 7 -8 5.31 1
-2 9 -8 8.94 1.33
-9 2 8 9.94 1.34
9 -7 -8 7.98 1.32
-9 2 8 7.4 1.17
-7 -2 -8 7 1.34
-2 -7 8 7.63 1.37
-9 2 -8 9.84 1.42
9 -2 -8 9.12 1.42
2 -9 8 7.76 1.16
-7 -2 8 7.68 1.43
9 -7 8 8.33 1.21
-2 -7 -8 8.88 1.27
-7 9 -8 8.99 1.32
7 2 8 7.39 1.23
2 7 -8 7.29 1.32
-2 -7 -8 7.29 1.2
9 -2 -8 7.91 1.37
2 -9 8 7.45 1.16
2 7 -8 7.96 1.13
-9 8 -8 20.52 2
8 1 -8 20.34 1.89
1 -9 -8 21.07 1.9
-9 1 8 20.55 1.94
-1 9 -8 18.38 1.9
-8 -1 -8 17.42 1.89
8 1 -8 21.48 1.98
9 -1 8 21.27 1.88
8 -9 8 21.52 1.87
-8 -1 -8 24.2 2.06
-9 1 8 23.97 2.13
9 -8 -8 17.56 1.93
-1 -8 8 20.64 1.99
-8 9 -8 19.57 1.88
9 -1 -8 17.39 1.79
-1 -8 -8 18.96 1.76
9 -8 8 18.44 1.62
-9 1 -8 14.16 1.71
-9 1 -8 19.82 1.79
1 8 -8 16.73 1.77
8 1 8 20.23 1.73
9 -1 -8 19.33 1.88
1 8 -8 15.01 1.68
-8 -1 8 18.85 1.91
1 -9 8 19.69 1.85
1 -9 8 13.67 1.63
8 -9 -8 15.01 1.73
0 9 -8 8.28 1.34
-9 9 -8 10.34 1.54
9 -9 -8 10.79 1.44
0 -9 -8 9.24 1.39
-9 0 -8 12.01 1.58
0 -9 8 9.12 1.52
-9 0 8 11.81 1.63
9 0 -8 10.05 1.49
9 0 -8 10.54 1.49
9 0 8 11.05 1.4
0 9 -8 8.62 1.37
-9 0 -8 8.48 1.34
-9 0 8 9.81 1.55
9 -9 8 9.52 1.34
-5 -5 -8 24 2.09
10 -5 -8 23.35 2.12
-10 5 -8 18.83 1.88
5 5 -8 22.24 2.12
-5 -5 -8 22.13 2.06
-5 -5 8 25.56 2.14
-10 5 -8 19.59 2.09
-5 10 -8 24.62 2.06
5 5 -8 20.94 2.03
10 -5 8 24.82 2
5 -10 8 25.01 2.1
6 4 -8 7.59 1.3
-4 -6 8 8.33 1.4
-4 10 -8 10.58 1.47
-6 -4 -8 9.29 1.39
4 -10 -8 6.08 1.07
6 -10 8 10.37 1.4
-6 -4 -8 8.26 1.36
10 -6 -8 8 1.36
6 4 -8 8.32 1.36
10 -4 8 9.46 1.26
-10 4 8 9.92 1.51
-10 6 -8 7.7 1.31
-6 -4 8 10.33 1.51
-6 10 -8 10.43 1.48
10 -4 -8 9.36 1.45
-4 -6 -8 9.9 1.38
10 -6 8 9.74 1.2
10 -4 -8 11.23 1.49
4 -10 8 10.32 1.36
4 6 -8 8.91 1.42
4 -10 8 9.48 1.44
4 6 -8 8.29 1.22
-4 -6 -8 9.43 1.39
-10 4 -8 9.62 1.42
-10 7 -8 2.12 0.89
7 3 -8 2.63 0.91
10 -3 8 3.26 0.87
3 7 8 1.09 0.55
7 3 -8 2.09 0.86
-3 -7 8 3.6 1.03
-7 -3 -8 2.27 0.93
7 -10 8 2.46 0.9
-10 3 8 2.98 1
-7 -3 -8 1.63 0.86
3 -10 -8 1.27 0.76
-10 7 -8 1.11 0.76
10 -7 -8 0.76 0.82
-3 10 -8 2.67 0.91
10 -3 -8 1.73 0.97
7 3 8 1.48 0.85
3 -10 8 0.4 0.82
3 7 -8 1.07 0.77
10 -7 8 1.23 0.68
10 -3 -8 1.5 0.84
-7 -3 8 1.93 0.95
-7 10 -8 1.73 0.87
3 -10 8 1.4 0.86
7 3 8 0.27 0.56
-10 3 -8 2.02 0.96
3 7 -8 1.08 0.85
-3 -7 -8 0.47 0.68
-3 -7 -8 1.08 0.76
8 2 -8 7.84 1.34
8 -10 8 8.19 1.31
-2 -8 8 7.89 1.44
2 8 8 5.63 1
8 2 -8 9.54 1.42
-10 8 -8 8.74 1.42
2 -10 -8 8.46 1.29
-8 -2 -8 8.19 1.35
-2 10 -8 7.22 1.22
10 -8 -8 8.89 1.39
-8 -2 -8 7.63 1.32
10 -2 8 9.21 1.3
-10 2 8 8.45 1.55
8 -10 -8 7.23 1.27
-10 2 -8 9.68 1.5
2 8 -8 8.26 1.35
2 -10 8 9.29 1.43
-2 -8 -8 9.39 1.36
10 -8 8 9.54 1.3
10 -2 -8 10.68 1.42
10 -2 -8 8.23 1.41
2 8 -8 7.8 1.27
2 -10 8 5.8 1.12
-8 10 -8 9.13 1.34
-8 -2 8 8.65 1.48
8 2 8 9.45 1.33
-9 -1 -8 8.64 1.43
-1 -9 8 9.6 1.47
9 -10 8 10.5 1.3
-10 1 8 10.73 1.68
9 1 -8 10.26 1.52
10 -9 -8 8.56 1.41
9 1 -8 11.35 1.53
-9 -1 -8 11.43 1.58
1 -10 -8 10.31 1.45
-10 1 8 9.06 1.34
-1 10 -8 8.14 1.28
-1 10 -8 7.95 1.38
10 -1 8 11.24 1.42
-10 9 -8 9.92 1.54
-10 1 -8 10.16 1.44
1 9 -8 9.42 1.41
10 -1 -8 10.34 1.53
-10 1 -8 8.01 1.3
-9 -1 8 9.93 1.64
-9 -1 8 9 1.57
-1 -9 -8 9.04 1.48
9 -10 -8 8.21 1.41
1 9 -8 9.36 1.37
1 -10 8 9.55 1.48
-9 10 -8 10.28 1.53
10 -9 8 11.04 1.27
10 -1 -8 9.28 1.47
9 1 8 9.88 1.41
-10 0 -8 23.82 2.2
10 -10 8 23.3 2
-10 0 -8 18.42 2
10 0 8 23.59 2.05
0 10 -8 16.93 1.95
10 0 -8 24.06 2.14
10 0 -8 21.13 2.11
-10 0 8 22.13 2.26
0 -10 -8 20.75 2.11
-10 10 -8 25.06 2.13
10 -10 -8 20.87 2.06
0 -10 8 21.43 2.13
-10 0 8 22.77 2.15
0 10 -8 19.98 2.05
5 6 8 1.31 0.71
11 -6 -8 1.35 0.9
-6 -5 -8 1.68 0.91
-11 6 -8 1.34 0.87
6 5 -8 0.81 0.79
-11 6 -8 0.67 0.75
-11 5 8 1.58 0.92
-5 -6 8 1.62 0.98
-5 11 -8 1.5 0.87
6 -11 8 1.71 0.96
11 -5 8 1.49 0.77
6 5 -8 1.5 0.94
-6 -5 -8 1.29 0.85
11 -5 -8 1.36 0.91
6 5 8 1.69 0.74
-6 -5 8 0.47 0.87
11 -6 8 1.41 0.82
-6 11 -8 1.64 0.93
-5 -6 -8 1.51 0.89
-11 5 -8 1.01 0.87
5 6 -8 1.51 0.89
-5 -6 -8 1.25 0.82
5 6 -8 0.91 0.79
5 -11 8 0.48 0.83
-11 7 -8 8.68 1.45
4 7 8 7.54 1.21
-11 7 -8 7.46 1.38
-7 -4 -8 11.11 1.55
-4 -7 8 8.76 1.5
7 4 -8 9.88 1.53
7 4 -8 8.02 1.35
-11 4 8 10.79 1.52
-4 11 -8 9.25 1.34
7 -11 8 10.01 1.47
11 -7 -8 8.37 1.45
-7 -4 -8 9.45 1.54
11 -4 8 9.19 1.38
11 -4 -8 9.03 1.47
4 -11 8 9.49 1.51
4 7 -8 11.47 1.55
-7 11 -8 11.04 1.45
4 7 -8 8.66 1.37
11 -4 -8 13.59 1.78
-4 -7 -8 12.65 1.53
-11 4 -8 11.78 1.64
-7 -4 8 10.69 1.64
-4 -7 -8 7.76 1.31
7 4 8 9.6 1.36
11 -7 8 11.29 1.4
3 8 8 3.22 0.78
-3 -8 8 4.81 1.12
11 -3 8 3.09 0.9
-8 -3 -8 3.64 1.05
8 3 -8 2.66 0.87
11 -8 -8 3.74 1
-11 3 8 4.9 1.09
-11 8 -8 3.49 0.91
3 -11 -8 2.4 0.85
-8 -3 -8 3.2 0.96
-11 8 -8 2.39 0.8
-3 11 -8 2.82 0.94
8 3 -8 4.79 1.06
8 -11 8 4.26 0.97
-8 11 -8 4.18 0.97
8 3 8 2.66 0.8
-11 3 -8 4.84 1.12
11 -3 -8 5.3 1.19
8 3 8 2.96 0.9
11 -3 -8 3.51 0.97
3 -11 8 3.95 1.03
-8 -3 8 4.86 1.16
11 -8 8 3.98 0.91
3 8 -8 4.04 1
3 -11 8 3.25 0.97
-3 -8 -8 3.98 1
3 8 -8 2.54 0.8
9 2 -8 10.6 1.47
-2 11 -8 10.07 1.42
11 -9 -8 10.59 1.58
-9 -2 -8 12.21 1.52
9 2 -8 11.01 1.6
9 -11 8 7.95 0.97
-9 -2 -8 10.2 1.55
2 -11 -8 10.53 1.5
-2 -9 8 11.34 1.6
-11 2 8 11.62 1.73
9 -11 8 11.29 1.49
-11 9 -8 11.3 1.49
-9 11 8 7.18 1.31
11 -2 8 12.77 1.54
11 -2 -8 12.36 1.66
-9 11 -8 12.22 1.25
2 -11 8 13.07 1.68
-11 9 8 9.87 1.26
-9 11 -8 13.78 1.55
-11 2 -8 15.07 1.76
9 2 8 10.36 1.45
11 -9 8 13.45 1.54
11 -2 -8 13.07 1.64
-2 -9 -8 12.66 1.62
-9 -2 8 13.79 1.7
2 -11 8 10.41 1.54
9 2 8 13.23 1.59
2 9 -8 13.59 1.61
2 9 -8 9.68 1.42
9 -11 -8 10.94 1.59
11 -10 -8 26.29 2.27
-11 10 -8 26.35 2.32
10 -11 8 23.77 1.89
1 -11 -8 22.81 2.27
10 1 -8 23.69 2.26
-11 1 8 24.61 2.46
11 -1 8 27.64 2.23
-10 -1 -8 21.8 2.28
10 1 -8 27.39 2.36
-1 -10 8 26.8 2.34
-10 -1 -8 24.36 2.01
1 10 8 23.43 1.95
-10 11 8 20.97 2.16
-1 11 -8 24.6 2.17
-10 -1 -8 27.69 2.41
-1 11 8 18.12 1.63
1 -11 8 20.6 2.07
10 -11 -8 18.52 1.98
-10 -1 8 22.55 2.21
10 1 8 21.61 2
-1 -10 -8 19.18 2.02
-10 11 -8 18.96 1.78
11 -1 -8 19.65 2.04
1 10 -8 15.33 1.74
-11 1 -8 21.81 1.83
11 -10 8 15.95 1.55
11 -1 -8 22.24 2.01
-10 11 -8 22.59 2.07
-10 -1 8 20.3 2.15
1 10 -8 20.36 1.98
11 -10 8 23.79 1.96
-11 1 -8 22.24 2.14
-11 10 8 18.56 1.78
-11 11 -8 -0.02 0.84
11 0 8 0.32 0.87
-11 11 -8 0.35 0.66
-11 0 -8 -0.07 0.97
11 -11 -8 -0.2 0.88
-11 0 8 -0.46 0.98
11 0 -8 0.23 0.89
0 11 8 0.13 0.42
-11 11 8 0.25 0.8
-11 0 -8 0.45 0.62
11 0 8 -0.15 0.28
-11 11 8 0.22 0.74
0 11 -8 0.1 0.8
-11 0 8 -0.4 0.56
-11 0 -8 0.43 0.71
11 -11 8 -0.03 0.51
0 11 -8 0.31 0.6
11 0 8 -0.73 0.59
11 0 -8 -0.08 0.9
11 -11 8 -0.15 0.83
0 -11 8 0.02 0.94
0 -11 -8 -0.53 0.88
0 11 8 0.31 0.59
-11 0 8 0.32 0.64
6 6 -8 1.83 0.97
-6 12 8 0.37 0.49
6 6 8 1.24 0.82
6 6 -8 -0.03 0.55
-12 6 8 1.95 1.06
-6 -6 8 1.27 0.94
-6 12 -8 1.46 0.88
-6 -6 -8 0.78 0.86
-6 -6 -8 2.25 1.03
12 -6 8 2.2 0.89
6 -12 8 1.39 0.96
-12 6 8 1.93 0.68
12 -6 -8 1.48 0.96
-6 12 -8 0.4 0.43
6 6 8 0.61 0.44
-12 6 -8 0.83 0.83
5 7 8 11.21 1.45
-7 -5 -8 10.78 1.6
-7 -5 -8 12.48 1.69
12 -5 8 12.43 1.54
-5 -7 8 9.98 1.36
5 7 8 10.29 1.08
12 -7 -8 9.95 1.58
-12 5 8 11.05 1.2
-12 5 8 7.56 1.27
-12 7 -8 10.37 1.47
7 5 -8 12.9 1.72
7 -12 8 12.51 1.61
-5 12 -8 11.23 1.55
-12 5 8 13.44 1.66
-5 -7 8 12.03 1.66
-12 7 -8 10.03 1.54
5 7 -8 12.04 1.68
-5 12 8 8.93 1.14
-12 7 8 12.32 1.3
12 -5 -8 14.29 1.74
12 -7 8 11.25 1.47
7 5 8 8.12 0.98
12 -5 -8 10.6 1.57
-12 5 -8 10.37 1.51
-7 -5 8 11.65 1.64
-7 12 -8 12.02 1.61
-7 12 -8 7.79 1.15
5 -12 8 10.67 1.59
7 5 8 11.96 1.51
-5 -7 -8 11.26 1.58
-8 12 8 6.77 1.21
8 4 -8 8.54 1.5
-4 -8 8 7.36 1.21
8 -12 8 6.47 0.94
-12 4 8 5.22 0.89
-4 -8 8 8.43 1.52
-8 12 8 5.47 0.89
4 8 8 8.31 1.3
-8 -4 -8 7.52 1.26
8 -12 8 10.1 1.51
4 -12 -8 8.23 1.26
12 -4 8 9.45 1.38
-8 -4 -8 8.61 1.5
-12 4 8 9.76 1.54
12 -8 -8 8.69 1.5
4 8 8 6.71 0.95
-12 8 -8 9.03 1.5
-12 4 8 6.51 0.99
-4 12 -8 9.03 1.26
-8 12 -8 7.57 1.03
-12 4 -8 8.66 1.37
4 -12 8 6.97 1.27
12 -4 -8 11.37 1.52
12 -8 8 9.45 1.23
4 8 -8 9.35 1.33
-12 8 8 6.3 1.19
-12 8 8 6.5 0.97
-8 -4 8 9.04 1.6
12 -4 -8 9.55 1.33
-4 12 8 6.9 1.02
-8 12 -8 7.71 1.36
8 4 8 7.51 1.16
-3 12 -8 0.89 0.85
-12 3 8 0.99 1.09
-3 -9 8 -0.83 0.82
-3 12 -8 0.03 0.48
9 -12 8 0.19 0.54
-9 -3 -8 0.28 0.89
3 9 8 0.92 0.75
-12 3 8 -0.59 0.69
12 -9 -8 0.11 0.86
12 -3 8 0.54 0.87
3 -12 -8 0.4 0.54
9 -12 8 1.08 0.94
-9 -3 -8 0.54 0.54
-9 12 8 0.16 0.41
9 3 -8 0.33 0.68
-9 12 8 0.12 0.5
-9 12 8 -0.2 0.77
-9 -3 -8 0.84 0.89
3 9 8 0.39 0.52
9 3 -8 0.82 0.96
-12 9 -8 0.62 0.91
-3 -9 8 0.98 0.99
-12 9 8 -0.07 0.7
-12 3 -8 0.5 0.65
-9 12 -8 0.56 0.72
-9 -3 8 0.15 0.95
9 3 8 0.14 0.38
-12 9 8 0.37 0.71
3 9 -8 0.09 0.88
3 -12 8 0.14 0.86
9 -12 -8 0.11 0.71
-3 12 8 0.54 0.58
-3 -9 -8 0.54 0.89
-9 12 -8 0.33 0.85
9 3 8 0.61 0.79
-12 3 -8 -0.15 0.86
3 -12 8 0.07 0.6
12 -3 -8 0.29 0.85
12 -3 -8 0.24 0.93
12 -9 8 0.43 0.4
12 -9 8 0.63 0.77
-2 -10 8 3.8 0.97
2 10 8 5.69 0.74
10 -12 8 5.78 0.76
-10 -2 -8 4.65 0.81
-2 -10 8 6.8 1.21
-2 12 -8 5.51 1.02
10 2 -8 8.1 1.25
-10 -2 -8 5.85 1.16
2 10 8 6.06 0.84
-12 2 8 7.1 1.39
12 -10 -8 3.53 1.02
-2 12 -8 3.58 0.83
-12 10 -8 6.92 1.19
12 -2 8 6.56 1.16
-10 12 8 4.79 0.8
-12 2 8 4.37 0.89
2 -12 -8 3.68 0.98
10 2 -8 3.24 0.86
-10 12 8 5.59 1.04
-10 -2 -8 5.01 1.13
2 10 -8 5.22 1.08
12 -2 -8 5.4 1.13
-12 10 8 6.65 1.04
-10 -2 8 4.38 1.12
-10 -2 8 6.35 1.3
2 -12 8 3.39 0.89
10 -12 -8 5.92 1.16
-12 10 8 3.28 0.75
10 2 8 4.6 0.94
-10 12 -8 6.84 0.96
-2 12 8 5.51 0.8
-10 12 -8 5.23 1.11
-12 2 -8 6.23 1.17
-12 2 -8 5.97 0.93
-12 10 8 3.65 0.79
2 -12 8 5.73 1.12
12 -2 -8 6.44 1.15
12 -10 8 5.27 1.02
12 -10 8 5.01 0.69
-2 -10 -8 4.48 1.09
1 -12 -8 4.39 1.06
1 11 8 6.24 0.79
-11 12 8 4.37 1.03
-11 -1 -8 6.95 1.34
-11 -1 -8 4.53 0.98
-12 1 8 4.02 0.91
11 1 -8 3.61 0.9
-11 12 8 5.44 0.94
-11 -1 -8 6.53 0.99
1 11 8 6.02 0.85
-12 11 -8 4.66 1.08
-1 12 -8 7.35 1.3
-1 -11 8 3.61 0.93
-1 -11 8 8.43 1.36
-12 11 -8 7.36 0.99
11 -12 8 5.5 0.76
12 -11 -8 7.36 1.24
-12 1 8 6.45 1.42
11 -12 8 9.05 1.31
12 -1 8 7.38 1.22
11 1 -8 5.78 1.16
-12 11 8 5.91 0.89
12 -1 -8 7.66 1.22
11 1 8 6.56 1.19
-12 11 8 8.44 1.18
-11 12 -8 7.25 1.19
-1 12 8 7.33 1.11
-12 1 -8 6.84 1.05
-12 1 -8 10.24 1.52
-1 12 8 6.22 0.95
-12 11 8 8.31 1.36
-11 12 -8 8.34 1.04
11 -12 -8 7.21 1.24
-1 -11 -8 6.28 1.18
12 -1 -8 9.22 1.54
12 -11 8 6.99 1.04
-11 -1 8 5.88 1.3
12 -11 8 8.04 1.43
1 -12 8 8.47 1.52
1 11 -8 7.65 1.42
0 -12 8 0.3 0.97
12 -12 -8 -0.09 0.86
-12 12 8 0.03 0.5
-12 12 -8 -0.52 0.9
-12 0 8 -0.69 1.03
-12 12 8 -0.39 0.8
0 12 8 -0.37 0.57
-12 0 -8 0.12 0.75
12 -12 8 -0.52 0.56
12 0 8 -0.1 0.95
12 0 -8 0.17 0.9
0 -12 -8 -0.19 0.86
-12 0 8 -0.44 0.72
0 12 8 0.1 0.63
12 0 8 -0.32 0.62
12 0 -8 0.18 0.76
-12 0 -8 -0.14 1
-12 12 -8 0.12 0.67
12 -12 8 0.11 0.87
-12 12 8 -0.23 0.84
12 0 8 0.02 0.36
0 12 -8 -0.15 0.81
-13 6 8 2.51 1.18
-7 -6 -8 1.15 0.8
-6 13 -8 1.65 0.89
7 -13 8 1.14 0.96
13 -6 8 2.24 0.99
6 7 8 1.56 0.55
-13 7 -8 1.06 0.87
-13 6 8 2.99 0.8
-7 13 8 0.86 0.55
-7 13 8 1.6 0.65
-6 13 -8 0.83 0.48
-7 -6 -8 2.03 1.04
6 7 8 1.13 0.86
13 -7 -8 1.55 0.97
-6 -7 8 2.04 1.1
7 -13 8 1.12 0.58
-6 -7 8 0.46 0.97
7 6 -8 1.08 0.9
-13 6 8 1 0.73
7 6 8 0.27 0.83
-13 7 8 0.28 0.58
-7 13 -8 1.23 0.68
-13 7 8 0.85 0.77
-13 6 -8 0.69 0.43
13 -7 8 -0.1 0.26
6 7 -8 0.39 0.9
7 6 8 0.57 0.53
-6 13 8 1.34 0.71
-7 13 -8 0.64 0.88
-13 6 -8 0.86 0.96
6 -13 8 -0.02 0.99
13 -7 8 0.35 0.86
-7 -6 8 -1.4 0.86
6 -13 8 -0.3 0.46
-6 13 8 0.21 0.67
13 -6 -8 1.64 0.98
-7 -6 8 -0.75 0.91
-6 -7 -8 0.97 0.96
8 -13 8 2.72 1.01
5 8 8 2.7 0.91
-13 5 8 1.29 0.8
5 8 8 3.31 0.64
-8 -5 -8 2.08 1.01
-8 13 8 3.73 0.75
-5 -8 8 3.85 1.2
-5 13 -8 3.05 0.93
8 -13 8 3.31 0.68
-8 13 8 2.1 0.82
-8 -5 -8 3.27 1.07
-13 8 -8 1.78 0.84
-5 -8 8 1.73 1.02
-13 5 8 3.36 0.75
8 5 -8 4.74 1.2
-13 8 -8 2.18 0.83
13 -5 8 3.74 0.98
13 -8 -8 3.43 1.05
-13 5 8 5.21 1.32
13 -8 8 4.17 1.01
13 -8 8 1.39 0.42
13 -5 -8 2.63 0.96
-8 -5 8 1.41 0.9
-13 5 -8 4.09 1.18
-8 13 -8 2.02 0.77
-5 -8 -8 3.29 1.07
-13 5 -8 2.85 0.72
-8 -5 8 1.77 1.02
-13 8 8 4.5 0.91
5 8 -8 3.13 1
5 -13 8 1.65 0.98
-5 13 8 2.52 0.73
8 5 8 2.39 0.57
-8 13 -8 3.65 1.05
13 -5 -8 3.84 1.19
8 5 8 2.59 0.91
-13 4 8 10.65 1.57
4 9 8 13.44 1.59
4 9 8 12.74 1.28
-4 -9 8 13.31 1.85
-9 13 8 15.01 1.45
4 -13 -8 11.72 1.56
13 -9 -8 14.78 1.82
-9 13 8 9.86 1.65
13 -4 8 16.59 1.73
-9 -4 -8 12 1.76
-4 13 -8 11.86 1.61
9 -13 8 15.85 1.82
-13 9 -8 13.54 1.64
-4 -9 8 10.17 1.71
9 -13 8 12.99 1.34
-13 4 8 15.59 2.04
13 -4 -8 13.3 1.71
9 4 8 12.12 1.62
-4 13 8 12.13 1.38
13 -9 8 12.61 1.22
13 -9 8 12.87 1.62
4 -13 8 11.49 1.73
-13 9 8 12.99 1.59
9 4 8 11.4 1.21
-13 4 -8 13.31 1.86
4 9 -8 12.86 1.72
-9 13 -8 12.88 1.7
-4 -9 -8 12.57 1.66
-13 4 -8 12.76 1.58
-13 9 8 12.5 1.59
-9 13 -8 13.52 1.51
13 -4 -8 13.43 1.82
-9 -4 8 11 1.72
-10 13 8 16.92 1.82
-13 10 -8 13.18 1.39
-13 3 8 13.89 1.71
3 -13 -8 17.23 1.75
-10 13 8 13.33 1.52
13 -3 8 16.94 1.91
10 -13 8 20.13 1.9
-3 -10 8 12.73 1.88
10 3 -8 17.62 1.98
-13 10 -8 14.89 1.82
-10 -3 -8 18.19 1.66
-3 -10 8 18.11 2.01
10 -13 8 17.75 1.48
3 10 8 16.76 1.48
-13 3 8 17.68 2.17
-10 -3 -8 16.66 1.95
-3 13 -8 12.92 1.62
13 -10 -8 18.88 1.93
-3 -10 -8 10.83 1.61
-10 13 -8 13.15 1.45
13 -10 8 11.27 1.18
13 -3 -8 11.92 1.74
10 3 8 10.45 1.55
13 -10 8 11.31 1.57
3 -13 8 9.8 1.56
10 -13 -8 9.14 1.5
-13 3 -8 11.55 1.59
-10 -3 8 11.74 1.7
-13 3 -8 13.9 1.88
3 10 -8 12.93 1.66
10 3 8 11.62 1.17
13 -3 -8 11.89 1.66
-10 13 -8 12.21 1.75
-13 10 8 11.24 1.55
-3 13 8 11.35 1.33
-13 10 8 12.31 1.61
-13 2 8 4.07 0.93
13 -11 -8 6.58 1.24
-11 -2 -8 3.55 0.96
-2 -11 8 8.04 1.35
-2 -11 8 4.12 1.08
-11 13 8 5.76 0.93
13 -2 8 5.41 1.16
2 11 8 5.21 0.77
-13 11 -8 6.25 0.93
-13 2 8 5.77 1.39
2 11 8 7.71 0.95
-11 -2 -8 4.39 1.15
-13 11 -8 3.43 1
11 -13 8 8.29 1.31
2 -13 -8 6.74 1.15
-11 -2 -8 5.48 0.94
11 -13 8 7.57 0.86
11 2 -8 6.54 1.2
-11 13 8 6.03 1.12
2 11 -8 6.04 1.15
-2 13 8 6.98 1.11
13 -11 8 5.91 1.14
-2 13 8 5.01 0.81
-13 2 -8 8.98 1.43
13 -11 8 7.28 1.06
-13 11 8 7.57 1.04
-11 13 -8 8.52 1.03
11 -13 -8 6.22 1.19
-13 2 -8 9.69 1.45
-11 -2 8 7.8 1.42
-2 -11 -8 5.94 1.15
11 2 8 7.26 0.93
-11 13 -8 10.27 1.39
-13 11 8 10.03 1.24
13 -2 -8 4.97 1.15
13 -2 -8 8.98 1.34
-13 11 8 7.82 1.11
-1 -12 8 7.79 1.21
-13 1 8 9.33 1.61
-13 1 8 8.75 1.43
-1 13 -8 8.13 1.31
-13 12 -8 9.09 1.55
13 -12 -8 9.76 1.6
-12 -1 -8 8.35 1.13
1 12 8 8.23 1.21
-12 13 8 7.97 1.21
-12 13 8 5.9 1.03
12 1 -8 8.98 1.62
13 -1 8 8.47 1.46
12 -13 8 8.83 1.58
-13 12 -8 8.55 1.37
12 -13 8 8.49 1.1
1 -13 -8 9.34 1.46
1 12 8 7.86 1.17
-12 -1 -8 9.37 1.71
-1 -12 8 10.46 1.71
13 -12 8 8.7 1.26
12 -13 -8 4.64 1.13
13 -1 -8 7.95 1.33
-12 13 -8 8.45 1.03
-13 12 8 5.3 0.93
-13 12 8 7.26 1.13
1 12 -8 5.83 1.12
-13 1 -8 5.82 1.26
-13 1 -8 6.49 0.99
-12 -1 8 6.39 1.37
-12 -1 8 4.86 0.93
-13 12 8 6.97 1.08
-1 13 8 6.02 0.85
-1 13 8 4.8 0.8
1 -13 8 3.59 0.95
13 -12 8 4.58 0.74
-12 13 -8 5.8 1.19
12 1 8 4.58 0.67
-1 -12 -8 5.59 1.16
0 -13 -8 7.68 1.33
0 13 8 6.6 0.92
-13 13 -8 11.08 1.62
0 -13 -8 11.95 1.59
-13 13 8 8.89 1.57
13 -13 -8 8.98 1.6
-13 0 8 8.69 1.46
0 13 -8 9.57 1.44
13 -13 8 9.76 1.19
-13 13 8 7.55 1.27
0 -13 8 7.9 1.39
13 0 -8 9.98 1.68
0 -13 8 10.05 1.49
-13 0 -8 10.33 1.46
0 13 8 9.18 1.24
-13 0 -8 9.22 1.69
-13 0 8 11.06 1.94
13 -13 8 11.1 1.62
-13 13 -8 10.49 1.4
-13 13 8 10.28 1.64
0 13 8 9.05 1.32
7 -14 8 0.17 1.01
7 7 -8 0.75 1.02
-14 7 -8 0.74 0.47
-7 -7 -8 0.38 0.91
14 -7 -8 0.3 0.91
-14 7 8 0.04 0.71
14 -7 8 0.37 0.92
14 -7 8 -0.11 0.35
-7 14 8 -0.05 0.61
7 7 8 0.41 0.56
-7 -7 8 -0.33 0.97
-14 7 -8 0.45 0.83
-14 7 8 1.06 0.8
-7 14 -8 0.64 0.82
7 -14 8 -0.44 0.58
-7 14 -8 0.23 0.65
-14 7 8 1.02 1.16
-7 -7 8 -1.07 0.94
7 7 8 0.21 0.85
-7 14 8 0.28 0.59
-14 6 8 2.91 0.77
-8 -6 -8 1.72 0.97
-14 8 -8 1.27 0.75
-6 14 -8 1.57 0.86
-6 -8 8 2.1 1.16
-6 -8 8 0.55 1
-6 14 -8 2.15 0.58
8 -14 8 1.57 0.65
8 6 -8 2.22 1.02
14 -8 -8 2.74 1.07
6 8 8 2.1 0.6
-8 -6 -8 0.4 0.64
8 -14 8 1.85 1
6 8 8 2.69 0.91
14 -6 8 1.22 0.92
-8 14 8 1.33 0.77
-14 6 8 2.48 0.84
-14 6 8 1.48 1.14
-8 14 8 2.97 0.72
6 -14 8 0.42 0.59
-6 -8 -8 0.89 0.91
-8 -6 8 0.6 0.98
-8 14 -8 0.72 0.9
14 -8 8 0.95 0.46
8 6 8 0.71 0.84
-8 -6 8 1.66 1.13
6 8 -8 1.47 0.99
-14 8 8 0.96 0.75
14 -6 -8 1.71 1.12
8 6 8 0.88 0.57
-14 6 -8 0.89 0.89
-6 14 8 0.14 0.46
6 -14 8 0.69 0.97
14 -6 -8 0.92 0.99
-8 14 -8 1.36 0.76
14 -8 8 1.5 0.89
-14 6 -8 1.13 0.68
-14 8 8 0.89 0.74
-6 14 8 1.57 0.73
-9 -5 -8 16.82 1.97
-14 5 8 21.17 1.75
9 -14 8 19.3 1.66
14 -9 -8 18.75 2.07
-14 5 8 17.48 1.9
-5 -9 8 20.37 2.2
-9 14 8 19.09 1.93
-9 -5 -8 17.74 2.03
9 5 -8 22.13 2.24
-5 14 -8 14.6 1.83
14 -5 8 19.76 2
-9 14 8 20.55 1.77
9 -14 8 22.49 2.14
-5 -9 8 14.61 2.03
-14 5 8 22.59 2.37
5 9 8 18.07 1.61
5 9 8 17.52 1.92
14 -5 -8 16.59 1.98
14 -5 -8 18.69 2.11
-9 -5 8 12.73 1.83
-9 14 -8 17.34 1.7
9 5 8 16.52 1.82
9 5 8 16.84 1.49
14 -9 8 15.56 1.44
5 -14 8 14.96 1.94
5 9 -8 18.3 1.96
-14 9 8 17.94 1.82
-5 14 8 17.8 1.64
-14 9 8 17.98 1.76
-9 -5 8 16.04 1.92
-9 14 -8 18.33 1.98
-5 -9 -8 16.17 1.94
-14 5 -8 16 1.99
14 -9 8 17.16 1.87
-14 5 -8 18.03 1.76
-10 14 8 2.27 0.91
-14 4 8 2.71 0.87
-4 -10 8 2.89 1.07
-14 4 8 3.52 1.33
-10 14 8 2.83 0.73
-4 -10 8 3.34 1.11
4 -14 -8 2.33 0.85
-10 -4 -8 2.92 1.04
-10 -4 -8 2.91 0.74
14 -4 8 3.27 0.96
10 4 -8 4.78 1.22
-14 10 -8 2.17 0.89
4 10 8 3.91 0.71
10 -14 8 3.82 0.71
-10 -4 -8 2.25 1.03
10 -14 8 3.7 1.22
14 -10 -8 3.83 1.12
-14 10 -8 2.35 0.59
10 4 8 1.54 0.79
-4 14 8 3.9 0.82
-14 10 8 3.66 0.99
-10 -4 8 0.83 0.84
-10 14 -8 3.71 0.83
10 -14 -8 -0.08 1.06
10 4 8 2.84 0.63
14 -4 -8 2.46 0.97
4 10 -8 3.22 1.08
-4 -10 -8 3.14 1.06
-10 14 -8 2.94 1.03
14 -10 8 3 0.62
-14 4 -8 3.09 1.12
-10 -4 8 3.23 1.06
14 -10 8 2.34 0.92
14 -4 -8 1.81 1.01
-14 10 8 2.56 0.86
-14 4 -8 1.97 0.82
4 -14 8 1.1 0.94
-14 3 8 2.18 0.86
-3 -11 8 3.53 1.13
3 -14 -8 3.55 0.97
3 11 8 2.41 0.52
-14 11 -8 4.33 1.02
-11 -3 -8 3.11 0.92
-11 -3 -8 3.04 1.07
14 -11 -8 4.27 1.16
3 11 8 4.17 0.81
11 -14 8 5.34 1.2
-11 -3 -8 4.88 0.92
-11 14 8 3.48 0.98
-11 14 8 3.9 0.82
11 3 -8 5.29 1.26
3 11 8 4.07 0.71
-14 3 8 4.05 1.36
-3 -11 8 4.81 1.13
-14 11 -8 3.21 0.85
14 -3 8 1.5 0.77
11 -14 8 3.72 0.71
-14 11 8 8.17 1.4
3 11 -8 6.92 1.23
-11 14 -8 9.08 1.37
-14 11 8 9.69 1.55
-11 14 -8 8.46 1.3
14 -3 -8 7.54 1.29
14 -11 8 8.5 1.09
-3 -11 -8 8.95 1.59
14 -11 8 7.39 1.22
-14 11 8 10.78 1.2
-14 3 -8 7.32 1.34
11 3 8 8.52 1.04
-3 14 8 8.95 1.2
-11 -3 8 6.83 1.29
14 -3 -8 5.95 1.21
-14 3 -8 9.37 1.44
2 -14 -8 5.26 1.09
2 12 8 5.39 0.85
2 12 8 6.71 0.83
-2 -12 8 5.59 1.22
-14 2 8 4.98 0.94
-2 -12 8 4.58 1.07
-14 12 -8 5.67 1.12
12 2 -8 5.27 1.22
-12 -2 -8 6.04 0.96
-14 2 8 5.79 1.45
-12 14 8 4.55 1.03
12 -14 8 5.64 1.23
14 -12 -8 4.6 1.19
-12 14 8 4.15 0.87
12 -14 8 5.15 0.8
-12 -2 -8 3.47 1.12
-14 12 -8 4.83 0.93
2 12 8 3.62 0.67
-2 14 8 3.25 0.75
14 -12 8 2.12 0.96
-14 12 8 2.34 0.91
2 12 -8 1.61 0.99
14 -2 -8 1.11 0.97
14 -12 8 2.32 0.62
-12 14 -8 2.15 0.99
-14 2 -8 2.38 1.09
-14 12 8 1.15 0.77
12 -14 -8 0.32 0.75
-12 14 -8 2.25 0.76
-14 12 8 1.88 0.88
14 -2 -8 0.39 1.07
12 2 8 2.04 0.58
-2 -12 -8 0.94 0.91
-12 -2 8 1.14 0.84
-14 2 -8 2.29 0.87
-12 -2 8 2 0.72
13 1 -8 7.35 1.29
-14 13 -8 8.96 1.08
-14 1 8 5.61 1
-13 14 8 7.24 1.15
-13 -1 -8 7.35 1.33
-13 14 8 7.43 1.04
1 13 8 9.61 1
-14 13 -8 4.08 1.08
-13 14 8 6.27 0.95
-1 -13 8 8.07 1.44
1 13 8 6.84 1.13
13 -14 8 9.45 1.39
13 -14 8 6.1 0.83
14 -13 -8 6.56 1.24
1 13 8 7.12 1.06
-14 1 8 7.47 1.48
1 -14 -8 5.87 1.13
-13 -1 -8 6.37 1.03
-1 -13 8 8.16 1.19
-13 -1 8 8.64 1.61
14 -13 8 9.14 1.6
-14 13 8 9.8 1.63
14 -1 -8 9.27 1.63
-1 -13 -8 9.28 1.52
-14 1 -8 9.25 1.43
-13 -1 8 9.99 1.42
-14 13 8 8.31 1.17
13 1 8 8.07 0.98
-14 1 -8 10.5 1.68
-13 14 -8 9.29 1.56
-14 13 8 5.8 1.01
14 -13 8 9.65 1.1
-1 14 8 7.49 1.05
1 13 -8 9.35 1.38
13 -14 -8 7.74 1.43
-1 14 8 8.18 1.17
13 1 8 7.86 0.97
-1 -13 -8 8.32 1.36
-13 14 -8 8.97 1.38
14 0 8 -0.14 0.3
-14 14 -8 0.43 0.87
-14 0 8 0.15 1.02
-14 0 -8 -0.08 0.76
-14 0 8 -0.27 0.76
14 0 8 0.67 0.55
14 -14 8 -0.12 0.86
0 14 8 0.25 0.59
0 14 8 0.22 0.59
14 -14 8 -0.1 0.56
0 -14 -8 -0.01 0.86
-14 14 -8 0.33 0.72
14 0 -8 0.43 0.95
-14 14 8 0.63 0.73
-14 14 8 -0.02 0.79
14 -14 -8 -0.29 0.73
-14 0 -8 -0.15 0.91
0 -14 8 -0.05 0.76
-14 14 8 0.61 0.74
0 14 -8 0.1 0.55
-7 15 -8 6.32 0.89
-7 -8 8 8.82 1.35
-7 15 -8 4.02 1.01
-8 15 8 4.4 0.92
7 8 8 6.69 0.82
8 -15 8 7.72 0.89
-7 -8 8 6.31 1.32
15 -8 -8 6.13 1.26
8 -15 8 8.87 1.45
-15 7 8 7.82 1.52
-15 7 8 8.34 1.03
-15 7 8 5.32 1.02
8 7 -8 8.07 1.33
7 8 8 7.95 1.07
7 8 8 4.18 0.96
-8 -7 -8 5.75 1.23
-8 15 8 7.67 1.17
8 7 8 6.82 0.79
-15 8 8 8.38 1.06
7 -15 8 7.22 0.86
-8 -7 8 8.72 1.41
-8 15 -8 4.19 0.83
-7 -8 -8 4.44 1.14
15 -8 8 3.89 0.87
15 -7 -8 4.29 1.11
-15 7 -8 5.13 1.1
-15 8 8 6.86 1.02
8 7 8 7.08 1.03
7 -15 8 6.16 1.26
-8 -7 8 6.09 1.2
7 8 -8 6.04 1.23
-15 7 -8 4.65 0.89
15 -8 8 5.5 0.85
-8 15 -8 5.27 1.07
-7 15 8 6.93 1.16
8 7 8 5.01 1
-7 15 8 5.18 0.89
6 9 8 3.67 0.7
-15 6 8 4.15 0.8
-9 15 8 3.92 0.94
-9 15 8 2.95 0.78
9 6 -8 2.4 1.06
-6 15 -8 2.49 0.59
9 -15 8 4.83 1.24
9 -15 8 3.03 0.71
-9 -6 -8 3.54 1.19
-6 15 -8 1.77 0.7
15 -9 -8 3.61 1.15
-15 6 8 4.31 0.94
-6 -9 8 3.05 1.16
6 9 8 2.61 0.66
-15 6 8 3.92 1.26
-6 -9 8 3.47 1.11
6 9 8 1.59 0.81
9 6 8 3.89 0.67
-9 15 -8 4.65 0.84
-15 6 -8 4.14 0.88
-15 9 8 3.96 0.93
-15 9 8 6.07 0.96
6 9 -8 4.64 1.19
15 -9 8 3.11 0.6
6 -15 8 3.75 1.14
9 6 8 5.48 0.75
-6 15 8 4.35 0.81
9 6 8 2 0.79
-9 15 -8 2.8 0.97
-9 -6 8 2.89 1.04
6 -15 8 3.72 0.72
-9 -6 8 4.62 1.2
15 -6 -8 4.84 1.19
-15 9 8 4.97 1
-6 -9 -8 5.19 1.2
-15 6 -8 2.62 1
15 -9 8 2.99 0.86
15 -6 -8 3.08 1.17
-15 5 8 6.98 1.09
-10 15 8 7.95 1.15
10 -15 8 9.16 1.14
-15 5 8 8.51 1.58
10 5 -8 6.3 1.31
5 10 8 8.92 1.15
-5 -10 8 8.62 1.32
5 10 8 6.42 0.86
5 10 8 4.26 0.96
15 -10 -8 8.96 1.44
-10 -5 -8 6.79 1.26
10 -15 8 10.83 1.49
-5 -10 8 5.88 1.3
5 -15 8 3.74 1.08
-10 -5 8 4.29 1.05
15 -5 -8 3.52 1.09
15 -10 8 4.37 0.92
-5 15 8 5.4 0.86
-15 5 -8 5.6 0.99
5 10 -8 6.79 1.27
-10 -5 8 3.95 1.11
10 5 8 5.63 0.75
10 5 8 4.29 0.73
-15 10 8 6.65 1
-15 10 8 6.27 1.09
-15 10 8 2.93 0.72
-10 15 -8 5.62 0.9
-5 -10 -8 5.69 1.18
-10 15 -8 4.58 1.09
15 -5 -8 4.35 1.1
-15 5 -8 4.82 1.17
15 -10 8 4.64 0.68
5 -15 8 4.76 0.77
4 11 8 7.94 1.27
-15 4 8 6.16 1.4
-11 15 8 5.37 0.92
4 11 8 8.16 1.18
-11 15 8 8.41 1.47
-15 4 8 8.68 1.14
11 -15 8 7.85 1.35
-15 11 -8 8.09 1.04
-4 -11 8 8.16 1.26
11 -15 8 7.29 0.9
15 -11 -8 4.5 1.18
4 11 8 6.25 0.85
-4 -11 8 9.47 1.71
-11 -4 -8 6.41 1.01
11 4 -8 7.76 1.34
15 -11 8 10.03 1.13
-15 4 -8 10.9 1.57
11 4 8 10.89 1.21
-15 11 8 9.04 1.44
11 4 8 9.82 1.17
4 -15 8 7.38 1.12
4 11 -8 10.04 1.65
-11 15 -8 11.07 1.35
15 -4 -8 9.72 1.67
15 -11 8 8.17 1.37
-4 15 8 8.81 1.29
-15 4 -8 10.16 1.73
-4 -11 -8 10.34 1.63
-15 11 8 9.57 1.38
-11 -4 8 7.36 1.22
-15 11 8 12.02 1.69
-11 15 -8 11.65 1.51
15 -12 -8 9.69 1.69
3 12 8 9.47 1.31
-3 -12 8 11.13 1.76
-12 15 8 10.15 1.56
-12 15 8 7.76 1.35
-15 3 8 11.55 1.26
-15 12 -8 8.31 1.43
3 12 8 10.04 1.19
12 3 -8 9.99 1.75
3 -15 -8 8.13 1.31
3 12 8 9.53 1.25
12 -15 8 11.01 1.76
-15 3 8 8.01 1.51
-12 -3 -8 10.82 1.47
-15 12 -8 11.87 1.43
12 -15 8 9.45 1.2
-3 -12 8 9.73 1.59
15 -12 8 4.86 0.75
-15 12 8 5.52 0.94
-3 15 8 4.69 0.7
15 -12 8 4.84 0.93
-15 3 -8 6.48 1.32
-3 -12 -8 4.53 1.08
12 3 8 6.27 0.81
15 -3 -8 4.62 1.1
-12 15 -8 7.16 0.94
12 3 8 6.24 0.78
-15 12 8 8.08 1.17
-12 15 -8 5.49 1.08
-15 12 8 5.23 0.98
3 12 -8 4.04 1.02
-3 15 8 5.68 0.85
-13 -2 -8 4.13 0.91
13 -15 8 3.06 1.08
13 -15 8 2.88 0.68
-15 2 8 3.15 0.85
2 13 8 3.09 0.73
-13 -2 -8 1.81 0.94
-2 -13 8 3.15 0.92
-15 2 8 3.15 1.29
2 -15 -8 3.16 0.87
-13 15 8 2.91 0.91
-15 13 -8 4.34 0.9
-2 -13 8 3.08 0.97
2 13 8 3.01 0.74
13 2 -8 1.98 1.1
-15 13 -8 1.7 0.88
15 -13 -8 3.08 1.06
-13 15 8 2.58 0.8
2 13 8 2.23 0.68
15 -2 8 2.54 0.53
-15 13 8 6.88 1.03
2 13 -8 5.37 1
-15 13 8 7.48 1.13
-2 15 8 7.02 1.14
15 -2 -8 4.56 1.14
-15 2 -8 5.33 1.19
-13 15 -8 8.69 1.26
15 -13 8 7.1 1
-2 -13 -8 8.17 1.27
13 2 8 5.71 0.81
-2 15 8 6.46 0.83
-13 -2 8 7.47 1.22
13 2 8 5.1 0.73
-15 13 8 5.07 1
-13 15 -8 5.4 1.08
-15 2 -8 8.86 1.32
-15 1 8 2.3 0.8
14 -15 8 1.74 0.62
-14 15 8 2.03 0.81
-14 15 8 2.09 0.88
-15 14 -8 1.71 0.88
-14 -1 -8 1.36 0.85
1 -15 -8 1.84 0.78
-15 1 8 1.12 0.96
1 14 8 2.91 0.67
14 1 -8 1.36 0.96
14 -15 8 1.78 0.89
-14 15 8 1.52 0.75
15 -1 8 1.32 0.61
-1 -14 8 1.92 0.88
1 14 8 2.65 0.72
-15 14 -8 1.83 0.81
-14 -1 -8 2.09 0.76
15 -14 -8 0.22 0.64
15 -1 -8 1.99 0.98
15 -14 8 2.81 0.66
-14 15 -8 2.4 0.9
-15 14 8 2 0.86
-15 1 -8 2.93 0.81
-1 -14 -8 2.5 0.95
-14 -1 8 3.09 0.81
-1 15 8 2.56 0.71
-15 14 8 1.05 0.75
-15 14 8 2.22 0.87
-1 15 8 3.29 0.68
-14 15 -8 3.88 0.82
14 1 8 2.38 0.63
-15 1 -8 1.84 1.06
0 -15 -8 0.58 0.75
-15 15 8 -0.13 0.69
-15 15 -8 0.88 0.78
15 0 8 0.62 0.53
-15 15 8 0.39 0.73
0 -15 -8 -0.1 0.59
15 -15 8 0.31 0.57
15 0 -8 -0.03 0.77
-15 0 8 0.87 0.68
-15 0 -8 0.26 0.69
-15 0 -8 0.21 0.69
0 15 8 0.4 0.62
0 15 8 0.11 0.57
-15 15 -8 0.58 0.74
-15 15 8 0 0.73
0 -15 8 0.67 0.77
-8 -8 -8 4.62 1.15
-8 16 8 6.34 0.88
8 8 8 3.95 0.78
8 -16 8 5.38 1.3
-8 16 -8 4.02 0.8
8 8 8 4.17 0.71
16 -8 -8 3.19 1.08
-16 8 8 5.32 0.96
-8 -8 8 6.55 1.18
8 8 -8 5.05 1.23
-8 16 8 4.49 0.91
-16 8 8 3.89 0.86
-8 -8 8 4.62 1.27
-16 8 -8 2.4 0.77
8 -16 8 4.38 0.76
-9 -7 -8 15.38 1.88
-16 7 8 14.74 1.53
7 9 8 15.4 1.55
-9 16 8 11.73 1.62
7 9 8 11.45 1.37
-9 16 8 15.31 1.56
9 7 -8 16.82 1.96
-7 -9 8 14.3 1.91
-7 16 -8 12.78 1.41
9 -16 8 15.81 1.92
9 -16 8 14.39 1.44
-16 7 8 14.27 1.7
-7 -9 8 18.69 2.07
16 -9 -8 13.8 1.93
-16 7 8 16.86 2.22
-7 -9 -8 19.9 2.13
-7 16 8 16.42 1.69
9 7 8 20.12 1.74
-16 9 8 19.48 1.84
9 7 8 18.75 1.64
-7 16 8 20.98 1.72
-16 9 8 17.65 1.93
16 -7 -8 18.62 2.1
16 -7 -8 21.23 2.3
-9 -7 8 18.76 2.07
7 9 -8 20.74 2.17
7 -16 8 20.42 1.67
-9 16 -8 16.65 1.7
-9 16 -8 15.81 1.81
-9 -7 8 21.08 2.14
7 -16 8 21.11 2.17
-16 7 -8 16.46 1.79
10 -16 8 4.23 1.19
-10 -6 -8 2.6 0.96
-16 6 8 3.94 1.38
10 -16 8 3.59 0.72
-16 6 8 3.28 0.89
-6 -10 8 4.45 1.11
10 6 -8 4.64 1.2
-6 -10 8 5.31 1.3
6 10 8 3.78 0.7
6 10 8 3.25 0.74
16 -10 -8 2.95 1.09
-10 16 8 2.75 0.92
10 6 8 2.72 0.72
-10 16 -8 2.17 0.9
16 -6 -8 2.72 1.02
-10 -6 8 2.3 0.95
-16 6 -8 2.09 0.95
-16 10 8 2.73 0.84
-6 -10 -8 3.09 1.04
-6 16 8 1.18 0.43
6 -16 8 2.57 0.91
-16 6 -8 2.26 0.79
10 6 8 3.36 0.67
-6 16 8 4.57 0.77
6 -16 8 2.37 0.64
16 -10 8 2.69 0.58
-10 16 -8 3.92 0.79
6 10 -8 1.98 1.02
16 -6 -8 2.11 0.92
-16 10 8 3.09 0.79
-16 10 8 5.14 1.09
-10 -6 8 3.37 0.99
-16 11 -8 4.55 0.86
11 -16 8 6 1.28
-5 -11 8 6.83 1.23
-11 16 8 5.9 1.07
11 -16 8 6.16 0.81
5 11 8 3.99 0.77
-11 -5 -8 4.35 0.82
-11 16 8 3.12 0.71
5 11 8 7.48 0.96
5 11 8 5.44 0.75
-5 -11 8 3.57 1.17
16 -11 -8 4.89 1.22
-16 5 8 6.57 1.05
11 5 -8 6.07 1.28
-16 5 8 2.96 1.25
-5 -11 -8 6.78 1.23
16 -11 8 8.11 0.98
-16 11 8 8 1.28
5 11 -8 6.45 1.26
-16 5 -8 8.99 1.38
5 -16 8 4.95 0.81
-11 -5 8 5.03 1.06
-16 5 -8 7.79 1.35
11 5 8 7.13 1.08
-11 16 -8 4.48 1.07
11 5 8 7.85 1.17
-11 16 -8 8.73 1.21
-5 16 8 7.95 1.21
-16 11 8 11.09 1.65
16 -5 -8 7.96 1.32
-5 16 8 7.47 0.97
4 12 8 5.87 0.87
16 -12 -8 4.42 1.13
12 -16 8 8.95 1.16
-16 12 -8 6.12 0.99
-12 -4 -8 5.8 0.97
-4 -12 8 9.8 1.3
-16 4 8 10 1.13
-12 16 8 8.05 1.16
-16 4 8 6.74 1.46
12 -16 8 8.52 1.35
4 12 8 8.08 0.91
-4 -12 8 6.3 1.27
4 12 8 7.88 1.2
-12 16 8 6.06 0.94
12 4 -8 7.98 1.36
-16 12 8 7.47 1.3
-16 12 8 8.98 1.28
4 -16 8 6.78 1.03
16 -12 8 7.86 1.05
16 -4 -8 7.09 1.27
-4 16 8 6.73 1.04
-16 12 8 7.29 1.02
12 4 8 7.22 0.9
12 4 8 8.07 1.08
-12 16 -8 6.8 0.98
-16 4 -8 8.99 1.07
-12 16 -8 6.76 1.18
-16 4 -8 6.27 1.25
-4 16 8 6.62 1.17
-4 -12 -8 5.48 1.12
-13 -3 -8 2.1 0.77
13 -16 8 1.62 0.91
-16 3 8 0.3 1
-13 16 8 3.01 0.91
16 -13 -8 0.53 0.74
3 13 8 1.41 0.65
-3 -13 8 0.48 0.65
-3 -13 8 2.12 0.92
-16 3 8 1.62 0.79
13 3 -8 0.97 0.96
3 13 8 1.6 0.7
-13 16 8 1.8 0.74
13 -16 8 1.32 0.63
16 -3 8 1.15 0.53
3 13 8 1.32 0.65
-16 13 -8 1.17 0.77
-3 -13 -8 0.76 0.9
3 13 -8 0.58 0.57
16 -3 -8 0.24 0.89
-13 -3 8 -0.49 0.45
13 3 8 0.66 0.61
13 3 8 0.29 0.5
-13 -3 8 0.21 0.52
-3 -13 -8 0.02 0.56
-16 3 -8 1.57 0.77
-13 16 -8 0.48 0.81
-16 3 -8 0.79 0.91
3 -16 8 -0.31 0.44
-3 16 8 0.78 0.57
-16 13 8 0.53 0.74
-3 16 8 1.36 0.7
-16 13 8 1.03 0.78
16 -13 8 0.3 0.55
-13 16 -8 1.12 0.75
-16 13 8 0.87 0.91
-16 14 -8 2.02 0.79
2 14 8 3.18 0.76
14 -16 8 -0.04 0.73
-14 16 8 1.72 0.83
-14 -2 -8 3.14 0.82
-2 -14 8 3.07 0.95
-16 2 8 2.57 0.77
14 2 -8 1.27 0.82
-16 2 8 -0.03 0.71
2 14 8 2.05 0.66
-14 16 8 1.27 0.56
16 -2 8 2.26 0.6
-14 16 8 1.81 0.72
14 -16 8 1.99 0.63
16 -14 8 3.8 0.67
16 -2 -8 2.51 0.84
-16 2 -8 5.7 0.89
-2 -14 -8 4.52 0.92
-2 -14 -8 2.18 0.77
-16 14 8 4.43 1.08
-14 16 -8 6.48 0.92
-16 14 8 3.67 0.83
14 2 8 3.3 0.68
-16 2 -8 1.75 0.91
-16 14 8 3.26 0.88
-2 16 8 4.3 0.8
-14 -2 8 3.95 0.85
-2 16 8 3.11 0.68
16 -1 8 0.24 0.52
1 15 8 -0.3 0.59
-16 15 -8 0.17 0.71
-15 16 8 -0.11 0.73
15 1 -8 0.01 0.7
-16 1 8 0.53 0.64
1 15 8 -0.38 0.57
-15 16 8 0.17 0.71
-15 16 8 0.14 0.65
-1 -15 8 -0.11 0.75
15 -16 8 0.23 0.53
1 -16 -8 -0.27 0.62
-15 -1 -8 0.34 0.65
-1 -15 -8 -0.1 0.78
-16 15 8 0.19 0.76
-15 16 -8 -0.04 0.72
-16 1 -8 -0.01 0.84
-1 -15 -8 0.36 0.8
15 1 8 0.41 0.54
-15 16 -8 -0.12 0.6
16 -15 8 0.01 0.55
-16 1 -8 0.05 0.66
-16 15 8 0.25 0.65
-16 15 8 -0.31 0.76
-1 16 8 0.49 0.6
1 -16 8 -0.32 0.37
16 -1 -8 -0.06 0.6
-15 -1 8 0.59 0.67
-1 16 8 0.12 0.63
0 -16 -8 -0.77 0.57
16 0 8 -0.33 0.5
0 -16 8 0.07 0.61
-16 16 8 -0.37 0.64
0 16 8 0.24 0.63
-16 0 -8 0.55 0.69
-16 16 -8 -0.04 0.7
16 -16 8 0.29 0.53
0 16 8 0.01 0.55
-16 0 8 0.51 0.63
-16 16 8 0.94 0.74
-16 16 8 0.29 0.73
8 9 8 5.64 0.76
-8 -9 8 5.63 1.12
-8 17 -8 4.44 0.77
-9 17 8 3.75 0.86
-9 17 8 5.03 0.84
17 -9 -8 4.55 1.13
-17 8 8 6.4 0.96
8 9 8 6.34 0.84
-17 9 -8 3.46 0.73
-9 -8 -8 5.18 1.09
9 -17 8 5.46 1.12
9 -17 8 5.73 0.77
-17 8 8 6.75 0.88
-8 -9 8 6.22 1.2
9 8 -8 3.56 1.02
-17 9 8 6.85 1.07
9 8 8 5.51 0.81
17 -8 -8 5.3 1.18
8 -17 8 3.55 0.96
-8 17 8 6.33 0.86
-9 -8 8 4.14 1
-9 17 -8 5.79 0.83
17 -8 -8 2.47 0.96
-8 17 8 4.56 0.88
9 8 8 6.53 0.8
-8 -9 -8 6.02 1.15
-17 9 8 7.75 1.13
-17 8 -8 4.39 0.84
-17 9 8 8.22 0.97
8 9 -8 4.6 1.08
10 -17 8 1.55 0.96
7 10 8 1.26 0.57
-7 -10 8 1.92 0.96
10 -17 8 1.92 0.62
-17 7 8 2.03 0.8
17 -10 -8 1.44 0.93
-7 -10 8 2.56 1.01
-7 17 -8 1.4 0.5
-10 17 8 2 0.83
-10 -7 -8 0.15 0.66
7 10 8 1.34 0.65
10 7 -8 0.87 0.88
7 -17 8 0.22 0.66
7 -17 8 0.77 0.56
-17 10 8 2.08 0.95
-7 -10 -8 0.66 0.9
-7 17 8 1.31 0.65
-17 10 8 1.38 0.86
-7 17 8 0.22 0.43
-10 -7 8 0.4 0.65
-17 10 8 1.24 0.74
10 7 8 1.18 0.64
17 -7 -8 0.28 0.85
-17 7 -8 1.18 0.68
7 10 -8 0.67 0.84
-10 17 -8 1.15 0.62
10 7 8 1.18 0.59
-10 -7 8 1.06 0.87
11 -17 8 19.27 1.64
-17 6 8 18.88 1.86
6 11 8 17.31 1.62
-6 -11 8 19.58 2.04
11 -17 8 17.38 1.93
-11 17 8 21.8 1.94
-6 -11 8 20.45 2.06
11 6 -8 17.34 2.03
-17 6 8 16.32 2.11
6 11 8 20.18 1.7
6 -17 8 20.02 1.64
-17 11 8 21.48 1.83
-6 17 8 19.29 1.62
17 -11 8 15.77 1.51
-6 17 8 22.32 1.75
-17 11 8 19.79 1.81
11 6 8 21.71 1.72
-17 6 -8 22 1.84
11 6 8 19.74 1.67
-11 17 -8 20.66 1.74
-6 -11 -8 18.12 1.95
17 -6 -8 19.09 2.03
-11 -6 8 16.91 1.91
-5 -12 8 0.51 0.69
-17 12 -8 -0.19 0.69
-12 17 8 0.17 0.4
-17 5 8 0.43 0.73
-12 -5 -8 0.08 0.62
5 12 8 0.81 0.65
-12 -5 -8 0.49 0.73
12 -17 8 0.64 0.75
5 12 8 0.86 0.63
-17 5 8 0.08 0.86
17 -12 -8 0.48 0.66
-5 -12 8 1.06 0.9
17 -5 8 0.54 0.41
12 -17 8 0.69 0.63
-12 17 8 0.3 0.79
12 5 -8 0.66 0.79
5 12 8 0.49 0.67
-17 5 -8 -0.1 0.59
17 -12 8 1.44 0.51
5 12 -8 0.08 0.58
-12 -5 8 0.38 0.74
-17 12 8 2.27 1.02
-12 17 -8 1.67 0.72
5 -17 8 0.61 0.55
-17 12 8 2.05 0.75
17 -5 -8 0.29 0.7
-5 -12 -8 0.04 0.56
-17 12 8 0.18 0.36
-5 17 8 1.41 0.62
12 5 8 1.4 0.6
-12 17 -8 0.2 0.56
-17 5 -8 1.45 0.74
-5 -12 -8 -0.01 0.56
12 5 8 0.71 0.59
-5 17 8 1.24 0.55
-13 17 8 2.88 0.64
-13 -4 -8 3.84 0.79
-4 -13 8 4.55 1.02
-13 -4 -8 3.03 0.8
-17 13 -8 5.24 0.87
13 -17 8 5.13 0.71
4 13 8 5.21 0.82
17 -4 8 3.53 0.64
4 13 8 4.81 0.75
13 4 8 3.73 0.67
-17 13 8 3.63 0.82
13 4 8 2.47 0.56
4 -17 8 2.69 0.62
-13 -4 8 2.59 0.75
-13 17 -8 4.83 0.83
17 -13 8 3.61 0.6
-17 13 8 4.24 0.81
-4 17 8 4.71 0.78
-4 17 8 3 0.63
14 -17 8 14.66 1.33
17 -3 8 11.24 1.24
-17 14 -8 11.94 1.49
-17 3 8 13.76 1.49
-14 17 8 13.67 1.6
-14 -3 -8 13.39 1.45
-3 -14 8 13.85 1.63
3 14 8 13.16 1.34
3 14 8 12.52 1.38
-14 17 8 10.12 1.34
-14 17 -8 13.17 1.49
-17 3 -8 13.15 1.5
-17 14 8 13.52 1.53
-3 17 8 13.41 1.42
-17 14 8 13.14 1.47
14 3 8 12.24 1.3
17 -14 8 12.97 1.27
-17 14 8 17.99 1.85
-3 17 8 12.1 1.3
-3 -14 -8 12.67 1.68
-17 2 8 2.67 0.67
2 15 8 3.18 0.69
-15 17 8 1.63 0.56
-15 -2 -8 2.85 0.76
15 -17 8 2.75 0.62
17 -2 8 2.37 0.6
-15 17 8 3.25 0.89
-15 17 8 2.57 0.75
-2 -15 8 3.45 0.9
2 15 8 2 0.66
-17 15 -8 2.7 0.79
-17 15 8 2.07 0.78
-2 17 8 1.88 0.58
-15 -2 8 2.06 0.7
-15 17 -8 2.94 0.79
-17 15 8 1.69 0.69
-17 2 -8 2.24 0.74
-17 15 8 2.42 0.84
17 -15 8 1.83 0.56
-2 -15 -8 2.33 0.81
-2 17 8 1.71 0.67
15 2 8 1.79 0.58
17 -1 8 1.24 0.51
-17 16 -8 1.43 0.7
-16 17 8 0.69 0.67
-16 17 8 1.46 0.74
-1 -16 8 1.19 0.71
-16 17 8 0.61 0.68
16 -17 8 1.15 0.56
-16 -1 -8 1.05 0.64
1 16 8 0.79 0.56
-17 1 8 0.91 0.67
1 16 8 1.13 0.64
17 -16 8 2.46 0.59
-17 16 8 2.93 0.86
-17 16 8 3 0.79
-1 17 8 2.76 0.61
-1 17 8 3.21 0.71
-17 1 -8 3.79 0.74
-16 -1 8 2.44 0.71
-1 -16 -8 2.64 0.75
-17 16 8 2.52 0.76
16 1 8 2.45 0.58
17 -17 8 2.7 0.57
-17 17 -8 4.11 0.76
0 17 8 2.43 0.6
0 17 8 2.36 0.67
-17 17 8 3.49 0.8
17 0 8 2.02 0.53
-17 0 8 2.56 0.69
-17 17 8 2.22 0.71
-17 17 8 2.51 0.73
-17 0 -8 3.1 0.67
-9 -9 -8 2.68 0.86
9 9 8 1.76 0.66
9 9 8 2.55 0.61
-9 18 8 2.6 0.78
9 -18 8 2.89 0.63
-18 9 -8 1.39 0.64
-9 -9 8 3.42 0.97
18 -9 -8 -0.02 0.91
-18 9 8 2.87 0.71
-9 18 -8 1.93 0.63
-18 9 8 2.29 0.87
-18 9 8 2.68 0.88
-10 -8 -8 22.9 2.19
8 10 8 24.36 1.93
8 10 8 22.22 1.88
-8 -10 8 24.43 2.22
-10 18 8 21.76 2.06
-18 8 8 26.72 2.2
10 -18 8 24.03 1.88
-18 8 -8 20.86 2
10 8 8 24.01 1.96
-18 10 8 27.34 2.27
-18 10 8 24.41 2.17
8 -18 8 25.93 1.92
-8 -10 -8 24.27 2.22
-10 -8 8 26.98 2.24
10 8 8 24.15 1.93
-10 18 -8 20.75 1.92
-8 18 8 24.11 2.01
-18 10 8 25.44 2.06
11 -18 8 6.62 0.79
-7 -11 8 7.4 1.15
-11 -7 -8 5.9 1.03
7 11 8 8.38 0.96
7 11 8 5.23 0.82
-11 18 8 6.24 1.04
-18 7 8 8.27 1.05
7 11 8 5.22 0.8
-7 18 8 7.13 1.14
-11 18 -8 6.87 1.08
11 7 8 6.69 1.05
-18 11 8 9.72 1.6
-11 -7 8 7.18 1.3
-18 7 -8 7.41 1.23
-7 -11 -8 7.87 1.45
7 -18 8 7.87 1
11 7 8 7.39 1.08
-18 11 8 8 1.28
-18 6 8 4.5 0.82
6 12 8 5.53 0.83
-18 12 -8 3.61 0.68
-12 18 8 5.16 0.96
-12 -6 -8 4.58 0.93
6 12 8 5.47 0.78
12 -18 8 7.47 0.82
-18 12 8 9.37 1.56
6 -18 8 6.21 0.91
-12 -6 8 3.57 0.88
12 6 8 4.26 0.7
-6 18 8 5 0.79
-18 6 -8 7.58 0.94
-12 18 -8 6.71 0.86
12 6 8 5.46 0.75
-13 -5 -8 5.24 0.78
-18 13 -8 6.09 0.89
13 -18 8 6.97 1
5 13 8 6.8 1.12
-5 -13 8 9.25 1.41
-13 -5 -8 5.52 0.93
-18 5 8 7.03 1.12
18 -5 8 5.18 0.72
5 13 8 6.64 0.83
-13 18 8 9.1 1.36
-18 13 8 7.8 0.96
5 -18 8 6.69 0.97
-13 18 -8 9.23 1.01
13 5 8 7.03 1
-5 -13 -8 7.87 1.43
-5 18 8 7.32 0.98
-13 -5 8 5.11 0.94
-18 5 -8 7.7 1.26
-5 18 8 5.96 1.06
-18 13 8 9.91 1.58
-18 14 -8 1.24 0.66
18 -4 8 1.31 0.53
-18 4 8 2.22 0.65
-14 -4 -8 1.88 0.69
4 14 8 1.55 0.63
14 -18 8 1.45 0.57
4 14 8 1.28 0.61
-4 -14 8 2.21 0.85
-14 18 8 2.07 0.79
4 -18 8 1.04 0.49
18 -14 8 1.18 0.38
-18 4 -8 1.78 0.69
-18 14 8 1.37 0.94
14 4 8 1.5 0.53
-4 18 8 1.39 0.54
-18 14 8 1.69 0.67
-14 18 -8 1.78 0.69
-4 -14 -8 1.9 0.77
-4 18 8 1.09 0.59
-18 14 8 2.02 0.74
-15 -3 -8 4.17 0.76
3 15 8 5.93 0.96
3 15 8 5.3 0.74
-18 3 8 6.81 1.03
18 -3 8 3.87 0.66
15 -18 8 6.17 0.91
-3 -15 8 7.71 1.27
-18 15 -8 5.14 0.8
-18 15 8 3.82 0.8
-15 18 -8 6.32 0.88
15 3 8 3.02 0.59
-3 18 8 4.13 0.64
-18 3 -8 5.24 0.77
-3 18 8 3.66 0.69
-3 -15 -8 3.89 0.81
18 -15 8 2.87 0.51
-18 15 8 3.79 0.81
-18 15 8 3.64 0.89
-16 18 8 1.08 0.74
-16 18 8 0.23 0.4
16 -18 8 0.3 0.51
2 16 8 0.66 0.59
-18 16 -8 0.16 0.62
-16 -2 -8 0.56 0.58
-16 18 8 0.08 0.36
-18 2 8 1.43 0.62
-2 -16 8 0.97 0.69
2 16 8 0.47 0.53
18 -2 8 0.1 0.44
-18 16 8 0.13 0.71
-16 18 -8 1.51 0.66
-18 2 -8 0.84 0.57
-16 -2 8 0.41 0.51
-2 18 8 0.56 0.61
-2 18 8 0.24 0.5
16 2 8 0.2 0.46
-18 16 8 0.64 0.63
-18 16 8 0.78 0.63
-2 -16 -8 1.03 0.66
18 -16 8 0.27 0.42
-18 17 -8 -0.43 0.54
-17 18 8 -0.18 0.52
18 -1 8 -0.06 0.43
-17 -1 -8 0.35 0.57
1 17 8 0.68 0.53
1 17 8 -0.18 0.56
-17 18 8 0.15 0.38
17 -18 8 0.32 0.47
-18 1 8 1.04 0.59
-1 -17 8 -0.53 0.43
-17 18 8 0.4 0.65
-1 18 8 -0.13 0.44
-18 1 -8 0.47 0.56
18 -17 8 0.55 0.4
-1 18 8 0.22 0.55
-18 17 8 -0.02 0.64
-18 17 8 -0.16 0.61
17 1 8 0.12 0.42
-17 18 -8 0.18 0.58
-18 17 8 0.24 0.63
-17 -1 8 0.71 0.55
-18 18 8 0.1 0.39
-18 18 -8 0.53 0.54
0 18 8 0.53 0.48
-18 18 8 -0.23 0.56
0 18 8 0.47 0.52
-18 0 -8 0.04 0.52
18 -18 8 0.15 0.33
-18 0 8 0.55 0.49
18 0 8 0.11 0.42
-18 18 8 0.62 0.59
10 -19 8 8.51 1.02
9 10 8 8.67 1.09
-10 19 8 8.26 1.23
-19 9 8 9.99 1.38
9 10 8 8.73 1.16
-19 9 8 7.33 1.07
-9 -10 8 11.14 1.42
-10 -9 -8 9.15 1.39
-9 -10 -8 9.45 1.43
-9 19 8 6.91 1.01
-19 10 8 10.43 1.46
-19 10 8 8.71 1.16
10 9 8 8.13 1.06
9 -19 8 9.14 1.04
-19 9 -8 7.07 1.07
-10 -9 8 10.34 1.41
10 9 8 8.11 1.1
-10 19 -8 7.07 1.05
-19 10 8 8.96 1.34
-19 8 8 9.4 1.37
11 -19 8 7.91 0.99
-19 8 8 9.23 1.27
-11 19 8 8.07 1.28
8 11 8 8.15 1.11
-11 -8 -8 7.48 1.31
8 11 8 7.47 1.11
-8 -11 8 10.11 1.42
-11 19 -8 8.58 1.17
-11 -8 8 10 1.34
8 -19 8 12.93 1.12
-19 11 8 9.51 1.32
11 8 8 9.43 1.13
-19 11 8 10.72 1.25
-19 11 8 13.38 1.61
-8 19 8 10.8 1.21
11 8 8 10.28 1.15
-19 8 -8 8.48 1.17
-8 -11 -8 10.9 1.45
12 -19 8 2.68 0.58
19 -7 8 0.56 0.36
-7 -12 8 3.22 0.87
-19 7 8 3.15 0.78
-19 7 8 2.24 0.72
-12 19 8 1.6 0.75
7 12 8 1.83 0.59
-12 -7 -8 1.44 0.72
7 12 8 3.05 0.68
-19 12 8 8.4 1.45
-19 12 8 6.16 0.82
12 7 8 4.14 0.66
-12 -7 8 4.56 0.86
12 7 8 5.76 0.8
-7 19 8 6.26 1.03
-19 7 -8 3.78 0.73
-12 19 -8 3.86 0.73
7 -19 8 4.4 0.64
-7 -12 -8 6.41 0.95
6 13 8 0.7 0.55
-6 -13 8 1.06 0.82
-19 13 -8 -0.02 0.46
-13 19 8 0.16 0.8
19 -6 8 0.16 0.43
-19 6 8 0.61 0.62
13 -19 8 0.68 0.5
6 13 8 0.5 0.58
-19 6 8 0.53 0.65
-13 -6 -8 0.26 0.62
-19 6 -8 0.95 0.6
-6 19 8 1.1 0.59
13 6 8 0.4 0.51
-13 -6 8 0.44 0.63
-6 -13 -8 2.04 0.73
6 -19 8 1.1 0.49
-13 19 -8 0.91 0.61
-19 13 8 0.49 0.63
13 6 8 0.27 0.33
-19 13 8 2.23 0.96
-19 5 8 4.91 0.78
19 -5 8 2.12 0.52
-19 5 8 2.83 0.69
14 -19 8 3.61 0.58
5 14 8 2.62 0.64
-19 14 -8 2.38 0.63
5 14 8 3.18 0.63
-19 14 8 6.63 1.08
-5 19 8 4.19 0.71
-19 5 -8 4.9 0.75
5 -19 8 3.98 0.62
14 5 8 3.97 0.63
-19 14 8 6.79 0.87
-5 -14 -8 5.02 0.84
-15 -4 -8 2.69 0.62
4 15 8 3.09 0.63
19 -4 8 2.56 0.54
-15 19 8 3.4 0.83
15 -19 8 3.47 0.56
4 15 8 2.92 0.62
-4 -15 8 3.98 0.8
-19 15 -8 3.69 0.7
-19 4 8 3.65 0.69
-15 19 -8 4.24 0.74
-4 19 8 3.66 0.66
-19 15 8 4.35 0.79
-4 19 8 2.75 0.55
-4 -15 -8 3.55 0.76
-19 15 8 3.42 0.85
15 4 8 2.02 0.53
-19 4 -8 3.43 0.66
3 16 8 1.04 0.54
-19 16 -8 0.9 0.56
-16 -3 -8 0.53 0.53
-3 -16 8 0.85 0.64
3 16 8 1.04 0.53
-19 3 8 1.45 0.58
16 -19 8 0.47 0.47
-16 19 8 1.11 0.72
19 -3 8 0.54 0.44
-19 16 8 1.01 0.64
-19 16 8 0.91 0.69
-3 19 8 1.13 0.47
-16 19 -8 1.21 0.6
-19 16 8 0.33 0.52
-19 3 -8 1.04 0.56
-3 19 8 1.25 0.58
-3 -16 -8 0.92 0.63
16 3 8 0.9 0.43
2 17 8 2.96 0.56
-19 17 -8 3.7 0.65
-17 -2 -8 3.11 0.61
-2 -17 8 1.82 0.56
-17 19 8 2.44 0.71
19 -2 8 2.42 0.48
2 17 8 2.68 0.61
17 -19 8 2.17 0.5
-19 2 8 3.72 0.62
-19 17 8 1.77 0.58
-2 19 8 1.92 0.54
-19 2 -8 2.42 0.57
-2 19 8 1.9 0.52
-19 17 8 2.2 0.59
-19 17 8 1.79 0.65
17 2 8 1.64 0.44
-17 19 -8 2.86 0.61
-19 18 -8 2.68 0.63
1 18 8 2.56 0.57
-18 -1 -8 2.07 0.55
1 18 8 2.04 0.51
-18 19 8 1.98 0.63
-19 1 8 2.61 0.55
19 -1 8 1.8 0.44
-19 18 8 3.39 0.65
-1 19 8 3.51 0.58
18 1 8 2.66 0.49
-19 1 -8 4.32 0.66
-19 18 8 3.11 0.64
-1 19 8 2.82 0.55
-18 19 -8 4.91 0.7
19 0 8 0.03 0.28
0 19 8 0.12 0.28
0 19 8 -0.27 0.43
-19 0 -8 0.41 0.52
-19 19 8 0.12 0.55
-19 0 8 -0.13 0.25
-19 19 -8 0.12 0.54
10 -20 8 14.55 1.24
-10 -10 -8 14.32 1.55
10 10 8 13.24 1.28
-20 10 8 13.45 1.46
-10 -10 8 14.89 1.52
-20 10 8 14.84 1.59
-11 20 8 2.44 0.7
-11 -9 -8 2.79 0.79
11 -20 8 2.98 0.52
-20 9 8 2.88 0.77
-20 9 8 2.62 0.7
-9 -11 8 4.1 0.83
9 11 8 2.41 0.61
9 11 8 2.83 0.59
-11 20 -8 2.53 0.56
-20 9 -8 3.09 0.61
-20 11 8 2.7 0.68
11 9 8 3.63 0.59
-20 8 8 4.35 0.76
8 12 8 3.55 0.63
-12 20 8 4.54 0.84
-20 8 8 3.61 0.78
-12 -8 -8 3.21 0.76
12 -20 8 5.13 0.63
-8 -12 8 5.62 0.91
8 12 8 3.4 0.67
-12 20 -8 3.92 0.69
12 8 8 4.61 0.62
-20 12 8 6.25 0.97
-12 -8 8 3.27 0.72
-20 8 -8 3.24 0.65
-8 -12 -8 5.97 1.14
7 13 8 6.51 0.96
13 -20 8 6.77 0.85
-13 20 8 7.43 1.23
-13 -7 -8 5.69 0.9
7 13 8 7.39 0.97
-20 7 8 6.9 1.08
-7 -13 8 8.72 1.24
-20 7 8 7.53 1.11
-13 20 -8 6.29 1
-20 7 -8 5.54 0.95
-7 -13 -8 7.75 1.18
7 -20 8 6.28 0.84
13 7 8 6.18 0.85
-13 -7 8 4.71 0.96
-20 13 8 7.33 1.06
-20 13 8 9.19 1.29
-20 6 8 3.36 0.72
-6 -14 8 3.85 0.82
-14 20 8 6.8 1.01
6 14 8 3.98 0.65
14 -20 8 4.17 0.6
6 14 8 4.26 0.64
-20 6 8 5.24 0.76
-6 -14 -8 5.94 0.82
-6 20 8 4.96 0.7
-20 6 -8 4.62 0.73
-14 20 -8 3.98 0.67
-20 14 8 5 0.72
-20 14 8 7.38 1.04
14 6 8 3.81 0.59
6 -20 8 5.18 0.77
5 15 8 1.96 0.51
-20 5 8 1.87 0.58
-5 -15 8 2.18 0.66
20 -5 8 0.82 0.36
15 -20 8 1.48 0.46
-15 20 8 2.07 0.77
-20 5 8 0.77 0.45
5 15 8 1.17 0.5
-20 15 -8 1.14 0.5
-15 20 -8 1.69 0.58
-5 20 8 1.26 0.53
-20 15 8 1.22 0.57
5 -20 8 0.98 0.38
-20 15 8 1.72 0.77
15 5 8 1.26 0.45
-5 -15 -8 1.72 0.64
-20 5 -8 1.72 0.57
4 16 8 -0.26 0.44
4 16 8 -0.2 0.47
-4 -16 8 0.69 0.57
16 -20 8 0.17 0.41
-16 20 8 0.03 0.67
20 -4 8 -0.06 0.3
-20 16 -8 -0.38 0.49
-20 4 8 0.15 0.46
16 4 8 -0.11 0.4
-20 4 -8 0.28 0.53
-20 16 8 -0.05 0.66
-4 20 8 0.09 0.47
-4 -16 -8 0.43 0.57
-20 16 8 0.34 0.55
-16 20 -8 0.04 0.52
-3 -17 8 1.87 0.52
17 -20 8 2.56 0.46
3 17 8 3.1 0.55
3 17 8 2.87 0.54
-20 3 8 2.47 0.57
-20 17 -8 2.64 0.57
-17 20 8 4.29 0.81
-20 17 8 1.08 0.59
-20 17 8 1.13 0.59
-20 3 -8 1.83 0.55
17 3 8 1.42 0.43
-17 20 -8 1.42 0.54
-3 20 8 1.59 0.47
-20 18 -8 0.32 0.51
2 18 8 -0.02 0.28
-20 2 8 0.9 0.47
20 -2 8 -0.04 0.38
2 18 8 0.67 0.45
-18 20 8 0.7 0.61
-18 20 -8 0.63 0.56
-20 18 8 0.3 0.51
-20 2 -8 0.56 0.53
-20 18 8 0.1 0.41
18 2 8 0.48 0.35
11 -21 8 1.26 0.43
-21 10 8 1.3 0.66
-21 10 8 0.74 0.54
-11 21 8 0.19 0.37
-10 -11 8 1.05 0.62
-11 -10 -8 1.16 0.67
10 11 8 1.03 0.46
10 11 8 0.53 0.48
-21 11 8 1.49 0.54
-10 -11 -8 2.54 0.68
11 10 8 2.05 0.51
-11 -10 8 2.63 0.69
11 10 8 1.61 0.45
10 -21 8 1.78 0.46
-21 11 8 2.2 0.72
-12 21 8 3.18 0.67
-12 -9 -8 4.54 0.7
9 12 8 5.39 0.82
12 -21 8 6.32 0.73
9 12 8 4.66 0.61
-21 9 8 4.56 0.78
-21 9 8 4.96 0.66
12 9 8 4.17 0.56
-12 -9 8 4.28 0.73
9 -21 8 5.96 0.71
-21 9 -8 3.05 0.58
8 13 8 1.56 0.5
13 -21 8 0.86 0.39
-13 21 8 0.73 0.62
8 13 8 1.06 0.44
-13 -8 -8 0.54 0.58
-21 8 8 1.02 0.61
-8 -13 8 1.46 0.63
-21 8 8 0.89 0.57
-21 8 -8 -0.31 0.48
-8 -13 -8 0.25 0.6
13 8 8 -0.15 0.41
-21 13 8 0.29 0.71
-13 -8 8 0.19 0.54
8 -21 8 0.24 0.41
-13 21 -8 0.18 0.38
14 -21 8 0.63 0.38
7 14 8 0.02 0.43
-21 7 8 0.87 0.56
-14 21 8 0.55 0.67
7 14 8 0.13 0.46
-7 -14 8 0.59 0.6
-21 7 8 0.73 0.51
-21 14 8 0.85 0.51
-21 7 -8 0.54 0.47
-7 -14 -8 0.74 0.6
7 -21 8 1.15 0.43
-21 14 8 1.21 0.78
14 7 8 1.02 0.44
-14 21 -8 0.59 0.48
-21 6 8 0 0.31
6 15 8 0.64 0.46
15 -21 8 0.87 0.39
6 15 8 0.73 0.43
-21 6 8 1.05 0.51
-6 -15 8 0.96 0.59
-15 21 8 0.68 0.7
-21 15 8 0.11 0.53
-21 15 8 0.96 0.71
6 -21 8 0 0.29
-21 6 -8 0.38 0.54
-6 -15 -8 0.73 0.57
-15 21 -8 0.39 0.47
15 6 8 0.24 0.42
-5 -16 8 0.54 0.57
-16 21 8 0.86 0.7
5 16 8 0.44 0.41
5 16 8 0.37 0.42
16 -21 8 0.26 0.39
-21 5 8 0.95 0.51
-5 -16 -8 0.67 0.54
16 5 8 -0.03 0.38
-16 21 -8 0.86 0.51
-21 5 -8 0.9 0.52
-21 16 8 -0.01 0.64
-21 16 8 0.62 0.55
-21 4 8 1.49 0.54
-21 17 -8 -0.09 0.26
17 -21 8 0.03 0.21
-17 21 8 1.62 0.72
4 17 8 -0.02 0.39
4 17 8 1.64 0.45
-21 17 8 0.09 0.35
-17 21 -8 1.37 0.57
-21 4 -8 1.64 0.55
17 4 8 0.91 0.32
-11 -11 -8 2.97 0.69
11 -22 8 2.9 0.49
11 11 8 2.52 0.49
-11 -11 8 2.45 0.65
-22 11 8 2.96 0.7
11 11 8 2.74 0.52
10 12 8 0.81 0.44
12 -22 8 1.3 0.39
-12 -10 -8 1.13 0.62
-10 -12 8 2.28 0.63
-22 10 8 1.11 0.45
-22 10 8 1.33 0.64
10 12 8 1.51 0.49
-12 -10 8 1.52 0.6
12 10 8 1.7 0.46
12 10 8 1.37 0.47
-10 -12 -8 2.76 0.68
-22 12 8 2.97 0.74
10 -22 8 2.81 0.47
9 13 8 1.65 0.48
9 13 8 1.54 0.48
13 -22 8 1.92 0.42
-22 9 8 1.25 0.55
-9 -13 8 1.71 0.63
-22 9 8 1.19 0.6
13 9 8 2.04 0.47
9 -22 8 2.26 0.45
-22 13 8 2.84 0.76
-9 -13 -8 2.43 0.68
13 9 8 2.15 0.52
8 14 8 0.79 0.39
8 14 8 1.37 0.47
14 -22 8 1.48 0.39
-14 22 8 0.88 0.53
-8 -14 8 1.65 0.65
-22 8 8 0.76 0.5
-22 8 8 1.6 0.59
14 8 8 1.89 0.46
-22 14 8 3.45 0.82
-8 -14 -8 2.99 0.72
8 -22 8 2.22 0.42
0 0 9 -0.14 0.43
0 0 9 0.31 0.65
0 0 -9 0.2 0.66
-1 0 -9 37.7 2.77
1 -1 -9 34.53 2.75
-1 0 -9 37.38 2.78
0 -1 -9 35.07 2.7
0 -1 9 36.44 2.71
1 0 -9 34.98 2.75
1 -1 9 31.65 2.64
1 0 9 31.45 2.65
0 -1 -9 37.69 2.73
0 1 -9 36.4 2.78
1 -1 9 37.19 2.68
1 0 9 36.09 2.72
-1 1 -9 36.44 2.79
-1 1 9 36.64 2.7
-1 1 -9 39.19 2.79
-1 0 9 36.52 2.71
1 -2 -9 0.53 0.71
1 1 9 0.8 0.6
-1 -1 9 0.88 0.66
-2 1 -9 1.14 0.71
-1 2 -9 1.29 0.73
-1 2 -9 0.62 0.69
1 1 -9 0.91 0.67
2 -1 9 1.25 0.72
1 -2 9 0.26 0.59
-2 1 9 1.02 0.69
-1 -1 -9 1.38 0.69
2 -1 9 0.5 0.63
1 -2 9 1.16 0.7
2 -1 -9 0.76 0.7
-2 1 -9 0.51 0.71
-1 2 9 0.01 0.41
-1 -1 -9 1.07 0.73
-2 0 9 4.94 0.86
-2 0 -9 3.66 0.88
2 -2 9 3.45 0.78
0 -2 -9 3.6 0.83
2 0 -9 3.89 0.79
2 -2 9 2.89 0.75
0 -2 -9 4.04 0.79
-2 2 -9 4.83 0.9
2 0 9 2.56 0.71
0 2 9 2.98 0.7
-2 2 -9 3.81 0.84
-2 0 -9 4.19 0.81
-2 2 9 4.36 0.83
0 -2 9 5.51 0.9
2 -2 -9 3.38 0.83
0 2 -9 4.24 0.91
1 -3 -9 30.33 2.44
-3 2 -9 33.36 2.45
-1 -2 9 33.34 2.45
-3 1 9 32.56 2.42
-3 2 -9 33 2.51
-1 3 -9 32.72 2.46
2 -3 9 29.93 2.42
3 -1 9 30.58 2.41
3 -2 -9 30.84 2.49
-1 3 -9 29.47 2.42
1 2 9 26.64 2.35
2 -3 9 30.8 2.43
2 1 -9 32.71 2.48
-2 -1 -9 32.8 2.43
-2 -1 -9 29.82 2.37
-1 -2 -9 36.97 2.71
3 -2 9 33.79 2.66
-3 1 -9 35.16 2.7
3 -1 -9 35.59 2.72
1 -3 9 32.19 2.61
3 -2 9 34.26 2.66
1 2 -9 37.55 2.73
2 -3 -9 36.64 2.74
-3 2 9 35.77 2.66
1 -3 9 35.28 2.68
-2 3 -9 33.51 2.67
-3 1 -9 37.24 2.69
-2 -1 9 36.9 2.69
2 1 9 30.74 2.61
-2 3 -9 36.32 2.77
0 3 9 8.94 1.17
3 -3 9 10.95 1.29
3 0 9 10.28 1.25
-3 3 -9 11.7 1.43
3 -3 9 10.14 1.27
0 3 -9 12.2 1.42
3 -3 -9 11.31 1.39
0 -3 9 11.37 1.32
-3 0 -9 9.54 1.24
-3 3 -9 11.26 1.34
-3 3 9 10.88 1.27
0 -3 -9 11.38 1.32
-3 0 -9 11.88 1.33
3 0 -9 12 1.36
-3 0 9 11.69 1.33
-4 2 9 0.51 0.62
-2 -2 9 1.25 0.74
2 2 -9 0.59 0.68
-4 2 -9 0.74 0.72
2 2 9 1.37 0.69
-2 -2 -9 1.21 0.64
4 -2 9 1.11 0.65
2 -4 -9 0.34 0.73
2 -4 9 0.48 0.71
-2 4 -9 1.16 0.79
-2 4 -9 0.19 0.64
2 -4 9 0.76 0.68
-4 2 -9 0.84 0.72
4 -2 -9 0.81 0.7
3 -4 9 19.3 1.72
1 -4 -9 17.5 1.66
-1 4 -9 19.87 1.75
-3 -1 -9 20.31 1.74
-4 3 -9 19.23 1.81
3 -4 9 19.95 1.75
-1 -3 9 18.67 1.67
4 -1 9 20.54 1.67
-4 1 9 18.83 1.71
3 1 -9 18.32 1.68
1 3 9 16.92 1.64
4 -3 -9 17.6 1.78
-1 4 -9 17.08 1.71
-4 3 -9 21.07 1.8
4 -1 -9 16.41 1.58
-3 4 -9 14.51 1.58
-1 -3 -9 17.23 1.54
1 -4 9 15.95 1.52
-4 1 -9 18.09 1.65
-3 4 -9 17.31 1.62
-3 -1 9 17.68 1.61
1 3 -9 18.71 1.6
3 -4 -9 16.22 1.67
1 -4 9 17.22 1.61
-4 3 9 14.51 1.5
3 1 9 16.67 1.5
4 -3 9 19.33 1.62
-1 4 9 13.19 1.42
-4 1 -9 14.93 1.54
-4 0 -9 7.53 1.08
0 -4 -9 7.38 1.15
4 -4 9 7.24 1.11
-4 0 9 6.93 1.19
0 4 9 4.62 0.86
4 -4 9 7.21 0.99
-4 4 -9 6.1 1.01
0 -4 9 6.45 1.14
4 -4 -9 6.68 1.14
-4 4 -9 7.31 1.16
4 0 9 7.4 1.04
0 4 -9 7.46 1.14
3 -5 9 7.69 1.2
-2 5 -9 6.74 1.19
-5 2 9 7.03 1.13
-5 3 -9 8.57 1.16
5 -3 -9 7.22 1.17
3 2 -9 8.16 1.15
-2 5 -9 9.31 1.34
2 3 9 7.35 1.13
2 -5 -9 7.07 1.09
-5 3 -9 8.62 1.28
5 -2 9 9.25 1.2
-2 -3 9 6.76 1.16
3 -5 9 8.03 1.21
-3 -2 -9 8.27 1.21
-5 2 -9 9.34 1.27
-3 -2 9 8.57 1.27
3 -5 -9 8.22 1.33
-3 5 -9 6.81 1.17
-5 2 -9 8.96 1.23
-2 -3 -9 8.22 1.19
5 -2 -9 7.75 1.19
-5 3 9 6.87 1.11
2 3 -9 8.29 1.29
2 -5 9 8.68 1.26
3 2 9 8.02 1.18
5 -3 9 9.08 1.22
-3 5 -9 8.87 1.34
2 -5 9 7.88 1.22
4 -5 9 2.19 0.77
-5 4 -9 2.05 0.79
-1 -4 9 4.04 0.86
5 -4 -9 2.25 0.84
-1 5 -9 1.57 0.69
-5 1 9 2.86 0.83
5 -1 9 3.76 0.85
1 4 9 2.19 0.74
-5 4 -9 2.92 0.85
1 -5 -9 2.41 0.77
4 -5 9 2.97 0.82
-4 -1 -9 2.5 0.75
4 1 -9 3.39 0.84
-1 5 -9 3.98 0.94
-5 1 -9 -0.02 0.36
4 -5 -9 0.55 0.78
1 -5 9 0.79 0.75
-5 4 9 0.3 0.58
-4 5 -9 0.93 0.82
1 4 -9 0.86 0.77
1 -5 9 0.71 0.63
-1 -4 -9 0.81 0.63
-4 -1 9 0.61 0.76
5 -1 -9 1.22 0.79
-5 1 -9 0.71 0.69
4 1 9 0.68 0.69
5 -4 9 0.5 0.72
-4 5 -9 1.16 0.71
5 0 9 74.7 4.99
5 -5 -9 68.88 5.03
5 0 -9 66.47 4.98
-5 0 9 78.35 5.04
-5 0 -9 73.11 5.04
-5 5 -9 73.45 5.06
0 5 -9 73.64 5.02
5 -5 9 81.14 5.04
0 -5 9 71.21 5.01
-5 5 -9 59.44 5
5 -5 9 68.87 4.97
0 -5 -9 65.61 4.98
3 3 9 0.61 0.73
-3 -3 -9 0.08 0.66
3 -6 9 -0.69 0.71
-6 3 -9 -0.02 0.71
6 -3 9 0.3 0.67
3 -6 9 -0.39 0.73
6 -3 -9 0.64 0.79
-6 3 -9 0.44 0.67
-3 -3 9 -0.1 0.73
3 3 -9 0.09 0.66
-3 6 -9 -0.32 0.58
-3 6 -9 0.18 0.72
6 -3 -9 0.09 0.44
-6 3 9 0.3 0.66
3 -6 -9 0.19 0.53
2 -6 -9 35.31 2.77
-2 -4 9 36.73 2.75
2 4 9 34.62 2.71
-4 -2 -9 35.74 2.72
-6 4 -9 35.53 2.8
4 -6 9 37.09 2.75
4 -6 9 34.69 2.73
-6 2 9 31.92 2.73
-2 6 -9 38.08 2.77
4 2 -9 38.07 2.8
-6 4 -9 32.73 2.76
6 -2 9 36.61 2.72
6 -4 -9 35.48 2.79
-2 -4 -9 36.33 2.84
-4 -2 9 39.18 2.86
6 -2 -9 37.18 2.87
-4 6 -9 30.11 2.78
6 -4 9 38.58 2.8
4 2 9 40 2.81
2 -6 9 35.65 2.84
-6 2 -9 39.2 2.84
4 -6 -9 34.04 2.84
2 -6 9 36.34 2.85
2 4 -9 36 2.8
-4 6 -9 39.07 2.87
1 -6 -9 18.88 1.77
6 -1 9 21.69 1.82
-6 5 -9 20.43 1.85
-5 -1 -9 19.97 1.78
6 -5 -9 19.61 1.91
-6 5 -9 16.53 1.8
-1 -5 9 19.55 1.83
-6 1 9 20.46 1.86
5 1 -9 20.58 1.81
5 -6 9 22.88 1.88
-1 6 -9 21.29 1.83
5 -6 9 18.99 1.81
1 -6 9 19.24 1.8
1 5 -9 19.35 1.76
6 -1 -9 14.52 1.62
-5 6 -9 20.47 1.81
-6 1 -9 19.19 1.73
5 1 9 19.53 1.74
-1 -5 -9 19.13 1.77
-5 -1 9 21.02 1.86
6 -5 9 21.73 1.8
5 -6 -9 17.52 1.84
-5 6 -9 15.63 1.73
6 -1 -9 18.38 1.74
0 -6 9 24.83 2.08
-6 6 -9 25.97 2.1
6 -6 -9 23.64 2.12
6 0 -9 18.83 1.99
-6 0 -9 24.58 2.08
-6 6 -9 19.4 2
6 0 9 24.16 2.02
0 -6 -9 23.11 2.05
6 0 -9 23.31 2.03
0 6 -9 25.36 2.04
-6 0 9 22.87 2.07
6 -6 9 25.23 2.04
-7 4 -9 12.55 1.55
-3 -4 9 14.94 1.58
7 -3 9 15.41 1.5
4 -7 9 14.02 1.55
4 3 -9 14.98 1.61
7 -4 -9 13.64 1.62
-7 4 -9 13.04 1.54
-4 -3 -9 15.07 1.52
3 -7 -9 13.61 1.5
-3 7 -9 15.75 1.56
3 4 9 14.57 1.54
4 -7 9 13.13 1.53
-7 3 9 11.12 1.47
4 3 -9 11.15 1.34
-4 7 -9 12.33 1.38
4 3 9 11.29 1.36
-7 3 -9 11 1.33
3 4 -9 10.21 1.44
7 -3 -9 10.33 1.44
3 -7 9 10.67 1.41
-7 3 -9 7.92 1.25
7 -4 9 10.41 1.3
-4 -3 9 11.39 1.42
-7 4 9 8.04 1.22
3 -7 9 9.76 1.37
7 -3 -9 8.55 1.28
-3 -4 -9 9.45 1.33
-2 7 -9 15.31 1.65
2 -7 -9 13.82 1.53
7 -2 9 14.57 1.47
-7 5 -9 13 1.53
5 2 -9 14.63 1.58
-2 -5 9 15.48 1.59
-7 5 -9 10.45 1.5
5 -7 9 15.03 1.53
-5 -2 -9 14.07 1.54
7 -5 -9 13.76 1.62
5 -7 9 12.69 1.52
5 2 -9 11.68 1.41
-7 2 9 13.05 1.57
-5 -2 9 14.4 1.62
2 -7 9 13.65 1.61
-2 -5 -9 13.16 1.44
2 5 -9 14.77 1.6
5 2 9 14.21 1.49
7 -5 9 13.66 1.4
5 -7 -9 12.99 1.58
7 -2 -9 11.17 1.52
-5 7 -9 14.88 1.7
-7 2 -9 13.34 1.49
2 -7 9 13.61 1.52
7 -2 -9 13.88 1.59
-1 7 -9 53.24 3.6
-1 -6 9 49.98 3.58
-7 1 9 45.67 3.55
7 -6 -9 49.39 3.64
7 -1 9 48.97 3.46
-6 -1 -9 50.66 3.59
6 1 -9 44.54 3.52
-7 6 -9 48.24 3.62
6 1 -9 50.11 3.58
-7 6 -9 39.62 3.52
6 -7 9 53.12 3.56
1 -7 -9 45.24 3.52
6 -7 9 43.09 3.43
1 6 -9 48.23 3.46
-6 7 -9 48.45 3.44
7 -1 -9 46.8 3.45
-7 1 -9 45.07 3.43
6 -7 -9 43.61 3.45
7 -6 9 45.97 3.33
1 -7 9 44.78 3.42
-1 -6 -9 44.43 3.39
6 1 9 46.15 3.37
-6 -1 9 46.13 3.43
7 -1 -9 39.73 3.37
0 7 -9 9.56 1.24
-7 7 -9 7.62 1.32
7 0 -9 10.65 1.32
-7 0 -9 8.59 1.23
7 0 9 7.2 1.21
0 -7 -9 6.73 1.25
0 -7 9 7.27 1.35
7 -7 9 7.42 1.25
-7 0 9 5.81 1.09
7 -7 -9 7.55 1.23
7 0 -9 6.59 1.11
8 -4 9 7.68 1.22
4 4 -9 6.02 1.04
4 -8 9 7.41 1.13
-8 4 -9 4.93 0.97
4 -8 9 7.42 1.27
-4 -4 -9 6.8 1.25
4 4 -9 9.19 1.21
8 -4 -9 7.16 1.28
4 4 9 7.67 1.28
-4 -4 9 7.94 1.33
4 -8 -9 6.6 1.2
-8 4 -9 7.22 1.33
-8 3 9 13.75 1.57
-5 -3 -9 15.7 1.66
-8 5 -9 14.95 1.67
-3 8 -9 16.64 1.73
5 3 -9 15.58 1.61
3 -8 -9 15.63 1.61
8 -5 -9 14.93 1.77
5 -8 9 14.64 1.6
5 -8 9 15.7 1.62
-8 5 -9 12.95 1.63
8 -3 9 15.83 1.57
5 3 -9 13.47 1.59
-3 -5 9 16.69 1.69
8 -5 -9 14.38 1.66
3 5 -9 17.17 1.64
8 -3 -9 13.58 1.68
-5 -3 9 18.58 1.78
-8 3 -9 15.96 1.67
8 -3 -9 15.95 1.74
-5 8 -9 18.77 1.84
8 -5 9 16.47 1.63
5 3 9 16.59 1.65
-3 -5 -9 16.26 1.68
3 -8 9 15.55 1.7
3 -8 9 16.39 1.78
3 5 -9 12.8 1.5
-8 2 9 8.24 1.35
8 -2 9 8.58 1.26
6 2 -9 5.54 1.04
-2 -6 9 8.13 1.38
8 -6 -9 6.66 1.26
-8 6 -9 7.54 1.31
6 2 -9 9.45 1.41
2 -8 -9 6.59 1.27
-2 8 -9 8.88 1.46
6 -8 9 9.41 1.34
8 -6 -9 10.06 1.31
-6 -2 -9 9.17 1.25
6 -8 -9 8.46 1.48
8 -2 -9 8.64 1.38
-6 8 -9 10.45 1.55
-6 -2 9 10.28 1.5
-2 -6 -9 8.36 1.31
-8 2 -9 9 1.32
8 -2 -9 11.35 1.35
2 -8 9 8.86 1.5
8 -6 9 9.92 1.32
2 -8 9 8.11 1.32
6 2 9 9.34 1.33
2 6 -9 8.64 1.32
1 -8 -9 15.12 1.67
7 1 -9 15.38 1.77
-8 1 9 17.35 1.85
-8 7 -9 16.56 1.9
8 -1 9 18.88 1.75
-1 -7 9 17.39 1.84
8 -7 -9 16.54 1.94
-1 8 -9 18.64 1.88
7 -8 9 20.42 1.77
-7 -1 -9 17.62 1.74
7 1 -9 19.27 1.81
1 -8 9 17.64 1.85
1 7 -9 16.75 1.71
-8 1 -9 17.8 1.84
8 -1 -9 17.79 1.84
8 -7 9 18.1 1.66
-7 -1 9 17.95 1.87
7 -8 -9 17.78 1.93
8 -1 -9 20.31 1.9
7 1 9 17.67 1.74
-7 8 -9 17.77 1.93
-1 -7 -9 15.6 1.74
8 -8 9 62.25 4.31
8 0 9 61.56 4.31
-8 8 -9 61.08 4.4
-8 0 -9 56.95 4.34
-8 0 9 58.45 4.41
8 0 -9 57.27 4.37
0 -8 -9 57.24 4.32
0 -8 9 56.82 4.36
8 0 -9 65.79 4.43
8 -8 -9 58.82 4.44
-5 -4 -9 7.08 1.31
9 -5 -9 4.06 1.03
-5 -4 -9 7.97 1.34
-9 5 -9 5.31 1.07
-4 -5 9 7.71 1.17
5 4 -9 5.63 1.03
9 -5 -9 6.57 1.17
5 -9 9 6.98 1.11
-4 9 -9 6.89 1.11
-9 5 -9 4.73 0.97
9 -4 9 7.08 1.21
5 -9 9 4.17 0.89
5 4 -9 3.98 0.99
9 -4 -9 9.02 1.5
4 5 -9 8.54 1.22
-5 -4 9 9.55 1.47
4 -9 9 8.6 1.36
-9 4 -9 9.65 1.48
5 4 9 9.78 1.36
9 -5 9 9.81 1.33
4 5 -9 7.99 1.43
-4 -5 -9 9.67 1.4
4 -9 9 10.24 1.53
5 -9 -9 6.17 1.15
-4 -5 -9 10.24 1.41
-5 9 -9 9.43 1.54
9 -4 -9 6.15 1.16
9 -6 -9 8.53 1.56
-3 -6 9 10.8 1.52
6 3 -9 10.73 1.48
-6 -3 -9 11.72 1.5
-9 6 -9 8.06 1.41
9 -3 9 10.46 1.3
-9 6 -9 8.57 1.46
-6 -3 -9 11.34 1.51
6 -9 9 11.36 1.51
6 3 -9 10.3 1.46
9 -6 -9 9.9 1.68
-3 9 -9 11.19 1.56
3 6 -9 8.75 1.35
6 3 9 11.4 1.43
3 6 -9 9.1 1.35
9 -3 -9 11.5 1.54
9 -3 -9 10.92 1.6
3 -9 9 10.25 1.6
-6 9 -9 10.76 1.63
-6 -3 9 12.27 1.64
-9 3 -9 10.84 1.44
3 -9 9 8.86 1.41
-3 -6 -9 12.01 1.5
9 -6 9 10.52 1.37
-3 -6 -9 10.32 1.48
9 -7 -9 17.79 1.86
-7 -2 -9 20.15 1.88
-9 2 9 18.69 1.86
9 -2 9 19.99 1.83
-9 7 -9 14.47 1.8
9 -7 -9 20.37 2.09
7 2 -9 18.45 1.88
-2 9 -9 21.9 1.97
-9 7 -9 17.46 1.83
-7 -2 -9 18.27 1.82
7 2 -9 18.23 1.87
-2 -7 9 18.31 1.96
2 -9 -9 18.49 1.81
7 -9 9 20.34 1.9
7 -9 -9 20.73 2.05
-7 9 -9 21.13 2.1
-7 -2 9 22.34 2.1
-2 -7 -9 18.49 1.9
9 -7 9 20.88 1.89
7 2 9 21.67 1.94
2 7 -9 17.84 1.9
2 -9 9 16.79 1.86
-2 -7 -9 21.6 1.99
-9 2 -9 19.68 1.95
9 -2 -9 23.32 2.09
2 -9 9 21.29 2.05
9 -2 -9 20.53 2.01
-8 -1 -9 3.23 0.94
8 1 -9 3.38 0.99
-1 -8 9 3.77 1.03
-9 1 9 2.86 0.99
1 -9 -9 1.72 0.82
9 -1 9 3.9 0.92
-8 -1 -9 4.24 0.95
9 -8 -9 3.27 1.14
8 -9 9 3.46 0.9
9 -8 -9 1.88 0.81
8 1 -9 2.51 0.9
-9 8 -9 2.87 1.02
-8 9 9 0.94 0.57
-8 9 9 0.92 0.53
-1 9 -9 1.83 0.84
9 -1 -9 7.76 1.29
-8 9 -9 6.82 1.18
-9 1 -9 7.06 1.17
8 1 9 6.17 1.05
1 -9 9 6.16 1.19
-9 1 -9 5.54 1.02
9 -1 -9 4.73 1.05
9 -8 9 8.96 1.18
-8 -1 9 4.69 1.11
8 -9 -9 6.2 1.25
1 8 -9 4.56 0.98
-1 -8 -9 5.42 1.01
-9 9 9 0.37 0.66
0 9 -9 0.11 0.51
-9 0 9 -0.1 0.57
0 -9 9 0.68 0.89
-9 0 -9 0.8 0.83
-9 0 9 0.89 0.96
-9 9 9 0.81 0.67
0 -9 -9 0.81 0.82
9 0 -9 0.66 0.89
9 0 9 0.57 0.78
-9 9 -9 0.42 0.45
-9 0 -9 0.35 0.74
9 0 -9 0.51 0.93
0 9 -9 0.49 0.78
-9 9 -9 0.29 0.82
9 0 9 0.28 0.35
0 9 9 0.12 0.32
-9 0 -9 0.91 0.63
9 -9 9 0.01 0.43
9 -9 -9 0.37 0.6
9 -9 9 0.58 0.85
9 -9 -9 -0.12 0.95
-10 5 -9 0.22 0.48
-5 -5 9 -0.67 0.54
5 -10 9 0.09 0.56
5 -10 9 1.74 0.87
10 -5 9 2.41 0.87
-5 10 -9 1.75 0.9
-5 -5 -9 1.33 0.88
-5 10 -9 0.55 0.42
10 -5 -9 1.06 0.89
-5 10 9 0.06 0.4
-5 -5 9 1.74 0.99
-10 5 -9 0.73 0.84
-5 -5 -9 1.82 0.84
-10 5 9 0.02 0.37
5 5 -9 0.51 0.73
10 -5 -9 1.03 0.91
5 5 -9 1.33 0.87
5 5 9 0.82 0.35
10 -5 9 0.27 0.29
-10 6 -9 3.33 0.95
6 -10 9 5.46 1.1
-4 10 -9 5.54 1.13
-4 -6 9 7.08 1.23
10 -6 -9 5.64 1.23
10 -4 9 6.94 1.1
-6 -4 -9 4.36 1.06
10 -6 -9 3.59 1.03
6 4 -9 4.57 1.08
6 4 -9 4.53 1.02
-10 6 -9 3.82 1.02
-6 -4 -9 3.88 0.99
10 -4 -9 2.99 1.03
-10 6 9 1.07 0.47
4 6 -9 3.14 0.93
4 -10 9 2.62 0.95
10 -6 9 4.51 0.98
-6 -4 9 4.1 1.16
4 6 -9 1.91 0.86
-4 -6 -9 2.06 0.86
-6 10 -9 3.84 1.09
-6 10 -9 1.8 0.57
-10 4 -9 2.02 0.97
-4 -6 -9 4.53 1.04
4 -10 9 3.07 0.93
6 4 9 1.05 0.39
10 -4 -9 2.2 0.91
-7 -3 -9 2.2 0.9
10 -3 9 1.4 0.77
-7 10 9 1.13 0.6
7 -10 9 1.52 0.91
-3 -7 9 0.01 0.69
3 -10 -9 1.79 0.81
7 3 -9 1.48 0.91
10 -7 -9 2.08 0.96
-10 7 -9 1.16 0.86
10 -3 9 0.19 0.29
10 -7 -9 1.06 0.97
-7 -3 -9 2.92 0.98
-10 7 -9 1.09 0.8
-3 10 -9 1.83 0.94
-3 -7 9 3.03 1.06
7 3 -9 1.6 0.9
-7 10 9 1.02 0.53
-10 3 9 0.89 0.61
3 7 -9 3 0.94
-10 3 -9 4.07 1.02
-7 -3 9 4.54 1.15
10 -3 -9 2.11 0.94
-3 -7 -9 3.72 0.99
7 3 9 4.92 1.07
10 -3 -9 3.62 1.05
10 -7 9 3.13 0.87
3 7 -9 1.75 0.86
-7 10 -9 4.74 1.14
3 -10 9 3.06 1
7 3 9 1.85 0.47
-3 -7 -9 2.3 0.87
3 -10 9 4.29 1.08
10 -7 9 2.37 0.5
-7 10 -9 2.34 0.66
10 -8 -9 10.53 1.61
-8 10 9 9.16 1.46
8 2 -9 11.55 1.59
10 -2 9 12.09 1.5
2 -10 -9 9.88 1.47
-2 10 -9 9.99 1.52
-8 10 9 8.75 1.27
8 -10 9 13.33 1.56
8 2 -9 10.07 1.47
-8 -2 -9 10.69 1.57
-8 -2 -9 10.55 1.47
8 -10 9 6.94 0.96
-10 8 -9 10.34 1.6
-2 -8 9 10.72 1.64
-10 2 9 8.33 1.29
2 8 -9 11.5 1.5
10 -8 9 11.45 1.19
2 8 -9 11.48 1.59
-8 10 -9 13.27 1.53
8 2 9 13.84 1.59
-8 10 -9 15.14 1.79
10 -2 -9 14.88 1.72
-2 -8 -9 12.49 1.64
-10 8 9 11.33 1.43
10 -2 -9 15.64 1.86
-10 2 -9 14.71 1.66
2 -10 9 14.98 1.78
10 -8 9 14.93 1.6
8 -10 -9 14.47 1.81
8 2 9 11.98 1.18
-8 -2 9 14.39 1.78
-10 2 -9 12.11 1.39
1 9 9 4.92 0.87
-9 10 9 5.22 1.02
-9 -1 -9 7.76 1.18
-10 9 -9 5.5 1.09
9 1 -9 8.14 1.22
9 -10 9 6.69 0.78
9 1 -9 7.43 1.23
-9 -1 -9 6.83 1.13
10 -9 -9 3.26 1.03
-9 -1 -9 6.89 1.15
10 -1 9 7.39 1.13
1 -10 -9 7.22 1.19
10 -1 9 5.64 0.85
-9 10 9 5.55 0.94
9 -10 9 6.69 1.09
-1 -9 9 5.68 1.17
-1 10 -9 4.22 0.97
9 -10 -9 1.9 1.06
10 -9 9 3.13 0.62
-10 9 9 3.21 0.88
10 -9 9 6.51 1.11
-9 10 -9 5.22 0.9
-9 10 -9 5.34 1.1
-9 -1 9 4.83 1.19
-10 1 -9 4.45 1.07
-10 9 9 4.32 0.91
10 -1 -9 5.91 1.16
1 9 -9 3.07 0.93
-10 1 -9 2.84 0.81
-1 -9 -9 4.48 1.04
9 1 9 5.22 1.06
10 -1 -9 4.55 1.05
1 -10 9 5.7 1.19
-10 1 -9 3.98 0.81
9 1 9 4.64 0.64
-10 0 9 7.06 1
0 10 9 7.71 1.09
10 0 -9 9.76 1.4
10 -10 9 8.4 1.46
10 -10 -9 7.01 1.27
10 -10 9 8.48 1.06
10 0 -9 8.99 1.57
-10 10 -9 8.48 1.25
-10 0 -9 7.53 1.21
-10 10 9 7 1.16
-10 10 -9 7.18 1.24
10 0 9 8.67 0.99
-10 0 -9 9.25 1.31
-10 0 -9 8.74 1.44
10 0 9 8.86 1.43
0 10 -9 5.37 1.07
0 -10 9 8.81 1.34
-10 10 9 7.83 1.36
0 -10 -9 8.79 1.31
-10 0 9 9.51 1.49
11 -5 9 2.1 0.51
-5 -6 9 4.5 1.19
-6 -5 -9 4.65 1.14
-5 11 -9 2.68 0.69
-11 5 9 2.37 0.72
-6 -5 -9 1.75 0.89
-11 6 -9 1.94 0.91
6 5 -9 2.28 0.98
5 6 9 1.95 0.53
-5 -6 9 1.47 0.92
-5 11 -9 3 1.01
6 -11 9 3.55 1.04
-6 11 9 2.65 0.63
-6 11 9 0.97 0.52
11 -6 -9 2.94 1.02
11 -6 -9 5.17 1.27
11 -5 9 3.59 0.98
6 5 -9 2.73 0.91
-6 -5 9 2.49 1.05
-6 11 -9 2.95 0.99
11 -5 -9 4.59 1.23
6 5 9 2.4 0.57
-6 11 -9 3.23 0.75
11 -5 -9 2.53 0.98
-11 5 -9 1.96 0.97
5 6 -9 2.2 0.93
5 -11 9 1.43 0.91
5 6 -9 3.41 0.98
11 -6 9 3.08 0.55
-5 -6 -9 4.92 1.14
-11 6 9 2.03 0.59
-11 6 9 3.01 0.77
-5 -6 -9 2.2 0.95
-6 -5 9 1.95 0.92
11 -6 9 3.39 0.93
-5 11 9 1.33 0.55
-7 -4 -9 0.05 0.88
11 -7 -9 0.96 1.02
7 4 -9 0.81 0.86
-4 -7 9 0.82 1
7 -11 9 0.78 0.97
11 -4 9 0.82 0.44
-4 -7 9 -0.77 0.84
-11 4 9 0 0.73
-11 7 -9 0.57 0.84
11 -4 9 0.65 0.79
-7 -4 -9 0.3 0.97
4 7 9 1.35 0.53
-7 11 9 -0.06 0.31
7 4 -9 0.92 0.94
-11 7 -9 0.34 0.84
11 -7 -9 0.73 0.93
-7 11 9 0.83 0.65
-4 11 -9 0.97 0.49
4 -11 -9 -0.05 0.6
7 -11 9 0.25 0.42
-4 11 -9 1.58 0.94
-7 11 9 0.54 0.76
11 -7 9 1.56 0.52
-7 11 -9 0.37 0.75
-7 -4 9 -0.06 0.69
7 4 9 0.6 0.49
-7 11 -9 2.08 1.01
-4 11 9 0.74 0.49
4 -11 9 0.03 0.57
11 -7 9 1.22 0.82
-4 11 9 0.58 0.49
-4 -7 -9 0.58 0.72
-11 7 9 1.48 0.74
4 7 -9 0.5 0.85
-11 7 9 0.02 0.38
-7 -4 9 0.69 1.01
-4 -7 -9 1.77 0.91
-11 4 -9 1.16 0.89
-11 7 9 2.1 0.78
4 -11 9 0.78 0.88
11 -4 -9 0.24 0.99
4 7 -9 0.66 0.8
11 -4 -9 0.8 0.92
-11 4 -9 1.43 0.59
-8 11 9 6.61 1.11
3 8 9 5.6 0.74
-3 -8 9 4.96 1.1
11 -8 -9 6.4 1.22
-8 11 9 6.05 0.99
-3 11 -9 6.55 1.15
8 -11 9 4.39 0.73
-8 -3 -9 4.6 1.07
-11 8 -9 6.43 1.17
3 -11 -9 3.43 0.91
8 3 -9 6.39 1.16
8 -11 9 7.52 1.24
11 -3 9 8.67 1.21
11 -3 9 6.01 0.85
8 3 -9 5.61 1.09
-11 3 9 6.34 0.99
-3 -8 9 8.21 1.37
-8 -3 -9 7.01 1.2
-11 3 -9 12 1.72
11 -3 -9 14.11 1.87
-11 3 -9 10.99 1.45
-8 11 -9 11.72 1.57
-3 -8 -9 11.4 1.68
-11 8 9 10.99 1.42
-8 11 -9 12.32 1.7
-3 11 9 10.22 1.19
3 -11 9 11.5 1.61
-11 8 9 10.83 1.47
11 -3 -9 9.96 1.67
11 -8 9 10.19 1.18
-8 -3 9 11.39 1.74
3 8 -9 8.47 1.54
3 8 -9 9.58 1.44
3 -11 9 8.85 1.54
11 -8 9 11.89 1.5
8 3 9 10.36 1.13
-11 9 -9 4.84 1.14
2 -11 -9 4.63 1.05
11 -2 9 4.63 0.64
11 -2 9 4.53 1.04
-2 11 -9 2.96 0.94
9 -11 9 6.61 1.22
-9 -2 -9 3.57 0.81
-2 -9 9 5.76 1.28
9 -11 9 5.04 0.71
2 9 9 3.87 0.67
-9 -2 -9 5.23 1.12
-9 11 9 4 0.89
-11 2 9 3.65 0.91
-9 -2 -9 5.17 1.17
9 2 -9 3.67 1.04
2 9 9 2.89 0.75
-9 11 9 4.23 1.01
11 -9 -9 4.16 1.1
9 2 -9 4.61 1.04
-2 -9 9 2.25 0.97
-9 11 -9 2.32 1.04
9 2 9 1.66 0.56
-11 2 -9 2.28 1.06
-9 -2 9 2.86 1.09
11 -2 -9 2.11 1.14
-2 -9 -9 1.7 1.02
9 -11 -9 1.53 0.96
2 9 -9 1.81 0.86
-11 9 9 2.22 0.82
-11 9 9 1.75 0.75
11 -9 9 3.04 0.96
-11 2 -9 1.93 0.77
11 -9 9 1.14 0.55
2 9 -9 1.68 0.8
9 2 9 2.24 1.01
2 -11 9 0.12 0.62
-2 11 9 1.36 0.63
-9 11 -9 2.05 0.76
11 -2 -9 0.86 0.91
2 -11 9 2.23 1.02
-11 9 9 2.21 0.86
-11 10 -9 10 1.41
-10 -1 -9 10.09 1.35
-1 -10 9 10.03 1.66
-10 11 9 9.29 1.4
-1 11 -9 6.5 1.18
10 1 -9 9.87 1.37
-11 1 9 10.03 1.2
11 -1 9 8.22 1.05
1 10 9 9.29 1.25
11 -1 9 10.02 1.53
11 -10 -9 8.94 1.53
-11 10 -9 10.13 1.27
10 -11 9 10.98 1.55
10 -11 9 8.63 1.13
1 10 9 7.71 1.05
-10 11 9 9.32 1.28
1 -11 -9 7.68 1.31
-10 -1 -9 8.86 1.56
10 1 -9 9.01 1.62
-10 -1 -9 9.61 1.51
-1 -10 -9 9 1.35
-10 -1 9 6.74 1.29
-1 11 9 8.65 1.17
11 -10 9 10.56 1.51
-11 10 9 8.61 1.55
1 -11 9 10.07 1.68
-11 10 9 9.26 1.58
-11 1 -9 9.32 1.5
-10 11 -9 10.35 1.38
11 -10 9 8.73 1.11
11 -1 -9 6.88 1.25
-10 11 -9 7.11 1.24
-11 1 -9 8.73 1.31
11 -1 -9 9.58 1.56
10 1 9 8.8 1.53
-11 10 9 6.71 1.13
10 1 9 8.35 1.11
11 -11 9 0.45 0.91
11 0 -9 0.78 0.94
-11 0 -9 0.44 0.9
0 -11 9 0.27 0.77
-11 11 9 1.06 0.79
11 -11 -9 0.8 0.73
-11 0 9 0.15 0.77
-11 0 -9 1.31 0.77
-11 11 -9 0.93 1.04
0 -11 9 0.6 0.96
-11 11 9 1.84 0.98
0 -11 -9 0.76 0.95
11 0 -9 0.49 0.98
-11 11 9 0.54 0.5
0 11 9 0.69 0.52
0 11 9 0.82 0.64
-11 0 -9 1.15 1
11 -11 9 0.76 0.57
0 11 -9 0.09 0.53
11 0 9 1.03 0.95
-11 11 -9 1.12 0.73
0 11 -9 0.03 0.68
11 0 9 0.95 0.56
6 -12 9 0.86 0.48
-12 6 9 3.42 0.82
-12 6 9 2.33 0.82
6 6 -9 0.07 0.66
-6 12 -9 3.33 0.88
6 -12 9 1.53 0.94
12 -6 -9 1.82 0.96
-12 6 -9 1.96 0.95
-6 -6 9 0.76 0.97
-6 12 -9 3.07 1.01
12 -6 9 2.83 0.98
-6 12 9 1.39 0.69
-6 -6 -9 1.06 0.88
-6 -6 9 1.68 1.04
-6 12 9 1.49 0.64
-6 12 9 1.55 0.64
-6 -6 -9 3.65 1.13
12 -6 -9 1.99 1.06
6 6 -9 1.97 0.98
-12 6 -9 0.52 0.42
6 6 9 2.57 0.57
-12 6 9 2.35 0.79
12 -6 9 2.07 0.55
12 -7 -9 8.34 1.47
-5 -7 9 10.41 1.52
-7 -5 -9 9.3 1.39
7 -12 9 9.18 1.34
12 -5 9 7.81 1.2
-5 -7 9 7.63 1.28
7 5 -9 6.82 1.25
5 7 9 6.41 0.82
12 -7 -9 6.81 1.27
12 -5 9 6.97 0.96
-7 12 9 5.36 0.94
-7 12 9 7.63 1.13
-7 -5 -9 7.23 1.29
-12 7 -9 4.73 1.14
-7 12 9 6.52 1.13
-5 12 -9 7.72 1.17
-5 12 -9 5.96 1.16
7 -12 9 6.75 0.87
-12 5 9 7.97 1.12
12 -7 9 8.79 1.46
-12 7 9 6.57 0.93
5 -12 9 5.47 1.16
-5 -7 -9 6.84 1.23
5 7 -9 7.91 1.25
7 5 9 6.29 0.8
12 -5 -9 7.62 1.29
-12 7 9 5.62 1.05
-5 12 9 7.42 1.22
12 -7 9 6.79 1
-7 12 -9 8.56 1.11
-12 5 -9 4.69 1.14
-7 -5 9 6.24 1.27
-12 7 9 7.22 1.01
12 -5 -9 8.54 1.36
-12 5 -9 6.43 1.07
-7 12 -9 6.94 1.18
-7 -5 9 8.32 1.39
-8 12 9 2.03 0.8
-8 -4 -9 1.76 0.95
-12 8 -9 0.6 0.68
8 4 -9 1.15 0.75
12 -8 -9 1.52 1.01
12 -4 9 1.69 0.51
4 8 9 2.76 0.62
-8 -4 -9 3.15 1.1
-12 4 9 2.61 0.88
-8 12 9 2.01 0.67
-4 -8 9 3.29 1.14
-8 -4 -9 1.32 0.55
-8 12 9 1.98 0.94
8 4 -9 3.65 1.15
12 -4 9 2.99 1.01
-4 12 -9 1.68 0.57
-4 -8 9 1.22 1
8 -12 9 4.34 1.14
8 -12 9 2.35 0.66
-4 12 -9 3.08 0.99
-12 8 -9 1.5 0.87
-12 8 9 1.11 0.84
-12 4 -9 2.07 0.79
-12 8 9 1.7 0.88
12 -8 9 1.86 0.88
8 4 9 1.94 0.59
-4 -8 -9 1.54 1.01
-12 4 -9 1.96 1.09
-4 12 9 1.29 0.68
4 8 -9 0.79 0.89
4 8 -9 -0.19 0.61
-12 8 9 0.81 0.5
-8 12 -9 1.23 0.8
-4 12 9 1.38 0.57
12 -4 -9 0.91 0.97
12 -8 9 2.16 0.6
-8 12 -9 2.46 1.05
-8 -4 9 0.82 0.88
12 -4 -9 1.93 1.12
-8 -4 9 0.91 1.02
4 -12 9 0.64 0.88
-9 -3 -9 5.52 0.9
-12 9 -9 5.41 1.1
9 -12 9 8.43 0.9
-3 -9 9 4.23 1.12
12 -3 9 7.59 1.17
-9 12 9 6.48 1.09
-9 -3 -9 5.4 1.15
-9 12 9 6.52 1.09
9 3 -9 4.07 0.94
3 9 9 7.61 1.06
-9 -3 -9 7.25 1.21
12 -9 -9 4.6 1.16
9 -12 9 7.71 1.24
-9 12 9 8.24 1.07
-3 -9 9 7.25 1.31
-3 12 -9 4.98 1.06
9 3 -9 7.52 1.26
12 -3 9 6.66 0.95
-12 3 9 4.85 0.99
-9 12 -9 9.73 1.64
-3 -9 -9 7.89 1.31
-9 -3 9 8.84 1.44
-12 3 -9 8.54 1.34
-12 9 9 8.15 1.47
3 9 -9 7.55 1.26
12 -9 9 7.83 1.11
-12 3 -9 7.2 1.33
-9 12 -9 9.25 1.39
9 3 9 7.09 1.07
12 -9 9 7.31 1.2
12 -3 -9 9.16 1.57
-3 12 9 7.43 1.18
-12 9 9 8.31 1.24
12 -3 -9 11.71 1.57
-12 9 9 10.33 1.22
-10 12 9 7.99 1.39
-2 -10 9 7.5 1.33
-10 -2 -9 8.19 1.37
12 -10 -9 6.03 1.24
-12 10 -9 9.25 1.23
12 -2 9 9.48 1.53
10 -12 9 8.08 1.1
2 10 9 9.09 1.31
-12 10 -9 5.61 1.18
2 10 9 7.84 1.04
-12 2 9 6.3 1.07
-10 -2 -9 5.42 0.97
-2 12 -9 7.8 1.34
-10 -2 -9 6.41 1.23
-2 -10 9 6.83 1.2
10 2 -9 9.03 1.62
-10 12 9 8.6 1.25
12 -2 9 6.98 1.04
10 -12 9 10.59 1.43
12 -10 9 11.21 1.17
-10 -2 9 9.44 1.7
-2 -10 -9 11.05 1.65
-2 12 9 10.15 1.28
12 -2 -9 11.03 1.65
10 2 9 9.79 1.17
-12 2 -9 10.38 1.43
2 -12 9 9.44 1.43
-12 10 9 11.87 1.6
-12 10 9 12.47 1.68
12 -2 -9 9.71 1.72
-12 2 -9 11.73 1.77
-10 12 -9 13.72 1.8
12 -10 9 11.17 1.61
-10 12 -9 11.45 1.5
2 10 -9 8.26 1.4
-12 10 9 9.87 1.53
-11 -1 -9 5.14 1.22
12 -1 9 5.92 0.76
-12 1 9 4.77 0.97
11 1 -9 6.43 1.25
11 -12 9 6.21 0.79
-12 11 -9 6.56 1.22
1 11 9 5.35 0.86
1 -12 -9 4.48 1
-11 12 9 5.87 1.1
12 -1 9 4.97 1.14
-1 -11 9 3.85 1.05
-1 -11 9 6.73 1.31
1 11 9 5.66 0.78
-12 11 -9 3.68 0.87
12 -11 -9 3.11 0.99
11 -12 9 4.54 1.1
-11 -1 -9 6.98 1
-11 12 9 6.01 1
12 -11 9 9.52 1.22
-12 11 9 8.41 1.15
-11 12 -9 10.39 1.76
-11 12 -9 10.87 1.4
1 -12 9 9.87 1.61
-1 -11 -9 9.76 1.58
-1 12 9 10.12 1.25
-12 1 -9 10.7 1.43
-1 12 9 8.47 1.13
11 1 9 10.69 1.17
-12 11 9 9.7 1.64
-12 1 -9 9.43 1.74
12 -1 -9 10.31 1.66
12 -1 -9 9.96 1.47
12 -11 9 10.43 1.62
-12 11 9 9.85 1.6
-11 -1 9 9.46 1.45
0 12 9 -0.03 0.57
0 12 9 0.34 0.65
-12 0 9 -0.15 0.77
-12 12 9 0.32 0.8
12 -12 -9 -0.04 0.64
12 0 9 0.57 0.59
12 0 -9 0.15 0.67
-12 0 -9 0.78 0.78
12 0 9 0.48 0.99
-12 12 9 0.22 0.9
0 -12 9 -0.02 0.83
12 -12 9 0.27 0.56
12 -12 9 -0.28 0.94
-12 12 9 -0.42 0.68
-12 12 -9 -0.12 0.7
12 0 -9 0.6 0.98
0 -12 -9 -0.11 0.81
-12 0 -9 0.78 1.05
-12 12 -9 0.48 0.95
0 -12 9 0.49 0.95
6 7 9 6.38 0.77
7 -13 9 4.98 0.77
-6 13 -9 3.76 1.02
-13 6 9 4.4 0.98
-6 -7 9 4.42 1.14
-7 13 9 4.61 0.81
-7 13 9 3.16 0.79
7 6 -9 7.15 1.24
-6 -7 9 7.1 1.41
-13 7 -9 2.8 0.99
-13 6 9 3.65 0.96
-6 13 -9 6.48 0.95
7 -13 9 7.01 1.34
13 -7 -9 3.87 1.1
-7 13 9 3.49 0.9
-7 -6 -9 5.32 1.19
13 -7 -9 5.61 1.31
13 -6 9 5.71 0.69
13 -6 9 4.25 1.03
-7 -6 9 4.85 1.16
-7 13 -9 4.6 1.09
13 -6 -9 4.19 1.19
6 7 -9 4.74 1.13
13 -7 9 3.52 1.05
-13 7 9 5.24 0.96
13 -6 -9 4.88 1.16
-6 13 9 2.62 0.76
-13 7 9 4.51 0.91
-13 6 -9 3.81 0.77
7 6 9 4.94 0.69
-6 13 9 2.69 0.73
6 -13 9 3.96 1.11
-6 13 9 5.39 0.89
-6 -7 -9 3.21 1.08
-7 13 -9 5.42 0.96
-13 6 -9 4.6 1.18
-13 7 9 4.07 0.99
6 -13 9 2.58 0.66
-7 -6 9 2.88 1.15
13 -7 9 4.11 0.67
-13 8 -9 0.4 0.69
-8 13 9 1.89 0.72
13 -5 9 1.81 0.95
-5 -8 9 2.57 1.16
-8 13 9 1.39 0.7
-13 5 9 0.86 0.76
13 -8 -9 2.39 1.3
-5 -8 9 0.05 0.96
-8 13 9 1.51 0.84
-8 -5 -9 0.5 0.43
8 -13 9 0.91 0.62
-13 5 9 1.18 0.84
8 -13 9 2.86 1.16
13 -5 9 2.31 0.55
-5 13 -9 1.54 0.71
5 8 9 2.47 0.61
-8 -5 -9 2 1.08
8 5 -9 1.78 1.06
-8 -5 -9 1.41 0.95
13 -8 -9 2.35 1.04
-5 13 -9 1.58 0.92
13 -8 9 2.17 0.57
5 -13 9 0.83 0.49
-8 -5 9 1.33 1.04
-13 8 9 1.73 0.73
8 5 9 1.57 0.56
-8 -5 9 1.33 1.08
13 -8 9 2.54 1
-8 13 -9 2.99 0.83
13 -5 -9 1.54 0.97
5 -13 9 1.82 0.98
-5 -8 -9 1.25 1.07
-5 13 9 1.74 0.74
-8 13 -9 1.56 0.96
-13 5 -9 2.17 0.76
-13 8 9 1.71 0.88
-13 5 -9 1.3 1.07
-5 13 9 0.91 0.6
5 8 -9 2.66 1.02
-13 8 9 3.64 0.9
13 -5 -9 1.55 1.13
-13 4 9 2.4 0.89
-4 -9 9 3.7 1.06
-4 13 -9 3.09 0.69
-13 9 -9 1.83 0.77
9 -13 9 5.61 1.26
-9 -4 -9 2.76 1
9 4 -9 4.77 1.25
-4 -9 9 5.19 1.32
13 -9 -9 3.78 1.11
-9 13 9 2.98 0.79
-9 -4 -9 2.3 0.76
-9 13 9 3.76 0.81
9 -13 9 2.89 0.71
4 9 9 2.81 0.64
-4 13 -9 2.45 0.92
13 -4 9 3.3 0.62
-9 13 9 2.63 0.95
-9 -4 -9 4.02 1.11
13 -4 9 4.51 1.09
-13 9 9 2.6 0.66
4 -13 9 3.05 0.94
-13 4 -9 5.17 0.9
-9 13 -9 5.73 1.21
-9 13 -9 4.51 0.9
13 -4 -9 3.21 1.17
-9 -4 9 6.01 1.25
13 -9 9 5.57 1.13
-13 9 9 2.08 0.68
13 -9 9 3.12 0.65
-13 4 -9 3.15 1.08
-9 -4 9 2.41 1
-4 13 9 4.6 0.82
4 9 -9 3.44 1.06
13 -4 -9 4.23 1.11
9 4 9 3.17 0.64
-13 9 9 5.51 1.07
-4 -9 -9 4.06 1.13
-13 9 9 3.05 0.91
3 -13 -9 10.37 1.41
10 -13 9 15.7 1.86
-10 13 9 13.63 1.76
-13 10 -9 14.47 1.74
-10 -3 -9 12.38 1.74
13 -3 9 14.19 1.8
-10 13 9 13.8 1.65
3 10 9 14.22 1.38
10 -13 9 14.75 1.4
-13 3 9 10.53 1.64
13 -10 -9 12.5 1.87
13 -3 9 14.73 1.34
3 10 9 16.42 1.58
-13 10 -9 13.96 1.48
-10 -3 -9 15.06 1.62
10 3 -9 16.17 1.94
-10 -3 -9 14.83 1.87
-3 -10 9 14.9 1.98
-3 -10 9 11.84 1.8
-3 -10 -9 18.79 2.08
-13 10 9 18.34 1.99
13 -3 -9 19.16 2.08
13 -10 9 21 2.04
-13 10 9 20.09 1.94
-13 3 -9 20.11 2.22
13 -10 9 19.24 1.68
-10 13 -9 20.22 1.84
-10 -3 9 18.52 2.12
-13 3 -9 20.57 1.92
13 -3 -9 17.85 2.19
-10 13 -9 20.74 2.14
10 3 9 18.17 1.65
3 10 -9 17.71 1.93
-13 10 9 20.26 2.01
-3 13 9 19.79 1.78
13 -2 9 1.62 0.99
-11 -2 -9 0.85 0.63
-11 -2 -9 1.14 0.75
11 -13 9 0.92 0.62
13 -11 -9 1.86 0.95
2 11 9 1.42 0.61
-2 -11 9 1.03 1.07
-2 -11 9 0.34 0.92
-13 2 9 0.81 0.79
2 11 9 2.38 0.79
-13 11 -9 0.64 0.7
11 -13 9 1.49 1.06
11 2 -9 0.8 0.95
2 -13 -9 0.92 0.84
13 -2 9 1.2 0.57
-11 13 9 1.91 0.84
-11 -2 -9 1.36 1.04
-11 13 9 0.96 0.94
-13 11 -9 1.25 0.95
13 -2 -9 0.46 0.95
2 11 -9 0.02 0.59
-2 13 9 1.43 0.69
13 -11 9 0.6 0.92
-13 2 -9 0.96 0.8
13 -11 9 1 0.6
-11 13 -9 0.83 0.71
-2 -11 -9 -0.3 0.89
-11 13 -9 0.29 0.93
-11 -2 9 -0.54 0.58
13 -2 -9 1.53 0.99
-13 11 9 1.07 0.92
-2 13 9 0.09 0.57
-13 11 9 0.51 0.9
-13 2 -9 0.46 0.97
-11 -2 9 0.95 0.7
11 2 9 0.48 0.58
-13 11 9 0.28 0.78
-12 -1 -9 3.5 1.14
-12 13 9 2.64 0.69
1 12 9 5.34 0.89
-1 -12 9 4.08 1.06
-13 12 -9 3.99 0.84
-1 -12 9 2.91 1.04
13 -1 9 1.95 0.89
13 -1 9 4.42 0.72
12 -13 9 3.9 0.7
-13 12 -9 1.59 0.94
-12 -1 -9 4.14 0.88
-13 1 9 2.11 0.85
-12 13 9 4.02 0.92
1 -13 -9 2.64 0.94
12 -13 9 4.91 1.19
12 1 -9 4.32 1.16
1 12 9 2.65 0.69
-12 13 9 2.18 0.94
1 -13 9 1.82 0.82
-13 12 9 4.46 1.03
-1 13 9 4.11 0.74
-13 1 -9 3.41 0.88
13 -12 9 4.21 1.12
-1 13 9 5.53 0.86
-12 13 -9 4.16 1.12
12 1 9 3.03 0.64
-13 1 -9 4.87 1.24
13 -12 9 3.18 0.68
-12 -1 9 3.37 0.88
13 -1 -9 4.04 1.15
-13 12 9 1.85 0.83
-12 13 -9 2.67 0.79
-1 -12 -9 3.34 0.94
-13 12 9 4.38 0.98
-13 13 -9 15.43 2.01
13 -13 9 18.89 1.67
13 0 9 20.25 1.64
-13 0 -9 19.81 2.16
-13 13 9 17.43 1.98
-13 0 -9 16.27 1.83
0 13 9 22.18 1.75
0 -13 9 19.32 1.93
-13 13 9 14.26 1.82
13 0 -9 17.81 2.08
13 -13 9 22.77 2.14
0 13 9 20.31 1.74
-13 0 9 19.69 1.91
-13 13 -9 19.75 1.81
0 -13 -9 18.94 1.97
-13 13 9 21.29 1.99
-7 14 9 5.58 0.83
7 -14 9 4.63 0.76
-7 14 9 2.97 0.8
14 -7 9 4.11 0.66
14 -7 9 5.65 1.1
-7 14 9 3.61 0.88
-14 7 9 5.55 1.1
-14 7 9 5.22 0.91
-7 14 -9 3.5 1
-14 7 -9 3.53 0.79
-7 -7 9 4.3 1.14
-14 7 -9 3.48 0.97
-7 -7 9 6.39 1.4
7 7 -9 4.81 1.2
7 -14 9 3.2 1.11
7 7 9 5.93 0.76
-7 14 -9 6.05 0.92
-14 7 9 4.17 0.94
-7 -7 -9 2.77 1.07
14 -7 -9 3.52 1.1
14 -7 -9 4.82 1.33
-6 -8 9 0.45 1.09
-6 -8 9 -0.66 0.96
-14 8 -9 0.69 0.47
14 -8 -9 0.78 1.28
-6 14 -9 1.16 0.7
-8 -6 -9 -0.12 0.96
-14 6 9 0.89 0.87
-8 14 9 1.07 0.82
14 -6 9 0.86 0.51
-8 14 9 1.25 0.71
14 -8 -9 0.37 1
8 6 -9 -0.32 0.93
-14 6 9 -0.28 0.85
8 -14 9 0.36 0.62
6 8 9 0.64 0.58
8 -14 9 0.78 1.05
14 -6 9 0.65 0.88
-8 14 9 0.28 0.68
-6 14 -9 0.35 0.85
-6 14 9 0.62 0.64
-6 -8 -9 1.31 1.04
-8 14 -9 2.21 0.81
6 -14 9 1.32 0.99
-14 6 -9 0.96 0.91
-8 -6 9 1.2 1.13
-8 14 -9 1.16 1
14 -6 -9 0.97 1.2
14 -8 9 1.35 0.56
8 6 9 0.66 0.56
14 -8 9 1.21 0.99
6 -14 9 0.57 0.6
-8 -6 9 -0.44 0.96
-14 8 9 1.42 0.82
-14 8 9 1.12 0.77
-6 14 9 0.77 0.62
-6 14 9 1.35 0.71
-14 6 -9 1.09 0.75
-14 8 9 0.8 0.89
14 -6 -9 0.45 0.96
6 8 -9 1.48 1.01
-5 14 -9 2.15 0.78
-5 -9 9 2.32 1.05
-9 14 9 2.29 0.75
-9 -5 -9 3.13 1.05
-14 5 9 1.44 0.83
-5 14 -9 3.12 0.76
-9 14 9 3.74 0.8
5 9 9 4.42 0.7
14 -9 -9 4.15 1.17
14 -9 -9 2.99 1.26
14 -5 9 3.08 0.96
-9 -5 -9 2.81 0.76
-14 5 9 4.03 0.99
-5 -9 9 3.54 1.23
9 5 -9 3.56 1.13
14 -5 9 3.15 0.61
-9 14 9 3.77 1.02
9 -14 9 4.92 1.25
9 -14 9 2.65 0.71
-14 5 -9 2.57 1.03
9 5 9 3.97 0.68
-14 9 9 4.01 0.92
-9 14 -9 5.65 0.93
-9 -5 9 4.42 1.21
5 -14 9 2.45 0.67
5 -14 9 2.22 0.88
5 9 -9 4.04 1.07
-14 5 -9 4.19 0.9
14 -5 -9 3.78 1.21
14 -9 9 2.98 0.63
14 -5 -9 3.5 1.1
14 -9 9 4.16 1.05
-9 14 -9 3.26 1.08
-5 -9 -9 3.27 1.06
-14 9 9 4.36 1.05
-5 14 9 6.13 0.9
-9 -5 9 3.15 1.02
-14 9 9 2.04 0.79
-14 4 9 2.65 0.9
-4 14 -9 2.94 0.65
14 -4 9 2.75 0.88
4 10 9 4.63 0.71
4 10 9 4.47 0.91
-10 -4 -9 2.78 0.92
10 -14 9 3.86 0.73
-10 14 9 2.64 0.93
14 -10 -9 1.91 0.98
-4 -10 9 4.64 1.24
-10 14 9 2.23 0.77
-14 4 9 2.12 0.81
-10 -4 -9 2.6 0.96
-14 10 -9 2.99 0.77
-4 -10 9 3.62 1.1
10 4 -9 2.84 1.12
-10 -4 -9 2.29 0.82
10 -14 9 4.14 1.2
14 -4 9 2.76 0.61
4 10 -9 2.01 0.9
-10 14 -9 3.8 1.07
-14 4 -9 3.63 0.92
14 -10 9 3.05 0.64
-4 14 9 5.28 0.89
-4 -10 -9 1.83 0.99
-14 10 9 4.23 0.92
14 -4 -9 3.04 1.06
-14 10 9 2.24 0.67
14 -4 -9 2.32 1.1
10 4 9 3.12 0.64
-14 10 9 2.78 0.88
-14 4 -9 3.14 1.16
14 -10 9 2.74 1
-10 14 -9 2.93 0.81
-10 -4 9 3 0.97
-14 10 9 3.81 1.02
-10 -4 9 1.62 0.95
-14 11 -9 4.12 0.9
11 -14 9 3.37 1.11
-11 14 9 3.93 1.02
14 -11 -9 2.1 0.89
11 3 -9 3.37 1.15
-3 -11 9 4.3 1.06
-11 -3 -9 2.43 0.97
-14 11 -9 1.62 0.73
14 -3 9 4.11 0.69
-3 -11 9 4.74 1.26
-11 14 9 3.18 0.83
3 11 9 3.41 0.69
3 11 9 4.89 0.87
-14 3 9 2.67 0.88
11 -14 9 4.54 0.73
-11 -3 -9 2.64 0.83
-14 11 9 3.32 1.01
14 -3 -9 0.9 0.81
-14 3 -9 2.66 0.83
14 -3 -9 1.37 1.02
11 3 9 2.58 0.62
-14 11 9 2.91 0.88
-3 14 9 2.64 0.75
-11 14 -9 4.07 0.86
14 -11 9 2.65 1.04
-11 14 -9 1.55 0.97
-14 3 -9 3.07 1.12
-14 11 9 2.13 0.91
-3 -11 -9 2.26 1.09
-11 -3 9 0.92 0.81
14 -11 9 2.22 0.6
2 12 9 9.55 1.13
-14 12 -9 8.93 1.38
2 12 9 8.76 1.28
12 -14 9 7.97 1.13
-12 -2 -9 8.25 1.37
-12 14 9 8.16 1.19
-12 -2 -9 6.68 1.25
12 -14 9 6.97 1.32
-2 -12 9 9.36 1.64
12 2 -9 5.23 1.23
-12 14 9 7.72 1.37
-2 -12 9 8.94 1.28
14 -2 9 9.37 1.15
-14 2 9 6.96 1.08
12 2 9 11.08 1.24
-2 -12 -9 11.12 1.54
-14 12 9 14.56 1.83
-12 -2 9 11.46 1.46
-14 2 -9 11.94 1.56
14 -2 -9 11.46 1.76
14 -12 9 11.12 1.68
14 -12 9 11.33 1.25
-14 2 -9 10.39 1.78
-12 14 -9 13.85 1.42
-14 12 9 11.34 1.62
-14 12 9 9.06 1.52
-12 14 -9 7.64 1.4
-2 14 9 12.52 1.35
13 -14 9 8.47 1.11
14 -1 9 9.43 1.07
-14 1 9 7.96 1.08
-13 -1 -9 8.09 1.03
1 13 9 8.18 1.21
13 1 -9 4.48 1.14
-14 13 -9 7.3 1.03
-1 -13 9 7.83 1.4
13 -14 9 5.28 1.2
-13 -1 -9 6.94 1.26
-13 14 9 10.61 1.28
-13 14 9 5.04 0.93
1 13 9 8.37 1.2
-14 13 -9 5.91 1.12
-13 14 9 8.1 1.36
-14 13 9 9.66 1.52
13 1 9 8.81 1.1
-13 -1 9 8.41 1.34
-14 1 -9 6.65 1.25
14 -13 9 8.07 1.04
1 -14 9 6.29 1.15
-13 14 -9 4.64 1.09
-14 13 9 5.99 1.02
-14 13 9 6.34 1.06
-1 14 9 8.96 1.21
14 -13 9 4.79 1.06
-14 1 -9 8.77 1.35
-13 14 -9 8.96 1.22
14 -1 -9 6.65 1.18
-1 -13 -9 4.76 1.05
14 -14 9 0.78 0.68
-14 0 9 3.15 0.84
0 14 9 3.74 0.77
-14 0 -9 1.7 0.85
14 -14 9 2.48 0.65
-14 0 -9 3.6 0.81
-14 14 9 3.3 0.94
14 0 9 2.74 0.65
-14 14 -9 2 0.82
-14 14 -9 2.35 0.76
0 -14 9 2.78 0.9
14 0 -9 2.04 0.86
-14 14 9 2.17 0.8
-14 14 9 3.1 0.93
0 14 9 2.45 0.57
-8 15 9 0.28 0.68
-8 15 9 0.79 0.68
8 -15 9 0.85 1
-7 -8 9 0 0.93
8 7 -9 1.04 1.02
-7 15 -9 0.78 0.68
15 -7 9 -0.13 0.67
-15 7 9 1.03 0.87
-15 7 9 1.04 0.85
-8 -7 -9 0.22 1.01
7 8 9 0.11 0.42
-15 8 -9 0.62 0.65
-8 15 9 1.02 0.74
15 -7 9 0.66 0.51
15 -8 -9 0.31 1.15
-7 -8 9 0.69 1.14
8 -15 9 0.57 0.61
-7 15 -9 1.14 0.67
7 8 9 0.82 0.58
15 -8 -9 -0.48 0.91
-7 -8 -9 1.44 1.06
-15 7 -9 0.95 0.75
-8 -7 9 -0.12 0.93
8 7 9 0.26 0.41
-15 8 9 0.82 0.92
15 -7 -9 1.41 1.18
8 7 9 0.91 0.57
-8 -7 9 1.29 1.09
15 -8 9 -0.21 0.6
-15 7 -9 0.25 0.67
-7 15 9 0.85 0.63
-7 15 9 0.78 0.64
-15 8 9 1.4 0.79
7 8 -9 1.22 0.91
-7 15 9 0.51 0.7
7 -15 9 0.21 0.95
-8 15 -9 1.17 0.68
-15 8 9 0.74 0.77
-8 15 -9 0.45 0.84
15 -7 -9 1.23 0.93
15 -8 9 1.21 0.54
7 -15 9 0.51 0.6
15 -9 -9 0.99 1.21
15 -9 -9 0.72 0.94
-9 15 9 1.4 0.86
-9 15 9 1.79 0.74
15 -6 9 0.91 0.53
-9 -6 -9 0.54 0.43
9 -15 9 0.7 1.03
-9 15 9 1.27 0.7
-6 -9 9 1.32 1.13
6 9 9 1.1 0.57
9 6 -9 0.77 0.95
-15 6 9 1.32 0.87
-6 -9 9 0.65 0.96
6 9 9 0.22 0.42
-9 -6 -9 0.69 0.99
-15 6 9 1.79 0.88
-6 15 -9 1.19 0.69
9 -15 9 1.16 0.64
-9 15 -9 1.5 0.73
-6 -9 -9 1.15 1
6 -15 9 0.03 0.76
-9 -6 9 1.26 1.06
9 6 9 0.22 0.41
-9 -6 9 -0.42 0.91
15 -9 9 1.2 0.57
-15 9 9 1.29 0.8
-15 6 -9 0.68 0.75
-6 15 9 1.73 0.66
15 -6 -9 0.6 0.91
9 6 9 1.42 0.58
15 -9 9 0.28 0.65
-15 9 9 0.78 0.76
15 -6 -9 0.82 1.07
6 9 -9 1.45 0.93
-6 15 9 1.08 0.58
6 -15 9 0.93 0.59
-15 9 9 0.7 0.91
-9 15 -9 0.67 0.96
-15 6 -9 1.15 0.84
-5 -10 9 3.78 1.21
15 -5 9 2.96 0.6
-5 15 -9 2.52 0.71
10 -15 9 3.21 1.12
-10 -5 -9 2.5 0.84
-5 -10 9 4.36 1.14
-10 15 9 4.17 1
15 -10 -9 3.25 1.26
-10 15 9 1.7 0.72
10 -15 9 4.84 0.79
10 5 -9 1.98 1.03
-15 5 9 4.93 0.97
5 10 9 3.11 0.67
15 -10 -9 1.75 0.9
-15 5 9 2.12 0.86
5 10 9 1.08 0.49
-10 -5 -9 3.42 0.81
15 -10 9 2.99 0.66
15 -5 -9 2.42 1.06
-15 10 9 4.15 1.06
-10 15 -9 3.87 1.11
10 5 9 3.53 0.66
-5 -10 -9 4.18 1.16
-15 10 9 4 0.91
-15 5 -9 3.66 0.92
15 -5 -9 3.47 1.04
-15 5 -9 4.13 1.12
-15 10 9 3.42 0.84
-10 -5 9 2.73 0.95
5 -15 9 2.21 0.64
-10 15 -9 5.04 0.84
-5 15 9 3.92 0.78
-10 -5 9 1.53 0.84
5 10 -9 2.28 0.81
15 -11 -9 0.66 0.67
4 11 9 1.5 0.6
11 -15 9 1.16 1.02
4 11 9 1.84 0.79
-15 11 -9 0.98 0.75
-15 4 9 1.04 0.77
-11 -4 -9 1.42 0.8
-11 15 9 2.26 0.93
-4 -11 9 0.74 0.93
-11 15 9 1.26 0.69
11 4 -9 1.89 1.09
11 -15 9 2.09 0.67
-15 4 9 1.84 0.84
15 -4 9 1.96 0.59
4 11 9 1.56 0.54
-4 -11 9 2 1.14
-4 15 -9 0.56 0.43
11 4 9 1.96 0.61
-15 4 -9 1.3 0.96
15 -11 9 1.82 0.59
-4 15 9 3.81 0.79
15 -4 -9 1.6 0.99
-15 11 9 3.01 1.01
-15 11 9 1.43 0.86
-15 11 9 2.87 0.86
-4 -11 -9 1.91 0.97
4 11 -9 0.19 0.61
-11 15 -9 1.66 0.94
-15 4 -9 3.6 0.88
-11 -4 9 1.01 0.85
-11 15 -9 3.48 0.78
15 -4 -9 0.41 1.16
-15 11 9 0.43 0.51
4 -15 9 1.43 0.56
3 12 9 -0.15 0.7
-12 -3 -9 0.3 0.93
-15 3 9 0.66 0.77
-12 -3 -9 0.65 0.75
12 -15 9 0.12 0.6
-15 3 9 -0.18 0.43
15 -12 -9 0.15 0.8
-12 15 9 -0.22 0.83
-3 -12 9 0.49 0.88
12 3 -9 -0.05 0.9
-3 -12 9 0.53 0.83
3 12 9 -0.07 0.56
-15 12 -9 0.08 0.74
3 12 9 0.08 0.56
15 -3 9 0.25 0.56
12 -15 9 0.55 0.99
-12 15 9 0.63 0.69
-12 -3 9 -0.04 0.76
-12 15 -9 0.6 0.9
3 -15 9 -0.32 0.36
-15 3 -9 0.76 0.88
-3 15 9 1.32 0.71
12 3 9 1.03 0.59
15 -12 9 0.74 0.59
-15 12 9 1.92 0.98
-12 -3 9 0.48 0.54
-3 15 9 -0.1 0.47
-15 3 -9 1.51 0.79
-15 12 9 0.5 0.82
15 -12 9 -0.07 0.61
-15 12 9 1.53 0.78
12 3 9 0.16 0.37
15 -3 -9 0.58 0.87
-12 15 -9 1.33 0.7
-3 -12 -9 0.86 0.67
13 -15 9 6.51 0.81
-15 2 9 5.63 0.96
-13 15 9 5.82 0.98
-13 -2 -9 4.83 0.91
-2 -13 9 6.22 1.1
-13 15 9 8.16 1.18
13 -15 9 3.74 1.02
2 13 9 6.09 0.9
15 -2 9 5.24 0.74
2 13 9 6.73 0.85
-15 13 -9 5.86 0.95
2 13 9 4.08 0.76
-15 13 9 8.17 1.13
-15 2 -9 8.12 1.02
-15 13 9 8.99 1.55
15 -13 9 7.51 1.07
-13 15 -9 7.95 1.24
-15 2 -9 5.43 1.1
-13 -2 9 6.79 0.96
-15 13 9 6.61 1.01
-2 -13 -9 4.35 0.99
-13 15 -9 4.14 1.02
13 2 9 6.94 1.04
-2 15 9 7.59 1.26
-14 15 9 14.54 1.67
-1 -14 9 13.95 1.6
-15 14 -9 14.68 1.57
-14 15 9 13.28 1.6
1 14 9 15.88 1.39
1 14 9 15.39 1.46
-15 1 9 14.09 1.59
14 -15 9 14.48 1.37
-14 -1 -9 13.9 1.54
-14 15 9 11.08 1.48
15 -1 9 12.98 1.27
-14 15 -9 11.86 1.37
15 -14 9 11.95 1.21
-1 15 9 11.61 1.34
-15 14 9 13.83 1.67
-1 15 9 10.45 1.18
-15 14 9 8.71 1.45
14 1 9 10.6 1.19
-15 14 9 10.57 1.5
-15 1 -9 11.68 1.41
-14 -1 9 12.09 1.45
-15 15 9 15.08 1.67
-15 15 -9 16.1 1.61
0 15 9 15.27 1.45
0 15 9 16.81 1.53
15 -15 9 15.89 1.42
-15 15 9 14.08 1.62
0 -15 9 14.18 1.54
-15 0 -9 15.91 1.56
-15 15 9 12.28 1.58
-15 0 9 16.26 1.59
8 -16 9 0.42 0.71
-8 -8 9 1.19 1
-8 16 9 0.61 0.68
8 8 -9 0.12 0.68
-16 8 -9 -0.09 0.7
-8 16 9 0.5 0.66
-16 8 9 0.45 0.77
8 8 9 0.51 0.55
16 -8 -9 0.15 1.03
-8 16 -9 0.42 0.6
-16 8 9 0.14 0.9
16 -8 -9 0.68 0.77
8 8 9 -0.52 0.59
16 -8 9 0.62 0.5
-8 -8 -9 0.85 0.92
8 -16 9 -0.03 0.57
-8 -8 9 -0.65 0.89
16 -9 -9 1.56 1.11
9 -16 9 1.88 0.97
-7 -9 9 2.7 1.06
-7 -9 9 2.74 1
-9 16 9 2.17 0.79
-16 9 -9 0.85 0.51
-9 16 9 3.87 0.77
-9 16 9 1.87 0.71
9 7 -9 0.98 0.77
7 9 9 1.96 0.59
-16 7 9 3.02 0.87
-9 -7 -9 1.14 0.81
-7 16 -9 2.1 0.67
16 -7 9 1.66 0.53
7 9 9 2.32 0.67
16 -9 -9 0.76 0.7
-16 7 9 3.17 0.97
9 -16 9 2.1 0.61
-16 9 9 2.03 0.8
-7 16 9 2.31 0.73
9 7 9 2.88 0.64
-16 9 9 3.78 0.86
16 -7 -9 1.22 0.79
16 -7 -9 1.82 0.93
-9 -7 9 1.91 0.87
9 7 9 2.92 0.68
-9 16 -9 2.9 0.69
-7 16 9 2.71 0.7
-9 -7 9 2.57 0.99
16 -9 9 2.62 0.57
7 -16 9 3.07 0.67
-16 9 9 3.11 1
-7 -9 -9 2.18 1.05
-16 7 -9 2.55 0.8
-6 -10 9 1.96 1.01
-16 6 9 0.9 0.82
16 -10 -9 0.18 0.63
10 -16 9 0.95 0.62
10 6 -9 0.61 0.74
-10 16 9 1.42 0.69
-6 -10 9 2.15 0.96
16 -10 -9 1.83 1.14
-10 16 9 1.83 0.84
16 -6 9 1.37 0.51
6 10 9 1.34 0.65
-6 16 -9 1.26 0.63
-16 6 9 1.84 0.85
-10 -6 -9 0.35 0.86
10 -16 9 2.02 0.96
6 10 9 2.24 0.61
-6 16 9 1.87 0.65
16 -6 -9 0.5 1.1
-10 -6 9 0.58 0.84
16 -10 9 1.8 0.56
-16 10 9 1.25 0.79
-16 10 9 3.23 1.04
10 6 9 1.41 0.6
-10 16 -9 1.78 0.7
-10 16 -9 0.3 0.64
-6 -10 -9 1.34 0.89
16 -6 -9 0.78 0.75
-16 10 9 1.44 0.76
6 10 -9 0.33 0.79
-16 6 -9 1.53 0.74
6 -16 9 0.68 0.57
10 6 9 1.68 0.61
-5 16 -9 0.7 0.4
11 -16 9 0.29 0.58
11 -16 9 0.5 0.87
-11 16 9 0.84 0.86
-16 11 -9 0.3 0.66
-5 -11 9 0.88 0.87
16 -11 -9 0.87 1.03
5 11 9 0.74 0.64
16 -5 9 0.39 0.5
5 11 9 0.66 0.71
-5 -11 9 0.51 0.9
-11 -5 -9 0.17 0.7
-11 16 9 0.82 0.64
-16 5 9 0.19 0.78
-16 5 9 0.51 0.77
11 5 -9 0.07 0.65
5 11 9 0.92 0.54
11 5 9 0.38 0.57
-5 -11 -9 0.42 0.69
-16 11 9 0.52 0.94
-11 16 -9 0.19 0.63
16 -5 -9 0.23 0.63
-11 16 -9 0.48 0.66
16 -11 9 0.53 0.54
5 -16 9 0.37 0.55
11 5 9 0.3 0.53
-16 5 -9 0.01 0.61
-5 16 9 0.23 0.58
-11 -5 9 -0.26 0.75
-16 11 9 0.6 0.69
-16 5 -9 1.1 0.77
-16 11 9 0.17 0.51
-16 11 9 -0.25 0.73
12 4 -9 0.11 0.61
4 12 9 0.22 0.57
-16 4 9 0.46 0.74
16 -4 9 0.34 0.44
-16 4 9 0.52 0.72
-4 -12 9 0.59 0.88
-12 16 9 0.17 0.79
-12 16 9 0.58 0.65
4 12 9 0.23 0.63
-16 12 -9 0.06 0.71
4 12 9 0.79 0.72
12 -16 9 0.46 0.56
-12 -4 -9 0.58 0.7
-4 -12 9 0.22 0.78
12 -16 9 -0.18 0.65
16 -12 9 0.51 0.52
-16 12 9 1.3 0.8
-16 4 -9 0.13 0.61
-12 16 -9 0.12 0.56
16 -4 -9 0.06 0.6
12 4 9 1.04 0.6
-4 16 9 -0.17 0.32
-12 -4 9 0.49 0.77
-4 16 9 1.35 0.69
-16 12 9 1.53 0.96
4 -16 9 0.46 0.52
-16 12 9 0.87 0.77
-4 -12 -9 0.18 0.81
-12 16 -9 1.29 0.76
12 4 9 0.81 0.53
-16 4 -9 0.62 0.72
3 13 9 10.39 1.27
-13 -3 -9 9.97 1.35
3 13 9 10.49 1.27
-16 13 -9 10.5 1.39
-3 -13 9 10.98 1.52
-13 16 9 8.52 1.32
3 13 9 10.88 1.33
13 -16 9 11.13 1.18
-16 3 9 11.66 1.43
-13 16 9 10.55 1.51
-3 16 9 5.21 0.8
13 3 9 6.98 0.92
13 3 9 7.08 1.02
-13 -3 9 3.79 0.72
-16 13 9 7.94 1.28
14 -16 9 2.77 0.65
-14 16 9 2.2 0.77
-2 -14 9 2.37 0.85
-16 14 -9 2.07 0.76
2 14 9 1.36 0.65
-14 16 9 3.26 0.89
2 14 9 2.39 0.68
-14 -2 -9 1.71 0.71
-16 2 9 2.65 0.77
-16 14 9 1.08 0.72
-2 16 9 1.52 0.69
-14 16 -9 1.41 0.73
-2 16 9 1.85 0.55
14 2 9 1.67 0.57
-14 -2 9 2.29 0.71
-16 14 9 1.53 0.74
16 -14 9 2.91 0.63
-16 14 9 3.15 0.99
14 2 9 1.44 0.49
-16 2 -9 3.4 0.76
-16 1 9 1.6 0.69
15 -16 9 1.65 0.59
-15 16 9 2.12 0.81
-15 -1 -9 1.4 0.65
1 15 9 1.86 0.64
1 15 9 1.99 0.68
-1 -15 9 2.09 0.84
-15 16 9 1.5 0.75
-16 15 -9 2.27 0.78
-15 16 9 0.97 0.65
-16 15 9 2.33 0.86
-16 15 9 2.4 0.78
-15 -1 9 2.1 0.7
15 1 9 1.87 0.49
16 -15 9 2.04 0.58
-1 -15 -9 2.36 0.79
-1 16 9 3.49 0.76
-16 1 -9 3.12 0.73
-1 16 9 1.86 0.6
-15 16 -9 2.74 0.81
-16 15 9 1.82 0.72
0 -16 9 0.69 0.56
-16 0 9 0.62 0.61
-16 0 -9 0.93 0.63
-16 16 -9 1.17 0.74
-16 16 9 0.38 0.7
16 0 9 0.33 0.37
-16 16 9 1.22 0.75
0 16 9 0.26 0.57
-16 16 9 0.41 0.66
16 -16 9 0.97 0.55
0 16 9 1.57 0.7
-8 17 -9 4.21 0.76
8 9 9 5.3 0.82
8 9 9 5.68 0.75
-9 17 9 4.69 0.86
-8 -9 9 6.54 1.13
-17 8 9 3.86 1
-17 9 -9 3.88 0.75
9 -17 9 5.79 0.77
-9 17 9 5.8 0.84
-17 8 9 6.54 1.01
9 8 9 4.51 0.75
-9 -8 9 5.5 1.04
-17 8 -9 3.29 0.76
-8 17 9 3.91 0.81
-9 17 -9 2.99 0.7
17 -9 9 3.54 0.59
-17 9 9 3.4 0.85
8 -17 9 3.74 0.69
9 8 9 5.15 0.7
-17 9 9 5.12 1.06
-17 7 9 0.42 0.83
10 -17 9 -0.14 0.56
-10 17 9 0.25 0.47
7 10 9 -0.16 0.51
-17 7 9 0.32 0.76
7 10 9 -0.09 0.62
-7 17 -9 0.7 0.56
-10 17 9 0.3 0.73
17 -7 9 0.23 0.34
-7 -10 9 0.74 0.91
-17 10 9 -0.28 0.89
-7 17 9 0 0.59
-17 10 9 -0.04 0.67
-7 17 9 0.15 0.42
10 7 9 -0.35 0.58
-17 7 -9 0.59 0.64
-10 -7 9 0.24 0.77
-10 17 -9 -0.13 0.56
17 -10 9 0.03 0.45
7 -17 9 -0.06 0.53
-7 -10 -9 0.21 0.94
-17 10 9 0.21 0.76
10 7 9 0.26 0.56
-17 6 9 6.77 1
-6 -11 9 6 1.1
11 -17 9 4.37 0.75
6 11 9 7.84 0.97
6 11 9 5.24 0.74
-11 17 9 6.31 1.05
6 11 9 5.28 0.85
-17 6 9 4.37 0.95
-17 11 9 3.85 0.79
11 6 9 2.34 0.62
-17 11 9 3.69 0.83
-6 17 9 4.79 0.74
-11 17 -9 2.95 0.74
-11 -6 9 2.57 0.83
-17 6 -9 2.97 0.72
11 6 9 3.37 0.68
17 -11 9 2.69 0.55
6 -17 9 3.07 0.65
-12 -5 -9 0.61 0.63
-17 5 9 1.45 0.77
-5 -12 9 2.53 0.94
5 12 9 1.44 0.7
-17 5 9 2.19 0.73
12 -17 9 1.52 0.57
-17 12 -9 0.95 0.65
5 12 9 1.35 0.66
-12 17 9 1.04 0.83
5 12 9 1.66 0.62
-12 17 9 1.09 0.63
-17 5 -9 1.64 0.72
-5 17 9 1.49 0.61
-17 12 9 1.65 0.73
17 -12 9 1.69 0.55
-17 12 9 0.1 0.5
12 5 9 1.47 0.61
12 5 9 1.49 0.58
-12 -5 9 1.49 0.78
-17 12 9 4.57 1.06
5 -17 9 1.68 0.58
-12 17 -9 1.4 0.67
-17 12 9 0.34 0.41
-17 4 9 4.51 0.78
-13 -4 -9 3.46 0.81
-17 4 9 2.44 0.73
-17 13 -9 2.52 0.77
13 -17 9 3.72 0.65
-13 17 9 2.5 0.85
4 13 9 3.53 0.75
-4 -13 9 4.56 0.99
-13 -4 -9 2.07 0.72
-13 17 9 1.87 0.67
4 13 9 2.94 0.71
-13 -4 9 1.49 0.66
-17 4 -9 3.07 0.7
4 -17 9 1.68 0.51
-17 13 9 2.45 0.78
13 4 9 2.06 0.56
-17 13 9 2.64 0.76
-4 -13 -9 2.46 0.78
17 -13 9 2.65 0.58
-4 17 9 1.48 0.46
13 4 9 2.08 0.61
-17 13 9 4.47 1.05
-4 17 9 2.31 0.63
3 14 9 4.84 0.77
-14 17 9 3.28 0.78
-17 14 -9 4.95 0.87
-14 -3 -9 4.25 0.77
14 -17 9 4.79 0.71
-17 3 9 5.79 0.85
-3 -14 9 4.85 0.94
3 14 9 6.1 0.86
-14 17 9 7.32 1.02
-3 17 9 4.03 0.72
-17 14 9 3.35 0.78
14 3 9 1.97 0.54
-3 -14 -9 2.75 0.81
-17 14 9 3.92 0.98
-17 3 -9 3.37 0.75
17 -14 9 2.65 0.57
-3 17 9 2.68 0.58
-17 14 9 3.4 0.82
-14 17 -9 4.03 0.77
14 3 9 2.34 0.52
-17 2 9 5.63 0.82
-2 -15 9 4.82 0.9
2 15 9 4.24 0.73
-15 -2 -9 3.51 0.76
15 -17 9 3.85 0.67
-15 17 9 5.87 0.95
-17 15 -9 5.76 0.88
2 15 9 5.32 0.8
-2 17 9 4.8 0.7
-2 -15 -9 4.59 0.87
-17 15 9 4.51 0.98
-17 2 -9 6.75 0.87
17 -15 9 3.77 0.63
-17 15 9 5 0.87
-15 17 -9 5.55 0.82
-17 15 9 4.12 0.77
-2 17 9 4.78 0.77
15 2 9 3.37 0.59
-15 -2 9 4.47 0.74
1 16 9 4.04 0.71
-17 1 9 3.26 0.67
-16 17 9 3 0.74
-16 17 9 2.99 0.6
-1 -16 9 2.11 0.68
-16 17 9 4.55 0.82
1 16 9 3.61 0.66
-17 16 -9 4.25 0.74
-16 -1 -9 3.3 0.66
16 -17 9 3.73 0.62
-1 17 9 3.39 0.69
-17 16 9 3.45 0.71
-16 17 -9 5.45 0.83
-17 16 9 3.49 0.81
-17 1 -9 5.1 0.76
17 -16 9 3.4 0.59
16 1 9 2.08 0.46
-17 16 9 2.52 0.71
-1 17 9 2.8 0.6
-1 -16 -9 3.24 0.7
-16 -1 9 2.44 0.67
-17 17 9 4.03 0.79
-17 17 -9 4.66 0.75
0 17 9 2.95 0.6
-17 17 9 3.15 0.76
-17 0 -9 2.99 0.61
-17 0 9 2.81 0.64
17 -17 9 3.93 0.58
-9 18 9 0.25 0.62
9 9 9 0.21 0.57
-18 9 -9 -0.24 0.55
9 9 9 -0.01 0.49
9 -18 9 -0.08 0.54
-9 18 -9 -0.39 0.52
-18 9 9 -0.23 0.71
18 -9 9 -0.06 0.3
-9 -9 -9 -0.43 0.72
-18 9 9 0.2 0.8
-9 -9 9 0.55 0.78
8 10 9 2.67 0.6
-10 -8 -9 2.98 0.83
-18 8 9 2.61 0.79
8 10 9 3.45 0.73
-8 -10 9 3.85 0.91
-10 18 9 2.32 0.73
10 -18 9 4.02 0.67
-8 18 -9 2.01 0.57
-18 8 9 2.81 0.87
8 10 9 2.58 0.68
-18 8 -9 1.62 0.67
-18 10 9 3.15 0.94
8 -18 9 1.82 0.56
-10 -8 9 1.83 0.82
-10 18 -9 1.09 0.58
-8 -10 -9 3.12 0.87
10 8 9 2.05 0.6
-18 10 9 2.43 0.8
10 8 9 2.04 0.61
-8 18 9 3.42 0.69
-8 18 9 1.45 0.51
-7 -11 9 1.62 0.8
-11 18 9 1.41 0.69
7 11 9 0.54 0.57
-7 18 -9 0.34 0.38
11 -18 9 0.86 0.52
7 11 9 0.96 0.65
7 11 9 1.37 0.62
-18 7 9 0.84 0.71
-18 7 9 0.66 0.76
-11 -7 -9 0.72 0.7
-11 18 -9 1.62 0.6
7 -18 9 1.36 0.53
-18 7 -9 1.17 0.66
-7 18 9 1.71 0.62
-7 -11 -9 2.71 0.79
11 7 9 1.4 0.57
18 -11 9 0.71 0.31
11 7 9 1.08 0.58
-18 11 9 0.75 0.71
-11 -7 9 1.24 0.72
-18 11 9 1.82 0.9
12 -18 9 4.97 0.7
-12 18 9 5.83 1.05
-6 -12 9 5.37 0.99
-18 6 9 5.95 0.89
-18 6 9 3.4 0.86
6 12 9 5.92 0.83
6 12 9 4.3 0.76
12 6 9 1.81 0.58
-6 -12 -9 2.7 0.78
18 -12 9 1.69 0.42
-12 -6 9 1.48 0.73
12 6 9 1.66 0.56
-12 18 -9 1.89 0.69
-18 12 9 2.23 0.69
-18 12 9 3.2 0.97
6 -18 9 1.83 0.55
-18 6 -9 2.93 0.72
-6 18 9 3.16 0.67
-18 13 -9 8.15 1.16
5 13 9 10.48 1.21
-18 5 9 10.43 1.32
-18 5 9 10.82 1.28
5 13 9 10.74 1.23
13 -18 9 10.91 1.11
-13 18 9 11.79 1.39
-5 -13 9 12.67 1.42
-13 -5 -9 8.04 1.09
13 5 9 6.88 0.98
-18 5 -9 10.15 1.24
-13 -5 9 6.36 1.09
-18 13 9 11.49 1.62
-13 18 -9 8.79 1.19
18 -13 9 7.49 0.87
13 5 9 7.6 0.97
-5 -13 -9 8.61 1.38
-18 13 9 7.45 1.17
5 -18 9 7.86 0.98
-5 18 9 8.76 1.07
-14 18 9 2.51 0.85
-18 4 9 2.69 0.66
-18 14 -9 0.83 0.61
-14 18 9 0.36 0.4
-4 -14 9 2.49 0.81
4 14 9 2.32 0.67
14 -18 9 2.25 0.56
-14 -4 -9 1.12 0.61
4 14 9 1.2 0.59
-18 14 9 2.12 0.62
14 4 9 1.79 0.5
-14 18 -9 3.94 0.75
-4 18 9 2.14 0.61
-18 14 9 3.7 0.97
-4 -14 -9 2.05 0.76
-18 14 9 2.4 0.69
18 -14 9 1.8 0.49
-18 4 -9 3.33 0.72
-18 15 -9 1.81 0.64
-15 18 9 2.43 0.77
15 -18 9 2.25 0.54
-3 -15 9 2.53 0.78
3 15 9 1.78 0.58
-18 3 9 2.35 0.64
3 15 9 2.65 0.66
-15 -3 -9 1.54 0.6
15 3 9 1.55 0.45
-18 15 9 1.84 0.87
-18 3 -9 2.32 0.61
-18 15 9 2.31 0.7
-3 18 9 1.32 0.48
-3 18 9 1.99 0.63
-18 15 9 1.43 0.66
18 -15 9 1 0.46
-15 18 -9 2.7 0.74
-3 -15 -9 2.06 0.7
-16 18 9 0.45 0.64
-18 16 -9 0.62 0.61
2 16 9 0.58 0.58
16 -18 9 0.97 0.44
-16 18 9 0.81 0.44
-2 -16 9 0.51 0.59
-18 2 9 0.86 0.52
2 16 9 0.37 0.52
-16 -2 -9 0.59 0.53
-2 18 9 0.42 0.42
-2 -16 -9 0.57 0.61
18 -16 9 0.62 0.42
-18 16 9 1.07 0.69
-18 16 9 0.58 0.58
16 2 9 0.63 0.35
-2 18 9 0.91 0.54
-16 -2 9 -0.08 0.31
-18 16 9 0.48 0.62
-16 18 -9 0.64 0.61
-18 2 -9 0.9 0.54
-18 17 -9 2.52 0.66
17 -18 9 2.02 0.48
1 17 9 2 0.52
-17 -1 -9 1.7 0.53
-17 18 9 1.96 0.67
-18 1 9 2.18 0.58
1 17 9 2.53 0.61
-17 18 -9 3.59 0.64
18 -17 9 2.47 0.46
-18 17 9 2.44 0.68
-18 1 -9 2.07 0.54
-1 18 9 0.95 0.44
-18 17 9 2.54 0.66
-1 18 9 2.14 0.55
-17 -1 9 1.41 0.44
-18 18 9 3.59 0.71
-18 18 -9 6.52 0.93
-18 0 9 4.98 0.77
0 18 9 5.8 0.84
-18 0 -9 5.61 0.87
-9 -10 9 7.91 1.15
-10 -9 -9 6.11 0.94
-19 9 9 5.08 0.94
9 10 9 5.3 0.74
9 10 9 5.07 0.74
-10 19 9 4.77 0.82
-19 9 9 7.02 1.13
10 -19 9 7.1 0.88
9 10 9 5.93 1
-10 19 -9 6.37 0.98
-19 10 9 7.73 1.2
10 9 9 7.15 0.97
9 -19 9 8.45 0.96
-9 -10 -9 6.43 1.24
10 9 9 7.23 1.02
-19 10 9 8.09 1.34
-10 -9 9 7.66 1.2
-11 19 9 2.49 0.76
-19 8 9 2.65 0.72
-19 8 9 2.31 0.78
-11 -8 -9 2.11 0.75
8 11 9 3.75 0.7
11 -19 9 3.02 0.56
-8 -11 9 3.94 0.82
8 11 9 2.5 0.6
-11 -8 9 1.34 0.66
-11 19 -9 1.33 0.57
-19 8 -9 1.4 0.57
-19 11 9 4.13 0.91
-8 -11 -9 2.65 0.77
8 -19 9 1.75 0.49
11 8 9 1.61 0.54
-19 11 9 1.67 0.73
11 8 9 1.75 0.56
-19 7 9 6.88 1.07
7 12 9 5.06 0.72
-12 -7 -9 4.19 0.79
12 -19 9 6.61 0.83
-12 19 9 5.59 0.86
7 12 9 5.92 1.01
-19 7 9 4.78 0.86
12 7 9 4.27 0.65
-19 7 -9 3.99 0.69
-12 19 -9 5.65 0.78
-7 -12 -9 6.28 1.18
-12 -7 9 4.98 0.87
7 -19 9 5.24 0.77
12 7 9 6 0.87
-7 19 9 5.62 0.95
-13 19 9 1.36 0.7
-19 6 9 1.75 0.67
6 13 9 1.64 0.59
-19 6 9 1.45 0.59
13 -19 9 1.68 0.48
-6 -13 9 1.89 0.73
-13 -6 -9 0.73 0.6
6 13 9 1.6 0.56
13 6 9 0.39 0.29
-13 19 -9 0.68 0.58
-19 13 9 1.37 0.86
6 -19 9 0.79 0.44
-19 6 -9 0.48 0.57
-6 19 9 0.68 0.57
-6 -13 -9 0.68 0.66
-13 -6 9 0.25 0.58
13 6 9 0.33 0.45
-5 -14 9 4.99 0.86
-19 14 -9 2.88 0.53
5 14 9 3 0.63
5 14 9 3.5 0.65
14 -19 9 3.64 0.57
-19 5 9 4.37 0.68
-14 19 9 3.94 0.83
14 5 9 1.66 0.47
-14 19 -9 3.26 0.71
-19 5 -9 2.71 0.62
-19 14 9 2.46 0.86
-5 19 9 2.61 0.6
-5 -14 -9 2.49 0.69
-19 4 9 2.02 0.57
4 15 9 1.97 0.55
4 15 9 2.02 0.59
15 -19 9 1.95 0.5
-15 19 9 2.84 0.78
-4 -15 9 2.25 0.68
-19 15 -9 1.45 0.54
-4 -15 -9 3.04 0.71
-19 15 9 3.36 0.88
15 4 9 1.65 0.43
-15 19 -9 3.36 0.67
-4 19 9 2.86 0.61
-19 4 -9 2.82 0.6
-3 -16 9 0.14 0.54
-19 3 9 0.53 0.51
16 -19 9 0.16 0.4
-16 19 9 0.28 0.69
-19 16 -9 -0.09 0.5
3 16 9 -0.13 0.47
-16 -3 -9 -0.28 0.43
3 16 9 -0.16 0.52
-19 3 -9 0.36 0.5
-19 16 9 0.31 0.64
16 3 9 0.3 0.25
-3 -16 -9 -0.13 0.54
-19 16 9 0.05 0.32
-3 19 9 0.37 0.46
-16 19 -9 0.12 0.56
17 -19 9 0.9 0.42
-19 17 -9 1.17 0.53
-19 2 9 1.8 0.56
-17 -2 -9 1.28 0.52
2 17 9 1.76 0.54
2 17 9 0.83 0.36
-17 19 9 0.79 0.59
-19 2 -9 1.13 0.45
-2 19 9 0.67 0.49
-19 17 9 0.7 0.61
-17 19 -9 1.46 0.6
-19 17 9 0.77 0.44
1 18 9 5.75 0.79
-19 18 -9 6.08 0.89
-19 1 9 4.28 0.7
-18 -1 -9 5.36 0.82
-18 19 9 3.58 0.72
-19 18 9 4.4 0.79
-18 19 -9 5.98 0.9
-19 1 -9 4.89 0.68
-1 19 9 5.56 0.78
10 10 9 0.93 0.52
10 10 9 0.32 0.46
10 -20 9 0.69 0.43
-10 -10 -9 0.7 0.68
-10 -10 9 1.08 0.71
-20 10 9 0.17 0.55
-20 10 9 0.98 0.66
-20 9 9 2.02 0.62
-9 -11 9 5.66 1.04
9 11 9 3.65 0.63
-20 9 9 4.54 0.82
-11 -9 -9 3.59 0.75
9 11 9 3.49 0.58
11 -20 9 3.73 0.52
-11 20 9 2.7 0.64
-20 11 9 3.05 0.67
11 9 9 3.2 0.58
-11 -9 9 5.03 0.82
-20 11 9 5.25 0.9
11 9 9 5.34 0.71
9 -20 9 4.62 0.6
-9 -11 -9 5.07 0.82
-20 8 9 1.13 0.6
8 12 9 1 0.52
-12 20 9 0.82 0.63
-8 -12 9 1.14 0.69
-12 -8 -9 0.71 0.58
12 -20 9 1.18 0.44
-20 8 9 1.44 0.64
8 12 9 0.25 0.49
-12 -8 9 0.45 0.57
-8 -12 -9 0.71 0.65
12 8 9 0.34 0.28
12 8 9 0.72 0.44
-20 12 9 1.33 0.77
-12 20 -9 0.79 0.54
-20 8 -9 0.46 0.5
8 -20 9 1 0.42
-13 -7 -9 1.81 0.61
7 13 9 2.66 0.56
-7 -13 9 4.01 0.78
7 13 9 3.19 0.57
13 -20 9 2.4 0.48
-13 20 9 2.77 0.73
-20 7 9 4.05 0.71
-20 7 9 2.7 0.66
-7 -13 -9 4.38 0.72
13 7 9 3.86 0.51
-13 -7 9 2.16 0.6
-13 20 -9 4.41 0.66
-20 7 -9 2.99 0.6
7 -20 9 2.92 0.5
6 14 9 9.3 1.04
-14 20 9 11.6 1.28
6 14 9 9.67 1.01
-20 6 9 10.5 1.15
-6 -14 9 10.49 1.22
14 -20 9 10.01 0.98
-20 14 9 8.64 1.31
-14 20 -9 7.76 0.96
-20 6 -9 7.85 1
14 6 9 5.12 0.73
-6 -14 -9 7.53 1.08
15 -20 9 1.9 0.46
5 15 9 1.08 0.43
-20 5 9 1.76 0.56
-15 20 9 1.66 0.78
-5 -15 9 1.91 0.62
5 15 9 1.72 0.56
-5 -15 -9 0.97 0.6
-20 5 -9 0.94 0.53
-5 20 9 0.95 0.51
-15 20 -9 0.56 0.55
-20 15 9 1.11 0.79
4 16 9 -0.04 0.28
-16 20 9 0.21 0.69
16 -20 9 -0.15 0.39
-20 4 9 0.77 0.53
-20 16 -9 -0.09 0.27
4 16 9 0.29 0.51
-4 -16 9 0.31 0.51
-20 4 -9 0.76 0.51
-4 20 9 0.35 0.47
-16 20 -9 1 0.55
-20 16 9 0.38 0.71
-4 -16 -9 0.19 0.49
-17 20 9 0.79 0.62
-20 3 9 0.56 0.51
17 -20 9 0.38 0.32
-20 17 -9 -0.02 0.28
3 17 9 0.25 0.48
-17 20 -9 0.45 0.52
-3 20 9 0.11 0.43
-20 3 -9 0.43 0.51
-20 17 9 0.02 0.38
-10 -11 9 0.92 0.63
-21 10 9 0.47 0.63
10 11 9 0.44 0.35
-11 -10 -9 0.55 0.65
-21 10 9 0.53 0.51
11 -21 9 0.61 0.4
10 11 9 0.29 0.48
10 -21 9 0.62 0.38
11 10 9 0.35 0.48
-21 11 9 0.44 0.7
-10 -11 -9 0.56 0.62
11 10 9 0.28 0.32
-11 -10 9 1.25 0.61
12 -21 9 3.8 0.51
9 12 9 3.83 0.62
-9 -12 9 4.58 0.77
-21 9 9 2.86 0.66
-12 -9 -9 2.61 0.65
-21 9 9 3.18 0.63
-21 12 9 3.71 0.79
-9 -12 -9 3.92 0.75
-12 -9 9 1.94 0.62
12 9 9 3.22 0.57
9 -21 9 2.58 0.46
-21 8 9 5.63 0.91
13 -21 9 7.46 0.76
-8 -13 9 6.8 1.01
8 13 9 6.16 0.85
-21 8 9 7.34 0.99
-13 21 9 6.47 1
8 -21 9 5.11 0.68
13 8 9 6.23 0.86
-8 -13 -9 6.03 0.98
-21 13 9 9.25 1.24
-14 21 9 0.23 0.65
-21 7 9 0.35 0.53
7 14 9 -0.1 0.25
14 -21 9 0.73 0.4
-7 -14 9 1.14 0.62
7 14 9 0.47 0.48
-14 21 -9 0.27 0.36
-7 -14 -9 0.49 0.6
-21 14 9 -0.15 0.71
-21 7 -9 0.09 0.49
6 15 9 0.51 0.47
-21 6 9 1.28 0.53
15 -21 9 1.4 0.43
-6 -15 9 1.18 0.6
-15 21 9 1.82 0.71
-15 21 -9 0.94 0.46
-21 15 9 2.12 0.75
-21 6 -9 1.52 0.57
-6 -15 -9 1.45 0.61
0 0 -10 -0.2 0.78
0 0 10 -0.06 0.67
0 0 -10 -0.16 0.63
0 0 10 -0.22 0.44
0 1 -10 28.8 2.38
-1 0 -10 29.6 2.41
0 -1 10 28.19 2.31
1 0 10 25.47 2.26
-1 1 -10 29.04 2.43
-1 0 10 27.94 2.28
0 1 -10 29.19 2.4
1 0 -10 26.52 2.3
-1 0 -10 30.24 2.4
0 -1 -10 29.2 2.32
0 -1 -10 28.77 2.38
1 -1 10 25.69 2.27
-1 1 -10 30.7 2.41
1 -1 10 28.95 2.3
-1 1 10 28.02 2.31
1 -1 -10 27.91 2.36
1 1 -10 14.6 1.6
-1 -1 10 13.11 1.46
-2 1 -10 14.42 1.67
-1 2 -10 14.97 1.67
-2 1 -10 15.2 1.51
-1 -1 -10 14.56 1.48
-2 1 10 14.42 1.48
1 -2 -10 14.64 1.57
2 -1 10 11.96 1.49
1 -2 10 14.46 1.53
1 -2 -10 13.16 1.49
1 -2 10 12.04 1.46
-1 -1 -10 15.32 1.6
2 -1 -10 13.57 1.6
-1 2 -10 15.38 1.63
1 1 10 12.5 1.43
2 -2 -10 10.14 1.43
-2 0 -10 11.54 1.36
2 0 -10 8.89 1.27
-2 0 -10 8.76 1.42
2 -2 10 10.11 1.3
0 2 -10 10.1 1.3
0 -2 -10 9.22 1.26
-2 2 -10 10.19 1.5
2 0 10 9.54 1.3
0 2 10 8.58 1.15
2 -2 10 9.63 1.32
-2 2 -10 10.14 1.41
0 2 -10 10.44 1.43
0 -2 10 9.61 1.32
0 -2 -10 9.24 1.4
-2 0 10 9.53 1.3
-3 2 -10 25.6 2.17
-2 -1 -10 23.42 2.02
2 1 -10 23.84 2.05
1 -3 -10 26.38 2.14
-1 -2 10 24.61 2.09
3 -1 10 23.48 2.08
1 2 10 19.88 2.01
-3 1 10 24.93 2.07
-1 3 -10 23.02 2.13
2 -3 10 22.37 2.11
1 -3 -10 24.28 2.14
3 -2 -10 23.47 2.13
-2 -1 -10 24.83 2.06
-3 2 -10 25.64 2.1
-1 3 -10 25.17 2.19
2 -3 10 25.36 2.09
2 1 10 23.89 2.06
-1 -2 -10 19.25 1.95
-2 -1 10 25.83 2.1
-1 -2 -10 25.54 2.08
-2 3 -10 26.68 2.22
1 2 -10 26.49 2.16
-3 1 -10 25.29 2.16
-3 2 10 25.57 2.09
-3 1 -10 26.06 2.1
3 -2 10 22.01 2.11
1 -3 10 25.55 2.12
3 -1 -10 23.54 2.07
2 -3 -10 25.44 2.16
-2 3 -10 22.34 2.07
0 -3 10 6.16 1.01
-3 3 -10 6.83 1.12
3 -3 10 5.03 0.94
3 0 10 5.7 0.98
-3 0 -10 7.66 1.06
3 0 -10 7.37 1.07
0 3 -10 5.77 1.1
-3 0 -10 5.66 0.96
-3 3 -10 7.24 1.09
0 3 -10 8.69 1.19
0 3 10 4.9 0.89
3 -3 -10 5.69 1.03
-3 0 10 6.5 1.02
3 -3 10 5.73 1.02
0 -3 -10 6.47 1.22
2 -4 -10 6.14 1.01
-4 2 10 4.85 0.92
-2 -2 10 7.18 1.08
2 -4 10 3.83 0.92
2 2 -10 5.88 1.01
-2 4 -10 3.62 0.87
4 -2 -10 5.08 0.97
2 2 10 4 0.85
2 -4 -10 3.86 0.95
-2 -2 -10 6.19 0.96
-4 2 -10 5.92 1
2 -4 10 5.75 1.02
-2 4 -10 5.68 1.07
4 -2 10 4.48 0.91
-4 2 -10 4.69 0.99
-1 -3 10 24.45 2.11
-4 3 -10 23.53 2.1
-4 3 -10 27.35 2.2
4 -3 -10 24.32 2.2
3 1 -10 23.34 2.05
1 -4 -10 24.71 2.07
3 -4 10 24.47 2.1
-3 -1 -10 23.71 2.05
-1 4 -10 26.27 2.2
-1 4 -10 20.62 2.11
-4 1 10 26.67 2.14
4 -1 10 24.78 2.1
1 3 10 20.27 2.01
3 -4 10 23.98 2.14
-1 -3 -10 22.34 1.93
-4 1 -10 20.39 1.88
4 -1 -10 20.05 1.93
4 -3 10 20.29 1.9
3 1 10 18.55 1.85
-3 4 -10 18.75 1.92
-3 4 -10 22 2.01
3 -4 -10 22.37 1.98
-4 3 10 18.2 1.84
1 -4 10 22.41 1.96
1 3 -10 20.99 1.88
-3 -1 10 21.81 1.92
-4 1 -10 22.37 1.91
0 4 -10 1.13 0.86
4 0 10 0.46 0.79
0 4 -10 0.18 0.74
4 0 -10 0.25 0.69
-4 4 -10 0.44 0.75
-4 4 -10 0.71 0.86
4 -4 -10 0.41 0.87
-4 0 -10 0.88 0.73
-4 0 10 0.52 0.82
4 -4 10 0.58 0.77
0 4 10 1.01 0.72
0 -4 10 0.5 0.75
0 -4 -10 0.6 0.68
2 3 10 17.71 1.79
-5 3 -10 20.64 1.95
3 2 -10 19.15 1.89
5 -2 10 22.86 1.94
3 -5 10 19.29 1.95
2 -5 -10 19.46 1.82
-2 5 -10 21.29 1.96
3 -5 10 20.96 1.9
5 -3 -10 19.24 1.95
-5 3 -10 21.01 1.87
-2 -3 10 20.46 1.89
-3 -2 -10 20.16 1.81
-2 5 -10 17.1 1.86
-5 2 10 18.36 1.84
-5 2 -10 14.94 1.67
-5 3 10 13.9 1.62
2 3 -10 16.28 1.65
-3 5 -10 18.55 1.86
3 -5 -10 16.54 1.73
5 -2 -10 15.75 1.68
2 -5 10 17.59 1.75
3 2 10 16.61 1.67
-3 -2 10 18.42 1.76
2 -5 10 17.5 1.75
-5 2 -10 17.71 1.75
-3 5 -10 14.14 1.6
5 -3 10 20.09 1.78
-2 -3 -10 18.4 1.73
4 1 -10 15.57 1.71
1 -5 -10 18.04 1.66
1 4 10 15.26 1.64
5 -4 -10 15.33 1.69
-5 4 -10 16.77 1.71
5 -1 10 18.95 1.65
-5 4 -10 15.35 1.63
-5 1 10 15.89 1.69
4 -5 10 16.75 1.68
-1 5 -10 18.5 1.81
-1 -4 10 17.12 1.7
-4 -1 -10 17.93 1.64
-1 5 -10 14.4 1.66
4 -5 10 16.18 1.74
1 4 -10 19.78 1.94
4 -5 -10 18.82 1.96
-5 1 -10 20.09 1.83
5 -1 -10 19.31 1.82
-4 5 -10 16.75 1.89
5 -4 10 22.25 1.92
-4 -1 10 20.98 1.96
4 1 10 20.81 1.87
-1 -4 -10 18.63 1.79
1 -5 10 20.96 1.94
-4 5 -10 20.26 1.92
0 5 -10 3.69 0.91
0 -5 10 3.63 0.96
-5 0 -10 3.16 0.86
-5 0 10 3.71 1.01
-5 5 -10 1.77 0.81
5 0 10 4.33 1
5 -5 10 4.12 0.95
-5 5 -10 3.51 0.99
0 -5 -10 2.68 0.8
5 -5 -10 2.72 0.95
5 0 -10 4.13 0.96
0 5 -10 1.83 0.77
-3 6 -10 4.21 1.01
-6 3 10 1.96 0.82
3 -6 -10 2.94 0.92
-6 3 -10 3.98 0.91
3 3 -10 3.89 0.94
3 -6 10 3.53 0.99
-6 3 -10 2.69 0.88
6 -3 -10 3.93 1.03
3 -6 10 4.51 1.01
3 3 10 3.72 0.92
-3 -3 -10 4.91 0.97
-3 -3 10 4.74 1.04
6 -3 10 3.1 0.9
4 2 -10 15.7 1.58
6 -2 10 15.68 1.65
6 -4 -10 14.65 1.72
-6 4 -10 12.86 1.63
-2 -4 10 15.39 1.67
2 -6 -10 14.8 1.64
-6 2 10 13.6 1.59
4 -6 10 13.56 1.63
2 4 10 12.78 1.57
4 -6 10 15.16 1.63
-2 6 -10 15.27 1.73
-4 -2 -10 15.16 1.53
-6 4 -10 13.51 1.69
-4 6 -10 18.46 1.85
6 -2 -10 14.84 1.77
-2 -4 -10 15.41 1.67
-4 6 -10 12.43 1.63
-6 2 -10 15.76 1.72
2 4 -10 16.41 1.73
4 2 10 17.06 1.71
2 -6 10 14.82 1.68
4 -6 -10 14.83 1.74
6 -4 10 16.94 1.63
-4 -2 10 17.91 1.79
2 -6 10 16.34 1.78
5 -6 10 2.8 0.85
-6 5 -10 2.81 0.89
-6 5 -10 2.13 0.9
-1 6 -10 3.91 0.93
6 -1 10 4.95 0.98
-1 -5 10 4.87 1.07
-5 -1 -10 3.24 0.82
1 -6 -10 2.49 0.89
5 1 -10 3.37 0.87
6 -5 -10 2.4 0.92
-6 1 10 4.07 0.98
5 -6 10 3.63 0.93
-1 -5 -10 1.01 0.79
1 5 -10 2.5 0.92
1 -6 10 2.04 0.9
-6 1 -10 2.07 0.85
6 -5 10 1.87 0.88
5 -6 -10 1.06 0.95
-5 6 -10 2.33 0.89
-5 6 -10 1.1 0.76
5 1 10 1.87 0.86
-5 -1 10 2.17 0.96
6 -1 -10 2.32 0.86
-6 0 -10 6.24 1.07
6 -6 10 7.68 1.18
0 6 -10 5.61 1.04
0 -6 -10 6.33 1.08
6 -6 -10 4.83 1.13
6 0 -10 7.86 1.18
-6 0 10 6.83 1.21
-6 6 -10 4.5 1.01
6 0 10 7.86 1.12
-6 6 -10 6.58 1.18
0 -6 10 4.81 1.06
7 -3 10 17.39 1.73
-7 4 -10 14.09 1.75
4 -7 10 16.28 1.75
-7 3 10 15 1.74
4 -7 10 17.84 1.83
-3 7 -10 17.97 1.87
-4 -3 -10 16.57 1.73
3 4 10 17.29 1.75
4 3 -10 16.82 1.7
-7 4 -10 14.75 1.77
3 -7 -10 15.89 1.72
-3 -4 10 17.97 1.82
7 -4 -10 15.48 1.73
3 -7 10 15.71 1.71
-7 3 -10 15.64 1.76
7 -4 10 15.55 1.65
-4 7 -10 15.11 1.78
3 4 -10 15.95 1.74
4 -7 -10 15.01 1.7
-4 -3 10 16.14 1.77
4 3 10 17.61 1.73
3 -7 10 15.47 1.81
-7 4 10 11.52 1.56
7 -3 -10 15.56 1.81
-3 -4 -10 14.63 1.65
-7 5 -10 16.89 1.89
2 -7 -10 15.89 1.73
-2 -5 10 17.83 1.82
-2 7 -10 17.86 1.78
5 2 -10 18.6 1.75
-7 5 -10 14.83 1.79
-7 2 10 17.21 1.81
5 -7 10 15.31 1.75
-5 -2 -10 17.14 1.77
7 -2 10 19.11 1.76
7 -5 -10 16.6 1.9
5 -7 10 15.66 1.78
-7 2 -10 20.51 1.99
5 2 10 19.36 1.9
-5 -2 10 21.46 2.07
-2 -5 -10 19.58 1.92
-5 7 -10 21.22 2.11
7 -5 10 20.98 1.93
7 -2 -10 19.31 2.01
2 -7 10 22.51 2.05
2 5 -10 19.73 1.98
2 -7 10 15.34 1.81
5 -7 -10 19.12 1.96
-7 6 -10 0.48 0.85
-1 -6 10 2.02 0.98
-1 7 -10 0.5 0.58
6 -7 10 2.05 0.94
1 -7 -10 1.11 0.78
-1 7 -10 1.4 0.88
7 -6 -10 1.37 1.01
7 -1 10 1.99 0.86
-6 7 10 0.35 0.43
6 1 -10 1.68 0.89
-6 -1 -10 1.32 0.78
-7 6 -10 1.02 0.8
-7 1 10 1.96 0.96
1 -7 10 1.12 0.9
6 -7 -10 0.8 0.92
-7 1 -10 1.78 0.92
7 -6 10 1.63 0.89
-6 -1 10 1.78 0.99
-6 7 -10 1.39 0.96
1 6 -10 1.89 0.95
7 -1 -10 1.52 0.88
-1 -6 -10 1.5 0.85
6 1 10 1.59 0.84
7 -7 10 -0.05 0.3
-7 0 10 -0.09 0.92
0 -7 10 -0.26 0.87
7 -7 -10 -0.24 0.91
-7 7 -10 -0.14 0.93
0 7 -10 0.13 0.41
7 0 -10 0.13 0.61
-7 0 -10 0.47 0.79
-7 7 -10 -0.21 0.63
0 7 -10 -0.26 0.77
7 0 -10 0.25 0.79
7 -7 10 0.31 0.87
7 0 10 0.21 0.84
7 0 10 0.23 0.34
-7 7 10 0.54 0.49
-7 7 10 -0.03 0.48
0 -7 -10 0.61 0.83
-4 8 10 46.29 3.29
-8 4 10 45.02 3.33
4 4 10 41.68 3.32
-4 8 -10 48.98 3.27
-3 -5 10 -0.01 0.62
-5 8 10 0.89 0.64
5 -8 10 0.47 0.81
3 5 10 0.81 0.66
-3 8 -10 1.19 0.59
8 -5 -10 1.23 0.98
-8 5 -10 1.41 0.8
5 3 -10 -0.01 0.48
-8 3 10 0.42 0.54
-8 5 -10 0.02 0.86
-3 8 -10 1.14 0.88
5 -8 10 0.98 0.86
8 -3 10 0.2 0.35
5 3 -10 0.5 0.89
-3 -5 10 1.09 0.9
-8 3 10 0.54 0.8
-5 -3 -10 1.04 0.82
-5 8 10 0.36 0.45
8 -3 10 0.89 0.85
3 -8 -10 0.79 0.82
-3 8 10 1.06 0.59
8 -3 -10 2.04 0.91
-5 -3 10 3 1.06
8 -3 -10 0.01 0.54
-8 3 -10 3.1 1
3 -8 10 2.27 1.01
-5 8 -10 1.21 0.58
-5 8 -10 3.6 1.03
5 3 10 0.03 0.5
-8 5 10 0.09 0.37
-3 -5 -10 2.24 0.88
8 -5 10 0.54 0.34
5 3 10 3.36 0.99
3 -8 10 0.97 0.85
3 5 -10 2.76 0.98
6 2 -10 0.62 0.97
-6 8 10 1.03 0.69
-8 6 -10 0.13 0.93
-6 -2 -10 2.08 0.89
-2 8 -10 1.3 0.93
8 -6 -10 1.38 0.95
2 6 10 0.82 0.64
2 -8 -10 1.01 0.79
-8 2 10 1.25 0.95
-2 -6 10 1.16 0.94
-2 -6 10 0.21 0.66
-6 8 10 0.75 0.58
6 -8 10 1.72 0.91
-8 6 -10 1 0.87
6 -8 10 -0.27 0.51
-2 8 -10 0.66 0.53
8 -2 10 1.63 0.88
8 -2 10 0.74 0.41
-8 2 10 0.42 0.57
6 2 -10 0.9 0.61
-2 8 10 0.71 0.6
8 -2 -10 0.39 0.68
-8 2 -10 0.98 0.85
-8 6 10 0.12 0.58
8 -6 10 0.91 0.79
8 -2 -10 1.5 0.95
2 -8 10 0.53 0.97
8 -6 10 0.8 0.4
6 2 10 0.97 0.91
6 -8 -10 0.86 0.88
-6 8 -10 0.76 1
2 6 -10 1.18 0.9
-6 -2 10 1.72 1.06
6 2 10 0.2 0.67
2 -8 10 0.3 0.62
-2 -6 -10 0.9 0.78
-6 8 -10 0.35 0.55
6 2 10 0.13 0.36
-7 8 10 10.07 1.45
1 -8 -10 11.11 1.47
8 -1 10 9.83 1.09
-8 7 -10 12.6 1.7
-7 8 10 12.59 1.49
-1 -7 10 12.01 1.68
8 -1 10 12.73 1.5
-1 8 -10 13.24 1.55
7 1 -10 8.86 1.42
8 -7 -10 10.86 1.7
-8 1 10 12.62 1.72
-8 7 -10 9.03 1.41
-8 1 10 10.09 1.3
7 1 -10 12.45 1.53
7 -8 10 14.28 1.62
-7 -1 -10 12.13 1.47
1 -8 10 9.51 1.57
-7 -1 10 9.94 1.61
-8 1 -10 10.65 1.51
-7 8 -10 6.9 1.05
1 7 -10 10.69 1.53
-8 7 10 6.24 1.17
7 1 10 7.24 0.95
8 -1 -10 10.44 1.62
-8 1 -10 8.67 1.26
8 -1 -10 9.21 1.42
-7 8 -10 9.48 1.39
8 -7 10 7.69 0.95
8 -7 10 9.75 1.44
-1 -7 -10 9.31 1.42
7 -8 -10 9.66 1.39
-8 7 10 9.24 1.15
-1 -7 -10 10.25 1.46
7 1 10 10.36 1.43
0 -8 -10 1.6 0.74
0 -8 10 2.77 1.09
0 8 -10 3.34 1.05
8 -8 10 3.6 1.04
8 0 -10 2.75 1.01
8 0 10 4 1.02
-8 0 10 2.58 1.12
0 8 -10 1.08 0.49
0 -8 -10 1.89 0.87
-8 8 10 2.72 0.84
8 -8 -10 1.94 1.04
-8 0 -10 1.78 0.84
-8 0 10 1.71 0.63
-8 8 -10 1.43 0.58
-8 8 10 2.43 0.83
8 0 -10 2 0.89
-8 0 -10 2.42 0.71
-8 8 -10 3.65 1.14
8 0 10 1.77 0.51
8 -8 10 1.9 0.55
-5 -4 -10 9.67 1.5
-4 -5 10 11.43 1.63
-5 9 10 8.75 1.36
9 -5 -10 10.86 1.7
9 -4 10 11.25 1.45
-4 -5 10 8.54 1.41
-5 9 10 7.78 1.1
-9 4 10 9.07 1.32
5 4 -10 12.11 1.5
5 -9 10 7.22 1.21
-4 9 -10 11.59 1.65
-9 5 -10 6.9 1.25
9 -4 10 9.62 1.04
-4 9 -10 11.43 1.3
-5 -4 -10 12.16 1.57
5 -9 10 8.64 1.47
4 5 10 9.33 1.52
-9 5 -10 8.35 1.5
4 5 10 8.13 0.95
9 -4 -10 13.21 1.56
5 4 10 6.97 0.99
9 -5 10 8.95 1.06
4 -9 10 10.35 1.65
5 -9 -10 7.98 1.23
9 -4 -10 7.08 1.3
-4 9 10 8.13 1.33
-5 9 -10 10.34 1.66
-5 9 -10 9.55 1.41
-4 -5 -10 9.42 1.5
4 -9 10 8.56 1.49
-4 -5 -10 9.21 1.53
5 4 10 7.87 1.48
-9 5 10 8.01 1.25
9 -5 10 9.19 1.39
4 5 -10 9.13 1.37
-5 -4 10 7.76 1.35
-9 4 -10 9.34 1.55
-5 -4 10 9.48 1.6
6 3 -10 5.61 1.03
9 -6 -10 7.09 1.28
6 -9 10 5.39 1.06
-6 9 10 4.93 0.92
-9 6 -10 3.68 1
-6 -3 -10 5.97 1.06
-3 9 -10 5.77 0.87
9 -3 10 6.34 1.03
-6 -3 -10 6.79 1.15
-6 9 10 6.82 1
-9 6 -10 6.07 1.12
6 3 -10 4.82 0.95
-9 3 10 4.46 0.86
3 6 10 5.13 1.06
9 -3 10 6.06 0.87
-3 -6 10 5.61 1.06
-6 -3 10 5.66 1.16
6 3 10 8.56 1.39
9 -6 10 8.63 1.43
-6 9 -10 8.56 1.35
3 -9 10 9.36 1.7
-3 -6 -10 10.02 1.52
9 -3 -10 10.94 1.44
3 -9 10 5.93 1.14
6 3 10 7.56 1.01
6 3 10 9.65 1.48
-6 -3 10 10.25 1.67
-3 9 10 7.66 1.39
-9 3 -10 9.03 1.51
3 6 -10 8.39 1.27
-9 3 -10 8.28 1.2
9 -6 10 8.43 1.05
9 -3 -10 6.77 1.17
-6 9 -10 10.07 1.52
-3 -6 -10 8.12 1.43
-2 9 -10 5.19 1.12
-7 9 10 4.92 0.98
9 -2 10 5.28 1.06
-2 9 -10 4.72 0.81
-9 7 -10 2.04 0.88
-7 9 10 3.3 0.91
7 -9 10 3.24 0.57
-2 -7 10 4.99 1.17
2 -9 -10 4.26 0.99
7 -9 10 4.45 1.04
-7 -2 -10 4.17 1.03
-9 2 10 4.35 0.9
7 2 -10 5.49 1.14
-9 7 -10 3.02 1.03
-9 2 10 2.88 0.92
9 -7 -10 3.78 1.14
-7 -2 -10 4.84 1.09
-2 -7 10 4.03 1.03
-7 -2 -10 3.21 0.75
7 2 -10 2.55 0.88
9 -2 10 3.52 0.6
2 7 10 4.06 1
-9 7 10 5.21 0.96
7 2 10 4.87 0.72
-2 -7 -10 4.59 1.04
-9 2 -10 6.89 0.96
-7 9 -10 7.09 1.26
9 -7 10 5.95 1.09
2 -9 10 6.5 1.24
7 2 10 9.28 1.29
-7 -2 10 7.65 1.36
-2 -7 -10 9.35 1.3
-9 2 -10 5.43 1.08
-9 7 10 6.93 1.14
2 7 -10 5.1 1.05
-7 9 -10 6 0.96
7 -9 -10 3.9 0.95
9 -2 -10 5.49 1.1
9 -2 -10 7.67 1.27
9 -7 10 7 0.79
-9 1 10 5.89 1.21
8 1 -10 4.24 1.02
8 1 -10 4.31 1.02
-9 1 10 3.25 0.83
-1 -8 10 6.62 1.28
-8 -1 -10 5.11 1.08
-8 9 10 6.6 1.03
-8 9 10 3.35 0.92
8 -9 10 4.69 1.04
-8 -1 -10 5.28 0.88
8 -9 10 5.66 0.74
-8 -1 -10 3.94 0.99
9 -8 -10 5.11 1.27
9 -1 10 4.72 0.65
1 -9 -10 4.32 1
-1 9 -10 5.58 1.11
-1 -8 10 3 0.96
-9 8 -10 7.06 1.24
-1 9 -10 3.46 0.72
8 1 10 8.82 1.44
8 -9 -10 5.67 1.24
-1 -8 -10 8.48 1.42
9 -8 10 7.28 1.16
-9 1 -10 8.13 1.53
-9 1 -10 6.81 1.11
1 8 -10 8.01 1.27
1 -9 10 6.71 1.29
-9 8 10 7.09 1.09
-9 8 10 8.92 1.49
9 -1 -10 6.93 1.21
-8 9 -10 9.96 1.44
8 1 10 7.59 1
-9 1 -10 6.54 1
9 -1 -10 9.33 1.54
9 -8 10 8.5 1.05
-8 9 -10 7.89 1.08
-8 -1 10 9.67 1.68
-9 0 -10 4.79 0.86
0 -9 10 2.65 0.88
-9 9 10 5.25 1
-9 9 -10 4.7 1.13
9 -9 10 4.29 1.05
0 -9 10 5.26 1.24
0 9 -10 2.49 0.6
-9 0 10 3.52 1.14
9 0 -10 3.45 1.02
9 -9 -10 2.08 1.12
-9 9 -10 4.15 0.91
-9 0 10 3.04 0.8
-9 0 -10 2.47 0.88
9 0 10 4.18 1.01
-9 9 10 4.42 0.95
9 -9 10 3.95 0.69
9 0 -10 3.86 1.06
0 9 10 2.62 0.58
-9 0 -10 3.84 1.02
0 -9 -10 3.25 0.98
0 9 -10 3.31 0.97
9 0 10 4.4 0.64
-10 5 10 -0.13 0.5
-5 10 10 -0.08 0.46
-10 5 10 0.55 0.7
10 -5 -10 0.97 1.12
-5 -5 -10 0.59 0.83
-10 5 -10 0.41 0.43
-5 10 -10 2.14 1.09
-10 5 -10 0.24 0.85
5 5 -10 1.05 0.89
5 5 -10 0.44 0.46
10 -5 10 1.94 0.57
-5 10 -10 1.55 0.78
10 -5 -10 1.1 0.86
5 -10 10 0.94 0.91
-5 10 10 0.63 0.63
-5 -5 10 0.8 1.08
-5 -5 10 1.4 0.95
5 5 10 1.88 0.58
-5 -5 -10 1.32 0.91
5 5 -10 1.02 0.65
10 -5 10 1.48 0.9
-5 10 10 1.47 0.78
10 -4 10 19.98 1.68
-6 -4 -10 24.4 2.19
10 -4 10 23.68 2.06
-4 10 -10 24.25 2.25
10 -6 -10 22.5 2.18
-4 10 -10 22.46 1.96
-4 -6 10 19.76 2.11
-6 10 10 18.45 1.96
6 4 -10 18.75 2.04
-6 -4 -10 19.96 2.07
-6 10 10 20.96 2.1
6 4 -10 21.06 2.08
-10 6 -10 18.8 2.11
-4 -6 10 25.53 2.24
4 6 10 19.25 1.72
6 -10 10 19.29 2.09
-10 4 10 20.02 1.94
4 -10 10 14.68 1.91
10 -6 10 18.08 1.56
-10 6 10 18.27 1.78
-4 -6 -10 22.34 2.03
-10 4 -10 19.54 2.07
10 -4 -10 16.31 1.96
-6 10 -10 22.04 2.12
-6 -4 10 17.28 1.96
4 -10 10 13.97 1.78
6 4 10 17.18 1.54
-4 -6 -10 18.18 1.93
-6 -4 10 21.99 2.15
4 6 -10 15.68 1.88
-6 10 -10 19.6 1.83
10 -6 10 21.09 1.91
-10 6 10 16.05 1.82
-10 4 -10 17.59 1.75
-4 10 10 17.57 1.84
10 -4 -10 21.41 2.2
-7 -3 -10 0.83 0.82
7 -10 10 0.7 0.55
7 -10 10 0.43 0.94
-3 10 -10 0.89 1.02
-10 7 -10 -0.22 0.84
-10 7 -10 1.16 0.82
-3 -7 10 0.11 0.91
-7 10 10 1.18 0.89
-10 3 10 0.45 0.73
7 3 -10 0.75 0.88
-7 -3 -10 0.92 0.7
10 -7 -10 0.16 0.59
-7 -3 -10 0.77 0.95
10 -7 -10 1.72 1.08
10 -3 10 1.07 0.52
10 -3 10 0.76 0.85
3 7 10 0.34 0.37
-3 -7 10 0.49 1.01
3 7 10 1.02 0.54
3 -10 -10 0.91 0.79
7 3 -10 1.22 0.87
-7 10 10 1.11 0.78
-3 10 -10 1.26 0.77
-3 -7 -10 0.09 0.78
3 7 -10 0.39 0.87
-10 7 10 1.16 0.62
10 -3 -10 0.79 1.05
7 3 10 0.36 0.52
3 -10 10 0.21 0.97
-10 7 10 0.59 0.54
-10 3 -10 0.38 0.76
3 -10 10 0.4 0.7
-10 7 10 0.34 0.84
3 7 -10 0.26 0.45
10 -7 10 0.44 0.85
-7 -3 10 -0.34 0.83
-3 10 10 0.33 0.68
10 -7 10 0.6 0.56
-3 10 10 0.5 0.39
-7 10 -10 0.42 0.79
-7 10 -10 -0.44 0.89
-7 -3 10 0.12 1.06
10 -3 -10 -0.22 0.89
-3 -7 -10 0.38 0.9
-10 3 -10 0.58 0.95
-8 10 10 5.41 1
-8 -2 -10 4.01 1.08
-2 -8 10 4.42 1.09
-10 2 10 3.27 0.84
-10 8 -10 3.24 1.02
10 -8 -10 3.6 1.19
2 -10 -10 3.2 0.98
10 -2 10 3.56 0.98
8 -10 10 6.47 1.22
-8 10 10 4.79 1.01
8 -10 10 4.98 0.73
-2 -8 10 4.1 1.2
10 -2 10 4.67 0.66
-8 -2 -10 4.54 1.06
2 8 10 3.27 0.66
-2 10 -10 3.6 0.77
-2 10 -10 3.25 1.02
2 8 10 4.21 0.67
8 2 -10 4.96 1.09
8 2 -10 4.53 1.1
-8 -2 -10 3.9 0.83
-2 -8 -10 5.84 1.18
8 2 10 4.7 0.71
8 2 10 7.14 1.22
10 -2 -10 6.38 1.37
2 8 -10 2.8 0.96
-10 2 -10 5.54 0.94
10 -2 -10 4.45 1.14
-10 8 10 3.73 0.96
2 -10 10 4.39 1.19
-8 10 -10 3.91 1.08
-10 2 -10 5.37 1.2
10 -8 10 4.95 0.72
-10 8 10 4.39 0.94
10 -8 10 5.71 1.1
-8 10 -10 5.74 1.03
-8 -2 10 4.8 1.23
-2 10 10 4.05 0.7
9 -10 10 1.48 0.96
1 9 10 0.4 0.59
-10 1 10 0.06 1.25
-1 -9 10 1.37 1.07
-9 -1 -10 0.9 0.74
1 -10 -10 0.74 0.92
-1 10 -10 0.29 0.85
-10 9 -10 0.97 0.74
9 1 -10 1.25 0.94
-9 10 10 1.17 0.78
10 -9 -10 -0.04 1.1
9 1 -10 0.58 0.9
10 -1 10 1.08 0.53
9 -10 10 0.76 0.61
-10 9 -10 0.91 0.96
-10 1 10 0.24 0.73
-9 10 10 1.46 0.93
1 9 10 0.58 0.5
10 -1 10 1.23 0.95
-1 -9 10 0.33 0.87
-9 -1 -10 0.72 0.86
-1 10 -10 1 0.6
-9 -1 -10 0.47 0.85
-9 10 -10 0.66 1.01
-9 -1 10 0.75 0.69
1 -10 10 0.53 0.66
-9 10 -10 0.87 0.85
9 1 10 1.36 0.99
-9 -1 10 -0.14 0.81
10 -1 -10 1.1 1.03
-10 9 10 1.23 0.8
1 -10 10 0.68 1.02
-1 10 10 1.24 0.59
10 -9 10 0.95 0.9
-1 -9 -10 1.18 0.94
10 -1 -10 1.36 1.15
10 -9 10 1.24 0.61
-10 9 10 1.69 0.94
1 9 -10 0.61 0.48
9 1 10 1.26 0.57
-10 1 -10 1.06 0.91
9 -10 -10 0.55 0.97
-10 1 -10 -0.15 0.58
-9 -1 10 2.11 1.14
-1 10 10 0.14 0.34
-10 1 -10 1.55 0.74
1 9 -10 0.71 0.9
10 -10 10 6.67 1.21
-10 10 10 6.45 1.07
0 10 10 3.21 0.63
10 0 -10 5.35 1.13
10 -10 10 5.51 0.77
-10 10 10 6.2 1.1
10 0 10 7.51 0.8
10 0 -10 3.72 1.08
-10 10 -10 7.14 1.01
-10 0 10 5.31 0.95
-10 0 -10 6.48 0.99
10 0 10 5.67 1.15
0 -10 10 4.08 1.16
10 -10 -10 3.18 1.2
0 10 -10 4.33 1.04
-10 10 -10 4.57 1.1
0 -10 -10 4.83 1.14
-10 0 -10 6.06 1.21
0 -10 10 4.9 1.09
0 10 10 4.29 0.82
-11 6 -10 0.47 0.48
6 5 -10 0.42 0.52
-11 6 -10 0.15 0.88
11 -6 -10 0.35 0.84
-5 11 -10 0.5 0.75
-5 -6 10 0.52 1.09
-6 -5 -10 0.34 0.46
6 -11 10 -0.11 0.46
6 -11 10 0.54 0.94
11 -5 10 0.58 0.85
-6 11 10 0.51 0.86
11 -6 -10 0.05 0.99
-5 -6 10 -0.66 0.94
-11 5 10 0.32 0.65
-6 11 10 0.28 0.52
6 5 -10 0.66 0.88
11 -5 10 0.74 0.52
-6 11 10 0.73 0.75
-6 -5 -10 0.15 0.99
-5 11 -10 0.33 1.03
5 6 10 0.13 0.52
-6 -5 -10 0.53 0.9
-11 5 10 0.19 0.75
6 5 -10 0.46 0.78
11 -5 -10 1.09 0.9
-5 11 10 0.35 0.59
-5 -6 -10 0.35 1.02
11 -6 10 0.75 0.53
6 5 10 0.64 0.53
-6 11 -10 0.42 0.74
-6 -5 10 0.71 1.05
-11 5 -10 0.12 0.92
11 -5 -10 0.26 1.08
5 6 -10 0.1 0.64
-5 11 10 0.57 0.62
-6 11 -10 0.9 1.07
5 6 -10 0.26 0.86
-6 -5 10 -0.15 1
-5 11 10 0.75 0.76
-11 6 10 0.14 0.73
5 -11 10 -0.11 0.89
-11 5 -10 0.48 0.67
5 -11 10 -0.49 0.35
11 -6 10 0.62 0.9
-5 -6 -10 -0.18 0.83
-11 6 10 0.51 0.8
-4 11 -10 7.86 1.31
-7 11 10 5.44 1.04
7 4 -10 4.74 1.08
-7 11 10 3.26 0.65
-4 -7 10 4.76 1.16
-4 11 -10 4.99 0.91
11 -7 -10 5.83 1.35
-7 -4 -10 5.3 0.87
11 -4 10 5.94 0.73
-7 -4 -10 6.72 1.31
4 7 10 5.86 0.77
7 4 -10 3.91 1.03
7 -11 10 4.65 0.74
7 -11 10 3.61 1.08
11 -4 10 5.98 1.11
-7 11 10 6.34 0.99
-11 7 -10 3.28 0.98
-4 -7 10 5.83 1.28
-11 4 10 4.82 0.92
-7 -4 -10 3.9 1.07
-11 4 -10 3.71 1.12
4 7 -10 2.93 0.95
-7 -4 10 5.36 1.19
-11 7 10 4.23 1.02
-11 7 10 3.54 0.83
-7 11 -10 5.93 1.03
11 -4 -10 3.15 1.06
11 -7 10 5.14 0.7
-4 -7 -10 3.24 1.08
-11 4 -10 3.43 0.89
7 4 10 4.46 0.71
11 -7 10 4.69 1.06
11 -4 -10 3.92 1.15
-4 11 10 4.39 0.89
-7 -4 10 3.57 1.21
-7 11 -10 3.23 1.05
4 -11 10 3.23 0.96
-4 11 10 2.43 0.71
11 -8 -10 2.35 1.24
-11 8 -10 2.57 0.99
-8 -3 -10 2.27 0.99
-3 -8 10 2.61 1.21
11 -3 10 3.44 0.62
-3 -8 10 1.66 1.02
-8 11 10 2.79 0.88
8 3 -10 2.89 1.04
-11 3 10 2.54 0.88
8 3 -10 1.92 0.98
8 -11 10 2.59 0.68
3 8 10 1.77 0.69
11 -3 10 2.69 0.97
-8 11 10 3.13 1.01
-8 -3 -10 2.89 0.8
3 8 10 1.7 0.61
8 -11 10 3.54 1.11
-3 11 -10 3.57 0.82
-8 11 10 1 0.53
-3 11 -10 1.77 0.94
-8 -3 -10 1.67 0.9
3 8 -10 4.14 1.03
-3 11 10 5.08 0.82
11 -3 -10 7.33 1.42
8 3 10 4.9 0.7
-11 8 10 4.2 0.88
-8 -3 10 2.96 1.03
11 -8 10 6.56 1.22
-3 -8 -10 3.4 1.11
-11 8 10 3.61 0.73
-11 3 -10 6.19 1.29
-8 11 -10 6.52 1.05
11 -3 -10 5.76 1.18
-8 11 -10 6.54 1.26
11 -8 10 5.61 0.73
-11 3 -10 4.93 0.96
-11 8 10 4.82 1.08
-8 -3 10 6.65 1.31
2 -11 -10 11.88 1.63
-11 9 -10 15.57 1.9
9 2 -10 15.16 1.8
-9 -2 -10 15 1.85
2 9 10 13.61 1.37
-2 11 -10 12.8 1.49
-9 11 10 16.01 1.73
2 9 10 15.75 1.57
11 -9 -10 13.64 2.07
-2 -9 10 13.28 1.82
-9 11 10 14.17 1.78
-11 2 10 12.76 1.68
9 -11 10 16.23 1.43
-9 -2 -10 13.36 1.77
9 2 -10 14.65 1.81
9 -11 10 16.19 1.86
11 -2 10 15.03 1.37
-2 11 -10 11.92 1.77
-11 9 -10 14.26 1.49
11 -2 10 16.04 1.84
-2 -9 10 15.85 2.01
-9 11 -10 8.9 1.39
-9 -2 10 10.62 1.81
2 -11 10 7.52 1.28
-2 -9 -10 9.14 1.61
-9 -2 10 5.61 1.1
-11 2 -10 8.62 1.34
11 -2 -10 7.42 1.3
9 2 10 9.23 1.12
11 -2 -10 10.58 1.53
-11 9 10 10.84 1.68
11 -9 10 9.71 1.14
-9 11 -10 8.46 1.38
-9 -2 10 7.28 1.16
-11 9 10 8.39 1.53
-2 11 10 7.78 1.2
11 -9 10 8.81 1.53
-11 2 -10 9.37 1.68
11 -1 10 9.25 1.57
11 -1 10 8.07 1.08
-10 11 10 7.01 1.13
10 -11 10 8.31 1.29
-1 -10 10 8.31 1.4
-10 11 10 8.48 1.45
1 10 10 8.96 1.25
1 -11 -10 6.23 1.22
-11 1 10 9.34 1.14
-10 -1 -10 6.78 1.29
10 1 -10 7.66 1.27
-11 10 -10 8.23 1.27
-11 10 -10 6.91 1.26
-1 11 -10 5.03 1.09
1 10 10 6.76 1.03
-1 11 -10 6.79 0.95
10 1 -10 9.23 1.37
-10 -1 -10 7.67 1.27
11 -10 -10 7.96 1.54
-1 -10 10 5.39 1.15
10 -11 10 7.3 1.11
1 -11 10 7.07 1.34
11 -1 -10 9.62 1.46
11 -10 10 8.42 1.12
-10 -1 10 5.47 1
11 -10 10 6.97 1.22
1 -11 10 7.45 1.31
-11 1 -10 8.32 1.27
-1 11 10 7.33 0.99
-11 1 -10 7.8 1.33
-1 -10 -10 7.26 1.29
10 1 10 9.48 1.59
-10 11 -10 9.99 1.16
-11 10 10 8.36 1.5
10 1 10 9.24 1.13
-10 11 -10 6.5 1.25
-11 10 10 10.47 1.61
-1 11 10 8.1 1.2
11 -1 -10 6.76 1.27
-11 11 -10 5.92 1.26
11 0 10 4.7 1.14
0 11 10 4.66 0.74
11 0 10 6.24 0.8
11 -11 10 6.21 0.84
11 -11 -10 4.25 1.17
-11 0 -10 5.1 0.93
-11 0 10 4.65 0.96
0 -11 -10 5.17 1.15
11 -11 10 4.84 1.17
0 11 10 5.7 0.89
11 0 -10 3.15 0.98
0 -11 10 4.47 1.2
0 -11 10 4.7 1.09
-11 11 -10 4.99 0.9
-11 11 10 5.69 1.12
-11 0 -10 5.63 1.28
-11 11 10 6.43 1.07
-6 12 10 1.29 0.79
6 6 10 2.33 0.6
12 -6 10 3.21 1.05
-6 -6 -10 3.23 1.2
-6 -6 -10 0.36 0.44
-6 -6 -10 0.38 0.74
6 6 -10 1.31 0.78
-12 6 -10 1.24 0.89
-6 -6 10 1.89 1.1
-12 6 10 1.26 0.89
12 -6 10 2.02 0.56
-6 12 -10 2.43 0.86
-6 -6 10 1.06 1.07
-6 12 10 2.1 0.82
-12 6 -10 1.33 0.64
6 -12 10 1.08 0.58
12 -6 -10 2.53 1.25
6 6 -10 -0.13 0.72
12 -6 -10 1.11 0.94
-12 6 10 2.9 0.89
-6 12 10 1.91 0.66
-6 12 -10 1.09 0.99
6 -12 10 0.65 0.93
-7 -5 -10 1.25 0.95
-12 5 10 1.57 0.8
-12 7 -10 0.59 0.42
-5 12 -10 1.57 1.06
5 7 10 1.2 0.59
7 5 -10 0.01 0.66
12 -5 10 1.9 0.55
-12 7 -10 1.23 0.82
-12 5 10 0.48 0.82
-7 -5 -10 1.26 0.7
7 5 -10 0.96 0.86
-5 -7 10 1.81 1.16
7 -12 10 0.15 0.55
-7 12 10 1.63 0.8
-7 -5 -10 1.28 1.12
-7 12 10 1.51 0.67
12 -5 10 1.62 0.97
12 -7 -10 1.72 0.84
-5 -7 10 1.35 1.03
12 -7 -10 0.47 1.14
-5 12 -10 1.75 0.78
-7 12 10 1.67 0.88
7 -12 10 2.33 1.07
12 -7 10 0.7 0.91
5 7 -10 0.01 0.59
7 5 10 0.65 0.54
-12 5 -10 0.58 0.92
12 -5 -10 0.54 0.91
-12 5 -10 0.79 0.69
-12 7 10 1.16 0.86
5 -12 10 -0.16 0.85
-5 12 10 0.5 0.62
-5 12 10 1.04 0.75
-7 -5 10 -0.19 1
-5 12 10 1.03 0.7
-12 7 10 0.88 0.77
12 -5 -10 1.19 1.21
-7 12 -10 1.36 1.03
5 7 -10 -0.27 0.78
-7 12 -10 1.39 0.86
-7 -5 10 1.47 1.17
5 -12 10 0.14 0.47
12 -7 10 1.54 0.57
-5 -7 -10 0.92 1.02
8 -12 10 5.38 1.22
12 -8 -10 5.48 1.44
8 -12 10 4.82 0.78
-4 12 -10 5.69 0.91
8 4 -10 4.35 1.16
-12 4 10 6.56 1.04
-8 12 10 5.95 1.11
4 8 10 5.89 0.94
-8 -4 -10 4.37 1.19
-8 12 10 6.2 0.87
-4 -8 10 4.76 1.18
4 8 10 5.07 0.75
-4 12 -10 3.82 1.08
12 -4 10 5.42 0.71
-8 -4 -10 3.99 0.88
-4 -8 10 6.48 1.38
12 -4 10 4.39 1.09
-8 -4 -10 2.95 1.05
-8 12 10 5.23 0.97
-12 8 10 5.59 0.99
12 -8 10 6.39 1.21
-8 12 -10 5.68 1.23
-12 8 10 5.5 0.96
-8 -4 10 4.37 1.25
12 -8 10 6.41 0.8
-4 -8 -10 7.64 1.4
12 -4 -10 5.62 1.22
-12 8 10 6.86 1.19
8 4 10 6.48 0.81
-8 12 -10 7.91 1.11
12 -4 -10 6.03 1.41
-8 -4 10 6 1.23
-4 12 10 6.55 0.95
-12 4 -10 3.49 0.89
-12 4 -10 6.62 1.32
-3 12 -10 5.69 1.17
3 9 10 4.88 0.92
9 -12 10 5.46 0.79
-3 -9 10 4.71 1.26
9 -12 10 5.36 1.16
-9 -3 -10 3.48 1.08
-9 -3 -10 5.29 0.9
-3 12 -10 5.43 0.86
-9 -3 -10 3.42 1.09
-12 3 10 4.84 0.96
-3 -9 10 4.63 1.16
12 -3 10 5.02 1.12
9 3 -10 5.29 1.2
-12 9 -10 4.81 0.81
3 9 10 4.69 0.75
-9 12 10 5.74 1.06
12 -9 -10 4.82 1.41
-9 12 10 6.65 1.03
12 -3 10 5.83 0.73
-12 3 -10 5.21 0.96
-9 -3 10 6.65 1.37
-12 3 -10 4.2 1.17
12 -3 -10 6.1 1.21
12 -9 10 6.79 1.22
-9 12 -10 8.08 1.38
12 -9 10 7.81 0.86
-3 12 10 7.09 0.97
-12 9 10 7.98 1.39
-12 9 10 7.06 1.16
-9 12 -10 6.55 1.03
12 -3 -10 7.93 1.51
9 3 10 7.72 0.86
-3 -9 -10 6.61 1.33
2 10 10 1.17 0.62
-10 12 10 1.65 0.92
-10 -2 -10 0.77 0.74
10 2 -10 0.03 0.65
-2 -10 10 1.52 1.09
-2 12 -10 1.62 0.68
-10 12 10 1.86 0.86
-10 -2 -10 1.02 0.7
10 2 -10 1.1 1
2 10 10 1.87 0.77
12 -2 10 1.44 0.56
12 -2 10 1.86 1.04
10 -12 10 0.52 1.03
-12 10 -10 0.85 0.89
-10 -2 -10 1.38 0.98
12 -10 -10 -0.12 1.14
-12 10 -10 1.14 0.72
-2 12 -10 0.95 0.76
10 -12 10 0.94 0.62
-2 -10 10 0.58 0.96
-12 2 10 0.91 0.76
12 -2 -10 0.5 1.09
-10 -2 10 0.44 0.82
-10 -2 10 0.42 0.77
12 -10 10 0.64 0.57
12 -10 10 0.16 0.91
2 -12 10 -0.08 0.48
10 2 10 0.03 0.54
12 -2 -10 -0.34 0.89
-2 12 10 0.41 0.45
-10 -2 10 0.19 0.68
-12 2 -10 -0.52 0.9
-10 12 -10 0.4 0.74
-2 12 10 -0.05 0.67
-10 12 -10 0.48 1.04
-12 10 10 1.13 0.9
-2 -10 -10 -0.04 0.94
-12 10 10 0.26 0.84
-12 10 10 0.26 0.45
-12 2 -10 0.32 0.68
-1 -11 10 21 2.18
11 -12 10 26 1.93
1 11 10 27.1 2.04
-12 11 -10 24.46 2.07
11 -12 10 25.51 2.36
-11 -1 -10 20.24 2.01
12 -1 10 23.71 1.91
-11 -1 -10 22.75 2.39
-11 12 10 22.67 2.16
-12 11 -10 24.09 2.32
12 -1 10 23.43 2.31
-1 -11 10 25.57 2.41
11 1 -10 20.13 2.25
-11 12 10 25.85 2.18
1 11 10 23.42 1.88
-12 1 10 18.8 2.12
12 -11 -10 19.89 2.4
-11 12 -10 24.79 2.45
-12 1 -10 25.18 2.1
1 -12 10 23.65 2.14
-11 12 -10 24.04 2.07
-12 11 10 24.06 2.29
12 -11 10 23.86 1.94
12 -1 -10 21.33 2.28
-12 11 10 28.27 2.27
11 1 10 23.13 1.91
-1 12 10 20.09 1.9
12 -1 -10 19.15 2.15
-1 -11 -10 19.96 2.26
12 -11 10 27.25 2.36
-1 12 10 28.37 2.07
-12 1 -10 26.96 2.47
-11 -1 10 25.07 2.15
12 0 -10 0.78 0.83
0 12 10 1.13 0.58
-12 12 -10 0.97 0.99
0 12 10 1.73 0.73
-12 12 10 2.07 0.91
0 -12 10 0.4 0.69
-12 0 10 1.18 0.8
0 -12 10 1.18 0.87
12 -12 10 1.17 1.04
12 -12 10 1.55 0.62
12 0 10 1.37 0.61
0 -12 -10 0.89 0.7
-12 12 -10 1.23 0.74
0 12 -10 0.63 0.66
-12 0 -10 1.05 0.71
-12 0 -10 1.82 1.05
-12 12 10 1.98 0.94
13 -7 -10 3.55 0.97
7 -13 10 5.2 0.8
-7 13 10 8.46 1.18
-13 6 10 5.41 1.1
-13 7 -10 7.45 1.2
-7 13 10 6.57 0.98
7 -13 10 8.71 1.34
-6 -7 10 8.7 1.44
6 7 10 8.42 1
-6 -7 10 6.54 1.23
13 -6 10 5.35 1.12
-6 13 -10 6.8 1.21
-7 -6 -10 8.78 1.42
-7 13 10 5.13 0.97
7 6 -10 5.23 1
13 -6 10 7.61 0.98
13 -7 -10 10.17 1.59
-6 -7 -10 7.01 1.35
-7 13 -10 6.27 1.21
-6 13 10 6.95 1.24
7 6 10 7.94 1.05
6 -13 10 4.27 0.79
13 -7 10 8 1
-13 7 10 6.14 1.11
-13 7 10 7.7 1.05
13 -7 10 8.62 1.5
6 -13 10 6.06 1.12
-6 13 10 6.82 1.01
-13 6 -10 5.91 1.22
13 -6 -10 10.02 1.55
-6 13 10 7.65 1.22
13 -6 -10 4.38 1.04
-13 6 -10 5.37 0.94
-7 -6 10 6.18 1.35
8 -13 10 0.83 1.02
-5 13 -10 1.7 0.75
-8 13 10 2.33 0.69
-5 13 -10 1.62 0.95
13 -8 -10 0.85 1.16
-8 -5 -10 2.29 0.79
-13 8 -10 0.96 0.63
13 -5 10 1.6 0.98
-8 -5 -10 0.75 1.01
-8 -5 -10 0.3 0.66
-5 -8 10 1.61 1.1
8 -13 10 1.64 0.65
13 -8 -10 0.2 0.65
-8 13 10 1.78 0.78
8 5 -10 1.22 0.85
-13 5 10 1.5 0.89
-8 13 10 1.15 0.88
5 8 10 2.09 0.63
13 -5 10 2.55 0.57
-5 -8 10 1.19 0.97
-13 5 10 2.27 0.88
-13 8 10 2.46 0.96
-5 13 10 2 0.73
13 -8 10 1.09 0.95
-13 5 -10 1.4 0.74
13 -5 -10 2.44 1.27
13 -8 10 1.77 0.56
5 -13 10 0.31 0.69
-13 5 -10 1.14 1.02
-5 -8 -10 1.34 1.04
5 -13 10 -0.01 0.53
-5 13 10 0.84 0.66
13 -5 -10 1.49 0.9
5 8 -10 0.18 0.68
-13 8 10 1.12 0.76
-8 -5 10 0.72 1.07
-8 13 -10 2.47 0.8
8 5 10 1.5 0.57
-8 13 -10 1.11 0.95
-8 -5 10 1.07 1.11
9 -13 10 9.63 1.69
13 -9 -10 7.35 1.46
-4 13 -10 9.27 1.36
-9 13 10 10.57 1.25
13 -4 10 10.25 1.13
-13 4 10 9.48 1.19
-9 13 10 10.36 1.44
4 9 10 12.7 1.49
9 -13 10 11.18 1.22
-4 13 -10 8.43 1.4
9 4 -10 8.9 1.52
-4 -9 10 8.01 1.33
4 9 10 9.93 1.16
-9 -4 -10 9.68 1.39
-9 -4 -10 6.43 1.29
13 -4 10 10.78 1.61
-4 -9 10 11.29 1.63
-9 13 10 9.39 1.5
-9 -4 -10 8.48 1.51
-9 -4 10 5.37 1.17
13 -9 10 7.45 1.23
-13 4 -10 9.48 1.12
-13 9 10 7.92 1.06
-9 13 -10 9.47 1.11
-13 4 -10 7.29 1.37
-9 13 -10 8.86 1.42
-13 9 10 6.7 1.18
-9 -4 10 6.91 1.32
13 -9 10 8.03 1.05
9 4 10 7.47 1.04
13 -4 -10 7.11 1.37
-4 13 10 8.3 1.28
-4 -9 -10 5.31 1.23
-13 9 10 9.02 1.46
-13 10 -10 3.8 0.83
10 3 -10 3.37 1.04
-10 13 10 6.55 1.09
13 -3 10 6.16 0.74
-10 13 10 4.83 0.93
-13 3 10 4.86 0.97
-3 13 -10 3.72 0.81
10 -13 10 3.4 1.13
-3 -10 10 3.87 1.24
3 10 10 6.19 0.94
3 10 10 4.79 0.73
-10 -3 -10 5.29 0.9
-3 -10 10 4.33 1.12
13 -3 10 3.64 1.05
13 -10 -10 4.4 1.37
-10 -3 -10 3.25 1.03
13 -3 -10 2.16 0.92
-10 -3 10 1.81 0.6
-13 3 -10 3.96 0.88
-13 10 10 2.73 0.71
10 3 10 2.99 0.6
-10 -3 10 2.3 0.95
-3 -10 -10 2.13 1.09
-13 3 -10 2.31 1.15
-10 13 -10 2.27 1.11
-13 10 10 2.27 0.88
-10 13 -10 3.16 0.8
-10 -3 10 0.45 0.79
-13 10 10 3.62 1
13 -10 10 2.89 0.64
13 -10 10 2.66 1.07
-3 13 10 3.23 0.82
13 -3 -10 1.99 1.07
11 -13 10 6.85 0.84
-11 -2 -10 4.66 0.86
2 11 10 6.36 0.95
13 -2 10 6.66 0.78
11 -13 10 7.63 1.32
-11 13 10 8.02 1.15
-11 13 10 7.39 1.08
-13 2 10 5.44 0.97
-11 -2 -10 4.31 1.11
13 -2 10 4.34 0.99
-2 -11 10 5.56 1.23
2 11 10 6.4 0.82
-13 11 -10 5.82 0.91
-2 -11 10 5.23 1.12
13 -11 -10 3.45 1.2
-2 13 -10 4.87 0.79
11 2 -10 4.05 0.99
-11 -2 10 4.11 0.87
-11 13 -10 5.28 0.88
11 2 10 5.39 0.72
13 -2 -10 4.13 1
-2 -11 -10 3.09 0.97
-13 11 10 6.59 1.07
-13 2 -10 3.75 1.15
13 -11 10 6.47 0.79
-11 13 -10 4.14 1.13
-11 -2 10 3.3 0.92
13 -11 10 4.11 1.08
-2 13 10 4.15 0.72
12 -13 10 4.65 1.17
13 -1 10 8.58 1.11
-13 12 -10 7.43 0.99
-12 13 10 8.66 1.45
-12 -1 -10 7.3 1.02
-12 -1 -10 6.24 1.28
1 12 10 7.59 1.22
1 12 10 6.99 0.88
-12 13 10 6.99 1.1
12 -13 10 7.46 1.1
-13 1 10 6.24 1.03
-1 -12 10 7.02 1.16
-12 13 -10 3.79 0.82
13 -12 10 5.5 0.76
-13 12 10 5.73 1.05
-13 12 10 4.09 1
12 1 10 5.34 0.75
-13 1 -10 4.73 1.15
-12 13 -10 4.41 1.15
-13 1 -10 4.31 0.86
13 -12 10 4.14 1.12
-1 13 10 3.65 0.71
-12 -1 10 2.81 0.87
-1 13 10 6.66 0.93
1 -13 10 2.24 0.87
0 -13 10 15.87 1.73
-13 0 -10 15.62 1.66
-13 13 10 15.68 1.87
13 -13 10 18.78 1.53
-13 13 10 18.9 1.83
0 13 10 18.52 1.66
-13 0 -10 13.38 1.76
13 0 10 18.22 1.48
13 -13 10 12.79 1.81
-13 0 10 17.53 1.77
-13 13 -10 18 1.67
0 13 10 15.47 1.54
-7 -7 10 1.75 1.05
-14 7 -10 2.11 0.76
-14 7 10 3.25 1.02
-7 14 -10 1.99 0.92
-14 7 10 5.42 1.02
-7 -7 -10 2.24 1.05
-7 14 10 2.43 0.77
-7 14 10 3.49 0.76
7 -14 10 3.47 0.7
7 -14 10 1.4 0.81
14 -7 10 2.61 0.59
-7 14 10 2.01 0.8
-7 14 -10 3.97 0.86
14 -7 10 2.87 0.93
7 7 10 3.97 0.68
14 -7 -10 4.42 1.38
-7 -7 10 4.41 1.24
6 8 10 1.8 0.6
-14 6 10 1.37 0.92
14 -8 -10 0 0.73
14 -8 -10 0.68 1.12
-6 -8 10 1.3 1.08
8 -14 10 1.39 1
-14 8 -10 1.54 0.65
-14 6 10 1.32 0.81
-6 -8 10 0.32 0.93
-6 14 -10 1.27 0.71
-8 14 10 1.56 0.73
-8 -6 -10 0.88 0.97
-8 14 10 1.73 0.8
-8 14 10 2.01 0.74
-6 14 -10 1.31 0.78
-8 -6 -10 1.52 0.64
14 -6 10 1.33 0.56
8 6 -10 0.21 0.63
14 -6 10 0.95 0.78
8 -14 10 0.9 0.65
6 -14 10 0.22 0.96
14 -6 -10 0.97 1.23
-14 6 -10 0.69 0.72
14 -6 -10 0.31 0.66
-6 -8 -10 0.33 0.94
-14 8 10 1.04 0.89
-14 8 10 0.98 0.75
-6 14 10 0.78 0.64
-8 -6 10 1.13 1.1
-14 6 -10 0.41 0.69
14 -8 10 0.44 0.84
14 -8 10 1.21 0.55
-8 14 -10 1.35 0.8
8 6 10 0.74 0.56
-6 14 10 0.04 0.64
-8 -6 10 0.29 0.98
6 -14 10 0.38 0.59
-8 14 -10 0.6 0.94
-9 14 10 8.73 1.32
-14 5 10 9.74 1.5
-5 14 -10 8.48 1.3
14 -5 10 9.65 1.12
9 -14 10 5.98 1.31
-5 -9 10 10.8 1.82
-9 -5 -10 7.65 1.45
-5 -9 10 8.72 1.6
5 9 10 11.23 1.51
-9 14 10 10.65 1.29
5 9 10 9.79 1.13
-9 -5 -10 9.23 1.34
9 -14 10 9.16 1.16
14 -9 -10 8.42 1.55
-14 5 10 7.44 1.22
-9 14 10 9.54 1.53
9 5 10 6.64 0.81
14 -5 -10 4.77 1.29
-9 -5 10 4.7 1.11
-9 14 -10 4.28 1.11
-14 9 10 6.67 1.1
-14 9 10 6.34 1.17
-14 5 -10 7.74 1.04
-9 -5 10 5.72 1.16
-5 -9 -10 5.33 1.24
14 -9 10 5.13 1.12
-5 14 10 7.13 1.21
-9 14 -10 8.65 1.04
-14 9 10 7.06 1.06
14 -9 10 6.97 0.8
-10 -4 -10 2.45 0.78
-4 -10 10 2.52 1.02
-14 4 10 1.15 0.78
-10 14 10 2.6 0.87
4 10 10 3.46 0.86
10 -14 10 2.6 0.71
4 10 10 2.99 0.64
-14 10 -10 2.05 0.76
-10 -4 -10 0.92 0.74
14 -4 10 2.9 0.6
-4 -10 10 3 1.17
10 -14 10 1.97 1.05
-4 14 -10 1.65 0.71
14 -10 -10 0.91 1.18
-14 4 10 2.39 0.83
-10 14 10 2.75 0.78
-10 14 -10 2 0.74
-4 14 10 2.49 0.77
14 -10 10 1.49 0.83
-14 4 -10 1.67 0.79
-14 4 -10 2.35 1.01
14 -10 10 2.11 0.63
-14 10 10 1.58 0.74
-10 -4 10 1.35 0.89
-10 14 -10 2.24 1.02
10 4 10 1.75 0.59
14 -4 -10 1.66 0.95
-14 10 10 2.44 1.03
-4 -10 -10 1.33 0.96
-14 10 10 2.04 0.85
14 -3 10 11.4 1.22
-14 11 -10 10.25 1.42
3 11 10 10.8 1.2
-11 14 10 10.53 1.43
-3 -11 10 8.81 1.55
-11 -3 -10 9.62 1.4
-11 14 10 9.77 1.49
3 11 10 11.79 1.45
-14 3 10 8.64 1.43
11 -14 10 9.49 1.69
11 -14 10 10.88 1.22
-3 14 -10 9.33 1.28
-3 -11 10 9.44 1.61
-14 11 10 10.92 1.56
-11 14 -10 6.36 1.23
14 -11 10 9.47 1.15
-14 3 -10 9.88 1.57
14 -11 10 8.24 1.33
-11 -3 10 7.41 1.43
-11 14 -10 10.03 1.27
-3 -11 -10 8.09 1.35
-11 -3 10 8.89 1.2
-14 11 10 11.37 1.66
11 3 10 9.81 1.11
-3 14 10 10.38 1.33
-14 3 -10 10.39 1.39
2 12 10 8.16 0.89
-12 14 10 6.98 1.07
-12 -2 -10 5.45 0.91
2 12 10 7.09 1.24
14 -2 10 5.89 0.8
-14 12 -10 6 0.98
-12 14 10 8.5 1.15
12 -14 10 8.08 0.88
-2 -12 10 7.08 1.37
12 -14 10 4.43 1.14
-14 2 10 4.97 0.96
14 -12 10 7.07 0.81
-14 2 -10 6.75 0.97
-14 12 10 6.61 1.07
-12 -2 10 5.39 0.93
12 2 10 5.18 0.74
-14 2 -10 3.4 1.02
-13 14 10 -0.67 0.81
-14 13 -10 -0.51 0.68
14 -1 10 0.18 0.53
-1 -13 10 0.25 0.8
1 13 10 0.34 0.65
-13 14 10 0.02 0.81
1 13 10 0.36 0.62
-13 -1 -10 0.73 0.71
-14 1 10 0.49 0.72
13 -14 10 -0.1 0.62
13 -14 10 -0.44 0.56
-14 13 10 0.31 0.83
14 -13 10 0.14 0.55
-13 14 -10 0.17 0.57
-14 1 -10 -0.05 0.67
-13 14 -10 0.4 0.66
-14 1 -10 0.27 0.56
13 1 10 0.52 0.55
-13 -1 10 0.72 0.76
-14 13 10 -0.07 0.77
-1 14 10 0.9 0.7
1 -14 10 0.35 0.73
14 -14 10 2.8 0.67
-14 14 10 3.89 0.92
-14 14 10 3.97 0.99
-14 0 -10 3.99 0.8
-14 14 -10 3.43 0.78
0 14 10 3.87 0.8
-14 0 10 2.9 0.8
0 -14 10 2.48 0.85
14 0 10 2.69 0.63
-7 -8 10 8.85 1.61
7 8 10 10.08 1.13
-15 8 -10 8.41 1.31
15 -8 -10 10.71 1.78
-7 15 -10 8.22 1.24
15 -7 10 9.66 1.09
-15 7 10 11.42 1.53
-8 15 10 7.83 1.34
-8 15 10 10.73 1.29
-8 15 10 7.34 1.29
8 -15 10 8.78 1.14
-7 -8 10 9.29 1.6
-15 7 10 8.53 1.55
-8 -7 -10 8.87 1.48
-15 8 10 6.05 1.08
-15 7 -10 3.9 0.87
-8 -7 10 6.48 1.2
-15 8 10 4.55 0.91
-7 15 10 4.06 0.84
15 -8 10 6.37 0.73
-8 15 -10 6.62 0.9
7 -15 10 4.56 0.74
-7 15 10 4.8 0.81
15 -7 -10 3.62 1.09
-8 -7 10 2.63 0.92
-7 -8 -10 3.3 1.01
-9 -6 -10 0.76 0.62
6 9 10 0.41 0.77
-15 6 10 0.27 0.84
15 -9 -10 0.79 1.01
-6 15 -10 -0.14 0.66
-15 6 10 0.63 0.78
9 -15 10 -0.13 0.58
-9 15 10 0.43 0.75
-9 15 10 0.12 0.67
6 9 10 0.14 0.55
-9 -6 -10 0.59 0.67
15 -6 10 1.04 0.55
-6 -9 10 0.26 0.88
-6 -9 10 0.61 0.92
-15 9 -10 0.29 0.47
9 -15 10 0.47 0.7
15 -9 10 1.01 0.51
-15 9 10 0.79 0.77
-6 15 10 0.9 0.67
-15 6 -10 1.11 0.72
-15 9 10 1.3 0.93
6 -15 10 0.74 0.59
-9 15 -10 0.11 0.67
-9 -6 10 0.98 0.95
-6 15 10 1.12 0.65
15 -6 -10 0.22 0.8
-9 15 -10 0.94 0.69
-9 -6 10 0.22 0.79
9 6 10 0.42 0.54
-6 -9 -10 0.73 0.88
-5 -10 10 11.87 1.75
-15 5 10 13.79 1.72
10 -15 10 17.5 1.48
5 10 10 15.92 1.43
-10 15 10 13.41 1.58
-10 -5 -10 15.95 1.64
15 -5 10 16.34 1.41
-5 15 -10 13.93 1.54
-5 -10 10 17.01 1.88
-10 15 10 17.4 1.78
-15 5 10 16.34 1.7
-15 10 10 11.3 1.5
-5 15 10 12.08 1.33
10 5 10 12.11 1.23
-15 10 10 11.52 1.33
-10 15 -10 12.18 1.36
15 -10 10 11.88 1.25
-15 5 -10 11.5 1.54
-15 10 10 13.46 1.84
5 -15 10 9.77 1.2
11 -15 10 13.29 1.33
-15 11 -10 12.45 1.43
-4 15 -10 11.36 1.34
-4 -11 10 13.51 1.75
4 11 10 13.08 1.3
15 -4 10 13.67 1.31
-11 15 10 13.75 1.6
-15 4 10 13.78 1.59
-11 -4 -10 12.47 1.47
4 11 10 16.16 1.59
-15 4 10 9.2 1.39
-11 15 10 10.96 1.46
11 4 10 10.48 1.16
-11 -4 10 7.01 1.41
-15 11 10 10.95 1.66
-4 15 10 9.54 1.3
-11 15 -10 10.31 1.25
15 -11 10 9.78 1.15
-15 11 10 9.3 1.28
-15 4 -10 9.15 1.37
-15 11 10 9.7 1.42
-12 15 10 3.43 0.89
12 -15 10 5.27 0.74
-15 3 10 5.17 0.91
3 12 10 4.76 0.74
-3 -12 10 4.17 1.03
-12 -3 -10 5.34 0.86
15 -3 10 3.78 0.69
-15 12 -10 4.47 0.86
-12 15 10 4.08 0.83
-12 -3 10 1.57 0.8
12 3 10 2.4 0.64
-3 15 10 3.81 0.79
-12 15 -10 3.92 0.79
-12 -3 10 1.51 0.62
-15 3 -10 3.47 0.81
-15 12 10 2.69 0.85
15 -12 10 3.48 0.64
-15 12 10 4.25 1.07
-13 15 10 10.84 1.44
15 -2 10 10.41 1.15
-15 2 10 10.77 1.45
2 13 10 12.76 1.35
-13 15 10 10.35 1.52
-15 13 -10 11.31 1.41
-13 -2 -10 10.39 1.36
13 -15 10 11.1 1.25
2 13 10 11.49 1.29
-2 -13 10 11.63 1.47
-15 13 10 8.12 1.09
13 2 10 6.88 1.07
-2 15 10 7.84 1.24
15 -13 10 7.49 0.86
-13 -2 10 7.27 1.01
-15 13 10 8.25 1.19
-15 2 -10 7.47 1.19
-13 15 -10 7.73 1.19
-14 15 10 0.98 0.79
14 -15 10 0.93 0.57
-14 15 10 1.59 0.79
15 -1 10 1.34 0.54
-15 1 10 1.69 0.7
-15 14 -10 0.72 0.72
1 14 10 1.86 0.7
-1 -14 10 1.47 0.77
-14 -1 -10 0.44 0.64
14 1 10 0.78 0.54
-15 14 10 1.74 0.88
15 -14 10 1.62 0.59
1 -15 10 0.71 0.54
-15 14 10 0.9 0.77
-1 15 10 2 0.72
-14 -1 10 1.16 0.71
-14 15 -10 0.83 0.69
-15 1 -10 1.62 0.69
15 -15 10 0.72 0.53
0 -15 10 0.85 0.68
-15 0 -10 0.76 0.62
-15 15 10 1.22 0.72
15 0 10 0.76 0.51
-15 0 10 0.92 0.67
0 -15 -10 0.48 0.63
-15 15 -10 0.99 0.72
-15 15 10 0.82 0.86
0 15 10 0.41 0.7
-16 8 10 0.62 0.76
-16 8 10 0.43 0.83
8 -16 10 0.2 0.53
-8 16 10 0.74 0.64
16 -8 10 0.67 0.5
8 8 10 0.19 0.54
-16 8 -10 0.2 0.68
-8 16 -10 0.48 0.6
-8 16 10 0.36 0.64
-8 -8 10 0.73 0.9
-7 -9 10 18.97 1.91
-7 16 -10 14.19 1.58
-9 16 10 16.56 1.73
7 9 10 21.55 1.83
16 -7 10 17.25 1.51
9 -16 10 17.8 1.57
-16 7 10 20.45 1.86
7 9 10 17.19 1.53
-16 7 10 18.24 1.92
-16 9 10 12.72 1.57
-16 7 -10 11.76 1.48
-16 9 10 15.9 1.75
-7 16 10 10.6 1.43
-9 16 -10 13.72 1.36
16 -9 10 13.06 1.24
7 -16 10 12.09 1.3
-7 16 10 14.45 1.41
9 7 10 13.29 1.29
-9 -7 10 14.02 1.69
16 -6 10 1.41 0.55
-10 16 10 3.16 0.9
-10 16 10 1.62 0.75
-6 -10 10 3.46 1.04
10 -16 10 2.49 0.64
-16 6 10 2.86 0.85
-6 16 -10 1.59 0.65
-10 -6 -10 1.12 0.57
-16 6 10 1.63 0.87
6 10 10 2.6 0.83
6 10 10 2.35 0.6
10 6 10 2.29 0.62
-16 6 -10 2.83 0.77
-16 10 10 3.35 1.02
-10 -6 10 1.6 0.83
-6 16 10 4.77 0.75
16 -10 10 2.92 0.57
-10 16 -10 2.53 0.71
6 -16 10 1.84 0.62
-16 10 10 2.81 0.84
-5 16 -10 3.11 0.64
-11 -5 -10 3.31 0.77
-16 5 10 3.21 0.9
-16 5 10 4.4 0.85
-5 -11 10 4.02 1.02
-11 16 10 2.33 0.73
-11 16 10 3.59 0.91
11 -16 10 5.56 0.72
16 -5 10 4.08 0.67
-16 11 -10 2.7 0.57
-11 16 -10 5.9 0.83
-11 -5 10 4.51 0.98
-16 11 10 6.95 1.16
16 -11 10 4.95 0.69
-16 11 10 5.06 0.89
11 5 10 4.01 0.71
5 -16 10 3.36 0.68
-5 16 10 5.83 0.8
-16 5 -10 6.53 0.95
4 12 10 9.58 1.15
-16 4 10 8.13 1.34
-12 -4 -10 8.75 1.22
-12 16 10 8.28 1.41
4 12 10 9.87 1.31
16 -4 10 8.4 1.06
-16 12 -10 8.56 1.24
-4 -12 10 9.63 1.48
-12 16 10 7.45 1.22
12 -16 10 10.43 1.13
16 -12 10 10.07 1.11
-16 12 10 10.11 1.35
-16 12 10 10.36 1.62
-12 -4 10 7.12 1.26
12 4 10 9.45 1.12
-4 16 10 9.25 1.19
-12 16 -10 10.24 1.24
-16 4 -10 10.29 1.29
-16 13 -10 0.05 0.66
-3 -13 10 0.66 0.78
-16 3 10 0.5 0.65
-13 16 10 -0.02 0.73
-13 16 10 0.05 0.65
13 -16 10 0.13 0.53
-13 -3 -10 -0.11 0.62
3 13 10 0.74 0.7
16 -3 10 -0.19 0.45
-16 13 10 0.98 0.92
-16 3 -10 0.15 0.62
13 3 10 0.66 0.55
-13 -3 10 0.01 0.41
-16 13 10 0.17 0.74
-13 -3 10 0.27 0.39
-13 16 -10 0.27 0.61
16 -13 10 0.29 0.52
-3 16 10 0.98 0.64
-2 -14 10 2.62 0.82
-14 16 10 3.66 0.79
14 -16 10 3.58 0.65
-16 14 -10 3.8 0.81
16 -2 10 2.61 0.53
-16 2 10 3.56 0.76
-14 -2 -10 3.52 0.72
2 14 10 5.68 0.82
-14 16 10 4.97 0.92
-14 16 -10 2.54 0.73
-2 16 10 3.24 0.77
-16 2 -10 2.5 0.67
-14 -2 10 2.29 0.68
16 -14 10 2.02 0.58
-16 14 10 2.38 0.8
14 2 10 1.95 0.6
-16 14 10 2.74 0.89
-15 16 10 1.3 0.69
15 -16 10 1.68 0.54
-15 16 10 1.98 0.76
-15 -1 -10 1.44 0.59
-16 1 10 1.54 0.65
1 15 10 2.09 0.69
-16 15 -10 1.12 0.67
-1 -15 10 1.89 0.68
-15 -1 10 1.67 0.66
-16 15 10 2.3 0.89
-1 16 10 2.05 0.68
-15 16 -10 1.62 0.72
-1 -15 -10 0.9 0.7
15 1 10 1.55 0.49
-16 15 10 0.89 0.67
-16 1 -10 2.27 0.63
16 -15 10 1.25 0.53
0 -16 10 0.02 0.32
-16 16 -10 -0.19 0.66
-16 0 10 0.11 0.56
-16 16 10 0.14 0.62
16 -16 10 0.36 0.49
0 16 10 -0.04 0.6
-16 16 10 0.16 0.67
-16 0 -10 0.36 0.55
-17 8 10 1.2 0.77
-17 9 -10 0.62 0.52
9 -17 10 1.47 0.56
-8 -9 10 2.05 0.92
-17 8 10 1.42 0.8
-8 17 -10 0.93 0.57
8 9 10 1.58 0.7
-9 17 10 1.86 0.68
8 9 10 1.85 0.57
8 9 10 0.1 0.56
17 -8 10 1.32 0.49
-17 9 10 1.61 0.87
-17 9 10 0.87 0.74
17 -9 10 0.69 0.48
-8 17 10 1.53 0.62
-8 17 10 1.05 0.66
-9 17 -10 0.75 0.56
8 -17 10 0.6 0.5
-17 8 -10 0.98 0.64
-9 -8 10 1.31 0.84
9 8 10 1.22 0.55
7 10 10 0.94 0.51
7 10 10 0.09 0.44
10 -17 10 1.38 0.57
7 10 10 1.35 0.73
-10 17 10 0.44 0.68
-7 17 -10 0.99 0.57
-17 7 10 0.44 0.73
-17 7 10 1.05 0.77
-7 -10 10 2 0.88
17 -7 10 1.19 0.48
10 7 10 0.73 0.54
-10 -7 10 0.38 0.74
-17 10 10 2.06 0.97
-17 10 10 1.21 0.76
7 -17 10 1.07 0.52
-7 17 10 1 0.62
-17 7 -10 0.44 0.6
-10 17 -10 0.76 0.59
17 -10 10 0.99 0.47
-6 -11 10 12.97 1.54
6 11 10 13.14 1.35
-11 17 10 12.3 1.47
11 -17 10 11.56 1.14
17 -6 10 9.87 1.11
-11 17 10 8.34 1.28
-17 6 10 12.08 1.41
-17 6 10 11.84 1.46
6 11 10 11.51 1.18
-6 17 10 7.99 1.07
-17 11 10 7.84 1.26
-17 11 10 9.29 1.55
11 6 10 7.1 1
17 -11 10 7.08 0.92
-11 17 -10 7.8 1.1
6 -17 10 6.76 0.96
-11 -6 10 6.14 1.2
-17 6 -10 5.94 0.86
-17 5 10 9.45 1.28
5 12 10 11.25 1.27
-12 -5 -10 8.64 1.14
-5 -12 10 11.05 1.38
5 12 10 10 1.13
-17 5 10 9.42 1.28
-12 17 10 8.82 1.36
12 -17 10 10.51 1.06
-12 17 10 7.07 1.25
-5 17 10 10.14 1.15
-17 12 10 11.29 1.56
-17 5 -10 8.85 1.23
-12 -5 10 7.92 1.21
-12 17 -10 10.59 1.15
12 5 10 9.62 1.11
5 -17 10 8.89 0.97
17 -12 10 9.03 1
-4 -13 10 13.67 1.48
13 -17 10 12.38 1.26
4 13 10 14.28 1.4
-13 -4 -10 12.66 1.37
-13 17 10 12.98 1.5
-17 13 -10 11.19 1.34
-17 4 10 14.06 1.42
-13 17 -10 10.7 1.26
-17 4 -10 9.74 1.23
-4 17 10 11.66 1.21
-4 -13 -10 9.22 1.36
17 -13 10 11.07 1.11
13 4 10 9.95 1.14
-17 13 10 12.4 1.64
-17 13 10 9.72 1.25
-17 14 -10 2.34 0.7
3 14 10 3.59 0.73
14 -17 10 4.52 0.65
-17 3 10 4.2 0.76
-14 17 10 2.37 0.7
-14 17 10 3.9 0.85
-3 -14 10 2.85 0.79
-14 -3 -10 3.13 0.64
-3 17 10 2.96 0.66
-17 14 10 3.4 0.8
-17 14 10 4.94 1.01
14 3 10 3.12 0.61
-17 3 -10 4.57 0.74
-14 17 -10 6.2 0.81
-3 -14 -10 4.04 0.83
17 -14 10 3.86 0.61
-15 17 10 1.37 0.64
-17 2 10 2.4 0.65
2 15 10 2.85 0.69
-2 -15 10 2.45 0.71
-17 15 -10 2.39 0.66
-15 17 10 1.59 0.72
-15 -2 -10 2.5 0.6
15 -17 10 2.63 0.56
-17 2 -10 2.34 0.62
-2 17 10 3.24 0.66
-17 15 10 3.34 0.9
-2 -15 -10 2.11 0.69
-17 15 10 1.89 0.65
-15 17 -10 2.97 0.65
17 -15 10 2.54 0.54
-16 -1 -10 2.5 0.58
1 16 10 2.46 0.66
-17 1 10 2.3 0.61
-16 17 10 2.07 0.67
-1 -16 10 1.16 0.48
16 -17 10 2.59 0.49
-17 16 -10 1.89 0.62
-16 17 10 2.89 0.67
-16 -1 10 1.79 0.5
-1 17 10 2.67 0.64
-17 16 10 2.65 0.77
-16 17 -10 2.42 0.69
17 -16 10 2.49 0.53
-17 1 -10 2.93 0.59
-17 16 10 1.79 0.68
0 17 10 0.15 0.56
-17 0 10 0.1 0.47
-17 0 -10 0.29 0.49
-17 17 10 -0.39 0.58
17 -17 10 -0.08 0.42
-17 17 -10 -0.35 0.53
-17 17 10 -0.04 0.63
9 9 10 0.49 0.62
-18 9 10 0.92 0.79
-9 -9 -10 0.72 0.73
-18 9 -10 -0.27 0.43
-18 9 10 0.19 0.65
-9 18 -10 0.53 0.53
-9 18 10 0.49 0.63
18 -9 10 -0.03 0.27
-9 -9 10 0.64 0.74
9 -18 10 0.17 0.47
9 9 10 0.95 0.51
-10 -8 -10 3.17 0.78
-10 18 10 3.26 0.76
-8 -10 10 5.81 0.98
10 -18 10 3.72 0.61
8 10 10 5.11 0.79
-18 8 10 3.74 0.8
8 10 10 4.41 0.66
-18 8 10 3.5 0.84
-8 18 -10 2.24 0.59
-18 10 10 3.54 0.76
10 8 10 5.06 0.66
8 -18 10 3.48 0.57
-10 -8 10 4.91 0.88
-10 18 -10 3.89 0.65
-18 8 -10 3.64 0.7
18 -10 10 3.69 0.51
11 -18 10 2.84 0.56
-18 7 10 2 0.7
7 11 10 2.2 0.58
-11 -7 -10 1.83 0.69
-11 18 10 1.98 0.68
-7 -11 10 3.38 0.87
7 11 10 2.95 0.72
-18 7 10 2.57 0.82
-18 11 10 1.5 0.67
11 7 10 1 0.52
-18 7 -10 2.13 0.65
-11 18 -10 1.78 0.58
-18 11 10 1.92 0.84
-7 18 10 1.6 0.59
-11 -7 10 1.23 0.67
7 -18 10 1.84 0.5
18 -11 10 1.26 0.42
-7 -11 -10 1.5 0.73
-12 -6 -10 1.93 0.68
6 12 10 2.25 0.66
12 -18 10 2.67 0.57
-12 18 10 2.66 0.8
-18 6 10 2.78 0.69
-6 -12 10 2.23 0.8
-18 6 10 1.68 0.69
6 -18 10 1.63 0.47
12 6 10 1.38 0.52
-6 18 10 1.87 0.61
18 -12 10 1.25 0.42
-12 18 -10 2.52 0.64
-6 -12 -10 2.72 0.76
-18 6 -10 2.49 0.63
-12 -6 10 1.16 0.63
-18 12 10 1.77 0.85
-18 5 10 -0.03 0.44
13 -18 10 2.92 0.54
-5 -13 10 2.87 0.77
-13 -5 -10 1.33 0.52
-13 18 10 0.8 0.43
-18 13 -10 -0.03 0.38
-18 13 10 2.27 0.87
13 5 10 1.36 0.5
18 -13 10 1.97 0.48
-5 18 10 1.27 0.59
-18 5 -10 1.81 0.62
-13 -5 10 0.77 0.5
-5 -13 -10 2.36 0.74
-13 18 -10 2.17 0.65
-18 14 -10 1.18 0.5
-14 18 10 0.86 0.47
-18 4 10 1.37 0.57
-14 18 10 1.76 0.74
-4 -14 10 2.37 0.73
-14 -4 -10 0.75 0.5
14 -18 10 1.89 0.52
4 14 10 1.24 0.62
18 -14 10 1.54 0.43
-4 18 10 1.37 0.59
-14 18 -10 1.49 0.62
-4 -14 -10 1.34 0.64
14 4 10 0.41 0.31
-18 14 10 1.66 0.86
-18 4 -10 0.98 0.56
15 -18 10 3.17 0.56
-15 18 10 2.18 0.71
-15 -3 -10 1.74 0.53
-18 15 -10 1.49 0.57
-3 -15 10 2.78 0.7
-18 3 10 3.11 0.63
3 15 10 2.69 0.65
-3 18 10 2.6 0.59
-3 -15 -10 1.65 0.61
-18 15 10 2.91 0.92
18 -15 10 1.66 0.45
-15 18 -10 3.41 0.71
-18 3 -10 2.79 0.57
-18 2 10 2.58 0.6
-16 18 10 3.43 0.77
16 -18 10 2.65 0.51
-16 -2 -10 2.64 0.54
-2 -16 10 1.92 0.49
2 16 10 3.38 0.67
-18 16 -10 3.66 0.62
-16 18 -10 2.07 0.61
-18 16 10 2.41 0.8
-18 2 -10 1.89 0.53
18 -16 10 1.4 0.41
-18 16 10 1.07 0.54
-2 18 10 2 0.53
17 -18 10 0.3 0.41
-18 17 -10 0.72 0.55
-17 -1 -10 -0.29 0.46
1 17 10 0.53 0.58
-17 18 10 -0.17 0.61
-18 1 10 0.22 0.47
18 -17 10 -0.07 0.29
-18 17 10 0.44 0.64
-18 17 10 0.25 0.54
-18 1 -10 0.29 0.5
-17 18 -10 0.23 0.59
-1 18 10 -0.08 0.52
0 18 10 0.6 0.52
-18 18 -10 0.29 0.55
-19 9 10 2.22 0.74
9 10 10 1.09 0.55
-9 -10 10 2.6 0.73
-10 -9 -10 2.12 0.7
-19 9 10 1.93 0.63
10 -19 10 1.66 0.49
-10 19 10 2.01 0.62
9 10 10 1.94 0.61
-9 -10 -10 0.97 0.68
-19 10 10 0.52 0.59
-10 19 -10 0.3 0.49
10 9 10 0.45 0.49
-19 9 -10 -0.54 0.36
10 9 10 0.52 0.54
-19 10 10 0.8 0.71
9 -19 10 0.37 0.41
-10 -9 10 0.8 0.66
-19 8 10 4.7 0.82
-11 -8 -10 3.38 0.72
-19 8 10 3.58 0.73
-11 19 10 3.19 0.75
8 11 10 5.5 0.95
-8 -11 10 5.68 1.04
11 -19 10 5.5 0.64
-11 19 -10 3.24 0.63
-8 -11 -10 5.01 0.79
-19 8 -10 2.69 0.58
11 8 10 3.13 0.64
8 -19 10 2.97 0.51
-11 -8 10 1.9 0.64
-19 11 10 3.59 0.82
-19 11 10 2.4 0.6
11 8 10 3.42 0.6
-19 7 10 5.06 0.8
7 12 10 5.84 0.95
-12 -7 -10 4.1 0.74
-12 19 10 3.95 0.78
-7 -12 10 6.17 1.04
12 -19 10 5.28 0.62
-19 7 10 6.26 0.81
-19 12 10 7.82 1.25
-7 -12 -10 5.59 1.09
-12 19 -10 3.95 0.66
7 -19 10 5.12 0.71
-12 -7 10 3.66 0.73
12 7 10 5.37 0.8
-19 7 -10 4.73 0.66
-19 6 10 0.56 0.55
13 -19 10 0.55 0.44
-19 6 10 0.1 0.37
6 13 10 0.61 0.55
-6 -13 10 1.22 0.64
-13 19 10 0.88 0.72
-13 -6 -10 -0.31 0.41
6 -19 10 -0.06 0.29
-6 -13 -10 0.07 0.58
-13 -6 10 0.01 0.36
-19 6 -10 -0.06 0.52
-19 13 10 0.49 0.75
-6 19 10 -0.01 0.52
13 6 10 0.27 0.26
-13 19 -10 -0.07 0.55
-19 5 10 0.88 0.55
14 -19 10 0.71 0.43
-14 19 10 0.09 0.73
5 14 10 0.55 0.56
-5 -14 10 0.89 0.62
-5 19 10 0.62 0.5
-14 19 -10 0.96 0.61
-5 -14 -10 0.42 0.57
-19 14 10 1 0.77
-19 5 -10 0.55 0.51
4 15 10 3.76 0.67
-4 -15 10 2.87 0.65
-15 19 10 4.08 0.85
-19 4 10 2.61 0.62
15 -19 10 2.36 0.5
-15 19 -10 2.76 0.62
-19 15 10 2.24 0.85
-19 4 -10 2.31 0.55
-4 -15 -10 2.42 0.65
-4 19 10 2.4 0.59
-19 3 10 1.36 0.54
16 -19 10 1.29 0.44
3 16 10 1.46 0.59
-16 19 10 1.18 0.76
-19 3 -10 0.93 0.5
-3 19 10 1.04 0.53
-16 19 -10 0.96 0.59
-19 16 10 1.3 0.72
-20 10 10 5.37 0.83
10 10 10 5.09 0.67
-10 -10 -10 5.92 1.09
10 -20 10 5.29 0.75
-20 10 10 3.43 0.67
-10 -10 10 5.37 0.97
-9 -11 10 3.48 0.71
-11 -9 -10 3.24 0.7
11 -20 10 2.52 0.47
-20 9 10 2.42 0.65
9 11 10 1.68 0.55
-20 9 10 1.89 0.59
9 -20 10 1.65 0.42
-11 -9 10 2.83 0.69
-9 -11 -10 2.18 0.68
11 9 10 1.67 0.56
-20 11 10 2.05 0.73
-20 8 10 0.3 0.49
12 -20 10 0.48 0.44
-20 8 10 0.78 0.58
8 12 10 1.05 0.53
-12 20 10 0.63 0.6
-8 -12 10 1.49 0.65
-12 -8 -10 0.59 0.54
-20 12 10 1.16 0.71
-8 -12 -10 1.61 0.66
-12 -8 10 0.76 0.54
12 8 10 0.91 0.51
-12 20 -10 0.89 0.46
8 -20 10 0.97 0.36
-7 -13 10 2.05 0.67
-20 7 10 2.64 0.64
13 -20 10 2.47 0.49
-13 20 10 1.47 0.74
7 13 10 1.69 0.54
-13 20 -10 0.68 0.52
-7 -13 -10 1.72 0.65
13 7 10 0.8 0.5
-20 13 10 1.72 0.77
-20 7 -10 0.71 0.47
-20 6 10 4.22 0.72
14 -20 10 2.9 0.51
6 14 10 4.45 0.65
-6 -14 10 3.16 0.72
-14 20 10 3.52 0.92
-6 -14 -10 2.48 0.65
-14 20 -10 3.1 0.63
-20 14 10 2.86 0.77
-20 6 -10 2.17 0.58
-5 -15 10 1.21 0.59
-15 20 10 1.38 0.81
0 0 -11 -0.45 0.86
0 0 -11 0.06 0.79
0 1 -11 0.86 0.92
0 1 -11 1.04 0.89
1 0 -11 -0.04 0.79
0 -1 11 0.88 0.79
-1 1 -11 0.06 0.85
0 -1 -11 0.54 0.9
0 -1 -11 1.35 0.86
1 0 -11 1.36 0.83
1 0 11 0.62 0.73
-1 0 11 0.86 0.76
1 -1 -11 0.73 0.81
-1 0 -11 1.18 0.88
1 -1 11 0.39 0.65
-1 0 -11 0.62 0.85
0 1 11 0.03 0.55
-1 1 -11 0.04 0.91
1 -1 -11 0.3 0.84
-2 1 11 6.88 1.1
-1 -1 -11 7.12 1.09
1 -2 -11 6.72 1.1
-1 2 -11 6 1.11
1 1 11 4.34 0.97
1 -2 11 6.92 1.09
2 -1 -11 4.7 1.03
-1 -1 -11 5.19 1.08
-2 1 -11 5.23 1.12
1 -2 -11 5.67 1.12
2 -1 11 4.88 1.07
-1 2 -11 6.76 1.16
1 1 -11 6.11 1.14
-2 1 -11 7.68 1.15
1 1 -11 7.82 1.23
-1 -1 11 6.84 1.05
2 -2 -11 0.79 0.8
0 2 -11 1.35 0.82
0 -2 -11 1.81 0.84
-2 2 -11 1.75 0.86
-2 2 -11 1.58 0.94
-2 0 11 2.03 0.81
0 -2 11 2.68 0.87
2 0 11 1.45 0.88
0 2 11 0.37 0.54
2 -2 -11 2.35 0.86
2 -2 11 1.51 0.89
0 -2 -11 1.5 0.9
2 0 -11 1.66 0.89
0 2 -11 1.94 0.94
-2 0 -11 2.26 0.83
-2 0 -11 1.08 0.9
2 -3 11 14.06 1.61
-3 2 -11 14.94 1.74
-1 3 -11 11.83 1.65
-3 1 11 14.93 1.65
-2 -1 -11 15.32 1.65
1 -3 -11 13.69 1.64
1 -3 -11 14.54 1.59
1 2 11 12.27 1.6
2 -3 11 14.57 1.62
3 -2 -11 14.61 1.62
-1 -2 11 14.94 1.63
3 -1 11 14.32 1.7
2 1 -11 13.87 1.57
-1 3 -11 14.7 1.73
-3 2 -11 12.67 1.73
3 -2 11 14.44 1.71
-1 -2 -11 14.98 1.67
2 -3 -11 13.17 1.71
-3 1 -11 14.64 1.68
1 2 -11 13.89 1.55
-3 1 -11 12.83 1.65
1 -3 11 14.1 1.59
1 2 -11 13.7 1.57
2 -3 -11 14.76 1.69
3 -1 -11 14.34 1.69
-2 -1 11 13.61 1.62
-2 3 -11 12.73 1.63
2 1 11 12.25 1.59
-2 3 -11 14.36 1.75
3 -3 -11 0.47 0.87
-3 0 -11 0.22 0.83
0 -3 -11 -0.01 0.52
-3 3 -11 0.04 0.81
0 -3 -11 0.85 0.79
0 3 -11 0.51 0.79
3 -3 11 -0.14 0.89
0 -3 11 0.17 0.82
0 3 11 0.61 0.64
-3 3 -11 0.31 0.73
-3 0 11 0.11 0.82
3 0 11 0.75 0.84
-3 3 11 0.59 0.59
-3 0 -11 0.15 0.61
3 0 -11 -0.02 0.76
0 3 -11 -0.02 0.87
2 2 11 6.58 1.13
-2 -2 11 7.35 1.15
2 -4 11 6.17 1.08
-2 4 -11 8.18 1.22
4 -2 11 8.33 1.24
2 -4 -11 6.89 1.13
2 -4 11 9.02 1.39
2 2 -11 8.02 1.37
-4 2 -11 6.1 1.14
2 -4 -11 7.86 1.28
4 -2 -11 7.8 1.17
-4 2 -11 6.96 1.32
-4 2 11 8.19 1.19
-2 -2 -11 8.34 1.36
-2 4 -11 6.36 1.21
-4 1 11 3.93 0.99
3 1 -11 2.23 0.87
-1 -3 11 3.66 0.99
-1 4 -11 1.19 0.77
3 -4 11 1.5 0.91
1 3 11 2.03 0.88
-4 3 -11 2.77 0.96
-4 3 -11 1.48 0.88
4 -3 -11 2.92 0.99
1 -4 -11 1.86 0.85
-4 1 11 0.44 0.47
-1 4 -11 0.19 0.58
3 -4 11 3.33 0.96
4 -1 11 2.59 0.97
-3 -1 -11 2.09 0.82
-1 4 -11 1.86 0.88
4 -3 11 4.75 1.07
1 -4 11 3.71 0.93
1 3 -11 2.22 0.87
-1 -3 -11 2.74 0.91
-3 -1 11 4.73 1.03
-4 1 -11 1.82 0.74
-3 4 -11 2.94 0.93
4 -1 -11 3.18 0.97
3 -4 -11 3.16 0.98
-4 1 -11 4.37 0.99
1 3 -11 3.05 0.91
3 1 11 2.85 0.91
-3 4 -11 2.9 0.88
-4 0 -11 3.51 0.9
0 -4 11 5.49 1.09
-4 4 -11 3.89 1.08
4 -4 -11 3.45 1.02
0 4 -11 3.05 0.94
4 0 11 5.25 1.08
4 -4 11 3.55 1.03
-4 4 -11 3.89 1.03
4 0 -11 3.78 0.93
-4 0 11 3.61 1.01
0 4 -11 5.87 1.14
0 -4 -11 4.93 1.04
2 3 11 0.48 0.68
-3 -2 -11 0.88 0.76
-2 -3 11 1.46 0.89
-2 5 -11 0.67 0.55
-5 3 -11 1.01 0.92
5 -3 -11 1 0.93
3 -5 11 0.81 0.93
-2 -3 11 0.49 0.6
-5 3 -11 1.59 0.84
-5 2 11 1.16 0.61
2 3 11 0.92 0.88
3 -5 11 1.73 0.92
-2 5 -11 0.71 0.84
-5 2 11 1.2 0.85
5 -2 11 1.07 0.94
3 2 -11 0.78 0.79
-2 5 -11 1.12 0.97
2 -5 -11 1.28 0.89
-3 -2 11 -0.03 0.52
3 -5 -11 0.62 0.77
2 -5 11 1 0.88
-3 -2 11 0.56 0.91
-5 2 -11 0.15 0.71
-3 5 -11 0.24 0.92
-3 5 -11 0.15 0.47
-2 -3 -11 0.93 0.86
3 -5 -11 0.52 0.83
2 3 -11 0.67 0.58
5 -2 -11 1.19 0.8
3 2 11 0.5 0.87
-5 3 11 0.59 0.61
3 2 11 -0.03 0.67
2 3 -11 0.75 0.79
2 -5 11 -0.19 0.66
5 -3 11 -0.23 0.89
-5 2 -11 -0.11 0.84
-3 5 -11 0.81 0.83
-1 5 -11 2.65 0.91
5 -4 -11 2.48 0.99
4 1 -11 3.61 0.98
-5 4 -11 2.52 0.99
4 -5 11 3.14 1.03
-4 -1 -11 2.75 0.9
1 4 11 1.83 0.71
-5 4 -11 2.53 0.92
-1 -4 11 2.32 0.72
5 -1 11 4.27 1.07
-1 5 -11 2.57 0.7
-5 1 11 1.78 0.64
-5 1 11 2.83 0.98
1 -5 -11 2.63 0.86
-1 -4 11 1.76 0.91
-1 5 -11 1.25 0.8
1 -5 11 3.22 0.99
-4 5 -11 2.04 1
5 -1 -11 3.5 0.96
1 4 -11 2.31 0.87
4 -5 -11 1.76 0.96
1 4 -11 3.35 1.01
-5 4 11 1.71 0.6
4 1 11 2.65 0.9
-5 1 -11 2.91 0.95
-4 -1 11 3.38 1.07
-1 -4 -11 2.77 0.92
-4 5 -11 1.81 0.9
1 4 -11 1.81 0.66
5 -4 11 1.98 0.9
5 0 11 1.22 0.92
0 5 11 0.02 0.52
5 0 -11 0.31 0.84
0 5 -11 0.15 0.86
0 -5 -11 1.17 0.85
-5 5 -11 0.22 0.77
-5 5 11 0.75 0.44
-5 0 -11 0.38 0.81
0 5 -11 0.32 0.72
-5 0 11 0.71 0.51
0 5 -11 0.92 0.69
0 -5 11 0.35 0.59
0 -5 11 -0.35 0.9
-5 0 11 0.71 0.9
5 -5 -11 0.39 0.98
-5 5 -11 0.38 0.99
5 0 11 -0.06 0.33
5 0 11 -0.31 0.52
5 -5 11 0.68 0.91
3 -6 -11 0.76 0.85
-6 3 -11 0.66 0.8
-3 6 -11 0.62 0.86
-3 -3 11 0.37 0.76
3 3 -11 1.11 0.91
-3 -3 11 0.97 0.94
-3 6 -11 0.65 0.68
-6 3 11 0.87 0.82
3 -6 11 1.02 0.91
-3 6 -11 0.07 0.67
6 -3 -11 1.42 0.94
-6 3 11 1.12 0.69
3 3 11 0.37 0.79
6 -3 11 -0.01 0.28
-3 6 11 0.32 0.57
-3 -3 -11 1.19 0.81
-6 3 -11 1.3 0.93
3 3 11 1.36 0.88
6 -3 11 0.26 0.89
3 -6 11 1.3 0.92
-2 -4 11 0.91 0.98
4 -6 11 0.94 0.94
6 -4 -11 -0.4 0.96
2 -6 -11 0.93 0.87
-2 6 -11 -0.15 0.57
-6 4 -11 0.45 0.8
-6 2 11 0.16 0.84
-2 6 -11 1.14 0.71
-4 -2 -11 0.88 0.8
-6 2 11 0.99 0.68
6 -2 11 0.88 0.89
2 4 11 0.52 0.81
-2 -4 11 0.2 0.75
6 -2 11 0.2 0.3
4 -6 11 0.58 0.85
-2 6 -11 1.4 0.97
-6 4 -11 0.78 0.94
4 2 -11 0.97 0.9
-4 6 11 0.52 0.58
-4 -2 11 0 0.66
2 4 -11 0.44 0.88
2 4 -11 0.05 0.65
-2 6 11 0.54 0.63
2 -6 11 -0.13 0.63
-2 -4 -11 0.19 0.78
4 2 11 0.18 0.87
-4 -2 11 0.02 0.97
6 -4 11 -0.1 0.29
6 -4 11 -0.01 0.94
-6 4 11 0.22 0.64
4 2 11 -0.38 0.76
-4 6 -11 -0.42 0.86
4 -6 -11 -0.03 0.7
-4 6 -11 0.43 0.6
6 -2 -11 0.56 0.93
4 -6 -11 -0.16 0.74
-6 2 -11 0.77 0.82
2 -6 11 -0.28 0.89
-4 6 -11 -0.26 0.73
-1 6 -11 3.62 1.02
1 -6 -11 2.32 0.86
1 5 11 3.04 0.88
-6 5 -11 3.24 1.11
5 -6 11 3.54 1.05
-6 1 11 2.64 0.99
5 1 -11 3.11 0.91
-5 6 11 1.71 0.67
-1 -5 11 5.6 1.2
6 -5 -11 3.15 1.13
6 -1 11 1.81 0.45
6 -1 11 3.54 1
-5 -1 -11 4.74 1.04
-1 6 -11 2.57 0.79
-6 5 -11 2.78 0.97
-6 1 11 2.96 0.8
-1 -5 11 2.97 0.87
1 5 -11 4.95 0.81
-5 6 -11 5.59 1.2
6 -1 -11 6.22 1.14
1 -6 11 2.84 0.69
5 1 11 4.67 1.04
-5 -1 11 4.76 1.15
1 -6 11 4.41 1.07
6 -5 11 4.01 0.97
-5 -1 11 3.21 0.69
1 5 -11 5.1 1.01
5 -6 -11 4.63 1.17
-1 -5 -11 4.99 1.01
5 1 11 3.19 0.82
-5 6 -11 2.62 0.64
-6 5 11 4.08 0.73
5 1 11 1.94 0.43
-6 1 -11 5.1 1
1 5 -11 2.23 0.75
-5 6 -11 3.13 0.89
-6 6 11 2.32 0.59
0 -6 11 4.78 1.13
0 -6 11 4.32 0.91
-6 6 -11 3.72 1.1
-6 0 11 6.18 1.25
6 0 11 3.01 0.59
0 -6 -11 5.26 1.07
-6 0 11 2.78 0.75
6 -6 11 5.96 1.13
0 6 11 3.8 0.86
-6 6 -11 2.34 0.91
6 0 -11 5.24 1.07
0 6 -11 4.56 0.85
-6 6 11 2.94 0.78
6 -6 -11 3.02 1.07
7 -3 11 2.66 0.59
4 -7 11 2.46 1
-7 3 11 2.02 0.92
-4 -3 -11 1.39 0.81
-3 -4 11 1.83 0.91
3 -7 -11 3.69 1.01
7 -4 -11 2.43 1.04
-7 4 -11 1.87 0.97
-3 7 -11 2.56 1
7 -3 11 3.3 0.96
3 4 11 1.62 0.94
4 -7 11 2.93 1.03
-7 3 11 2.89 0.82
-7 4 -11 1.33 0.83
-4 7 11 2.4 0.81
-3 7 -11 2.59 0.83
-3 -4 11 3.09 1.13
4 3 -11 3.02 1.02
-7 4 11 0.21 0.7
-7 3 -11 0.83 0.85
3 -7 11 0.74 0.96
4 3 11 0.38 0.89
-4 7 -11 -0.46 0.91
-3 7 11 0.48 0.77
7 -4 11 -0.06 0.91
4 3 11 0.13 0.37
4 -7 -11 0.52 0.84
7 -4 11 0.71 0.49
3 -7 11 0.48 0.81
-4 -3 11 0.39 0.84
3 4 -11 0.02 0.93
7 -3 -11 0.25 0.98
-4 7 -11 0.99 0.73
-3 -4 -11 0.39 0.72
-4 -3 11 0.52 0.99
4 3 11 0.77 0.94
3 4 -11 0.84 0.69
-7 5 -11 1.28 0.96
-2 -5 11 1.77 0.92
-5 -2 -11 2.59 0.98
7 -5 -11 1.88 0.98
7 -2 11 2.5 0.97
2 -7 -11 2.21 0.91
-7 2 11 3.08 0.84
-5 7 11 3.49 0.88
-7 5 -11 0.97 0.96
-7 2 11 2.37 1.01
5 -7 11 3.08 1.01
2 5 11 2.86 0.98
5 2 -11 1.94 0.93
7 -2 11 2.89 0.6
-2 -5 11 3.61 1.16
-2 7 -11 3.46 0.9
-2 7 -11 3.03 1.03
-2 -5 -11 1.76 0.83
7 -5 11 2.74 0.6
2 5 -11 3.66 0.79
-5 -2 11 2.41 0.9
5 2 11 4.03 1.12
2 -7 11 2.9 1.05
5 -7 -11 3.13 0.98
7 -2 -11 3.73 1.11
-7 5 11 2.76 0.76
5 2 11 2.18 0.54
2 5 -11 4.03 1.12
-2 7 11 2.88 0.78
-7 2 -11 4.46 1.13
-5 7 -11 3.96 0.88
5 2 11 2.98 0.99
7 -5 11 4.78 1.11
-5 -2 11 3.84 1.18
-5 7 -11 3.74 1.12
-6 7 11 0.51 0.83
-1 7 -11 0.27 0.88
-7 6 -11 -0.16 0.84
6 -7 11 0.21 0.34
6 -7 11 0.2 0.87
-1 7 -11 -0.18 0.76
1 6 11 -0.34 0.85
6 1 -11 0.01 0.94
-1 -6 11 -0.03 0.96
-6 -1 -11 0.25 0.85
-7 6 -11 -0.37 0.93
-6 7 11 0.54 0.39
1 -7 -11 0.33 0.87
-1 -6 11 0.54 0.87
7 -1 11 0.4 0.89
-7 1 11 0.62 0.73
7 -1 11 -0.18 0.52
-7 1 11 0.07 0.93
7 -6 -11 -0.43 0.99
6 -7 -11 0.27 0.98
-7 6 11 0.37 0.78
7 -6 11 -0.27 0.5
-6 -1 11 0.09 0.63
1 -7 11 -0.06 0.97
-6 -1 11 0.81 0.6
7 -6 11 -0.46 0.94
-6 -1 11 -0.35 1.03
1 -7 11 -0.02 0.69
-7 1 -11 -0.21 0.88
-1 -6 -11 -0.01 0.84
-7 6 11 0.23 0.61
1 6 -11 1.13 0.75
-6 7 -11 -0.51 0.87
-6 7 -11 0.18 0.7
7 -1 -11 -0.15 0.89
6 1 11 -0.17 0.5
6 1 11 -0.06 0.82
1 6 -11 -0.19 0.86
-6 7 -11 -0.12 0.99
-1 7 11 0.11 0.55
6 1 11 -0.07 0.95
-7 0 -11 1.55 0.89
7 0 11 2.13 0.94
-7 7 -11 1.87 0.77
7 0 11 1.01 0.66
7 -7 -11 0.84 1.07
7 0 11 1.52 0.55
7 -7 11 1.65 1.04
0 7 -11 1.71 0.8
0 -7 11 2.49 1.14
-7 0 11 1.26 1.08
0 7 11 1.66 0.87
-7 0 11 0.07 0.5
0 -7 11 0.84 0.87
7 -7 11 1.17 0.57
-7 7 -11 1.32 1.02
-7 0 11 1.2 0.75
0 -7 -11 1.46 0.91
0 7 -11 2.91 1.02
-7 7 11 1.79 0.96
7 0 -11 2.68 1.03
-7 7 11 0.87 0.49
-4 8 -11 30.93 2.38
4 4 11 27.52 2.53
8 -4 -11 29.34 2.66
4 -8 -11 25.69 2.47
-4 -4 11 31.97 2.7
-4 8 -11 31.16 2.65
-8 4 -11 25 2.45
-4 -4 11 30.52 2.52
4 4 -11 30.54 2.56
-8 4 11 29.77 2.44
4 -8 11 26.36 2.52
8 -4 11 33.26 2.54
-4 -4 -11 24.93 2.48
-4 8 11 26.12 2.44
4 -8 11 30.96 2.56
8 -4 11 27.79 2.18
4 4 11 26.56 2.15
4 4 -11 29.46 2.38
5 -8 11 9.81 1.47
8 -3 11 11.26 1.62
3 5 11 8.44 1.01
-3 -5 11 10.71 1.58
-5 8 11 10.46 1.49
-5 -3 -11 10.23 1.45
-3 8 -11 11.17 1.42
3 -8 -11 9.3 1.47
5 -8 11 9.68 1.62
-8 3 11 8.91 1.44
8 -5 -11 9.43 1.46
-8 3 11 11.61 1.51
-3 -5 11 12.03 1.75
5 3 -11 10.32 1.61
3 5 11 10.97 1.62
-3 8 -11 12.13 1.75
-8 5 -11 9.25 1.47
8 -3 11 10.09 1.14
5 3 11 17.5 1.87
3 5 -11 16.4 1.89
-5 -3 11 14.89 1.8
5 3 11 12.33 1.83
-3 -5 -11 14.35 1.67
5 -8 -11 14.27 1.79
-8 3 -11 15.33 1.89
-5 8 -11 16.68 2.02
3 5 -11 16.18 1.66
3 -8 11 16.91 1.98
5 3 11 13.57 1.4
-8 5 11 15.44 1.71
8 -5 11 16.7 1.85
8 -5 11 14.11 1.42
-3 8 11 13.73 1.69
8 -3 -11 14.94 1.83
-5 -3 11 17.27 2.02
-5 8 -11 15.77 1.74
-2 -6 11 10.13 1.46
6 2 -11 9.01 1.33
8 -6 -11 6.75 1.32
2 6 11 8.11 1.28
6 -8 11 5.88 1.18
-8 2 11 8.71 1.56
-2 8 -11 7.45 1.06
-2 8 -11 10.18 1.41
2 -8 -11 4.95 1.07
-6 8 11 7.52 1.13
8 -2 11 7.69 1
8 -2 11 6.53 1.18
-8 6 -11 6.46 1.24
-8 6 -11 6.54 1.27
-6 -2 -11 7.64 1.23
-8 2 11 7.9 1.06
6 -8 11 5.6 0.85
-2 -6 11 8.38 1.24
-2 -6 -11 7.2 1.21
6 2 11 5.94 1.17
8 -2 -11 5.86 1.17
-6 8 -11 9.31 1.44
-6 -2 11 7.3 1.37
-6 8 -11 6.42 1.03
6 2 11 7.08 0.86
2 6 -11 7.48 1.28
6 2 11 7.13 1.19
-8 2 -11 6.46 0.99
-8 6 11 7.23 1.15
8 -6 11 9.43 1.34
2 -8 11 8.88 1.44
-6 -2 11 7.67 1.23
2 6 -11 7.88 1.06
8 -6 11 7.47 1.11
-8 6 11 7.04 0.99
-8 2 -11 6.75 1.2
-8 1 11 5.91 1.27
-1 8 -11 6.74 1.25
1 7 11 6.37 1.18
8 -1 11 7.05 1.02
-1 -7 11 6.51 1.28
7 -8 11 5.29 0.78
-8 1 11 5.75 0.99
8 -1 11 6.05 1.16
-7 -1 -11 5.72 1.08
8 -7 -11 5.04 1.27
-8 7 -11 4.39 1.16
-8 7 -11 7.48 1.09
1 -8 -11 4.03 0.98
-7 -1 -11 7.78 0.99
-7 8 11 6.97 1.11
7 1 -11 5.38 1.16
7 -8 11 8.22 1.31
-1 -7 11 4.47 1.07
-1 8 -11 8.19 1.07
8 -1 -11 9.88 1.66
1 -8 11 10.47 1.75
7 1 11 8.52 1.12
-8 1 -11 9.02 1.38
1 7 -11 8.92 1.43
-7 -1 11 8.32 1.36
-8 7 11 8.22 1.24
-1 -7 -11 8.78 1.42
7 1 11 6.07 1.19
7 1 11 10.52 1.6
-7 8 -11 10.17 1.39
-1 8 11 6.65 1.24
-8 7 11 8.08 1.19
7 -8 -11 5.88 1.23
-7 -1 11 9.84 1.77
-7 8 -11 8.73 1.39
1 -8 11 9.18 1.46
8 -7 11 10.83 1.62
1 7 -11 8.91 1.41
-1 -7 -11 6.91 1.2
8 -7 11 8.64 1.2
-8 1 -11 10.85 1.58
-7 -1 11 8.42 1.37
-8 0 11 2.46 1.17
-8 8 11 2.22 0.94
8 0 11 1.72 1
8 0 -11 2.1 1.03
-8 0 -11 2.16 0.96
-8 8 11 1.65 0.53
8 0 11 1.8 0.82
0 8 11 1.31 0.88
0 -8 -11 2.68 0.98
0 8 -11 2.63 1.08
0 8 -11 2.47 0.84
8 0 11 2.42 0.57
-8 0 -11 1.08 0.85
0 -8 11 1.3 0.9
-8 0 -11 2.37 0.82
-8 8 -11 2.28 1.12
0 -8 11 1.59 1.08
8 -8 11 2.35 1.04
8 -8 -11 0.88 1.08
8 -8 11 1.8 0.62
-8 8 -11 1.56 0.84
-8 0 11 1.28 0.76
-9 5 -11 10.54 1.69
-5 9 11 11.46 1.62
-5 -4 -11 13.61 1.75
5 -9 11 11.54 1.67
-4 -5 11 11.79 1.69
4 5 11 11.59 1.85
-4 -5 11 14.69 1.91
9 -4 11 12.01 1.25
-9 4 11 12.03 1.63
-4 9 -11 13.9 1.85
9 -5 -11 13.79 1.95
9 -4 11 14.73 1.74
-9 5 -11 10.02 1.36
-5 -4 -11 11.43 1.67
-4 9 -11 12.75 1.61
5 4 -11 14.93 1.6
5 4 -11 13.21 1.75
4 5 11 11.68 1.3
-9 5 11 13.37 1.66
4 -9 11 12.11 1.66
-4 -5 -11 11.8 1.66
-5 -4 11 13.42 1.72
-5 9 -11 13.84 1.65
9 -4 -11 13.74 1.95
-9 4 -11 10.85 1.73
-4 -5 -11 15.53 1.79
5 4 11 12.11 1.34
-5 -4 11 13.97 1.93
4 5 -11 13.73 1.77
-9 4 -11 11.89 1.58
9 -5 11 13.88 1.8
4 -9 11 9.46 1.55
-4 9 11 13.93 1.66
9 -5 11 13.29 1.31
-5 9 -11 14.85 1.95
5 4 11 11.99 1.91
4 5 -11 14.6 1.54
3 6 11 15.95 2.01
-3 -6 11 17.59 1.91
6 -9 11 14.51 1.45
-9 6 -11 13.69 1.86
9 -3 11 21.59 1.98
9 -3 11 17.84 1.5
-3 -6 11 20.88 2.17
-6 -3 -11 20.07 1.98
-3 9 -11 18.79 1.94
3 6 11 15.03 1.48
-3 9 -11 19.26 1.78
-6 -3 -11 15.74 1.88
9 -6 -11 17.17 2.02
-6 9 11 18.04 1.82
-9 3 11 18.96 1.87
6 3 -11 20.37 2.03
6 -9 11 15.17 1.93
-9 6 -11 13.13 1.71
-9 6 11 17.29 1.84
-9 3 -11 18.73 1.83
3 6 -11 16.63 1.66
9 -6 11 19.5 1.96
-6 -3 11 19.21 2.19
-3 -6 -11 16.22 1.91
-9 3 -11 16.6 1.97
6 3 11 16.63 1.57
-9 6 11 15.51 1.91
3 -9 11 19.16 2.09
6 3 11 16.39 2.08
-6 9 -11 19.34 2.11
-6 -3 11 18.48 2
3 6 -11 16.45 1.9
9 -6 11 17.29 1.59
-6 9 -11 17.95 1.84
9 -3 -11 19.55 2.17
-3 -6 -11 19.49 1.99
-3 9 11 15.31 1.68
9 -2 11 4.13 0.67
-2 9 -11 5.68 1.23
9 -2 11 5.51 1.15
-9 2 11 3.74 0.87
-2 9 -11 3.52 0.85
-7 -2 -11 3.94 0.82
-7 9 11 7.08 1.09
2 -9 -11 4.64 1.04
7 -9 11 5.78 1.16
2 7 11 4.02 0.67
7 2 -11 5.84 1.18
-2 -7 11 6.12 1.33
-2 -7 11 3.56 1.02
9 -7 -11 4.52 1.24
-7 -2 -11 3.6 1
-7 9 11 5.35 1
7 -9 11 3.18 0.7
-9 7 -11 4.71 1.11
-7 -2 -11 6.06 1.14
-9 2 -11 5.46 1.19
-9 2 -11 6.69 1
2 7 -11 3.92 1.02
-7 -2 11 5 1.28
7 2 11 4.72 1.15
9 -7 11 4.79 0.72
-7 -2 11 2.62 0.75
-7 9 -11 5.61 0.97
9 -2 -11 4.07 1.16
7 2 11 6.2 1.24
2 7 -11 4.48 0.85
-7 9 -11 4.17 1.22
2 -9 11 3.22 0.88
-9 7 11 4.16 0.79
9 -7 11 7.05 1.24
7 2 11 6.3 0.77
2 -9 11 5.14 1.26
-9 7 11 5.12 1.07
-7 -2 11 4.16 1.05
-2 -7 -11 3.11 0.93
-2 -7 -11 6.55 1.2
-8 -1 -11 4.45 1.12
-1 9 -11 5.31 0.91
-1 -8 11 3.74 1.01
-9 8 -11 3.84 0.9
-8 -1 -11 5.27 0.91
-8 9 11 5.85 1.08
-1 9 -11 3.36 1.06
8 -9 11 2.69 1.06
8 -9 11 4.63 0.74
-1 -8 11 2.9 1.14
-8 9 11 4.85 0.99
9 -8 -11 4.4 1.28
-8 -1 -11 4.6 1.03
-9 1 11 3.18 0.89
1 -9 -11 2.98 1
8 1 -11 4.42 1.16
9 -1 11 3.7 0.65
1 8 11 2.44 0.57
-9 8 -11 4.84 1.2
1 8 11 2.59 0.59
9 -1 11 6.42 1.21
1 -9 11 1.12 0.93
-8 9 -11 3.4 1.19
-1 -8 -11 2.47 0.98
-1 9 11 1.87 0.55
8 1 11 4.43 1.16
-8 -1 11 2.04 0.9
1 8 -11 2.65 0.8
8 -9 -11 0.37 0.78
9 -8 11 3.1 0.67
-8 -1 11 2.71 1.2
-8 -1 11 2.67 0.8
9 -8 11 3.09 1.12
-9 8 11 2.05 0.65
-9 8 11 3.79 0.96
8 1 11 3.19 0.64
-9 1 -11 1.64 0.94
1 8 -11 3.05 1.04
9 -1 -11 3.31 1.17
-8 9 -11 2.45 0.87
-9 1 -11 3.65 0.85
-9 1 -11 0.92 0.67
1 -9 11 3.85 1.24
-9 9 -11 2.19 1.05
9 0 11 3.42 0.63
-9 9 -11 3.62 0.92
9 0 11 4.36 1.16
-9 9 11 4.39 1.02
-9 9 11 3.33 0.98
9 0 -11 3.55 1.2
0 -9 -11 3.5 1.06
-9 0 11 2.42 0.93
9 -9 11 3.85 0.7
9 -9 11 3.29 1.05
0 9 11 2.31 0.63
-9 0 -11 3.15 1.12
-9 0 11 1.91 0.8
0 -9 11 2.14 0.94
0 9 11 1.7 0.5
-9 0 -11 3.34 0.82
-9 9 11 1.48 0.49
0 9 -11 2.54 0.77
0 -9 11 2.96 1.17
9 -9 -11 2.16 1.11
0 9 -11 1.22 0.91
-9 0 -11 1.49 0.76
5 5 -11 1.11 0.72
5 -10 11 0.06 0.84
-10 5 11 0.97 0.78
-5 -5 -11 1.13 0.72
-5 -5 -11 0.67 0.97
5 -10 11 0.07 0.36
-5 10 11 0.96 0.84
-5 -5 11 -0.04 0.94
-5 10 -11 1.11 1.06
-5 -5 -11 0.77 0.87
-10 5 -11 0.5 0.93
10 -5 11 0.88 0.53
10 -5 11 -0.01 0.96
-10 5 11 0.39 0.81
5 5 -11 0.98 0.93
-5 10 11 0.03 0.32
-10 5 -11 0.76 0.73
10 -5 -11 0.52 1.09
-5 -5 11 0.69 1.13
5 5 11 1.14 0.6
-5 10 -11 0.68 0.81
-6 10 11 10.27 1.55
-10 4 11 11.06 1.58
-10 6 -11 9.58 1.27
-6 -4 -11 10.5 1.44
6 -10 11 9.13 1.15
10 -6 -11 11.69 2.02
4 6 11 11.2 1.22
6 4 -11 11.07 1.45
6 4 -11 9.84 1.61
10 -4 11 10.72 1.18
10 -4 11 12.24 1.62
-4 -6 11 10.68 1.93
-4 10 -11 12.33 1.54
-6 -4 -11 11.2 1.71
-6 -4 -11 9.55 1.61
-4 -6 11 10.19 1.61
-4 10 -11 11.73 1.6
-6 10 11 10.83 1.62
-10 4 -11 6.82 1.32
-6 10 -11 9.25 1.41
4 6 -11 7.36 1.27
-6 -4 11 9.04 1.63
6 4 11 8.79 1.11
-4 -6 -11 9.25 1.63
-4 -6 -11 6.67 1.21
-10 6 11 9.28 1.26
-10 6 11 7.29 1.07
10 -6 11 8.81 1.55
4 6 -11 8.08 1.24
-6 -4 11 7.11 1.43
10 -6 11 9.04 1.1
-4 10 11 5.74 0.97
-4 10 11 8.19 1.33
10 -4 -11 10.08 1.55
-6 10 -11 9.22 1.42
-10 4 -11 9.02 1.41
-7 -3 -11 3.12 1.08
7 3 -11 3.84 1.11
3 7 11 4.16 0.7
-7 -3 -11 4.8 0.87
-3 -7 11 3.14 1.21
3 7 11 2.64 0.66
-7 -3 -11 4.93 1.14
7 -10 11 3.19 0.71
-3 -7 11 4.92 1.14
7 -10 11 4.41 1.13
-3 10 -11 6.11 1
-3 10 -11 4.26 1.13
-7 10 11 4.33 0.96
10 -3 11 3.15 1.03
10 -7 -11 5.74 1.4
10 -3 11 5.69 0.72
-10 3 11 5.41 0.96
-7 10 11 5.51 1.05
-7 -3 11 7.83 1.46
3 7 -11 5.84 0.95
-7 10 -11 5.6 1.26
-10 3 -11 6.4 1.03
10 -7 11 5.39 1.13
7 3 11 7.2 1.04
-3 10 11 4.71 0.82
-10 7 11 7.21 1.16
-7 -3 11 6.19 1.2
10 -7 11 7.26 1.09
-10 3 -11 7.62 1.37
-7 10 -11 9.09 1.16
3 7 -11 5.6 1.15
-3 -7 -11 7.01 1.24
10 -3 -11 6.66 1.37
-10 7 11 5.15 0.91
10 -2 11 6.6 0.77
2 -10 -11 3.58 0.92
10 -2 11 5.38 1.13
-2 10 -11 7.26 1.31
8 -10 11 6.25 0.83
-2 10 -11 5.7 0.96
2 8 11 3.97 0.78
-2 -8 11 3.83 1.07
-8 -2 -11 3.05 1
-10 8 -11 4.3 1.07
2 8 11 3.99 0.7
-8 10 11 4.96 0.99
10 -8 -11 3.87 1.32
8 -10 11 4.11 1.12
-2 -8 11 7.16 1.42
-10 2 11 4.7 0.96
-8 -2 -11 3.74 1.05
-8 -2 -11 5.07 0.9
8 2 -11 5.49 1.19
-10 8 -11 5.39 0.89
8 2 11 1.86 1.02
-10 8 11 1.04 0.9
-2 -8 -11 1.26 0.97
2 8 -11 1.96 0.75
2 -10 11 1.73 1.06
8 2 11 1.94 0.63
-2 10 11 1.46 0.65
-10 2 -11 1.19 1.04
2 8 -11 0.8 0.86
-8 -2 11 1.2 0.72
-8 -2 11 1.44 0.98
-8 10 -11 1.75 0.9
-10 8 11 1.42 0.68
2 -10 11 0.82 0.85
10 -8 11 1.17 0.94
10 -8 11 2.09 0.62
10 -2 -11 1.91 1.14
-8 -2 11 1.22 1.13
-8 10 -11 1.55 1.05
-10 2 -11 1.69 0.79
10 -9 -11 0.13 1.11
1 9 11 0.58 0.61
9 -10 11 -0.01 0.94
10 -1 11 0.86 0.55
-9 10 11 0.2 0.85
10 -1 11 0.41 0.94
-10 1 11 0.49 0.77
-1 10 -11 1.06 0.98
9 -10 11 0.75 0.63
-10 9 -11 0.41 0.93
1 -10 -11 0.73 0.89
-9 -1 -11 0.17 0.75
-1 -9 11 -0.07 0.87
-10 9 -11 0.4 0.75
-9 -1 -11 -0.33 0.92
-1 -9 11 0.51 1.08
-9 10 11 1.33 0.86
9 1 -11 0.28 0.97
-9 -1 -11 0.4 0.72
-1 10 -11 1.01 0.71
1 9 11 0.75 0.54
9 1 11 0.75 0.59
10 -9 11 -0.3 0.98
1 -10 11 -0.06 0.9
-9 -1 11 -0.3 0.91
-1 -9 -11 -0.07 0.96
-10 1 -11 0.42 0.71
-10 1 -11 -0.33 0.93
-9 -1 11 -0.64 0.86
-9 -1 11 -0.51 0.69
-9 10 -11 0.51 0.79
-10 9 11 0.67 0.84
1 9 -11 -0.23 0.81
1 9 -11 0.2 0.68
-1 10 11 -0.06 0.62
1 -10 11 0.82 1.04
-9 10 -11 0.19 0.95
-10 9 11 0.24 0.59
10 -1 -11 0.82 1.02
10 -9 11 0.72 0.6
-10 9 11 0.18 0.85
-1 10 11 0.32 0.35
9 1 11 0.38 0.98
-10 10 -11 0.53 0.78
-10 0 11 0.12 0.57
-10 0 -11 0.49 0.94
10 0 11 1.02 0.58
10 -10 11 0.67 0.61
0 -10 -11 -0.02 0.88
10 0 -11 0.25 0.94
10 0 11 1.33 1.01
0 -10 11 0.34 1.05
10 -10 -11 0.26 0.77
-10 10 11 0.57 0.46
-10 10 -11 0.32 0.93
0 10 -11 0.6 0.67
0 -10 11 0.75 0.9
10 -10 11 1.11 0.98
0 10 -11 1.03 0.83
-10 10 11 0.83 0.87
-10 10 11 0.62 0.87
-10 0 -11 0.32 0.69
-10 0 11 0.53 0.74
0 10 11 0.25 0.59
0 10 11 0.64 0.53
6 5 -11 2.97 0.95
-5 -6 11 4.51 1.3
-6 -5 -11 5.1 0.88
-6 11 11 4.12 0.74
11 -5 11 6.65 1.22
11 -6 -11 6.13 1.47
-5 11 -11 6.3 1.3
-11 5 11 4.35 0.94
-11 6 -11 2.69 0.82
6 5 -11 4.18 0.83
-5 11 -11 4.91 0.92
-11 5 11 4.78 1.03
-11 6 -11 3.13 0.99
-5 -6 11 6.11 1.17
-6 11 11 5.56 1.03
5 6 11 4.99 0.73
11 -5 11 4.14 0.66
6 -11 11 2.89 0.68
-6 -5 -11 5.61 1.27
-6 11 11 5.47 1
6 -11 11 4.39 1.07
-6 -5 -11 2.36 0.95
-5 11 11 4.59 0.93
-11 5 -11 2.51 0.8
-5 11 11 3.03 0.71
11 -5 -11 4 1.28
6 5 11 4.79 0.71
-11 6 11 5.41 0.96
-11 5 -11 2.05 0.96
11 -6 11 3.52 1.05
-11 6 11 2.9 0.97
-6 11 -11 5.38 1.3
-5 -6 -11 3.23 1.15
-6 -5 11 5.85 1.42
-6 -5 11 5.08 1.15
5 -11 11 2.41 0.57
-5 -6 -11 3.46 0.78
-6 11 -11 4.84 0.93
5 6 -11 4.22 0.81
5 6 -11 2.85 0.93
-4 -7 11 8.85 1.32
-7 11 11 4.42 0.78
7 -11 11 6.18 1.27
-11 4 11 6.29 1.06
-4 -7 11 6.01 1.34
11 -7 -11 7.22 1.47
-4 11 -11 7.93 1.03
-4 11 -11 7.07 1.37
4 7 11 6.31 0.82
7 4 -11 6.49 0.98
11 -4 11 7.56 0.81
4 7 11 6.87 0.97
-7 11 11 8.46 1.11
-7 11 11 4.36 1.05
-7 -4 -11 6.41 1.25
-7 -4 -11 4.64 1.22
7 -11 11 5.11 0.8
7 4 -11 5.55 1.13
-7 -4 -11 7.3 0.99
11 -4 11 5.7 1.15
-11 4 -11 5.15 1.24
-4 11 11 5.4 0.86
-7 -4 11 6.31 1.22
11 -7 11 6.78 1.27
11 -4 -11 5.27 1.31
-11 7 11 4.46 1.05
-7 11 -11 4.84 1.2
4 7 -11 3.12 0.95
-7 -4 11 8.86 1.57
7 4 11 6.09 0.77
-11 4 -11 3.93 0.93
-4 -7 -11 8.17 1.4
4 7 -11 5.08 0.89
11 -7 11 6.23 0.77
-11 7 11 5.56 0.94
3 8 11 11.14 1.37
-8 -3 -11 10.95 1.73
-3 11 -11 13.61 1.51
-3 -8 11 12.8 2.02
-8 11 11 12.55 1.73
-8 -3 -11 10.53 1.72
3 8 11 13 1.3
-11 3 11 10.75 1.59
11 -3 11 11.93 1.71
-8 -3 -11 11.47 1.45
11 -3 11 10.55 1.22
8 -11 11 12.17 1.36
8 3 -11 12.04 1.57
-3 -8 11 8.81 1.62
8 -11 11 14.06 1.86
11 -8 -11 12.37 2.04
-11 8 -11 10.33 1.23
-8 11 11 12.85 1.58
-3 11 -11 13.76 1.8
11 -3 -11 12.59 2.03
8 3 11 11.53 1.19
-11 8 11 9.91 1.61
-11 8 11 10.59 1.44
-11 3 -11 10.74 1.44
-8 -3 11 10.45 1.92
-11 3 -11 9.99 1.7
11 -8 11 10.66 1.24
-3 11 11 9.29 1.34
11 -8 11 12.13 1.67
-3 -8 -11 12.17 1.79
-8 11 -11 11.12 1.84
-8 11 -11 10.38 1.55
-8 -3 11 10.34 1.62
-8 -3 11 8.4 1.21
3 8 -11 10.45 1.39
-2 11 -11 4.89 0.87
-2 -9 11 3.53 1.23
-9 -2 -11 2.25 0.86
-11 2 11 2.65 0.85
2 9 11 4.08 0.7
2 9 11 2.92 0.75
-2 -9 11 3.85 1.09
-9 11 11 4.76 1.01
-9 -2 -11 4.9 0.86
-11 9 -11 3.34 0.82
-9 -2 -11 3.14 1.04
-9 11 11 5.13 0.97
11 -2 11 5.71 0.71
9 -11 11 3.4 1.09
-2 11 -11 3.08 0.99
9 -11 11 5.22 0.78
9 2 -11 4.01 0.96
11 -9 -11 2.1 1.16
11 -2 11 4.54 1.14
-11 9 11 3.41 0.97
-11 2 -11 4.34 0.85
-11 2 -11 2.65 1.05
-9 11 -11 4.14 1.23
-9 -2 11 1.36 0.94
11 -9 11 3.08 1.04
2 9 -11 3.48 0.79
-11 9 11 3.44 0.75
11 -9 11 5.71 0.73
-2 11 11 3.54 0.77
-2 -9 -11 4.18 1.16
-9 -2 11 3.49 1.08
2 -11 11 3.05 0.94
-9 -2 11 3.55 0.82
9 2 11 4.38 0.68
-9 11 -11 3.66 0.86
11 -2 -11 3.18 1.16
-1 -10 11 2.08 1.12
-11 1 11 2.98 0.85
1 10 11 3.72 0.68
-10 11 11 5.32 1.01
-10 -1 -11 1.84 0.73
-10 11 11 4.84 1.03
-11 10 -11 3.71 0.84
10 -11 11 3.83 1.11
10 1 -11 1.7 0.83
11 -1 11 5.11 0.7
-1 -10 11 3.77 1.03
-10 -1 -11 3.34 1.07
-11 10 -11 3.2 1
1 10 11 3.64 0.76
10 -11 11 4.68 0.73
11 -1 11 3.08 1.06
-1 11 -11 3.09 0.79
11 -1 -11 4.03 1.1
-11 1 -11 5.3 0.89
-1 -10 -11 6.43 1.23
-11 10 11 6.82 1.08
-10 11 -11 7.17 1.05
-1 11 11 6.81 0.9
1 10 -11 4.79 0.87
-10 -1 11 5.94 0.96
-11 10 11 8.1 1.15
1 -11 11 4.44 1.1
-1 11 11 4.98 0.75
-10 11 -11 5.03 1.24
11 -10 11 8.07 0.85
10 1 11 6.01 0.77
-10 -1 11 4.72 1.05
-11 1 -11 6.05 1.23
-11 10 11 6.64 1.12
11 -10 11 7.42 1.31
-11 0 -11 1.06 0.7
11 -11 11 1.08 1.04
11 0 11 0.91 0.56
11 -11 11 0.98 0.6
0 11 11 1.24 0.7
0 -11 11 -0.03 0.71
0 -11 -11 0.64 0.78
0 -11 11 0.45 0.89
-11 0 -11 0.47 0.89
-11 11 11 0.82 0.87
0 11 11 0.65 0.56
0 11 -11 1.31 0.71
11 0 -11 0.01 0.69
-11 11 -11 0.64 0.93
-11 11 -11 0.75 0.72
11 0 11 1.17 0.97
-11 11 11 1.98 0.92
-11 0 11 1.35 0.79
-6 12 -11 12.55 1.87
12 -6 11 11.28 1.21
6 -12 11 8.55 1.27
-6 -6 11 13.09 1.72
-6 12 -11 14.81 1.59
-12 6 -11 12.13 1.43
-6 -6 11 13.72 2.03
6 6 -11 11.38 1.37
-6 12 11 11.19 1.33
-6 -6 -11 11.76 1.92
-12 6 11 13.96 1.65
-12 6 11 11.37 1.72
-6 -6 -11 12.56 1.43
-6 12 11 13.91 1.58
12 -6 -11 12.89 2.12
12 -6 11 12.89 1.76
6 6 11 12.85 1.29
-12 5 11 1.24 0.9
-5 -7 11 0.83 0.96
-12 5 11 1 0.83
-5 12 -11 1.73 1.04
-7 -5 -11 1.64 0.77
-12 7 -11 1.46 0.66
7 5 -11 2.44 0.76
-5 12 -11 1.59 0.81
5 7 11 2.31 0.62
-7 -5 -11 -0.04 0.66
12 -7 -11 1.35 1.31
7 -12 11 1.04 0.61
12 -5 11 2.15 1.06
-7 -5 -11 1.88 1.08
-7 12 11 1.25 0.65
-5 -7 11 1.17 1.19
-7 12 11 1.91 0.94
12 -5 11 1.66 0.53
-7 12 11 2.38 0.82
7 -12 11 0.91 0.85
5 7 11 0.9 0.73
-7 -5 11 2.3 1.07
-7 12 -11 4.43 0.93
5 -12 11 2.11 0.59
-5 12 11 1.94 0.67
-7 12 -11 2.19 1.06
-7 -5 11 4.49 1.35
12 -5 -11 3.58 1.35
-12 5 -11 2.27 1.02
-12 7 11 3.38 0.87
7 5 11 3.86 0.64
-12 5 -11 2.9 0.81
5 7 -11 2.89 0.73
12 -7 11 3.98 0.63
12 -7 11 3.95 1.13
-12 7 11 2.57 0.95
-5 -7 -11 3.33 1.18
8 4 -11 4.85 0.9
12 -4 11 6.28 0.75
8 -12 11 6.92 0.84
8 -12 11 4.12 1.15
-8 12 11 5.67 1.09
-4 12 -11 7 0.98
-8 -4 -11 6.04 0.95
4 8 11 4.08 0.88
4 8 11 6.73 0.81
-4 -8 11 6.69 1.45
-4 -8 11 4.72 1.13
12 -8 -11 6.03 1.44
-12 4 11 4.48 0.96
-8 12 11 7.96 1.06
-8 -4 -11 3.32 0.98
-8 12 11 5.94 0.85
-8 -4 -11 5.96 1.26
-4 12 -11 3.88 1.12
12 -4 11 5.97 1.15
-8 -4 11 2.83 1.19
-8 12 -11 2.69 1.13
-8 -4 11 2.44 1
-4 12 11 2.43 0.74
12 -8 11 3.42 0.64
4 8 -11 2.93 0.72
-12 4 -11 4.24 0.87
-8 12 -11 3.29 0.81
-12 8 11 2.8 0.8
-12 4 -11 2.13 1.09
-12 8 11 2.49 0.96
12 -8 11 4.06 1.14
8 4 11 3.95 0.67
-4 -8 -11 1.62 1.04
12 -4 -11 3.14 1.25
12 -3 11 19.96 2.13
-12 3 11 19.89 1.99
-3 -9 11 20.41 2.36
3 9 11 22.55 1.74
-12 9 -11 22.13 1.84
9 -12 11 22.82 1.79
-9 12 11 20.78 2.08
9 -12 11 20.79 2.2
-9 12 11 21.06 1.99
12 -3 11 20.56 1.67
12 -9 -11 18.48 2.37
-3 -9 11 17.61 2
-9 -3 -11 17.92 1.84
-9 -3 -11 18.11 2.08
-3 12 -11 19.52 1.81
3 9 11 21.14 1.87
3 9 -11 17.55 1.77
9 3 11 21.51 1.72
12 -3 -11 25.74 2.44
-9 -3 11 18.86 1.81
12 -9 11 21.98 1.75
12 -9 11 20.31 2.16
-12 9 11 20 2.08
-9 12 -11 21.83 2.22
-12 3 -11 20.53 2.25
-12 9 11 19.6 1.91
-9 12 -11 23.92 1.97
-12 3 -11 20.88 1.92
-9 -3 11 22.24 2.12
-3 -9 -11 18.66 2.23
-3 12 11 19.86 1.85
-12 10 -11 15.06 1.56
-12 2 11 12.82 1.63
-2 -10 11 12.79 1.91
-2 12 -11 13.25 1.46
10 -12 11 15.17 1.41
2 10 11 14.14 1.53
10 -12 11 14.88 1.89
-10 12 11 13.59 1.76
12 -2 11 13.92 1.33
-2 -10 11 13.29 1.71
-10 12 11 14.91 1.66
2 10 11 13.24 1.34
12 -2 11 14.2 1.79
-10 -2 -11 12.59 1.5
-10 -2 -11 12.42 1.78
-2 12 11 12.99 1.47
-12 2 -11 11.99 1.46
-12 10 11 14.65 1.68
-2 -10 -11 10.24 1.6
2 -12 11 11.8 1.57
-10 12 -11 12.75 1.84
12 -10 11 14.43 1.79
-12 10 11 11.21 1.44
12 -2 -11 12.32 1.7
-10 12 -11 12.94 1.48
-12 2 -11 11.88 1.8
10 2 11 11.3 1.24
12 -10 11 12.6 1.31
-10 -2 11 11.83 1.69
-10 -2 11 12.12 1.51
2 10 -11 11.7 1.3
-12 10 11 13.63 1.68
-2 12 11 10.13 1.15
12 -1 11 2.38 0.84
-12 11 -11 0.38 0.8
1 11 11 4.55 0.84
-1 12 -11 2.38 0.72
-11 12 11 3.89 0.92
-11 -1 -11 1.96 0.9
-12 1 11 2.18 0.84
12 -1 11 3.34 0.64
11 -12 11 2.38 1.01
-11 12 11 4.47 1.03
-1 -11 11 3.37 0.99
1 11 11 2.46 0.64
-11 -1 -11 2.73 0.74
-12 11 -11 2.97 0.81
-12 1 -11 4.47 0.83
-11 12 -11 3.09 0.97
-11 -1 11 2.56 0.84
-11 12 -11 2.6 0.78
11 1 11 3.45 0.63
-12 11 11 2.9 0.91
-1 12 11 2.87 0.81
12 -11 11 3.47 1.07
-12 11 11 4.97 1.01
-11 -1 11 2.44 0.79
-1 12 11 3.49 0.67
1 11 -11 3.17 0.71
12 -11 11 4.6 0.72
-12 1 -11 1.68 0.94
1 -12 11 2.72 0.96
12 0 11 0.75 0.54
0 12 11 0.19 0.74
-12 0 11 0.05 0.75
-12 12 11 0.39 0.84
0 12 11 0.21 0.57
12 -12 11 0.72 0.58
0 -12 11 1.46 0.89
-12 12 11 -0.03 0.85
0 12 -11 0.92 0.59
-12 12 -11 0.3 1.01
12 -12 11 0.65 0.81
-12 0 -11 0.34 0.68
-12 12 -11 0.73 0.71
-12 0 -11 0.25 0.72
-7 -6 -11 0.2 0.94
6 7 11 0.47 0.57
-6 -7 11 -0.07 0.89
-13 7 -11 -0.32 0.7
-6 13 -11 -0.44 0.72
13 -6 11 0.51 0.5
6 7 11 0.08 0.73
-6 -7 11 0.11 1.09
-7 13 11 0.28 0.63
-13 6 11 0.24 0.79
7 -13 11 -0.24 0.57
7 -13 11 -0.07 0.98
-7 13 11 0.26 0.76
7 6 -11 0.35 0.54
-6 13 -11 0.02 0.82
13 -7 -11 -0.34 1.13
-13 6 11 -0.62 0.87
-7 13 11 0.45 0.77
13 -6 11 0.04 0.86
-7 -6 -11 -0.49 0.64
-13 6 -11 0.07 0.71
-7 13 -11 0.11 0.9
-7 -6 11 -0.61 0.91
13 -7 11 0.33 0.5
-7 13 -11 0.19 0.71
7 6 11 -0.08 0.53
-6 13 11 0.25 0.63
-13 7 11 -0.29 0.76
-6 -7 -11 0.56 0.4
-6 -7 -11 -0.11 0.94
6 7 -11 0.4 0.48
13 -7 11 0.1 0.85
13 -6 -11 0.74 1.22
-7 -6 11 -0.72 1.05
6 -13 11 -0.4 0.56
-13 7 11 -0.03 0.88
-13 8 -11 3.32 0.7
-8 -5 -11 6.75 0.93
8 -13 11 6.41 0.81
-5 -8 11 7.47 1.26
13 -8 -11 4.55 1.36
13 -5 11 4.33 1.01
5 8 11 7.01 1.01
8 5 -11 4.3 0.78
-8 13 11 7.71 1.16
-8 -5 -11 4.93 1.1
-8 13 11 6.3 1.09
-5 -8 11 4.09 1.25
-13 5 11 7.87 1.07
-8 13 11 6.74 1.03
-5 13 -11 5.12 0.87
-13 5 11 4.62 1.06
5 8 11 4.99 0.93
-8 -5 11 5.59 1.16
-5 13 11 4.31 0.77
13 -8 11 5.2 0.73
-13 8 11 4.23 1.04
-5 -8 -11 4.16 1.17
8 5 11 5.68 0.74
-8 13 -11 6.89 0.99
13 -8 11 3.84 1.05
-8 -5 11 3.26 1.09
-8 13 -11 3.39 1.03
13 -5 -11 4.72 1.38
-13 8 11 5.84 0.92
-13 5 -11 6.03 0.93
5 -13 11 3.14 0.67
9 -13 11 7.01 0.88
9 -13 11 4.55 1.05
13 -4 11 4.66 0.98
-4 13 -11 6.28 0.96
-13 4 11 9.7 1.16
-4 -9 11 7.46 1.23
4 9 11 7.71 1.3
13 -4 11 7.48 1.01
-9 13 11 8.43 1.2
4 9 11 7.65 1.05
9 4 -11 9.1 1.21
-13 9 -11 6.04 0.95
-9 -4 -11 7.73 1.28
-9 13 11 7.98 1.39
-4 -9 11 6.97 1.37
13 -9 -11 4.4 1.23
-9 13 -11 4.79 1.13
-13 4 -11 3.3 0.96
-13 9 11 6.68 1.15
-13 9 11 3.79 0.85
-9 -4 11 5.15 1.09
-4 -9 -11 5.07 1.16
9 4 11 6.13 0.73
-13 4 -11 4.29 0.86
-9 13 -11 6.15 0.94
-4 13 11 4.93 0.83
13 -9 11 3.53 1.02
13 -4 -11 3.29 1.11
3 10 11 3.16 0.69
-10 13 11 3.27 0.86
13 -10 -11 0.37 0.85
-10 -3 -11 1.49 0.74
13 -3 11 0.09 0.64
10 -13 11 1.83 0.82
13 -3 11 1.91 0.59
3 10 11 3.55 0.86
-13 3 11 3.32 0.89
-3 -10 11 0.81 0.86
-3 13 -11 2.6 0.74
-10 13 11 2.04 0.93
-13 10 -11 1.89 0.72
-3 -10 11 3.66 1.04
10 -13 11 2.81 0.69
-13 10 11 0.86 0.67
-13 3 -11 1.26 0.72
-10 13 -11 1.35 0.71
3 -13 11 0.09 0.46
10 3 11 0.41 0.53
-3 -10 -11 1.07 0.68
-3 13 11 1.7 0.75
-10 -3 11 0.88 0.92
-10 13 -11 0.96 0.89
-13 10 11 2.14 0.92
-10 -3 11 0.73 0.65
-13 3 -11 0.67 0.77
13 -10 11 0.78 0.57
3 10 -11 0.42 0.4
13 -3 -11 0.27 0.76
13 -10 11 0.87 0.82
-11 13 11 4.99 0.94
-2 -11 11 6.69 1.13
-11 13 11 5.43 1.07
-13 2 11 6.11 1.01
13 -2 11 4.75 0.72
2 11 11 5.41 0.91
-11 -2 -11 5.18 0.89
11 -13 11 5.23 0.77
2 11 11 5.87 0.78
-13 11 -11 3.7 0.83
-2 13 -11 4.41 0.84
-11 -2 11 3.8 0.99
-13 11 11 8.28 1.18
-11 -2 11 6.05 0.95
-13 11 11 4.97 1.01
13 -11 11 6.71 0.79
-2 13 11 5.58 0.94
2 -13 11 4.52 0.92
11 2 11 6.75 0.98
-13 2 -11 6.57 0.92
1 12 11 2.91 0.65
-1 13 -11 2.29 0.66
-12 13 11 5.12 1.04
-12 13 11 3.51 0.9
-13 1 11 2.48 0.83
-1 -12 11 3.23 0.94
13 -1 11 3.75 0.64
-13 12 -11 3.73 0.87
12 -13 11 5.42 0.73
-12 -1 -11 4.01 0.84
-13 12 11 5.55 1.03
-12 13 -11 3.79 0.79
-13 12 11 2.35 0.9
-13 1 -11 5.04 0.84
12 1 11 4.14 0.67
13 -12 11 4.6 0.72
-1 13 11 3.68 0.85
-12 -1 11 2.74 0.83
1 -13 11 3.18 0.91
0 13 11 1.25 0.59
-13 0 11 1.34 0.75
13 -13 11 1.09 0.58
13 0 11 1.33 0.55
0 13 11 1.94 0.78
-13 13 -11 2.05 0.72
-13 0 -11 1.56 0.68
0 -13 11 1.16 0.81
-13 13 11 1.92 0.9
-13 13 11 2.06 0.84
-7 -7 -11 0.64 0.64
-7 -7 11 -0.57 0.88
-7 14 11 0.56 0.61
-14 7 11 -0.11 0.91
-14 7 11 0.07 0.75
14 -7 11 0.16 0.49
-7 14 -11 0.55 0.74
-14 7 -11 0.28 0.7
7 -14 11 -0.26 0.54
-7 -7 -11 0.56 0.39
14 -7 -11 0.38 0.88
-7 14 -11 0.27 0.96
7 7 11 -0.19 0.53
-7 -7 11 0.28 0.75
-6 -8 11 9.35 1.31
14 -6 11 7.23 0.99
6 8 11 6.28 0.97
8 -14 11 5.74 0.8
-14 8 -11 5.39 0.87
-8 14 11 7.06 1.1
-14 6 11 6.43 1.05
6 8 11 6.91 1
-14 6 11 5.09 1.09
-8 14 11 6.63 0.97
-6 14 -11 5.58 0.9
-8 -6 -11 5.81 0.91
-8 14 11 6.17 1.03
-8 14 -11 6.46 0.89
14 -8 11 6.54 0.95
-6 14 11 5.9 0.83
6 -14 11 3.16 0.69
-14 8 11 4.81 0.91
-6 -8 -11 2.11 0.81
-14 8 11 6.87 1.14
-14 6 -11 3.99 0.82
-5 14 -11 0.87 0.65
-5 -9 11 0.49 0.89
-9 -5 -11 0.64 0.67
14 -9 -11 0.19 0.82
5 9 11 0.96 0.75
-14 5 11 0.29 0.77
-5 -9 11 0.34 0.76
-9 14 11 0.77 0.78
5 9 11 1.27 0.58
9 -14 11 0.5 0.62
-9 14 11 0.48 0.85
-14 5 11 0.2 0.83
14 -5 11 0.74 0.53
-5 14 11 1.24 0.66
14 -5 -11 0.16 1.22
-9 14 -11 0.03 0.64
-14 9 11 0.48 0.85
-5 -9 -11 0.92 0.62
14 -9 11 1.11 0.52
-9 14 -11 0.81 0.66
-14 5 -11 0.83 0.68
5 -14 11 0.53 0.51
9 5 11 0.83 0.55
-14 9 11 0.83 0.76
-9 -5 11 0.22 0.85
4 10 11 11.31 1.2
-10 -4 -11 11.54 1.41
-4 -10 11 11.89 1.6
4 10 11 14.23 1.51
-10 14 11 11.89 1.5
14 -4 11 10.48 1.18
-10 14 11 10.71 1.59
10 -14 11 10.9 1.31
-14 4 11 10.12 1.48
-14 10 -11 9.27 1.2
-4 14 -11 10.38 1.34
-14 10 11 13.51 1.74
-10 14 -11 13.51 1.38
-10 -4 11 9.87 1.53
14 -10 11 12.09 1.25
-14 4 -11 12.21 1.48
10 4 11 12.22 1.26
-4 14 11 13.19 1.4
-14 10 11 12.64 1.48
-11 14 11 13.25 1.39
14 -3 11 10.13 1.21
-14 3 11 9.86 1.43
-3 -11 11 10.1 1.52
3 11 11 10.06 1.17
-11 14 11 10.47 1.46
-3 14 -11 8.24 1.27
-11 -3 -11 9.87 1.34
11 -14 11 10.28 1.24
3 11 11 12.62 1.45
-14 11 -11 9.23 1.3
-14 11 11 10.31 1.58
14 -11 11 10.22 1.15
-3 14 11 10.61 1.36
11 3 11 9.93 1.13
-11 14 -11 10.25 1.21
-11 -3 11 8.71 1.4
-14 11 11 7.98 1.19
-14 3 -11 9.34 1.32
-11 -3 11 8.88 1.2
12 -14 11 0.64 0.57
-2 -12 11 0.93 0.83
-12 14 11 0.53 0.74
2 12 11 0.72 0.71
-12 14 11 0.62 0.85
14 -2 11 0.6 0.54
-14 12 -11 0.87 0.68
-2 14 -11 0.79 0.51
-12 -2 -11 0.74 0.65
-14 2 11 1.14 0.75
2 12 11 1.03 0.58
-14 12 11 0.91 0.86
-14 2 -11 1.12 0.7
-2 14 11 0.39 0.7
12 2 11 0.51 0.53
-12 -2 11 0.69 0.68
-12 14 -11 0.96 0.63
-12 -2 11 0.56 0.58
2 -14 11 0.17 0.45
-14 12 11 0.57 0.77
14 -12 11 0.34 0.56
-1 -13 11 0.16 0.76
-14 13 -11 0.47 0.65
14 -1 11 0.71 0.51
-13 14 11 0.49 0.76
13 -14 11 0.36 0.55
-13 14 11 0.3 0.78
-13 -1 -11 0.28 0.63
1 13 11 -0.19 0.67
-14 1 11 0.54 0.69
-13 14 -11 1.32 0.78
1 -14 11 0.68 0.7
-14 13 11 0.96 0.85
13 1 11 0.88 0.53
-14 1 -11 1.08 0.64
-14 13 11 0.67 0.81
14 -13 11 0.58 0.53
-13 -1 11 0.55 0.69
-1 14 11 1.09 0.75
-14 14 11 -0.32 0.79
0 14 11 -0.12 0.71
-14 0 11 -0.34 0.65
14 0 11 -0.1 0.48
-14 0 -11 0.08 0.59
-14 14 -11 0.23 0.64
14 -14 11 -0.04 0.52
0 -14 11 0.61 0.74
-14 14 11 -0.25 0.76
-8 15 11 0.28 0.63
8 -15 11 0.08 0.55
-7 15 -11 0.68 0.61
7 8 11 1.08 0.74
-8 -7 -11 0.58 0.38
-8 15 11 0.08 0.74
-7 -8 11 -0.61 0.82
-15 7 11 0.07 0.86
15 -7 11 -0.09 0.5
7 8 11 0.05 0.52
-15 8 -11 0.41 0.68
-15 7 11 0.33 0.78
-15 8 11 0.36 0.74
-8 -7 11 0.35 0.87
15 -8 11 0.4 0.49
-15 7 -11 -0.2 0.68
-7 15 11 0.57 0.66
-8 15 -11 0.36 0.64
-15 8 11 -0.18 0.83
7 -15 11 -0.34 0.52
8 7 11 0.08 0.53
-15 9 -11 0.22 0.49
6 9 11 0.29 0.51
15 -6 11 0.89 0.54
-9 -6 -11 0.72 0.62
-15 6 11 0.36 0.76
-15 6 11 0.28 0.82
6 9 11 0.8 0.78
-6 -9 11 0.61 0.85
-9 15 11 0.02 0.63
9 -15 11 0.63 0.57
-9 15 11 0.22 0.78
-6 15 -11 1.04 0.63
6 -15 11 0.52 0.55
-15 9 11 1.01 0.75
-9 15 -11 1.14 0.64
-15 9 11 1.16 0.88
-9 -6 11 0.83 0.9
15 -9 11 0.7 0.51
9 6 11 0.85 0.54
-6 15 11 1.06 0.64
-15 6 -11 1.09 0.69
15 -5 11 6.88 0.98
-15 5 11 7.41 0.99
5 10 11 5.67 0.76
-10 15 11 7.04 1.07
-10 -5 -11 5.14 0.87
10 -15 11 7.73 0.84
-5 -10 11 6.79 1.11
-15 5 11 4.6 0.95
5 10 11 8.01 1.34
-5 15 -11 4.61 0.83
-10 15 11 5.69 0.94
-10 -5 11 2.08 0.85
-15 10 11 5.1 1.01
10 5 11 4.56 0.65
-10 15 -11 3.71 0.73
-5 15 11 5.42 0.81
5 -15 11 2.23 0.54
-15 5 -11 5.29 0.88
15 -10 11 3.32 0.59
-15 10 11 3.35 0.82
4 11 11 0.31 0.75
-11 15 11 0.5 0.69
-15 4 11 0.26 0.71
-4 15 -11 0.85 0.63
-11 -4 -11 0.5 0.67
4 11 11 0.58 0.52
-15 4 11 0 0.73
-4 -11 11 0.43 0.8
11 -15 11 0.14 0.56
-11 15 11 -0.19 0.76
-15 11 -11 0.49 0.6
15 -4 11 0.76 0.54
-11 15 -11 0.59 0.64
-15 4 -11 0.17 0.67
15 -11 11 0.71 0.5
-15 11 11 0.54 0.63
-4 15 11 0.1 0.6
11 4 11 0.18 0.5
-15 11 11 0.34 0.87
-11 -4 11 0.01 0.73
-15 3 11 2.27 0.75
-12 -3 -11 2.22 0.69
12 -15 11 3.18 0.65
-3 -12 11 2.51 0.88
-15 12 -11 1.9 0.71
-12 15 11 2.63 0.77
15 -3 11 2.21 0.57
-3 15 -11 1.9 0.49
3 12 11 3.61 0.79
3 12 11 2.77 0.65
-12 15 11 1.82 0.82
-15 3 -11 1.29 0.68
15 -12 11 2.7 0.61
-12 -3 11 0.44 0.43
-12 15 -11 1.58 0.64
-3 15 11 2.31 0.7
-15 12 11 2.61 0.87
-12 -3 11 1.24 0.71
12 3 11 1.99 0.57
-13 -2 -11 3.42 0.72
-13 15 11 4.29 0.92
-2 -13 11 3.9 0.89
-15 13 -11 3.54 0.77
13 -15 11 3.95 0.67
2 13 11 4.63 0.82
-13 15 11 4.15 0.87
-15 2 11 4.3 0.82
15 -2 11 3.51 0.62
13 2 11 3.88 0.66
-15 2 -11 5.71 0.78
15 -13 11 4.85 0.7
-2 15 11 4.9 0.84
-13 -2 11 3.24 0.76
-15 13 11 5.19 1
-13 15 -11 4.24 0.79
-1 -14 11 2.78 0.77
14 -15 11 2.8 0.6
-14 15 11 1.57 0.81
-15 1 11 2.19 0.71
-15 14 -11 1.6 0.68
15 -1 11 1.59 0.52
1 14 11 4.01 0.8
-14 15 11 2.55 0.82
-14 -1 -11 2.6 0.65
-1 15 11 3.61 0.78
14 1 11 2.59 0.56
-15 14 11 2.45 0.86
-14 -1 11 1.8 0.69
-14 15 -11 2.61 0.73
-15 14 11 2.01 0.76
-15 1 -11 2.63 0.63
15 -14 11 2.49 0.59
-15 15 11 2.78 0.76
-15 0 -11 3.59 0.64
-15 15 11 2.9 0.78
-15 0 11 3.67 0.72
15 0 11 2.68 0.56
-15 15 -11 3.03 0.73
15 -15 11 2.67 0.57
0 15 11 5.23 0.86
0 -15 11 3.17 0.66
-16 8 11 6.96 0.99
-16 8 11 5.45 1
16 -8 11 4.67 0.67
-8 -8 11 6.41 1.04
-16 8 -11 4.61 0.81
8 -16 11 5.17 0.71
8 8 11 6.05 0.93
-8 16 -11 4.94 0.77
8 8 11 5.06 0.71
-16 7 11 1.39 0.8
-7 -9 11 3.04 0.92
-7 16 -11 1.93 0.62
16 -7 11 2.16 0.53
7 9 11 1.47 0.52
9 -16 11 1.85 0.55
-9 16 11 1.55 0.75
-16 7 11 1.85 0.75
7 9 11 2.79 0.83
-9 -7 11 1.23 0.86
16 -9 11 1.13 0.5
-16 7 -11 1.52 0.68
9 7 11 1.19 0.7
9 7 11 1.58 0.54
-7 16 11 1.7 0.65
-16 9 11 1.32 0.71
7 -16 11 0.94 0.53
-9 16 -11 1.05 0.61
-16 9 11 2.12 0.87
-10 16 11 0.24 0.8
-16 6 11 0.14 0.73
16 -6 11 0.2 0.49
6 10 11 0.47 0.5
-16 6 11 0.85 0.71
-6 -10 11 0.7 0.82
6 10 11 0.24 0.76
-6 16 -11 0.59 0.55
10 -16 11 0.01 0.56
-10 -6 -11 0.54 0.5
-16 10 11 0.18 0.7
-6 16 11 0.52 0.62
10 6 11 0.15 0.51
-16 6 -11 0.33 0.61
-16 10 11 0.17 0.82
-10 16 -11 -0.16 0.56
16 -10 11 0.31 0.46
6 -16 11 -0.04 0.48
-10 -6 11 0.08 0.69
-16 5 11 0.65 0.53
-11 16 11 1.25 0.67
5 11 11 2.11 0.54
-5 -11 11 1.5 0.82
16 -5 11 1.43 0.52
-11 16 11 0.9 0.77
-11 -5 -11 1.72 0.66
-16 5 11 2.35 0.73
11 -16 11 2.36 0.59
5 11 11 2.76 0.8
-5 16 -11 1.68 0.57
-11 -5 11 1.12 0.73
-11 16 -11 1.15 0.6
-16 5 -11 1.78 0.7
11 5 11 1.86 0.57
-16 11 11 2.09 0.89
-16 11 11 1.27 0.66
-5 16 11 2.3 0.64
16 -11 11 1.7 0.53
-12 -4 -11 3.49 0.71
-12 16 11 4.41 0.81
4 12 11 4.46 0.68
-16 4 11 4.93 0.84
-12 16 11 4.21 0.94
-16 12 -11 3.14 0.7
12 -16 11 4.29 0.66
-4 -12 11 4.66 0.93
4 12 11 5.42 0.84
16 -4 11 3.8 0.61
-4 16 11 3.71 0.73
16 -12 11 3.61 0.6
-12 16 -11 5.29 0.8
-16 4 -11 3.8 0.77
-16 12 11 5.26 0.96
12 4 11 3.67 0.64
-3 -13 11 7.69 1.14
-13 -3 -11 6.5 0.83
-13 16 11 5.58 0.94
-16 3 11 5.45 0.82
13 -16 11 7.13 0.94
16 -3 11 4.39 0.66
3 13 11 7.11 1.11
-16 13 -11 5.27 0.85
-13 16 11 5.77 0.89
-3 16 11 6.01 0.98
13 3 11 5.54 0.72
-13 16 -11 5.82 0.8
-16 3 -11 5.59 0.8
16 -13 11 5.88 0.87
2 14 11 5.42 0.85
-2 -14 11 6.69 1.08
14 -16 11 4.83 0.67
-16 2 11 3.82 0.74
-14 16 11 7.27 1
-14 -2 -11 6 0.8
16 -2 11 3.83 0.57
-14 16 11 3.72 0.81
-16 14 -11 6.05 0.82
-2 16 11 4.13 0.72
-14 16 -11 4.92 0.76
-2 -14 -11 2.94 0.72
16 -14 11 3.81 0.61
14 2 11 3.67 0.6
-16 14 11 5.34 0.93
-16 2 -11 4.85 0.69
1 15 11 1.31 0.69
-15 16 11 0.57 0.7
16 -1 11 0.22 0.29
-16 1 11 1.13 0.59
15 -16 11 1.19 0.47
-15 -1 -11 0.79 0.51
-15 16 11 1.14 0.7
-16 15 -11 1.18 0.65
-1 -15 11 0.99 0.57
-1 -15 -11 1.4 0.56
-16 1 -11 2.61 0.56
15 1 11 2.03 0.45
-1 16 11 2.77 0.7
-15 -1 11 1.91 0.55
-15 16 -11 2.61 0.68
16 -15 11 2.32 0.54
-16 15 11 3.42 0.82
16 -16 11 9.46 1.01
-16 16 11 9.94 1.36
0 16 11 10.92 1.18
-16 16 -11 9.28 1.15
-16 0 11 8.79 1.05
-16 0 -11 7.76 1.05
-8 -9 11 0.9 0.79
-8 17 -11 0.09 0.49
8 9 11 0.9 0.69
9 -17 11 0.97 0.48
17 -8 11 0.41 0.45
-17 8 11 0.82 0.74
8 9 11 0.67 0.48
-17 9 -11 -0.27 0.42
-17 8 11 0.71 0.69
9 8 11 0.87 0.49
9 8 11 0.63 0.68
-9 -8 11 0.7 0.75
17 -9 11 1.06 0.47
-17 9 11 0.67 0.68
-17 9 11 0.71 0.73
8 -17 11 1.03 0.48
-17 8 -11 0.3 0.56
-9 17 -11 0.68 0.52
-7 17 -11 0.38 0.5
-7 -10 11 1.45 0.77
7 10 11 1.19 0.69
10 -17 11 1.44 0.54
7 10 11 1.12 0.48
17 -7 11 1.64 0.5
-17 7 11 1.48 0.68
-17 7 11 0.9 0.7
-10 17 -11 1.18 0.6
10 7 11 1.06 0.5
-17 10 11 1.47 0.79
10 7 11 0.83 0.63
-17 7 -11 0.77 0.58
-7 17 11 1.31 0.6
17 -10 11 0.81 0.46
7 -17 11 0.81 0.48
-10 -7 11 1.21 0.7
-17 10 11 1.91 0.69
6 11 11 2.38 0.56
-6 -11 11 3.21 0.85
6 11 11 2.74 0.77
-17 6 11 1.5 0.65
-17 6 11 1.44 0.6
-11 17 11 1.93 0.78
-6 17 -11 1.4 0.46
11 -17 11 2.3 0.56
17 -6 11 1.1 0.47
-17 11 11 1.94 0.65
-11 17 -11 2.03 0.61
11 6 11 2.03 0.55
-6 17 11 3.31 0.69
17 -11 11 1.47 0.48
-17 11 11 3.43 0.9
-17 6 -11 2.21 0.58
6 -17 11 1.02 0.41
-11 -6 11 1.84 0.68
-17 5 11 0.95 0.62
5 12 11 1.07 0.65
-12 -5 -11 0.69 0.47
-12 17 11 0.43 0.76
5 12 11 1.29 0.51
-5 -12 11 2.02 0.74
17 -5 11 0.73 0.39
-12 -5 -11 0.53 0.56
12 -17 11 0.7 0.5
-12 17 11 0.56 0.55
-5 17 11 1.34 0.62
-17 12 11 1.56 0.8
17 -12 11 1.03 0.44
-12 17 -11 0.68 0.53
12 5 11 1.26 0.5
-12 -5 11 0.36 0.59
-17 5 -11 0.88 0.57
-17 13 -11 0.06 0.34
-13 -4 -11 0.94 0.51
4 13 11 2.07 0.68
-4 -13 11 1.98 0.74
-13 17 11 0.69 0.76
-13 17 11 1.18 0.63
13 -17 11 1.31 0.49
-17 4 11 1.19 0.58
-4 17 11 2.13 0.63
-17 4 -11 2.27 0.64
-17 13 11 3.07 0.86
-13 17 -11 2.68 0.67
17 -13 11 1.6 0.49
-4 -13 -11 1.19 0.62
13 4 11 1.5 0.5
-14 -3 -11 3.65 0.65
-17 14 -11 4.08 0.67
14 -17 11 6.02 0.81
3 14 11 5.72 0.83
-17 3 11 4.35 0.72
-14 17 11 4.22 0.79
-3 -14 11 6.29 1.01
-14 17 11 5.72 0.9
14 3 11 4.08 0.57
17 -14 11 3.76 0.56
-3 17 11 5.76 0.93
-17 14 11 5.39 0.96
-17 3 -11 4.35 0.69
-3 -14 -11 4.1 0.74
2 15 11 6.39 1.08
-15 -2 -11 4.28 0.62
-17 2 11 3.48 0.66
-17 15 -11 4.1 0.67
15 -17 11 4.67 0.61
-15 17 11 3.64 0.79
-2 -15 11 4.99 0.88
-17 2 -11 4.76 0.69
-2 17 11 4.19 0.72
-17 15 11 4.28 0.92
-15 17 -11 6.25 0.8
17 -15 11 3.93 0.58
-17 16 -11 6.31 0.91
-16 -1 -11 6.53 0.9
1 16 11 8.73 1.12
16 -17 11 7.75 0.87
-16 17 11 6.7 1.17
-17 1 11 6.85 0.94
-16 17 -11 7.43 1.09
-17 16 11 9.48 1.36
17 -16 11 7.71 0.89
-17 1 -11 7.05 0.97
-1 17 11 9.12 1.05
-17 17 -11 2.47 0.62
17 -17 11 2.7 0.47
-17 17 11 2.82 0.75
-17 0 -11 3.11 0.57
0 17 11 2.89 0.61
-18 9 11 1.79 0.62
-18 9 11 1.53 0.7
9 9 11 1.44 0.48
9 9 11 2.56 0.65
-9 18 -11 1.15 0.51
-9 -9 11 2.51 0.73
9 -18 11 2.01 0.49
-9 -9 -11 2.3 0.67
-18 8 11 0.51 0.63
-8 18 -11 0.2 0.43
-8 -10 11 1.27 0.7
8 10 11 0.22 0.47
18 -8 11 -0.29 0.25
10 -18 11 0.29 0.47
-10 -8 -11 0.3 0.63
8 10 11 0.3 0.57
-18 8 11 0.84 0.63
-18 10 11 0.53 0.7
-8 -10 -11 -0.14 0.61
-10 18 -11 0.11 0.49
-18 10 11 -0.14 0.57
18 -10 11 -0.05 0.32
10 8 11 0.32 0.42
10 8 11 0.24 0.6
-10 -8 11 0.54 0.65
8 -18 11 -0.03 0.42
-18 8 -11 0.12 0.47
-11 -7 -11 1.2 0.65
-18 7 11 1.19 0.62
-18 7 11 1.5 0.59
7 11 11 1.95 0.64
-7 -11 11 1.95 0.72
7 11 11 1.56 0.5
11 -18 11 2.14 0.52
-11 18 -11 1.51 0.61
7 -18 11 1.08 0.37
-11 -7 11 0.87 0.59
-7 -11 -11 1.04 0.63
11 7 11 1.12 0.47
-18 7 -11 0.84 0.54
-18 11 11 1.17 0.47
18 -11 11 1.12 0.38
-18 11 11 1.05 0.75
11 7 11 1.31 0.58
-6 -12 11 0.37 0.63
6 12 11 -0.12 0.56
12 -18 11 0.02 0.42
-18 6 11 0.07 0.58
-12 -6 -11 -0.06 0.54
-6 18 11 0.09 0.55
18 -12 11 0.3 0.36
-12 18 -11 0.26 0.53
12 6 11 -0.05 0.41
-6 -12 -11 -0.02 0.6
-18 6 -11 0.04 0.49
-12 -6 11 0.35 0.54
-18 12 11 -0.1 0.68
12 6 11 0.01 0.5
-18 5 11 3.06 0.69
-5 -13 11 2.87 0.71
5 13 11 3.5 0.71
13 -18 11 2.93 0.55
-18 13 11 1.66 0.8
-5 -13 -11 1.42 0.6
13 5 11 0.8 0.43
-18 5 -11 0.88 0.56
-5 18 11 1.13 0.57
18 -13 11 0.91 0.38
-13 18 -11 1.76 0.63
-18 4 11 2.65 0.63
4 14 11 3.8 0.71
-4 -14 11 2.77 0.68
14 -18 11 3.52 0.53
-18 4 -11 2.48 0.58
-4 18 11 3.06 0.64
-14 18 -11 2.57 0.64
-4 -14 -11 2.99 0.64
18 -14 11 1.55 0.39
-18 14 11 3.19 0.85
-18 3 11 3.27 0.63
15 -18 11 4.21 0.56
-3 -15 11 2.76 0.6
-3 18 11 5.8 0.78
-18 3 -11 4.97 0.69
-15 18 -11 4.63 0.74
-18 15 11 5.29 0.94
-18 2 11 0.82 0.52
2 16 11 0.44 0.62
-18 16 -11 -0.02 0.24
16 -18 11 0.51 0.44
-16 -2 -11 -0.09 0.27
-2 18 11 0.73 0.58
-18 2 -11 1.24 0.51
-16 18 -11 1 0.56
-18 16 11 1.56 0.8
9 10 11 1.71 0.57
-10 -9 -11 1.85 0.66
-19 9 11 1.61 0.6
10 -19 11 1.43 0.47
-9 -10 11 1.7 0.7
-19 9 11 1.13 0.62
-10 19 -11 0.73 0.39
-9 -10 -11 1.72 0.68
10 9 11 1.3 0.58
10 9 11 1.59 0.49
-10 -9 11 2.03 0.68
-19 10 11 1.51 0.52
9 -19 11 1.14 0.44
-19 10 11 0.98 0.66
-8 -11 11 1.75 0.69
-19 8 11 0.59 0.44
-19 8 11 1.68 0.6
-11 -8 -11 1.11 0.59
8 11 11 1.14 0.56
11 -19 11 1.22 0.47
-11 19 -11 0.95 0.52
8 -19 11 0.33 0.27
-19 11 11 1.06 0.67
11 8 11 1.43 0.56
-8 -11 -11 2.5 0.66
-11 -8 11 1.25 0.58
11 8 11 1.5 0.47
-7 -12 11 0.66 0.63
7 12 11 0.22 0.55
12 -19 11 0.36 0.41
-12 -7 -11 0.12 0.43
-19 7 11 -0.21 0.55
-7 -12 -11 0.35 0.61
12 7 11 -0.27 0.5
-19 12 11 0.12 0.72
-12 -7 11 0.12 0.42
12 7 11 0.21 0.35
-12 19 -11 0.06 0.55
-19 7 -11 0.27 0.42
-6 -13 11 1.07 0.67
-19 6 11 1.06 0.6
6 13 11 1.36 0.55
13 -19 11 0.84 0.43
-13 19 -11 0.09 0.62
-19 13 11 0.46 0.75
13 6 11 0.02 0.49
-19 6 -11 0.14 0.48
-6 -13 -11 0.52 0.6
-5 -14 11 1.9 0.67
14 -19 11 2.2 0.5
-19 5 11 1.8 0.59
5 14 11 2.16 0.65
-5 -14 -11 1.47 0.58
-14 19 -11 1.67 0.6
14 5 11 1.4 0.47
-19 5 -11 1.64 0.63
-19 14 11 1.43 0.82
0 0 -12 89.79 5.83
0 0 12 71.63 5.6
1 0 -12 15.95 1.84
1 -1 -12 20.28 1.99
1 0 -12 18.06 1.96
-1 0 -12 19.02 1.98
0 1 12 16.03 1.81
0 1 -12 17.65 1.89
1 -1 -12 16.77 1.95
-1 1 12 15.26 1.82
0 -1 -12 17.47 1.97
-1 0 12 14.44 1.71
-1 1 -12 18.41 1.95
1 0 12 15.66 1.83
0 -1 12 15.19 1.76
1 -1 12 14.96 1.86
-1 1 -12 18.58 1.97
-1 0 -12 16.33 1.93
0 -1 -12 18.58 1.86
0 1 -12 17.01 1.93
-1 2 12 39.38 3.24
1 1 -12 43.35 3.37
-2 1 -12 40.83 3.37
1 1 -12 49.11 3.49
1 1 -12 37.82 3.09
-2 1 12 38.39 3.22
1 -2 -12 40.31 3.32
-1 -1 12 47.73 3.34
2 -1 -12 49.92 3.48
-2 1 12 37.13 3.12
2 -1 12 41.92 3.28
-1 -1 -12 46.34 3.36
1 -2 -12 48.84 3.46
-1 -1 -12 36.03 3.2
1 1 12 39.76 3.26
1 -2 12 39.52 3.23
-1 -1 12 38.94 3.23
2 -1 -12 43.97 3.38
-2 1 -12 45.46 3.41
-1 2 -12 48.56 3.46
0 2 -12 16.57 1.93
-2 2 12 16.05 1.77
-2 2 -12 16.31 1.97
2 0 12 15.94 1.8
0 -2 12 18.29 1.87
0 2 12 15.49 1.85
-2 2 12 17.56 1.61
2 0 -12 17.16 1.95
2 -2 -12 17.45 1.99
0 2 -12 15.92 1.93
2 0 -12 20.02 2.01
0 2 -12 14.59 1.55
2 -2 -12 18.02 1.87
2 -2 12 15.81 1.85
-2 2 -12 18.63 1.95
-2 0 -12 13.6 1.78
0 -2 -12 17.7 1.94
-2 0 12 16.53 1.79
0 -2 12 15.83 1.79
2 0 12 14.9 1.91
-2 0 12 20.89 1.79
-2 0 -12 18.42 1.95
-2 -1 -12 2.99 1
-1 -2 12 3.75 0.97
2 1 -12 4.08 0.9
3 -2 -12 4.05 1.13
2 1 -12 2.54 0.98
-2 3 12 3.3 0.86
-3 2 -12 1.88 0.99
1 -3 -12 3.51 1.08
3 -1 12 3.43 1.01
-1 3 -12 2.99 1.03
-3 1 12 2.64 0.86
-3 2 -12 3.37 1.07
3 -2 -12 2.69 1.01
3 -1 12 2.7 1.04
1 2 12 3.87 0.99
-1 3 -12 2.86 0.98
-1 3 -12 1.71 0.71
2 -3 12 2.36 0.89
-1 -2 12 4.37 1.04
-3 1 12 5 0.85
2 1 -12 2.28 0.99
1 -3 12 3.87 0.95
2 -3 -12 5.73 1.19
-2 3 -12 4.94 1.13
-3 1 -12 3.8 1.04
-2 -1 12 4.96 0.8
-3 1 -12 3 0.91
-2 -1 12 4.9 1.01
-2 3 -12 3.1 0.93
-2 -1 12 5.6 1.13
-3 2 12 3.89 0.88
1 2 -12 3.98 0.86
-3 2 12 5.08 0.87
1 2 -12 5.23 1.14
-1 3 12 3.62 0.93
3 -2 12 3.52 1.12
-1 -2 -12 5.45 1.13
1 2 -12 3.03 1.01
2 -3 -12 3.58 1.07
3 -2 12 2.81 0.92
3 -1 -12 3.63 1.06
2 1 12 3.38 0.96
1 -3 12 4.37 1.04
2 1 12 3.8 1.06
3 0 -12 26.44 2.37
-3 3 -12 25.81 2.42
-3 3 -12 23.82 2.35
0 3 -12 26.66 2.39
3 -3 -12 25.45 2.39
0 -3 12 27.48 2.37
3 0 12 25.18 2.41
-3 3 12 27.22 2.18
3 -3 12 24.86 2.35
0 -3 12 24.46 2.3
0 3 -12 22.62 2.34
0 3 12 23.42 2.34
3 -3 -12 27.76 2.36
3 -3 12 24.27 2.28
0 -3 -12 26.67 2.39
-3 0 12 24.68 2.29
-3 0 -12 27.67 2.33
0 3 -12 25.51 2.12
-3 3 12 22.76 2.16
-3 0 12 25.73 2.26
3 0 12 22.8 2.32
-3 0 12 30.57 2.4
2 2 -12 21.6 2.2
2 -4 12 20.44 2.06
-2 -2 -12 24.67 2.14
-2 4 -12 22.84 2.03
-4 2 12 19.5 1.94
-2 4 12 18.89 2
2 2 -12 21.95 1.98
4 -2 12 22.21 2.22
2 -4 12 24.5 2.2
4 -2 -12 23.55 2.23
2 -4 -12 24.11 2.24
-2 4 -12 19.17 2.12
2 2 12 21.56 2.15
-2 -2 12 18.94 1.83
2 2 12 21.55 2.15
-4 2 12 23.72 2.15
-2 -2 12 22.05 2.08
-2 -2 12 25.31 2.22
-2 4 -12 26.54 2.29
4 -2 12 19.8 2.08
-4 2 -12 27.53 2.29
-4 2 -12 21.61 2.14
3 -4 12 8.39 1.46
-1 4 -12 12.74 1.49
-1 4 -12 10.83 1.65
3 -4 12 10.15 1.51
-4 3 -12 9.69 1.5
-3 4 12 11.69 1.33
-4 1 12 12.09 1.68
-4 3 -12 11.13 1.74
1 -4 -12 11.17 1.64
-4 1 12 10.19 1.51
1 3 12 11.06 1.65
-1 4 -12 9.83 1.58
4 -3 -12 10.18 1.75
4 -1 12 11.31 1.66
3 1 -12 10.64 1.59
-1 -3 12 14.67 1.7
-3 -1 -12 13.74 1.67
-1 -3 12 11.45 1.63
-3 4 12 8.03 1.32
4 -1 12 11.84 1.71
-4 1 12 12.79 1.67
-3 4 -12 11.55 1.51
-4 3 12 13.31 1.58
4 -3 12 10.53 1.69
-1 4 12 9.24 1.59
4 -3 12 8.91 1.49
-3 4 -12 10.87 1.38
-4 1 -12 10.12 1.58
-3 -1 12 12.28 1.68
3 -4 -12 10.19 1.61
3 1 12 9.43 1.61
1 3 -12 11.2 1.67
-3 -1 12 10 1.57
4 -1 -12 9.97 1.61
1 3 -12 9.77 1.56
1 3 -12 9.73 1.34
1 -4 12 10.89 1.58
3 -4 -12 7.31 1.28
-3 4 -12 8.33 1.52
3 1 12 9.3 1.6
1 -4 12 9.85 1.57
-3 -1 12 10.71 1.52
-1 -3 -12 10.64 1.62
0 -4 12 0.04 0.85
-4 4 12 0.96 0.72
0 -4 -12 0.51 0.86
-4 0 12 0 0.87
-4 0 -12 0.06 0.86
0 4 -12 -0.14 0.81
4 -4 12 0.33 0.72
4 0 -12 0.3 0.94
0 4 -12 1.11 0.74
-4 4 -12 0.94 0.96
0 -4 12 0.35 0.95
4 -4 -12 -0.06 0.95
-4 4 -12 0.42 0.47
4 0 12 -0.04 0.33
4 -4 12 0.34 1
-4 4 12 0.16 0.56
-4 0 12 -0.51 0.95
4 -4 -12 0.03 0.91
-4 4 -12 0.05 0.82
-4 4 12 -0.02 0.49
4 0 12 0.36 0.95
-4 0 12 1.11 0.8
0 4 -12 0 0.93
4 0 12 0.15 0.83
0 4 12 0.49 0.91
5 -2 12 0.32 0.81
-2 -3 12 1.01 0.94
-5 3 -12 0.15 0.84
-2 5 -12 -0.2 0.75
3 -5 12 -0.2 0.67
2 -5 -12 0.1 0.82
-3 5 12 1.14 0.77
-2 5 -12 0.49 0.75
3 -5 12 0.41 0.81
-5 2 12 1.06 0.83
3 2 -12 0.13 0.86
-2 5 -12 0.7 0.9
5 -2 12 -0.06 0.38
-2 -3 12 0.43 0.88
-3 -2 -12 -0.07 0.83
2 3 12 0.29 0.9
2 3 12 0.08 0.91
-3 5 12 0.29 0.62
5 -3 -12 0.31 0.97
5 -2 12 0.11 0.97
-5 3 -12 -0.17 0.84
3 2 -12 1.18 0.8
-5 2 12 0.7 0.64
-3 5 -12 0.92 0.79
-3 -2 12 1.73 0.68
2 -5 12 0.56 0.89
3 -5 -12 -0.05 0.84
5 -2 -12 0.46 0.95
5 -3 12 -0.03 0.93
5 -3 12 -0.02 0.34
-5 2 -12 0.56 0.95
-3 -2 12 0.4 0.87
3 2 12 0.76 0.92
3 2 12 0.35 0.96
2 3 -12 0.43 0.72
-3 5 -12 0.45 0.86
-5 3 12 1.11 0.81
2 3 -12 -0.3 0.83
-2 -3 -12 0.02 0.77
2 -5 12 0.6 0.85
-3 5 -12 0.41 0.94
-3 -2 12 0.26 0.99
2 3 -12 0.86 0.96
3 2 12 -0.33 0.52
-5 3 12 0.04 0.53
5 -3 12 0.88 0.72
-2 5 12 0.33 0.75
-4 -1 -12 4.62 1.05
-1 5 -12 2.42 0.89
5 -1 12 5.84 1.21
1 4 12 4.84 1.04
-5 1 12 4.88 1.06
4 -5 12 3.27 0.82
4 1 -12 5.22 1.14
-5 1 12 3.19 0.91
-4 5 12 3.05 0.73
5 -4 -12 5.04 1.15
-1 5 -12 5.36 1.15
-5 1 12 4.85 0.98
-1 -4 12 4.8 1.11
-5 4 -12 2.14 0.91
-1 5 -12 6.4 0.98
4 -5 12 3.45 1.08
1 -5 -12 3.09 0.97
-4 5 12 3.79 0.9
5 -1 12 2.87 0.58
-5 4 -12 4.14 1.12
5 -1 12 5 1.05
-4 -1 12 4.3 1.07
-1 -4 -12 3.51 0.96
5 -1 -12 3.62 1.06
5 -4 12 4.04 1.14
1 4 -12 6.05 1.18
-4 5 -12 2.76 1.03
4 -5 -12 2.51 0.96
4 1 12 4.06 1.15
-5 1 -12 4.95 1.13
4 1 12 4.16 1.07
-4 5 -12 4.13 0.87
1 4 -12 2.29 0.88
4 -5 -12 4.14 1.12
-4 5 -12 2.81 1.01
1 -5 12 4.91 1.05
1 4 -12 3.94 0.82
-1 5 12 3.9 1.01
-4 -1 12 5.45 1.26
1 -5 12 2.96 1.04
-4 -1 12 4.69 0.92
-5 4 12 4.92 0.92
5 -5 -12 9.28 1.38
-5 0 12 11.39 1.63
-5 5 12 9.53 1.39
-5 5 -12 7.95 1.51
-5 0 -12 8.91 1.58
0 5 -12 9.85 1.63
0 5 -12 9.45 1.42
-5 5 -12 9.74 1.28
5 0 12 7.35 1.09
0 -5 12 10.28 1.65
-5 5 -12 10.29 1.48
5 0 12 10.54 1.63
0 5 12 8.95 1.61
-5 0 12 11.21 1.77
-5 5 12 11.18 1.48
0 -5 12 8.84 1.6
5 0 12 8.88 1.59
0 -5 -12 9.44 1.57
5 -5 12 10.25 1.49
-5 0 12 10.01 1.6
5 0 -12 6.86 1.26
-3 6 -12 4.71 0.95
-6 3 -12 4.96 1.17
-3 -3 12 4.6 1.13
-3 -3 -12 5.94 1.12
6 -3 12 7.06 1.27
-3 6 -12 6.37 1.24
6 -3 -12 3.33 1.03
-3 6 12 2.62 0.77
3 3 -12 4.39 0.86
3 3 12 2.45 0.53
3 -6 -12 5.14 1.11
3 -6 12 6.03 1.18
-3 6 12 6.08 1.01
-3 -3 12 6.43 1.12
3 3 -12 5.76 1.15
3 -6 12 3.66 0.96
6 -3 12 3.44 0.8
6 -3 12 2.74 0.64
4 -6 12 2.38 0.93
-2 6 -12 6.31 1
6 -2 12 4.76 0.71
-2 -4 12 7.67 1.34
-6 2 12 4.65 1.12
6 -2 12 4.64 0.96
-2 6 -12 4.21 1.06
-6 4 -12 5.63 1.12
4 2 -12 6.11 1.2
-4 -2 -12 6.65 1.15
-4 6 12 4.86 1
4 -6 12 3.76 0.82
2 4 12 5.11 1.1
-6 2 12 6.02 1.01
6 -2 12 4.43 1.12
-2 -4 12 6.87 1.17
2 -6 -12 4.44 1.09
6 -4 -12 3.93 1.09
-6 4 -12 3.54 1.02
-6 2 12 2.87 0.76
-4 6 -12 9.5 1.37
6 -4 12 6.08 1.24
-4 -2 12 10.58 1.67
2 4 -12 8.34 1.45
-4 -2 12 7.14 1.01
2 -6 12 8.36 1.52
-4 -2 12 8.15 1.53
2 -6 12 7.56 1.31
-4 6 -12 9.72 1.42
4 2 12 8.57 1.6
6 -2 -12 9.22 1.39
-2 -4 -12 7.99 1.52
-6 4 12 11.1 1.66
4 -6 -12 8.03 1.51
-2 6 12 6.92 1.34
6 -4 12 8.11 1.07
-6 2 -12 9.06 1.57
4 2 12 9.87 1.61
2 4 -12 9.02 1.28
-1 6 -12 6.62 1
6 -1 12 3.36 0.98
-1 -5 12 4.78 1.21
5 1 -12 4.16 1.12
-5 -1 -12 4.87 1.11
-6 5 -12 2.53 1.05
-1 -5 12 5.37 1.13
-6 1 12 5.89 1.01
1 -6 -12 2.9 0.97
-6 1 12 4.12 1.16
-6 5 -12 4.18 1.2
5 -6 12 3.91 1.15
-1 6 -12 4.16 1.09
-5 6 12 5.2 1
6 -1 12 4.69 0.75
-6 1 12 3.81 0.96
-5 6 12 3.8 0.79
6 -1 12 4.29 1.21
1 5 12 3.48 1.05
6 -5 -12 3.27 1.09
6 -1 -12 3.59 1.08
5 1 12 3.4 1.03
6 -5 12 3.44 0.67
1 5 -12 4.7 0.87
-6 5 12 5.57 0.94
-6 1 -12 3.59 1.08
6 -5 12 3.78 1.14
-5 6 -12 4.06 1.21
-5 6 -12 3.84 0.91
-5 -1 12 4.45 0.97
5 1 12 3.02 0.66
1 5 -12 3.17 1.01
-5 -1 12 4.69 1.11
1 -6 12 4.67 1.07
-6 5 12 3.32 0.88
5 -6 -12 3.45 1.09
5 1 12 4.8 1.18
-1 6 12 3.67 1
1 -6 12 4.01 1.11
-5 -1 12 3.77 1.18
-1 -5 -12 3.95 1.06
-6 6 12 3.19 0.82
-6 0 -12 2.29 0.98
6 -6 -12 1.87 0.96
6 -6 12 2.27 1.01
0 6 12 3.05 1.01
6 0 -12 1.86 1.03
-6 6 -12 2.07 0.83
0 -6 -12 2.4 0.99
6 0 12 2.94 1.02
0 6 -12 1.78 0.93
-6 0 12 2.58 1
0 -6 12 3.28 1.13
-6 6 12 2.54 0.91
-6 0 12 2.83 1.18
6 -6 12 2.44 0.64
-6 6 -12 2.26 1.05
6 0 12 2.3 0.64
0 6 -12 2.92 0.83
-6 0 12 3.57 0.9
6 0 12 3.84 1.18
0 -6 12 2.01 0.97
3 4 12 8.77 1.11
-7 3 12 12.32 1.73
-7 4 -12 10.22 1.67
-3 -4 12 11.14 1.88
-3 -4 12 12.22 1.62
3 -7 -12 9.29 1.57
7 -3 12 12.15 1.24
7 -3 12 11.69 1.81
-4 -3 -12 10.74 1.5
-3 7 -12 13.31 1.8
4 3 -12 11.37 1.72
4 -7 12 8.3 1.27
3 4 12 11.72 1.73
4 3 -12 12.28 1.51
-3 7 -12 11.43 1.46
-4 7 12 11.34 1.64
7 -4 -12 10.31 1.77
-4 7 -12 10.73 1.45
3 -7 12 9.26 1.56
-3 7 12 9.91 1.42
3 4 -12 10.91 1.39
-4 7 -12 10.01 1.74
-7 4 12 10.17 1.65
-3 -4 -12 9.29 1.42
4 3 12 9.09 1.18
-7 3 -12 10.23 1.71
4 3 12 9.72 1.63
7 -4 12 10.13 1.21
-3 7 12 6.95 1.25
3 4 -12 9.26 1.63
7 -4 12 12.56 1.76
-4 -3 12 12.7 1.91
-4 -3 12 9.18 1.62
7 -3 -12 8.25 1.36
3 -7 12 11.61 1.73
4 -7 -12 9.25 1.63
5 2 -12 2.81 1.04
-7 2 12 2.75 0.84
-5 -2 -12 2.92 1.02
-7 2 12 1.78 0.68
2 -7 -12 1.7 0.88
5 -7 12 2.55 0.98
-7 5 -12 2.3 1.03
7 -2 12 4.31 1.22
7 -5 -12 2.4 1.14
-2 7 -12 3.15 0.83
7 -2 12 2.54 0.87
-5 7 12 2.85 0.9
-2 -5 12 3.58 1.2
2 5 12 3.81 1.06
2 5 12 1.56 0.47
-7 5 -12 1.78 0.86
7 -2 12 3.08 0.64
-2 -5 12 3.32 1.04
-7 2 12 1.7 0.97
-2 7 -12 2.08 1.01
7 -5 12 6.84 1.26
2 -7 12 4.95 1.2
-7 5 12 5.23 0.97
-5 7 -12 6.19 1.03
2 -7 12 5.27 1.12
2 5 -12 6.76 0.99
-2 -5 -12 4.83 1.08
-5 -2 12 7.55 1.43
-2 7 12 4.34 0.98
5 -7 -12 4.37 1.13
5 2 12 6.81 1.32
7 -2 -12 5.96 1.26
-7 5 12 5.98 1.02
5 2 12 3.42 0.72
-5 -2 12 3.78 0.91
5 2 12 5.65 1.17
-5 -2 12 5.18 1.13
-5 7 -12 5.53 1.26
-7 2 -12 5.14 1.18
2 5 -12 6.08 1.24
7 -5 12 4.31 0.76
-6 -1 -12 13.1 1.8
6 -7 12 12.94 1.41
-6 7 12 13.15 1.53
-7 1 12 14.1 1.72
6 -7 12 13.73 1.87
7 -1 12 14.86 1.45
-7 1 12 16.14 1.93
-6 7 12 15.25 1.77
1 6 12 14.99 1.79
-1 -6 12 14.14 1.78
7 -1 12 13.92 1.8
-1 7 -12 16.41 1.93
7 -1 12 17.1 1.94
6 1 -12 14.17 1.91
7 -6 -12 13.65 1.95
-1 7 -12 15.5 1.73
-7 1 12 15.33 1.68
1 -7 -12 14.48 1.78
-7 6 -12 15.58 1.55
-7 6 -12 14.56 1.99
-1 -6 12 15.94 2.05
-6 7 -12 22.26 1.97
7 -6 12 21.85 2.19
7 -1 -12 21.03 2.23
6 1 12 22.03 1.78
-7 6 12 19.31 2.08
-1 7 12 16.75 1.99
1 6 -12 20.72 1.96
6 1 12 19.27 2.15
-7 6 12 21.41 2.04
-6 -1 12 21.99 2.27
1 6 -12 20.5 2.16
-6 -1 12 21.15 2.12
-6 -1 12 18.45 2.02
-1 -6 -12 19.29 2.05
7 -6 12 19.54 1.77
1 -7 12 23.55 2.31
6 1 12 23.92 2.26
6 -7 -12 19.48 2.17
-7 1 -12 21.77 2.17
1 -7 12 20.28 2.12
7 0 12 5.33 1.11
-7 0 -12 7.11 1.26
7 -7 12 4.77 0.77
7 0 12 8.03 1.37
0 -7 12 7.2 1.42
0 -7 12 7.19 1.2
-7 7 12 7.22 1.11
7 0 -12 5.76 1.22
-7 7 12 6.17 0.94
0 7 -12 5.46 1.2
-7 0 12 7.09 1.03
-7 0 12 6.32 1.37
-7 7 -12 5.65 0.96
-7 0 12 4.57 1.11
7 -7 -12 3.67 1
0 7 12 4.69 1.08
7 0 12 5.4 0.79
0 7 -12 9.13 1.09
7 -7 12 5.88 1.26
-7 7 -12 5.77 1.32
-4 -4 -12 17.13 1.99
-8 4 12 18.8 1.94
-4 8 -12 18.6 1.82
-4 -4 12 17.5 1.98
8 -4 12 17.45 1.59
4 4 12 18.21 2.02
-4 8 -12 18.22 2.11
-4 -4 12 23.11 2.27
4 -8 12 14.85 1.82
-8 4 -12 17.3 2.02
-8 4 -12 16.91 1.83
4 4 -12 19.33 2.06
8 -4 -12 18.54 2.14
4 -8 -12 15.31 1.8
8 -4 12 20.49 2.1
4 4 12 16.61 1.57
4 4 -12 19.2 1.78
-4 8 12 17.46 1.86
8 -5 -12 6.99 1.35
8 -3 12 7.54 1.07
-8 5 -12 6.73 1
-3 8 -12 8.67 1.08
5 3 -12 6.98 1.32
8 -3 12 7.05 1.31
-3 -5 12 7.6 1.23
5 3 -12 8.58 1.08
3 5 12 5.01 0.8
-5 8 12 5.89 1.07
-3 -5 12 7.13 1.39
-5 -3 -12 6.36 1.25
-3 8 -12 8.75 1.43
-8 3 12 6.14 1.02
-8 5 -12 5.4 1.21
3 5 12 6.5 1.21
5 3 12 12.89 1.3
-5 8 -12 12.38 1.91
-8 3 -12 10 1.73
3 -8 12 12.54 1.79
-8 3 -12 12.45 1.58
-5 -3 12 12.16 2.03
5 -8 -12 10.19 1.57
-5 -3 12 9.71 1.36
5 3 12 12.16 1.78
-8 5 12 11.48 1.65
-3 -5 -12 12.97 1.74
-5 -3 12 11.66 1.73
-3 -5 -12 8.73 1.61
3 5 -12 12.1 1.41
8 -5 12 11.42 1.28
8 -3 -12 11.51 1.79
3 5 -12 10.82 1.74
3 -8 12 12.11 1.64
-5 8 -12 10.98 1.58
-8 5 12 10.86 1.6
8 -5 12 12.05 1.83
-8 2 12 -0.26 0.73
-8 6 -12 0.12 0.63
-2 8 -12 1.85 0.76
-8 2 12 -0.06 0.56
2 -8 -12 -0.35 0.57
-6 -2 -12 0.26 0.88
-8 6 -12 0.01 0.65
6 2 -12 0.95 1.07
8 -2 12 1.22 0.74
8 -6 -12 1.34 1.21
6 -8 12 1.03 0.93
8 -2 12 1.55 0.6
8 -2 12 2.9 1.15
6 -8 12 1.31 0.6
-2 8 -12 0.77 1.04
-8 6 -12 1.03 0.55
2 6 12 1.5 0.56
-8 6 -12 0.61 0.53
2 6 12 0.65 0.96
-2 -6 12 1.37 0.93
-8 2 12 1.12 0.75
-2 -6 12 1.5 1.13
-6 8 12 1.4 0.85
-8 2 -12 1.88 0.8
-2 -6 -12 2.32 1
8 -6 12 1.46 1.05
2 -8 12 2.77 1.18
8 -6 12 2.62 0.66
6 2 12 2.7 1.03
6 2 12 2.89 1.15
6 -8 -12 1.06 0.87
-2 -6 -12 1.79 0.95
8 -2 -12 1.23 0.98
2 -8 12 2.02 1
-6 8 -12 3.11 1.16
-8 6 12 1.82 0.91
-2 8 12 1.85 0.83
-6 -2 12 1.13 0.79
2 6 -12 2.24 1.06
6 2 12 3.34 0.72
-8 6 12 2.87 0.9
-6 -2 12 2.87 1.29
-6 -2 12 2.07 1.02
-8 2 -12 2.66 1.09
2 6 -12 2.74 0.84
-6 8 -12 2.4 0.86
7 -8 12 12.24 1.77
7 -8 12 11.28 1.3
-7 -1 -12 11.65 1.46
-8 1 12 12.15 1.63
8 -7 -12 11.28 1.79
-7 8 12 11.31 1.36
8 -1 12 14.85 1.8
-8 7 -12 10.6 1.54
-7 -1 -12 8.96 1.6
1 7 12 9.11 1.1
1 7 12 12.35 1.8
-1 8 -12 13.64 1.5
-8 7 -12 10.91 1.72
-7 -1 -12 12.79 1.72
1 -8 -12 12.36 1.72
-1 -7 12 13.18 1.97
-8 1 12 11.12 1.54
8 -1 12 12.93 1.29
7 1 -12 12.83 1.83
-7 8 12 11.84 1.63
8 -1 12 10.85 1.67
-1 -7 12 10.52 1.65
-1 8 -12 11.96 1.75
1 7 -12 14.16 1.56
-1 -7 -12 12.07 1.7
7 -8 -12 9.64 1.62
-8 7 12 12.39 1.65
1 7 -12 11.46 1.8
-8 1 -12 12.77 1.55
-1 8 12 9.85 1.63
-7 8 -12 11.52 1.91
-7 8 -12 11.56 1.52
-8 1 -12 10.87 1.73
-8 7 12 11.59 1.56
7 1 12 14.81 1.84
8 -7 12 14.17 1.41
7 1 12 12.09 1.36
-7 -1 12 10.22 1.49
7 1 12 11.5 1.79
1 -8 12 11.48 1.7
-7 -1 12 12.53 1.73
1 -8 12 11.72 1.96
-7 -1 12 11.71 1.97
8 -1 -12 12.69 1.86
8 -7 12 14.54 1.86
-8 0 -12 5.22 1.13
8 0 12 6.42 0.8
0 -8 12 9.05 1.51
8 -8 12 6.24 0.81
-8 8 12 7.06 1.1
8 0 -12 6.88 1.31
0 -8 -12 4.6 1.09
-8 0 -12 6.02 0.92
-8 0 12 3.01 1.03
8 0 12 7.23 1.29
-8 0 12 4.43 0.91
-8 8 -12 6.45 1.02
-8 0 -12 3.63 0.91
0 -8 12 5.32 1.1
-8 8 12 5.87 0.9
0 8 -12 8.74 1.05
-8 8 -12 4.11 1.15
8 0 12 6.66 1.18
-8 0 12 6.65 1.2
8 -8 12 8.25 1.35
0 8 -12 4.91 1.18
9 -5 -12 2.61 1.26
-9 5 -12 2.37 0.83
-9 5 -12 0.49 0.86
-4 -5 12 2.27 1.06
-9 4 12 1.94 0.79
-4 -5 12 2.02 1.24
5 -9 12 1.34 0.51
5 4 -12 1.95 1.09
-5 -4 -12 2.05 1.03
-4 9 -12 1.86 1.03
-5 -4 -12 1.77 0.93
-4 9 -12 3.2 0.85
5 4 -12 2.73 0.82
9 -4 12 2.6 1.11
9 -4 12 1.97 0.59
4 5 12 1.95 0.62
-5 9 12 2.02 0.83
5 4 12 0.65 1.03
-5 -4 12 1.36 1.24
-4 -5 -12 1.32 0.93
9 -4 -12 0.78 1.03
-5 9 -12 0.35 1.06
-4 9 12 0.17 0.57
4 5 -12 1.6 0.73
-9 5 12 1.09 0.93
-9 4 -12 0.91 0.79
5 4 12 1.48 0.65
-5 -4 12 0.61 0.97
-4 -5 -12 1.15 0.94
4 -9 12 0.45 0.62
9 -5 12 1.45 0.56
-9 5 12 1.4 0.78
9 -5 12 0.6 0.95
-4 9 12 1.6 0.77
-9 4 -12 0.77 0.94
-5 9 -12 1.04 0.77
4 5 -12 0.14 0.95
-5 -4 12 0.49 0.46
-6 9 12 5.04 1
9 -3 12 6.51 0.77
-9 3 12 6.04 0.98
-9 6 -12 3.47 0.84
3 6 12 4.85 0.72
6 3 -12 6.29 1.26
9 -3 12 3.4 1.09
6 -9 12 2.25 0.91
-6 -3 -12 3.59 1.04
-3 9 -12 3.66 1.11
-6 -3 -12 3.35 1.06
6 -9 12 4.77 0.75
-3 -6 12 7.4 1.47
-3 9 -12 7.2 1.01
-3 -6 12 6.13 1.16
9 -6 -12 4.71 1.38
-6 -3 -12 3.98 0.82
6 3 -12 5.77 0.96
-9 3 -12 4.81 0.95
3 6 -12 6.92 0.96
-3 9 12 2.66 0.8
-9 3 -12 5.06 1.18
3 -9 12 3.94 1.06
-6 -3 12 7.45 1.48
-9 6 12 4.18 1.07
-6 9 -12 3.52 1.18
-3 -6 -12 2.02 0.85
-6 9 -12 5.92 0.98
9 -3 -12 5 1.2
9 -6 12 3.81 1.13
-9 6 12 5.33 0.95
6 3 12 6.39 0.79
9 -6 12 5.94 0.75
-6 -3 12 3.34 0.82
-3 -6 -12 6.06 1.23
3 6 -12 3.13 1.03
-6 -3 12 4.27 1.13
7 2 -12 10.8 1.73
9 -2 12 9.44 1.14
-7 9 12 8.24 1.48
7 -9 12 9.51 1.18
-7 -2 -12 7.79 1.32
-2 -7 12 11.29 1.42
-7 -2 -12 9.44 1.42
-2 9 -12 11.59 1.52
-2 9 -12 10.17 1.4
2 7 12 8.7 1.12
9 -2 12 9.59 1.65
7 -9 12 5.87 1.2
-7 -2 -12 8.02 1.52
-9 7 -12 9.47 1.34
-9 2 12 9.54 1.18
-2 -7 12 8.22 1.5
9 -7 -12 7.13 1.4
-2 9 12 7.37 1.16
-7 -2 12 8.93 1.57
2 7 -12 9.99 1.42
-7 -2 12 8.47 1.09
-7 9 -12 10.49 1.21
9 -7 12 10.12 1.75
-2 -7 -12 9.26 1.6
-7 -2 12 10.04 1.59
9 -7 12 10.43 1.18
-9 2 -12 10.28 1.45
-7 9 -12 7.82 1.41
-9 7 12 8.73 1.55
2 -9 12 8.38 1.64
-9 7 12 9.79 1.49
9 -2 -12 7.38 1.35
-9 2 -12 5.65 1.24
7 2 12 10.16 1.19
2 -9 12 8.62 1.52
2 7 -12 6.45 1.26
-8 9 12 0.51 0.55
1 -9 -12 0.35 0.73
-8 -1 -12 0.78 0.71
9 -1 12 -0.05 1.02
-9 1 12 0.04 0.75
-1 9 -12 0.29 0.71
8 1 -12 -0.2 1.04
-9 8 -12 0.3 0.73
-1 -8 12 -0.17 0.86
-8 -1 -12 0.57 0.68
8 -9 12 0.2 0.6
-8 9 12 0.33 0.79
-8 -1 -12 0.07 0.87
1 8 12 -0.1 0.53
9 -1 12 0.31 0.55
-9 8 -12 -0.13 0.76
8 -9 12 0.15 0.97
9 -8 -12 0 0.84
-1 -8 12 0.15 1.14
-9 1 12 0.13 0.72
-1 9 -12 -0.26 0.95
1 8 12 0.19 0.45
1 8 -12 0.99 0.76
8 1 12 0.87 0.6
1 -9 12 -0.25 0.93
-1 9 12 0.43 0.53
-8 9 -12 0.26 0.95
9 -1 -12 -0.15 1.06
-9 8 12 0.62 0.71
-9 8 12 0.55 0.85
-9 1 -12 0.05 0.92
9 -8 12 0.6 0.61
9 -8 12 0.21 1.02
8 1 12 0.65 1.06
-8 -1 12 0.74 0.94
1 8 -12 0.4 0.91
1 -9 12 0.65 0.99
-8 9 -12 -0.09 0.78
-8 -1 12 0.94 0.74
-1 -8 -12 0.14 0.89
-9 1 -12 0.59 0.7
-8 -1 12 0.7 0.9
0 -9 12 -0.37 0.88
0 -9 12 0.13 1.01
9 0 -12 0.42 1
0 9 12 0.96 0.52
-9 0 -12 0.98 0.72
0 9 -12 -0.16 0.86
0 9 12 -0.01 0.59
-9 0 12 0.17 0.93
-9 0 -12 0.31 0.95
0 -9 -12 0.16 0.79
9 -9 12 -0.17 0.6
0 9 -12 0.48 0.65
9 -9 12 0.26 0.98
-9 9 -12 0.41 0.75
-9 9 12 0.08 0.79
-9 9 -12 0.53 0.9
9 0 12 0.39 1.04
-9 0 12 0.27 0.74
9 0 12 1.2 0.6
-9 9 12 0.9 0.67
10 -5 -12 1.06 1.26
-5 -5 12 1.38 1.19
-5 -5 -12 0.78 0.97
-10 5 12 1.85 0.81
-10 5 12 0.73 0.86
-5 10 -12 0.99 0.77
5 -10 12 0.62 0.49
-5 -5 -12 0.87 0.75
10 -5 12 1.01 1.03
5 5 12 1.26 0.6
5 5 -12 1.43 0.92
-10 5 -12 1.27 0.75
-5 -5 12 1.64 1.03
-5 10 -12 0.56 1.11
-5 10 12 2.08 0.82
-5 -5 -12 1.33 0.74
5 5 -12 0.74 0.66
10 -5 12 1.38 0.56
-10 5 -12 0.23 0.77
10 -4 12 7.21 1.31
6 -10 12 7.25 1.12
-4 -6 12 8.23 1.59
-10 4 12 10.06 1.17
-4 -6 12 10.9 1.7
-4 10 -12 10.02 1.36
6 4 -12 8.35 1.28
-6 -4 -12 8.29 1.28
-6 10 12 8.6 1.51
-6 -4 -12 5.8 1.26
10 -4 12 8.08 1.07
-10 6 -12 8.22 1.37
4 6 12 7.74 1.12
10 -6 -12 6 1.42
-4 10 -12 9.53 1.48
6 4 -12 5.94 1.24
-10 4 -12 13.26 1.57
6 4 12 13.71 1.38
10 -6 12 13.46 1.33
-6 -4 12 13.17 1.84
-6 10 -12 14.74 1.55
-4 -6 -12 14.4 1.54
-4 -6 -12 13.35 1.85
4 6 -12 9.7 1.65
-6 10 -12 11.83 1.93
-6 -4 12 13.85 2.14
4 6 -12 13.5 1.51
-10 4 -12 11.35 1.74
10 -4 -12 14.14 2.07
-10 6 12 13.59 1.64
10 -6 12 15.24 1.84
-10 6 12 12.33 1.84
3 7 12 2.6 0.64
3 7 12 3.35 0.69
-10 3 12 3.42 0.89
-7 -3 -12 3.62 0.8
7 -10 12 3.91 0.7
-3 -7 12 3.45 1.06
7 3 -12 3.32 1.06
-3 -7 12 3.84 1.34
10 -7 -12 3.3 1.31
-3 10 -12 2.94 1.13
10 -3 12 3.95 0.67
10 -3 12 3.68 1.14
7 3 -12 4.87 0.88
-7 10 12 5.39 0.99
-3 10 -12 5.24 0.95
-7 -3 -12 2.04 0.94
-10 7 -12 1.93 0.62
-7 -3 -12 3.77 1.08
-7 10 -12 2.88 1.17
3 7 -12 3.55 0.83
-10 7 12 3.54 0.85
-7 -3 12 2.92 0.75
-3 10 12 2.23 0.67
-7 -3 12 3.31 1.28
7 3 12 4.28 0.69
-3 -7 -12 1.67 1.02
-10 3 -12 2.91 1.14
3 7 -12 2.08 0.92
-7 -3 12 4.7 1.15
-10 3 -12 3.43 0.87
3 -10 12 2.57 0.97
-7 10 -12 2.72 0.87
10 -3 -12 2.49 1.1
10 -7 12 2.76 0.64
10 -7 12 3.78 1.15
-10 7 12 3.16 1.02
-2 -8 12 5.7 1.12
-2 10 -12 5.96 0.92
-10 2 12 6.68 1
-8 -2 -12 4.15 1.07
10 -8 -12 1.73 0.97
-2 10 -12 6.38 1.25
-8 10 12 7.54 1.06
-8 -2 -12 2.39 0.82
-8 -2 -12 4.55 0.81
-10 8 -12 3.94 0.88
2 8 12 4.14 0.75
2 8 12 4.95 0.73
8 -10 12 4.14 0.72
-2 -8 12 4.65 1.31
8 2 -12 4.23 1.09
8 -10 12 4.09 1.05
10 -2 12 6.06 1.17
2 -10 12 8.81 1.33
-10 8 12 10.63 1.35
-10 2 -12 8.46 1.46
10 -8 12 10.25 1.17
-8 -2 12 8.1 1.36
-2 10 12 8.06 1.25
-10 8 12 9.27 1.45
-2 -8 -12 9.76 1.75
10 -2 -12 8.61 1.43
2 8 -12 8.49 1.36
-8 10 -12 9.31 1.46
-10 2 -12 9.42 1.37
-8 -2 12 8.63 1.6
10 -8 12 9.68 1.69
-8 10 -12 9.24 1.44
8 2 12 8.72 1.15
-9 -1 -12 1.63 0.7
-1 -9 12 0.42 0.91
-1 10 -12 0.61 0.81
-9 -1 -12 1.14 0.96
9 -10 12 1.25 0.64
9 -10 12 1.15 0.92
-10 1 12 -0.12 0.59
1 9 12 0.62 0.55
-1 -9 12 0.73 0.99
9 1 -12 0.24 0.83
10 -1 12 1 0.96
1 9 12 0.72 0.62
-1 10 -12 1.25 0.73
-10 9 -12 0.6 0.8
-9 10 12 1.28 0.49
10 -1 12 1.56 0.58
-9 10 12 1.66 0.83
-10 1 12 0.5 0.74
10 -9 12 0.41 0.97
10 -9 12 0.76 0.59
-10 1 -12 0.39 0.92
-1 -9 -12 0.73 0.83
-9 -1 12 0.48 0.72
1 -10 12 -0.14 0.91
-1 10 12 0.7 0.67
-10 9 12 1.03 0.84
-9 10 -12 0.04 0.92
-10 9 12 0.78 0.7
1 9 -12 -0.12 0.64
10 -1 -12 0.66 1.04
-1 10 12 0.31 0.37
9 1 12 0.74 0.57
1 9 -12 0.48 0.63
-10 1 -12 0.93 0.72
-9 -1 12 0.76 0.97
-9 10 -12 0.89 0.75
-10 10 -12 0.26 0.69
-10 0 -12 0.4 0.92
10 0 12 1.53 0.59
10 0 -12 -0.02 0.77
-10 0 -12 1.35 0.72
0 10 -12 1.13 0.72
-10 10 -12 0.27 0.75
-10 10 12 1.21 0.82
10 0 12 1.18 0.93
10 -10 12 1.39 0.62
-10 0 12 1.36 0.77
-10 10 12 1.26 0.6
10 -10 12 0.98 0.87
0 10 12 0.65 0.66
-10 0 12 0.98 0.84
0 -10 12 0.65 0.91
0 10 12 0.86 0.56
5 6 12 1.59 0.63
-11 5 12 1.45 0.81
-5 11 -12 -0.14 0.92
-6 -5 -12 0.57 0.69
6 5 -12 1.03 0.71
-5 -6 12 1.38 1.04
-6 11 12 1.8 0.79
6 -11 12 0.65 0.59
11 -5 12 0.8 0.93
-5 11 -12 1.98 0.78
6 5 -12 -0.26 0.76
11 -6 -12 1.25 1.18
-11 5 12 1.2 0.89
11 -5 12 1.63 0.56
5 6 12 0.69 0.62
-11 6 -12 0.98 0.73
-6 11 12 1.28 0.6
-6 -5 -12 0.44 1
-5 -6 12 1.28 1.17
-6 -5 12 3.77 1.3
5 6 -12 -0.3 1.16
-5 11 12 2.49 0.68
5 6 -12 3.82 0.84
-5 -6 -12 2.48 1.07
11 -5 -12 4.66 1.41
-11 6 12 2.52 0.98
11 -6 12 1.86 0.99
6 5 12 3.64 0.66
-11 5 -12 2.22 0.78
5 -11 12 2.08 0.55
-6 11 -12 1.62 1
-6 11 -12 4.88 0.92
-5 -6 -12 3.1 0.81
-11 6 12 2.88 0.84
-6 -5 12 2.02 1.05
-4 11 -12 19.98 1.8
4 7 12 20.04 1.65
4 7 12 16.38 1.69
-7 -4 -12 19.57 1.81
11 -7 -12 17.67 2.3
-4 -7 12 19.35 2.27
11 -4 12 18.29 2.04
-11 4 12 17.85 1.88
-4 -7 12 18.08 2.03
-7 11 12 18.78 1.93
-7 -4 -12 19.99 2.08
11 -4 12 19.26 1.6
7 4 -12 18.12 1.78
7 -11 12 16.57 1.62
-4 11 -12 18.06 2.07
-7 -4 12 14.09 1.92
-4 -7 -12 13.28 1.5
-11 4 -12 11.72 1.71
-11 7 12 16.02 1.67
-4 -7 -12 13.31 1.93
-7 11 -12 15.02 1.65
11 -7 12 12.83 1.83
-7 11 -12 15.3 1.94
11 -7 12 15.87 1.37
-4 11 12 12.32 1.43
7 4 12 16.03 1.39
4 7 -12 14.49 1.59
11 -4 -12 16.86 2.07
-11 7 12 13.47 1.85
-11 4 -12 14.93 1.59
-7 -4 12 16.51 2.06
11 -3 12 6.19 1.16
8 -11 12 8.2 0.91
3 8 12 5.52 0.91
-3 -8 12 4.65 1.29
-11 8 -12 7.42 1.11
8 3 -12 6.49 0.99
11 -3 12 6.91 1.02
3 8 12 6.64 1.03
-3 11 -12 8.01 1.25
-8 11 12 7.71 1.07
-11 3 12 6.15 1.03
-8 -3 -12 7.39 0.98
-3 -8 12 9.73 1.35
-8 -3 12 2.65 0.77
-3 -8 -12 4.68 1.21
-8 11 -12 2.91 1.04
3 -11 12 4.22 0.99
-11 8 12 4.69 1.07
8 3 12 5.47 0.72
-3 11 12 4.29 0.8
3 8 -12 3.87 0.84
-11 3 -12 2.36 0.93
-8 -3 12 4.97 1.08
-8 11 -12 6.36 0.97
-11 8 12 4.91 0.9
11 -3 -12 4.7 1.24
11 -8 12 6.11 0.75
-11 3 -12 3.75 0.82
11 -8 12 4.06 1.08
-2 11 -12 2.49 0.76
-2 11 -12 0.11 0.73
-11 9 -12 1.93 0.75
2 9 12 1.9 0.61
-9 11 12 2.43 0.83
9 -11 12 -0.05 0.72
-2 -9 12 1.77 0.95
-2 -9 12 0.02 0.87
2 9 12 1.74 0.69
-9 -2 -12 0.9 0.7
-11 2 12 1.06 0.79
11 -2 12 1.76 0.9
9 -11 12 2.28 0.65
11 -2 12 3.25 0.64
-9 -2 -12 2.26 0.75
-11 9 12 3.54 0.86
2 9 -12 3.01 0.75
2 -11 12 2.48 1.01
9 2 12 4.36 0.67
-9 11 -12 1.36 0.85
-11 9 12 4.78 1.05
-11 2 -12 3.78 0.79
11 -9 12 4.63 0.68
-9 -2 12 3.19 0.99
11 -2 -12 1.45 0.9
11 -9 12 3.12 1.03
-9 11 -12 4.56 0.9
-11 2 -12 1.58 0.87
-9 -2 12 3.17 0.78
-2 11 12 3.62 0.79
-1 -10 12 1.44 0.93
1 10 12 2.24 0.62
11 -1 12 3.19 0.63
-10 -1 -12 0.38 0.65
-10 -1 -12 1.37 0.68
-11 1 12 0.69 0.77
-10 11 12 3.02 0.89
10 -11 12 1 0.63
-11 10 -12 1.89 0.76
1 10 12 1.59 0.7
10 -11 12 -0.04 0.67
-1 11 -12 1.41 0.69
11 -1 12 0.77 0.73
10 1 12 0.67 0.53
-1 11 12 0.52 0.52
-10 11 -12 0.26 0.85
-11 1 -12 0.23 0.66
11 -10 12 0.42 0.75
-10 -1 12 0.47 0.89
1 -11 12 0.03 0.84
1 10 -12 0.46 0.66
11 -10 12 0.68 0.59
-11 10 12 1.08 0.86
-10 -1 12 -0.21 0.7
-11 1 -12 0.47 0.75
-1 11 12 0.28 0.7
-10 11 -12 0.32 0.7
11 -1 -12 0 1.28
-11 10 12 0.69 0.65
0 11 12 0.17 0.67
-11 0 -12 0.33 0.58
11 0 12 0.25 0.53
-11 0 12 0.19 0.72
0 -11 12 0.21 0.87
11 -11 12 -0.31 0.73
-11 0 -12 0.33 0.61
-11 11 12 0.53 0.39
-11 0 12 0.02 0.56
-11 11 -12 0.07 0.68
0 11 12 0.68 0.56
11 -11 12 -0.12 0.55
-11 11 12 0.1 0.79
0 11 -12 0.51 0.65
-12 6 12 12.59 1.73
6 -12 12 11.83 1.3
-12 6 -12 12.99 1.47
12 -6 12 14.08 1.26
-6 12 -12 10.23 1.6
-6 -6 -12 13.71 1.51
12 -6 -12 13.72 1.95
-6 12 12 13.13 1.35
12 -6 12 10.22 1.56
-6 -6 12 10.31 1.72
-12 6 12 14.27 1.62
6 6 12 13.74 1.32
-6 12 -12 15.6 1.51
6 6 -12 13.85 1.52
-6 -6 -12 10.57 1.62
6 6 12 13.13 1.48
-6 -6 12 13.4 1.81
-5 -7 12 5.64 1.2
5 7 12 7.39 1
12 -7 -12 2.8 1.04
-12 5 12 4.78 1.01
-7 12 12 7.54 1.07
12 -5 12 3.66 0.89
-7 12 12 7.27 1.24
7 -12 12 4.14 0.73
7 5 -12 4.97 0.84
5 7 12 6.35 0.91
-7 -5 -12 5.38 0.87
-12 7 -12 4.48 0.84
5 -12 12 2.22 0.56
7 5 12 2.46 0.71
-5 -7 -12 3.38 0.76
12 -7 12 1.93 0.88
-12 5 -12 3.53 0.8
5 7 -12 3.96 0.81
12 -7 12 4.95 0.67
-5 12 12 2.61 0.71
-7 12 -12 4.35 0.82
-5 -7 -12 3.54 0.95
-7 -5 12 4.15 1.12
-12 7 12 4.9 0.91
7 5 12 4.44 0.68
-12 7 12 4 0.99
12 -5 -12 2.78 1.06
-7 12 -12 2.06 0.91
4 8 12 6.89 1.02
-12 4 12 6.62 1.02
-8 -4 -12 6.52 0.93
-4 12 -12 4.89 0.91
8 -12 12 4.69 0.76
-4 -8 12 6.23 1.16
12 -4 12 5.83 0.74
8 4 -12 4.67 0.89
4 8 12 4.99 0.88
-8 12 12 8.04 1.07
8 4 12 7.78 0.98
-12 8 12 6.46 1.12
12 -8 12 7.78 1
4 8 -12 7.16 0.97
-12 4 -12 7.53 1.24
-12 8 12 7.05 0.98
-4 12 12 6.27 1.1
-8 -4 12 4.81 1.1
3 9 12 17.3 1.59
-3 12 -12 16.93 1.7
-12 9 -12 17.42 1.66
-3 -9 12 18.26 1.97
9 3 -12 18.91 1.77
3 9 12 19.29 1.72
-9 12 12 19.1 1.87
-9 -3 -12 18.45 1.72
12 -3 12 19.56 1.58
-12 3 12 17.86 1.83
9 -12 12 20.5 1.67
-9 12 -12 16.41 1.56
9 3 12 14.72 1.33
-9 -3 12 13.63 1.71
12 -9 12 15.16 1.37
-12 3 -12 15.19 1.54
-12 9 12 14.94 1.85
3 -12 12 11.56 1.48
-3 12 12 13.26 1.47
3 9 -12 13.89 1.44
-12 9 12 13.46 1.59
-9 -3 12 14.22 1.5
-10 -2 -12 0.03 0.62
-2 -10 12 0.74 0.9
12 -2 12 0.79 0.57
-12 2 12 -0.1 0.73
-10 12 12 0.62 0.75
-12 10 -12 0.06 0.67
2 10 12 0.36 0.54
-2 12 -12 0.04 0.62
10 -12 12 0.56 0.61
2 10 12 -0.45 0.66
-2 12 12 0.18 0.35
-10 -2 12 0.3 0.81
2 -12 12 0.17 0.87
2 10 -12 0.5 0.67
10 2 12 0.65 0.52
-12 10 12 0.35 0.88
-2 12 12 0.22 0.7
12 -10 12 -0.19 0.68
-10 -2 12 0.55 0.7
-12 2 -12 0.18 0.66
12 -10 12 0.67 0.53
-10 12 -12 -0.11 0.65
-12 10 12 1.06 0.69
1 11 12 2.54 0.62
-11 12 12 4.02 0.9
11 -12 12 4.86 0.73
1 11 12 2.35 0.74
-1 12 -12 2.16 0.7
-12 11 -12 2.31 0.74
-1 -11 12 4.02 1.02
-11 -1 -12 2.98 0.7
-12 1 12 2.29 0.8
-11 -1 12 3.78 0.89
-1 12 12 3.82 0.83
12 -11 12 6.42 0.76
-1 12 12 4.29 0.71
-11 -1 12 2.32 0.81
1 -12 12 3.22 0.96
1 11 -12 3.65 0.76
11 1 12 5.39 0.7
-12 11 12 4.39 0.97
-12 1 -12 4.79 0.81
-11 12 -12 4.67 0.84
12 0 12 0.64 0.52
0 12 -12 0.51 0.61
-12 12 12 0.17 0.73
-12 12 -12 0.32 0.66
12 -12 12 -0.08 0.53
-12 0 -12 -0.03 0.63
-12 0 12 0.05 0.71
0 12 12 -0.11 0.56
0 12 12 0.24 0.71
0 -12 12 0.18 0.8
6 7 12 10.17 1.11
13 -6 12 11.06 1.1
-7 -6 -12 8.43 1.28
-6 13 -12 9.1 1.27
7 6 -12 10.31 1.29
-13 6 12 9.6 1.44
-6 -7 12 9.3 1.5
-13 6 12 8.27 1.24
-13 7 -12 8.46 1.38
7 -13 12 8.6 1.13
-7 13 12 9.17 1.2
6 7 12 8.65 1.32
-13 7 12 8.86 1.57
-6 -7 -12 9.58 1.15
-6 13 12 9.41 1.18
-13 6 -12 8.99 1.35
13 -7 12 10 1.07
6 -13 12 7.74 1.12
-7 13 -12 10.58 1.3
7 6 12 9.1 1.33
-13 7 12 10.66 1.47
7 6 12 10.02 1.1
6 7 -12 10.83 1.27
-7 -6 12 9.97 1.63
13 -5 12 15.41 1.35
-13 8 -12 12.55 1.35
8 5 -12 14.1 1.5
-5 -8 12 14.19 1.72
-8 13 12 15.73 1.62
8 -13 12 13.62 1.38
-13 5 12 13.78 1.67
-5 13 -12 16.36 1.55
-8 -5 -12 14.23 1.51
-13 5 12 11.58 1.63
5 8 12 16.27 1.41
5 8 12 15.8 1.56
5 8 -12 14.28 1.46
-5 13 12 13.99 1.45
8 5 12 15.79 1.4
-13 5 -12 13.82 1.57
-8 -5 12 16.34 1.86
-13 8 12 14.5 1.79
8 5 12 14.15 1.55
-13 8 12 15.01 1.62
13 -8 12 17.06 1.4
-8 13 -12 15.71 1.57
-9 -4 -12 6.66 0.91
4 9 12 4.71 0.9
-13 4 12 7.81 1.07
9 -13 12 5.45 0.78
-4 -9 12 7.37 1.15
-9 13 12 6.63 0.99
13 -4 12 6.4 0.96
-4 13 -12 7.3 0.94
4 9 12 5.38 0.79
9 4 -12 5.12 0.88
-13 9 12 3.02 0.79
-13 4 -12 2.76 0.8
-9 13 -12 3.95 0.77
-4 13 12 2.81 0.69
-13 9 12 3.93 0.98
-9 -4 12 4.37 1.02
9 4 12 3.72 0.64
4 9 -12 3.27 0.67
13 -9 12 3.45 0.62
10 3 -12 0.3 0.66
3 10 12 0.59 0.65
-3 -10 12 1.36 0.92
10 -13 12 0.96 0.6
-10 -3 -12 0.29 0.64
3 10 12 0.7 0.59
-13 3 12 0.66 0.71
13 -3 12 0.86 0.56
-3 13 -12 0.74 0.65
-10 13 12 0.9 0.76
-13 10 -12 0.77 0.69
13 -10 12 0.57 0.53
-13 10 12 0.11 0.83
-13 10 12 1 0.74
3 10 -12 0.82 0.54
-13 3 -12 0.33 0.67
-10 -3 12 0.77 0.6
3 -13 12 -0.02 0.43
-10 13 -12 0.15 0.62
-10 -3 12 0.77 0.83
10 3 12 0.62 0.51
-3 13 12 0.39 0.62
-2 -11 12 1.18 0.92
2 11 12 1.2 0.7
-13 2 12 1.4 0.74
-11 13 12 1.74 0.77
2 11 12 0.83 0.54
11 2 -12 1.16 0.68
-11 -2 -12 1.44 0.67
-13 11 -12 1.66 0.75
-2 13 -12 0.99 0.69
11 -13 12 1.74 0.59
13 -2 12 1.54 0.55
-13 11 12 2.78 0.87
13 -11 12 2.93 0.59
2 -13 12 1.68 0.74
-11 -2 12 1.51 0.67
-13 2 -12 1.26 0.66
2 11 -12 1.75 0.51
-13 11 12 1.28 0.56
-11 13 -12 1.93 0.68
-2 13 12 1.53 0.71
-11 -2 12 1.24 0.77
11 2 12 1.75 0.54
-12 -1 -12 0.78 0.57
-1 -12 12 0.86 0.81
-13 1 12 0.63 0.7
-1 13 -12 1.47 0.63
1 12 12 1.15 0.7
13 -1 12 1.06 0.5
-12 13 12 0.8 0.74
12 -13 12 1.49 0.59
-13 12 -12 1.26 0.69
1 12 12 1.26 0.57
1 12 -12 0.8 0.4
1 -13 12 0.8 0.75
-12 -1 12 0.49 0.65
13 -12 12 0.69 0.54
-13 1 -12 0.87 0.63
-1 13 12 0 0.67
-13 12 12 0.97 0.81
-12 13 -12 0.48 0.62
12 1 12 0.78 0.51
-13 13 12 6.9 1.04
13 0 12 3.97 0.64
13 -13 12 4.9 0.71
0 13 12 6.78 0.97
-13 0 -12 4.79 0.78
-13 0 12 5.18 0.87
0 -13 12 4.77 0.92
-13 13 -12 4.1 0.8
-7 14 -12 21.21 1.78
-14 7 -12 19.03 1.78
-14 7 12 17.31 1.98
7 -14 12 16.27 1.64
-7 -7 12 20.73 1.99
-14 7 12 22.48 1.94
7 7 12 20.87 1.84
7 7 12 22.45 1.66
-7 14 12 19.54 1.71
14 -7 12 20.72 1.64
6 8 12 6.91 0.92
-6 14 -12 7.2 1.11
-14 8 -12 6.5 1.05
8 -14 12 3.9 0.71
6 8 12 7.64 1.21
-14 6 12 5.41 1.02
-8 -6 -12 4.36 0.78
14 -6 12 4.97 0.69
-14 6 -12 1.76 0.7
-8 -6 12 3.49 1.01
6 -14 12 2.22 0.59
-6 14 12 2.73 0.68
-8 14 -12 4.47 0.79
8 6 12 2.44 0.77
-14 8 12 2.96 0.95
-14 8 12 3.17 0.78
8 6 12 4.13 0.63
14 -8 12 2.94 0.59
-9 -5 -12 2.47 0.7
-5 -9 12 3.7 0.97
5 9 12 4.11 0.62
-14 5 12 2.43 0.77
-5 14 -12 2.68 0.69
5 9 12 2.58 0.76
9 -14 12 2.03 0.59
-14 5 12 1.1 0.64
14 -5 12 3.61 0.6
9 5 -12 1.01 0.48
-9 14 12 3.67 0.83
14 -9 12 2.79 0.57
-9 14 -12 3.57 0.74
-9 -5 12 1.72 0.85
-14 9 12 2.25 0.72
-5 14 12 2.79 0.69
-14 5 -12 1.77 0.69
-14 9 12 2.14 0.91
9 5 12 1.82 0.69
9 5 12 3.36 0.6
-4 14 -12 4.6 0.82
-10 14 12 3.9 0.88
-10 -4 -12 5.37 0.83
-14 4 12 6.32 0.94
4 10 12 6.91 0.79
14 -4 12 4.64 0.69
-4 -10 12 4.6 1.04
4 10 12 4.15 0.83
10 -14 12 6.27 0.8
-14 10 12 3.39 0.83
-14 4 -12 4.83 0.84
-14 10 12 3.18 0.98
14 -10 12 5.3 0.65
10 4 12 4.99 0.66
-4 14 12 2.86 0.71
-10 -4 12 3.94 0.94
-10 14 -12 3.86 0.73
3 11 12 0.77 0.69
14 -3 12 -0.01 0.49
-3 -11 12 0.56 0.82
11 3 -12 0.69 0.47
-11 14 12 0.14 0.71
11 -14 12 -0.32 0.52
3 11 12 -0.13 0.53
-14 11 -12 -0.22 0.59
-11 -3 -12 0.11 0.61
-14 3 12 0.27 0.64
-3 14 -12 0.55 0.59
-14 3 -12 -0.1 0.62
14 -11 12 0.23 0.5
-11 -3 12 0.27 0.4
-14 11 12 0.52 0.83
11 3 12 0.64 0.49
-11 -3 12 0.33 0.68
-14 11 12 0.98 0.61
-11 14 -12 0.16 0.57
-3 14 12 0.34 0.59
2 12 12 2.54 0.79
12 2 -12 1.37 0.5
-2 14 -12 2.11 0.59
2 12 12 2.18 0.57
-12 14 12 1.96 0.78
-12 -2 -12 2 0.62
-14 12 -12 1.81 0.66
-2 -12 12 2.29 0.84
14 -2 12 1.65 0.5
12 -14 12 3.07 0.63
-14 2 12 0.93 0.68
-14 12 12 2.05 0.86
14 -12 12 2.57 0.57
-14 2 -12 2.09 0.67
-2 14 12 1.98 0.71
12 2 12 1.67 0.52
-12 14 -12 2.09 0.68
-12 -2 12 2.03 0.64
14 -1 12 0.42 0.47
-1 -13 12 0.57 0.71
13 -14 12 0.56 0.5
1 13 12 0.63 0.75
13 1 -12 0.57 0.43
-13 14 12 0.38 0.72
-14 13 -12 0.17 0.6
-13 -1 -12 0.16 0.55
-14 1 12 0.24 0.63
1 -14 12 0.8 0.6
-14 13 12 0.42 0.74
-1 14 12 0.87 0.71
13 1 12 0.33 0.45
14 -13 12 0.7 0.5
-13 -1 12 -0.01 0.59
-14 1 -12 -0.04 0.56
-13 14 -12 0.33 0.61
14 -14 12 2.97 0.59
0 -14 12 2.18 0.67
-14 14 12 2.53 0.77
-14 0 -12 2.7 0.62
-14 14 -12 2.55 0.67
14 0 12 2.09 0.49
0 14 12 3.21 0.79
-14 0 12 2.75 0.67
-7 -8 12 4.69 0.98
7 8 12 6.74 0.86
-15 8 -12 4.3 0.75
15 -7 12 6.16 0.7
-15 7 12 4.17 0.92
8 -15 12 3.74 0.66
7 8 12 4.35 0.83
-15 7 12 5.63 0.9
-7 15 -12 4.71 0.75
-8 15 -12 7.63 1.07
-15 8 12 7.55 1.13
7 -15 12 6.65 0.94
8 7 12 7.66 1.16
-7 15 12 6.56 1.01
15 -8 12 6.84 0.93
-8 -7 12 6.93 1.34
-15 8 12 7.97 1.22
8 7 12 7.28 0.93
-15 7 -12 5.53 0.88
-15 6 12 17.38 1.64
-9 -6 -12 15.84 1.44
15 -6 12 15.27 1.35
9 -15 12 13.69 1.37
-15 6 12 13.01 1.62
6 9 12 17.36 1.39
6 9 12 17.04 1.57
-6 -9 12 17.2 1.7
15 -9 12 11.32 1.1
-15 9 12 11.52 1.41
9 6 12 11.19 1.13
9 6 12 10.42 1.29
-9 -6 12 11.17 1.45
-15 9 12 11.22 1.52
-6 15 12 11.2 1.21
-9 15 -12 10.89 1.18
-15 6 -12 9.08 1.22
10 -15 12 0.82 0.56
5 10 12 1.03 0.5
-15 5 12 0.09 0.53
-10 15 12 1.21 0.64
15 -5 12 1.38 0.53
-5 -10 12 1.73 0.85
-15 5 12 0.98 0.65
-10 -5 -12 1.17 0.62
5 10 12 1.23 0.69
-5 15 -12 1.4 0.58
10 5 12 1.02 0.62
-10 15 -12 2.08 0.63
-15 10 12 1.31 0.69
-5 15 12 1.23 0.64
10 5 12 1.64 0.51
-15 5 -12 1.46 0.69
15 -10 12 1.61 0.48
-15 10 12 1.42 0.8
-10 -5 12 0.93 0.71
4 11 12 2.45 0.58
4 11 12 3.65 0.77
-4 15 -12 1.99 0.61
-11 15 12 2.79 0.77
-15 4 12 1.15 0.68
-4 -11 12 2.04 0.83
15 -4 12 2.52 0.55
11 -15 12 2.47 0.59
-11 -4 -12 2.9 0.67
-15 4 -12 2.54 0.7
-11 15 -12 2.23 0.61
11 4 12 1.83 0.54
-4 15 12 2.78 0.7
15 -11 12 2.53 0.55
-11 -4 12 2.54 0.74
-15 11 12 3.33 0.9
-15 11 12 2.96 0.68
-12 -3 -12 2.2 0.62
-15 12 -12 1.74 0.58
15 -3 12 1.1 0.49
-3 15 -12 1.03 0.41
-12 15 12 2.39 0.78
12 -15 12 1.84 0.56
-3 -12 12 1.93 0.77
3 12 12 2.34 0.59
-15 3 12 1.96 0.67
3 12 12 2.22 0.75
-3 15 12 1.47 0.64
-12 15 -12 2.57 0.67
15 -12 12 2.02 0.5
12 3 12 2.09 0.52
-12 -3 12 0.76 0.5
-15 3 -12 1.69 0.61
-15 12 12 2.23 0.82
-15 2 12 0.87 0.61
2 13 12 2.24 0.78
-2 -13 12 1.9 0.72
-13 15 12 2.05 0.75
-15 13 -12 0.74 0.62
-13 -2 -12 1.41 0.57
15 -2 12 1.05 0.46
13 -15 12 1.78 0.51
-2 15 12 1.54 0.65
15 -13 12 1.93 0.5
-15 13 12 2.78 0.84
-15 2 -12 1.63 0.59
13 2 12 1.12 0.47
-13 15 -12 1.01 0.58
-13 -2 12 0.65 0.4
-14 15 12 1.24 0.74
14 -15 12 1.16 0.51
-15 14 -12 1.47 0.62
15 -1 12 1.1 0.45
-15 1 12 1.7 0.56
-14 -1 -12 0.4 0.5
-1 -14 12 1.48 0.64
1 14 12 1.87 0.73
-1 15 12 1.16 0.63
-15 1 -12 0.95 0.55
-14 15 -12 0.54 0.58
-15 14 12 0.85 0.72
14 1 12 0.62 0.44
-14 -1 12 1.02 0.51
15 -14 12 0.53 0.46
-15 0 -12 -0.14 0.46
15 -15 12 -0.1 0.45
15 0 12 -0.06 0.4
-15 15 -12 -0.23 0.54
-15 0 12 -0.16 0.48
-15 15 12 -0.14 0.73
0 15 12 0.26 0.64
-16 8 12 11.47 1.31
8 -16 12 8.8 1
8 8 12 9.57 1
-16 8 -12 7.22 1.01
16 -8 12 8.44 0.96
-16 8 12 8.4 1.32
-8 16 -12 9.23 1.05
8 8 12 9.6 1.18
-8 -8 12 10.71 1.35
9 -16 12 1.47 0.51
-7 16 -12 1.45 0.54
-16 7 12 2.08 0.72
7 9 12 3.13 0.54
16 -7 12 2.09 0.51
7 9 12 2.5 0.68
-7 -9 12 3.91 0.9
-16 7 12 1.8 0.65
16 -9 12 1.24 0.48
-16 9 12 0.58 0.63
-9 -7 12 2.19 0.77
-9 16 -12 1.95 0.6
9 7 12 1.48 0.63
-16 7 -12 1.46 0.59
-16 9 12 1.63 0.75
7 -16 12 1.25 0.45
9 7 12 1.99 0.51
6 10 12 1.46 0.49
16 -6 12 0.63 0.45
10 -16 12 0.92 0.5
-10 -6 -12 0.09 0.33
-6 16 -12 0.81 0.51
6 10 12 0.73 0.65
-16 6 12 0.16 0.42
-16 6 12 0.96 0.65
-6 -10 12 1.17 0.78
-6 16 12 1.83 0.62
-16 6 -12 0.58 0.59
-16 10 12 0.84 0.75
-10 16 -12 1.38 0.56
16 -10 12 1.22 0.46
-10 -6 12 0.71 0.66
-16 10 12 0.83 0.69
10 6 12 0.93 0.6
10 6 12 0.41 0.45
5 11 12 0.97 0.66
-5 -11 12 1.09 0.73
16 -5 12 -0.02 0.44
-11 -5 -12 0.29 0.46
-5 16 -12 0.38 0.45
-16 5 12 0.31 0.6
11 -16 12 0.27 0.48
5 11 12 0.55 0.49
-5 16 12 -0.06 0.6
16 -11 12 -0.17 0.43
11 5 12 0.05 0.44
-16 5 -12 -0.18 0.58
-11 16 -12 0.19 0.58
-16 11 12 -0.23 0.69
-11 -5 12 -0.01 0.57
11 5 12 -0.08 0.52
-16 11 12 0.96 0.53
-4 -12 12 1.14 0.71
16 -4 12 0.71 0.43
-16 4 12 0.34 0.58
-12 -4 -12 0.55 0.5
4 12 12 1.46 0.71
12 -16 12 0.92 0.5
-12 16 12 0.41 0.54
-12 -4 12 0.14 0.44
-16 4 -12 0.67 0.57
12 4 12 0.46 0.45
-16 12 12 0.31 0.75
16 -12 12 0.47 0.44
12 4 12 0.51 0.45
-12 16 -12 0.27 0.54
-4 16 12 0.61 0.59
-16 3 12 0.76 0.57
-13 -3 -12 0.51 0.5
16 -3 12 0.42 0.4
13 -16 12 0.45 0.48
-3 -13 12 1.35 0.67
-13 16 12 0.95 0.71
3 13 12 0.97 0.68
-16 13 -12 0.1 0.33
-13 16 -12 0.33 0.56
16 -13 12 0.71 0.44
-16 3 -12 0.78 0.55
-3 16 12 1.32 0.6
13 3 12 0.55 0.45
-16 13 12 0.66 0.73
-2 -14 12 0.53 0.58
-16 2 12 0.41 0.52
16 -2 12 0.1 0.32
-14 -2 -12 0.22 0.47
14 -16 12 0.45 0.5
-14 16 12 -0.13 0.72
2 14 12 0 0.69
-16 14 -12 0.2 0.49
-2 16 12 0.46 0.6
-16 2 -12 0.13 0.53
-14 16 -12 0.08 0.55
16 -14 12 0.23 0.4
-16 14 12 -0.23 0.75
14 2 12 0.18 0.41
-2 -14 -12 0.03 0.52
1 15 12 0.28 0.63
-16 15 -12 0.12 0.53
15 -16 12 0.41 0.47
-15 -1 -12 0.17 0.5
-16 1 12 0.12 0.49
-15 16 12 -0.04 0.77
-1 16 12 0.38 0.63
-15 16 -12 -0.25 0.58
15 1 12 0.08 0.25
16 -15 12 0.03 0.42
-16 1 -12 -0.25 0.51
-16 15 12 -0.78 0.74
-16 16 12 1.24 0.83
16 -16 12 0.82 0.46
0 16 12 1.26 0.63
-16 16 -12 0.72 0.54
-16 0 -12 0.74 0.53
-8 17 -12 -0.03 0.47
8 9 12 0.6 0.53
9 -17 12 0.08 0.42
17 -8 12 -0.02 0.42
8 9 12 -0.13 0.43
-8 -9 12 0.62 0.68
-17 8 12 -0.46 0.59
-17 8 12 -0.34 0.6
-17 9 12 -0.33 0.63
-9 17 -12 0.23 0.48
9 8 12 -0.39 0.42
8 -17 12 0.58 0.41
9 8 12 -0.1 0.55
17 -9 12 0.03 0.4
-17 8 -12 -0.34 0.33
-9 -8 12 0.22 0.67
-17 9 12 0.3 0.58
-17 7 12 1.57 0.63
-7 -10 12 2.94 0.78
7 10 12 2.1 0.62
17 -7 12 1.67 0.44
7 10 12 2.34 0.48
10 -17 12 1.21 0.44
-7 17 -12 1.34 0.5
-10 17 -12 1.46 0.56
-17 10 12 1.1 0.64
-10 -7 12 1.75 0.65
-17 7 -12 1.16 0.54
7 -17 12 0.02 0.37
-17 10 12 1.33 0.71
10 7 12 0.78 0.55
10 7 12 1.09 0.44
17 -10 12 1.34 0.43
-11 -6 -12 1.65 0.58
-17 6 12 2.84 0.68
6 11 12 3.09 0.56
6 11 12 2.88 0.72
11 -17 12 2.75 0.53
17 -6 12 2.19 0.42
-6 -11 12 3.14 0.78
11 6 12 1.98 0.56
-11 17 -12 2.31 0.6
17 -11 12 2.18 0.46
-17 11 12 0.61 0.44
11 6 12 1.71 0.47
-11 -6 12 1.57 0.63
-17 6 -12 1.45 0.58
-6 -11 -12 1.94 0.65
-17 11 12 2.03 0.81
12 -17 12 1.62 0.5
-17 5 12 1.69 0.57
-5 -12 12 2.03 0.72
5 12 12 2.15 0.71
-5 -12 -12 3.38 0.69
-17 12 12 2.98 0.81
-5 17 12 3.45 0.67
12 5 12 2.6 0.49
-12 17 -12 2.08 0.59
-17 5 -12 3.38 0.62
12 5 12 1.57 0.49
17 -12 12 1.88 0.47
-17 4 12 0.34 0.55
-4 -13 12 0.37 0.63
4 13 12 0.13 0.67
-13 -4 -12 -0.26 0.29
13 -17 12 0.21 0.45
-17 4 -12 0.5 0.53
-13 17 -12 0.35 0.56
13 4 12 0.34 0.41
13 4 12 0.13 0.29
-17 13 12 0.54 0.75
-4 -13 -12 0.81 0.59
-4 17 12 0.8 0.63
17 -13 12 0.56 0.4
-17 3 12 0.31 0.55
-14 -3 -12 0.24 0.36
14 -17 12 0.93 0.49
-3 -14 12 0.77 0.58
3 14 12 0.29 0.67
-17 3 -12 0.61 0.55
-3 17 12 0.59 0.61
-17 14 12 0.58 0.81
-14 17 -12 0.42 0.59
-3 -14 -12 0.24 0.5
17 -14 12 0.21 0.41
14 3 12 0.18 0.26
-15 17 12 0.04 0.57
2 15 12 0.39 0.66
-15 17 -12 0.16 0.61
-17 15 12 -0.24 0.77
-2 17 12 0.56 0.6
-9 -9 12 0.62 0.67
-9 -9 -12 0.5 0.64
-9 18 -12 0.49 0.41
-18 9 12 0.04 0.52
18 -9 12 -0.3 0.34
9 9 12 0.46 0.46
9 -18 12 0.2 0.32
9 9 12 0.36 0.55
-18 9 12 0.76 0.6
-10 -8 -12 0.38 0.61
8 10 12 0.85 0.47
8 10 12 0.67 0.57
-8 -10 12 1.48 0.68
-18 8 12 0.78 0.62
10 -18 12 0.6 0.4
10 8 12 0.56 0.51
-18 10 12 1.11 0.68
-18 10 12 1.02 0.48
10 8 12 1.32 0.48
-8 -10 -12 1.25 0.66
-10 18 -12 1.03 0.52
-10 -8 12 1.29 0.66
11 -18 12 1.27 0.47
7 11 12 2.62 0.65
-7 -11 12 2.83 0.73
-18 7 12 2.61 0.67
-11 -7 -12 1.8 0.55
-11 -7 12 1.11 0.57
11 7 12 1.54 0.47
-11 18 -12 2.35 0.57
-18 11 12 1.84 0.75
11 7 12 1.37 0.49
-7 -11 -12 2.14 0.65
12 -18 12 0.52 0.47
-6 -12 12 0.89 0.67
-18 6 12 0.23 0.58
6 12 12 0.36 0.63
18 -12 12 -0.11 0.21
-18 6 -12 0.37 0.46
12 6 12 0.28 0.4
-12 18 -12 0.04 0.56
12 6 12 0.42 0.34
-6 -12 -12 0.16 0.62
-18 12 12 0.63 0.76
-5 -13 12 0.81 0.65
5 13 12 1.03 0.67
-18 13 12 0.51 0.79
-13 18 -12 1.27 0.59
-5 -13 -12 1.09 0.63
0 0 13 0.44 0.88
0 0 -13 0.45 0.47
0 0 -13 0.44 0.97
0 0 -13 -0.32 0.99
1 0 -13 1.13 1.02
1 -1 -13 1.64 1.03
1 0 -13 1.67 1.05
1 0 13 1.75 0.97
0 1 -13 1.77 0.98
0 -1 -13 -0.36 0.71
1 -1 -13 1.14 0.98
-1 1 13 1.16 0.89
-1 1 -13 1.52 1.08
-1 0 13 2.41 1
1 0 -13 1.14 0.77
1 -1 -13 1.07 0.51
1 -1 13 1.82 0.98
-1 0 -13 1.51 1.01
-1 0 -13 1.12 0.76
0 -1 -13 1.82 1.08
0 -1 13 1.86 0.96
-1 1 -13 1.21 0.96
-1 1 -13 1.25 0.64
0 1 13 2.06 0.97
0 1 -13 0.63 0.96
0 1 -13 1.48 0.77
-1 2 -13 4.67 0.93
1 1 13 6.23 1.1
-2 1 13 5.37 1.09
-2 1 -13 4.24 1.16
-1 2 13 5.82 1.12
-1 -1 13 6.64 1.12
1 1 -13 3.79 1.13
-1 2 -13 2.78 1.01
-1 2 -13 3.5 1.11
1 -2 -13 5.66 1.25
2 -1 -13 4.58 1.23
2 -1 13 4.8 1.1
2 -1 -13 3.06 1.09
2 -1 -13 4.71 0.91
1 1 -13 2.54 0.78
1 -2 13 4.06 1.06
-1 -1 -13 5.63 1.25
-2 1 -13 2.14 0.89
1 1 -13 4.59 1.23
2 -2 -13 0.06 0.95
-2 2 -13 -0.16 0.9
-2 0 -13 0.11 0.89
-2 2 -13 0.49 1.04
2 0 -13 0.51 0.78
-2 2 -13 0.22 0.67
2 0 13 1.18 0.94
2 -2 -13 0.59 0.48
2 0 -13 0.23 0.95
0 -2 -13 0.58 0.9
2 -2 -13 0.33 0.9
0 2 13 1.16 0.91
0 2 -13 0.05 0.91
0 -2 13 0.83 0.87
2 -2 13 0.54 0.93
2 0 -13 -0.01 0.98
0 2 -13 0.85 0.75
0 2 -13 0.85 0.93
-2 0 13 0.72 0.9
-2 2 13 0.93 0.9
-3 1 13 3.88 1.09
-2 3 13 4.12 1.04
3 -2 -13 3.52 1.13
-3 2 -13 1.57 0.82
1 -3 -13 3.28 1.03
-2 -1 -13 2.77 1.05
2 -3 13 4.65 1.08
2 1 -13 2.31 1.03
2 1 -13 3.42 1.19
-1 -2 13 3.91 1.05
3 -1 13 4.14 1.04
-3 1 13 3.83 0.85
-1 3 -13 3.86 0.91
1 2 13 4.26 1.04
2 1 -13 3.56 0.85
-3 2 -13 3.22 1.13
3 -2 -13 2.19 1.11
-1 3 -13 2.76 1.09
1 2 -13 3.54 1.12
-1 -2 -13 3.37 1.08
-1 3 13 4.47 1.04
-2 3 -13 3.52 1.13
-3 2 13 5.47 1.15
3 -2 13 4.39 1.1
-2 -1 13 3.89 1.02
1 -3 13 3.11 1.04
2 -3 -13 5.04 1.22
-2 3 -13 3.72 1.13
-2 3 -13 3.69 0.91
3 -1 -13 3.96 1.17
2 1 13 3.56 1.03
1 2 -13 2.46 0.77
3 -1 -13 5.1 1.23
1 2 -13 3.13 1.12
-3 1 -13 2.81 1.06
3 -3 -13 4.79 1.06
3 0 -13 7.44 1.02
3 0 -13 5.42 1.22
3 -3 -13 5.53 1.21
0 3 13 6.88 1.17
-3 3 13 7.04 1.14
0 3 -13 4.26 0.89
0 3 -13 4.84 1.14
0 -3 -13 5.88 1.21
3 0 -13 5.4 1.21
-3 0 13 8.25 1.27
-3 3 -13 3.97 1.07
3 0 13 5.44 1.11
0 -3 13 7.11 1.16
-3 0 -13 5.71 1.18
-3 3 -13 5.45 0.93
3 -3 13 6.55 1.14
-3 0 13 6.63 1.11
-3 3 -13 3.25 1.09
0 3 -13 3.31 1.03
-2 -2 13 1.56 0.95
2 -4 13 2.12 0.96
-2 4 13 1.71 0.96
-2 4 -13 0.26 0.84
-2 -2 -13 1.39 0.94
-4 2 13 2.57 0.83
2 2 -13 1.18 0.71
2 2 -13 1.24 1.05
2 2 -13 0.49 0.95
-2 4 -13 1.26 0.81
4 -2 13 1.63 0.95
-2 4 -13 1.19 1.03
4 -2 13 0.28 0.78
4 -2 -13 1.13 0.99
4 -2 -13 1.07 1.07
2 -4 -13 1.99 1.05
-2 -2 13 1.71 1.05
-4 2 13 2.28 0.98
2 2 13 1.76 0.98
-4 2 -13 1.16 0.96
4 -1 13 1.21 0.85
3 1 -13 0.96 1
4 -3 -13 1.4 1.01
3 -4 13 1.91 0.99
1 3 13 2.39 1
3 1 -13 1.36 1
-4 1 13 1.77 1.02
-4 3 -13 1.3 0.53
-4 3 -13 0.55 0.76
3 1 -13 1.69 0.76
4 -1 13 2.79 1
-4 1 13 3.14 0.84
1 -4 -13 1.95 0.95
-1 4 -13 1.3 0.94
4 -3 -13 1.52 1.01
-1 -3 13 2.62 1.03
-3 4 13 2.01 0.89
-1 4 -13 1.09 0.84
-4 3 -13 0.4 0.91
-3 -1 -13 1.81 0.97
-1 4 -13 2.3 0.79
4 -1 13 1.12 0.48
-1 -3 13 1.21 0.94
-1 4 13 2.72 1.01
3 1 13 2.35 1.03
-3 -1 13 2.69 1.07
1 3 -13 2.27 0.76
-4 3 13 2.64 0.96
-3 4 -13 1.7 1.06
-4 1 -13 2.22 1
-3 -1 13 2.65 0.78
1 3 -13 0.82 0.88
1 3 -13 1.22 0.94
-3 -1 13 2.41 0.98
1 -4 13 2.85 0.99
3 -4 -13 1.2 0.96
-4 3 13 2.93 0.76
-3 4 -13 2.57 0.84
4 -3 13 3.67 1.03
-1 -3 -13 2.94 1.05
4 -1 -13 0.7 0.93
-3 4 -13 1.92 0.94
4 -1 -13 1.77 1.06
4 -4 13 -0.27 0.64
4 0 13 0.81 0.56
4 -4 -13 1.4 1.03
0 4 -13 0.31 0.69
4 -4 13 2.65 1
4 0 -13 1.32 1.1
4 -4 -13 -0.11 0.69
4 0 13 2.17 0.95
0 4 -13 0.87 0.76
-4 4 -13 0.69 0.84
-4 0 -13 1.1 0.93
-4 0 13 1.82 0.81
-4 4 -13 0.25 0.96
0 -4 -13 0.96 0.92
0 4 13 1.31 0.92
-4 4 13 0.79 0.85
0 -4 13 2.26 1.03
-4 0 13 1.61 0.98
4 0 -13 0.93 0.95
-4 4 13 1.29 0.73
-4 4 -13 1.17 0.76
0 4 -13 0.68 0.92
0 -4 13 1.53 0.95
4 0 13 1.87 0.96
-5 3 -13 8.64 1.45
5 -3 -13 9.98 1.48
5 -2 13 9.43 1.26
-3 -2 -13 9.35 1.52
3 2 -13 8.72 1.64
-2 -3 13 12.36 1.8
2 3 13 11.53 1.69
3 2 -13 10.26 1.38
5 -2 13 11.64 1.7
3 2 -13 10.29 1.67
5 -2 13 11.54 1.72
-3 5 13 8.83 1.61
-2 5 -13 10.24 1.7
-5 2 13 10.61 1.7
-2 -3 13 12.62 1.69
3 -5 13 10.81 1.71
5 -3 -13 11.66 1.83
2 -5 -13 10.75 1.71
-5 2 13 11.07 1.61
-2 5 -13 9.92 1.48
5 -2 -13 9.18 1.43
-3 -2 13 12.31 1.76
2 3 -13 9.86 1.66
5 -3 13 9.22 1.18
-3 -2 13 9.01 1.32
-3 5 -13 9.87 1.4
-3 -2 13 9.2 1.67
-2 -3 -13 10.34 1.61
5 -3 13 9.02 1.61
-5 3 13 9 1.66
-3 5 -13 7.29 1.36
3 -5 -13 9.9 1.65
-5 3 13 11.81 1.58
-2 5 13 9.96 1.66
3 2 13 10.37 1.7
2 -5 13 9.43 1.61
-5 2 -13 9.89 1.7
5 -3 13 11.2 1.69
2 3 -13 9.09 1.3
3 2 13 6.63 1.02
-5 1 13 2.41 0.84
-1 5 -13 1.07 0.97
-1 5 -13 2.61 0.82
5 -1 13 1.89 1.01
-4 -1 -13 1.54 1.01
1 -5 -13 2.31 1.03
4 -5 13 3.37 1.07
-5 4 -13 0.5 0.89
4 1 -13 1.54 0.8
4 1 -13 1.41 1.01
5 -1 13 1.64 0.64
-4 5 13 2.4 0.86
5 -4 -13 1.1 0.93
-5 4 -13 0.14 0.67
4 1 -13 1.81 1.02
5 -1 13 2.47 0.99
1 4 13 2.2 0.98
-5 4 -13 1.93 0.77
-4 5 13 1.81 0.9
-1 -4 13 2.71 1.07
-1 -4 13 3.12 1.03
-5 1 13 1.96 0.97
5 -4 -13 2.21 1.05
4 1 13 0.9 0.63
-5 4 13 2.35 0.83
-5 4 13 1.8 0.91
-4 5 -13 -0.38 0.61
5 -1 -13 0.62 0.96
-4 -1 13 1.07 1.07
-1 -4 -13 0.94 0.87
1 4 -13 -0.13 0.6
-4 -1 13 1.2 1
1 4 -13 1.04 0.91
-4 -1 13 1.23 0.78
-4 5 -13 1.02 1.05
1 -5 13 2.16 0.99
1 -5 13 1.73 1.04
-5 4 13 1.35 0.71
4 1 13 1.26 0.94
5 -4 13 0.69 0.82
-4 5 -13 1.6 0.81
4 1 13 1.27 0.93
1 4 -13 0.96 0.7
5 -4 13 1.41 0.6
4 -5 -13 1.05 0.99
5 -4 13 1.51 0.94
-5 1 -13 1.37 0.96
-1 5 13 2.27 0.98
0 -5 -13 2.86 1.07
5 0 -13 1.88 1.06
-5 5 -13 1.41 0.84
-5 5 13 4.11 0.8
-5 5 13 2.85 0.92
5 -5 -13 2.51 1.1
-5 0 -13 2.36 1.02
0 5 13 3.45 1.03
-5 0 13 4.1 1.21
5 0 13 3.15 1.07
-5 0 13 3.74 1.09
-5 5 -13 2.39 1
5 -5 13 3.08 1.05
-5 5 13 2.29 0.93
5 -5 13 2.36 0.6
0 5 -13 3.52 0.84
-5 0 13 3.27 0.87
5 0 13 3.54 1.01
0 -5 13 2.97 1.02
0 -5 13 3.21 1.1
0 5 -13 2.31 1
5 0 13 2.24 0.66
-3 6 13 1.27 0.83
6 -3 13 2.07 0.63
-6 3 13 2.08 0.99
-3 6 -13 1.49 0.72
-3 6 -13 1.38 1.03
-3 -3 -13 1.13 0.9
6 -3 13 2.32 0.98
3 3 -13 -0.14 0.67
3 -6 -13 1.07 0.98
3 -6 13 2.77 1.02
-3 -3 13 2.12 1.12
-6 3 -13 0.89 1.01
-6 3 13 3.96 0.94
-3 -3 13 2.04 1.03
-3 -3 13 2.27 0.7
3 3 -13 1.22 0.95
3 3 -13 1.96 0.69
3 3 13 0.94 0.57
3 3 13 1.63 0.97
6 -3 -13 2.06 1.04
6 -3 13 1.08 0.96
4 2 -13 3.44 1.11
-2 -4 13 6.62 1.2
-4 -2 -13 3.84 1.07
-4 6 13 3.58 0.88
4 2 -13 5.78 0.95
-4 6 13 3.36 0.97
6 -2 13 3.68 0.72
2 -6 -13 3.26 1.08
6 -2 13 4.2 1.15
-6 2 13 6.41 1.05
-2 6 -13 4.44 0.87
6 -2 13 5.79 1.12
-6 4 -13 3.2 1.09
6 -4 -13 3.7 1.13
-2 6 -13 3.4 1.08
-6 2 13 5.1 1.12
4 -6 13 3.61 1.11
2 4 13 6.44 1.17
4 2 -13 2.84 0.97
-2 -4 13 4.74 1.2
6 -2 -13 5.04 1.2
-6 2 -13 3.66 1.12
-2 -4 -13 2.61 0.98
-6 4 13 3.32 0.97
-4 -2 13 6.22 1.2
4 2 13 3.94 1.06
2 4 -13 4.55 1.13
-4 -2 13 4.53 0.86
4 -6 -13 2.07 1.01
6 -4 13 2.64 1
4 2 13 4.1 0.74
-4 6 -13 1.87 1.07
6 -4 13 4.23 1.04
-6 4 13 5.54 0.92
-4 -2 13 3.77 1.2
2 -6 13 4.9 1.09
-2 6 13 2.91 0.94
2 4 -13 5.57 0.88
-4 6 -13 4.56 0.89
6 -4 13 4.48 0.73
-1 6 -13 5.22 0.88
-1 -5 13 2.98 1.13
6 -1 13 3.1 1.09
-5 6 13 4.33 0.98
-5 -1 -13 4.2 1.15
5 1 -13 3.32 1.13
-6 1 13 3.66 0.92
-6 5 -13 2.49 0.81
6 -5 -13 2.96 1.09
1 -6 -13 2.19 0.98
-5 6 13 1.89 0.84
1 5 13 4.49 1.05
6 -1 13 4.07 0.73
-6 1 13 3.79 1.05
-1 -5 13 4.26 1.08
6 -5 -13 1.82 0.88
6 -1 13 4.98 1.07
5 -6 13 3.63 1.04
5 -6 13 1.9 0.59
-1 6 -13 3.49 1.09
-5 6 -13 2.73 1.09
1 -6 13 3.51 1.11
5 1 13 3.85 1.11
-6 5 13 6.7 0.96
-6 5 13 4.45 0.98
1 5 -13 4.41 1.11
-5 6 -13 3.53 0.87
1 -6 13 5.22 1.11
5 1 13 4.01 0.73
1 5 -13 4.85 0.86
6 -5 13 4.99 1.05
5 1 13 3.59 1.02
-1 6 13 3.6 1
-5 -1 13 4 0.88
-6 1 -13 2.19 1.03
6 -5 13 1.84 0.91
5 -6 -13 2.56 1.03
-5 -1 13 5.87 1.2
-6 5 13 2.52 0.85
-5 -1 13 3.81 1.2
-1 -5 -13 3.25 1.03
6 -5 13 4.24 0.72
6 -1 -13 2.45 1.05
6 -6 13 3.98 0.73
6 0 -13 4.01 1.12
-6 0 -13 5.25 1.2
6 0 13 5.44 1.23
6 0 13 3.99 0.74
-6 6 13 5.93 0.86
0 -6 13 3.82 1.06
-6 6 -13 5.07 0.92
0 -6 -13 3.2 0.97
0 -6 13 6.26 1.34
-6 0 13 5.14 0.95
6 0 13 4.78 1.09
6 -6 -13 2.89 1.07
-6 6 -13 3.79 1
0 6 13 6.68 1.14
-6 6 13 3.54 0.95
0 6 -13 3.69 1.07
0 6 -13 4.92 0.88
6 -6 13 4.5 0.95
-6 0 13 5.35 1.23
-6 0 13 5.13 1.13
7 -3 13 1.07 0.93
-3 7 -13 -0.08 0.96
3 4 13 0.72 0.89
-7 4 -13 0.05 0.86
4 -7 13 0.56 0.99
-3 -4 13 0.78 1.09
3 -7 -13 0 0.68
-7 3 13 0.66 0.8
4 3 -13 0.55 0.69
3 4 13 -0.37 0.58
7 -4 -13 0.67 1
-7 3 13 0.08 0.91
7 -3 13 1.31 1.02
4 3 -13 0.55 0.97
-3 -4 13 0.15 0.92
-3 7 -13 0.06 0.7
-4 7 13 -0.06 0.77
-4 -3 -13 0.32 0.94
7 -3 13 0.4 0.56
7 -3 -13 0.59 1
-7 4 13 2.25 0.89
-4 7 -13 0.8 1.08
-4 -3 13 2 1.14
-3 -4 -13 0.87 0.99
-4 -3 13 0.78 0.7
4 3 13 0.82 0.59
3 -7 13 1.42 0.96
3 4 -13 1.54 1.04
7 -4 13 1.51 0.98
-7 3 -13 1.21 1.03
7 -4 13 1.64 0.89
-7 4 13 0.9 0.73
7 -4 13 0.86 0.56
3 4 -13 1.2 0.74
-4 7 -13 0.87 0.77
-4 -3 13 1.42 1.04
4 -7 -13 0.73 0.76
-7 4 13 0.35 0.53
4 3 13 1.71 0.94
-3 7 13 0.41 0.85
7 -5 -13 2.34 0.99
-7 5 -13 2.42 0.63
-2 7 -13 5.26 0.84
7 -2 13 4.7 1.21
-2 -5 13 5.9 1.13
7 -2 13 3.32 1.05
2 5 13 3.14 0.64
-2 7 -13 3.56 1.07
-5 7 13 2.87 0.76
-2 -5 13 3.61 1.22
5 -7 13 3.25 0.63
5 -7 13 3.59 1.05
-5 -2 -13 5.29 1.2
5 2 -13 3.09 1.09
2 5 13 5.48 1.11
-5 7 13 4.18 0.93
-7 2 13 5.88 1.15
5 2 -13 5.37 0.89
5 2 13 4.07 1.01
5 -7 -13 2.06 0.94
-5 -2 13 5.57 1.37
7 -2 -13 3.92 1.25
-2 -5 -13 2.25 0.93
7 -5 13 3.5 0.67
2 -7 13 4.06 1.06
-7 2 -13 4.07 1.15
5 2 13 4.52 0.76
2 5 -13 3.59 0.81
-7 5 13 4.24 0.91
-7 5 13 3.57 0.93
2 5 -13 2.51 0.99
-5 -2 13 5.55 1.2
7 -5 13 3.31 1.03
-5 7 -13 2.9 1.13
7 -5 13 2.18 0.8
-5 7 -13 3.82 0.89
-5 -2 13 4.05 0.85
2 -7 13 2.42 1
-2 7 13 3.59 0.93
-1 -6 13 3.64 1.22
7 -6 -13 -0.04 1.39
-1 7 -13 2.15 0.73
-7 6 -13 2.52 0.84
1 6 13 4.65 1.07
-7 1 13 3.34 1.05
-1 7 -13 2 0.97
7 -1 13 3.09 0.7
-1 -6 13 2.46 1.02
6 -7 13 2.83 0.67
7 -1 13 2.51 0.99
6 1 -13 1.75 1.02
-6 -1 -13 2.42 0.97
7 -6 -13 2.64 1.1
7 -1 13 3.36 1.16
-7 1 13 2.92 0.91
-6 7 13 2.4 0.9
1 6 -13 4.42 0.87
1 -7 13 2.45 1.03
-6 7 -13 3.15 1.09
-7 1 -13 3.46 1.08
-7 1 -13 3.14 0.83
7 -6 13 2.04 0.88
7 -1 -13 3.67 1.15
-6 -1 13 2.12 0.85
-7 6 13 2.79 0.9
6 1 13 3.18 0.7
7 -6 13 2.48 0.65
-6 7 -13 2.38 0.82
-7 6 13 2.92 0.81
6 1 13 3.08 0.98
6 1 13 3.44 1.1
1 -7 13 3.56 1.15
-1 7 13 2.94 0.9
-6 -1 13 2.14 1.07
1 6 -13 2.02 0.99
6 -7 -13 2.25 0.94
-6 -1 13 3.33 1.07
0 7 -13 4.59 1.16
-7 7 13 5.14 0.82
0 -7 -13 4.62 1.07
7 0 13 5.7 1.14
-7 0 -13 5.69 1.21
-7 0 -13 6.37 0.95
7 -7 13 5.62 0.8
7 0 -13 5.17 1.27
-7 7 -13 6.05 1.01
-7 0 13 6.07 1.21
0 -7 13 5.7 1.15
-7 0 13 4.66 0.98
-7 7 13 4.19 1.01
7 0 13 4.71 1.19
0 7 13 4.18 1.08
7 0 13 6.7 0.85
0 7 -13 6.94 0.95
0 -7 13 3.91 1.18
-4 -4 13 2.67 0.58
-8 4 -13 1.89 0.87
4 4 13 5.09 1.14
-4 -4 13 3 1.19
-4 8 13 2.39 0.84
8 -4 13 2.52 0.75
4 4 -13 4.54 0.84
4 4 13 4.73 0.73
-8 4 -13 3.55 0.88
-8 4 13 5.39 1.01
-4 8 -13 3.23 0.83
8 -4 -13 1.65 1.06
-4 -4 -13 2.5 1.01
8 -4 13 3.46 1.13
4 -8 13 3.72 1.05
-4 8 -13 2.56 1.09
-4 -4 -13 2 0.91
8 -4 13 4.24 0.72
4 4 -13 1.42 0.99
-3 -5 13 8.86 1.51
8 -3 13 4.79 1.06
-5 -3 -13 5.13 1.17
-3 8 -13 5.29 1.19
-8 5 -13 6.57 1.02
-3 -5 13 8.02 1.28
-8 3 13 5.85 1.06
8 -3 13 7.55 1.1
3 5 13 4.98 0.8
3 5 13 8.46 1.22
5 -8 13 7.84 1.16
-5 8 13 6.75 1.03
5 -8 13 5.25 0.75
8 -3 13 5 1.2
8 -5 -13 4.1 1.11
-5 -3 -13 4.83 1.14
5 3 -13 6 1.27
-5 8 -13 8.86 1.08
5 3 13 7.73 1.28
-5 -3 13 8.52 1.53
-5 -3 13 9.13 1.34
-3 -5 -13 7.31 1.28
3 5 -13 6.19 0.96
-8 5 13 8.02 1.09
3 5 -13 5.62 1.19
8 -5 13 5.92 1.25
-5 -3 13 6.05 0.95
-3 8 13 5.1 1.05
5 3 13 7.68 0.91
8 -3 -13 6.58 1.37
-5 8 -13 5.84 1.31
3 -8 13 7.45 1.23
-8 3 -13 9.09 1.15
8 -5 13 7.5 1.09
-6 8 13 9.46 1.55
-2 -6 13 8.86 1.65
8 -2 13 8.89 1.57
6 2 -13 10.02 1.37
-6 -2 -13 9.48 1.32
-2 -6 13 10.08 1.82
8 -2 13 10.98 1.69
-2 8 -13 7.54 1.33
8 -2 13 9.51 1.2
6 2 -13 8.93 1.44
2 6 13 10.01 1.64
-8 6 -13 8.75 1.28
-6 -2 -13 8.7 1.53
-8 6 -13 8.79 1.4
-8 2 13 9.14 1.62
2 6 13 7.81 1.18
6 -8 13 8.91 1.22
-8 2 13 11.48 1.29
-2 8 -13 9.65 1.36
-8 6 13 9.27 1.54
-6 -2 13 9.6 1.79
-6 -2 13 9.76 1.17
2 -8 13 10.52 1.66
6 2 13 9.17 1.68
-6 -2 13 11.38 1.8
8 -2 -13 7.17 1.34
6 2 13 11.7 1.25
-2 -6 -13 9.59 1.67
2 6 -13 10.67 1.38
-8 2 -13 11.15 1.44
-6 8 -13 8.35 1.42
-6 8 -13 10.3 1.38
-8 2 -13 9.22 1.69
2 6 -13 6.49 1.27
-8 6 13 10.45 1.55
8 -6 13 10.56 1.18
-2 8 13 9.35 1.29
8 -1 13 1.81 0.62
-7 8 13 1.41 0.81
-8 7 -13 0.18 0.49
-7 -1 -13 1.04 0.92
-1 8 -13 1.09 1
-7 -1 -13 0.92 0.7
1 7 13 1.73 0.57
-1 8 -13 2.74 0.79
-1 -7 13 0.99 0.95
-8 7 -13 0.16 0.78
8 -1 13 1.47 0.98
-7 -1 -13 -0.38 0.59
8 -7 -13 -0.02 0.65
-1 -7 13 1.21 1.03
7 -8 13 0.33 0.56
-8 1 13 1.02 0.86
-8 1 13 0.49 0.96
7 1 -13 1.5 1.01
8 -1 13 2.03 0.99
1 7 -13 0.59 0.94
1 -8 13 -0.09 0.69
-8 1 -13 1.36 0.99
7 1 13 1.8 0.66
8 -1 -13 0.66 0.96
-8 7 13 1.59 0.82
-1 -7 -13 1.16 0.88
-7 -1 13 -0.22 0.8
-7 8 -13 0.47 0.73
-7 8 -13 1.27 0.81
1 -8 13 1.02 0.98
-8 1 -13 1.35 0.75
7 1 13 1.65 0.96
-8 7 13 1.68 0.7
-7 -1 13 2.03 0.87
1 7 -13 2.14 0.75
8 -7 13 0.67 0.57
8 -7 13 0.12 0.73
-1 8 13 0.61 0.84
-7 -1 13 1.21 1.01
7 1 13 0.85 0.96
0 8 -13 0.04 0.62
-8 0 13 0.56 1
0 8 -13 0 0.83
8 0 13 0.77 0.9
-8 0 -13 0 0.83
8 -8 13 -0.27 1.1
8 -8 13 -0.11 0.54
0 -8 13 -0.09 0.9
0 -8 13 -0.34 0.72
-8 8 13 0.67 0.62
-8 8 -13 -0.19 0.78
0 8 13 0.14 0.35
-8 0 -13 0.59 0.68
-8 0 13 -0.19 0.77
8 0 -13 0.58 0.96
0 -8 -13 -0.22 0.57
-8 8 13 0.43 0.8
8 0 13 0.55 0.6
5 4 -13 14.32 1.47
-4 9 -13 14.55 1.53
4 5 13 12.47 1.34
-9 5 -13 13.47 1.58
9 -4 13 11.89 1.71
9 -5 -13 11.18 1.7
-4 -5 13 13.48 1.83
-5 -4 -13 12.12 1.48
-4 9 -13 13.94 1.84
-9 4 13 12.99 1.78
-5 -4 -13 11.14 1.69
-4 -5 13 15.4 1.96
9 -4 13 14.12 1.35
5 4 -13 11.47 1.66
-5 -4 13 12.68 1.9
5 4 13 12.13 1.29
-9 4 -13 12.77 1.51
-9 5 13 10.77 1.61
-9 5 13 13.22 1.76
9 -4 -13 11.03 1.85
-5 -4 13 13.5 1.76
9 -5 13 11.72 1.68
4 -9 13 12.5 1.72
-5 9 -13 11.65 1.82
4 5 -13 14.39 1.47
-4 -5 -13 9.43 1.66
4 5 -13 9.18 1.55
-5 9 -13 11.8 1.45
-4 9 13 9.85 1.42
9 -5 13 14.16 1.29
-9 6 -13 3.67 0.85
-3 -6 13 6.04 1.28
9 -3 13 2.45 0.77
-9 3 13 6.29 1.03
3 6 13 4.63 0.74
-6 -3 -13 3.29 0.87
9 -3 13 6.81 0.99
6 -9 13 4.45 0.74
6 3 -13 4.07 1.04
-6 -3 -13 4.13 0.8
-3 -6 13 6 1.15
-6 -3 -13 2.73 0.89
-3 9 -13 5.71 0.91
6 3 -13 6.58 0.92
9 -3 13 3.69 1.01
-3 9 -13 4.47 1.16
-6 -3 13 2.45 1.04
-9 3 -13 6.38 0.94
3 6 -13 5.58 0.91
-9 6 13 4.79 1.01
3 -9 13 5.92 1.13
6 3 13 6.72 0.81
-3 -6 -13 5.55 1.15
9 -3 -13 3.88 1.14
-6 9 -13 7.52 0.96
-6 -3 13 4.05 0.84
3 6 -13 3.45 0.91
-3 9 13 2.98 0.95
-6 9 -13 4.37 1.06
9 -6 13 4.4 1.03
-7 9 13 4.37 0.95
-2 9 -13 1.99 0.94
-7 -2 -13 3.28 0.94
7 -9 13 3.53 0.72
2 7 13 3.36 0.72
-9 2 13 3.91 0.96
7 2 -13 2.02 0.92
9 -2 13 4.34 1.04
-2 9 -13 6.93 0.96
-9 7 -13 4.18 0.86
-7 -2 -13 4.66 0.84
9 -2 13 5.45 0.71
-2 -7 13 3.77 1.14
-2 -7 13 5.4 1.14
7 2 -13 6.55 0.92
-9 2 13 5.49 1
9 -2 13 4.7 1.06
-9 2 -13 6.33 0.98
9 -2 -13 3.48 1.05
-7 -2 13 5.08 0.92
2 -9 13 6.26 1.18
7 2 13 5.47 0.76
-9 7 13 5.86 0.92
9 -7 13 5.98 0.77
-7 9 -13 5.31 0.96
-2 -7 -13 3.46 0.98
-7 -2 13 4.53 1.11
2 7 -13 5.3 0.88
-9 7 13 4.55 1
-1 -8 13 9.61 1.67
-9 8 -13 9.62 1.39
9 -1 13 11.39 1.22
-9 1 13 12.02 1.69
-1 9 -13 11.3 1.37
-8 -1 -13 10.6 1.34
-8 9 13 10.78 1.55
-9 1 13 10.53 1.25
8 -9 13 8.21 1.2
1 8 13 8.96 1.17
1 -9 13 6.89 1.23
-9 8 13 5.48 0.92
-8 9 -13 8.64 1.1
1 8 -13 8.75 1.18
8 1 13 7.67 1.08
-8 -1 13 6.37 1.07
-9 8 13 8.35 1.46
-9 1 -13 7.84 1.23
-8 -1 13 8.45 1.3
9 -8 13 8.3 1.11
0 9 13 2.96 0.56
0 -9 13 2.37 1
-9 0 13 4.07 0.89
-9 9 13 4.21 0.95
0 9 13 2.29 0.58
-9 9 13 2.35 0.69
9 -9 13 3.08 0.66
-9 0 13 2.32 1.03
9 0 -13 -0.16 1.03
0 9 -13 4.95 0.87
-9 9 -13 3.78 0.84
10 -5 13 11.42 1.21
-10 5 13 10.89 1.62
-5 -5 -13 11.23 1.42
-10 5 13 9.4 1.52
5 5 13 11.9 1.23
-5 -5 13 11.08 1.71
-10 5 -13 9.63 1.44
5 5 -13 12.35 1.41
-5 10 -13 12.49 1.38
6 -10 13 4.15 0.73
4 6 13 6.75 0.79
-4 -6 13 2.42 0.97
-4 10 -13 7.93 1.14
-10 6 -13 4.6 0.87
-6 -4 13 10.32 1.7
10 -6 13 10.18 1.11
-10 6 13 8.68 1.55
6 4 13 11.05 1.21
-10 4 -13 8.8 1.33
-10 6 13 10.59 1.66
-4 -6 -13 8.83 1.34
-6 10 -13 10.47 1.39
4 6 -13 10.28 1.36
4 -10 13 8.72 1.47
-7 10 13 11.14 1.47
3 7 13 9.94 1.18
-3 10 -13 11.57 1.34
7 -10 13 8.04 1.19
-3 -7 13 8.86 1.6
7 3 -13 11.76 1.4
-10 7 -13 9.04 1.27
10 -3 13 11.15 1.17
-7 -3 -13 11.24 1.34
-10 7 13 5.39 1.04
-3 -7 -13 5.43 0.9
-7 10 -13 6.17 0.94
3 7 -13 7.78 1.19
-7 -3 13 7.94 1.28
-10 7 13 7.84 1.06
7 3 13 7.89 1.06
-10 3 -13 7.77 1.04
3 -10 13 8.76 1.52
-7 -3 13 5.52 0.93
10 -7 13 7.2 1.03
-2 10 -13 2.79 0.79
2 8 13 0.62 0.45
-2 -8 13 1 0.98
-10 2 13 1.46 0.84
-10 8 -13 1.05 0.72
8 2 -13 2.38 0.77
-10 2 13 0.03 0.63
10 -2 13 0.18 0.62
-8 -2 -13 1.8 0.7
10 -2 13 2.37 0.6
2 8 13 1.23 0.61
-8 10 13 2.42 0.87
8 -10 13 1.04 0.58
-2 10 13 3.27 0.66
-10 8 13 3.31 0.8
-8 -2 13 5.14 1.1
-2 -8 -13 4.45 0.73
-10 8 13 4.65 0.97
-8 10 -13 4.03 0.83
2 8 -13 4.34 0.8
10 -8 13 5.73 0.72
8 2 13 4.74 0.7
-8 -2 13 5.15 0.93
2 -10 13 4.2 1.04
-10 2 -13 4.64 0.83
-10 1 13 0.84 0.71
-9 10 13 1.29 0.81
-9 -1 -13 1.48 0.69
10 -1 13 1.5 0.57
-1 -9 13 1.16 0.94
-1 10 -13 2.25 0.76
-10 1 13 1 0.8
-10 9 -13 0.71 0.71
1 9 13 0.88 0.62
9 -10 13 1.64 0.59
1 9 13 1.03 0.59
-10 1 -13 0.42 0.67
-9 10 -13 -0.23 0.7
-9 -1 13 0.24 0.79
1 9 -13 0.86 0.64
-9 -1 13 0.55 0.93
9 1 13 0.77 0.52
-10 9 13 0.35 0.63
10 -9 13 0.28 0.55
1 -10 13 0.41 0.91
-1 10 13 0.12 0.6
-10 9 13 0.66 0.77
0 -10 13 7.54 1.46
-10 10 13 9.63 1.16
-10 0 13 5.56 0.97
-10 10 -13 5.97 0.92
10 0 13 6.66 0.97
0 10 -13 5.52 0.88
-10 0 -13 6.76 1.09
0 10 13 7.23 0.97
-10 0 13 7.78 1.41
0 10 13 7.6 1.02
10 -10 13 5.77 0.8
-11 5 13 3.73 0.87
-6 -5 -13 3.46 0.78
6 5 -13 4.22 0.81
5 6 13 5.9 0.76
-11 6 -13 2.83 0.76
-11 5 13 5.72 0.94
6 -11 13 3.5 0.69
-5 -6 13 5.92 1.14
6 5 13 4.44 0.74
-11 5 -13 2.78 0.75
-11 6 13 4.1 0.97
-6 -5 13 4.26 1.05
5 6 -13 3.45 0.81
-5 -6 -13 4.32 0.82
-6 11 -13 6.15 0.9
11 -6 13 4.99 0.69
-11 7 -13 4.41 0.83
-7 -4 -13 7.41 0.93
-4 -7 13 8.32 1.24
-4 11 -13 5.93 0.88
4 7 13 6.75 1
11 -4 13 6.81 0.98
-7 11 13 6.41 1.12
7 4 -13 4.9 0.85
-11 4 13 9.43 1.1
7 -11 13 6.32 0.83
-11 7 13 8.22 1.08
-4 11 13 6.13 0.95
11 -7 13 8.67 1.03
-4 -7 -13 7.3 1.2
-7 -4 13 9.19 1.29
-7 11 -13 7.27 0.98
7 4 13 9.3 1.07
4 7 -13 7.39 1.19
-11 7 13 6.02 1.09
-8 -3 -13 0.41 0.67
11 -3 13 0.9 0.54
3 8 13 0.45 0.57
-11 8 -13 0.75 0.5
-3 -8 13 0.3 0.89
8 3 -13 0.2 0.66
-11 3 13 0.27 0.69
8 -11 13 0.27 0.56
-3 11 -13 0.17 0.65
3 8 13 0.88 0.58
-8 11 13 0.71 0.74
-8 11 -13 -0.29 0.65
3 -11 13 0.28 0.82
-11 8 13 0.4 0.71
3 8 -13 0.3 0.62
-3 -8 -13 0.54 0.44
11 -8 13 0.22 0.52
-11 3 -13 0.1 0.65
-11 8 13 0.16 0.82
-3 11 13 0.12 0.57
-8 -3 13 0.26 0.9
-8 -3 13 -0.47 0.66
8 3 13 0.12 0.5
-9 11 13 8.64 1.35
-11 9 -13 7.01 0.95
9 -11 13 5.67 0.78
9 2 -13 7.83 1.01
-2 -9 13 6.48 1.17
-2 11 -13 5.92 0.91
-9 -2 -13 7.27 0.92
-11 2 13 6.9 0.99
2 9 13 6.59 1.13
11 -2 13 7.22 1.01
2 9 13 5.08 0.78
-9 -2 13 4.88 0.93
-2 11 13 6.33 1.06
11 -9 13 7.11 0.77
2 9 -13 4.09 0.79
-9 -2 13 4.67 1.08
-11 9 13 4.71 0.84
9 2 13 6.78 0.93
-11 2 -13 8.31 0.96
2 -11 13 6.36 1.06
-11 9 13 5.68 1.01
-10 -1 -13 7.2 1.09
1 10 13 7.46 1.09
-1 -10 13 8.06 1.2
-1 11 -13 6.7 1.08
10 1 -13 8.19 1.01
-10 11 13 8.2 1.35
1 10 13 7.81 1.23
10 -11 13 7.35 1.09
-11 1 13 6.17 0.99
-11 10 -13 7.17 1.15
11 -1 13 7.52 0.99
11 -10 13 5.42 0.7
1 -11 13 5.24 1.04
10 1 13 6.08 0.7
1 10 -13 3.39 0.75
-10 -1 13 5.17 1.08
-11 10 13 3.34 0.72
-11 1 -13 5.34 0.81
-10 11 -13 4.4 0.8
-1 11 13 4.11 0.8
-10 -1 13 5.03 0.93
-11 10 13 5.2 0.96
-11 0 -13 6.78 1.06
-11 11 13 8.66 1.1
0 11 -13 6.43 1.04
0 11 13 6.1 0.93
11 0 13 7.47 0.95
-11 11 -13 8.13 1.15
0 11 13 8 0.98
11 -11 13 7.89 1.01
-11 0 13 5.01 0.96
0 -11 13 7.55 1.41
6 6 13 2.16 0.58
-6 -6 13 1.12 0.9
6 -12 13 0.62 0.51
6 6 -13 1.21 0.66
-6 12 -13 1.62 0.65
-12 6 13 0.76 0.79
-6 12 13 0.12 0.52
-12 6 13 1.65 0.79
-12 6 -13 1.28 0.7
-6 -6 -13 1.33 0.71
12 -6 13 2.19 0.58
-12 5 13 0.33 0.55
5 7 13 0.7 0.51
12 -5 13 1.56 0.54
-7 -5 -13 0.92 0.65
5 7 13 1.45 0.61
-12 5 13 1.66 0.8
7 5 -13 1.35 0.67
7 -12 13 0.11 0.54
-5 -7 13 1.14 0.87
-5 12 -13 1.55 0.68
-12 7 -13 0.46 0.65
-12 7 13 0.27 0.8
-12 7 13 1.47 0.84
-5 12 13 0.57 0.57
-12 5 -13 0.44 0.64
-7 12 -13 1.21 0.64
-7 -5 13 0.66 0.87
5 7 -13 1.69 0.69
7 5 13 1.3 0.55
12 -7 13 1.58 0.53
-5 -7 -13 0.74 0.63
8 -12 13 5.35 0.78
-4 12 -13 5.66 0.87
-4 -8 13 7.49 1.15
8 4 -13 5.05 0.86
-8 -4 -13 5.91 0.87
12 -4 13 6.61 0.95
4 8 13 6.39 0.97
-12 4 13 7.94 1
-8 12 13 6.77 1.1
-12 8 13 6.42 1.08
-8 -4 13 5.76 1.1
8 4 13 7.8 1
-4 12 13 7.2 1.05
-8 12 -13 8.3 1.15
12 -8 13 7.99 0.99
-12 8 13 8.14 1.34
-12 4 -13 7.99 1
4 8 -13 7.02 1.06
-12 3 13 12.06 1.21
12 -3 13 9.18 1.07
-12 9 -13 8.56 1.01
9 3 -13 9.55 1.2
-9 -3 -13 7.47 1.17
3 9 13 10.01 1.1
-3 -9 13 8.34 1.46
9 -12 13 8.16 1.09
3 9 13 8.43 1.22
-3 12 -13 9.48 1.23
-9 12 13 9.59 1.32
-9 -3 13 9.51 1.22
12 -9 13 10.45 1.1
9 3 13 12.36 1.11
-12 9 13 8.99 1.36
-12 3 -13 10.2 1.27
-3 12 13 9.87 1.19
-9 12 -13 10.33 1.23
3 9 -13 9.09 1.19
-12 9 13 10.07 1.47
-9 -3 13 10.03 1.53
3 -12 13 8.43 1.19
2 10 13 2.06 0.72
-2 12 -13 3.29 0.7
-10 12 13 3.56 0.85
-2 -10 13 2.88 0.95
2 10 13 2.29 0.65
-12 2 13 2.23 0.74
12 -2 13 2.6 0.57
-12 10 -13 2.08 0.68
10 2 -13 2.55 0.68
10 -12 13 2.36 0.64
-10 -2 -13 1.93 0.66
-12 2 -13 2.39 0.68
10 2 13 3.01 0.57
12 -10 13 3.85 0.65
-10 -2 13 2.26 0.88
-10 12 -13 2.74 0.7
-12 10 13 3.51 0.72
2 10 -13 2.84 0.7
-12 10 13 3.17 0.89
-10 -2 13 2.06 0.77
-2 12 13 2.32 0.68
2 -12 13 2.47 0.85
11 1 -13 5.28 0.84
-1 -11 13 7.77 1.35
11 -12 13 6.67 0.99
-12 1 13 5 0.9
1 11 13 7.09 1.19
-1 12 -13 6.29 1.01
-11 -1 -13 7.96 0.91
-12 11 -13 6.9 1.08
1 11 13 6.09 0.8
12 -1 13 6.26 0.88
-11 12 13 5.75 0.94
1 -12 13 4.43 0.97
-1 12 13 6.71 1.12
-12 1 -13 6.63 0.84
1 11 -13 5.28 0.79
-11 12 -13 6.18 0.85
11 1 13 6.11 0.89
12 -11 13 6.42 0.74
-12 11 13 6.71 1
-11 -1 13 4.7 0.92
12 0 13 6.52 0.88
0 -12 13 6.95 1.27
0 12 -13 4.94 0.8
0 12 13 6.09 1.1
-12 0 13 6.01 0.92
-12 0 -13 6.34 0.84
12 -12 13 6.9 0.96
-12 12 13 8.81 1.07
12 0 -13 7.26 1.09
-6 -7 13 -0.31 0.77
7 6 -13 0.77 0.61
7 -13 13 -0.26 0.5
-13 7 -13 0.52 0.62
6 7 13 0.14 0.57
-7 -6 -13 0.14 0.61
-13 6 13 -0.38 0.7
-6 13 -13 0.58 0.61
6 7 13 0.18 0.54
13 -6 13 0.43 0.48
-13 6 13 -0.28 0.71
-13 6 -13 -0.14 0.59
6 -13 13 -0.2 0.37
13 -7 13 -0.17 0.48
-13 7 13 -0.66 0.73
6 7 -13 0.21 0.56
-13 7 13 0.54 0.78
-6 -7 -13 0.63 0.5
-7 -6 13 -0.47 0.79
-7 13 -13 0.23 0.59
7 6 13 0.05 0.5
-6 13 13 0.31 0.54
7 6 13 0.41 0.42
8 5 -13 2.09 0.7
5 8 13 1.89 0.67
-5 13 -13 3.65 0.72
13 -5 13 3.91 0.59
8 -13 13 2.16 0.58
-8 -5 -13 2.52 0.69
-5 -8 13 4.01 0.99
5 8 13 3.68 0.67
-13 5 13 2.34 0.78
8 5 13 5.4 0.67
-13 8 13 4.13 0.92
-8 13 -13 3.74 0.71
-8 -5 13 4.56 1.01
-13 5 -13 3.96 0.75
-13 8 13 3.54 0.82
13 -8 13 4.19 0.62
5 8 -13 3.13 0.65
-5 13 13 3.41 0.69
9 -13 13 0.62 0.52
-4 13 -13 1.54 0.62
-9 -4 -13 1.06 0.62
-4 -9 13 1.63 0.84
-13 4 13 1.48 0.7
13 -4 13 1.6 0.54
9 4 -13 1.04 0.63
4 9 13 1.86 0.59
4 9 13 1.54 0.68
-4 13 13 1.95 0.63
-13 4 -13 1.52 0.7
-13 9 13 1.74 0.8
-13 9 13 2.62 0.76
-9 13 -13 1.38 0.6
-9 -4 13 1.55 0.83
13 -9 13 3.19 0.58
9 4 13 2.5 0.55
4 9 -13 1.85 0.61
-10 13 13 4.78 0.85
3 10 13 4.98 0.84
-3 13 -13 2.14 0.63
-10 -3 -13 3.26 0.67
-13 3 13 4.95 0.84
10 -13 13 3.15 0.61
-13 10 -13 1.97 0.5
10 3 -13 2.94 0.65
3 10 13 3.59 0.61
-10 13 -13 1.97 0.63
-3 13 13 1.83 0.63
-13 10 13 2.12 0.68
-10 -3 13 0.77 0.42
-10 -3 13 2.55 0.83
-13 10 13 3.19 0.85
13 -10 13 3.9 0.58
3 10 -13 1.65 0.55
-13 3 -13 3.26 0.71
10 3 13 2.99 0.55
13 -2 13 1.96 0.49
-11 13 13 2.95 0.81
11 2 -13 1.18 0.59
-2 -11 13 2 0.86
-11 -2 -13 1.93 0.62
-13 11 -13 1.42 0.64
2 11 13 2 0.74
2 11 13 1.72 0.56
-2 13 -13 1.47 0.61
-13 2 13 1.62 0.67
11 -13 13 1.41 0.56
2 -13 13 0.38 0.46
-11 13 -13 0.96 0.57
2 11 -13 1.64 0.48
-2 13 13 1.44 0.61
-11 -2 13 1.34 0.68
13 -11 13 2.13 0.53
-11 -2 13 1.86 0.67
-13 2 -13 2.02 0.65
-13 11 13 1.69 0.77
-13 11 13 0.97 0.4
11 2 13 1.71 0.5
13 -1 13 0.51 0.43
-1 -12 13 1.17 0.78
-12 13 13 0.85 0.71
-12 -1 -13 0.82 0.55
-13 12 -13 0.25 0.57
12 1 -13 0.84 0.56
-13 1 13 -0.18 0.62
1 12 13 0.03 0.66
-1 13 -13 0.57 0.52
12 -13 13 0.41 0.48
1 12 -13 0.5 0.36
-13 12 13 0.57 0.73
1 -13 13 0.34 0.62
13 -12 13 0.47 0.48
-12 13 -13 0.12 0.55
12 1 13 0.38 0.45
-13 1 -13 -0.2 0.55
-1 13 13 0.47 0.6
-12 -1 13 0.19 0.65
-13 0 -13 4.27 0.7
-13 0 13 4.46 0.82
0 13 13 6.05 0.83
0 -13 13 5.96 1.07
-13 13 -13 3.23 0.69
13 0 13 5.94 0.77
13 0 -13 4.4 0.73
13 -13 13 7.41 0.74
-13 13 13 6.22 0.97
-14 7 13 -0.55 0.67
7 -14 13 0.25 0.45
-14 7 -13 0.36 0.59
7 7 13 -0.13 0.54
7 7 13 0.41 0.5
-7 -7 13 0.57 0.77
-14 7 13 0.16 0.76
-7 14 -13 0.19 0.54
7 7 -13 0.27 0.33
14 -7 13 0.67 0.47
-7 -7 -13 0.45 0.32
-14 6 13 0.44 0.71
6 8 13 0.5 0.5
-8 -6 -13 0.54 0.54
8 6 -13 0.25 0.38
-6 -8 13 0.14 0.74
-14 8 -13 0.2 0.38
-6 14 -13 0.59 0.59
8 -14 13 0.64 0.51
-14 6 13 0.46 0.48
6 8 13 0.77 0.6
14 -6 13 0.83 0.48
-8 14 -13 0.59 0.55
14 -8 13 0.89 0.46
-14 6 -13 0.49 0.61
8 6 13 0.57 0.49
-14 8 13 -0.03 0.72
-14 8 13 0.23 0.72
8 6 13 0.62 0.42
6 8 -13 0.2 0.42
-8 -6 13 0.22 0.75
5 9 13 -0.15 0.52
-9 -5 -13 0.21 0.55
9 -14 13 0.35 0.49
-5 -9 13 0 0.76
-5 14 -13 0.75 0.57
-14 5 13 -0.29 0.64
9 5 -13 0.6 0.39
14 -5 13 0.89 0.48
5 9 13 -0.32 0.57
-14 9 13 0.36 0.75
9 5 13 0.82 0.46
14 -9 13 0.97 0.47
-14 5 -13 0.19 0.58
-14 9 13 0.92 0.69
-9 -5 13 0.77 0.74
-9 14 -13 0.11 0.52
-5 14 13 0.86 0.56
4 10 13 2.99 0.58
-4 -10 13 3.71 0.85
10 -14 13 2.51 0.55
-4 14 -13 1.77 0.6
4 10 13 2.51 0.69
14 -4 13 2.88 0.54
10 4 -13 1.05 0.44
-14 4 13 2.1 0.69
-10 -4 -13 2.23 0.61
14 -10 13 1.99 0.52
-14 10 13 1.27 0.66
-10 -4 13 1.66 0.73
-10 14 -13 1.52 0.57
10 4 13 2.28 0.52
-14 4 -13 1.67 0.64
-14 10 13 0.94 0.71
-4 14 13 1.72 0.61
3 11 13 2.41 0.56
-11 14 13 2.22 0.73
-11 -3 -13 2.01 0.6
-14 3 13 1.47 0.66
11 -14 13 2.8 0.59
-3 14 -13 2.3 0.63
3 11 13 2.72 0.74
-3 -11 13 3.32 0.84
14 -3 13 3.03 0.5
11 3 13 3.63 0.55
-11 -3 13 2.42 0.72
-14 3 -13 2.94 0.67
14 -11 13 3.84 0.6
-14 11 13 3.39 0.85
-11 14 -13 3.24 0.64
-3 14 13 3.07 0.67
-2 14 -13 0.9 0.41
2 12 13 1.47 0.7
-12 -2 -13 1.66 0.56
12 -14 13 2.01 0.52
-14 12 -13 1.18 0.51
14 -2 13 1.26 0.43
-14 2 13 2.93 0.71
-2 -12 13 1.73 0.74
-12 14 13 1.88 0.73
-14 2 -13 3.27 0.65
-2 14 13 2.81 0.69
12 2 13 2.26 0.49
-12 14 -13 2.26 0.61
-14 12 13 3.36 0.82
14 -12 13 2.55 0.53
-14 1 13 1.41 0.64
14 -1 13 1.71 0.43
-14 13 -13 1.43 0.57
1 13 13 1.97 0.65
-13 -1 -13 1.86 0.57
-13 14 13 2.26 0.79
-1 -13 13 1.58 0.65
13 -14 13 2.34 0.53
14 -1 -13 0.83 0.52
13 1 13 0.68 0.41
14 -13 13 1.17 0.46
-1 14 13 0.82 0.59
-13 -1 13 0.86 0.52
-14 13 13 0.26 0.73
-14 1 -13 0.76 0.52
-13 14 -13 0.68 0.51
-14 0 13 0.78 0.55
0 14 13 0.36 0.57
-14 14 -13 0.84 0.55
-14 14 13 0.9 0.78
14 -14 13 0.84 0.48
0 -14 13 -0.04 0.53
14 0 13 0.75 0.43
-14 0 -13 0.89 0.51
7 8 13 0.6 0.47
-15 7 13 0.3 0.52
-15 7 13 0.56 0.74
-7 15 -13 0.15 0.49
-7 -8 13 0.77 0.71
7 8 13 0.47 0.54
15 -7 13 0.4 0.43
8 -15 13 0.4 0.43
-8 -7 13 1.16 0.75
-15 8 13 0.26 0.75
15 -8 13 0.76 0.45
-8 15 -13 0.41 0.52
7 -15 13 -0.05 0.29
8 7 13 0.86 0.48
-15 7 -13 0.37 0.53
-15 8 13 -0.01 0.65
8 7 13 0.58 0.48
-6 15 -13 1.46 0.49
6 9 13 1.03 0.6
9 -15 13 1.51 0.48
-6 -9 13 1.98 0.78
15 -6 13 1.27 0.48
-15 6 13 0.3 0.66
6 9 13 1.37 0.51
-9 -6 -13 0.35 0.34
-15 9 13 0.74 0.69
-9 -6 13 0.99 0.72
-9 15 -13 0.91 0.53
15 -9 13 0.83 0.46
9 6 13 -0.04 0.35
-15 6 -13 0.43 0.59
-15 9 13 0 0.69
9 6 13 0.21 0.46
-5 15 -13 1.85 0.55
-10 -5 -13 2.36 0.54
-15 5 13 3.38 0.77
15 -5 13 2.28 0.49
5 10 13 2.49 0.55
-5 -10 13 3.67 0.84
10 -15 13 1.75 0.5
5 10 13 2.26 0.66
-15 10 13 0.6 0.68
-10 -5 13 0.96 0.69
15 -10 13 1.18 0.46
-15 10 13 1.17 0.66
10 5 13 1.46 0.47
-15 5 -13 1.41 0.57
-5 15 13 0.97 0.57
-10 15 -13 1.28 0.52
-11 -4 -13 0.66 0.5
-4 -11 13 1.2 0.72
4 11 13 1.02 0.66
11 -15 13 0.3 0.5
-15 4 13 0.66 0.66
4 11 13 1.21 0.54
-4 15 -13 0.98 0.47
15 -4 13 0.24 0.4
-11 -4 13 0.56 0.59
15 -11 13 0.52 0.44
-15 11 13 0.76 0.8
11 4 13 0.79 0.45
-15 4 -13 0.61 0.59
-4 15 13 0.77 0.59
-11 15 -13 0.44 0.5
12 -15 13 0.44 0.49
-12 -3 -13 0.19 0.5
3 12 13 0.44 0.65
-15 3 13 -0.17 0.59
15 -3 13 0.22 0.39
-3 -12 13 0.73 0.7
-15 3 -13 0.9 0.57
-12 15 -13 1.32 0.55
-15 12 13 1.23 0.71
-3 15 13 1.36 0.59
12 3 13 1.37 0.46
15 -12 13 1.03 0.45
2 13 13 0.29 0.62
-2 -13 13 0.72 0.63
-13 15 13 -0.02 0.67
-15 13 -13 0.06 0.33
15 -2 13 0.63 0.4
13 -15 13 0.45 0.46
-13 -2 -13 0.44 0.41
-15 2 13 0.52 0.6
15 -13 13 0.48 0.45
-15 2 -13 0.47 0.56
-15 13 13 0.43 0.77
13 2 13 0.32 0.42
15 -2 -13 0.38 0.43
-13 15 -13 0.2 0.54
-2 15 13 -0.01 0.59
-1 -14 13 -0.02 0.47
1 14 13 -0.29 0.62
-15 1 13 -0.18 0.57
-15 14 -13 0.01 0.35
-14 15 13 -0.04 0.75
14 -15 13 -0.29 0.44
-14 -1 -13 0.17 0.5
15 -1 13 0.21 0.39
-14 15 -13 0.25 0.57
-15 14 13 -0.11 0.79
15 -14 13 0.14 0.44
14 1 13 0.18 0.41
-15 1 -13 0.41 0.52
-1 15 13 0.39 0.66
-8 -8 13 0.48 0.73
-8 16 -13 -0.27 0.48
8 8 13 0.2 0.44
-16 8 13 0.34 0.73
8 -16 13 -0.06 0.25
8 8 13 0.28 0.48
16 -8 13 0.11 0.44
-16 8 13 0.12 0.45
7 9 13 0.39 0.5
-7 16 -13 0.63 0.45
-16 7 13 1.21 0.73
16 -7 13 0.75 0.44
-7 -9 13 1.49 0.76
9 -16 13 0.6 0.41
7 9 13 0.85 0.47
-16 7 -13 0.01 0.37
9 7 13 0.04 0.29
-9 16 -13 0.1 0.5
16 -9 13 0.48 0.42
-16 9 13 1 0.7
-9 -7 13 1.03 0.69
-16 9 13 -0.08 0.55
9 7 13 1.02 0.45
6 10 13 3.49 0.65
-6 16 -13 2.45 0.51
10 -16 13 2.11 0.51
6 10 13 4.28 0.59
-16 6 13 3.63 0.76
16 -6 13 2.94 0.48
-16 6 -13 3.7 0.63
-10 16 -13 4.82 0.7
-16 10 13 3.65 0.78
16 -10 13 3.21 0.53
-16 10 13 2.83 0.63
10 6 13 3.41 0.55
-10 -6 13 2.89 0.73
16 -5 13 0.15 0.39
11 -16 13 0.07 0.49
5 11 13 0.48 0.5
-5 16 -13 0.4 0.39
5 11 13 0.24 0.61
-5 -11 13 0.72 0.69
-16 5 13 0.35 0.68
16 -11 13 0.11 0.43
-16 5 -13 0.33 0.55
-11 -5 13 0.17 0.47
-16 11 13 0.37 0.68
11 5 13 0.24 0.43
-11 16 -13 -0.01 0.51
-16 4 13 2.89 0.69
-4 -12 13 3.06 0.76
4 12 13 2.88 0.73
16 -4 13 2.12 0.45
12 -16 13 2.24 0.54
16 -12 13 1.89 0.5
-16 12 13 2.64 0.79
12 4 13 2.06 0.48
-16 4 -13 2.49 0.57
-12 16 -13 3.07 0.62
-4 16 13 2.95 0.68
-16 3 13 1.19 0.69
13 -16 13 0.83 0.47
-13 -3 -13 0.29 0.34
3 13 13 1.76 0.7
-3 -13 13 1.79 0.67
16 -3 13 0.12 0.24
16 -13 13 2.09 0.51
-16 13 13 2.53 0.86
-13 16 -13 2.38 0.61
13 3 13 1.58 0.47
-3 -13 -13 1.96 0.6
-16 3 -13 2.53 0.61
-3 16 13 2.37 0.7
-8 17 -13 0.22 0.42
8 9 13 0.04 0.28
-9 -8 -13 0.88 0.6
17 -8 13 0.37 0.34
-8 -9 13 1.57 0.76
8 9 13 0.67 0.48
-17 8 13 0.26 0.7
-17 9 13 0.16 0.37
-9 -8 13 0.9 0.69
17 -9 13 0.07 0.39
-9 17 -13 0.62 0.51
-17 9 13 0.72 0.63
-8 -9 -13 0.39 0.6
9 8 13 0.09 0.45
7 10 13 0.19 0.38
-17 7 13 0.74 0.71
-10 -7 -13 0.91 0.59
7 10 13 1.2 0.5
-7 -10 13 1.88 0.75
-10 -7 13 0.88 0.63
17 -10 13 0.11 0.41
-10 17 -13 0.92 0.55
-7 -10 -13 0.57 0.61
10 7 13 0.43 0.44
-17 10 13 0.22 0.57
6 11 13 0.84 0.47
0 0 -14 0.54 1.02
0 0 14 1.04 0.92
0 0 -14 -0.22 0.72
1 -1 -14 1.7 0.77
1 0 -14 3.08 0.85
0 1 14 4.24 1.06
-1 1 -14 1.95 0.79
1 -1 -14 3.24 1.16
-1 1 14 3.72 1.03
1 -1 14 3.93 1.05
-1 1 -14 3.52 1.18
-1 0 -14 1.66 1.04
0 1 -14 2.19 1.04
1 0 -14 2.48 1.15
0 -1 -14 3.09 1.19
0 1 -14 2.08 0.82
1 0 14 3.14 1.01
0 -1 14 3.85 1.07
-1 -1 14 1.39 0.95
-1 2 -14 -0.16 0.68
1 -2 -14 0.97 1.03
-1 2 -14 0.45 0.86
1 1 -14 0.84 0.98
-2 1 14 1.2 0.97
-2 1 -14 0.05 0.96
1 1 -14 0.63 0.87
-1 2 14 0.72 0.94
-1 2 -14 0.62 0.76
2 -1 14 1.62 0.94
1 -2 14 1.23 0.97
-1 -1 -14 0.37 0.93
-2 1 -14 0.89 0.55
1 -2 -14 0.28 0.4
2 -1 -14 -0.25 0.81
2 -1 -14 0.62 1.01
1 1 -14 0.65 0.72
2 -1 -14 0.27 0.69
1 1 14 1.53 0.92
0 2 14 10.71 1.66
2 0 14 9.33 1.64
0 -2 14 10.28 1.65
2 0 -14 6.12 1.16
2 -2 -14 9.2 1.47
-2 0 14 11.18 1.76
-2 2 -14 8.64 1.39
2 0 -14 9.43 1.51
2 0 -14 7.85 1.28
2 -2 14 9.16 1.64
-2 2 14 9.83 1.67
0 -2 -14 6.56 1.32
0 2 -14 7.32 1.06
-2 0 -14 9.24 1.48
-2 2 -14 6.97 1.3
-3 1 14 4.48 1.12
3 -1 14 3.35 0.99
3 -2 -14 3.04 0.85
1 -3 -14 2.19 1.01
2 1 -14 1.9 1
2 1 -14 2.48 0.79
-3 2 -14 2.1 0.72
2 1 -14 2.73 1.04
-2 -1 -14 2.64 1.07
2 -3 14 3.24 1.06
1 2 14 5.16 1.09
-1 3 -14 2.87 0.97
-1 -2 14 3.38 1.1
-2 3 14 4.33 1.08
3 -2 -14 3.62 1.18
-1 3 -14 2.03 0.79
-3 2 -14 1.51 0.97
-3 2 14 4.24 1.1
1 2 -14 3.47 0.81
-2 3 -14 0.15 0.69
-3 1 -14 2.36 1.06
2 -3 -14 2.81 1.1
3 -1 -14 0.98 0.75
-1 3 14 4.66 1.06
-2 3 -14 2.03 0.8
-1 -2 -14 3.99 1.16
3 -1 -14 1.74 0.82
1 -3 14 3.61 1.05
1 2 -14 2.2 0.99
3 -2 14 3.76 1.04
1 2 -14 1.75 0.81
3 -1 -14 3.95 1.2
-3 0 14 1.09 1.01
3 0 -14 -0.33 0.89
3 -3 -14 0.45 0.99
0 3 -14 -0.27 0.68
3 0 14 -0.42 0.45
0 3 -14 -0.21 0.7
0 3 -14 -0.1 0.84
0 -3 -14 0.46 1.01
3 0 -14 -0.4 0.96
3 -3 14 1.22 0.91
-3 3 14 0.72 0.94
3 0 -14 0 0.65
-3 3 -14 -0.37 0.66
-3 3 -14 0.29 0.73
0 3 14 0.53 0.94
3 -3 -14 0.49 0.72
-3 0 -14 -0.1 0.9
3 0 14 0.48 0.92
0 -3 14 1.48 0.97
2 2 -14 -0.18 0.65
-2 4 14 0.47 0.97
2 -4 -14 0.99 0.97
2 2 -14 -0.38 0.91
-4 2 14 0.82 0.94
-4 2 -14 -0.4 0.9
2 2 14 1.07 0.88
4 -2 14 -0.04 0.47
4 -2 14 0.36 0.89
2 2 -14 0.33 0.7
-2 -2 14 0.55 0.89
2 -4 14 0.69 0.99
-2 -2 -14 -0.11 0.87
-4 2 -14 0.4 0.5
4 -2 -14 -0.28 0.73
4 -2 -14 -0.07 0.66
4 -2 -14 0.48 1.04
-2 4 -14 0.33 0.7
-2 4 -14 0.2 0.74
-3 -1 -14 2.17 1.06
-1 4 -14 2.24 0.77
-1 4 -14 1.54 0.92
3 1 -14 1.79 1.04
1 3 14 4.01 1.02
3 1 -14 0.36 0.84
-1 -3 14 3.16 0.96
4 -1 14 3.53 1.02
3 1 -14 2.26 0.72
-3 4 14 2.14 0.94
-4 1 14 3.82 1.11
4 -3 -14 1.78 1.06
-4 3 -14 1.54 0.75
1 -4 -14 1.57 0.97
4 -1 14 2.44 0.69
4 -3 -14 2.3 0.84
3 -4 14 3.42 1.03
1 3 -14 1.78 0.73
4 -1 -14 2.25 0.79
1 3 -14 1.57 0.94
4 -1 -14 2.2 0.96
4 -3 14 4.38 1.05
1 -4 14 4.24 1.1
-3 -1 14 4.41 1.08
-4 3 14 3.34 1.01
-1 4 14 4.31 1.05
-4 1 -14 1.41 0.98
4 -1 -14 0.95 1
3 -4 -14 3.41 1.12
-3 4 -14 2.26 0.79
3 1 14 4.13 1.02
-1 -3 -14 2.6 1.01
-3 4 -14 -0.14 0.72
4 -4 -14 -0.06 0.72
-4 4 14 0.24 0.92
4 0 -14 0.24 0.94
0 4 -14 -0.68 0.87
0 4 14 0.7 0.89
4 0 14 0.13 0.63
-4 0 14 -0.11 0.99
4 -4 14 0.91 0.92
-4 4 -14 -0.1 0.75
0 4 -14 -0.11 0.67
-4 0 -14 0.08 0.91
0 -4 14 0.08 0.85
4 0 -14 -0.09 0.89
4 0 14 1.36 0.91
4 -4 14 -0.13 0.39
0 -4 -14 0.32 0.92
4 -4 -14 -0.61 0.95
4 0 -14 0.27 0.7
-2 5 -14 0.52 0.84
-2 -3 14 1.2 0.89
-2 5 -14 1 0.67
5 -2 14 0.91 0.63
5 -2 14 1.53 0.94
3 2 -14 0.77 0.62
-5 3 -14 0.38 0.39
-3 -2 -14 0.8 0.9
3 -5 14 1.42 1.01
-3 5 14 0.8 0.9
-5 3 -14 -0.59 0.66
2 3 14 2.14 0.94
-5 2 14 1.13 0.96
5 -3 -14 0.46 0.99
3 2 -14 0.72 0.9
2 -5 -14 0.88 0.83
2 3 14 -0.18 0.48
2 -5 14 2.46 1.06
5 -3 14 1.83 1
-5 3 14 2.26 0.98
5 -2 -14 0.06 0.69
3 -5 -14 1.73 0.91
-3 5 -14 1.34 0.74
5 -3 14 1.99 0.66
2 3 -14 2.15 0.74
-3 -2 14 2.76 1.01
5 -2 -14 1.81 0.84
-3 5 -14 0.15 0.67
2 3 -14 1.11 0.95
-2 -3 -14 0.88 0.86
-5 2 -14 0.33 0.84
-2 5 14 1.57 0.89
5 -2 -14 1.28 1.02
3 2 14 1.53 0.58
3 2 14 2.12 0.95
4 1 -14 4.03 1.08
1 4 14 5.61 1.08
-5 1 14 5.45 1.17
5 -1 14 3.66 0.79
-4 5 14 4.4 1.06
-4 -1 -14 4.89 1.16
4 1 -14 3.6 0.82
-1 5 -14 4.06 0.82
5 -1 14 6.65 1.13
4 -5 14 6.97 1.22
-5 1 14 5.13 0.9
5 -4 -14 3.11 1.15
-5 4 -14 3.91 0.87
-1 5 -14 4.14 1.03
-1 -4 14 6.42 1.13
1 4 -14 1.98 0.93
5 -1 -14 2.09 0.88
4 -5 -14 2.39 0.95
5 -1 -14 2.07 1.08
1 4 -14 3.19 0.77
-1 -4 -14 2.39 0.89
5 -1 -14 2.41 0.8
5 -4 14 2.27 0.65
-5 1 -14 1.21 0.96
4 1 14 2.4 0.71
-4 -1 14 3.81 1.09
-5 4 14 3.14 1.04
1 -5 14 3.92 1.05
4 1 14 3.56 1.01
5 -4 14 4.94 1.12
-1 5 14 5.09 1.09
-4 5 -14 3.39 0.84
0 5 -14 1.4 0.69
-5 5 14 1.72 0.97
5 0 14 2.4 0.94
5 0 -14 -0.04 0.73
-5 0 14 1.54 1.02
5 0 -14 1.03 0.95
0 5 14 0.59 0.88
0 5 -14 1.03 0.88
-5 0 14 0.59 0.71
5 -5 14 1.63 0.97
-5 5 -14 1.08 0.75
-5 0 -14 0.53 0.88
5 -5 -14 0.99 0.9
0 -5 -14 -0.33 0.57
5 0 14 2.09 0.69
5 0 -14 1.73 0.73
0 -5 14 1.14 0.9
5 -5 14 1.19 0.57
3 -6 14 3.63 1.08
6 -3 -14 1.25 0.92
-3 6 -14 1.9 0.76
3 3 -14 1.77 0.87
-3 6 14 2.21 0.91
-3 -3 14 3.21 1.02
6 -3 14 3.08 1.01
-6 3 14 3.69 1.11
-3 -3 -14 0.61 0.79
3 3 -14 2.45 0.73
6 -3 14 3.13 0.7
3 3 14 3.38 0.96
-3 -3 14 2.87 1.07
-6 3 14 3.3 0.81
-3 6 -14 0.51 0.74
3 3 14 1.84 0.65
4 -6 14 1.03 1
-2 6 -14 0.16 0.66
2 4 14 -0.23 0.81
6 -2 14 0.22 0.9
4 2 -14 -0.12 0.82
-6 2 14 0.13 0.74
-4 6 14 -0.45 0.8
-2 -4 14 0.53 0.87
-6 2 14 -0.16 1
2 4 14 0 0.41
4 2 -14 0.43 0.6
6 -4 -14 0.17 0.87
6 -2 14 0.12 0.58
-2 6 -14 -0.11 0.74
-6 4 -14 0.22 0.41
-4 -2 -14 -0.62 0.77
-2 -4 14 0.75 0.94
-6 4 14 1.22 0.97
2 4 -14 1.32 0.7
-4 -2 14 1.02 0.93
2 -6 14 1.63 1.01
6 -4 14 0.84 0.6
6 -4 14 1.11 0.98
6 -2 -14 -0.01 0.84
-6 4 14 0.95 0.58
2 4 -14 0.7 0.86
6 -2 -14 0.03 0.71
-2 6 14 1.12 0.84
-6 2 -14 -0.27 0.69
4 -6 -14 -0.22 0.63
-2 -4 -14 -0.42 0.62
-4 6 -14 0.07 0.88
4 2 14 0.98 0.63
4 2 14 1.87 0.91
-4 6 -14 0.51 0.71
6 -1 14 1.14 0.64
-5 6 14 0.78 0.85
-1 6 -14 0.32 0.75
-6 1 14 1.46 1.06
5 1 -14 0.31 0.65
-1 6 -14 0.83 0.63
6 -1 14 1.19 0.9
-1 -5 14 0.9 0.9
6 -5 -14 0.25 0.73
5 -6 14 0.78 0.95
-5 -1 -14 -0.09 0.82
-1 -5 14 1.11 0.87
-6 1 14 0.94 0.77
5 -6 14 0.3 0.5
5 1 -14 -0.09 0.82
-6 5 -14 0.23 0.71
1 5 14 0.54 0.85
-5 -1 14 0.8 0.98
-5 6 -14 0.83 0.75
6 -1 -14 0.47 0.73
1 5 -14 0.45 0.63
-6 1 -14 -0.18 0.76
-1 -5 -14 -0.55 0.94
-1 6 14 0.81 0.85
5 1 14 0.98 0.66
5 -6 -14 -0.09 0.69
5 1 14 1.22 0.91
1 -6 14 1.23 0.9
6 -1 -14 0.11 0.74
6 -5 14 0.43 0.6
-6 5 14 1.43 0.94
6 -1 -14 0.56 0.77
1 5 -14 0.53 0.76
-6 5 14 0.98 0.75
-5 -1 14 0.21 0.72
6 -5 14 1.3 0.96
-6 6 -14 0.71 0.71
6 -6 14 0.8 0.94
6 0 -14 1.44 0.72
0 6 14 0.67 0.86
-6 0 -14 1.08 0.71
6 0 -14 -0.26 0.75
-6 0 -14 -0.22 0.66
-6 6 14 0.63 0.84
0 6 -14 1.51 0.63
0 6 -14 0 0.7
0 -6 14 0.94 0.91
-6 0 14 0.28 0.75
-6 6 14 1.09 0.75
-6 0 14 1.04 0.98
6 -6 -14 -0.23 1.02
6 0 14 1.11 0.89
6 0 14 1.04 0.63
6 -6 14 0.75 0.6
-7 4 -14 5.71 0.97
4 3 -14 6.95 0.93
-7 3 14 7.86 1.27
-4 7 14 5.76 1.06
3 4 14 4.84 0.83
4 -7 14 6.43 1.21
7 -3 14 6.44 0.83
-7 3 14 8.8 1.1
-3 7 -14 7.2 0.97
7 -3 14 8.16 1.25
-7 4 14 7.27 1
7 -4 14 4.51 1.1
7 -4 14 4.69 0.78
4 3 14 6.45 0.87
-7 4 14 5.76 1.14
-4 -3 14 7.52 1.22
4 3 14 6.29 1.12
3 -7 14 5.82 1.18
-3 7 14 5.85 1.07
-7 3 -14 5.14 0.96
3 4 -14 6.89 0.93
-4 7 -14 4.96 0.89
7 -5 -14 0.02 0.65
-2 7 -14 1.84 0.69
7 -2 14 1.46 0.61
-5 -2 -14 -0.11 0.57
5 2 -14 1.32 0.65
-7 2 14 1.75 1.05
-7 5 -14 1.19 0.61
-2 7 -14 0.2 0.63
2 5 14 1.43 0.9
7 -2 14 1.05 0.93
-7 2 14 1.28 0.79
5 -7 14 1.35 0.98
5 2 -14 0.1 0.72
-2 -5 14 0.18 0.72
2 5 14 1.18 0.56
-5 -2 -14 -0.49 0.65
-2 -5 14 1.26 0.95
-7 5 -14 1.29 0.74
-5 7 14 1.24 0.85
5 -7 14 0.41 0.43
7 -2 -14 0.07 0.68
2 -7 14 -0.3 0.89
-7 5 14 0.11 0.7
-7 5 14 0.25 0.81
-7 5 14 0.56 0.78
-5 -2 14 -0.35 1.22
2 5 -14 0.43 0.65
-2 -5 -14 -0.38 0.59
-5 -2 14 -0.02 0.93
7 -5 14 0.19 0.87
5 2 14 0.29 0.61
7 -5 14 0.42 0.58
2 5 -14 0.21 0.65
-2 7 14 0.04 0.77
7 -2 -14 -0.02 0.68
5 2 14 0.64 0.92
-7 2 -14 -0.08 0.77
-5 7 -14 0.31 0.7
-7 2 -14 -0.08 0.72
-1 7 -14 7.06 0.95
1 6 14 6.39 1.12
-7 1 14 8.17 1.32
7 -1 14 6.23 0.85
-1 -6 14 9.87 1.31
-6 -1 -14 8.08 0.99
6 1 -14 7.33 1.15
-7 6 -14 5.11 0.92
-7 1 14 8.73 1.09
6 -7 14 8.05 1.47
6 -7 14 6.13 0.82
7 -1 14 6 1.14
-7 6 -14 5 0.96
6 1 14 7.65 1.13
7 -6 14 7.32 1.07
1 -7 14 10.12 1.3
-6 -1 14 6.41 1.18
-7 1 -14 9.18 1.33
-6 7 -14 6.01 0.98
-6 -1 14 8.68 1.08
6 1 14 7.02 1.21
1 6 -14 7.83 1.13
-1 7 14 6.57 1.11
7 -6 14 8.19 1.34
-7 6 14 8.82 1.42
-7 7 -14 5.28 0.95
-7 0 14 4.47 0.9
0 7 -14 4.27 0.72
0 -7 14 6 1.12
-7 7 14 6.15 1.04
-7 0 -14 5.62 0.86
7 0 14 4.75 1.11
7 -7 14 3.42 0.7
7 0 -14 4.78 0.86
7 0 14 5.57 0.77
-7 0 14 5.08 1.11
-4 -4 14 0.26 0.9
8 -4 14 0.38 0.83
8 -4 -14 0.04 0.87
-8 4 -14 0.34 0.73
-8 4 14 0.45 0.72
4 4 14 0.54 0.62
-4 8 -14 0.01 0.66
4 4 -14 0.11 0.66
8 -4 14 0.05 0.53
-8 4 14 0.15 0.48
-8 4 14 0.37 0.72
4 -8 14 0.09 0.94
-4 8 14 -0.18 0.78
-4 -4 -14 -0.34 0.77
-3 -5 14 -0.3 1.13
-8 3 14 1.93 0.99
-8 5 -14 1.31 0.76
5 -8 14 1.29 0.93
3 5 14 1.94 0.66
8 -3 14 1.94 0.94
-3 8 -14 1.82 0.71
-8 3 14 1.57 0.78
-3 -5 14 1.84 0.93
-5 -3 -14 1.83 0.7
8 -3 14 1.8 0.6
5 3 -14 1.78 0.73
-5 8 14 0.94 0.69
5 3 14 0.58 0.59
-8 5 14 0.78 0.74
3 5 -14 0.17 0.63
-5 8 -14 0.39 0.66
8 -5 14 0.13 0.63
-3 8 14 0.53 0.83
3 -8 14 0.25 0.98
-5 -3 14 0.49 0.91
-8 5 14 1.09 0.79
-3 -5 -14 -0.4 1.03
-8 5 14 -0.26 0.95
8 -5 14 0.72 0.56
-8 3 -14 0.29 0.77
8 -2 14 5.62 0.76
-8 2 14 3.96 1.13
-2 -6 14 4.58 1.04
6 -8 14 3.57 0.69
-8 6 -14 3.27 0.7
6 2 -14 3.86 0.73
2 6 14 3.38 0.7
-2 8 -14 3.25 0.76
-8 6 -14 2.58 0.78
-8 2 14 4.7 0.91
-6 -2 -14 3.51 0.78
8 -2 14 4.48 1.08
-2 8 14 2.5 0.91
-6 -2 14 4 1.11
8 -6 14 3.25 0.66
6 2 14 4.3 0.71
-6 -2 14 3.25 0.76
2 -8 14 4.11 1.02
-8 2 -14 4.3 0.84
-6 8 -14 3.03 0.81
-8 6 14 2.88 0.89
2 6 -14 5.41 0.83
-8 6 14 3.37 0.8
8 -1 14 0.65 0.6
-8 7 -14 0.31 0.44
7 1 -14 1.31 0.67
-1 -7 14 1.55 0.92
-8 7 -14 0.1 0.68
-8 1 14 0.5 0.73
-1 8 -14 1.38 0.67
1 7 14 -0.03 0.37
7 -8 14 0.37 0.54
-7 8 14 1.17 0.75
-7 -1 -14 1.02 0.7
-8 1 14 1.04 1.01
7 1 14 1.17 0.58
1 -8 14 1.71 0.92
1 7 -14 1.13 0.59
-8 7 14 1.54 0.87
-7 8 -14 0.8 0.73
-7 -1 14 1.26 0.96
-8 1 -14 1.1 0.68
8 -7 14 1.01 0.56
-7 -1 14 1.18 0.72
-8 0 14 3.8 0.89
-8 8 14 4.42 0.98
0 -8 14 4.62 1.04
8 -8 14 3.21 0.65
0 8 -14 5 0.82
-8 8 -14 4.3 0.83
8 0 -14 3.65 0.8
-8 0 -14 4.69 0.85
-8 0 14 5.07 1.12
8 0 14 4.65 0.71
5 4 -14 -0.48 0.64
-9 5 -14 -0.07 0.69
9 -4 14 0.25 0.51
-4 -5 14 -0.76 0.83
5 -9 14 0.42 0.77
4 5 14 0.11 0.58
5 -9 14 -0.09 0.5
-5 -4 -14 0.31 0.61
-9 4 14 0.18 0.72
-4 9 -14 0.03 0.62
9 -4 14 0.15 0.57
-5 9 14 0.53 0.5
4 -9 14 -0.71 0.89
-9 5 14 0.41 0.75
-5 -4 14 -0.66 0.89
-5 9 -14 0.23 0.65
4 5 -14 0.02 0.65
-4 -5 -14 0.27 0.64
-9 5 14 -0.34 0.65
9 -5 14 -0.31 0.56
-9 4 -14 -0.42 0.66
5 4 14 0.42 0.57
6 3 -14 1.2 0.72
-3 -6 14 1.53 0.93
-9 6 -14 0.79 0.7
-3 9 -14 0.79 0.64
-6 -3 -14 0.88 0.66
9 -3 14 0.83 0.58
9 -3 14 0.99 0.81
-9 3 14 -0.29 0.61
6 -9 14 -0.18 0.64
3 6 14 0.86 0.6
-9 3 14 0.91 0.79
6 -9 14 0.22 0.5
-6 9 -14 -0.11 0.7
-6 -3 14 0.02 0.94
3 -9 14 0.25 0.91
-3 -6 -14 0.46 0.66
6 3 14 0.18 0.55
3 6 -14 0.64 0.62
-9 6 14 0.34 0.73
-9 3 -14 -0.38 0.72
9 -6 14 0.06 0.55
-9 6 14 0.15 0.77
-9 2 14 1 0.79
-7 -2 -14 1.46 0.7
-9 2 14 0.96 0.85
9 -2 14 1.99 0.6
-9 7 -14 0.9 0.49
-2 9 -14 1.61 0.67
-2 -7 14 0.91 0.89
7 2 -14 0.89 0.62
2 7 14 1.75 0.64
7 -9 14 0.69 0.56
-9 7 -14 1.2 0.64
9 -7 14 1.54 0.56
-7 -2 14 2.2 0.99
-9 7 14 0.96 0.8
7 2 14 1.76 0.61
2 -9 14 1.16 0.93
-9 2 -14 1.32 0.7
-7 9 -14 2.36 0.73
-7 -2 14 1.18 0.7
2 7 -14 2.64 0.67
-2 -7 -14 1.68 0.68
-9 7 14 1.31 0.71
1 8 14 1.62 0.5
-9 8 -14 2.27 0.75
-9 1 14 2.45 0.83
-8 9 14 2.37 0.79
-8 -1 -14 2.52 0.68
8 1 -14 3.8 0.78
9 -1 14 3.81 0.64
8 -9 14 2.97 0.63
-1 9 -14 3.59 0.78
-9 1 14 3.02 1.01
-1 -8 14 2.8 0.96
-8 -1 14 2.32 0.77
1 8 -14 2.83 0.71
-1 -8 -14 1.96 0.66
-9 8 14 2.3 0.85
-8 9 -14 2.85 0.77
-8 -1 14 3.54 1
1 -9 14 2.65 0.92
9 -8 14 2.51 0.59
8 1 14 2.45 0.61
-9 1 -14 2.55 0.74
-9 0 14 1.29 0.88
0 -9 -14 -0.01 0.38
9 -9 14 1.16 0.51
-9 9 -14 0.84 0.67
0 -9 14 0.89 0.86
0 9 -14 1.17 0.64
-9 0 -14 1.67 0.65
-9 0 14 0.49 0.72
9 0 -14 2.24 0.69
-9 9 14 1.19 0.77
9 0 14 1.4 0.53
-10 5 14 0.09 0.71
-5 -5 -14 0.23 0.6
-10 5 14 0.12 0.48
10 -5 14 0.31 0.53
5 5 14 0.21 0.54
-5 -5 14 -0.7 0.86
-5 10 -14 -0.48 0.6
5 5 -14 0.35 0.68
-10 5 -14 -0.05 0.62
5 -10 14 -0.13 0.48
-10 6 -14 0.53 0.62
-6 -4 -14 0.26 0.64
-4 10 -14 0.73 0.6
6 -10 14 0.4 0.43
-4 -6 14 0.43 0.86
10 -4 14 0.69 0.53
-10 4 14 0.3 0.74
6 4 -14 0.82 0.71
4 6 14 0.38 0.55
-6 -4 14 0.63 0.91
4 6 -14 1.13 0.66
6 4 14 0.93 0.57
-10 6 14 1.49 0.77
4 -10 14 0.9 0.82
10 -6 14 0.89 0.55
-4 -6 -14 0.66 0.62
-6 10 -14 0.74 0.63
-10 4 -14 0.46 0.67
-10 6 14 0.46 0.76
-10 7 -14 3.18 0.61
-10 3 14 4.48 0.91
-7 -3 -14 2.64 0.72
10 -3 14 4.1 0.66
7 3 -14 3.47 0.78
-3 10 -14 3.92 0.76
3 7 14 3.39 0.68
-3 -7 14 3.68 1
-7 10 -14 3.67 0.76
-7 -3 14 4.12 1.04
-3 -7 -14 2.28 0.68
-10 7 14 4.11 0.83
3 -10 14 3.74 0.98
10 -7 14 3.77 0.64
-7 -3 14 1.95 0.64
3 7 -14 3.29 0.71
-10 7 14 3.32 0.91
-10 3 -14 3.89 0.78
7 3 14 3.24 0.65
2 8 14 0.5 0.57
-2 -8 14 0.65 0.86
-2 10 -14 0.83 0.62
-10 2 14 0.59 0.77
8 2 -14 0.55 0.61
-8 -2 -14 0.69 0.63
10 -2 14 0.84 0.56
8 -10 14 0.22 0.5
-10 8 -14 1.05 0.59
-2 -8 -14 1.25 0.53
2 8 -14 1.21 0.66
2 -10 14 0.87 0.83
-8 -2 14 0.99 0.66
-10 2 -14 1.45 0.66
8 2 14 0.92 0.54
10 -8 14 1.45 0.57
-8 10 -14 1.13 0.64
-8 -2 14 0.69 0.87
-10 8 14 0.86 0.77
-10 8 14 0.54 0.63
-10 1 14 2.12 0.8
-9 -1 -14 3.12 0.67
-9 10 14 1.49 0.75
-10 9 -14 1.11 0.65
9 -10 14 1.55 0.53
10 -1 14 1.43 0.53
-1 -9 14 3.07 0.95
9 1 -14 2.86 0.73
-1 10 -14 2.22 0.69
1 9 14 2.03 0.53
9 1 14 1.92 0.54
1 -10 14 2.38 0.9
10 -1 -14 3.79 0.84
-10 1 -14 2.46 0.68
-9 -1 14 2.52 0.89
1 9 -14 2.47 0.67
-9 -1 14 1.32 0.7
-10 9 14 1.99 0.85
10 -9 14 2.68 0.61
-9 10 -14 1.11 0.66
-10 10 14 1.46 0.75
10 -10 14 1.23 0.53
-10 0 -14 1.32 0.61
-10 0 14 1.19 0.72
-10 0 14 0.98 0.74
0 -10 14 1.16 0.8
0 10 -14 1.43 0.58
10 0 -14 2.5 0.72
-10 10 -14 1.91 0.67
10 0 14 2.21 0.52
-5 -6 14 2.61 0.94
-5 11 -14 2.78 0.69
-11 5 14 1.95 0.77
-11 6 -14 1.7 0.66
5 6 14 2.27 0.57
6 5 -14 1.84 0.66
11 -5 14 2.46 0.57
-6 -5 -14 2.1 0.67
11 -6 14 2.96 0.59
-6 -5 14 2.57 0.94
-11 6 14 2.87 0.8
-6 11 -14 2.71 0.67
6 5 14 3.15 0.65
-11 6 14 0.99 0.74
-11 5 -14 1.61 0.67
-5 -6 -14 2.12 0.67
5 6 -14 1.81 0.63
-4 11 -14 0.18 0.6
-4 -7 14 -0.45 0.84
-11 4 14 -0.24 0.72
7 4 -14 -0.22 0.61
-7 -4 -14 -0.1 0.58
4 7 14 0.06 0.54
7 -11 14 -0.24 0.47
11 -4 14 0.52 0.51
-11 7 -14 0.99 0.53
4 -11 14 -0.1 0.46
11 -7 14 0.46 0.52
7 4 14 0.75 0.56
-7 -4 14 0.1 0.85
-11 4 -14 0.33 0.6
-4 -7 -14 0.51 0.61
-7 11 -14 -0.01 0.57
-11 7 14 -0.07 0.75
4 7 -14 0.59 0.54
-11 7 14 0.89 0.73
-3 11 -14 4.05 0.75
8 -11 14 2.32 0.59
-3 -8 14 4.89 1.05
3 8 14 2.84 0.65
-11 3 14 2.58 0.82
8 3 -14 4.47 0.79
11 -3 14 4.43 0.66
-8 -3 -14 3.26 0.69
3 8 -14 2.67 0.64
-8 -3 14 2.75 0.91
11 -8 14 4.14 0.63
-11 8 14 2.11 0.83
3 -11 14 3.54 0.86
8 3 14 3.22 0.61
-11 3 -14 3.17 0.71
-8 -3 14 2.74 0.6
-8 11 -14 3.43 0.71
-11 8 14 2.87 0.7
-11 2 14 1.9 0.77
9 2 -14 3.27 0.67
9 -11 14 1.36 0.53
-2 11 -14 2.73 0.68
-2 -9 14 3.25 0.91
2 9 14 2.16 0.61
-11 9 -14 2.52 0.59
-9 -2 -14 2.07 0.62
11 -2 14 2.74 0.54
-11 9 14 1.33 0.74
9 2 14 1.44 0.51
-9 -2 14 1.67 0.67
11 -9 14 2.14 0.56
-9 -2 14 1.98 0.84
-9 11 -14 1.71 0.61
2 9 -14 1.89 0.61
-11 2 -14 1.73 0.65
2 -11 14 1.81 0.79
1 10 14 0.36 0.45
-11 1 14 -0.76 0.69
-11 10 -14 0.33 0.56
11 -1 14 0.41 0.44
10 -11 14 -0.04 0.48
-10 -1 -14 0.41 0.56
-1 11 -14 0.4 0.54
-10 11 14 0.14 0.66
10 1 -14 0.24 0.6
-1 -10 14 -0.1 0.76
11 -1 -14 0.71 0.67
-11 1 -14 0.4 0.57
-10 -1 14 0.47 0.69
11 -10 14 0.75 0.49
10 1 14 1.23 0.5
-10 11 -14 0.49 0.61
1 -11 14 0.8 0.74
1 10 -14 0.95 0.54
-11 10 14 0.65 0.72
-1 11 14 -0.12 0.38
-10 -1 14 -0.15 0.64
11 -11 14 -0.01 0.46
0 11 -14 -0.03 0.51
-11 0 14 -0.54 0.66
0 -11 14 0.2 0.72
-11 0 -14 0 0.54
-11 11 -14 -0.13 0.54
0 11 14 -0.14 0.36
-11 11 14 0.17 0.7
11 0 -14 -0.21 0.6
11 0 14 0.12 0.45
-6 -6 -14 0.69 0.58
-6 12 -14 1.05 0.57
6 6 -14 0.54 0.56
6 6 14 1.47 0.57
12 -6 14 0.7 0.47
-12 6 -14 0.15 0.55
-12 6 14 0.18 0.44
-6 -6 14 1.1 0.86
-12 6 14 0.95 0.72
-5 -7 14 2.98 0.89
7 -12 14 2.66 0.52
7 5 -14 2.19 0.64
-7 -5 -14 3.18 0.67
12 -5 14 3.6 0.59
-12 7 -14 3.29 0.64
-5 12 -14 3.71 0.65
5 7 14 4.15 0.66
-12 5 14 4.25 0.86
-12 7 14 2.08 0.77
-12 7 14 3.41 0.8
-12 5 -14 3.35 0.66
7 5 14 3.89 0.61
5 7 -14 2.38 0.61
-7 12 -14 3.45 0.67
-7 -5 14 3.43 0.95
-5 -7 -14 2.88 0.57
-4 -8 14 4.92 0.98
-12 4 14 4.55 0.86
12 -4 14 5.27 0.64
8 4 -14 4.78 0.75
4 8 14 4.93 0.68
-4 12 -14 3.47 0.68
-8 -4 -14 4.56 0.73
8 -12 14 2.85 0.6
-12 8 14 1.94 0.7
4 8 -14 2.71 0.62
-12 8 14 2.09 0.81
-8 12 -14 2.59 0.62
8 4 14 2.36 0.56
-12 4 -14 2.81 0.72
12 -8 14 2.35 0.55
-8 -4 14 3.23 0.9
9 -12 14 0.13 0.47
-12 3 14 -0.93 0.65
-3 12 -14 -0.09 0.57
3 9 14 0.36 0.53
-3 -9 14 0.12 0.81
12 -3 14 0.33 0.47
9 3 -14 0.53 0.57
-9 -3 -14 0.1 0.52
9 3 14 0.72 0.48
12 -9 14 0.24 0.48
-12 3 -14 0.57 0.61
3 9 -14 0.42 0.54
-9 -3 14 0.59 0.74
-3 12 14 -0.37 0.36
-12 9 14 0.01 0.71
-12 9 14 -0.03 0.61
3 -12 14 0.01 0.54
-9 -3 14 0.6 0.34
-9 12 -14 0.42 0.54
-2 12 -14 2.41 0.6
12 -2 14 1.95 0.5
10 2 -14 2.18 0.64
10 -12 14 2.1 0.51
-12 2 14 1.55 0.73
-10 -2 -14 2.82 0.62
-2 -10 14 2.84 0.84
2 10 14 2.48 0.58
-12 10 14 1.31 0.73
-12 2 -14 1.28 0.6
12 -10 14 0.75 0.49
2 10 -14 1.17 0.54
-10 -2 14 1 0.7
10 2 14 1.54 0.51
12 -2 -14 1.51 0.67
2 -12 14 0.36 0.53
-10 12 -14 0.71 0.55
-10 -2 14 1.01 0.53
12 -1 14 2.42 0.49
11 -12 14 1.73 0.5
-1 -11 14 2.94 0.79
11 1 -14 1.58 0.58
-1 12 -14 2.17 0.59
-11 -1 -14 1.93 0.57
-12 1 14 1.88 0.68
-12 11 -14 1.92 0.58
-11 12 14 2.47 0.74
-11 -1 14 0.4 0.61
-11 12 -14 0.93 0.51
11 1 14 1.3 0.46
12 -1 -14 1.15 0.62
12 -11 14 0.96 0.51
1 -12 14 0.81 0.62
-12 1 -14 0.94 0.56
-12 11 14 1.18 0.77
1 11 -14 0.95 0.51
0 12 14 -0.41 0.32
12 0 14 -0.21 0.41
-12 0 -14 -0.46 0.51
-12 12 14 -0.32 0.68
-12 0 14 -0.41 0.58
-12 12 -14 0.32 0.53
0 -12 14 0.54 0.62
12 0 -14 -0.12 0.54
12 -12 14 0.09 0.45
0 12 -14 0.41 0.48
-7 -6 -14 1.15 0.5
-6 13 -14 1.29 0.58
7 6 -14 1.52 0.51
-6 -7 14 1 0.81
-13 6 14 1.91 0.73
13 -6 14 1.66 0.49
-13 7 -14 1.1 0.43
6 7 14 1.84 0.55
-13 6 -14 0.47 0.57
6 7 -14 0.75 0.49
-13 7 14 0.02 0.55
-7 -6 14 0.79 0.78
-13 7 14 0.52 0.66
7 6 14 0.94 0.53
-6 -7 -14 0.62 0.49
13 -7 14 1.5 0.5
-7 13 -14 0.53 0.56
8 -13 14 0.24 0.41
8 5 -14 0.27 0.53
-5 13 -14 0.02 0.56
-5 -8 14 -0.15 0.77
-8 -5 -14 -0.05 0.51
5 8 14 0.45 0.51
-13 5 14 -0.84 0.66
13 -5 14 0.19 0.45
-13 8 14 0.11 0.61
5 8 -14 0.72 0.48
-13 8 14 -0.72 0.63
-13 5 -14 -0.17 0.53
8 5 14 0.07 0.47
-8 13 -14 0.64 0.53
13 -8 14 0.19 0.46
-8 -5 14 -0.15 0.75
13 -4 14 11.31 1.04
9 -13 14 9.76 1.07
-4 -9 14 11.25 1.37
-13 4 14 8.32 1.36
4 9 14 12.44 1.1
-9 -4 -14 9.31 1.15
9 4 -14 10.92 1.15
-4 13 -14 11.53 1.17
-13 4 -14 9.34 1.13
-9 13 -14 7.88 0.98
13 -9 14 8.63 0.97
-9 -4 14 8.28 1.25
4 9 -14 6.97 0.89
9 4 14 9.42 0.92
-13 9 14 8.05 1.16
10 3 -14 2.32 0.58
10 -13 14 1.53 0.48
-13 3 14 0.83 0.68
-10 -3 -14 2.53 0.58
3 10 14 2 0.55
-3 -10 14 2.92 0.82
-3 13 -14 1.64 0.55
13 -3 14 2.03 0.47
-13 3 -14 0.72 0.56
3 10 -14 0.42 0.32
-10 13 -14 0.61 0.5
-10 -3 14 0.89 0.65
-13 10 14 0.69 0.68
13 -10 14 1.27 0.48
10 3 14 1.24 0.46
-13 2 14 -0.54 0.63
11 -13 14 -0.36 0.43
2 11 14 -0.15 0.35
-2 -11 14 0.81 0.68
-2 13 -14 0.22 0.51
-11 -2 -14 -0.08 0.5
13 -2 14 0.23 0.41
11 2 -14 0.29 0.51
13 -2 -14 0.27 0.59
-13 2 -14 -0.33 0.55
-13 11 14 0.1 0.67
-2 13 14 -0.29 0.31
-11 13 -14 0.08 0.47
13 -11 14 0.07 0.46
11 2 14 0.27 0.43
2 11 -14 0.52 0.42
-1 -12 14 3.52 0.73
13 -1 14 2.55 0.48
-13 1 14 2.33 0.69
12 -13 14 2.82 0.51
12 1 -14 2.03 0.49
-13 12 -14 1.09 0.37
-12 -1 -14 1.74 0.57
13 -12 14 1.38 0.48
13 -1 -14 1.34 0.56
-13 1 -14 1.53 0.56
12 1 14 1.19 0.45
-13 12 14 1.41 0.76
-12 13 -14 1.04 0.5
-12 -1 14 0.54 0.33
13 -13 14 0.18 0.44
-13 13 14 0.24 0.73
13 0 14 0.62 0.41
-13 0 -14 0.39 0.48
0 13 14 -0.24 0.37
13 0 -14 0.23 0.35
-13 0 14 0.28 0.42
-13 13 -14 0.22 0.43
14 -7 14 0.22 0.43
-14 7 -14 0.15 0.39
-7 -7 14 0.24 0.77
7 7 14 0.06 0.48
-7 14 -14 0.19 0.49
-14 7 14 -0.13 0.68
6 8 14 3.96 0.64
-6 -8 14 5.18 0.92
14 -6 14 3.69 0.58
-6 14 -14 3.64 0.61
-14 6 14 3.23 0.79
-8 14 -14 3.84 0.63
8 6 14 4.5 0.61
-8 -6 14 4.99 0.91
-14 8 14 3.03 0.78
14 -8 14 4.39 0.56
-14 6 -14 2.91 0.65
-5 -9 14 6.74 1.23
-5 14 -14 4.89 0.66
5 9 14 6.81 0.9
9 -14 14 3.79 0.59
14 -5 14 5.52 0.8
-14 5 14 5.27 0.88
-9 -5 -14 5.08 0.75
-9 14 -14 5.07 0.65
-14 9 14 2.82 0.7
-9 -5 14 2.53 0.74
9 5 14 4.13 0.59
-14 5 -14 4.5 0.71
-14 9 14 2.54 0.73
14 -9 14 3.76 0.58
-4 -10 14 4.44 0.87
4 10 14 3.36 0.58
14 -4 14 3.07 0.52
-4 14 -14 2.63 0.58
10 -14 14 3.22 0.56
-10 -4 -14 3.21 0.58
-14 4 14 3.68 0.79
-10 -4 14 2.22 0.66
-14 10 14 2.21 0.75
-14 4 -14 3.82 0.69
-10 14 -14 2.53 0.53
14 -10 14 3.72 0.55
14 -3 14 1.92 0.48
11 -14 14 1.74 0.5
-3 14 -14 1.03 0.42
-3 -11 14 2.18 0.75
-14 3 14 1.21 0.66
-11 -3 -14 1.57 0.52
14 -11 14 0.7 0.48
-14 11 14 0.84 0.72
-14 3 -14 0.43 0.59
11 3 14 0.89 0.46
14 -3 -14 0.93 0.66
-11 14 -14 0.4 0.52
-3 14 14 -0.32 0.36
-12 -2 -14 2.57 0.59
-14 2 14 3.09 0.74
14 -2 14 3.63 0.53
12 -14 14 3.01 0.54
-2 -12 14 3.05 0.71
-12 14 -14 1.09 0.52
-14 12 14 1.51 0.8
-14 2 -14 1.6 0.54
12 2 14 1.4 0.45
14 -12 14 2.18 0.51
14 -2 -14 1.4 0.55
-7 15 -14 2.14 0.53
-15 7 14 1.67 0.72
-7 -8 14 3.07 0.83
15 -7 14 2.3 0.52
7 8 14 1.97 0.52
-8 -7 14 2.89 0.81
-15 8 14 3.67 0.76
15 -8 14 2.84 0.55
8 7 14 3.94 0.58
-8 15 -14 3.07 0.6
-6 15 -14 0.88 0.5
15 -6 14 1.02 0.47
-6 -9 14 1.49 0.8
-15 6 14 0.93 0.69
6 9 14 1.46 0.54
15 -9 14 1.37 0.5
-9 15 -14 1.18 0.53
-15 9 14 1.43 0.61
-9 -6 14 1.18 0.73
9 6 14 1.52 0.49
15 -5 14 3.85 0.53
-5 15 -14 2.71 0.51
15 -10 14 6.34 0.84
-15 5 -14 6.08 0.94
10 5 14 6.29 0.82
-10 15 -14 6.02 0.92
-15 10 14 3.86 0.78
-15 4 14 5.15 0.84
-4 -11 14 5.38 0.89
11 -15 14 3.34 0.53
15 -4 14 4.14 0.55
11 4 14 3.09 0.55
15 -4 -14 3.44 0.7
15 -11 14 3.6 0.54
-11 15 -14 3.01 0.6
-15 11 14 3.27 0.82
0 0 -15 -0.24 0.95
0 0 -15 -0.51 0.67
0 0 15 0.27 0.92
1 0 15 8.85 1.61
1 -1 15 9.18 1.65
0 -1 15 8.8 1.56
0 1 15 8.67 1.56
1 0 -15 8.27 1.3
-1 0 15 9.18 1.67
-1 1 -15 5.89 0.98
1 -1 -15 6.21 0.98
-1 1 15 10.03 1.66
0 1 -15 9.11 1.31
2 -1 -15 4.57 0.89
-1 2 -15 2.84 0.75
1 1 -15 2.73 0.77
-2 1 -15 2.25 0.6
-2 1 15 5.22 1.11
2 -2 15 2.01 0.99
2 0 15 0.94 0.92
2 -2 -15 -0.19 0.8
-2 2 -15 0.24 0.69
2 -2 -15 1.09 0.74
0 2 -15 0.61 0.69
-2 2 15 1.32 0.95
-2 0 15 1.65 0.98
0 -2 15 1.75 0.97
0 2 15 1.96 0.92
0 -2 -15 -0.32 0.67
2 0 -15 0.73 0.73
3 -1 15 0.69 0.87
2 -3 15 0.47 0.93
-3 2 -15 -0.05 0.59
2 1 -15 -0.19 0.66
-3 1 15 0.56 0.97
-1 3 -15 0.02 0.65
-1 -2 15 0.78 0.9
3 -2 -15 -0.23 0.69
1 2 15 0.37 0.83
-2 3 15 0.72 0.97
2 1 15 0.82 0.85
1 -3 15 1.12 0.94
3 -1 -15 0.51 0.7
2 -3 -15 0.37 0.42
-3 2 15 0.66 1.01
-2 -1 15 1.81 0.99
-1 3 15 1.04 0.87
1 2 -15 -0.02 0.65
-1 -2 -15 -0.35 0.86
3 -2 15 1.81 0.97
-2 3 -15 0.23 0.68
3 0 -15 -0.07 0.68
-3 3 -15 0.42 0.73
3 0 15 0.71 0.88
0 3 15 1.15 0.88
-3 0 15 1.2 0.98
0 3 -15 0.49 0.65
3 -3 -15 0.32 0.66
0 -3 15 -0.28 0.88
3 -3 15 1.35 0.95
-3 3 15 0.86 0.95
-2 -2 15 0.13 0.96
2 2 -15 0.28 0.66
-4 2 15 0.84 0.94
-2 4 -15 -0.21 0.65
4 -2 15 0.57 0.9
2 2 15 0.04 0.81
-2 4 15 0.97 0.89
4 -2 -15 -0.21 0.62
2 -4 15 0.03 0.91
4 -2 15 -0.41 0.39
-4 3 -15 8.74 1.18
-1 -3 15 10.19 1.66
3 1 -15 7.63 1.29
-3 4 15 9.73 1.53
4 -1 15 11.41 1.59
-4 1 15 11.81 1.74
1 3 15 10 1.55
3 -4 15 10.28 1.64
-1 4 -15 7.95 1.14
4 -3 -15 9.11 1.27
-3 4 -15 9.39 1.4
3 1 15 12.56 1.62
-1 4 15 12.57 1.67
-3 -1 15 11.63 1.8
1 -4 15 11.85 1.75
4 -1 -15 9.78 1.31
4 -3 15 12.48 1.68
-4 3 15 11.1 1.71
1 3 -15 10.69 1.3
-4 0 15 6.84 1.2
0 4 -15 4.14 0.79
4 0 15 6.95 1.15
4 -4 15 5.43 1.1
-4 4 -15 3.62 0.83
4 0 -15 5.52 0.91
0 4 15 6.49 1.08
0 -4 15 5.8 1.14
-4 4 15 6.23 1.13
2 3 15 7.09 1.35
-2 -3 15 7.07 1.2
5 -2 15 4.89 0.8
-2 5 -15 4.15 0.83
-3 5 15 4.86 1.01
-5 2 15 5.94 1.14
5 -2 15 7.59 1.17
3 2 -15 6.03 0.87
3 -5 15 4.66 1.08
5 -3 -15 5.29 0.94
2 3 -15 3.99 0.76
-5 3 15 5.24 1.14
-2 5 15 3.77 0.95
5 -2 -15 1.96 0.74
2 -5 15 5.52 1.1
-3 5 -15 3.74 0.8
5 -3 15 4.38 1.05
-3 -2 15 7.14 1.22
5 -3 15 4.07 0.71
5 -1 15 3.22 0.72
-1 5 -15 2.45 0.73
-5 1 15 5.22 1.1
4 -5 15 4.34 1.05
-5 4 -15 2.47 0.7
-1 -4 15 4.45 1.07
5 -4 -15 2.65 0.79
4 1 -15 2.98 0.74
-4 5 15 3.18 0.94
5 -1 15 4.97 1
1 4 -15 2.64 0.67
5 -4 15 5.03 1.07
-4 5 -15 4.29 0.8
5 -1 -15 2.61 0.71
-1 5 15 4.12 0.98
4 1 15 3.47 0.68
5 -4 15 1.95 0.52
-5 4 15 3.56 1.03
-5 5 -15 4.46 0.88
5 0 -15 6.91 1.08
-5 5 15 5.65 1.1
0 -5 15 9.5 1.29
5 -5 15 8.12 1.52
5 -5 -15 6.23 1.03
0 5 -15 7.09 0.89
5 0 15 7.62 1.43
5 0 15 6.15 0.87
0 5 15 7.82 1.39
-5 0 15 10.06 1.38
3 3 15 0.03 0.76
-6 3 15 0.4 0.99
-3 6 15 -0.08 0.76
-6 3 -15 -0.1 0.64
6 -3 15 -0.4 0.9
-3 6 -15 -0.21 0.64
3 3 -15 -0.36 0.59
3 -6 15 0.59 0.92
6 -3 -15 -0.22 0.68
-3 -3 15 0.82 0.97
6 -3 15 -0.5 0.59
3 3 15 0.16 0.43
2 4 15 16.96 1.79
4 -6 15 17.25 1.89
-4 6 15 14.81 1.8
6 -2 15 18.23 1.88
-2 6 -15 16.64 1.58
-6 2 15 18.38 2
-6 4 -15 15.26 1.62
6 -4 -15 16.47 1.64
-2 -4 15 16.7 1.96
4 2 -15 17.75 1.6
6 -2 15 17.19 1.57
2 4 -15 14.97 1.44
4 2 15 16.19 1.77
-6 4 15 16.13 1.89
-2 6 15 12.71 1.67
2 -6 15 17.14 1.87
6 -2 -15 14.47 1.55
-6 2 -15 16.58 1.64
6 -4 15 16.14 1.83
4 2 15 16.77 1.49
-4 6 -15 15.31 1.52
6 -4 15 14.78 1.46
-4 -2 15 16.83 1.99
6 -5 -15 5.29 0.93
1 5 15 8.1 1.09
-6 1 15 8.7 1.28
-6 5 -15 5.35 0.87
-5 6 15 5.66 1.05
5 -6 15 6.56 1.15
5 1 -15 5.95 0.86
6 -1 15 6.38 1.08
-6 5 -15 4.45 0.84
-1 6 -15 6.33 0.86
6 -1 15 4.45 0.79
1 -6 15 7.87 1.22
1 5 -15 6.52 0.98
6 -5 15 7.95 1.5
5 1 15 6.61 0.86
-1 6 15 6.48 1.09
5 1 15 8.23 1.15
-5 6 -15 6.85 0.95
-6 1 -15 7.28 0.95
-6 5 15 6.53 1.17
6 -1 -15 4.82 0.87
-5 -1 15 9.5 1.71
-6 0 15 0.93 0.95
0 6 15 0.79 0.85
-6 6 15 0.78 0.77
6 -6 15 0.37 0.5
-6 0 -15 0.28 0.63
6 0 15 1.06 0.57
6 0 -15 0.29 0.6
-6 6 -15 0.88 0.69
0 6 -15 0.49 0.58
-6 6 -15 0.87 0.55
6 -6 15 1.75 0.95
6 0 15 0.27 0.86
6 -6 -15 0.42 0.47
0 -6 15 0.66 0.93
-4 7 15 9.08 1.44
3 4 15 12.45 1.61
-4 -3 -15 13.4 1.36
-7 4 -15 11.08 1.37
7 -3 15 12.61 1.63
7 -4 -15 10.61 1.41
-3 7 -15 12.47 1.3
-3 -4 15 12.05 1.57
7 -3 15 11.69 1.27
4 3 -15 12.18 1.35
-7 3 15 12.26 1.77
4 -7 15 13.31 1.64
3 4 15 10.38 1.16
3 -7 15 12.53 1.66
4 3 15 12.38 1.6
7 -3 -15 11.44 1.39
-4 -3 15 13.22 1.63
7 -4 15 11.1 1.61
-7 4 15 13.01 1.69
4 3 15 12.86 1.28
-7 3 -15 11.83 1.37
7 -4 15 10.94 1.24
-3 7 15 9.98 1.54
-4 7 -15 10.36 1.28
3 4 -15 10.81 1.24
7 -2 15 1.71 0.9
7 -5 -15 0.5 0.71
7 -2 15 1.53 0.6
5 -7 15 2.17 0.94
-7 5 -15 0.38 0.39
-2 7 -15 1.57 0.68
-5 7 15 1.7 0.81
5 2 -15 0.74 0.62
-7 5 -15 0.63 0.67
-5 -2 -15 1.32 0.66
-2 -5 15 1.85 0.83
-7 2 15 1.64 0.99
5 2 15 5.01 1.03
-7 5 15 1.82 0.84
-5 7 -15 3.49 0.77
-7 2 -15 3.73 0.81
7 -2 -15 2.29 0.73
-2 7 15 2.85 0.87
-5 -2 15 4.98 1.14
2 -7 15 4.42 1.05
5 2 15 3.07 0.67
2 5 -15 2.87 0.63
7 -5 15 2.35 0.95
7 -5 15 2.37 0.62
7 -6 -15 21.36 1.95
-6 -1 -15 24.49 1.93
-7 6 -15 21.38 1.87
7 -1 15 23.31 2.11
6 1 -15 23.77 1.91
-7 1 15 25.59 2.27
6 -7 15 23.49 2.08
-1 7 -15 21.86 1.88
7 -1 15 22.04 1.82
-7 6 -15 19.71 1.85
-1 -6 15 24.14 2.15
7 -6 15 23.24 1.97
7 -1 -15 24.83 2.06
1 6 -15 24.43 2.04
-7 1 -15 28.13 2.16
6 1 15 26.11 2.04
-6 7 -15 26.56 2.16
1 -7 15 26.62 2.37
-6 -1 15 28.02 2.42
7 0 -15 5.58 0.78
7 0 15 4.37 0.68
-7 7 -15 2.45 0.72
-7 0 -15 3.84 0.76
7 -7 15 3.42 0.65
0 7 -15 5.32 0.77
0 -7 15 3.45 0.95
-7 0 15 5.63 1.11
8 -4 15 0 0.54
8 -4 15 -0.11 0.75
-4 8 15 0.41 0.77
4 4 15 0.82 0.59
4 4 -15 0.43 0.6
8 -4 -15 -0.05 0.67
-4 8 -15 0.41 0.59
-4 -4 15 0.16 0.79
-8 4 -15 0.44 0.65
-4 -4 -15 0.57 0.59
-8 4 15 -0.3 0.59
4 -8 15 0.99 0.9
8 -3 15 11.44 1.22
-3 8 -15 11.04 1.21
8 -5 -15 10.37 1.45
5 3 -15 12.63 1.3
-8 5 -15 11.44 1.36
8 -3 15 11.59 1.58
-3 -5 15 12.02 1.57
-5 -3 -15 12.21 1.27
3 5 15 12.54 1.19
5 -8 15 11.79 1.53
-8 3 15 11.2 1.58
8 -5 15 14.16 1.34
3 -8 15 16.27 1.82
8 -3 -15 14.36 1.52
-5 8 -15 13.69 1.46
-3 -5 -15 14.55 1.42
5 3 15 14.74 1.41
-5 -3 15 16.61 1.8
-8 3 -15 15.6 1.49
3 5 -15 15.32 1.39
-6 -2 -15 9.56 1.15
8 -2 15 8.89 1.07
-2 8 -15 8.08 1.09
-2 -6 15 9.17 1.42
8 -6 -15 7.98 1.1
-8 2 15 9.93 1.58
-8 6 -15 7.28 1.11
6 2 -15 9.59 1.18
2 -8 15 8.79 1.49
2 6 -15 8.23 1.03
-6 8 -15 8.76 1.2
8 -2 -15 9.53 1.24
8 -6 15 8.8 1.07
-2 -6 -15 9.27 1.17
6 2 15 9.67 1.1
-8 2 -15 8.64 1.23
-6 -2 15 11.23 1.63
8 -7 -15 4.54 0.86
8 -1 15 6.61 0.93
-8 1 15 6.5 1.11
-1 8 -15 6.24 0.97
-8 7 -15 4.67 0.78
-7 -1 -15 6.65 1.04
7 -8 15 4.49 0.68
7 1 -15 6.59 1.01
8 -1 -15 8.13 1.14
-7 -1 15 7.99 1.46
8 -7 15 6.91 0.81
-1 -7 -15 7.4 1.09
7 1 15 6.22 0.99
1 -8 15 9.24 1.23
1 7 -15 6.89 1.03
-8 1 -15 6.64 1.13
-7 8 -15 6.59 1.07
0 8 -15 8.71 1.1
8 0 -15 10.48 1.11
-8 0 15 10.26 1.55
0 -8 -15 9.31 1.12
8 -8 15 8.34 1.03
8 0 15 10.08 1.08
0 -8 15 8.96 1.38
-8 0 -15 8.84 1.14
-8 8 -15 10.12 1.19
-9 5 -15 7.54 1.09
4 5 15 8.23 1.05
-4 -5 15 8.48 1.41
-4 9 -15 8.3 1.09
9 -4 15 8.12 1.06
5 4 -15 9.06 1.12
-5 -4 -15 7.58 1.12
9 -5 15 8.53 1.01
-5 -4 15 9.16 1.44
-5 9 -15 8.38 1.09
-9 4 -15 7.12 1.13
9 -4 -15 7.25 1.03
4 -9 15 8.87 1.3
4 5 -15 7.98 1.06
-4 -5 -15 7.88 1.18
5 4 15 9.49 1.08
-6 -3 -15 0.35 0.57
-9 3 15 -0.84 0.64
3 6 15 0.3 0.5
6 3 -15 0.3 0.61
-3 -6 15 -0.1 0.76
9 -3 15 0.23 0.53
-9 6 -15 0.07 0.52
-3 9 -15 0.18 0.54
3 6 -15 -0.03 0.51
6 3 15 0.37 0.52
9 -3 -15 0.24 0.65
-9 3 -15 0.43 0.63
-6 9 -15 -0.05 0.58
3 -9 15 0.55 0.81
-3 -6 -15 -0.21 0.56
-6 -3 15 -0.22 0.85
9 -6 15 0.26 0.49
7 -9 15 9.81 1.07
-2 9 -15 13.12 1.24
-9 2 15 9.75 1.42
7 2 -15 14.87 1.36
9 -2 15 15.67 1.25
-7 -2 -15 13.25 1.33
-2 -7 15 13.52 1.57
9 -7 15 12.69 1.28
-7 -2 15 15.71 1.75
-2 -7 -15 14.32 1.39
2 -9 15 15.02 1.7
7 2 15 14.53 1.3
9 -2 -15 15.83 1.48
2 7 -15 14.71 1.35
-9 2 -15 14.6 1.44
-7 9 -15 13.45 1.38
-8 -1 -15 6.22 1.01
9 -1 15 7.59 0.92
8 -9 15 4.3 0.69
-9 8 -15 6.55 0.86
8 1 -15 7.14 1.09
-9 1 15 5.21 0.93
-1 9 -15 6.99 0.95
-9 1 15 7.03 0.95
-1 -8 15 6.62 1.27
-8 9 -15 7.93 1.05
1 -9 15 8.13 1.4
9 -8 15 6.67 0.95
1 8 -15 7.52 1.05
-8 -1 15 9.18 1.47
-9 1 -15 8.26 1.08
9 -1 -15 9.15 1.14
-1 -8 -15 6.14 0.89
8 1 15 10.08 1.04
-9 0 -15 0.62 0.55
-9 9 -15 0.36 0.53
9 -9 15 0.63 0.47
-9 0 15 0.85 0.78
9 0 15 0.83 0.5
0 9 -15 0.93 0.58
9 0 -15 0.47 0.57
0 -9 15 0.37 0.78
5 5 15 0.43 0.55
10 -5 15 0.41 0.5
-5 -5 15 0.16 0.78
-5 -5 -15 0.58 0.57
-10 5 -15 0.29 0.57
-5 10 -15 0.28 0.54
5 5 -15 0.46 0.57
6 4 -15 0.45 0.58
-10 4 15 -0.13 0.64
10 -4 15 0.17 0.5
4 6 15 0.45 0.54
-4 -6 15 0.51 0.77
-4 10 -15 0.21 0.52
-6 -4 -15 0.27 0.56
-10 6 -15 0.09 0.49
-6 -4 15 0.21 0.79
-10 6 15 0 0.46
4 -10 15 -0.28 0.46
6 4 15 0.65 0.53
10 -4 -15 -0.47 0.62
10 -6 15 0.59 0.5
-6 10 -15 -0.17 0.5
-4 -6 -15 -0.1 0.54
4 6 -15 0.3 0.54
-10 4 -15 0.19 0.55
7 3 -15 0.79 0.62
7 -10 15 -0.15 0.34
10 -3 15 0.62 0.51
3 7 15 0.51 0.47
-3 -7 15 0.33 0.77
-7 -3 -15 0.02 0.54
-10 3 15 -0.84 0.6
-3 10 -15 0.21 0.54
3 -10 15 1.73 0.69
-7 -3 15 1.93 0.87
10 -3 -15 1.2 0.64
-7 10 -15 1.71 0.59
10 -7 15 2.81 0.58
-10 7 15 0.33 0.63
3 7 -15 1.6 0.59
7 3 15 2.33 0.54
-10 3 -15 2.25 0.66
-3 -7 -15 1.27 0.55
8 -10 15 -0.22 0.42
-8 -2 -15 -0.11 0.53
-10 2 15 -0.47 0.59
8 2 -15 0.58 0.64
-2 10 -15 -0.29 0.52
10 -2 15 0.19 0.45
-2 -8 15 -0.06 0.73
8 2 15 0.68 0.5
2 -10 15 -0.07 0.74
10 -8 15 -0.18 0.47
-8 10 -15 0.08 0.5
-2 -8 -15 0.31 0.43
10 -2 -15 -0.02 0.59
-8 -2 15 0.34 0.78
2 8 -15 0.26 0.57
-10 2 -15 -0.13 0.53
-1 10 -15 4.45 0.7
-10 1 15 3.32 0.79
10 -1 15 5.27 0.66
-1 -9 15 3.71 0.87
9 1 -15 5.51 0.81
-9 -1 -15 4.89 0.73
-9 -1 15 4.68 0.92
10 -1 -15 3.85 0.68
1 9 -15 4.61 0.7
9 1 15 5.63 0.69
1 -10 15 3.59 0.86
-9 10 -15 3.75 0.66
10 -9 15 2.86 0.56
-10 1 -15 6.23 0.82
0 -10 15 6.63 1.12
-10 0 -15 6.13 0.92
-10 10 -15 5.42 0.85
0 10 -15 6.69 0.95
10 -10 15 5.58 0.84
10 0 15 6.77 0.83
10 0 -15 6.89 1
5 6 15 0.89 0.53
-11 6 -15 1.27 0.53
11 -5 15 0.8 0.5
-5 -6 15 -0.32 0.76
-11 5 15 -0.33 0.67
6 5 -15 0.9 0.54
-6 -5 -15 0.47 0.49
-5 11 -15 0.53 0.51
6 5 15 0.31 0.48
5 6 -15 0.8 0.51
11 -6 15 0.23 0.47
-5 -6 -15 -0.11 0.47
-6 11 -15 -0.13 0.51
-6 -5 15 0.32 0.76
-11 5 -15 0.77 0.57
4 7 15 0.68 0.51
11 -4 15 0.61 0.49
-7 -4 -15 -0.06 0.51
-4 11 -15 0.73 0.54
-11 4 15 0 0.6
7 4 -15 0.39 0.59
-4 -7 15 0.46 0.78
-7 11 -15 0.04 0.47
-11 4 -15 0.79 0.54
-7 -4 15 0.56 0.77
11 -7 15 0.1 0.48
-11 7 15 0.07 0.4
4 7 -15 0.76 0.5
7 4 15 0.54 0.49
-4 -7 -15 0.53 0.34
11 -4 -15 -0.03 0.63
11 -3 15 0.39 0.46
8 -11 15 -0.03 0.28
3 8 15 0.36 0.4
-3 -8 15 -0.04 0.71
-3 11 -15 -0.05 0.52
-11 3 15 -1.04 0.59
-8 -3 -15 -0.15 0.48
8 3 -15 0.34 0.59
8 3 15 0.7 0.49
-8 11 -15 0.42 0.48
-11 8 15 0.09 0.6
3 8 -15 0.52 0.52
11 -8 15 0.65 0.5
11 -3 -15 0.41 0.6
-11 3 -15 0.5 0.58
-8 -3 15 0.66 0.73
11 -2 15 1.24 0.48
9 -11 15 0.75 0.44
-11 2 15 0.59 0.61
9 2 -15 2.06 0.66
-2 -9 15 1.5 0.77
-9 -2 -15 1.18 0.51
-2 11 -15 2.05 0.61
-9 -2 15 0.9 0.71
11 -9 15 1.82 0.52
2 9 -15 1.32 0.52
-9 11 -15 0.84 0.45
-11 2 -15 1.6 0.58
9 2 15 1.97 0.51
11 -2 -15 1.37 0.63
-10 -1 -15 1.49 0.57
10 1 -15 1.51 0.63
-1 11 -15 1.57 0.57
-1 -10 15 2.08 0.76
11 -1 15 2.2 0.48
10 -11 15 1.13 0.48
-11 1 15 1.04 0.63
10 1 15 1.61 0.5
1 10 -15 1.09 0.53
1 -11 15 1.12 0.62
11 -10 15 0.98 0.51
11 -1 -15 1.63 0.62
-11 1 -15 1.76 0.61
-10 11 -15 1.34 0.51
0 11 -15 0.47 0.52
11 0 15 0.53 0.46
11 -11 15 0.43 0.47
11 0 -15 0.93 0.61
-11 11 -15 0.67 0.33
0 -11 15 0.7 0.64
-11 0 -15 0.01 0.55
12 -6 15 2.16 0.54
-6 12 -15 1.87 0.55
6 6 15 1.16 0.49
-6 -6 -15 0.88 0.36
6 6 -15 1.1 0.53
-12 6 -15 0.98 0.39
-6 -6 15 1.58 0.79
7 5 -15 0.49 0.5
-5 12 -15 0.15 0.53
12 -5 15 0.81 0.46
5 7 15 0.53 0.51
-7 -5 -15 0.31 0.46
-12 5 15 -0.75 0.65
-5 -7 15 0.42 0.77
7 5 15 0.34 0.53
-7 12 -15 0.56 0.5
-12 5 -15 0.53 0.54
-7 -5 15 0.5 0.77
12 -5 -15 0.06 0.67
12 -7 15 0.81 0.49
5 7 -15 0.32 0.52
8 4 -15 0.51 0.54
-4 12 -15 0.28 0.53
-8 -4 -15 0.38 0.51
-4 -8 15 0.51 0.74
-12 4 15 -0.74 0.62
4 8 15 0.74 0.45
12 -4 15 0.48 0.41
-12 8 15 -0.22 0.36
4 8 -15 0.1 0.53
12 -4 -15 0.2 0.6
-8 -4 15 -0.05 0.65
-12 4 -15 -0.1 0.55
12 -8 15 0 0.47
8 4 15 0.46 0.48
-8 12 -15 0.51 0.49
-3 -9 15 0.9 0.74
3 9 15 0.28 0.41
-9 -3 -15 0.14 0.51
-12 3 15 -0.96 0.62
-3 12 -15 0.06 0.54
12 -3 15 0.54 0.46
9 3 -15 0.52 0.53
9 -12 15 -0.18 0.26
-12 9 15 -0.49 0.53
12 -9 15 0.46 0.49
12 -3 -15 0.48 0.63
-9 -3 15 0.31 0.64
9 3 15 0.57 0.49
-9 12 -15 0.56 0.5
-12 3 -15 0.31 0.6
3 9 -15 0.66 0.45
-2 -10 15 1.18 0.72
10 2 -15 0.73 0.57
-2 12 -15 0.72 0.55
-10 -2 -15 0.76 0.53
-12 2 15 0.23 0.61
10 -12 15 0.54 0.41
12 -2 15 0.54 0.45
-10 12 -15 1.02 0.48
-12 2 -15 0.91 0.59
12 -2 -15 1.51 0.62
12 -10 15 1.11 0.49
10 2 15 1.09 0.49
2 10 -15 0.97 0.41
11 1 -15 1.69 0.58
11 -12 15 1.51 0.48
12 -1 15 2.45 0.51
-1 12 -15 1.72 0.47
-1 -11 15 2.57 0.73
-11 -1 -15 2.45 0.6
12 -1 -15 2.37 0.67
-11 12 -15 1.3 0.44
-12 1 -15 1.15 0.61
12 -11 15 1.58 0.53
11 1 15 2.03 0.51
-6 -7 15 0.69 0.68
6 7 15 0.91 0.54
-6 13 -15 0.3 0.52
7 6 -15 0.26 0.33
13 -6 15 0.64 0.48
-7 -6 15 0.41 0.75
13 -7 15 0.14 0.49
-7 13 -15 0.38 0.47
7 6 15 0.66 0.51
13 -6 -15 -0.1 0.64
-5 13 -15 0.05 0.48
-8 -5 -15 0.36 0.28
5 8 15 0.36 0.49
8 5 -15 0.11 0.29
-13 5 15 -1.14 0.62
13 -5 15 0.13 0.44
-5 -8 15 -0.09 0.73
-8 -5 15 0.24 0.75
13 -8 15 -0.32 0.44
8 5 15 -0.26 0.48
-13 5 -15 0.24 0.48
-8 13 -15 0.25 0.47
13 -5 -15 0.17 0.62
-9 -4 -15 0.23 0.38
13 -4 15 0.13 0.46
4 9 15 0.31 0.28
-4 13 -15 0.23 0.55
-13 4 15 -0.71 0.63
-4 -9 15 0.42 0.73
-13 4 -15 0.73 0.59
-9 -4 15 0.01 0.56
-9 13 -15 0.1 0.49
13 -4 -15 0.32 0.64
9 4 15 0.47 0.49
13 -9 15 0.36 0.48
-13 9 15 -0.07 0.38
-3 -10 15 2.14 0.81
-3 13 -15 1.5 0.51
13 -3 15 1.22 0.49
-10 13 -15 2.51 0.57
13 -10 15 2.02 0.53
13 -3 -15 2.16 0.65
10 3 15 2.73 0.53
0 0 -16 -0.08 0.48
0 0 16 0.53 0.84
-1 1 16 0.99 0.87
-1 1 -16 0.34 0.55
1 0 16 0.46 0.77
-1 0 16 1.17 0.87
1 -1 -16 0.05 0.44
1 0 -16 -0.47 0.61
0 1 -16 0.09 0.59
0 -1 16 0.62 0.86
0 1 16 1.24 0.81
1 -1 16 0.68 0.85
1 1 -16 0.36 0.6
-1 2 -16 -0.27 0.61
-2 1 16 0.84 0.88
-1 2 16 0.79 0.79
2 -1 -16 0.19 0.62
-1 -1 16 0.59 0.9
1 -2 16 0.75 0.85
1 1 16 0.75 0.8
2 -1 16 0.65 0.78
2 -2 -16 0.39 0.37
-2 0 16 1.36 0.92
0 2 16 1.13 0.82
0 -2 16 1.17 0.86
-2 2 -16 0.24 0.6
2 -2 16 1.33 0.87
2 0 -16 0.26 0.64
0 2 -16 0.47 0.62
-2 2 16 1.27 0.88
2 0 16 1.14 0.82
-2 3 16 3.72 0.98
-3 1 16 6.1 1.11
3 -1 16 5.03 0.98
2 -3 16 5 1.04
-1 3 -16 3.49 0.77
1 2 16 5.76 0.98
-1 -2 16 5.32 1.05
-3 2 16 6.24 1.17
-2 -1 16 7.59 1.19
3 -2 16 6.46 1.08
2 1 16 6.13 1.02
-1 3 16 4.96 1.04
1 -3 16 7.73 1.17
0 -3 16 0.55 0.85
0 3 -16 -0.4 0.59
-3 3 16 1.17 0.85
3 0 -16 -0.31 0.61
3 0 16 0.94 0.81
3 -3 -16 0.33 0.35
3 -3 16 0.83 0.87
0 3 16 1.02 0.78
-3 3 -16 0.61 0.59
-3 0 16 0.59 0.93
-2 4 -16 -0.12 0.59
2 2 16 0.68 0.75
-2 4 16 0.09 0.82
4 -2 -16 -0.31 0.6
2 2 -16 -0.26 0.55
-4 2 16 0.64 0.88
2 -4 16 0.49 0.85
-2 -2 16 0.89 0.88
4 -2 16 0.92 0.81
1 3 16 12.42 1.45
-3 4 16 10.84 1.53
4 -1 16 10.73 1.5
3 1 -16 10.56 1.24
4 -3 -16 9.79 1.25
3 -4 16 11.95 1.6
-4 1 16 15.1 1.78
-1 4 -16 9.28 1.23
-1 -3 16 10.7 1.55
4 -1 -16 10.17 1.34
-3 4 -16 10.26 1.29
-1 4 16 13.52 1.58
4 -3 16 12.03 1.6
1 3 -16 10.74 1.2
-3 -1 16 13.23 1.69
1 -4 16 12.46 1.64
-4 3 16 13.07 1.68
3 1 16 13.18 1.47
0 4 16 3.11 0.85
-4 4 16 3.18 0.92
-4 0 -16 4.5 0.77
-4 0 16 4.24 1.05
4 0 16 3.62 0.88
4 -4 16 3.43 0.94
-4 4 -16 2.03 0.64
0 4 -16 2.6 0.64
4 0 -16 1.74 0.68
0 -4 16 5.03 1.01
3 2 -16 0.94 0.57
-2 5 -16 0.87 0.59
5 -3 -16 1.1 0.64
-3 5 16 1.31 0.78
-2 -3 16 2.58 0.92
3 -5 16 1.66 0.85
-5 3 -16 1.41 0.63
-5 2 16 2.13 0.96
2 3 16 1.8 0.79
5 -2 16 1.28 0.83
3 2 16 3.72 0.91
-2 5 16 2.83 0.83
2 3 -16 1.35 0.58
-3 -2 16 3.19 0.98
-3 5 -16 2.26 0.65
2 -5 16 3.06 0.97
-5 2 -16 2.77 0.72
5 -3 16 3.06 0.96
-5 3 16 3.12 1.04
5 -2 -16 1.09 0.67
4 -5 16 1.05 0.91
1 4 16 1.9 0.82
5 -4 -16 0.45 0.53
-5 4 -16 0.98 0.59
-4 5 16 0.99 0.8
5 -1 16 1.67 0.8
-1 -4 16 2.45 0.93
-4 -1 -16 1.32 0.66
-1 5 -16 1.27 0.59
4 1 -16 1.02 0.57
-5 4 -16 0.55 0.53
-5 1 16 1.17 0.88
5 -1 16 -0.12 0.38
-5 4 16 0.97 0.83
-5 1 -16 0.64 0.64
-4 5 -16 0.44 0.59
-4 -1 16 1.61 0.93
1 -5 16 0.95 0.84
-1 5 16 1.64 0.83
-4 5 -16 1.45 0.53
4 1 16 1.4 0.79
5 -4 16 1.36 0.85
1 4 -16 1 0.57
5 -1 -16 0.75 0.62
-5 5 -16 1.71 0.61
-5 5 -16 2 0.62
-5 0 16 2.73 0.91
0 5 16 2.78 0.86
5 -5 16 1.9 0.88
-5 0 -16 1.66 0.66
0 5 -16 1.41 0.6
5 0 -16 1.47 0.63
0 -5 16 2.83 0.9
5 0 16 2.99 0.84
-5 5 16 2.09 0.89
6 -3 16 3.66 0.94
3 -6 16 3.68 0.96
-6 3 -16 2.89 0.7
-3 -3 -16 4.98 0.76
-3 6 -16 3.81 0.69
6 -3 -16 2.68 0.72
-3 6 16 4.46 0.91
-6 3 16 2.91 0.99
-3 -3 16 5.71 1.01
3 3 -16 4.11 0.69
6 -2 16 3.65 0.92
4 2 -16 3.39 0.66
-2 -4 16 4.6 1.01
-6 4 -16 2.3 0.68
6 -4 -16 2.16 0.69
-6 2 16 3.45 0.99
6 -2 16 2.33 0.52
-4 6 16 3.08 0.86
-2 6 -16 3 0.63
-4 -2 -16 4.01 0.71
4 -6 16 4.01 0.96
-2 6 16 2.99 0.85
6 -2 -16 2.48 0.69
-6 2 -16 3.01 0.74
2 4 -16 3.15 0.61
-4 -2 16 3.99 1.01
-6 4 16 3.36 0.93
6 -4 16 3.3 0.93
2 -6 16 3.02 0.9
-4 6 -16 1.81 0.65
5 1 -16 1.32 0.61
-6 5 -16 0.87 0.52
-6 1 16 1.08 0.91
-1 6 -16 0.59 0.54
6 -5 -16 0.42 0.42
5 -6 16 1.56 0.84
6 -1 16 2.04 0.87
-5 6 16 1.03 0.75
-1 -5 16 1.99 0.89
-5 -1 -16 1.86 0.63
6 -1 16 0.88 0.47
6 -1 -16 0.84 0.61
-6 5 16 1.2 0.74
1 5 -16 2.51 0.61
5 1 16 0.42 0.41
-5 -1 16 2.79 1.01
6 -5 16 0.9 0.82
1 -6 16 2.34 0.86
-5 6 -16 1.31 0.61
-6 1 -16 1.5 0.64
-6 6 -16 -0.12 0.46
6 0 -16 0.12 0.58
-6 0 -16 0.26 0.58
0 -6 16 0.24 0.83
-6 0 16 0.88 0.81
0 6 -16 0.25 0.55
-6 6 16 0.18 0.58
6 0 16 0.21 0.48
6 -6 16 0.07 0.65
-4 7 16 0.56 0.77
-3 7 -16 0.63 0.54
7 -3 16 0.06 0.47
4 -7 16 0.39 0.79
4 3 -16 0.74 0.54
-4 -3 -16 0.52 0.54
-7 4 -16 0.45 0.56
7 -3 16 0.34 0.75
-3 -4 16 0.54 0.87
-7 3 16 1.19 0.87
7 -4 -16 0.2 0.54
-7 3 -16 0.89 0.59
-4 -3 16 1.83 0.88
-3 -4 -16 0.99 0.57
-7 4 16 -0.14 0.56
7 -4 16 0.17 0.68
-4 7 -16 0.51 0.54
7 -3 -16 0.66 0.63
7 -4 16 0.79 0.46
3 -7 16 0.33 0.79
3 4 -16 0.38 0.51
-7 5 -16 0.52 0.51
5 2 -16 -0.06 0.53
5 -7 16 0.09 0.65
7 -5 -16 -0.15 0.51
-2 -5 16 -0.15 0.82
-5 7 16 0.3 0.54
-2 7 -16 -0.39 0.49
7 -2 16 0.03 0.47
-7 2 16 0 0.86
-5 -2 -16 -0.19 0.57
-5 -2 16 0.15 0.87
-2 -5 -16 0.25 0.55
5 2 16 0.36 0.4
-7 2 -16 0.05 0.59
7 -2 -16 -0.34 0.59
-5 7 -16 -0.45 0.55
7 -5 16 0.21 0.4
2 -7 16 0.15 0.76
2 5 -16 -0.39 0.51
7 -5 16 0.04 0.49
-6 -1 -16 0.84 0.58
6 1 -16 0.07 0.57
7 -1 16 0.15 0.48
-1 7 -16 0.77 0.54
-1 -6 16 1.6 0.82
-7 1 16 1.13 0.89
1 6 -16 0.56 0.55
-7 1 -16 0.63 0.6
1 -7 16 0.85 0.79
7 -1 -16 0.47 0.56
7 -6 16 -0.37 0.33
-6 -1 16 0.79 0.81
-6 7 -16 0.17 0.54
6 1 16 0.48 0.48
-1 -6 -16 0.91 0.54
0 -7 -16 1.03 0.55
0 7 -16 0.43 0.53
-7 7 -16 0.85 0.41
0 -7 16 1.07 0.84
-7 0 -16 0.81 0.58
-7 0 16 1.3 0.9
7 0 -16 0.25 0.59
7 0 16 1 0.51
8 -4 16 0.95 0.5
-4 8 -16 0.83 0.54
-4 -4 16 1.28 0.9
4 4 -16 1.15 0.53
4 -8 16 1.18 0.67
-4 -4 -16 0.52 0.53
-8 4 -16 1.14 0.56
8 -4 -16 -0.05 0.53
-3 -5 16 -0.34 0.81
-3 8 -16 -0.22 0.53
8 -3 16 0.6 0.47
-5 -3 -16 0.04 0.52
5 3 -16 0.54 0.54
8 -5 -16 0.11 0.56
-8 5 -16 0.39 0.49
3 5 -16 0.27 0.53
-5 -3 16 0.68 0.91
8 -3 -16 0.91 0.58
5 3 16 0.32 0.37
8 -5 16 0.93 0.48
-5 8 -16 0.32 0.5
3 -8 16 0.88 0.77
-3 -5 -16 1.32 0.55
-8 3 -16 0.88 0.61
8 -6 -16 0.13 0.39
-2 -6 16 -0.79 0.76
6 2 -16 -0.28 0.55
-8 2 16 -0.06 0.52
-2 8 -16 -0.37 0.49
8 -2 16 0.15 0.46
-6 -2 -16 0.36 0.52
-6 8 -16 0.34 0.53
8 -6 16 0.31 0.44
-2 -6 -16 0.01 0.49
-6 -2 16 0.35 0.86
8 -2 -16 0.13 0.58
-8 2 -16 0.61 0.59
6 2 16 0.51 0.48
2 -8 16 -0.27 0.72
2 6 -16 -0.05 0.53
8 -1 16 0.97 0.49
-7 -1 -16 1.72 0.61
-1 8 -16 1.04 0.54
-8 1 16 0.36 0.58
7 1 -16 1.04 0.61
-1 -7 16 1.12 0.8
-7 8 -16 2.04 0.54
-8 1 -16 2.41 0.63
1 7 -16 2.7 0.63
-1 -7 -16 2.24 0.53
7 1 16 1.86 0.53
-7 -1 16 1.7 0.85
8 -1 -16 2.13 0.64
1 -8 16 2.69 0.83
0 8 -16 0.17 0.52
0 -8 16 0.45 0.78
8 0 -16 0.98 0.62
8 0 16 0.98 0.51
-8 8 -16 0.34 0.26
-8 0 -16 0.2 0.57
-8 0 16 0.76 0.68
-5 -4 -16 0.86 0.55
-9 5 -16 0.65 0.45
9 -5 -16 -0.06 0.52
-4 9 -16 0.13 0.49
9 -4 16 0.54 0.46
-4 -5 16 0.31 0.84
5 4 -16 0.6 0.48
-4 -5 -16 0.46 0.5
-5 -4 16 0.37 0.86
9 -4 -16 -0.01 0.54
4 5 -16 -0.11 0.54
-9 4 -16 1.11 0.53
-5 9 -16 0.46 0.51
9 -5 16 0.5 0.46
5 4 16 0.05 0.3
9 -3 16 0.55 0.45
6 3 -16 0.25 0.55
-6 -3 -16 0.19 0.52
-3 9 -16 0.48 0.53
-3 -6 16 0.46 0.83
9 -6 -16 -0.25 0.48
9 -3 -16 0.02 0.54
-6 -3 16 0.83 0.95
-6 9 -16 0.92 0.52
-3 -6 -16 0.22 0.48
3 -9 16 0.01 0.46
-9 3 -16 0.48 0.58
9 -6 16 0.41 0.49
6 3 16 0.57 0.45
3 6 -16 0.12 0.56
-2 -7 16 0.21 0.92
-2 9 -16 0.22 0.51
7 2 -16 0.65 0.6
-7 -2 -16 0.07 0.53
9 -2 16 0.52 0.44
9 -2 -16 0.46 0.61
7 2 16 0.84 0.49
-2 -7 -16 0.26 0.28
9 -7 16 0.5 0.45
-7 -2 16 1.16 0.8
-7 9 -16 0.64 0.47
2 -9 16 1.01 0.65
-9 2 -16 0.44 0.58
2 7 -16 0.6 0.54
-8 -1 -16 0.06 0.53
-1 -8 16 -0.29 0.77
9 -1 16 0.09 0.47
8 1 -16 -0.01 0.63
-1 9 -16 -0.15 0.52
9 -1 -16 0.24 0.62
8 1 16 0.41 0.47
-9 1 -16 0.35 0.59
1 8 -16 -0.43 0.53
-8 9 -16 0.19 0.37
1 -9 16 0.13 0.63
-8 -1 16 0.23 0.63
9 -8 16 0 0.32
0 9 -16 1.17 0.59
-9 0 -16 1.24 0.63
0 -9 16 1.61 0.74
9 0 -16 1.82 0.66
9 0 16 1.27 0.51
-5 -5 -16 1.42 0.5
-5 -5 16 1.36 0.85
-5 10 -16 1.45 0.56
10 -5 -16 1.21 0.59
5 5 -16 2.09 0.61
-10 5 -16 0.96 0.36
10 -5 16 0.95 0.5
-6 -4 -16 0.17 0.48
-4 -6 16 0.18 0.84
10 -6 -16 -0.03 0.52
-4 10 -16 0.4 0.51
10 -4 16 0.74 0.48
6 4 -16 0.46 0.55
-10 4 -16 0.57 0.53
-6 10 -16 -0.08 0.49
-6 -4 16 -0.52 0.79
-4 -6 -16 0.4 0.32
10 -4 -16 0.01 0.58
6 4 16 0.44 0.38
10 -6 16 -0.25 0.45
4 6 -16 0.07 0.58
-3 -7 16 -0.41 0.81
10 -7 -16 0.11 0.33
-3 10 -16 -0.28 0.5
7 3 -16 0.25 0.59
10 -3 16 -0.13 0.47
-7 -3 -16 -0.04 0.44
10 -3 -16 -0.44 0.57
-7 10 -16 0.25 0.46
-7 -3 16 -0.12 0.83
3 7 -16 0.23 0.56
10 -7 16 0.16 0.46
7 3 16 0.07 0.45
-10 3 -16 -0.21 0.56
8 2 -16 0.89 0.63
-8 -2 -16 1.02 0.57
-2 -8 16 1.6 0.87
-2 10 -16 1.46 0.57
10 -2 16 1.08 0.51
-8 -2 16 0.65 0.63
10 -2 -16 1.77 0.68
-10 2 -16 2.18 0.65
8 2 16 1.67 0.51
10 -8 16 1.21 0.44
-8 10 -16 1 0.42
2 8 -16 1.47 0.59
9 1 -16 0.23 0.6
-1 -9 16 1.03 0.77
10 -1 16 0.65 0.49
-9 -1 -16 0.61 0.6
-1 10 -16 0.51 0.56
10 -9 16 -0.11 0.24
9 1 16 0.78 0.5
1 9 -16 0.32 0.57
-9 10 -16 0.19 0.33
1 -10 16 -0.11 0.41
-10 1 -16 0.36 0.6
10 -1 -16 0.19 0.66
11 -6 -16 -0.03 0.55
11 -5 16 0.11 0.46
-5 11 -16 0.12 0.52
-5 -6 16 -0.61 0.91
6 5 -16 0.17 0.54
-6 -5 -16 0.33 0.25
5 6 -16 0.25 0.57
-6 11 -16 0.44 0.47
11 -6 16 0.49 0.51
6 5 16 0.18 0.3
-6 -5 16 0.14 0.82
11 -5 -16 0.09 0.59
-4 -7 16 0.48 0.86
11 -7 -16 0.29 0.3
11 -4 16 0.92 0.5
7 4 -16 0.92 0.54
-4 11 -16 1.05 0.55
11 -7 16 1.32 0.49
4 7 -16 0.43 0.54
-7 -4 16 0.49 0.82
-7 11 -16 0.23 0.49
11 -4 -16 -0.06 0.59
7 4 16 0.65 0.36
0 0 17 0.27 0.76
0 -1 17 0.62 0.75
1 -1 17 0.97 0.78
0 1 -17 0.32 0.33
-1 0 17 1.11 0.81
1 0 -17 0.35 0.42
-1 1 17 0.65 0.78
1 0 17 -0.01 0.74
0 1 17 0.62 0.73
-1 2 17 0.57 0.75
-1 -1 17 1.28 0.83
2 -1 17 0.11 0.73
1 -2 17 -0.19 0.72
1 1 17 0.89 0.73
-2 1 17 0.95 0.77
1 1 -17 0.42 0.5
-1 2 -17 0.53 0.32
2 0 -17 -0.17 0.44
2 0 17 0.07 0.71
0 2 17 0.4 0.71
-2 2 17 0.16 0.78
0 2 -17 -0.25 0.49
0 -2 17 -0.14 0.78
-2 0 17 0.48 0.79
2 -2 17 -0.12 0.68
-2 3 17 0.03 0.72
-3 2 -17 -0.1 0.52
1 2 17 0.44 0.78
-3 1 17 0.54 0.82
3 -1 17 -0.26 0.7
2 1 -17 -0.24 0.49
2 -3 17 -0.09 0.75
-1 3 -17 -0.52 0.46
-1 -2 17 0.47 0.81
-2 3 -17 0.47 0.31
3 -2 17 0.27 0.72
2 1 17 0.98 0.69
1 2 -17 -0.35 0.51
-3 2 17 0.65 0.81
-2 -1 17 0.47 0.82
-1 3 17 0.04 0.73
3 -1 -17 -0.18 0.37
-3 1 -17 0.15 0.6
1 -3 17 0.37 0.76
-3 0 -17 0.45 0.6
-3 3 -17 0.14 0.53
3 -3 17 0.8 0.74
0 -3 17 0.72 0.81
3 0 17 1.22 0.77
-3 3 17 1.39 0.8
-3 0 17 0.99 0.88
0 3 17 0.79 0.76
0 3 -17 0.12 0.52
3 0 -17 -0.41 0.47
-4 2 17 0.3 0.75
-4 2 -17 0.1 0.59
-2 -2 -17 0.25 0.58
2 2 17 0.39 0.7
4 -2 17 0.07 0.71
4 -2 -17 0.29 0.29
-2 4 17 0.6 0.82
-2 -2 17 0.18 0.86
2 -4 17 -0.02 0.74
2 2 -17 -0.43 0.49
-2 4 -17 0.47 0.5
-4 1 17 1.38 0.89
1 3 17 1.33 0.77
-4 3 -17 0.54 0.54
-3 4 17 0.76 0.76
-1 -3 17 1.06 0.8
-3 -1 -17 0.46 0.62
-1 4 -17 0.08 0.5
4 -1 17 0.15 0.75
3 -4 17 0.26 0.74
3 1 -17 0.24 0.49
-4 3 17 0.14 0.82
1 3 -17 -0.41 0.51
1 -4 17 0.04 0.78
3 1 17 0.18 0.7
-3 4 -17 0.46 0.29
-3 4 -17 0.01 0.31
-1 4 17 0.45 0.82
4 -1 -17 -0.3 0.48
4 -3 17 0.12 0.7
-3 -1 17 1.12 0.87
-4 1 -17 0.41 0.63
-4 4 -17 0.38 0.37
-4 0 17 -0.2 0.86
0 4 17 -0.13 0.8
-4 4 17 0.39 0.77
-4 0 -17 0.22 0.59
0 4 -17 -0.39 0.5
0 -4 17 0.07 0.79
4 0 -17 -0.07 0.49
4 -4 17 0.02 0.74
4 0 17 0.43 0.73
-2 -3 17 0.94 0.81
-2 5 -17 0.31 0.49
-3 5 17 0.4 0.79
3 -5 17 0.42 0.74
-3 -2 -17 1.09 0.6
-5 3 -17 0.75 0.57
5 -2 17 0.81 0.74
-5 2 17 1.08 0.79
3 2 -17 0.51 0.53
5 -2 -17 -0.12 0.45
-5 2 -17 0.49 0.61
-2 -3 -17 0.18 0.51
2 -5 17 0.2 0.77
2 3 -17 0.71 0.57
-5 3 17 0.52 0.76
-2 5 17 1.08 0.72
5 -3 17 0.13 0.73
-3 5 -17 0.67 0.46
-3 -2 17 0.95 0.85
5 -1 17 0.27 0.75
-5 4 -17 0.35 0.35
-4 -1 -17 0.1 0.61
-5 1 17 0.14 0.81
4 1 -17 -0.11 0.52
4 -5 17 -0.39 0.71
-1 -4 17 -0.06 0.82
-1 5 -17 -0.24 0.48
-4 5 17 0.31 0.7
-4 -1 17 0.37 0.85
5 -4 17 0.35 0.66
-5 1 -17 0.21 0.6
1 -5 17 0.32 0.76
1 4 -17 0.01 0.54
-1 -4 -17 0.56 0.6
-5 4 17 0.41 0.63
5 -1 -17 -0.17 0.52
5 -5 17 -0.05 0.47
-5 0 17 0.01 0.87
-5 0 -17 -0.19 0.56
5 0 -17 -0.43 0.53
0 -5 17 0.11 0.8
0 -5 -17 -0.41 0.54
0 5 -17 -0.13 0.52
6 -3 17 0.14 0.57
-6 3 17 -0.02 0.58
-3 -3 -17 -0.33 0.55
3 -6 17 -0.45 0.65
-6 3 -17 0.14 0.53
-3 -3 17 -0.68 0.82
6 -3 -17 -0.04 0.33
3 3 -17 -0.61 0.54
-3 6 -17 -0.14 0.5
-4 -2 -17 1.96 0.64
-2 6 -17 1.33 0.51
-6 2 17 0.62 0.58
-6 4 -17 0.59 0.32
4 -6 17 0.39 0.52
-2 -4 17 2.58 0.92
4 2 -17 1.54 0.55
2 4 -17 0.76 0.54
-6 2 -17 1.09 0.62
6 -4 17 0.27 0.46
2 -6 17 0.28 0.76
-4 -2 17 1.11 0.93
-4 6 -17 0.69 0.37
-2 -4 -17 0.54 0.57
6 -2 -17 0.75 0.54
-1 6 -17 1.04 0.55
-1 -5 17 1.64 0.87
-5 -1 -17 1.89 0.61
5 1 -17 0.88 0.56
-6 1 17 1.1 0.77
1 5 -17 0.91 0.55
-6 1 -17 1.6 0.68
1 -6 17 0.56 0.81
-1 -5 -17 1.28 0.56
6 -1 -17 0.86 0.59
-5 -1 17 1.77 0.91
0 -6 -17 0.47 0.49
6 0 -17 0.16 0.58
0 6 -17 0.86 0.59
-6 0 17 0.78 0.82
-6 0 -17 0.51 0.6
0 -6 17 0.44 0.82
-3 7 -17 0.78 0.54
-7 4 -17 0.36 0.3
-3 -4 17 1.22 0.9
-4 -3 -17 1.49 0.59
4 3 -17 0.56 0.59
-7 3 -17 0.83 0.52
-4 7 -17 0.4 0.41
3 -7 17 -0.17 0.41
-3 -4 -17 0.71 0.56
3 4 -17 1.24 0.62
7 -3 -17 0.97 0.46
-4 -3 17 0.55 0.9
-2 7 -17 0.45 0.57
5 2 -17 0.36 0.55
-2 -5 17 0.38 0.85
-5 -2 -17 0.6 0.62
2 -7 17 0.86 0.68
2 5 -17 0.56 0.57
7 -2 -17 0.81 0.59
-7 2 -17 0.82 0.58
-2 -5 -17 0.6 0.52
-5 7 -17 0.31 0.26
-5 -2 17 1.01 0.93
-1 7 -17 -0.24 0.55
-1 -6 17 0.14 0.85
-6 -1 -17 0.02 0.57
6 1 -17 -0.15 0.58
1 -7 17 0 0.75
-7 1 -17 -0.31 0.58
-1 -6 -17 0.04 0.28
1 6 -17 0.36 0.6
-6 -1 17 0.03 0.79
7 -1 -17 0.02 0.62
