#------------------------------------------------------------------------------
#$Date: 2019-11-03 10:42:34 +0200 (Sun, 03 Nov 2019) $
#$Revision: 221180 $
#$URL: file:///home/coder/svn-repositories/cod/cif/4/12/80/4128047.cif $
#------------------------------------------------------------------------------
#
# This file is available in the Crystallography Open Database (COD),
# http://www.crystallography.net/
#
# All data on this site have been placed in the public domain by the
# contributors.
#
data_4128047
loop_
_publ_author_name
'Vailonis, Kristina M.'
'Gnanasekaran, Karthikeyan'
'Powers, Xian B.'
'Gianneschi, Nathan C.'
'Jenkins, David M.'
_publ_section_title
;
 Elucidating the Growth of Metal-Organic Nanotubes Combining Isoreticular
 Synthesis with Liquid-Cell Transmission Electron Microscopy.
;
_journal_issue                   26
_journal_name_full               'Journal of the American Chemical Society'
_journal_page_first              10177
_journal_page_last               10182
_journal_paper_doi               10.1021/jacs.9b04586
_journal_volume                  141
_journal_year                    2019
_chemical_formula_moiety         'C8 H6 Br Cu N3'
_chemical_formula_sum            'C8 H6 Br Cu N3'
_chemical_formula_weight         287.61
_space_group_crystal_system      orthorhombic
_space_group_IT_number           74
_space_group_name_Hall           '-I 2b 2'
_space_group_name_H-M_alt        'I m m a'
_symmetry_space_group_name_Hall  '-I 2b 2'
_symmetry_space_group_name_H-M   'I m m a'
_atom_sites_solution_hydrogens   mixed
_atom_sites_solution_primary     dual
_atom_sites_solution_secondary   difmap
_audit_creation_method           SHELXL-2017/1
_cell_angle_alpha                90
_cell_angle_beta                 90
_cell_angle_gamma                90
_cell_formula_units_Z            8
_cell_length_a                   22.374(3)
_cell_length_b                   6.9783(8)
_cell_length_c                   13.2425(15)
_cell_measurement_reflns_used    9912
_cell_measurement_temperature    100(2)
_cell_measurement_theta_max      32.4
_cell_measurement_theta_min      3.21
_cell_volume                     2067.6(4)
_computing_cell_refinement       'SAINT V8.37A Bruker-AXS, Madison WI'
_computing_data_collection       'Bruker APEX3 Bruker-AXS, Madison WI'
_computing_data_reduction        'SAINT V8.37A Bruker-AXS, Madison WI'
_computing_molecular_graphics
;
Bruker SHELXTL Bruker-AXS, Madison WI
and local programs
;
_computing_publication_material  'Bruker SHELXTL Bruker-AXS, Madison WI'
_computing_structure_refinement  'SHELXL-2014/7 (Sheldrick, 2014)'
_computing_structure_solution    'SHELXT 2014/4 Bruker-AXS, Madison WI'
_diffrn_ambient_temperature      100(2)
_diffrn_detector_area_resol_mean 10.42
_diffrn_measured_fraction_theta_full 0.999
_diffrn_measured_fraction_theta_max 0.998
_diffrn_measurement_device_type  'Bruker D8 with PHOTON 2 CMOS detector'
_diffrn_measurement_method       '\w/\f scans'
_diffrn_radiation_type           synchrotron
_diffrn_radiation_wavelength     0.7288
_diffrn_reflns_av_R_equivalents  0.0783
_diffrn_reflns_av_unetI/netI     0.0406
_diffrn_reflns_Laue_measured_fraction_full 0.999
_diffrn_reflns_Laue_measured_fraction_max 0.998
_diffrn_reflns_limit_h_max       32
_diffrn_reflns_limit_h_min       -32
_diffrn_reflns_limit_k_max       10
_diffrn_reflns_limit_k_min       -10
_diffrn_reflns_limit_l_max       19
_diffrn_reflns_limit_l_min       -19
_diffrn_reflns_number            24015
_diffrn_reflns_point_group_measured_fraction_full 0.999
_diffrn_reflns_point_group_measured_fraction_max 0.998
_diffrn_reflns_theta_full        25.930
_diffrn_reflns_theta_max         32.507
_diffrn_reflns_theta_min         1.832
_diffrn_source                   'Beamline 12.2.1, ALS'
_exptl_absorpt_coefficient_mu    6.317
_exptl_absorpt_correction_T_max  0.7464
_exptl_absorpt_correction_T_min  0.5557
_exptl_absorpt_correction_type   multi-scan
_exptl_absorpt_process_details   'SADABS (Sheldrick, 2014)'
_exptl_crystal_colour            colorless
_exptl_crystal_density_diffrn    1.848
_exptl_crystal_description       plate
_exptl_crystal_F_000             1112
_exptl_crystal_size_max          0.110
_exptl_crystal_size_mid          0.030
_exptl_crystal_size_min          0.010
_refine_diff_density_max         1.793
_refine_diff_density_min         -2.788
_refine_diff_density_rms         0.326
_refine_ls_extinction_method     none
_refine_ls_goodness_of_fit_ref   1.135
_refine_ls_hydrogen_treatment    constr
_refine_ls_matrix_type           full
_refine_ls_number_parameters     72
_refine_ls_number_reflns         1908
_refine_ls_number_restraints     0
_refine_ls_restrained_S_all      1.135
_refine_ls_R_factor_all          0.0839
_refine_ls_R_factor_gt           0.0713
_refine_ls_shift/su_max          0.000
_refine_ls_shift/su_mean         0.000
_refine_ls_structure_factor_coef Fsqd
_refine_ls_weighting_details
'w=1/[\s^2^(Fo^2^)+(0.1511P)^2^+7.8720P] where P=(Fo^2^+2Fc^2^)/3'
_refine_ls_weighting_scheme      calc
_refine_ls_wR_factor_gt          0.2193
_refine_ls_wR_factor_ref         0.2360
_reflns_Friedel_coverage         0.000
_reflns_number_gt                1487
_reflns_number_total             1908
_reflns_threshold_expression     'I > 2\s(I)'
_cod_data_source_file            ja9b04586_si_002.cif
_cod_data_source_block           xbp211
_cod_database_code               4128047
_shelx_shelxl_version_number     2017/1
_shelx_space_group_comment
;
The symmetry employed for this shelxl refinement is uniquely defined
by the following loop, which should always be used as a source of
symmetry information in preference to the above space-group names.
They are only intended as comments.
;
_shelx_estimated_absorpt_t_min   0.543
_shelx_estimated_absorpt_t_max   0.940
_shelx_res_file
;
TITL XBP211 in Imma
    xbp211.res
    created by SHELXL-2017/1 at 11:11:14 on 26-Jul-2018
CELL  0.7288  22.3745   6.9783  13.2425   90.000   90.000   90.000
ZERR    8.000   0.0027   0.0008   0.0015    0.000    0.000    0.000
LATT  2
SYMM -X, 1/2-Y, Z
SYMM -X, 1/2+Y, -Z
SYMM X, -Y, -Z
SFAC C H N CU BR
DISP C 0.0034 0.0017 11.9
DISP H 0.0000 0.0000 0.7
DISP N 0.0065 0.0035 20.6
DISP CU 0.3203 1.3288 5551.5
DISP BR -0.4677 2.5495 10614.6
UNIT 64 48 24 8 8
TEMP -173.15
SIZE 0.03 0.11 0.01 !colorless plate
L.S. 10
BOND $H
CONF
ACTA
WGHT    0.151100    7.872000
FVAR       0.29680
CU1   4    0.278425    0.500000    0.000000    10.50000    0.04557    0.03263 =
         0.02110    0.00270    0.00000    0.00000
BR1   5    0.221063    0.250000   -0.100228    10.50000    0.03542    0.03413 =
         0.02028    0.00000   -0.00055    0.00000
N1    3    0.310174    0.348728    0.113612    11.00000    0.03804    0.03299 =
         0.02476    0.00100   -0.00247    0.00270
N2    3    0.341766    0.250000    0.260932    10.50000    0.03311    0.04015 =
         0.02107    0.00000   -0.00171    0.00000
C1    1    0.329013    0.404321    0.203777    11.00000    0.04420    0.03397 =
         0.02550   -0.00361   -0.00582    0.00084
AFIX  43
H1    2    0.332946    0.533762    0.224981    11.00000   -1.20000
AFIX   0
C2    1    0.368643    0.250000    0.362045    10.50000    0.03278    0.04219 =
         0.02237    0.00000   -0.00317    0.00000
AFIX   3
H2    2    0.355263    0.138750    0.398195    10.50000   -1.20000
AFIX   0
C4    1    0.436304    0.250000    0.358106    10.50000    0.03319    0.03023 =
         0.01878    0.00000   -0.00422    0.00000
C5    1    0.468824    0.250000    0.451586    10.50000    0.04048    0.02080 =
         0.01556    0.00000   -0.00092    0.00000
C6    1    0.437709    0.250000    0.545276    10.50000    0.03174    0.03341 =
         0.02144    0.00000    0.00207    0.00000
AFIX  43
H6    2    0.395251    0.250000    0.545610    10.50000   -1.20000
AFIX   0
C7    1    0.468480    0.250000    0.635942    10.50000    0.05108    0.02785 =
         0.01733    0.00000    0.00373    0.00000
AFIX  43
H7    2    0.447197    0.250000    0.698017    10.50000   -1.20000
AFIX   0
C8    1    0.468532    0.250000    0.269831    10.50000    0.03711    0.04187 =
         0.01479    0.00000   -0.00177    0.00000
AFIX  43
H8    2    0.447839    0.250000    0.207188    10.50000   -1.20000

AFIX   0
HKLF 4




REM  XBP211 in Imma
REM R1 =  0.0713 for    1487 Fo > 4sig(Fo)  and  0.0839 for all    1908 data
REM     72 parameters refined using      0 restraints

END

WGHT      0.1511      7.8720

REM Highest difference peak  1.793,  deepest hole -2.788,  1-sigma level  0.326
Q1    1   0.4262  0.2500  0.8788  10.50000  0.05    1.79
Q2    1   0.4315  0.2500  0.9472  10.50000  0.05    1.64
Q3    1   0.4699 -0.0804  0.0704  11.00000  0.05    1.62
Q4    1   0.5000  0.4433 -0.0160  10.50000  0.05    1.36
Q5    1   0.4638  0.2500 -0.0392  10.50000  0.05    1.24
Q6    1   0.5000  0.2500 -0.0414  10.25000  0.05    1.09
Q7    1   0.3366  0.0000  0.5000  10.50000  0.05    0.79
Q8    1   0.2786  0.5015  0.2037  11.00000  0.05    0.72
Q9    1   0.3362  0.7500  0.1017  10.50000  0.05    0.64
Q10   1   0.2193  0.3855 -0.0935  11.00000  0.05    0.60
Q11   1   0.3164  0.0179  0.4001  11.00000  0.05    0.56
Q12   1   0.3244  0.5000  0.0000  10.50000  0.05    0.55
Q13   1   0.4026  0.5928  0.0403  11.00000  0.05    0.54
Q14   1   0.4005  0.4678  0.0307  11.00000  0.05    0.53
Q15   1   0.3949 -0.0230  0.4184  11.00000  0.05    0.52
Q16   1   0.3709  0.4950  0.0326  11.00000  0.05    0.52
Q17   1   0.4769 -0.0830  0.1307  11.00000  0.05    0.50
Q18   1   0.4361  0.0000  0.5000  10.50000  0.05    0.50
Q19   1   0.4315  0.0867  0.6446  11.00000  0.05    0.49
Q20   1   0.3923  0.5631  0.0688  11.00000  0.05    0.47
;
_shelx_res_checksum              38753
_shelx_hkl_file
;
   0  -2   0 3391.96  268.07
   0   6   0  775.12   59.89
   0  -6   0  853.71   60.69
   0   6   0  688.33   64.09
   0   6   0  754.12   61.59
   0   6   0  846.42   64.99
   0   6   0  681.83   62.69
   0   8   0 2269.97  173.78
   0   8   0 1940.51  175.88
   0   8   0 2331.57  171.68
   0   8   0 2218.18  171.58
   0  10   0   44.30   13.40
   0  -1  -1  191.08   21.90
   0   1   1  245.28   19.00
   0   1  -1  202.48   18.80
   0   1   1  209.48   22.00
   0  -1  -1  273.97   20.60
   0  -1   1  273.07   20.50
   0  -1   1  241.68   18.90
   0   1   1  284.27   21.60
   0  -1   1  201.98   19.30
   0   3  -1  765.72   60.29
   0   3   1  773.12   59.59
   0   3  -1  771.12   57.79
   0   3   1  653.53   60.99
   0   3   1  698.33   58.49
   0   3   1  726.33   57.79
   0   3   1  855.51   58.69
   0  -3  -1  699.13   57.89
   0   3  -1  724.93   58.99
   0   3  -1  695.03   58.19
   0  -3   1  743.13   57.89
   0   5  -1  327.17   27.30
   0   5   1  387.26   32.70
   0  -5   1  360.56   28.10
   0   5  -1  359.56   26.80
   0   5   1  351.16   29.10
   0   5  -1  348.47   28.90
   0  -5   1  337.97   27.80
   0  -5  -1  357.56   27.60
   0   5   1  315.97   27.40
   0   5   1  305.07   29.80
   0   5   1  356.36   33.00
   0   5  -1  368.66   34.20
   0   5  -1  348.07   30.70
   0   5   1  328.17   26.60
   0   5  -1  292.97   29.90
   0   7   1   22.70   17.20
   0   7  -1   40.20   14.90
   0   7   1   31.50    9.40
   0   7  -1   30.40   16.00
   0   7   1   37.80   11.90
   0  -7  -1   23.30    7.10
   0   7   1   16.50   11.00
   0   7  -1   26.40    3.20
   0   7   1   31.60   14.30
   0   7  -1   34.70    8.40
   0   9   1    7.30   27.50
   0   9  -1   35.00   23.40
   0   9  -1   44.10   17.10
   0   9  -1   46.20   14.20
   0   9  -1   22.10   12.90
   0   9  -1   12.20    5.30
   0   9   1   19.50   18.60
   0   9   1   32.80   12.10
   0   0  -2 4308.97  355.16
   0   0   2 4381.66  355.16
   0  -2  -2 1119.79   89.69
   0   2   2 1131.29   89.69
   0   4   2 2296.57  196.08
   0   4   2 2810.02  196.58
   0   4  -2 2287.37  195.88
   0   4  -2 2598.94  195.88
   0  -6  -2  404.66   31.70
   0   6   2  443.66   34.60
   0   6   2  430.36   38.30
   0   6  -2  410.46   33.10
   0   6   2  415.56   41.20
   0   6  -2  377.56   36.30
   0  -6   2  408.26   32.20
   0   6  -2  462.15   38.30
   0   6  -2  343.37   31.40
   0   6   2  391.66   33.80
   0   6   2  354.46   30.70
   0   6  -2  374.66   30.90
   0  -8  -2  315.07   29.30
   0   8  -2  325.07   28.20
   0   8  -2  319.87   40.90
   0   8   2  380.06   37.40
   0   8  -2  383.46   38.30
   0   8  -2  354.76   30.60
   0   8   2  363.96   32.30
   0   8   2  380.46   32.00
   0   8   2  319.67   47.20
   0   8  -2  375.66   33.00
   0  10  -2   21.40   28.00
   0  10  -2    8.20   13.10
   0  10   2    8.50   11.70
   0  -1  -3 5257.97  469.65
   0   1   3 5659.03  469.65
   0   1  -3 5591.54  458.85
   0  -1   3 5842.42  455.45
   0   3   3 3111.19  240.28
   0  -3  -3 3033.50  240.18
   0   5   3 2323.57  179.58
   0   5  -3 2394.96  180.58
   0  -5   3 2410.26  178.88
   0   5   3 2410.16  179.48
   0   5  -3 2096.09  180.68
   0   5   3 2190.98  178.88
   0   5   3 2343.87  179.88
   0   5  -3 2275.67  179.28
   0   5   3 2234.38  180.78
   0  -7  -3  759.32   65.29
   0   7  -3  849.72   68.99
   0   7  -3  868.11   66.29
   0   7  -3  812.62   69.59
   0   7   3  946.11   67.09
   0   7   3  718.13   75.19
   0   7   3  879.91   66.99
   0   7   3  813.42   69.59
   0   7  -3  817.42   64.89
   0   9  -3  139.09   17.60
   0   9  -3  108.49   11.60
   0   9  -3  103.49   25.70
   0   9   3  106.39   14.90
   0   9  -3  126.79   20.80
   0   9  -3  113.39   15.90
   0  -9  -3  100.69   12.10
   0   0  -4  132.29   21.10
   0   0   4   91.79   13.50
   0   0   4  113.19    8.40
   0   0   4  130.49   19.70
   0   0  -4   90.89   11.10
   0   0  -4  103.59    8.40
   0   0  -4   92.59   10.00
   0   0   4  104.19   10.20
   0   2   4 9346.96  770.62
   0  -2  -4 8947.60  766.62
   0  -2   4 9999.00  759.82
   0   2  -4 9639.94  762.22
   0   4   4   89.19   10.10
   0   4  -4   64.39    9.50
   0   4  -4   54.29    6.70
   0   4  -4   73.59   12.60
   0   4   4   93.09   20.80
   0   4  -4   70.19    8.40
   0   4   4   73.29    6.00
   0   4   4   74.09   13.40
   0  -4   4   68.19   14.90
   0   4  -4   65.99    7.10
   0  -4   4   81.59    8.70
   0   4   4   85.09    8.30
   0  -4  -4   73.49    7.00
   0   6   4 1400.56  125.59
   0  -6  -4 1520.35  118.89
   0   6   4 1404.06  118.59
   0  -6   4 1544.35  119.19
   0   6  -4 1507.65  118.79
   0   6   4 1633.74  120.19
   0   6  -4 1537.45  119.59
   0   6  -4 1552.54  121.59
   0   6   4 1537.85  121.79
   0   6  -4 1370.46  118.89
   0   6  -4 1544.35  118.69
   0   6  -4 1635.14  121.79
   0   6   4 1658.93  119.99
   0   8   4    6.60    9.80
   0   8   4   19.40   30.20
   0   8  -4  -30.60   12.90
   0   8  -4    3.10    4.10
   0  -8  -4    6.20    6.80
   0   8   4    7.00   14.30
   0   8   4   -8.10   10.50
   0   8  -4    8.60    8.50
   0   8  -4    1.60   15.70
   0  10  -4  407.36   38.80
   0  10   4  446.76   38.20
   0   1  -5   21.60    6.70
   0  -1  -5   27.90   16.80
   0  -1   5   31.70    5.00
   0  -1  -5   25.10    9.50
   0   1   5   10.10    5.20
   0  -1  -5   16.20    1.90
   0  -1   5   18.10    3.50
   0   1  -5   20.50    2.00
   0   1  -5   19.20    3.50
   0   1   5   18.90    9.80
   0  -1   5   26.70   11.00
   0  -1  -5   18.70    5.70
   0  -1   5   19.00    2.10
   0   1   5   24.60   12.80
   0   1   5   20.00    1.90
   0   1  -5   21.70   11.10
   0   3   5   80.09    8.20
   0  -3   5   76.19   10.20
   0  -3   5   79.49   12.30
   0   3  -5   62.89    9.10
   0  -3  -5  100.19   14.00
   0   3  -5   62.99    7.20
   0  -3   5   78.39    8.30
   0  -3  -5   88.49   12.20
   0   3   5   81.19   17.10
   0   3   5  100.69   14.30
   0  -3  -5   75.49    6.80
   0   3  -5   83.49    6.70
   0   3  -5   79.49   12.50
   0   3   5   91.99    9.90
   0   3   5   71.59    6.30
   0   5  -5   26.30   12.30
   0   5  -5   26.60    5.00
   0   5  -5   26.20   12.80
   0   5   5   35.50   13.50
   0   5   5   36.10   10.40
   0   5   5   30.00    3.50
   0  -5  -5   33.50    4.50
   0   5  -5   35.90    3.70
   0   5  -5   30.00    6.20
   0   5   5   19.60   21.30
   0   5  -5   26.50    4.00
   0  -5   5   46.20    6.50
   0  -5   5   40.80   11.90
   0   7  -5    9.00   13.50
   0   7  -5   16.50    3.60
   0   7   5   10.50   28.60
   0  -7  -5    7.20    5.20
   0   7  -5   20.40   14.50
   0   7  -5   16.80    7.90
   0   7   5   18.40    9.70
   0   7   5    6.10   10.30
   0   7   5    9.80   13.50
   0   9  -5   -8.10   11.70
   0   9   5   -4.50   11.60
   0   9  -5    1.20   20.20
   0  -9  -5   -7.50    7.50
   0   9  -5    3.40    4.00
   0   0  -6  129.19   17.70
   0   0   6  139.59   13.40
   0   0  -6  135.09   13.60
   0   0  -6  203.38   23.60
   0   0   6  165.68   12.20
   0   0   6  145.99   16.40
   0   0  -6  155.08   12.20
   0  -2  -6 7015.10  546.15
   0   4   6    3.00    1.30
   0  -4   6   -0.80    5.70
   0   4   6    4.90   12.50
   0  -4  -6    3.00    7.30
   0   4   6    0.80    3.80
   0   4   6   -3.80    8.30
   0   4  -6    1.90    2.10
   0  -4   6    1.20    4.50
   0  -4  -6    5.40    2.80
   0  -4   6    8.40    9.80
   0   4  -6    5.10    4.30
   0   4  -6   -2.20   10.80
   0   4  -6    0.20    4.90
   0   4  -6   -1.00    2.80
   0   4   6    3.40   16.80
   0   6   6 1636.64  130.99
   0   6  -6 1413.66  127.89
   0   6   6 1784.32  129.09
   0  -6  -6 1617.24  127.89
   0   6  -6 1459.35  127.99
   0   6  -6 1811.32  131.29
   0  -6   6 1654.23  128.29
   0   6   6 1796.02  129.49
   0   6  -6 1688.83  127.79
   0   6  -6 1603.34  128.49
   0   8  -6    3.70    8.60
   0   8   6   -4.40   10.40
   0   8   6  -12.70   15.60
   0   8  -6    2.70   16.60
   0   8  -6    7.90    3.60
   0   8  -6    8.30   14.30
   0  -8  -6    9.50    6.70
   0   1  -7  730.53   52.39
   0   1   7  710.73   52.69
   0  -1   7  661.13   52.89
   0   1  -7  646.34   53.49
   0  -1  -7  659.43   52.69
   0  -1  -7  648.34   54.79
   0   1   7  608.04   54.19
   0   3   7 1075.29   83.09
   0   3  -7 1086.49   86.29
   0  -3  -7  976.70   85.69
   0   3  -7  886.81   83.59
   0  -3   7  980.70   83.29
   0   3   7 1108.99   83.89
   0  -3   7 1118.49   82.89
   0  -3  -7 1090.79   86.99
   0   3   7 1032.80   85.99
   0  -3   7 1108.49   82.79
   0  -3   7 1218.78   85.89
   0   3   7 1066.39   86.29
   0   5   7 1008.60   74.39
   0  -5  -7  949.31   72.69
   0  -5   7  846.42   75.69
   0   5  -7  810.42   72.89
   0  -5   7  988.00   73.19
   0   5  -7  935.81   73.39
   0   5  -7  982.00   72.59
   0   5   7  939.11   77.29
   0   7   7  438.76   37.20
   0  -7   7  413.86   35.30
   0   7  -7  380.16   41.20
   0   7   7  429.86   42.80
   0   7  -7  389.56   33.30
   0   7   7  488.05   38.10
   0   7  -7  425.66   35.60
   0   7  -7  500.05   44.30
   0  -9  -7   23.80    7.70
   0   9  -7   26.70   16.60
   0   9   7   25.40   10.80
   0   0  -8 4471.55  348.47
   0   0  -8 4474.35  347.77
   0   2  -8   47.90    5.80
   0   2   8   38.40   12.20
   0   2  -8   76.59   13.90
   0  -2   8   75.79   12.90
   0  -2  -8   56.59    5.20
   0  -2  -8   50.19   12.10
   0  -2   8   50.69    5.40
   0  -2  -8   61.49   18.60
   0   2   8   53.99    4.90
   0   2   8   65.19   14.40
   0   2   8   59.59    8.20
   0   2  -8   57.69    5.10
   0   4  -8 1535.95  137.89
   0  -4  -8 1913.21  140.49
   0  -4  -8 1646.74  139.19
   0   4  -8 1578.84  137.39
   0  -4   8 1844.92  137.99
   0   4   8 1843.12  140.19
   0  -4   8 1898.81  140.09
   0   4   8 1895.21  138.29
   0   6   8  176.48   20.80
   0   6  -8  162.58   16.70
   0   6  -8  201.08   29.00
   0  -6   8  160.78   16.30
   0   6  -8  164.78   13.40
   0   6   8  179.58   20.60
   0   6   8  162.98   21.00
   0  -6  -8  147.89   14.30
   0   8  -8  297.97   38.10
   0   8   8  397.86   32.60
   0  -8  -8  333.37   29.20
   0   8  -8  383.06   28.10
   0   1  -9  851.51   71.49
   0   1  -9  836.42   72.59
   0   1   9  940.31   71.79
   0  -1  -9  808.32   73.69
   0  -1   9  968.60   71.19
   0  -1   9  852.61   71.99
   0   1   9  865.41   73.09
   0  -1  -9 1102.69   77.19
   0   1  -9 1016.10   76.19
   0   3   9 1033.00   88.89
   0  -3   9 1190.98   88.99
   0   3   9 1105.69   86.29
   0  -3  -9 1065.09   88.59
   0   3   9 1019.60   85.59
   0  -3  -9 1109.79   85.19
   0   3   9 1081.39   88.49
   0  -3  -9 1158.98   91.99
   0  -5   9  271.07   29.80
   0   5  -9  296.77   22.00
   0   5   9  296.17   26.90
   0   5  -9  222.58   22.60
   0  -5  -9  287.97   22.30
   0  -5   9  307.87   23.40
   0   5   9  333.67   33.00
   0   5  -9  247.48   24.60
   0   7   9  126.49   14.50
   0   7   9  113.59   14.90
   0   7   9   75.39   17.30
   0   7  -9  110.29    9.40
   0  -7  -9  104.19   11.20
   0   9  -9   82.29   20.50
   0  -9  -9   75.79    9.90
   0   9   9   81.19   13.20
   0   0  10 3900.01  309.57
   0   0 -10 3758.42  310.07
   0   0 -10 3568.34  309.17
   0   0  10 4430.86  311.47
   0   0 -10 4227.98  311.97
   0   2  10  174.78   27.20
   0  -2  10  173.58   14.70
   0   2  10  172.48   17.60
   0  -2 -10  191.48   34.10
   0  -2  10  211.68   24.90
   0   2 -10  168.48   27.00
   0  -2 -10  171.88   24.30
   0   2  10  173.18   21.90
   0   2 -10  195.88   14.50
   0  -2 -10  177.78   14.60
   0  -4 -10  928.61   71.39
   0  -4 -10  988.00   76.49
   0  -4  10  850.81   75.79
   0   4  10  974.10   75.89
   0  -4 -10  770.32   76.29
   0   4  10  972.90   73.09
   0   4 -10  948.11   71.29
   0  -6  10   30.00    7.30
   0   6  10   31.00   10.10
   0  -6  10   46.80   14.90
   0   6  10   10.00   15.50
   0   6  10   32.30   11.00
   0   6 -10   41.00    4.00
   0  -6 -10   34.30    5.20
   0   8 -10  254.77   20.50
   0  -8 -10  252.77   21.80
   0   8 -10  259.77   33.50
   0   1 -11  353.56   25.10
   0  -1  11  268.97   27.00
   0  -1 -11  340.07   25.10
   0   1 -11  263.57   26.00
   0   1  11  274.97   29.20
   0  -1 -11  400.46   39.50
   0  -1 -11  269.37   31.40
   0  -1  11  353.26   25.80
   0   1  11  332.17   26.50
   0   3  11  909.91   70.59
   0  -3  11 1001.60   74.29
   0  -3 -11  806.12   73.99
   0   3  11  900.61   74.69
   0  -3 -11  878.61   69.29
   0   3  11  813.12   73.09
   0   5  11  517.75   43.80
   0  -5 -11  507.15   40.80
   0   5  11  509.95   48.30
   0   5 -11  532.45   40.60
   0  -5  11  520.65   46.70
   0   7  11   82.09   12.80
   0  -7 -11   86.19    9.00
   0   7 -11   87.69    8.00
   0   0 -12  314.37   24.90
   0   0  12  384.36   34.70
   0   0  12  290.37   27.60
   0   0  12  331.47   25.80
   0   0 -12  321.77   37.70
   0   0 -12  252.27   31.40
   0   2  12  565.64   43.80
   0  -2 -12  547.15   46.00
   0   2  12  458.65   47.10
   0   2  12  466.65   40.10
   0   2  12  555.74   41.00
   0  -2 -12  511.15   39.40
   0  -2 -12  437.26   53.49
   0   2 -12  520.55   39.30
   0  -2  12  467.75   46.60
   0  -4 -12  576.54   43.80
   0  -4  12  544.05   49.99
   0   4  12  461.75   50.89
   0   4 -12  587.34   43.70
   0   4  12  573.94   50.19
   0   4  12  604.04   46.20
   0   6  12  159.98   23.30
   0   6 -12  182.78   14.30
   0  -6  12  151.08   25.70
   0   6  12  192.28   22.20
   0   6  12  206.58   22.50
   0  -6 -12  164.38   15.00
   0   8  12   33.60   11.90
   0  -8 -12   37.70    6.10
   0   8 -12   15.90   16.50
   0  -1 -13  854.41   65.69
   0   1  13  833.42   71.29
   0   1 -13  853.51   65.69
   0   1  13  836.02   67.79
   0  -1 -13  820.82   70.09
   0   1  13  893.21   66.39
   0  -1  13  891.11   70.79
   0  -1 -13  729.13   75.89
   0  -3 -13  385.26   30.40
   0   3  13  403.36   33.00
   0   3  13  320.17   40.10
   0   3  13  420.16   37.40
   0  -3  13  387.16   39.20
   0  -3 -13  401.96   40.10
   0   3 -13  395.66   30.30
   0   5 -13  380.16   28.50
   0   5  13  370.96   32.70
   0  -5  13  305.47   36.10
   0   5  13  368.06   38.30
   0  -5 -13  374.86   28.80
   0  -7 -13  141.49   14.60
   0   7 -13  164.68   13.20
   0   7  13  179.88   21.50
   0   0 -14   -3.60   12.90
   0   0 -14   -1.70    2.10
   0   0  14    8.10   14.80
   0   0  14   -2.20    8.30
   0   0  14   -2.70    5.90
   0  -2 -14 1478.65  114.09
   0   2  14 1300.17  118.39
   0   2  14 1605.04  116.29
   0   2  14 1624.84  114.79
   0  -2  14 1340.87  118.19
   0  -2 -14 1445.16  118.19
   0  -4  14    4.70   13.50
   0   4  14   16.20    9.40
   0   4 -14    6.60    2.30
   0   4  14   -1.80   14.30
   0  -4 -14    4.50    3.10
   0   6 -14  286.37   22.50
   0  -6 -14  261.97   23.10
   0   6  14  329.27   27.70
   0   1  15    4.10    6.20
   0  -1  15   -0.10   15.90
   0   1 -15   -0.20    2.30
   0   1  15   14.40    9.10
   0  -1 -15    2.90    2.50
   0   1  15    7.10   15.20
   0  -1 -15   -2.40   15.60
   0   3  15    5.10   16.40
   0   3  15   10.60   13.10
   0   3 -15    7.10    2.30
   0  -3 -15    5.90    3.10
   0   3  15   17.70    8.80
   0  -3  15    8.00   15.80
   0  -5  15    9.90   14.20
   0   5 -15    6.70    2.40
   0   5  15   18.60   10.60
   0  -5 -15    3.20    3.70
   0   5  15   13.70   18.50
   0   0 -16   10.30    2.80
   0   0  16   11.30    7.80
   0   0  16   17.10   16.60
   0  -2  16  620.94   66.19
   0  -2 -16  786.02   60.19
   0   2 -16  798.02   60.19
   0   2  16  866.01   61.29
   0   4 -16    0.60    2.30
   0   4  16  -11.70    9.90
   0  -4 -16   -0.50    3.20
   0  -4  16    0.20   13.90
   0  -1  17  217.18   33.00
   0  -1 -17  268.87   20.60
   0   1  17  202.58   33.50
   0   1 -17  285.57   20.50
   0   3 -17  263.37   20.40
   0   3  17  260.07   23.60
   0  -3 -17  247.88   20.60
   0  -5 -17  114.39   11.40
   0   5  17  154.18   18.50
   0   5 -17  126.89   10.60
   0   0 -18  278.47   22.10
   0  -2 -18   37.60    4.50
   0  -2  18   15.30   16.00
   0   2 -18   48.20    5.00
   0  -1  19   28.40   17.40
   0   1 -19   66.59    6.30
   0  -1 -19   65.19    6.40
  -1   1   0   14.50    4.30
   1  -1   0   18.60    6.50
   1  -1   0    8.50    2.00
  -1  -1   0    7.00    2.40
   1   1   0    6.00    2.30
   1   1   0    3.50    1.10
   1  -1   0    0.30    3.80
   1   1   0    7.30    3.10
  -1  -1   0   -1.60    4.40
  -1  -1   0    9.40    3.70
   1  -3   0    0.60    3.80
  -1   3   0   24.60   10.20
   1   3   0   -1.80    6.80
  -1  -3   0    0.30    3.40
   1  -3   0    3.00    4.00
  -1  -3   0   -3.70    4.50
   1   3   0   -0.70    5.40
   1   3   0   -3.30   10.30
  -1   3   0    0.80    5.70
   1   3   0    6.10    5.20
   1   3   0    2.70    1.80
  -1   3   0    6.30    4.80
   1   3   0   -1.10    3.50
  -1   3   0    3.20    3.30
  -1   5   0    3.80    7.60
   1   5   0   -0.80    6.20
  -1  -5   0   -1.80    5.10
   1   5   0    2.40    5.80
   1   5   0    3.60    1.80
   1   5   0    1.60    3.80
  -1   5   0    3.00    8.10
  -1   5   0    0.10   10.80
  -1   5   0    4.40    6.40
   1   5   0    5.30   11.20
   1  -5   0   -2.60    5.50
   1   5   0    0.00   12.90
  -1  -5   0    5.10    5.10
  -1   5   0    0.20    3.80
   1   7   0   -2.60    8.70
  -1   7   0    5.30   10.60
   1   7   0   -2.10   14.50
   1  -7   0    1.10    6.90
  -1  -7   0   -0.80    6.40
  -1   7   0    4.40   14.10
  -1   7   0    9.30    8.80
   1   7   0    0.20    1.70
  -1   7   0   -8.20   14.30
  -1   7   0    4.80   11.00
   1   7   0    2.20   15.90
   1   9   0    2.90   27.60
   1   9   0  -12.50   16.20
   1   9   0    6.90   12.50
  -1   9   0   24.50   12.00
  -1   9   0   13.20   24.80
  -1   9   0  -10.70   16.40
   1   0  -1  209.28   16.80
   1   0  -1  198.28   16.20
  -1   0  -1  195.98   19.50
  -1   0   1  218.58   16.20
  -1   2   1 2496.75  186.18
   1  -2  -1 2451.05  186.28
   1   2   1 2271.77  186.38
  -1   2  -1 2302.07  185.88
  -1  -4  -1  534.95   42.00
  -1  -4  -1  574.24   41.70
  -1   4   1  450.55   42.60
  -1   4   1  505.55   41.30
   1   4  -1  519.95   41.70
   1   4  -1  564.74   44.10
   1  -4   1  593.34   42.10
   1   4  -1  464.55   45.70
   1  -4   1  518.75   41.90
  -1   4   1  559.54   41.80
  -1   4   1  466.35   45.30
  -1   4   1  572.94   44.10
   1   4  -1  460.45   42.70
   1   4  -1  586.94   43.50
   1   4  -1  549.95   41.40
  -1   4  -1  604.24   43.80
   1   4   1  430.06   46.30
   1  -4  -1  546.15   41.80
  -1   4  -1  473.25   42.50
  -1   4  -1  463.35   45.30
  -1   4  -1  524.65   41.70
   1   4   1  581.54   45.00
   1   4   1  535.15   41.80
   1   4   1  508.25   41.30
  -1   4  -1  572.14   41.50
   1   4   1  443.26   42.60
  -1  -4   1  596.34   42.00
  -1  -4   1  543.45   42.10
   1   6  -1  380.46   39.00
   1   6  -1  396.26   38.50
   1   6  -1  350.56   34.10
  -1   6   1  432.16   37.50
   1   6  -1  401.56   30.30
  -1   6   1  366.36   34.50
  -1   6   1  366.16   30.20
   1   6  -1  369.76   32.80
   1  -6   1  421.86   32.00
  -1   6   1  378.66   33.20
  -1  -6  -1  384.86   31.70
  -1   6   1  362.46   37.20
  -1   6   1  415.66   34.10
   1   6   1  380.36   33.00
  -1   6  -1  397.86   37.20
   1   6   1  424.16   39.50
  -1   6  -1  351.06   34.60
  -1   6  -1  380.06   32.90
  -1   6  -1  423.26   35.20
   1   6   1  361.36   34.10
   1   6   1  341.87   37.10
  -1   6  -1  387.96   30.30
   1  -6  -1  388.06   31.80
   1   6   1  380.36   30.10
  -1  -6   1  414.86   31.80
   1   8  -1   48.90    9.80
   1   8  -1   57.39   19.90
  -1  -8  -1   51.19    8.70
  -1   8   1   38.70   16.00
   1   8  -1   51.89    6.60
  -1   8   1   56.89   12.00
  -1   8   1   38.10   21.60
  -1   8   1   50.69   11.00
   1   8  -1   55.39   16.20
  -1   8  -1   16.40   16.30
   1   8   1   59.89   10.40
  -1   8  -1   43.20    9.40
   1  -8  -1   57.89    8.70
   1   8   1   43.70   25.60
  -1   8  -1   60.89   19.20
  -1   8  -1   39.10   12.70
   1   8   1   47.20   13.40
   1   8   1   29.30   15.60
   1  10  -1   36.00   31.70
  -1  10   1   26.20   13.00
   1  10  -1   36.50   13.40
   1  10   1   32.10   12.60
  -1  10  -1   30.80   13.20
  -1   1   2   29.40    8.60
  -1  -1  -2   21.40    2.00
   1  -1   2    9.10    9.30
   1  -1   2   17.60    2.20
   1   1  -2   16.70    1.90
  -1  -1  -2   14.40   16.20
  -1  -1  -2   13.10    9.20
   1   1  -2    6.70    6.40
  -1   1   2   14.00    1.60
  -1   1   2   19.90    5.10
   1   1   2   32.70   14.80
   1  -1  -2   15.80    1.80
  -1  -1   2   16.40    1.80
   1  -1  -2   28.00    5.30
  -1   1  -2   15.20    9.40
   1   1   2   14.00    1.80
  -1  -1   2    5.90    5.60
   1   1   2   15.70    3.30
   1  -1  -2   22.20    7.90
   1   1   2   37.60    9.00
  -1  -1   2   23.80    2.80
  -1  -1   2   20.40    4.40
  -1   3   2    7.50    3.60
   1  -3   2    5.70    3.90
  -1   3   2   -0.90   10.60
  -1  -3  -2    4.60    4.30
   1   3  -2   13.70    3.30
  -1  -3  -2   -0.20    2.30
   1   3  -2    0.40    7.30
  -1  -3  -2    1.60    6.20
  -1   3   2   10.20    8.50
  -1   3   2    5.50    1.40
   1   3  -2    3.10    2.50
   1  -3   2   -0.90    7.20
  -1   3   2   -2.00    5.00
  -1   3   2   20.40    6.80
   1   3  -2    5.00    3.30
   1   3   2   -2.50   11.40
  -1   3  -2   22.10    3.50
  -1   3  -2   10.00    8.30
  -1  -3   2    3.10    4.00
   1  -3  -2    3.70    2.50
   1  -3  -2    5.60   10.50
   1   3   2    1.00    3.30
  -1  -3   2    1.50    5.30
   1   3   2   -4.20    5.00
  -1   3  -2    5.80    2.90
  -1   3  -2   -0.30    4.30
   1   5  -2    2.50    9.40
   1   5  -2   17.40   12.30
   1   5  -2    6.30    8.00
  -1   5   2    2.50    6.70
  -1   5   2    3.30    3.50
   1   5  -2   12.40    3.90
  -1   5   2    2.00    5.90
   1   5  -2    6.00    5.80
  -1  -5  -2    6.30    3.90
   1  -5   2   -3.10    5.00
  -1   5   2    7.80   11.10
  -1   5   2    3.00    1.40
  -1   5   2    4.20   11.20
   1   5  -2    1.00    2.50
  -1   5   2    1.20    8.70
  -1   5  -2    5.00    3.40
  -1   5  -2   -3.90    5.70
  -1   5  -2   -2.50    7.70
   1   5   2   -0.10    6.70
  -1   5  -2    3.60   10.40
  -1   5  -2    8.50    2.70
   1   5   2   11.40   14.70
   1   5   2   -0.90    4.00
   1   5   2    7.80    6.00
  -1  -5   2   -3.80    5.40
   1   5   2   -6.60   11.90
   1   5   2   -0.10    1.30
   1  -5  -2   -1.90    4.00
   1   7  -2    2.10    7.60
  -1   7   2    5.60   13.70
   1   7  -2   27.80   14.10
  -1   7   2   -4.90    8.10
   1   7  -2    5.20    2.40
  -1   7   2    7.50   18.00
  -1  -7  -2   15.10    6.80
  -1   7   2    7.90   10.30
   1   7  -2   -4.70   15.60
   1   7  -2    4.80    4.20
   1   7   2    0.10    9.30
   1   7   2    8.00   14.30
  -1   7  -2   15.00   13.60
  -1   7  -2    5.80    7.60
  -1   7  -2   -0.20    4.30
   1   7   2   -5.80   10.80
  -1   7  -2   13.60   12.20
   1  -7  -2    0.30    6.70
   1   7   2   -2.80    8.80
   1   7   2    1.90   21.20
  -1  -9  -2   -2.90    7.60
   1   9  -2    8.80   17.20
  -1   9   2   -3.10   12.50
   1   9  -2   -1.80    9.60
   1   9  -2   -8.30   20.50
   1   9  -2   -3.90    5.00
   1   9  -2    0.20   12.90
   1  -9  -2   -0.40    8.30
   1   9   2   -3.50   12.40
  -1   9  -2  -18.10   16.10
  -1   9  -2    6.90   19.80
  -1   9  -2    6.00    4.70
  -1   9  -2    1.10   12.20
  -1   9  -2   -1.10    8.70
   1   9   2   -4.50   30.90
   1   0   3  705.93   51.79
   1   0  -3  698.53   52.89
  -1   0  -3  599.34   52.49
   1   0   3  609.04   52.49
  -1   0  -3  679.43   51.79
  -1   0   3  680.23   52.69
   1  -2   3   60.89    6.40
   1   2  -3   59.09    5.30
  -1  -2  -3   61.19   13.50
  -1   2   3   54.49    4.60
   1  -2   3   55.49    6.20
  -1   2   3   54.69    8.10
   1   2  -3   53.59    6.20
  -1  -2  -3   47.10    4.90
  -1   2   3   57.09   12.40
   1  -2   3   58.99   10.40
   1   2  -3   59.79   10.20
  -1  -2  -3   45.80   11.60
   1  -2  -3   55.89   11.50
  -1   2  -3   57.09    7.80
   1   2   3   63.09   18.90
  -1   2  -3   77.99   11.90
  -1  -2   3   48.60    5.60
  -1  -2   3   55.59    5.70
  -1   2  -3   59.19    4.80
  -1  -2   3   62.99    9.30
  -1   2  -3   63.29    5.70
   1   2   3   46.80    4.60
   1   2   3   43.70   11.80
   1  -2  -3   48.40    5.10
   1  -2  -3   61.69   10.80
  -1  -2   3   54.29    6.90
  -1   4   3  461.45   36.70
   1   4  -3  440.16   30.80
  -1   4   3  364.76   30.60
   1  -4   3  403.16   34.00
  -1  -4  -3  403.86   30.80
   1   4  -3  401.16   34.40
  -1   4   3  335.77   36.20
   1   4  -3  393.16   30.90
   1  -4   3  406.26   31.40
   1   4  -3  412.76   31.00
  -1   4   3  355.56   33.20
  -1   4   3  372.46   31.20
  -1   4   3  423.66   32.30
   1   4  -3  357.66   32.00
  -1   4  -3  373.36   35.00
  -1   4  -3  398.86   31.10
  -1   4  -3  404.86   30.80
  -1  -4   3  400.16   31.40
  -1   4  -3  372.96   30.90
  -1   4  -3  397.56   34.80
   1   4   3  406.66   31.20
   1   4   3  343.17   36.40
   1   4   3  372.16   30.60
  -1   4  -3  328.07   31.80
   1   4   3  450.75   40.20
   1   4   3  363.26   32.40
   1  -4  -3  397.96   30.90
  -1   6   3   -5.00   12.50
   1   6  -3    5.90    3.70
  -1  -6  -3    1.20    4.70
   1   6  -3    3.50    2.90
  -1   6   3   -8.00   15.50
   1   6  -3  -18.30   12.50
   1   6  -3   -0.70    3.30
  -1   6   3    1.90    1.70
  -1   6   3   -5.20    9.70
   1   6  -3   -3.60   10.90
  -1   6   3   -3.70    8.00
   1   6  -3   11.80    7.10
  -1   6   3   -7.30    7.90
   1   6   3    1.50    7.80
  -1   6  -3    3.90    3.70
  -1   6  -3    7.30   10.70
   1   6   3   15.70   19.50
  -1   6  -3  -10.50   10.70
  -1  -6   3   -2.30    6.00
   1   6   3   -6.60   10.60
  -1   6  -3    3.20    6.10
  -1   6  -3    5.40    3.00
   1   6   3  -11.60   12.50
   1  -6  -3    2.00    4.90
   1   6   3   -3.30    7.70
   1   6   3    1.70    1.40
  -1   6  -3    7.00    3.60
  -1   8   3   11.40   15.00
  -1   8   3   22.80    9.80
  -1   8   3   30.40   11.30
  -1  -8  -3   25.50    8.20
   1   8  -3   23.70   18.80
   1   8  -3   27.90    5.10
   1   8  -3   23.50   15.50
   1   8  -3   24.90    9.10
  -1   8   3   19.00   26.30
   1  -8  -3   11.50    7.90
  -1   8  -3   18.50   11.10
  -1   8  -3   35.20   15.20
   1   8   3   16.60   11.40
   1   8   3   26.60   15.80
  -1   8  -3   38.10    8.70
  -1   8  -3   28.90    4.80
  -1   8  -3   21.20   16.50
   1   8   3   28.00    9.90
   1   8   3    1.70   29.20
   1  10  -3  -22.50   23.90
  -1  10   3  -13.10   11.30
   1  10  -3    5.20   13.80
   1  10   3  -23.80   12.40
  -1  10  -3    2.80   12.60
  -1  10  -3    8.00   23.00
   1  -1   4   15.00    2.00
  -1   1   4   13.60    5.40
   1  -1   4   21.10   12.30
  -1   1   4    9.10    9.40
   1   1  -4   12.70    1.50
   1   1  -4   11.30    6.60
  -1  -1  -4   13.20    1.50
  -1   1   4    3.30   10.00
   1   1  -4   20.50    9.80
  -1  -1  -4   14.80    8.70
   1   1  -4   15.60    3.40
  -1  -1  -4   33.70   16.20
  -1  -1   4    7.30    4.80
   1   1   4   19.00    2.00
  -1  -1   4   16.80    8.20
   1   1   4    4.40    9.60
  -1  -1   4   14.20    1.70
   1  -1  -4    7.90    5.40
   1   1   4    1.70    5.50
   1  -1  -4    6.10    9.20
  -1   1  -4    9.70   10.30
   1   1   4   11.80   14.80
  -1   1  -4   16.10    1.80
  -1  -1   4   17.60    3.30
   1  -1  -4   20.00   13.60
  -1  -3  -4  238.88   23.40
   1   3  -4  232.68   18.40
   1   3  -4  210.38   19.20
   1   3  -4  251.07   18.10
   1   3  -4  240.88   24.20
  -1  -3  -4  229.98   18.20
  -1   3   4  246.48   18.90
   1  -3   4  234.18   18.70
  -1   3   4  210.08   25.60
   1  -3   4  234.18   24.10
  -1   3   4  252.57   29.30
  -1   3   4  218.78   18.00
  -1   3   4  227.18   21.30
   1   3   4  193.28   26.60
   1  -3  -4  198.18   24.90
  -1   3  -4  220.88   19.00
  -1   3  -4  198.78   19.30
   1  -3  -4  237.38   20.20
   1   3   4  221.58   18.00
   1   3   4  226.78   21.60
  -1  -3   4  230.18   18.90
  -1  -3   4  256.37   22.80
  -1  -3   4  213.38   20.00
  -1   3  -4  236.98   18.40
  -1   3  -4  229.08   18.20
  -1   3  -4  214.88   25.30
   1  -3  -4  238.38   18.30
   1   3   4  230.98   18.90
   1   3   4  262.77   34.00
  -1  -5  -4   16.70    3.80
  -1   5   4   21.70    2.30
   1  -5   4   27.20    5.50
   1   5  -4   30.80    3.40
   1  -5   4   21.80   10.30
  -1   5   4   18.50    4.50
  -1   5   4   26.40   13.00
   1   5  -4   26.20    4.00
   1   5  -4   30.90   11.00
  -1   5   4   25.40    7.10
   1   5  -4   18.80    3.80
  -1   5   4   25.90   18.20
   1   5  -4   23.20    6.30
  -1   5   4   22.00    9.30
   1   5   4   31.70   10.70
  -1   5  -4   29.70   11.50
   1   5   4    2.20   20.30
  -1   5  -4   18.80    3.50
  -1   5  -4   22.10   11.60
   1   5   4   19.30   12.40
  -1  -5   4   31.40    6.10
  -1   5  -4   18.80    3.80
  -1   5  -4   28.10    5.80
   1   5   4   21.80    6.20
   1   5   4   15.80    6.80
  -1   5  -4    9.10    3.40
   1  -5  -4   24.00    4.20
   1   5   4   23.40    2.30
   1   7  -4   -2.50   13.00
   1   7  -4    2.20    3.70
  -1   7   4   -2.00   13.20
  -1   7   4   11.30   24.40
  -1  -7  -4   -2.90    5.30
   1   7  -4  -13.40   13.40
  -1   7   4    1.40    8.70
  -1   7   4    6.80   10.10
   1   7  -4    5.80    7.90
  -1   7  -4  -19.70   12.20
  -1   7  -4    8.60   12.60
   1  -7  -4    1.50    6.00
  -1  -7   4    1.90    7.00
   1   7   4    7.90   13.70
  -1   7  -4    1.50    7.10
  -1   7  -4   10.70    4.00
   1   7   4   -3.20   11.50
   1   7   4    0.40    9.30
   1   7   4   18.50   26.30
   1   9  -4    1.50   15.80
   1   9  -4   13.40    9.70
  -1   9   4   17.30   12.30
   1   9  -4   -4.60   11.50
  -1  -9  -4    8.50    8.00
   1   9  -4    6.70    4.50
   1   9  -4    3.80   19.60
  -1   9  -4   11.00   19.80
  -1   9  -4   -3.50   11.20
   1  -9  -4    3.00    8.60
   1   9   4   16.00   11.60
  -1   9  -4    7.60    4.50
   1   0   5  419.36   36.40
   1   0  -5  465.55   35.20
  -1   0  -5  420.36   35.00
  -1   0  -5  387.86   36.50
   1   0   5  462.05   35.00
  -1   0   5  440.86   36.30
   1   0  -5  436.86   37.10
  -1   0   5  493.65   34.90
  -1   2   5   39.90   11.70
  -1   2   5   53.19   12.10
   1   2  -5   45.60   11.20
  -1  -2  -5   20.80    9.70
  -1  -2  -5   26.60   18.50
  -1   2   5   29.90    3.40
  -1   2   5   23.80    7.30
   1   2  -5   42.60    4.40
   1   2  -5   41.20    3.60
   1   2  -5   33.40    6.30
   1  -2   5   38.30    4.50
   1  -2   5   46.00   11.80
  -1  -2  -5   28.20    3.70
  -1  -2   5   33.40    4.30
   1   2   5   40.60    4.70
   1  -2  -5   38.70   16.10
   1  -2  -5   34.50    3.90
   1   2   5   31.10    7.50
  -1  -2   5   46.10    9.90
  -1  -2   5   46.10    4.50
   1  -2  -5   17.60   10.20
  -1   2  -5   39.60    3.90
  -1   2  -5   43.40   11.70
   1   2   5   51.19   16.10
   1   2   5   34.30    3.40
   1   2   5   37.10   11.50
  -1  -2   5   36.30    5.90
  -1  -4  -5  150.28   16.70
   1   4  -5  169.78   12.20
   1   4  -5  129.79   14.30
   1   4  -5  154.08   12.70
  -1  -4  -5  148.79   12.40
   1  -4   5  162.48   20.60
  -1   4   5  154.28   17.30
  -1   4   5  133.59   28.50
   1   4  -5  140.49   20.90
   1  -4   5  158.18   13.60
  -1   4   5  142.79   12.00
  -1   4   5  139.99   13.30
  -1   4   5  152.08   17.50
   1   4  -5  148.69   13.40
   1  -4  -5  159.18   18.30
  -1   4  -5  150.58   22.30
  -1   4  -5  140.39   12.50
  -1   4  -5  128.69   14.10
   1   4   5  151.58   32.20
  -1   4  -5  179.98   13.40
  -1  -4   5  167.58   18.80
  -1  -4   5  151.28   13.80
  -1  -4   5  144.39   15.30
   1  -4  -5  152.98   12.50
   1   4   5  149.39   19.20
   1   4   5  146.89   12.00
  -1   4  -5  159.78   12.30
   1   4   5  146.69   13.30
   1   4   5  172.48   15.40
  -1   6   5   10.30    8.30
  -1   6   5   12.50   10.00
  -1  -6  -5   29.60    4.80
  -1   6   5   13.90   12.80
   1   6  -5   18.50    4.00
  -1   6   5   18.30    8.30
   1   6  -5   22.70    4.10
   1   6  -5   11.00   14.20
   1   6  -5   25.30   13.00
   1  -6   5   16.10    6.50
  -1   6   5   32.40   23.30
   1   6  -5   20.20    7.20
  -1   6  -5    7.40    6.40
  -1  -6   5   25.20    6.70
   1   6   5   27.60   10.30
  -1   6  -5   12.50    3.90
   1   6   5   11.60    8.00
   1   6   5    9.30   25.50
   1   6   5   10.40   13.70
  -1   6  -5   10.30    3.30
   1   6   5   13.90    8.70
   1  -6  -5   17.80    4.60
  -1   6  -5   22.60    4.20
  -1   6  -5   11.40   14.00
   1   8  -5   26.70    9.10
   1   8  -5   19.90   15.50
   1   8  -5   22.60   14.60
  -1   8   5   42.30   11.40
   1   8  -5   33.80    4.30
  -1  -8  -5    5.20    6.30
  -1   8   5   22.50   10.60
  -1   8   5   13.80   15.50
  -1   8  -5   43.40   16.30
   1   8   5   36.10   11.30
  -1   8  -5   13.00   14.70
  -1   8  -5   31.30    9.30
  -1   8  -5   34.10   11.60
   1   8   5    9.00   15.00
   1  -8  -5   22.50    6.70
   1   8   5    2.10   33.30
  -1   8  -5   26.30    4.30
   1   8   5   35.70    9.90
  -1  -1  -6   90.39    7.90
   1   1  -6   93.59   19.50
   1   1  -6  103.99    9.70
   1  -1   6   99.99   21.70
  -1  -1  -6  108.09   12.20
   1  -1   6  103.89    8.10
   1   1  -6   91.09   14.30
  -1   1   6  104.29   12.00
  -1   1   6  102.69    7.90
  -1   1   6   88.09   11.00
  -1   1   6   86.39   18.90
   1   1  -6   99.49    7.90
   1   1   6  104.59   22.60
  -1  -1   6  113.39   17.30
   1  -1  -6   86.49    8.00
  -1   1  -6   98.99    7.90
  -1  -1   6   89.69   11.20
  -1   1  -6  102.29   21.90
   1   1   6  101.09    7.90
   1  -1  -6   84.49   10.90
  -1  -1   6  101.39    8.00
   1   1   6   86.29   11.10
   1   1   6  116.09   17.00
   1  -1  -6  111.39   12.50
  -1  -1   6   94.99    9.30
   1   3  -6   64.89    7.10
  -1  -3  -6   45.30   12.60
   1  -3   6   66.59    7.70
   1  -3   6   64.99    6.90
  -1  -3  -6   62.49    6.20
   1   3  -6   75.19    8.20
  -1   3   6   79.39   13.50
  -1   3   6   78.59    9.60
  -1  -3  -6   83.39   15.20
  -1   3   6   64.89   13.90
   1   3  -6   73.59    6.00
   1  -3   6   94.39   13.60
  -1   3   6   73.29    8.20
   1   3  -6   85.79   12.90
  -1   3   6   62.69    5.80
   1   3   6   64.79    5.80
  -1  -3   6   74.89    6.70
  -1  -3   6   65.49    7.90
   1  -3  -6   70.59    6.30
   1   3   6   40.70   13.10
  -1   3  -6   49.60    6.60
  -1  -3   6   72.29    8.00
  -1   3  -6   54.19    8.50
   1  -3  -6   69.29   13.20
  -1  -3   6   83.09   16.50
   1   3   6   74.69    9.90
   1  -3  -6   89.99   13.00
   1   3   6   75.49   18.20
  -1   3  -6   70.59   12.90
  -1   3  -6   77.99    6.20
   1   3   6   71.99    7.90
   1   5  -6    9.40    4.60
  -1   5   6    4.00   18.50
  -1   5   6    9.30    6.50
  -1   5   6    6.10    9.00
  -1  -5  -6    8.50    3.20
  -1   5   6   15.20   13.90
   1   5  -6   13.70    2.50
  -1   5   6    7.60    1.80
   1  -5   6   13.20    5.70
   1   5  -6    8.20    3.70
   1   5  -6   10.90    6.10
   1  -5   6    8.20   10.60
  -1  -5   6    8.00    5.70
   1   5   6    7.80   12.80
  -1   5  -6    8.20    2.60
   1   5   6   -4.30    9.70
  -1   5  -6    5.50    3.20
  -1   5  -6   13.60    5.00
   1  -5  -6    9.70    3.60
   1   5   6    6.20   21.90
  -1   5  -6    5.60    5.30
   1   5   6    7.80    7.10
  -1   5  -6    5.10   13.30
   1   5   6   11.30    1.80
  -1   7   6   -3.80   10.40
   1   7  -6    1.40    3.10
  -1   7   6  -12.40   23.90
  -1  -7  -6    7.00    5.20
   1   7  -6   -5.30   13.10
  -1   7   6   -3.90    9.90
   1   7  -6  -14.20   15.40
   1   7  -6    3.90    7.90
  -1   7   6  -11.00   14.70
   1   7   6   21.20   28.20
  -1  -7   6    0.70    6.90
  -1   7  -6   -2.40   14.70
   1   7   6    4.10   10.10
  -1   7  -6    3.60    3.00
   1   7   6   -3.90   10.80
  -1   7  -6  -14.40    6.60
   1   7   6    5.10   14.70
   1  -7  -6   -0.20    4.70
   1   9  -6   42.00   13.40
   1   9  -6   11.90   19.50
  -1  -9  -6   18.10    8.00
  -1   9   6    3.60   10.40
  -1   9  -6   12.40    4.10
   1  -9  -6    9.70    7.60
  -1   9  -6    8.40   16.50
  -1   9  -6   14.10   13.70
   1   9   6    8.70   12.10
   1   0   7   13.00    4.00
   1   0   7    1.80    6.80
  -1   0  -7    7.70    7.70
   1   0  -7   19.20    4.70
  -1   0   7    6.60    6.80
   1   0   7   20.80   14.10
   1   0  -7   13.50    8.60
  -1   0   7   12.10    1.60
   1   0  -7   12.50    1.60
  -1   0  -7   11.00    1.60
  -1   0   7   11.40   11.30
   1   0   7   10.60    1.70
  -1   0  -7   13.20    4.40
   1   0  -7    5.10   12.50
  -1   0  -7   -2.00   14.80
  -1   0   7   14.00    4.30
  -1  -2  -7   22.70   17.30
   1   2  -7   43.40   12.20
  -1  -2  -7   30.40    3.10
  -1  -2  -7   15.40   10.10
   1   2  -7   21.30    7.60
  -1   2   7   24.50   10.80
   1   2  -7   30.70    4.40
   1  -2   7   52.99   12.70
  -1   2   7   32.80   11.00
   1   2  -7   29.50    3.30
  -1   2   7   30.10    3.10
  -1   2   7   21.40    6.90
   1   2   7   35.40   14.70
   1  -2  -7   28.90   16.20
  -1  -2   7   28.00    5.20
   1   2   7   -0.20   11.60
   1   2   7   30.20    7.30
   1  -2  -7   33.40    3.10
  -1   2  -7   28.30    3.60
  -1  -2   7   56.29   11.20
  -1   2  -7   35.70   11.80
  -1  -2   7   33.00    4.10
   1   2   7   38.50    4.70
  -1  -2   7   27.10    3.00
   1  -2  -7   28.70   10.30
   1   2   7   33.60    3.10
  -1   4   7   65.99   14.60
   1   4  -7   69.89    7.70
   1  -4   7   54.29   13.30
  -1   4   7   39.20    5.50
   1   4  -7   31.70   13.90
  -1  -4  -7   47.00   11.70
   1   4  -7   51.29    6.20
  -1   4   7   50.69   10.20
  -1   4   7   44.20    4.50
   1   4  -7   50.59    4.80
  -1  -4  -7   45.00    5.50
   1  -4  -7   51.49   15.10
   1   4   7   41.10   13.60
  -1   4  -7   39.40    5.60
   1   4   7   46.10    4.50
   1   4   7   66.39   10.30
   1   4   7   40.80    5.70
  -1   4  -7   56.19    5.10
  -1  -4   7   55.69   11.40
   1  -4  -7   45.70    5.80
  -1  -4   7   61.69    7.90
  -1   4  -7   53.99    6.60
  -1  -4   7   58.69    6.40
   1   4   7   21.80   17.60
  -1   4  -7   31.20   13.10
   1   6  -7   25.90    4.90
  -1   6   7   39.00   15.00
   1   6  -7   35.70    3.70
   1   6  -7   32.20    6.10
   1   6  -7   35.00   16.70
  -1   6   7   35.40   10.20
  -1   6   7   45.00    9.70
  -1  -6  -7   32.50    5.10
   1  -6   7   39.80   13.50
   1  -6   7   27.60    6.70
   1   6  -7   27.10    7.70
   1   6   7   15.70   23.40
  -1   6  -7    7.70   15.80
  -1  -6   7   32.20    7.70
  -1   6  -7   26.70    6.70
   1  -6  -7   30.20    5.30
  -1   6  -7   38.00    3.90
   1   6   7   27.90   12.30
   1   6   7   32.10   14.40
   1   6   7   32.00   10.20
   1   8  -7    2.20    3.00
  -1   8   7   -1.90   10.20
  -1  -8  -7   -4.00    5.50
   1   8  -7    5.10   14.80
  -1   8  -7    3.40   14.40
   1  -8  -7    2.90    5.70
   1   8   7    1.40   11.40
  -1   8  -7    3.60    3.20
  -1   8  -7    8.30   13.30
   1   1  -8   90.49    7.50
   1  -1   8   87.59    7.60
   1   1  -8   92.29   20.20
  -1   1   8   96.29   19.80
  -1  -1  -8   88.69    7.50
  -1  -1  -8   88.39   12.50
  -1  -1  -8  135.79   20.90
  -1   1   8   94.79    7.50
   1  -1   8  117.19   17.10
   1   1  -8   83.69    9.30
  -1   1   8   78.59   10.80
   1   1  -8   95.69   11.40
  -1   1   8   94.29   12.00
  -1  -1   8   78.69   11.80
   1  -1  -8   92.29   12.60
   1   1   8   87.89   10.70
   1  -1  -8   88.89    7.60
  -1   1  -8  109.29   16.60
   1  -1  -8   89.19   10.30
  -1  -1   8   85.09    9.30
   1   1   8   90.49    7.50
  -1  -1   8   85.39    7.60
   1   1   8  105.79   16.90
  -1  -1   8  109.29   18.70
   1  -1  -8  118.09   24.30
   1   1   8  100.39   11.60
  -1   1  -8   90.09    7.60
  -1  -3  -8   -0.60   11.70
   1   3  -8    5.40    1.80
  -1   3   8    7.00   12.10
   1   3  -8   -0.80   11.60
  -1  -3  -8    6.60    2.20
  -1  -3  -8    4.60   17.70
   1  -3   8    9.10   13.10
   1  -3   8    8.40    2.80
   1   3  -8    4.00    7.20
  -1   3   8   -0.50    7.50
  -1   3   8    3.70    1.30
   1   3  -8   -0.10    3.40
  -1   3   8   -2.80   11.70
  -1   3   8    2.00    4.20
   1   3   8    5.50    3.80
  -1  -3   8    1.80    4.00
   1   3   8    5.40    8.20
  -1  -3   8    8.40    5.40
   1  -3  -8   -0.60   11.50
  -1   3  -8   12.90   12.10
   1   3   8    4.50   15.80
   1  -3  -8   -1.10   15.10
   1  -3  -8    3.30    2.30
   1   3   8    5.20    1.30
  -1  -3   8    2.80    2.60
  -1  -3   8    7.60   10.40
   1   3   8    0.40   13.10
  -1   3  -8    8.20    1.90
  -1  -5  -8   12.90    8.20
   1  -5   8    5.00    5.70
  -1   5   8    0.60   14.00
   1   5  -8   -1.60    4.10
  -1  -5  -8    7.20    3.40
   1  -5   8    5.80   11.80
   1   5  -8    2.20    4.70
   1   5  -8   13.50    6.80
  -1   5   8    6.50    9.30
   1   5  -8    7.50    2.40
  -1   5  -8   18.10   14.10
   1  -5  -8   -0.30    3.40
   1   5   8   18.40   10.70
  -1  -5   8    5.70   11.00
   1   5   8   -6.30   14.80
   1   5   8   -3.50   18.70
  -1   5  -8    9.60    6.00
  -1  -5   8   11.00    5.80
  -1   5  -8    7.10    3.50
  -1   5  -8   10.70    2.40
   1   7  -8    0.50    8.10
   1   7  -8  -19.50   17.60
  -1  -7  -8   13.10    5.40
  -1   7   8    9.60    9.50
   1   7  -8    8.20    2.70
  -1   7   8   -1.20    9.80
   1   7  -8   15.10   13.80
  -1   7   8   17.30   15.10
   1   7   8   10.10   15.90
   1  -7  -8    9.50    4.70
  -1   7  -8    6.40    8.60
  -1  -7   8   14.00    7.20
   1   7   8   11.40   11.10
   1   7   8   13.00    9.70
  -1   7  -8   -3.50   27.70
  -1   7  -8    6.40    3.00
   1   9  -8    0.10   17.20
  -1  -9  -8   -4.40    6.60
  -1   9   8   11.50   10.10
   1   9   8   20.30   11.30
  -1   9  -8    2.10   15.80
   1  -9  -8    3.50    6.40
  -1   0   9   58.49    5.40
  -1   0  -9   63.69    5.40
   1   0   9   58.39    8.50
  -1   0  -9   43.10    6.70
  -1   0   9   64.19    6.70
  -1   0   9   52.69    8.60
  -1   0  -9   88.79   16.90
   1   0   9   91.29   16.90
   1   0   9   54.79    6.50
   1   0   9   64.19    5.40
  -1   0  -9   57.09   10.70
   1   0  -9   53.59   11.00
  -1   0   9   88.79   14.40
   1   0  -9   59.19    5.40
   1  -2   9   88.49    8.40
   1   2  -9  102.99   16.10
  -1  -2  -9  101.89    8.30
   1   2  -9   89.59    9.90
  -1  -2  -9  101.09   14.60
   1   2  -9  111.49   12.20
  -1   2   9  119.89   21.40
  -1   2   9  105.49   12.50
  -1   2   9   88.59    8.00
  -1   2   9  104.89   13.30
   1   2  -9  101.79    8.10
   1  -2   9  106.79   22.00
  -1  -2  -9   91.39   21.80
  -1   2  -9   96.89   17.20
  -1  -2   9   80.79   10.90
   1   2   9  103.99   15.00
   1   2   9   93.99    8.00
   1  -2  -9  112.19   21.30
  -1  -2   9   94.29   20.60
  -1   2  -9  101.69    8.20
  -1  -2   9   94.19    8.30
  -1  -2   9   91.39    9.40
   1  -2  -9  100.89    8.30
   1   2   9  108.59    9.80
   1  -2  -9  104.39   14.60
   1   2   9  123.19   11.00
   1   2   9   94.99   17.60
   1   4  -9    0.70    7.90
  -1   4   9   -0.30   12.30
  -1   4   9    6.90   13.20
   1   4  -9    0.60    2.10
   1   4  -9    3.30    4.10
  -1  -4  -9   -2.30    2.80
   1  -4   9   -8.90   13.40
  -1   4   9    6.60    8.60
  -1  -4  -9   -8.50   14.40
  -1  -4   9   -1.70    4.80
   1   4   9    2.50    9.60
   1  -4  -9  -12.60   14.20
   1   4   9   15.80   14.60
  -1  -4   9    0.70    2.70
   1  -4  -9    1.10    2.80
  -1  -4   9    3.60   10.80
  -1  -4   9   -5.50    6.30
   1   4   9   -1.10   16.80
  -1   4  -9    0.00    2.10
   1   6  -9   34.00    3.40
   1   6  -9   14.60   17.30
   1  -6   9   19.30   12.70
  -1   6   9   22.70   15.50
   1  -6   9   29.60    6.60
  -1  -6  -9   30.40    4.90
   1   6  -9   24.20    8.40
  -1   6   9   23.10   10.70
  -1   6  -9   22.40    3.40
  -1   6  -9   50.09   16.90
   1   6   9    0.60   19.40
   1   6   9   51.29   10.50
  -1   6  -9   31.50    8.10
  -1  -6   9   38.50    7.80
   1   6   9   31.20   16.40
   1  -6  -9   39.90    5.50
   1   6   9   34.10   11.60
  -1   8   9    4.10   11.00
  -1  -8  -9    1.20    5.30
   1   8  -9    1.20   15.20
   1   8  -9    5.50    2.90
   1  -8  -9    3.50    5.40
  -1   8  -9    5.20   14.70
  -1   8  -9    3.90    3.00
   1   8   9   18.80   10.50
  -1  -1 -10   10.50   19.80
   1   1 -10   16.90    9.10
  -1   1  10   22.30    8.90
   1  -1  10    0.90   15.10
   1  -1  10    6.30    1.90
   1   1 -10   13.30    4.50
  -1   1  10   -0.70   13.40
  -1   1  10    7.00    1.50
   1   1 -10    0.80   13.60
  -1  -1 -10   10.70    1.90
  -1  -1 -10   16.20   10.70
   1   1 -10    6.30    1.90
  -1   1  10    4.20    5.80
  -1   1 -10   18.50   14.30
   1   1  10   14.00    5.80
   1  -1 -10    6.40    2.00
   1   1  10    5.70    1.60
   1   1  10   -2.40   16.30
  -1   1 -10    9.00    2.00
  -1  -1  10    6.20    4.80
  -1  -1  10    8.50    1.90
   1  -1 -10   10.50    5.60
  -1  -1  10   -6.80   11.90
   1  -1 -10   25.20   17.30
   1   1  10    6.10    8.90
   1  -1 -10   10.70   11.20
  -1  -1  10   12.90    6.50
   1   3 -10   34.30    9.40
  -1  -3 -10   34.20    3.30
  -1   3  10    4.60   13.80
   1   3 -10   28.00    2.90
  -1   3  10   33.80   13.00
  -1   3  10   11.70    5.40
  -1  -3 -10   49.00   14.30
  -1  -3 -10   12.70   21.80
   1  -3  10    8.00   14.70
  -1   3  10   40.50    9.00
  -1  -3  10   23.60    4.90
   1  -3 -10   33.40   14.20
  -1  -3  10   41.30    6.60
  -1  -3  10   10.90   12.40
   1   3  10    7.20   15.90
   1   3  10   23.40   14.10
  -1   3 -10   31.20    3.10
   1   3  10   32.40    9.20
   1   3  10   20.20    4.90
   1  -3 -10   29.20   20.10
  -1  -3  10   25.60    3.60
   1  -3 -10   32.10    3.40
   1   5 -10   24.00    9.10
   1  -5  10   14.10   12.30
  -1   5  10   31.20   10.20
  -1   5  10    7.40   14.50
   1   5 -10   23.50    3.00
  -1  -5 -10   21.00    4.10
   1   5  10   14.70   17.80
   1  -5 -10   21.60    4.10
  -1   5 -10   20.80    3.00
   1   5  10   22.40   15.20
  -1  -5  10   19.00   12.30
  -1  -5  10   13.70    6.20
   1   5  10   19.20   10.30
   1   7 -10    2.20    2.70
  -1   7  10    4.00   10.10
  -1   7  10   26.90   17.80
  -1  -7 -10    2.30    4.50
  -1   7 -10   -0.60    2.70
   1   7  10   -4.80   11.60
  -1  -7  10  -13.30    7.40
   1  -7 -10   -0.60    4.60
   1   7  10   -2.40   15.50
  -1   0 -11  304.07   33.80
   1   0  11  358.66   31.30
  -1   0  11  397.16   29.80
  -1   0 -11  368.76   40.30
   1   0 -11  338.87   30.10
  -1   0  11  388.66   31.30
   1   0  11  364.76   29.70
  -1   0  11  431.06   36.70
   1   0 -11  370.46   29.00
  -1   0 -11  380.46   29.00
   1   0 -11  370.46   38.30
   1   0  11  406.06   39.30
   1   0 -11  314.87   33.80
  -1  -2 -11   30.20   14.10
   1   2 -11   54.69    7.20
   1  -2  11   83.59   16.50
   1   2 -11   67.19    5.70
  -1   2  11   66.89   15.40
  -1   2  11   80.49    9.30
  -1  -2 -11   64.49   23.70
   1   2 -11   51.59   11.30
  -1  -2 -11   57.39    6.00
  -1   2  11   81.39   13.20
   1  -2 -11   62.79    6.00
   1   2  11   74.99    8.90
   1   2  11   60.99    7.90
  -1  -2  11   73.49   15.40
  -1  -2  11   52.19    7.80
  -1   2 -11   61.19    5.90
   1  -2 -11   57.69   14.20
   1   2  11   66.09   12.20
   1  -2 -11   70.39   23.00
   1   2  11   74.79   19.00
  -1  -4 -11  205.68   17.20
  -1   4  11  247.88   22.50
   1  -4  11  222.28   28.50
  -1   4  11  224.38   28.70
   1   4 -11  222.48   16.90
  -1  -4  11  196.18   26.00
   1   4  11  163.78   29.80
   1  -4 -11  215.38   30.90
   1  -4 -11  217.38   17.20
   1   4  11  213.08   22.50
   1   4  11  170.78   23.90
  -1  -4  11  210.68   19.70
  -1   4 -11  221.08   16.90
  -1   6  11   34.50   15.60
   1  -6  11   33.70   14.30
   1   6 -11   40.60    4.00
  -1   6  11   32.50   11.00
  -1  -6 -11   27.40    5.00
   1   6  11   48.90   11.00
   1   6  11   34.20   11.60
   1  -6 -11   36.00    5.20
   1   6  11   32.70   17.00
  -1   6 -11   41.70    4.10
  -1  -6  11   30.50    8.30
  -1   8  11   35.30   11.40
  -1  -8 -11   16.40    5.90
   1   8 -11   41.40   16.70
  -1   8 -11   21.60   16.40
   1  -8 -11   31.90    6.00
  -1   8 -11   39.80    4.10
   1   8  11   34.20   11.20
  -1   1  12  246.08   20.30
  -1  -1 -12  189.48   27.60
   1  -1  12  292.07   31.30
  -1   1  12  215.08   23.40
  -1   1  12  257.77   28.50
  -1  -1 -12  253.47   38.30
   1   1 -12  213.28   25.50
   1   1 -12  231.88   18.60
  -1  -1 -12  227.18   18.60
   1  -1 -12  240.18   18.70
  -1   1 -12  240.78   18.60
   1  -1 -12  210.58   27.70
  -1  -1  12  200.58   21.40
   1  -1 -12  246.98   35.20
   1   1  12  252.67   32.20
  -1  -1  12  230.98   19.70
   1   1  12  236.58   20.30
  -1  -1  12  262.27   28.70
   1   1  12  230.58   23.40
  -1  -3 -12   98.49    8.80
  -1   3  12  110.39   23.40
  -1  -3 -12   68.59   17.40
  -1   3  12   86.79   11.40
   1   3 -12  104.39    8.40
   1  -3  12  114.39   24.20
  -1   3  12   94.69   15.40
   1  -3 -12  101.29    8.90
  -1  -3  12  120.29   22.60
   1   3  12  104.09   12.10
   1   3  12   89.29   15.70
  -1   3 -12  101.79    8.50
   1   3  12   90.79   20.90
   1  -3 -12   95.99   18.20
  -1   5  12   31.40   15.70
   1   5 -12   54.89    5.50
  -1   5  12   49.60   11.30
   1  -5  12   44.00   14.40
  -1  -5 -12   50.79    5.60
  -1  -5  12   52.29   13.70
   1   5  12   40.90   16.80
   1   5  12   51.09   12.50
   1  -5 -12   55.79    5.80
  -1   5 -12   59.09    5.60
  -1  -7 -12   37.90    5.80
  -1   7  12    8.40   11.40
   1   7 -12   29.00    3.50
   1   7  12   30.50   11.60
   1  -7 -12   18.80    5.20
  -1   7 -12   24.90    3.50
  -1   0 -13   19.90   12.40
   1   0  13    2.20    5.20
   1   0 -13    9.10   12.60
  -1   0 -13   -0.50    2.20
   1   0 -13    8.90    6.20
  -1   0  13    4.00    8.00
   1   0  13   10.40    8.00
  -1   0  13    6.20    5.80
   1   0 -13    0.00    2.10
  -1   0  13    1.70   13.30
   1   0  13   -2.60   16.00
  -1   2  13   22.40   11.30
   1   2 -13   28.80    3.10
  -1   2  13   39.10    7.60
   1  -2  13   20.10   15.90
  -1  -2 -13   27.10    3.40
  -1  -2 -13   27.00   15.20
  -1   2  13   15.90   14.80
   1  -2 -13   31.70    3.40
   1   2  13   32.80   18.40
  -1   2 -13   27.80    3.10
   1   2  13   31.50    8.30
   1   2  13   28.20   11.80
   1  -2 -13   23.30   15.20
  -1  -2  13   18.00   14.70
  -1   4  13   14.30   13.50
  -1   4  13   24.80    8.90
  -1  -4 -13   19.90    3.40
   1   4 -13   15.60    2.60
   1  -4  13   14.00   15.60
   1   4  13   12.60   14.60
   1  -4 -13   19.40    3.40
  -1  -4  13   18.30   13.60
  -1   4 -13   13.60    2.60
   1  -4 -13    6.50   17.00
   1   4  13   39.30   10.30
   1   4  13   14.60   18.70
  -1  -6 -13    0.10    4.40
   1  -6  13   11.10   13.10
  -1   6  13   11.90   10.70
   1   6 -13    3.30    2.40
   1   6  13   19.60   12.40
  -1   6 -13    3.00    2.50
   1  -6 -13   -8.60    4.30
  -1  -1 -14  -11.90   14.10
   1   1 -14    4.60   12.70
  -1  -1 -14    3.20    2.30
   1   1 -14    5.30    2.30
   1  -1  14   10.70   15.20
  -1   1  14   12.90    9.00
  -1   1  14   11.70   14.10
  -1   1  14    4.80    6.50
  -1  -1  14    2.40    5.60
   1  -1 -14   11.40   14.40
   1   1  14    0.70    8.90
   1  -1 -14    5.40    2.60
  -1  -1  14    6.50   14.80
  -1   1 -14    7.60    2.30
   1   1  14   18.80   18.20
  -1  -1  14    4.30    7.50
   1   1  14   14.40    6.40
  -1   3  14   -0.60    8.80
  -1   3  14   -3.10   13.70
   1   3 -14    1.80    2.20
  -1   3  14    0.70   12.60
  -1  -3 -14    3.00    2.80
   1  -3  14    1.90   15.50
   1   3  14   -6.90   18.10
   1  -3 -14    4.60   16.90
  -1  -3  14   -3.20   14.70
   1   3  14   -4.90    9.10
  -1   3 -14    3.80    2.30
   1  -3 -14   -2.20    2.90
   1   3  14   12.00   13.20
  -1  -5 -14   -4.10    3.40
  -1   5  14    1.00   14.20
   1   5 -14   -1.90    2.30
  -1   5  14    2.60    9.90
   1  -5  14   -8.20   14.10
   1   5  14   -4.60   10.50
   1  -5 -14    0.90    3.90
   1   5  14   11.40   15.80
   1   5  14    7.70    9.50
  -1  -5  14   -2.50   13.30
  -1   5 -14    0.80    2.40
  -1  -7 -14   -2.00    4.70
  -1   7  14   -0.30   10.20
   1   7 -14    2.10    2.70
   1  -7 -14   -1.60    5.30
   1   7  14    2.50   11.30
  -1   7 -14   -0.50    2.60
  -1   0  15   74.59   17.70
   1   0 -15   75.69   16.20
  -1   0  15   70.59   11.50
  -1   0  15   83.29    9.30
   1   0 -15   71.29    6.90
  -1   0 -15   82.89    6.80
   1   0  15   45.80   17.60
   1   2 -15   -0.40    2.50
  -1  -2 -15    1.60    2.70
  -1   2  15    7.00    7.30
   1  -2  15  -10.40   16.00
  -1   2  15   -6.10   10.10
  -1   2  15    4.30   14.20
  -1  -2  15    5.60   14.20
   1   2  15   -5.40   17.60
   1  -2 -15   -4.40   16.30
  -1   2 -15    1.40    2.40
   1  -2 -15   -0.90    2.60
   1   2  15    4.70   10.40
   1   2  15    1.70    7.20
  -1  -4 -15   19.90    3.50
   1  -4  15    6.90   14.60
  -1   4  15   25.50    9.90
   1   4 -15   15.00    2.60
  -1   4  15  -15.30   13.30
  -1   4 -15   17.00    2.80
   1   4  15   12.50   10.50
   1   4  15   29.80   15.90
  -1  -4  15    8.10   13.70
   1  -4 -15   13.90    3.30
   1  -6  15    5.70   13.40
   1   6 -15    1.50    2.60
  -1   6  15    6.80   10.10
  -1  -6 -15   -1.90    4.20
  -1   6 -15    4.90    2.50
   1  -6 -15    4.40    4.30
   1   6  15    0.00   10.50
  -1   1  16   -1.30   15.30
   1   1 -16   -2.10    2.40
  -1   1  16   10.40    6.80
   1  -1  16   -5.30   17.00
  -1  -1 -16    4.90    2.60
  -1  -1  16   -0.60   15.10
  -1   1 -16   -2.70    2.50
   1   1  16   -9.50    5.90
   1  -1 -16   -2.70    2.50
   1   1  16   -6.60   15.90
   1   3 -16   -1.20    2.70
  -1   3  16    4.60   12.40
  -1  -3 -16    3.40    3.00
   1  -3  16   -7.20   15.30
  -1   3  16    8.70    7.90
  -1   3 -16   -0.50    2.40
   1  -3 -16   12.60   21.70
  -1  -3  16   11.10   13.50
   1  -3 -16   -1.00    3.10
   1   3  16  -17.00    8.40
  -1  -5 -16    2.80    3.90
   1  -5  16    4.50   13.90
  -1   5  16    2.70   10.30
   1   5 -16   -0.70    2.40
  -1   5 -16    4.50    2.70
   1   5  16    0.10   11.00
  -1  -5  16   -4.30   13.70
   1  -5 -16    3.50    3.90
   1   0  17  -11.70   16.70
  -1   0  17    3.10   15.90
  -1   0 -17   10.60    2.70
   1   0 -17    6.10    2.80
   1  -2  17   -6.90   16.10
  -1  -2 -17    3.00    2.80
  -1   2  17   -3.70    7.40
   1   2 -17    1.10    2.40
   1   2  17   -4.80    8.40
   1   2  17   -7.10   16.60
   1  -2 -17    1.80    3.10
  -1  -2  17    4.60   15.40
  -1   2 -17   -1.00    2.40
   1  -4  17    3.20   14.00
  -1  -4 -17    7.20    3.30
   1   4 -17    2.20    2.70
  -1   4  17    2.00    8.90
  -1  -4  17    8.70   14.20
   1  -4 -17   -1.60    3.20
   1   4  17   -5.90    9.70
  -1   4 -17    3.10    2.70
   1  -1  18   17.40   17.30
  -1   1  18   -1.40   20.00
   1   1 -18   19.90    3.20
  -1  -1 -18   22.10    3.10
   1  -1 -18   21.60    3.30
  -1  -1  18    9.30   15.70
  -1   1 -18   19.10    3.10
   1   1  18    9.00   18.00
  -1  -3 -18    6.80    3.10
   1  -3  18    6.00   14.60
   1   3 -18    7.20    2.80
   1  -3 -18    0.60    3.20
  -1  -3  18    5.30   14.10
  -1   3 -18    3.00    2.80
  -1   0  19    9.50   16.10
   1   0  19    5.40   17.20
   1   0 -19    9.70    2.90
  -1   0 -19    4.60    3.00
   1   2 -19    2.80    2.90
   1  -2  19    6.60   15.90
  -1  -2 -19    5.30    3.20
   1  -2 -19   -0.10    3.10
  -1  -2  19   -1.70   14.30
  -1   2 -19    4.10    2.70
  -2   0   0 4217.98  333.87
  -2   2   0  897.21   64.99
   2  -2   0  778.82   66.49
  -2   2   0  862.91   66.39
   2   2   0  798.22   65.09
  -2  -2   0  800.52   65.19
   2   4   0 1926.91  152.28
   2   4   0 1960.40  154.18
  -2   4   0 2032.50  153.78
  -2   4   0 1944.41  153.38
   2   4   0 1842.42  152.68
  -2   4   0 1938.91  152.78
  -2  -4   0 2047.80  152.38
  -2  -6   0  116.49   12.80
   2   6   0  110.99   18.90
   2   6   0  100.79   15.30
  -2   6   0  110.69   18.00
  -2  -6   0  123.79   12.10
  -2   6   0   94.69    8.70
  -2   6   0   96.19   16.20
  -2   6   0  124.59   13.30
   2   6   0   73.19   17.20
   2  -6   0  111.29   10.50
  -2   6   0  117.19   18.80
   2   6   0   92.09   15.50
  -2   6   0  109.49   11.90
   2   6   0   96.29    8.50
  -2   8   0  750.82   64.99
   2   8   0  722.13   64.79
  -2   8   0  891.31   65.39
  -2   8   0  889.71   68.79
  -2  10   0   -4.60   12.80
   2  10   0    5.20   12.70
  -2  10   0   -1.00    5.40
   2  -1   1  402.16   33.70
  -2   1   1  386.56   34.50
  -2  -1  -1  418.66   32.80
   2   1  -1  400.76   32.70
  -2   1   1  453.85   32.80
   2  -1  -1  361.96   34.50
  -2  -1   1  405.56   32.90
  -2   1  -1  450.35   33.30
   2  -1  -1  428.26   32.80
   2   1   1  403.06   32.80
  -2   3   1 1435.76  114.99
   2   3  -1 1406.46  113.59
  -2   3   1 1499.75  113.69
  -2  -3   1 1455.75  113.69
   2  -3  -1 1485.45  115.19
  -2   3  -1 1486.65  113.59
   2   3   1 1469.55  113.69
   2   3   1 1478.05  115.39
  -2   3  -1 1364.26  114.29
  -2  -5  -1  641.14   50.09
   2   5  -1  653.73   53.69
  -2   5   1  668.13   51.19
  -2   5   1  700.43   52.89
   2   5  -1  606.64   49.70
   2   5  -1  589.94   50.69
  -2  -5  -1  647.54   49.80
   2   5  -1  638.54   54.69
  -2   5   1  601.44   49.70
   2   5  -1  590.04   51.59
   2   5  -1  644.94   49.30
  -2   5   1  577.54   50.79
   2  -5   1  657.03   50.19
  -2   5   1  622.44   49.30
  -2   5   1  609.54   51.79
  -2   5   1  622.34   53.69
   2   5   1  619.74   49.20
   2   5   1  713.53   55.19
  -2  -5   1  649.74   50.09
   2   5   1  597.44   54.69
  -2   5  -1  627.74   50.69
   2   5   1  613.64   49.70
   2   5   1  619.04   50.79
  -2   5  -1  610.04   49.70
  -2   5  -1  597.14   52.09
  -2   5  -1  641.94   49.40
   2   5   1  678.63   51.39
   2  -5  -1  658.23   49.90
  -2   5  -1  645.24   52.99
  -2  -7  -1  136.59   14.00
   2   7  -1  138.59   30.10
  -2   7   1  156.58   15.40
  -2   7   1  114.09   17.50
  -2   7   1  146.59   17.10
  -2   7   1  115.19   19.50
   2   7  -1  138.89   16.50
   2   7  -1  121.39   19.10
   2   7  -1  131.09   10.60
  -2   7   1  100.39   17.30
  -2  -7   1  140.89   14.90
  -2   7  -1  166.78   19.00
  -2   7  -1  120.19   22.40
  -2   7  -1  142.29   18.40
  -2   7  -1  142.99   17.40
   2   7   1  105.89   17.60
   2  -7  -1  123.39   14.80
   2   7   1  159.78   18.10
   2   7   1  127.19   25.80
   2   7   1  116.89   10.30
  -2   9   1   53.49   17.70
   2   9  -1   43.80   17.80
   2   9  -1   42.00   27.30
  -2   9   1   41.70   12.70
  -2   9   1   26.80   24.30
   2   9  -1   56.49    6.80
   2   9  -1   51.69   14.20
  -2   9  -1   56.69   13.30
  -2   9  -1   58.79   10.00
   2   9   1   59.29   31.10
  -2   9  -1   67.69    7.30
  -2   9  -1   58.19   17.50
   2   9   1   52.99   13.60
  -2   9  -1   57.59   19.90
   2   0  -2 2293.07  179.68
   2   0   2 1798.02  199.98
  -2   0   2 1872.51  201.58
   2   0  -2 1989.20  196.28
  -2   0  -2 2560.34  178.18
  -2   0   2 2249.27  179.18
   2  -2   2 1134.19   80.19
   2   2  -2  965.50   80.59
  -2   2   2  943.41   82.09
  -2   2   2  992.10   80.69
  -2   2  -2 1053.59   81.29
   2   2   2  947.91   82.79
   2  -2  -2  965.20   82.09
  -2   2  -2 1061.09   80.39
   2   2   2 1232.78   85.19
   2   2   2 1120.29   80.29
  -2  -2   2  975.60   80.69
   2   2   2  948.91   80.69
   2   4  -2 1890.71  154.48
   2  -4   2 2070.49  154.08
  -2   4   2 1865.41  155.78
   2   4  -2 2135.79  155.48
  -2   4   2 2077.19  154.78
  -2   4   2 1975.50  154.58
   2   4   2 1922.71  156.18
  -2  -4   2 2052.39  154.18
  -2   4  -2 1904.91  154.38
  -2   4  -2 1995.00  155.58
   2   4   2 2021.90  154.08
  -2   4  -2 1886.91  155.28
   2   4   2 1917.21  154.68
   2   6  -2  373.96   29.80
  -2   6   2  368.16   36.90
   2   6  -2  356.26   37.40
   2   6  -2  391.36   30.10
  -2   6   2  357.16   29.60
  -2   6   2  387.06   32.80
  -2   6   2  406.46   38.00
  -2   6   2  389.26   33.30
  -2  -6  -2  369.86   30.60
   2   6  -2  394.66   32.20
   2   6  -2  399.36   38.20
  -2   6  -2  389.26   34.20
   2   6   2  387.36   32.70
   2   6   2  358.16   37.00
   2   6   2  354.96   29.60
   2  -6  -2  407.46   30.90
   2   6   2  371.16   43.70
  -2   6  -2  434.96   35.80
  -2   6  -2  328.17   30.30
  -2   6  -2  388.96   29.90
  -2  -6   2  388.66   31.10
  -2   8   2  334.27   33.30
   2   8  -2  297.77   26.30
   2   8  -2  264.97   38.30
   2   8  -2  334.47   34.50
  -2   8   2  304.27   27.80
  -2  -8  -2  246.38   24.30
  -2   8   2  212.88   39.30
   2   8  -2  242.98   22.90
  -2   8   2  302.87   26.60
   2   8   2  299.77   28.50
   2   8   2  337.57   27.30
   2  -8  -2  214.18   24.70
  -2   8  -2  264.87   23.20
   2   8   2  223.58   45.90
  -2   8  -2  271.27   33.60
  -2   8  -2  356.56   28.10
  -2   8  -2  337.77   33.60
  -2   8  -2  281.57   25.80
   2   8   2  289.97   33.90
   2  10  -2   12.80   13.60
   2  10  -2   30.30   30.60
  -2  10   2    2.80   12.30
   2  10   2   11.60   13.40
  -2  10  -2   13.60   13.50
  -2   1   3 1237.18   99.19
   2  -1  -3 1267.87   99.19
   2   1   3 1266.37   99.49
  -2   3   3 1662.43  140.89
   2   3  -3 2013.80  140.79
   2  -3   3 1998.80  140.99
   2   3  -3 1662.43  139.79
  -2   3   3 1805.42  139.89
  -2  -3  -3 2037.90  141.19
   2   3   3 1874.81  139.49
   2  -3  -3 1698.53  141.09
   2   3   3 1681.53  141.49
  -2   3  -3 1678.83  140.49
  -2   3  -3 1716.03  139.69
   2   3   3 1719.33  139.99
  -2  -3   3 1669.73  139.79
  -2   3  -3 1845.72  141.29
   2   5  -3 1179.28   91.89
  -2   5   3 1069.89   92.29
  -2   5   3 1193.08   93.99
  -2   5   3 1277.87   92.19
   2   5  -3 1140.69   93.49
  -2   5   3 1280.67   94.79
  -2   5   3 1033.60   91.19
   2  -5   3 1240.68   93.39
   2   5  -3 1115.89   91.19
  -2  -5  -3 1298.87   91.09
   2   5  -3 1040.00   93.29
   2   5  -3 1225.18   90.99
  -2  -5   3 1208.08   91.49
  -2   5  -3 1069.29   93.79
  -2   5  -3 1178.88   91.79
   2   5   3 1262.17   97.49
   2   5   3 1113.19   90.89
   2   5   3 1128.49   94.09
  -2   5  -3 1210.38   91.09
  -2   5  -3 1167.28   91.09
   2   5   3 1103.99   91.29
  -2   5  -3 1173.48   93.19
   2  -5  -3 1205.88   91.19
   2   5   3 1152.08   92.19
   2   7  -3  424.86   46.50
  -2   7   3  457.95   48.00
  -2   7   3  577.84   41.00
  -2   7   3  518.75   44.30
  -2   7   3  512.85   40.90
   2   7  -3  505.45   46.40
   2   7  -3  444.26   37.90
   2   7  -3  491.75   40.20
  -2   7  -3  474.75   38.00
   2   7   3  528.15   41.10
   2  -7  -3  452.35   38.80
  -2   7  -3  538.85   40.40
   2   7   3  371.76   55.19
   2   7   3  457.65   41.50
  -2   7  -3  426.36   43.20
  -2   7  -3  495.15   39.50
   2   7   3  468.35   44.80
  -2   7  -3  564.24   44.00
  -2  -7   3  443.66   39.10
  -2  -9  -3   96.29   10.70
   2   9  -3   84.59   13.50
   2   9  -3   65.99   19.20
   2   9  -3   72.19   23.90
   2   9  -3   82.79    9.10
  -2   9   3   86.89   13.40
   2   9   3   65.39   59.19
  -2   9  -3   88.09   10.20
   2   9   3   91.99   14.80
  -2   9  -3  125.99   15.80
  -2   9  -3  108.49   13.90
   2  -9  -3   46.50   10.40
  -2   9  -3  129.99   19.20
  -2   9  -3   77.69   22.90
  -2   0   4   70.99    8.60
  -2   0   4   89.19    9.80
   2   0  -4   91.09   10.60
  -2   0   4   78.19    6.50
  -2   0  -4   77.89    6.60
   2   0  -4  110.89   17.10
   2   0  -4   74.59    8.80
   2   0   4  114.89   16.70
   2   0   4   79.99    6.60
   2   0  -4   76.69    6.50
   2   2   4 7455.65  580.24
  -2   4   4   67.29   10.70
   2   4  -4   76.59    6.90
  -2   4   4   81.39   13.40
  -2   4   4   79.99   17.40
   2   4  -4   68.69   15.10
  -2   4   4   72.59    8.50
  -2  -4  -4   71.19   12.90
   2  -4   4   97.19   13.00
   2  -4   4   76.99    8.70
  -2   4   4  103.09   10.20
   2   4  -4   76.09    8.50
  -2   4   4   71.79    6.50
  -2  -4  -4   83.99    7.10
   2   4  -4   72.49   10.40
   2   4  -4   79.49    7.70
   2  -4  -4   71.99    7.60
  -2   4  -4   80.89   12.20
  -2  -4   4   84.19    9.40
   2   4   4   59.29    8.60
  -2  -4   4   71.49    9.30
   2   4   4   90.49   11.90
   2   4   4   72.59    6.40
  -2   4  -4   82.89   10.10
  -2   4  -4   79.99    8.40
  -2   4  -4   79.19    7.50
   2   4   4   82.69   14.60
  -2   4  -4   75.49    7.30
  -2   4  -4   70.99   13.40
   2  -4  -4  125.89   15.80
   2   4   4  102.49   24.20
  -2   6   4 1419.16  103.69
   2   6  -4 1324.37  103.19
  -2   6   4 1111.89  107.69
  -2   6   4 1360.06  105.49
   2   6  -4 1349.96  102.19
   2   6  -4 1349.36  105.49
  -2  -6  -4 1324.77  102.29
  -2   6   4 1507.35  103.49
   2   6  -4 1257.37  105.19
   2   6  -4 1332.37  102.09
   2   6   4 1424.16  103.79
   2   6   4 1272.07  105.69
  -2   6  -4 1197.98  102.19
  -2   6  -4 1324.67  102.99
   2   6   4 1210.08  101.99
   2   6   4 1173.18  111.09
  -2  -6   4 1321.47  102.69
  -2   6  -4 1233.48  102.19
  -2   6  -4 1359.96  102.19
   2  -6  -4 1311.27  102.39
   2   6   4 1382.76  103.69
  -2   8   4    3.30    9.20
  -2  -8  -4   -5.70    6.70
  -2   8   4    1.60   15.30
   2   8  -4   -3.00    3.80
   2   8  -4    2.50    8.90
  -2   8   4   -3.50   10.20
   2   8  -4   -6.30   17.80
   2   8  -4  -12.60   13.70
  -2   8   4  -11.20   32.90
   2   8   4  -14.80   32.00
   2   8   4   15.40   15.70
   2  -8  -4    8.40    7.30
   2   8   4   -4.40   11.00
  -2   8  -4  -23.70   13.50
   2   8   4   -4.70   10.10
  -2   8  -4  -21.80   10.20
  -2   8  -4    8.50    4.30
  -2   8  -4    8.70    8.30
  -2   8  -4    0.30   13.50
   2  10  -4  287.77   28.90
  -2  10   4  291.87   26.40
  -2  10  -4  209.18   40.80
   2  10   4  257.27   26.70
   2 -10  -4  203.48   23.30
  -2  10  -4  273.07   27.20
   2   1  -5   56.59    5.70
  -2  -1  -5   47.80    4.40
  -2   1   5   44.90    6.50
   2  -1   5   50.09    4.80
  -2   1   5   49.80    4.40
  -2   1   5   43.70    9.30
  -2  -1  -5   31.80    9.40
  -2   1   5   71.29   13.70
   2   1  -5   45.30    8.20
   2   1  -5   51.29    4.40
   2   1   5   76.99   17.60
   2  -1  -5   44.60    4.60
   2  -1  -5   34.20    9.90
  -2   1  -5   51.99    4.60
  -2  -1   5   71.69   13.50
   2   1   5   36.90    7.10
  -2  -1   5   54.39    4.40
   2   1   5   47.40   11.10
  -2  -1   5   48.00    7.10
   2   1   5   50.29    6.20
   2  -1  -5   40.30    6.50
   2   1   5   56.89    4.40
  -2  -1   5   51.89    5.40
   2   3  -5   19.00    3.50
   2  -3   5   16.30    3.60
  -2   3   5    3.00    6.90
  -2   3   5   11.10    4.10
  -2  -3  -5   13.10    2.30
   2  -3   5   16.40   10.40
  -2   3   5   11.40    1.70
  -2  -3  -5   14.20   13.20
   2   3  -5   16.00    1.80
  -2   3   5   28.40   11.90
   2   3  -5   13.10    5.30
   2   3  -5   11.10    9.60
   2  -3  -5   10.90   11.00
  -2  -3   5   18.60    8.40
   2   3   5   32.50   19.80
   2   3   5   14.00    1.70
   2   3   5   13.40   12.10
  -2  -3   5   13.50    5.40
  -2   3  -5   10.90   10.90
  -2  -3   5   14.60    4.30
  -2   3  -5   17.30    2.40
  -2  -3   5    9.40    2.60
   2   3   5    8.80    4.00
  -2   3  -5   16.30    4.40
  -2   3  -5   19.20    2.80
   2   3   5   15.40    8.50
   2  -3  -5   10.40    2.60
  -2   5   5   -1.40    6.00
  -2   5   5    5.40   16.90
  -2   5   5    0.60    1.60
  -2   5   5   10.80   13.20
   2  -5   5   -3.10   10.40
  -2  -5  -5    0.00    3.30
   2   5  -5    1.30    2.40
   2   5  -5    4.20    3.50
  -2   5   5    5.50    8.60
   2  -5   5    2.70    5.00
   2   5  -5    1.90    5.70
   2   5  -5    3.00    4.00
   2   5   5   -0.70   13.10
   2   5   5    2.30    1.40
  -2   5  -5    5.90   12.90
   2   5   5   -6.50   22.60
  -2   5  -5    3.20   12.00
  -2  -5   5   -4.60    5.50
  -2   5  -5    1.30    5.50
   2  -5  -5    6.90    3.50
  -2   5  -5    7.20    4.20
  -2   5  -5    0.70    2.70
   2   5   5    6.80    7.00
   2   5   5   13.30    9.50
  -2   5  -5   -2.10    3.20
  -2   7   5   -0.40   14.60
  -2  -7  -5   -2.40    5.00
  -2   7   5   -3.70   10.30
   2   7  -5    0.80    7.70
  -2   7   5  -10.90    9.10
  -2   7   5  -17.70   24.40
   2   7  -5   -2.00    3.10
   2   7  -5    5.70   13.80
   2   7  -5   -2.30   13.50
  -2   7  -5   -4.80   14.20
   2  -7  -5   -1.20    5.10
  -2  -7   5    2.00    7.10
   2   7   5    9.70   11.30
  -2   7  -5   -6.20    6.70
   2   7   5   -6.90   13.10
   2   7   5    2.90    8.80
  -2   7  -5   -6.50    3.20
   2   7   5    5.60   30.20
   2   9  -5   20.70   21.50
  -2  -9  -5   -6.50    7.80
  -2   9   5    3.90   10.10
   2  -9  -5    3.70    7.70
  -2   9  -5   12.70   18.00
  -2   9  -5    9.50    4.10
  -2   9  -5    2.10   11.80
   2   9   5   -3.50   11.30
   2   0  -6   20.30   10.70
  -2   0  -6   28.50   15.40
   2   0   6   11.10    4.00
   2   0   6   26.40   13.20
  -2   0   6   12.30    7.00
   2   0  -6   11.00    8.50
  -2   0   6   24.40    2.00
  -2   0   6   34.60    9.20
  -2   0   6   16.90    4.30
   2   0  -6   21.00    5.00
  -2   0  -6   14.70    2.10
   2   0  -6   18.70    1.90
  -2   0  -6   12.50    7.40
   2   0   6    7.10    7.10
  -2  -2  -6 5459.45  441.06
   2   2   6 5863.71  441.06
   2   4  -6    3.60    3.40
   2  -4   6   -0.90    4.20
  -2   4   6    0.70    3.80
   2  -4   6    1.00   11.80
  -2   4   6    5.40   12.70
   2   4  -6    2.90   10.20
  -2  -4  -6    2.50   10.20
  -2   4   6    3.30    1.40
   2   4  -6    2.60    1.70
  -2  -4  -6    3.80    2.70
  -2   4   6    1.80    8.10
   2   4  -6    6.70    5.60
  -2   4  -6    8.20   12.20
  -2  -4   6    2.10    8.70
  -2   4  -6    0.40    4.00
  -2  -4   6    6.10    4.60
   2   4   6    2.10    1.40
  -2   4  -6   -4.20   10.70
   2   4   6  -10.50    9.00
  -2   4  -6    1.50    2.40
   2   4   6   -1.60   12.50
   2   4   6   30.90   21.50
  -2  -4   6    2.50    6.30
  -2   4  -6   -0.50    4.70
   2  -4  -6  -13.00   11.70
   2   4   6    5.70    3.80
   2  -4  -6    1.50    2.70
  -2   4  -6   -1.20    2.80
   2  -6   6 1142.89  107.99
   2   6  -6 1350.06  104.99
  -2   6   6 1517.05  106.49
   2   6  -6 1165.38  105.29
   2   6  -6 1342.27  108.49
  -2   6   6 1522.85  108.99
   2   6  -6 1334.57  106.09
  -2  -6  -6 1373.56  105.29
   2   6  -6 1268.57  105.29
   2   6   6 1170.78  114.89
  -2   6  -6 1571.44  108.49
  -2   6  -6 1174.48  105.19
   2   6   6 1473.05  108.99
   2  -6  -6 1294.67  105.29
  -2   6  -6 1334.17  105.09
   2   6   6 1523.35  106.99
  -2  -6   6 1346.57  105.69
  -2   6  -6 1347.07  105.89
   2   6   6 1487.85  106.69
  -2  -8  -6   -5.40    5.70
   2   8  -6    2.70    9.30
   2   8  -6    3.00    3.30
   2   8  -6   18.30   16.50
  -2   8   6    0.10   10.10
   2   8  -6    3.00   16.20
  -2   8   6   -0.90   14.10
  -2   8  -6    2.00    3.50
  -2   8  -6    9.20   12.60
   2   8   6   28.00   12.10
  -2   8  -6  -11.80    9.20
   2  -8  -6    2.10    6.10
   2   8   6  -11.20   14.60
  -2   8  -6   -4.10   13.90
  -2  -8   6  -14.80    7.80
  -2   1   7 1288.77  111.59
   2   1  -7 1485.35  112.89
   2  -1   7 1648.73  113.99
   2   1  -7 1432.36  110.49
   2   1  -7 1338.57  111.39
  -2   1   7 1347.87  110.59
  -2   1   7 1572.24  112.09
   2   1   7 1607.04  113.89
   2   1   7 1245.58  111.79
   2  -1  -7 1258.67  110.69
  -2   1  -7 1566.34  113.79
   2   1   7 1302.57  110.69
  -2  -1   7 1238.68  110.89
  -2  -1   7 1534.05  112.09
   2  -1  -7 1213.08  111.99
   2  -1  -7 1579.54  113.29
   2   1   7 1453.05  110.49
   2  -3   7 1244.18   97.89
   2   3  -7 1107.59   98.69
  -2  -3  -7 1332.57  102.89
   2   3  -7 1253.37  100.79
   2  -3   7 1420.36  100.99
   2   3  -7 1179.18   97.89
  -2   3   7 1286.47   98.59
  -2   3   7 1246.88  100.39
   2   3   7 1218.88   98.09
  -2  -3   7 1344.27   97.79
  -2  -3   7 1385.16   99.99
   2   3   7 1255.07   98.79
   2   3   7 1254.77  102.39
   2  -3  -7 1112.99  100.29
  -2  -3   7 1175.98   98.39
  -2   3  -7 1241.48  100.99
   2   3   7 1245.78  100.59
  -2  -3   7 1307.27   97.99
   2   5  -7  835.02   69.89
  -2   5   7  916.41   71.39
  -2  -5  -7  801.82   71.79
  -2   5   7  935.31   74.19
   2   5  -7  873.41   70.69
   2  -5   7  914.31   70.19
   2  -5   7  802.82   73.39
  -2  -5  -7  887.21   69.79
   2   5  -7  942.91   69.69
  -2   5  -7  865.11   70.39
  -2   5  -7  796.62   70.09
   2   5   7 1027.10   71.89
   2   5   7  930.11   74.59
  -2   5  -7  992.50   73.79
  -2  -5   7  900.41   70.39
  -2   5  -7  957.40   69.79
  -2  -5   7  907.51   71.09
   2   5   7  923.71   71.59
   2   5   7  768.72   79.19
   2  -5  -7  912.81   69.89
   2  -5  -7  956.20   75.19
  -2   7   7  426.56   34.70
   2   7  -7  341.77   32.50
  -2   7   7  401.46   38.70
   2   7  -7  333.07   38.40
   2   7  -7  436.16   40.90
  -2  -7  -7  346.17   30.60
  -2   7   7  424.76   33.50
   2   7  -7  355.46   29.80
  -2   7  -7  382.36   31.80
  -2  -7   7  358.06   31.70
   2   7   7  427.76   34.50
  -2   7  -7  379.66   30.00
   2   7   7  351.46   39.40
  -2   7  -7  472.75   40.90
   2   7   7  448.06   35.00
   2  -7  -7  332.77   30.60
  -2  -9  -7   29.50    7.10
   2   9  -7   23.00   19.60
  -2   9   7   29.30   11.40
  -2   9  -7   23.90   16.10
  -2   9  -7   33.50    4.30
   2  -9  -7   11.50    6.90
   2   9   7   20.30   11.20
   2   0  -8 3058.09  244.88
  -2   0   8 3394.56  246.18
   2   0  -8 2973.50  245.68
  -2   0  -8 2683.43  245.38
  -2   0  -8 3201.68  247.48
   2   0   8 3125.19  245.18
   2   0   8 3415.36  247.28
   2   0  -8 3334.07  246.98
   2   2  -8  317.27   31.40
   2  -2   8  359.56   33.20
  -2   2   8  283.87   24.00
  -2  -2  -8  261.57   30.20
  -2  -2  -8  307.97   24.10
  -2   2   8  282.57   28.70
   2  -2   8  301.07   24.30
  -2   2   8  291.87   25.90
  -2  -2  -8  362.56   37.80
   2   2  -8  312.07   24.10
   2   2  -8  319.17   27.40
  -2   2   8  332.37   29.30
   2   2  -8  295.47   24.70
  -2   2  -8  309.57   33.10
   2   2   8  299.07   24.10
   2  -2  -8  306.47   24.20
  -2  -2   8  272.77   25.40
  -2   2  -8  316.47   24.10
   2  -2  -8  308.77   34.80
   2   2   8  315.47   26.50
   2   2   8  314.77   31.10
   2   2   8  350.06   34.60
  -2  -2   8  312.07   24.60
   2  -2  -8  282.37   25.60
  -2  -2   8  311.67   24.10
  -2  -2   8  346.57   29.90
   2  -2  -8  274.87   30.50
   2   2   8  305.27   24.60
   2  -4   8 1007.40   84.19
  -2  -4  -8  949.60   84.99
   2   4  -8 1033.30   80.39
  -2  -4  -8 1052.79   80.19
  -2   4   8 1077.19   81.49
   2   4  -8  989.80   81.29
  -2   4   8 1136.09   83.99
  -2  -4   8  969.10   80.29
  -2  -4   8 1019.80   81.09
   2   4   8 1063.29   84.79
  -2  -4   8 1015.30   82.99
   2   4   8 1072.89   81.79
   2   4   8  964.60   80.09
   2  -4  -8 1049.79   84.39
  -2  -4   8 1084.29   80.59
   2  -4  -8 1032.40   80.29
   2  -6   8  159.18   25.00
  -2   6   8  212.18   21.40
  -2   6   8  222.48   27.80
   2   6  -8  181.38   15.10
   2   6  -8  175.38   19.30
  -2  -6  -8  179.48   16.00
   2  -6  -8  195.68   16.20
   2   6   8  237.08   29.70
  -2  -6   8  183.58   18.10
  -2   6  -8  187.58   15.30
  -2   6  -8  192.28   17.20
  -2   6  -8  205.58   27.30
   2   6   8  189.28   22.60
   2   6   8  210.28   22.50
  -2  -8  -8  187.48   19.20
  -2   8   8  270.87   23.40
   2   8  -8  202.08   31.30
   2   8  -8  216.38   17.70
  -2   8  -8  239.68   17.90
  -2  -8   8  230.58   21.90
   2  -8  -8  194.18   19.70
   2   8   8  223.28   24.50
   2   1  -9  536.55   44.30
  -2  -1  -9  493.95   47.20
  -2   1   9  558.04   44.60
   2   1  -9  555.94   43.80
  -2   1   9  549.45   46.30
   2   1  -9  566.94   49.10
   2  -1   9  565.74   43.80
  -2   1   9  622.04   47.90
  -2  -1  -9  533.65   43.80
  -2   1   9  561.04   43.80
   2   1  -9  533.05   46.40
  -2   1  -9  614.14   50.59
   2   1   9  550.64   43.80
  -2  -1   9  643.84   47.80
   2   1   9  504.55   46.20
   2  -1  -9  639.44   51.19
   2  -1  -9  514.55   47.30
   2  -1  -9  534.95   44.60
  -2   1  -9  563.44   43.80
   2   1   9  561.54   44.20
   2   1   9  556.44   44.60
  -2  -1   9  562.24   43.80
  -2  -1   9  521.95   45.20
   2   1   9  651.83   51.29
   2  -1  -9  546.35   43.80
  -2  -1   9  578.54   44.30
  -2  -3  -9  574.64   44.60
  -2   3   9  588.44   46.40
  -2   3   9  564.04   49.30
   2   3  -9  601.14   44.50
   2   3  -9  514.05   44.90
  -2   3   9  584.54   48.30
   2  -3   9  633.24   50.49
   2   3  -9  570.64   46.60
   2  -3  -9  563.74   44.60
   2   3   9  589.34   50.49
   2  -3  -9  488.65   51.79
   2  -3  -9  608.54   50.19
  -2  -3   9  547.05   45.80
   2   3   9  551.44   51.89
   2   3   9  540.35   45.00
   2   3   9  528.05   44.50
  -2   3  -9  620.34   44.50
  -2  -3   9  534.75   44.60
  -2  -3   9  661.73   49.20
   2   3   9  569.74   46.70
  -2  -3   9  576.04   45.00
  -2   5   9  167.28   19.50
   2   5  -9  141.69   17.70
  -2  -5  -9  171.18   13.60
   2   5  -9  162.38   13.00
   2   5  -9  129.39   14.10
   2  -5   9  136.19   25.00
  -2   5   9  190.78   20.90
  -2  -5   9  177.88   17.70
   2   5   9  156.58   21.20
  -2   5  -9  164.08   13.20
   2  -5  -9  202.08   22.20
  -2  -5   9  135.69   23.20
   2   5   9  183.88   19.60
   2  -5  -9  154.48   13.70
  -2  -5   9  168.78   15.60
   2   5   9  190.48   21.10
   2   7  -9   55.59   16.10
  -2   7   9   99.99   16.90
  -2   7   9   98.29   12.50
   2   7  -9   63.99    6.80
  -2  -7  -9   81.49    7.80
  -2   7   9   81.29   12.30
  -2  -7   9   55.89    9.70
   2  -7  -9   56.09    7.70
   2   7   9   81.69   12.90
   2   7   9   69.29   12.70
   2   7   9   60.79   18.20
  -2   7  -9   69.19    6.90
   2   9  -9   17.20   19.90
  -2   9   9   25.70   11.60
  -2  -9  -9   19.30    6.70
   2  -9  -9   24.80    7.00
   2   9   9   35.70   11.90
  -2   9  -9   28.10   16.40
   2   0 -10 7926.31  539.75
  -2   0 -10 6281.37  537.95
   2   0 -10 6541.55  538.25
   2   0 -10 6437.86  537.35
  -2   0 -10 7381.96  540.15
  -2   2  10  227.58   27.10
  -2  -2 -10  247.98   37.80
   2   2 -10  262.47   20.60
   2   2 -10  241.58   21.50
   2   2 -10  266.87   30.00
  -2  -2 -10  269.57   20.70
  -2   2  10  276.77   23.00
  -2  -2 -10  227.78   28.90
  -2   2  10  293.07   27.80
   2  -2  10  285.87   31.60
   2   2 -10  265.97   25.60
   2  -2 -10  232.58   28.70
   2   2  10  230.68   23.60
   2  -2 -10  303.87   35.90
  -2  -2  10  262.17   21.30
  -2   2 -10  268.57   20.70
  -2  -2  10  299.87   28.40
  -2  -2  10  238.88   22.50
   2   2  10  277.47   32.40
   2  -2 -10  266.67   20.70
   2   2  10  223.78   28.60
   2   2  10  255.57   21.30
  -2  -2  10  260.07   20.70
   2  -4  10 2448.35  195.68
  -2   4  10 2619.04  195.28
  -2  -4 -10 2178.48  196.48
   2   4 -10 2338.47  193.68
  -2   4  10 2789.32  193.68
   2   4 -10 2094.09  192.88
  -2  -4  10 2560.74  193.48
  -2  -4  10 2595.74  195.08
   2   4  10 2701.63  193.78
   2   4  10 2564.14  195.68
   2  -4 -10 2689.13  195.88
   2   4  10 2140.69  196.38
  -2  -4  10 2541.45  192.98
   2   6 -10   91.89   13.30
  -2   6  10  123.49   13.10
  -2  -6 -10  100.89    9.70
  -2   6  10   97.99   17.60
   2  -6  10   64.59   16.10
   2   6 -10   99.29    8.60
  -2  -6  10  109.49   13.20
  -2   6 -10  103.09    8.80
   2   6  10   95.69   18.50
   2   6  10  115.89   14.80
   2   6  10  119.19   14.30
   2  -6 -10   86.39   10.20
  -2   8  10  723.73   50.59
  -2  -8 -10  558.64   48.20
  -2   8 -10  587.94   47.60
   2  -8 -10  598.24   48.30
  -2  -1 -11  154.98   22.10
   2   1 -11  145.99   13.40
   2   1 -11  140.49   11.60
  -2  -1 -11  140.19   11.60
  -2   1  11  166.28   17.40
   2   1 -11  168.98   19.90
  -2   1  11  113.59   21.80
   2   1 -11  113.49   20.20
   2  -1  11  104.89   21.00
  -2   1  11  155.68   13.60
  -2  -1 -11  148.29   26.30
   2  -1 -11  142.89   23.40
   2   1  11  167.78   18.80
  -2   1 -11  135.89   23.70
   2  -1 -11  157.38   22.30
   2   1  11  122.39   22.90
  -2  -1  11  173.78   15.60
  -2  -1  11  152.28   13.30
   2   1  11  172.58   14.80
   2  -1 -11  152.08   14.20
  -2  -1  11  126.19   23.00
   2   1  11  131.29   12.70
   2  -1 -11  141.89   11.60
  -2   1 -11  147.79   11.60
  -2  -3 -11  241.28   43.90
  -2   3  11  338.17   26.80
  -2   3  11  381.66   30.90
  -2   3  11  254.57   30.60
  -2  -3 -11  322.97   24.40
   2  -3  11  234.88   33.90
   2   3 -11  286.57   25.40
   2   3 -11  318.17   24.30
   2   3 -11  323.77   28.80
   2  -3 -11  358.66   34.60
  -2  -3  11  306.87   25.20
  -2  -3  11  290.47   32.30
   2  -3 -11  239.08   40.10
  -2   3 -11  315.87   24.40
  -2  -3  11  320.67   26.50
   2   3  11  378.16   28.10
   2  -3 -11  323.57   24.50
   2   3  11  329.67   33.90
  -2  -5 -11  223.18   19.00
   2   5 -11  207.88   23.10
  -2   5  11  251.47   30.20
   2   5 -11  234.98   18.60
  -2   5  11  274.77   24.10
   2   5  11  264.87   24.60
  -2   5 -11  231.08   18.70
   2   5  11  277.67   24.70
  -2  -5  11  266.97   22.60
  -2  -5  11  181.88   27.20
  -2  -5  11  219.08   20.50
   2   5  11  235.98   32.10
   2  -5 -11  270.37   33.40
   2  -5 -11  231.28   19.10
   2   7 -11   22.30   15.40
  -2  -7 -11   13.30    5.20
  -2   7  11   45.00   11.80
   2   7 -11   26.30    3.50
  -2   7 -11   33.80    3.70
   2   7  11   41.50   11.50
   2  -7 -11   21.90    5.30
   2   0 -12 1180.08  103.39
  -2   0  12 1298.07  101.69
   2   0  12 1336.67   99.49
   2   0  12 1274.47  103.69
   2   0 -12 1133.89   98.99
   2   0 -12 1197.08  100.89
  -2   0 -12 1348.37  114.99
  -2   0 -12 1151.68  100.89
  -2   0  12 1362.46   98.79
  -2   0  12 1349.27   99.79
   2   0  12 1290.57   98.69
   2  -2  12   18.70   16.00
  -2  -2 -12   25.70   14.10
  -2   2  12   23.90   11.00
  -2  -2 -12   24.70   23.30
   2   2 -12   28.90    3.00
  -2   2  12   15.40   12.60
   2   2 -12   11.40    5.70
  -2   2  12   31.90    7.50
  -2  -2 -12   29.20    3.20
   2   2 -12   17.70   11.00
   2   2  12    6.80   11.60
   2   2  12   19.30    4.80
   2   2  12   10.10    7.60
   2   2  12   35.50   19.60
  -2  -2  12   28.70   13.90
  -2  -2  12   22.10    6.70
   2  -2 -12   29.70    3.10
  -2   2 -12   26.70    2.90
   2  -2 -12   26.10   14.00
   2  -2 -12   12.90   21.90
   2   4 -12 1119.79   87.29
  -2   4  12 1161.38   90.59
   2   4 -12 1118.89   89.49
  -2  -4 -12 1114.39   87.39
  -2   4  12 1142.49   88.59
   2  -4  12  995.90   91.89
  -2  -4  12 1142.39   88.59
   2   4  12 1172.78   92.29
  -2  -4  12 1038.90   90.89
   2  -4 -12 1218.78   93.09
   2   4  12 1175.18   89.09
  -2   4 -12 1140.19   87.29
  -2  -4  12 1059.49   87.69
   2  -4 -12 1143.19   87.39
   2   6 -12    2.40    2.50
  -2   6  12    2.20   11.00
  -2   6  12   21.50   14.20
  -2  -6 -12    6.10    3.90
   2  -6  12    0.80   13.50
   2   6  12    7.10   16.20
   2  -6 -12    4.20    4.20
   2   6  12    9.80   10.30
   2   6  12    9.10   11.40
  -2   6 -12    8.30    2.60
  -2   8  12  202.98   21.10
   2   8 -12  145.69   29.80
   2  -8 -12  162.18   15.50
  -2   8 -12  161.38   13.70
   2   8  12  176.78   22.30
  -2  -1 -13  663.03   59.19
   2   1 -13  686.03   54.19
   2   1 -13  669.53   58.19
  -2   1  13  741.53   56.49
   2   1 -13  635.84   55.29
  -2   1  13  671.23   58.89
  -2   1  13  752.82   55.09
   2  -1  13  691.03   61.49
  -2  -1 -13  678.53   54.19
   2  -1 -13  701.23   54.19
   2   1  13  694.43   54.99
   2  -1 -13  607.44   64.09
   2   1  13  703.13   62.49
  -2  -1  13  710.13   55.79
  -2  -1  13  717.83   54.79
  -2  -1  13  671.43   59.39
   2   1  13  762.52   56.69
   2   1  13  722.53   54.89
  -2   1 -13  701.13   54.19
   2  -1 -13  702.23   59.39
  -2   3  13  391.96   34.90
  -2  -3 -13  368.06   28.50
   2   3 -13  378.06   28.40
   2  -3  13  321.97   38.60
  -2   3  13  393.56   31.20
  -2   3  13  297.77   34.50
   2  -3 -13  369.46   28.50
   2  -3 -13  382.96   39.20
  -2   3 -13  376.56   28.40
   2   3  13  299.77   42.30
   2   3  13  410.76   35.50
   2   3  13  392.86   31.20
  -2  -3  13  314.87   35.80
   2   5 -13  281.77   22.30
  -2   5  13  299.97   31.20
  -2  -5 -13  266.07   22.70
  -2   5  13  329.87   26.50
  -2  -5  13  223.28   30.90
   2   5  13  286.17   35.90
   2  -5 -13  289.17   22.80
   2   5  13  319.57   28.10
  -2   5 -13  276.37   22.40
   2   5  13  316.47   28.00
   2   7 -13  103.89    9.20
  -2   7  13  140.99   14.50
   2   7 -13   68.49   18.60
  -2  -7 -13   90.09   10.90
   2  -7 -13  111.79   11.10
  -2   7 -13  103.89    9.10
   2   7  13  121.39   15.50
   2   0  14   23.00    8.80
  -2   0  14   52.19    7.20
  -2   0 -14   29.00    3.50
   2   0 -14   44.80   14.70
   2   0 -14   31.90    3.50
   2   0  14   26.60   18.50
  -2   0  14   56.69    9.80
  -2   0 -14   24.50   13.80
  -2   0  14   24.80   14.10
   2  -2  14 1303.07  114.79
  -2   2  14 1314.07  113.69
  -2   2  14 1515.05  111.09
   2   2 -14 1383.06  113.19
  -2   2  14 1501.65  112.59
   2  -2 -14 1513.85  114.99
  -2  -2  14 1405.06  114.39
   2   2  14 1607.04  111.39
   2   2  14 1261.27  115.99
  -2  -2  14 1375.26  111.39
  -2  -2  14 1362.26  110.79
   2  -2 -14 1500.55  110.49
   2   4 -14    2.50    2.30
  -2  -4 -14    1.60    3.00
   2  -4  14    5.80   15.60
  -2   4  14   12.90    9.10
  -2   4  14   16.30   13.70
   2   4  14  -12.70   14.20
  -2  -4  14    7.30   13.20
   2   4  14    8.30   10.00
  -2   4 -14    3.00    2.40
   2  -4 -14    1.80    3.20
   2  -4 -14   12.50   18.20
   2   4  14    8.60   21.20
  -2  -6 -14  349.87   29.60
  -2   6  14  432.66   32.60
   2   6 -14  369.86   29.10
   2   6  14  386.66   34.00
  -2   6 -14  348.97   29.10
  -2   1  15   12.70    8.90
  -2   1  15   14.60   14.20
  -2   1  15    6.00    6.20
   2  -1  15    7.00   16.40
  -2  -1 -15   11.30    2.60
   2   1 -15   13.20    2.60
   2  -1 -15   11.60    2.70
   2  -1 -15   16.10   15.30
  -2  -1  15   16.40    6.20
  -2   1 -15   13.30    2.70
   2   1  15   25.00   19.30
  -2  -1  15   12.60   13.90
   2   1  15   10.00    9.50
   2   1  15    2.00    6.10
   2   3 -15    2.70    2.40
   2  -3  15   -1.10   16.70
  -2   3  15  -11.40    7.90
  -2  -3 -15    2.60    2.90
  -2   3  15   -3.70   11.20
   2   3  15   -1.10   20.20
  -2  -3  15   -3.00   13.00
   2  -3 -15   -0.40    3.00
   2   3  15   -1.50    9.30
   2  -3 -15  -13.10   17.10
  -2   3 -15    0.80    2.30
   2   3  15  -11.10   13.20
  -2  -5 -15   -1.30    3.40
   2  -5  15    9.80   14.20
  -2   5  15    5.30    9.80
   2   5 -15   -0.20    2.40
   2   5  15  -13.00   15.90
   2  -5 -15    0.40    4.00
  -2   5 -15    2.00    2.50
   2   5  15   -1.30   10.50
  -2   0  16   -6.40    7.30
  -2   0  16    0.10   14.10
   2   0  16    1.10   16.80
  -2   0 -16   -4.30    2.50
   2   0 -16    2.90    2.70
  -2   2  16  623.44   61.89
   2   2 -16  764.12   56.29
   2  -2  16  616.74   63.59
  -2  -2 -16  717.33   56.29
  -2   2  16  799.02   57.49
   2  -2 -16  741.43   56.39
  -2  -2  16  660.43   61.79
   2   2  16  773.82   57.59
   2  -2 -16  758.32   68.79
  -2   2 -16  751.22   56.29
  -2   4  16   -5.10    9.00
   2  -4  16    3.70   15.10
  -2  -4 -16   -0.30    3.10
  -2   4  16   -0.90   13.60
   2   4 -16   -1.40    2.50
  -2  -4  16   -0.80   13.50
   2  -4 -16   -0.60    3.30
  -2   4 -16    1.10    2.40
   2   4  16   -5.90   10.20
   2  -1  17  237.88   37.10
  -2  -1 -17  301.07   24.10
   2   1 -17  334.07   24.10
  -2   1  17  235.88   33.50
  -2   1  17  359.16   26.20
   2  -1 -17  316.27   24.10
  -2   1 -17  319.37   24.00
   2   1  17  254.37   36.10
   2   3 -17  250.27   19.90
  -2   3  17  273.67   22.90
  -2  -3 -17  253.87   20.10
  -2   3 -17  257.97   19.90
   2   3  17  274.87   23.50
   2  -3 -17  250.47   20.20
  -2  -3  17  183.68   30.00
   2   5  17  193.68   22.60
   2   0  18  204.08   36.30
   2   0 -18  296.97   22.30
  -2   0 -18  292.17   22.30
   2   2 -18   29.70    3.50
   2  -2  18   14.50   16.90
  -2  -2 -18   25.90    3.60
  -2   2 -18   26.90    3.40
  -2  -2  18   21.60   14.90
   2  -2 -18   24.90    3.80
   2  -1  19   27.30   17.80
   2   1 -19   52.39    5.60
  -2  -1 -19   47.00    5.70
  -2  -1  19   26.80   15.10
  -2   1 -19   47.70    5.40
   2  -1 -19   53.69    5.90
  -3   1   0    5.40    2.50
   3  -1   0   14.70    7.10
   3   1   0    9.20   11.60
   3  -1   0    7.90    4.00
  -3  -1   0   12.70    4.50
  -3  -1   0    7.90    8.70
   3  -1   0    7.40    9.50
   3   1   0    6.20    3.10
   3   1   0    8.90    4.10
  -3   3   0    5.30    7.90
   3   3   0   -0.20    1.30
  -3   3   0   27.30    6.70
   3   3   0    3.90   11.60
   3   3   0    0.70    3.60
  -3   3   0   -4.00    2.30
   3  -3   0    5.90    4.60
   3   3   0   -1.20    5.00
  -3  -3   0   -1.20    4.10
  -3   3   0   27.50    9.70
  -3  -3   0    3.00    3.00
  -3  -3   0   11.30    5.40
   3  -3   0  -11.40   10.50
  -3   3   0   13.40    3.40
   3  -3   0   -0.50    6.30
  -3   5   0    1.10    7.60
  -3   5   0   20.50    8.30
   3   5   0   -2.10    6.20
   3  -5   0   -2.90    5.50
  -3   5   0   -5.50    1.90
  -3  -5   0   -1.70    5.40
   3   5   0   -3.30   12.90
  -3  -5   0   -2.10    4.80
   3   5   0   -8.50    6.10
  -3   5   0    8.60   11.40
  -3   5   0    1.10    3.70
  -3   5   0    3.90    9.10
   3   5   0   -7.50    4.00
   3   5   0    0.60    1.50
  -3   5   0    1.30    6.10
   3   5   0    7.20   13.20
  -3   7   0    3.10    7.80
  -3   7   0   -3.40   14.30
   3   7   0   -0.50    7.50
  -3   7   0   -5.80   10.20
  -3   7   0   -9.70   12.50
   3   7   0    1.00   20.10
   3  -7   0   -2.00    7.00
  -3   7   0   12.10   13.70
   3   7   0  -25.60   14.90
  -3  -7   0    4.20    7.30
  -3   9   0   -0.60   12.30
   3   9   0   -9.80   12.40
   3   9   0    4.20    5.70
   3   9   0  -13.40   27.50
  -3   9   0   -3.20   16.60
  -3   9   0    5.30   14.60
  -3   9   0    2.30   20.40
   3   0  -1  829.12   65.19
  -3   2   1 1219.78   99.39
  -3   2   1 1335.27   98.09
   3  -2   1 1296.97   99.09
  -3  -2  -1 1270.87   98.19
  -3   2  -1 1091.69   98.59
  -3   2  -1 1251.37   97.89
   3  -2  -1 1311.17   99.29
   3   2   1 1262.17   98.19
  -3   4   1   -1.90    6.80
   3   4  -1    3.40    6.40
  -3   4   1    5.40    1.80
  -3   4   1    5.60    7.00
  -3   4   1   -2.80   10.60
   3   4  -1    4.20    5.10
  -3  -4  -1   -1.70    3.20
   3   4  -1    0.30   10.60
  -3   4   1    5.70    7.50
   3   4  -1    2.10    1.80
  -3   4   1    6.10    3.70
  -3  -4  -1   -5.20    5.10
   3  -4   1   -9.20    4.80
   3  -4   1    3.50    7.70
   3   4  -1    3.10    3.60
   3   4   1    1.70    5.70
  -3   4  -1   -7.90    4.50
   3   4   1    3.80    1.20
   3   4   1   -4.00   11.70
   3   4   1   -1.50   13.50
  -3   4  -1   -4.40    6.00
   3   4   1    2.80    3.60
  -3   4  -1  -14.40    8.90
  -3   4  -1   -1.80    2.40
  -3   4  -1    3.10    8.10
  -3  -4   1    5.70    4.80
   3  -4  -1    2.50    4.20
  -3   6   1  500.35   46.40
  -3   6   1  599.34   43.20
  -3   6   1  549.15   43.00
   3   6  -1  541.75   42.50
  -3  -6  -1  537.55   41.50
   3  -6   1  505.55   41.80
  -3   6   1  471.45   40.40
  -3   6   1  604.74   46.40
   3   6  -1  485.05   40.40
   3   6  -1  554.04   47.80
  -3  -6  -1  511.45   41.80
   3   6  -1  504.45   49.10
   3  -6  -1  486.05   41.70
  -3   6  -1  583.74   46.10
   3   6   1  484.75   40.40
   3   6   1  480.25   52.59
  -3   6  -1  467.55   40.50
  -3   6  -1  522.85   42.50
  -3  -6   1  508.75   41.70
  -3   6  -1  507.65   44.40
   3   6   1  564.84   43.10
   3   6   1  560.74   48.10
  -3   8   1   14.10   18.10
   3   8  -1   16.20    4.90
  -3   8   1   35.80   11.40
   3   8  -1   22.10   21.60
   3   8  -1   10.20    8.70
  -3   8   1    5.80   14.80
   3   8  -1    9.20   15.90
  -3   8   1    7.70    8.40
   3   8   1   12.00   15.10
   3   8   1   23.10    8.70
  -3   8  -1   -4.30   14.70
   3   8   1   12.90   25.50
  -3   8  -1   30.70   11.80
   3  -8  -1    9.10    7.50
  -3   8  -1   15.80    8.90
  -3   8  -1    7.40   15.60
   3  10  -1    9.00   13.80
   3  10  -1   16.70   30.90
  -3  10   1   29.70   12.70
  -3  10  -1   18.20    5.50
   3  10   1   17.10   13.90
  -3  10  -1   39.40   13.00
  -3   1   2 2218.88  178.48
   3  -1  -2 2355.36  178.58
  -3  -3  -2   85.09    7.20
  -3   3   2   67.39   13.40
  -3   3   2   81.69    9.50
   3   3  -2   74.69   11.00
  -3   3   2   78.09    7.10
   3   3  -2   86.99    7.80
   3   3  -2   73.09   15.10
   3   3  -2   86.19    8.50
  -3  -3  -2   79.59   14.60
   3   3  -2  102.39    7.20
  -3  -3  -2   85.89    9.80
  -3   3   2   95.19   12.50
  -3   3   2   92.19    9.00
   3   3   2   72.79    6.70
   3   3   2   58.59   13.60
   3  -3  -2   71.89    7.90
  -3  -3   2   84.39    9.30
   3   3   2   86.29    8.80
  -3  -3   2  104.39    9.90
   3  -3  -2   61.39   12.20
  -3   3  -2   71.09   10.90
   3   3   2  125.99   25.30
   3   3   2   70.29   10.90
  -3   3  -2   88.99   10.00
  -3   3  -2   85.29   16.80
  -3   3  -2   94.99    8.20
  -3   5   2   80.59   10.50
   3   5  -2   59.09    7.30
  -3  -5  -2   77.79    8.40
   3   5  -2   57.79    6.10
  -3   5   2   53.29    5.70
  -3   5   2   59.49   12.70
   3   5  -2   66.09   14.40
  -3  -5  -2   65.79    6.40
   3   5  -2   69.59   13.20
  -3   5   2   57.19    6.40
   3   5  -2   59.39    8.30
  -3   5   2   55.89   10.40
  -3   5   2   68.69   13.00
   3   5  -2   72.99    6.90
  -3  -5   2   63.49    7.70
   3  -5  -2   73.29    7.00
   3   5   2   76.79    6.60
  -3   5  -2   64.79   11.80
   3   5   2   75.39   12.40
   3   5   2   59.39    5.40
  -3   5  -2   66.19   11.90
  -3   5  -2   48.00    6.40
   3   5   2   66.99    8.40
   3   5   2   76.59   19.20
  -3   5  -2   67.49    7.80
   3   5   2   82.89   15.90
  -3   5  -2   56.79    7.10
  -3   7   2  113.19   16.60
   3   7  -2  129.49   22.20
   3   7  -2  106.29   15.80
  -3   7   2  110.29   13.70
   3   7  -2   99.79   10.80
  -3   7   2  115.69   17.60
  -3   7   2   88.39   21.40
  -3  -7  -2  116.09   13.60
   3   7  -2   94.39   18.90
  -3   7  -2  161.18   17.50
  -3   7  -2   93.89   16.20
  -3  -7   2  120.09   13.80
  -3   7  -2  129.19   15.90
  -3   7  -2   97.69   19.00
   3   7   2   93.59   17.10
   3   7   2  109.19   27.10
   3  -7  -2  139.39   12.50
   3   7   2  131.89   17.70
   3   9  -2   38.70   25.10
  -3   9   2   53.59   12.40
   3   9  -2   29.60   17.40
  -3   9  -2   30.50   18.60
  -3   9  -2   46.30    9.50
   3   9   2   22.00   12.30
  -3   9  -2   44.10   18.00
   3  -9  -2   16.60    8.40
   3   9   2    2.20   32.40
  -3   9  -2   38.30   12.30
  -3   9  -2   41.10    5.80
  -3   0  -3  127.69   10.30
   3   0  -3  143.79   13.30
  -3   0   3   94.89   14.90
  -3   0   3  133.59   10.30
  -3   0  -3  157.18   27.40
   3   0   3  134.99   10.30
   3   0  -3  128.49   12.20
   3   0  -3  126.19   10.30
  -3   0   3  122.29   11.70
   3   0   3  151.78   26.90
   3   2  -3  133.29   12.20
  -3  -2  -3  159.98   12.60
  -3  -2  -3  199.58   27.00
  -3   2   3  138.29   11.30
   3   2  -3  131.59   11.20
   3   2  -3  116.19   14.10
  -3  -2  -3  147.49   11.30
  -3   2   3  134.99   14.50
   3   2  -3  161.38   16.80
  -3   2   3  185.88   20.70
   3  -2   3  157.18   22.90
   3   2   3  117.29   14.10
   3   2   3  162.38   34.20
   3   2   3  131.99   12.50
  -3  -2   3  147.09   11.50
   3  -2  -3  136.89   11.50
   3  -2  -3  160.78   14.40
  -3  -2   3  144.79   12.50
  -3  -2   3  112.69   14.20
  -3   2  -3  155.88   11.80
   3   2   3  107.89   17.20
   3   2   3  138.19   11.20
  -3   2  -3  156.38   20.80
   3  -2  -3  191.98   19.90
   3   4  -3 1178.88   99.69
   3   4  -3 1247.48   99.19
   3   4  -3 1319.37  101.09
  -3   4   3 1255.17   99.89
  -3  -4  -3 1312.87   99.49
  -3   4   3 1206.08  101.49
   3   4  -3 1256.27  100.99
  -3   4   3 1414.86  101.39
   3   4  -3 1377.26   99.09
  -3  -4  -3 1306.17  100.49
  -3   4   3 1216.18   99.29
   3  -4   3 1364.66  101.39
  -3   4   3 1283.47   99.99
   3  -4  -3 1220.98  101.79
   3   4   3 1192.38   99.99
  -3   4  -3 1284.57   99.19
   3   4   3 1248.68  102.29
   3  -4  -3 1235.38   99.09
  -3  -4   3 1312.57   99.39
   3   4   3 1263.07   99.29
  -3   4  -3 1214.28   99.69
  -3   4  -3 1222.18  101.69
  -3   4  -3 1280.57   99.19
  -3  -4   3 1192.58   99.99
  -3   4  -3 1250.47  100.69
   3   4   3 1432.76  105.09
   3   6  -3   61.39    8.60
  -3   6   3   71.89   17.10
  -3   6   3   52.39   13.90
  -3   6   3   52.89    9.60
   3   6  -3   50.19   13.60
  -3  -6  -3   40.10    6.20
   3   6  -3   66.99   15.70
   3   6  -3   54.69    5.30
  -3   6   3   41.70   10.90
  -3   6   3   67.69   11.10
   3   6  -3   45.40    4.90
  -3   6  -3   54.09    5.20
  -3   6  -3   28.60   12.90
   3  -6  -3   42.90    6.40
   3   6   3   45.30   23.90
  -3   6  -3   40.00    5.50
   3   6   3   62.09    9.70
  -3   6  -3   67.29    5.70
  -3   6  -3   52.79   12.60
   3   6   3   42.00   13.50
  -3  -6   3   51.09    8.10
  -3   6  -3   61.89    8.00
  -3   6  -3   53.89    9.40
   3   6   3   46.80    4.60
   3   8  -3   87.49   11.90
  -3  -8  -3   68.09   10.20
   3   8  -3   84.39    9.00
   3   8  -3   74.89   22.10
  -3   8   3   61.09   23.40
  -3   8   3  114.69   13.50
  -3   8   3   63.39   16.30
   3   8  -3   77.79   18.50
  -3   8   3   89.39   11.90
  -3   8  -3   57.69   14.90
  -3   8  -3   86.09    9.50
   3   8   3   92.89   12.30
   3   8   3   85.49   13.80
  -3   8  -3   94.79   14.10
   3   8   3   54.19   32.40
   3  -8  -3  106.69   11.30
  -3   8  -3   79.49   12.20
  -3   8  -3   83.79   16.00
  -3  -8   3   84.19   10.40
   3   8   3   95.79   18.80
  -3  10   3   -8.40   11.30
   3  10  -3   21.80   29.20
   3  10  -3  -18.00   14.10
   3 -10  -3  -12.30    8.20
  -3  10  -3   11.20   13.50
  -3  10  -3    9.20    7.40
   3  10   3   -1.40   12.20
  -3  10  -3   12.00   21.50
  -3   1   4  717.63   53.59
   3  -1   4  765.12   57.99
  -3   1   4  622.64   54.89
  -3  -1  -4  781.42   61.29
   3   1  -4  615.54   54.29
   3   1  -4  651.53   53.29
   3   1  -4  724.83   54.99
  -3   1   4  624.54   53.49
  -3  -1   4  716.93   54.39
   3   1   4  648.74   53.19
   3   1   4  570.24   55.79
   3   1   4  793.12   60.29
   3  -1  -4  595.14   53.59
   3  -1  -4  765.22   55.09
  -3   1  -4  750.02   58.19
   3  -1  -4  562.14   55.39
  -3   3   4  670.83   60.09
   3   3  -4  728.23   56.69
   3   3  -4  646.34   57.29
  -3   3   4  708.53   57.69
   3  -3   4  768.32   56.69
  -3  -3  -4  746.23   56.49
  -3   3   4  726.73   56.49
   3  -3  -4  680.73   59.59
  -3  -3   4  671.23   57.49
  -3   3  -4  668.63   56.99
   3   3   4  680.23   57.59
   3   3   4  655.63   60.69
   3   3   4  763.62   56.89
  -3   3  -4  659.73   58.49
   3   3   4  868.31   66.59
  -3   3  -4  821.42   60.49
  -3   3  -4  758.02   56.59
  -3  -3   4  803.22   56.89
  -3   3  -4  752.52   56.89
  -3   5   4  134.89   17.10
  -3   5   4  119.49   16.20
   3   5  -4  125.19   12.00
   3   5  -4  148.69   20.80
   3   5  -4  115.79   18.80
  -3   5   4  127.99   11.00
  -3   5   4  137.89   17.70
  -3   5   4  149.39   24.00
  -3  -5  -4  148.59   11.90
   3   5  -4  146.39   11.30
   3   5  -4  134.59   14.80
   3   5  -4  147.09   11.80
   3  -5   4  114.59   20.30
   3   5   4  182.48   28.30
  -3   5  -4  135.69   11.90
   3   5   4  115.49   17.80
   3  -5  -4  164.78   18.90
   3  -5  -4  150.78   12.20
   3   5   4  139.89   16.20
  -3  -5   4  148.29   15.70
  -3   5  -4  109.89   11.80
  -3   5  -4  157.58   20.70
  -3   5  -4  110.99   22.40
   3   5   4  139.09   10.90
  -3   5  -4  149.39   11.70
  -3   5  -4  146.99   14.50
  -3  -5   4  130.89   13.70
   3   7  -4   24.40   14.60
  -3   7   4   17.50   19.90
  -3   7   4   26.70   11.00
   3   7  -4   34.50    8.50
  -3  -7  -4   29.60    6.00
   3   7  -4   23.40   15.40
  -3   7   4   21.20    9.10
  -3   7   4   26.30   13.90
   3   7  -4   30.90    4.10
   3   7   4   29.10   15.90
  -3   7  -4   26.50    7.20
   3   7   4   27.40   28.70
   3   7   4   26.80   11.80
   3  -7  -4   35.00    6.70
  -3  -7   4   32.00    7.80
  -3   7  -4   31.70   10.00
  -3   7  -4   20.30   13.70
  -3   7  -4   27.10    4.70
   3   7   4   22.40   10.30
   3   9  -4   31.10   21.10
   3   9  -4   49.10   17.70
  -3  -9  -4   46.20    9.00
  -3   9   4   53.29   12.20
   3   9  -4   77.69   18.20
  -3   9  -4   30.50   11.50
  -3   9  -4   68.29    6.50
  -3   9  -4   31.50   18.00
   3  -9  -4   53.59    9.80
   3   9   4   46.80   13.70
  -3   0   5 3737.93  263.67
  -3   0  -5 3677.53  262.27
   3   0   5 2822.92  301.97
   3   0  -5 2954.30  262.87
  -3   0  -5 2570.44  295.37
   3   0  -5 2999.40  294.47
  -3   0   5 2837.32  291.87
   3  -2   5   49.60   14.70
  -3  -2  -5   48.90   20.60
   3   2  -5   53.29    5.10
   3   2  -5   58.89   10.30
   3   2  -5   56.89    7.70
   3  -2   5   48.20    5.30
   3   2  -5   44.00    4.10
  -3   2   5   41.60   11.40
  -3  -2  -5   43.30    4.30
  -3   2   5   46.00    4.20
  -3   2   5   38.50    7.60
   3  -2  -5   38.20    4.60
   3  -2  -5   37.80    6.60
   3  -2  -5   31.70   10.90
   3   2   5   53.29    5.20
  -3   2  -5   48.40    4.80
   3   2   5   38.30    4.10
  -3  -2   5   48.60    6.50
   3   2   5   27.10   12.90
  -3  -2   5   42.30    4.40
  -3   2  -5   57.19   13.60
  -3  -2   5   55.99    5.20
  -3  -2   5   63.39   12.90
   3   2   5   53.59   20.20
  -3  -4  -5 1331.67  102.89
   3  -4   5 1294.77  103.29
   3   4  -5 1209.38  100.49
   3   4  -5 1289.47  100.99
  -3   4   5 1301.07  103.19
  -3   4   5 1227.38  100.59
   3   4  -5 1235.78  100.39
   3   4  -5 1242.48  102.69
  -3   4   5 1357.56  101.29
   3  -4  -5 1270.67  103.29
   3   4   5 1380.06  108.09
  -3   4  -5 1146.09  103.39
  -3   4  -5 1327.67  100.39
   3   4   5 1318.67  100.59
  -3   4  -5 1254.17  100.79
   3   4   5 1343.87  103.49
  -3  -4   5 1378.86  100.59
  -3   4  -5 1296.37  102.19
  -3  -4   5 1271.57  101.19
   3   4   5 1303.67  101.39
  -3   4  -5 1298.67  100.59
   3  -4  -5 1300.97  100.39
   3   6  -5  108.09    9.90
   3  -6   5   95.79   20.80
   3   6  -5  110.99   21.80
  -3   6   5  126.79   17.00
   3   6  -5   99.49   13.80
  -3   6   5  132.39   13.20
   3   6  -5  116.89    9.40
  -3  -6  -5  105.59   10.50
  -3   6  -5  108.49    9.90
   3   6   5   82.69   17.70
  -3   6  -5  100.39   10.10
   3   6   5  135.49   14.80
  -3   6  -5  107.09   13.20
   3   6   5   70.29   30.00
   3  -6  -5   95.29   11.00
   3   6   5  111.59   13.00
   3   6   5  102.09    8.80
  -3   6  -5  118.19   16.40
  -3  -6   5  108.79   13.30
  -3   8   5  251.57   22.60
   3   8  -5  178.18   33.90
  -3   8   5  190.28   23.10
  -3  -8  -5  151.38   18.20
  -3   8   5  262.47   29.30
   3   8  -5  148.19   23.40
   3   8  -5  196.48   21.20
   3   8  -5  209.78   16.60
   3   8   5  211.08   29.50
   3   8   5  226.38   24.00
  -3   8  -5  262.27   29.80
  -3   8  -5  274.77   23.70
  -3   8  -5  214.08   20.30
   3  -8  -5  179.58   18.70
  -3   8  -5  183.48   16.70
  -3  -8   5  187.48   19.90
   3   8   5  201.28   23.70
   3  -1   6   76.69   16.40
   3   1  -6   79.19   16.70
   3   1  -6   90.49   10.10
  -3   1   6   58.09   11.50
   3   1  -6   56.79    5.40
  -3  -1  -6  106.59   19.30
   3   1  -6   62.09    7.80
  -3  -1  -6   60.19    5.50
  -3  -1  -6   58.49   10.60
  -3   1   6   72.99   10.20
  -3   1   6   70.59    7.30
  -3   1   6   63.29    5.40
   3  -1   6   67.19    5.80
  -3  -1   6   66.29   13.80
  -3   1  -6   95.39   15.50
   3   1   6   35.60   11.90
   3   1   6   68.49   18.00
  -3   1  -6   66.79    5.60
   3   1   6   59.09    5.50
   3  -1  -6   84.99   13.00
  -3  -1   6   74.39   10.60
  -3  -1   6   57.59    7.80
   3   1   6   62.19    7.00
   3  -1  -6   62.19    5.60
   3   1   6   61.79    7.90
   3  -1  -6   60.69   11.60
   3  -1  -6   76.89    9.20
  -3  -1   6   63.89    5.50
   3   3  -6  124.39   14.40
   3   3  -6  138.59   11.70
   3   3  -6  114.09   19.70
  -3   3   6  149.69   16.20
  -3  -3  -6  136.29   27.30
   3  -3   6  119.99   22.30
  -3   3   6  151.08   15.20
  -3   3   6  119.89   10.80
  -3  -3  -6  153.58   11.00
   3   3  -6  141.39   10.80
   3  -3  -6  148.09   17.10
  -3  -3   6  136.29   17.30
   3   3   6  133.89   12.00
   3   3   6  132.19   10.80
  -3  -3   6  143.89   12.20
  -3   3  -6  143.59   11.20
   3   3   6  143.99   24.60
  -3   3  -6  107.49   22.00
   3  -3  -6  131.29   11.30
  -3  -3   6  143.89   11.20
   3   3   6  146.49   14.20
   3   3   6  124.29   17.20
  -3  -3   6  124.39   14.10
   3   5  -6    4.90    4.50
  -3  -5  -6    0.90    8.70
  -3   5   6    3.30   12.30
   3   5  -6   -0.10    6.50
  -3   5   6   12.40    9.70
   3  -5   6    7.10   12.30
   3   5  -6    3.10    1.90
   3   5  -6    7.30    3.80
  -3  -5  -6   -0.50    3.40
  -3   5  -6   -5.80    3.80
   3  -5  -6   18.70   15.50
   3   5   6    5.90   25.40
  -3   5  -6    4.50    3.20
  -3  -5   6    4.20    7.10
   3   5   6    0.10   10.10
  -3   5  -6    6.40    5.60
   3  -5  -6    1.90    4.00
  -3   5  -6    5.60    2.90
   3   5   6    6.20    7.90
  -3  -5   6    2.50    5.80
  -3   5  -6   -1.10   10.90
   3   5   6    3.40   13.40
   3   5   6    5.10    1.50
   3   7  -6    1.50   13.70
   3   7  -6   10.40    2.80
  -3   7   6   18.90    9.90
  -3   7   6   17.70   10.30
   3   7  -6    5.30   16.00
  -3   7   6   -1.30   12.90
  -3  -7  -6    3.50    4.70
   3   7  -6    4.50    8.20
  -3   7  -6   -4.70    7.10
  -3  -7   6    5.50    7.50
  -3   7  -6    1.90    3.30
   3  -7  -6    6.70    5.80
   3   7   6    4.50    9.20
  -3   7  -6    7.10   15.30
   3   7   6    5.30   15.30
  -3   7  -6    2.40   11.30
   3   7   6   27.40   29.80
   3   7   6    6.50   11.90
  -3   9   6   52.09   11.20
   3   9  -6   -1.40   20.60
  -3  -9  -6    6.40    7.50
   3  -9  -6   23.70    7.60
  -3   9  -6   28.90    4.30
   3   9   6   18.00   12.70
  -3   9  -6    6.60   15.70
  -3   9  -6   18.60   16.20
   3   0  -7  508.55   42.60
  -3   0   7  515.75   39.10
   3   0  -7  470.55   38.50
  -3   0   7  495.75   41.10
  -3   0   7  482.65   40.30
   3   0  -7  495.45   39.30
   3   0   7  517.55   45.20
   3   0   7  494.35   38.50
  -3   0   7  482.45   38.50
   3   0  -7  472.05   41.60
  -3   0  -7  531.45   46.80
  -3   0  -7  478.45   38.50
  -3   2   7   82.29   11.90
   3  -2   7  114.19   24.00
   3   2  -7  111.39   11.10
   3   2  -7  100.09   18.30
  -3   2   7   86.79    7.30
  -3   2   7   99.49   13.40
  -3   2   7   91.29    9.60
   3   2  -7   95.79    7.30
   3   2  -7   82.69    8.80
  -3  -2  -7   85.59    7.40
  -3  -2  -7   91.19   20.60
   3  -2   7   90.09    7.90
   3  -2  -7   92.09   14.10
  -3  -2   7   86.09    9.00
  -3   2  -7   90.29    7.60
  -3  -2   7  111.89   16.10
   3   2   7   83.19    7.30
   3  -2  -7   89.29    7.60
  -3   2  -7  106.89   22.70
   3  -2  -7   84.49   16.40
   3   2   7   70.39   14.60
  -3  -2   7   88.69    7.50
   3   2   7   72.69   10.40
   3  -2  -7   87.29    9.40
  -3  -2   7   69.89   10.80
   3   2   7  100.99   19.80
   3   2   7   86.59    8.80
  -3   4   7  500.05   36.60
  -3  -4  -7  410.86   41.60
  -3   4   7  386.76   34.10
  -3   4   7  418.46   35.50
  -3   4   7  505.75   40.60
  -3  -4  -7  468.45   34.20
   3   4  -7  424.36   34.50
   3  -4   7  436.46   41.30
   3   4  -7  423.06   35.90
   3   4  -7  451.65   34.10
   3   4   7  425.36   34.10
  -3  -4   7  425.66   35.80
  -3  -4   7  426.66   34.90
  -3  -4   7  465.25   38.70
  -3   4  -7  470.85   34.30
   3   4   7  440.86   41.70
  -3   4  -7  411.96   45.20
   3   4   7  414.06   34.80
  -3   4  -7  414.26   34.90
   3   4   7  383.06   48.30
   3  -4  -7  456.35   34.40
   3  -4  -7  470.55   41.30
   3   4   7  448.76   37.40
   3   4   7  437.36   36.40
  -3   6   7  149.99   14.00
   3   6  -7  112.29   17.20
   3   6  -7  107.69   14.10
  -3  -6  -7  118.19   10.70
   3  -6   7   86.49   16.60
  -3   6   7   91.69   16.60
   3   6  -7  109.89   11.00
   3   6  -7  104.39    9.10
   3   6   7  127.69   18.40
   3  -6  -7  111.09   10.90
  -3   6  -7  112.69    9.80
  -3   6  -7  110.89   12.50
  -3   6  -7   97.39   17.10
   3   6   7  134.69   15.10
   3   6   7   99.19   18.60
   3   6   7   64.79   30.30
  -3  -6   7   99.39   13.20
   3   8  -7   58.09   17.30
   3   8  -7   52.19    5.90
  -3   8   7   60.59   10.90
   3   8  -7   47.50   10.60
  -3  -8  -7   47.60    7.20
   3   8  -7   46.20   25.70
  -3   8  -7   70.89    6.90
  -3   8  -7   62.89   16.80
  -3  -8   7   41.00    9.00
   3   8   7   44.00   12.30
  -3   8  -7   61.49   13.70
   3  -8  -7   32.80    7.10
   3   1  -8 1042.00   77.89
  -3   1   8  921.11   74.79
   3  -1   8  940.61   74.29
   3   1  -8  896.11   76.19
  -3  -1  -8 1123.29   81.49
   3   1  -8  915.11   74.69
  -3   1   8 1071.79   76.19
  -3   1   8  810.32   75.89
   3   1   8  957.80   74.49
  -3   1  -8  974.90   79.09
   3   1   8 1086.39   79.99
   3  -1  -8 1112.29   78.19
  -3  -1   8 1055.59   76.79
  -3  -1   8 1008.80   74.69
  -3  -1   8  847.22   75.29
   3   1   8  868.91   74.89
   3  -1  -8  863.01   74.89
   3  -1  -8  850.81   76.89
   3   1   8  814.12   76.29
  -3   3   8  172.98   14.90
  -3  -3  -8  192.78   15.10
  -3  -3  -8  184.48   32.70
  -3   3   8  161.58   24.10
   3   3  -8  175.78   19.20
   3   3  -8  202.28   14.90
   3   3  -8  166.48   15.80
  -3   3   8  158.08   18.60
   3  -3   8  191.78   15.40
   3  -3   8  208.48   27.00
   3   3  -8  194.48   24.90
   3   3   8  183.58   15.90
  -3  -3   8  213.78   22.00
  -3  -3   8  201.08   15.20
   3   3   8  195.18   31.50
   3   3   8  206.68   27.60
  -3   3  -8  171.98   26.40
  -3  -3   8  199.08   16.10
  -3   3  -8  205.48   15.10
   3  -3  -8  201.48   15.20
   3  -3  -8  174.38   20.90
   3   3   8  179.78   19.90
   3   3   8  184.98   14.90
  -3  -3   8  152.08   17.60
  -3  -5  -8  103.69   21.70
  -3  -5  -8  138.29   11.70
   3   5  -8  141.09   11.00
   3   5  -8  109.69   12.90
   3   5  -8  128.69   15.80
   3  -5   8  141.29   24.40
   3   5  -8  127.09   12.00
  -3   5   8  170.78   24.80
  -3   5   8  164.18   17.80
   3   5   8  107.79   18.40
  -3  -5   8  146.69   14.30
   3   5   8   86.49   27.60
  -3  -5   8  135.89   16.10
   3  -5  -8  140.09   11.90
   3   5   8  139.99   15.50
   3  -5  -8  163.48   20.90
  -3   5  -8  138.49   11.30
   3   5   8  151.68   18.00
  -3   7   8  116.49   12.70
   3   7  -8  103.19    8.70
   3   7  -8   95.19   21.40
  -3   7   8   88.39   16.90
   3   7  -8   90.29   17.40
  -3   7   8  107.59   13.90
   3   7  -8  119.69   13.10
  -3  -7  -8   88.19   10.70
   3   7   8  125.69   14.10
  -3   7  -8  107.89   14.90
  -3   7  -8   97.79    9.30
  -3  -7   8   81.79   11.40
   3   7   8   49.70   17.20
   3   7   8  132.19   15.30
   3  -7  -8   99.49   11.00
   3   7   8   73.89   31.90
  -3   9   8   39.10   10.40
   3   9  -8   12.60   20.30
  -3  -9  -8    8.90    6.60
   3  -9  -8    5.50    6.60
   3   9   8   11.00   12.20
  -3   9  -8   17.60    3.70
  -3   9  -8   10.90   15.50
  -3   0   9  112.79   10.70
   3   0  -9  110.69   21.70
  -3   0   9  113.19   13.50
  -3   0  -9   75.99   12.40
  -3   0   9   96.89    8.40
   3   0  -9  123.49   13.60
  -3   0   9   98.69   17.30
  -3   0  -9  122.29   20.70
  -3   0  -9  106.69    8.50
   3   0  -9  107.29   10.80
   3   0   9   98.69    8.50
   3   0   9  127.09   20.50
   3   0  -9  101.29    8.40
   3   2  -9 1232.78   97.59
  -3   2   9 1235.48   97.89
   3  -2   9 1338.57  101.99
  -3   2   9 1194.28   99.29
   3  -2   9 1188.48   97.39
  -3   2   9 1280.47   98.99
  -3  -2  -9 1356.86  103.99
   3   2  -9 1210.48  100.99
   3   2  -9 1277.67   98.89
   3  -2  -9 1132.69  100.19
   3   2   9 1234.08   97.59
   3  -2  -9 1357.66  101.99
   3  -2  -9 1126.79   97.89
  -3  -2   9 1171.68   97.99
  -3  -2   9 1297.07   97.49
  -3  -2   9 1210.88   97.29
   3   2   9 1259.67  100.09
   3   2   9 1310.57   98.09
   3   2   9 1298.87  102.49
  -3   2  -9 1175.98  101.39
  -3  -2   9 1391.96   99.99
   3   4  -9   86.39   11.40
  -3  -4  -9   60.99   19.20
   3  -4   9   98.69   17.60
  -3   4   9  110.49   11.60
  -3  -4  -9   83.09    7.80
  -3   4   9  120.79   15.50
   3   4  -9   67.19    9.10
   3   4  -9   86.19    7.30
  -3  -4   9   79.19   10.10
  -3   4  -9   84.69    7.60
   3  -4  -9   84.69   17.00
   3   4   9   50.69   22.30
  -3  -4   9   89.09   14.10
   3  -4  -9   79.29    8.20
  -3  -4   9   88.99   12.60
   3   4   9   96.69   18.30
   3   4   9  102.09   13.00
  -3  -4   9   81.39    8.10
   3   4   9  103.19   14.60
   3   6  -9  461.95   36.10
  -3   6   9  511.85   43.90
  -3  -6  -9  447.06   36.40
  -3   6   9  531.95   39.40
   3   6  -9  415.46   38.40
   3   6   9  486.45   40.40
   3  -6  -9  433.56   36.60
  -3   6  -9  457.55   36.20
   3   6   9  442.56   45.80
   3   6   9  498.75   40.20
  -3  -6   9  440.46   37.40
  -3   8   9  -12.70    9.90
  -3  -8  -9   -1.70    5.20
   3   8  -9    9.30   16.60
   3  -8  -9   -0.60    5.40
  -3   8  -9    1.70    3.10
   3   8   9    4.80   11.40
  -3  -8   9   11.30    8.30
  -3  -1 -10   -1.40   11.10
  -3   1  10    3.60    1.40
  -3   1  10    1.60    5.20
  -3  -1 -10    5.00    1.80
   3   1 -10   -1.80   12.90
   3   1 -10    5.50    1.70
  -3  -1 -10    2.80   19.80
   3  -1  10   -3.80   16.60
   3   1 -10    5.30    5.10
  -3   1  10   18.60    8.10
   3  -1  10    2.60    1.90
   3   1 -10    1.20   10.10
  -3   1  10   -2.00    9.50
   3  -1 -10   -2.20   10.80
  -3  -1  10    3.30    6.80
  -3  -1  10   -5.10    5.10
   3  -1 -10    3.90    2.00
   3   1  10    2.50    1.60
   3   1  10   -0.50    3.40
   3   1  10   11.10    9.30
  -3   1 -10    4.20    1.90
  -3  -1  10    4.80    1.80
   3   1  10    2.50   17.80
   3  -1 -10    7.20    5.60
  -3  -1  10    2.10   10.50
  -3   1 -10   -0.40   15.00
   3   1  10    2.70    5.50
   3  -1 -10    2.20   16.20
  -3  -3 -10   20.30    2.80
   3   3 -10    6.90    4.60
  -3  -3 -10   25.60   23.20
  -3   3  10   20.50    7.60
   3  -3  10   20.50   15.70
   3   3 -10   21.50    2.40
  -3   3  10   10.90   10.70
   3   3 -10   10.10    9.30
   3   3  10   -6.00   14.80
   3  -3 -10   21.30   13.30
  -3  -3  10   21.80   11.20
   3   3  10    7.00   19.60
  -3  -3  10   14.40    2.80
   3  -3 -10   21.60    3.00
   3   3  10   22.00    9.50
  -3  -3  10   18.80    7.00
   3   3  10   22.10    4.70
  -3   3 -10   19.70    2.80
  -3  -3  10   17.40    5.40
  -3  -5 -10   37.80    4.60
   3  -5  10   36.50   15.20
   3   5 -10   18.90    9.60
   3   5 -10   41.10    4.50
  -3   5  10   29.80   14.60
  -3   5  10   47.00   10.50
   3   5  10   45.00   11.60
   3  -5 -10   35.20    4.70
  -3  -5  10   46.50    7.50
  -3   5 -10   36.60    4.00
  -3  -5  10   26.40    8.80
   3   5  10   50.49    9.70
   3   5  10   38.10   16.60
   3   5  10   23.40   22.70
   3  -5 -10   53.29   17.40
  -3  -7 -10    4.50    4.70
   3   7 -10   -3.20   14.80
  -3   7  10   -4.90   11.10
   3   7 -10    4.50    2.60
   3  -7  10    2.20   14.80
   3   7  10   -8.20   11.90
  -3  -7  10   -6.80    8.20
  -3   7 -10    2.90    2.90
   3   7  10   34.10   19.50
   3  -7 -10    5.00    5.10
   3   0 -11   26.70    6.20
  -3   0 -11   35.80   19.40
  -3   0 -11   35.00    4.10
   3   0 -11   52.49   12.50
  -3   0  11   35.50    5.80
  -3   0  11   51.79   12.40
  -3   0  11   32.80    8.30
   3   0  11   35.40   19.20
   3   0 -11   32.00    4.00
   3   0 -11   33.70   14.70
   3   2 -11  859.81   76.59
  -3  -2 -11  950.60   85.49
  -3   2  11 1018.10   78.69
   3   2 -11  966.30   78.49
   3  -2  11 1048.00   81.69
  -3   2  11 1035.80   77.09
  -3   2  11  949.40   78.69
  -3  -2 -11  992.00   76.19
  -3  -2  11  928.61   77.19
   3  -2 -11 1000.50   83.59
   3   2  11  869.61   76.49
   3   2  11  908.81   79.39
   3  -2 -11 1012.30   76.19
  -3  -2  11  971.40   76.49
   3   2  11 1037.70   77.29
  -3  -2  11 1079.29   79.79
   3   2  11 1020.40   82.69
   3  -2 -11  974.20   80.29
  -3  -4 -11   18.60    3.30
   3   4 -11    9.20    9.60
  -3   4  11   16.50    8.70
  -3   4  11   17.40   11.70
   3   4 -11   24.20    2.80
   3  -4  11   17.10   15.40
   3   4  11   -1.30   16.10
   3  -4 -11   24.50    3.60
  -3  -4  11   17.90   11.60
   3   4  11   17.80    9.20
  -3  -4  11    7.60    7.60
  -3  -4  11   25.60    5.80
   3   4  11   11.20   10.40
  -3   4 -11   22.20    3.00
   3   4  11   17.80   21.40
   3  -4 -11   17.70   15.90
  -3  -6 -11  283.27   23.70
   3   6 -11  312.17   23.20
  -3   6  11  337.27   33.50
   3  -6  11  225.68   32.30
  -3   6  11  347.57   28.20
  -3   6 -11  283.47   23.30
  -3  -6  11  289.27   25.30
   3   6  11  349.07   29.10
   3  -6 -11  282.67   23.90
   3   6  11  253.87   36.30
   3   6  11  291.17   29.30
  -3   8  11   13.50   10.90
   3   8 -11    5.80   16.60
  -3  -8 -11   -2.70    5.10
   3  -8 -11   10.30    5.40
  -3   8 -11    4.30    3.00
   3   8  11    1.60   11.40
   3   1 -12  408.06   34.70
  -3   1  12  432.46   39.30
  -3  -1 -12  434.46   33.70
   3   1 -12  437.96   33.60
  -3  -1 -12  391.36   48.10
   3  -1  12  382.96   44.00
  -3   1  12  473.45   34.80
  -3   1  12  452.25   36.70
   3   1 -12  447.56   38.80
   3   1  12  459.15   34.90
   3  -1 -12  423.26   39.90
   3   1  12  492.95   37.70
   3  -1 -12  440.86   45.60
   3  -1 -12  439.96   33.70
  -3  -1  12  432.56   35.90
  -3  -1  12  422.06   34.50
  -3   1 -12  436.96   33.70
   3   1  12  392.66   34.10
   3  -1 -12  381.06   35.00
  -3  -1  12  433.66   39.70
   3   1  12  407.16   46.40
   3   3 -12  164.48   21.10
   3   3 -12  156.18   12.00
  -3   3  12  143.69   16.70
   3  -3  12  126.89   27.20
  -3  -3 -12  150.18   12.20
  -3   3  12  154.78   22.40
  -3   3  12  115.79   19.30
   3  -3 -12  182.58   21.40
  -3  -3  12  128.39   22.70
  -3  -3  12  150.98   14.00
   3   3  12  127.89   24.40
   3  -3 -12  150.08   12.30
   3   3  12  169.08   18.50
  -3  -3  12  151.38   16.10
  -3   3 -12  145.69   12.10
   3   3  12  164.18   20.00
  -3   5  12   71.99   10.80
  -3  -5 -12   65.79    7.20
   3   5 -12   71.39    6.30
   3  -5  12   38.40   16.80
  -3   5  12   60.59   13.50
  -3   5 -12   62.09    6.40
   3   5  12   88.39   12.30
   3  -5 -12   75.29    7.80
   3  -5 -12   61.19   19.20
  -3  -5  12   51.99    8.80
   3   5  12   67.39   18.40
   3   5  12   58.89   12.50
   3   7 -12   49.90    5.40
  -3   7  12   57.09   11.80
   3   7 -12   75.09   17.50
  -3  -7 -12   32.70    5.80
   3  -7  12   26.50   15.50
   3   7  12   29.60   12.30
  -3   7 -12   48.80    5.50
   3  -7 -12   30.90    5.90
   3   0 -13   34.80    4.50
   3   0  13   39.70   20.00
   3   0 -13   38.50    7.30
  -3   0  13   37.20   13.50
  -3   0  13   49.30    9.70
   3   0 -13   16.90   20.60
  -3   0  13   46.90    7.10
  -3   0 -13   37.70    3.80
   3   0 -13   47.90   13.60
  -3   2  13   73.69    8.70
   3   2 -13   71.59    6.30
  -3   2  13   56.89   11.40
  -3  -2 -13   71.49    6.50
  -3   2  13   78.79   14.20
   3  -2  13   75.09   18.30
   3   2 -13   69.99   13.60
   3   2  13   65.19   22.40
  -3   2 -13   71.19    6.20
   3  -2 -13   44.90   16.30
  -3  -2  13  100.09   21.10
   3   2  13   62.29   10.10
   3   2  13   56.59   14.30
  -3  -2  13   49.60    9.10
   3  -2 -13   62.69    6.60
  -3  -2  13   61.39    7.60
   3  -4  13  185.98   30.50
  -3   4  13  271.67   27.80
  -3  -4 -13  212.18   17.40
   3   4 -13  222.68   17.10
  -3   4  13  237.78   21.80
  -3   4 -13  211.88   17.20
   3   4  13  241.28   31.50
  -3  -4  13  186.88   18.90
  -3  -4  13  180.98   26.50
   3  -4 -13  237.08   32.80
   3   4  13  222.18   23.20
   3   4  13  234.18   22.80
   3  -4 -13  218.88   17.50
   3   6 -13   15.70    2.80
  -3  -6 -13    7.10    4.40
   3  -6  13    9.30   13.70
  -3   6  13   10.80    9.60
   3  -6 -13    8.30    4.40
   3   6  13   36.90   12.70
  -3   6 -13   10.20    2.70
   3   6  13   25.10   22.60
  -3   1  14   18.20   13.00
   3  -1  14   12.40   18.10
  -3  -1 -14   20.20    2.80
  -3   1  14   16.00    6.30
   3   1 -14   23.30    2.80
   3   1 -14    9.90   13.40
  -3   1  14   16.10    8.90
  -3   1 -14   21.80    2.80
   3   1  14   21.70    6.60
   3  -1 -14   24.60    3.00
   3   1  14    2.10    9.40
   3   1  14   38.70   20.60
  -3  -1  14   19.10    6.30
  -3  -1  14   24.20   13.60
   3  -1 -14   19.60   15.00
  -3  -1  14   -1.10    8.10
   3  -3  14  101.69   21.10
   3   3 -14  110.49    9.20
  -3   3  14   98.29   19.80
  -3   3  14  119.19   15.80
  -3  -3 -14  106.49    9.40
  -3   3  14  129.89   12.30
   3  -3 -14  122.69   20.60
   3   3  14  108.89   12.80
   3   3  14   68.49   24.40
   3  -3 -14  113.09    9.60
  -3   3 -14  107.89    9.20
  -3  -3  14  135.89   22.30
   3   3  14   90.89   17.20
  -3  -3  14   90.79   11.80
   3  -5  14   15.20   13.90
   3   5 -14   34.40    3.40
  -3   5  14   27.40   14.60
  -3   5  14   29.80   10.30
  -3  -5 -14   32.10    4.20
   3  -5 -14   28.40   25.90
   3  -5 -14   34.50    4.60
   3   5  14   42.00   18.60
   3   5  14   20.40   11.90
  -3   5 -14   22.60    3.40
   3   5  14   35.20   10.40
  -3  -7 -14   10.10    4.90
  -3   7  14    8.50    9.20
   3   7 -14    9.80   16.10
   3  -7  14    5.00   13.70
   3  -7 -14    7.40    5.00
   3   7  14   -0.40   12.60
  -3   7 -14    5.60    2.70
   3   0 -15  526.05   49.90
   3   0 -15  560.84   42.80
  -3   0 -15  538.15   42.80
  -3   0  15  608.44   45.80
  -3   0  15  506.35   48.80
   3   0  15  469.05   52.29
  -3   0  15  604.14   44.20
  -3  -2 -15    3.10    2.70
   3   2 -15    8.80    2.50
   3  -2  15    8.90   16.80
  -3   2  15   -2.40   12.50
  -3   2  15    7.20    7.10
  -3   2  15   -5.00    9.80
  -3  -2  15   -0.70    5.50
  -3   2 -15    3.60    2.40
  -3  -2  15    2.70   12.80
   3  -2 -15   -6.20   16.50
   3   2  15    1.10   11.50
   3  -2 -15    1.10    2.90
   3   2  15    5.60   20.60
   3   2  15   10.50    7.70
  -3   4  15  224.78   21.30
  -3   4  15  250.67   27.70
  -3  -4 -15  200.68   16.90
   3   4 -15  216.18   16.60
   3   4  15  231.78   29.60
   3   4  15  234.48   23.20
   3   4  15  209.48   21.80
   3  -4 -15  238.98   33.60
  -3  -4  15  148.99   27.00
  -3   4 -15  201.18   16.50
   3  -4 -15  196.08   16.90
   3  -6  15    0.10   13.90
   3   6 -15   11.90    2.80
  -3   6  15   -1.80   10.90
  -3  -6 -15    9.20    4.10
   3   6  15    8.50   11.90
   3  -6 -15    8.80    4.30
  -3   6 -15   10.30    2.70
  -3   1  16  109.19   12.20
   3   1 -16   98.69    8.40
  -3   1  16   85.99   16.70
  -3  -1 -16  102.99    8.50
  -3   1 -16  107.39    8.40
   3   1  16   59.19   21.90
  -3  -1  16   97.09   11.90
  -3  -1  16   67.59   15.90
   3  -1 -16   93.39    8.40
  -3  -3 -16  110.99   10.10
  -3   3  16  122.09   14.40
  -3   3  16  143.19   20.40
   3   3 -16  120.39    9.80
  -3   3 -16  116.19    9.80
   3   3  16   89.29   13.40
   3  -3 -16  112.89   21.90
   3  -3 -16  113.09   10.20
   3   5 -16    8.70    2.70
   3  -5  16    8.90   13.70
  -3   5  16   -3.80    9.80
  -3  -5 -16    7.10    3.90
   3  -5 -16    7.00    3.90
   3   5  16   11.50   11.00
  -3   5 -16    6.30    2.70
   3   0  17   67.79   19.40
   3   0 -17   95.19    8.00
  -3   0  17   72.29   15.80
  -3   0 -17   90.49    7.80
   3  -2  17    3.10   18.00
  -3   2  17   -0.40    7.00
  -3  -2 -17    0.50    2.80
   3   2 -17    1.20    2.70
  -3   2 -17    1.00    2.50
   3  -2 -17    7.30    2.90
  -3  -2  17    9.90   13.70
   3   2  17  -16.20   19.30
   3  -4  17   22.30   16.90
   3   4 -17   54.39    5.30
  -3   4  17   51.79    9.40
  -3  -4 -17   44.90    5.10
   3  -4 -17   41.00    5.00
  -3   4 -17   49.40    5.30
   3   4  17   33.80   11.50
   3   1 -18   92.59    8.40
  -3  -1 -18   89.39    8.50
  -3   1 -18   94.29    8.20
   3  -1 -18   94.69    8.60
   3   3 -18   37.10    3.80
  -3  -3 -18   38.10    4.20
  -3   3  18   43.50    9.00
   3  -3  18   15.60   17.30
   3  -3 -18   32.90    4.20
  -3  -3  18   25.90   15.40
  -3   3 -18   31.70    3.90
   3   0  19   12.70   19.00
  -3   0 -19   12.60    3.00
   3   0 -19   11.40    3.00
   3   2 -19   83.79    7.80
   3  -2  19   41.80   19.10
  -3  -2 -19   74.39    7.80
   3  -2 -19   94.39    8.00
  -3   2 -19   88.69    7.50
  -4   0   0 4725.43  381.76
  -4   2   0  160.58   19.30
  -4  -2   0  169.68   18.30
  -4   2   0  171.38   13.80
  -4  -2   0  145.39   16.10
   4   2   0  130.39   15.80
   4   2   0  199.38   24.20
  -4   2   0  164.88   15.10
   4   2   0  196.28   14.10
  -4  -2   0  167.78   14.50
   4  -2   0  163.58   14.70
  -4   4   0 4037.70  312.57
  -4   4   0 4202.18  313.57
  -4   4   0 3809.42  313.37
  -4   6   0   37.90    9.40
  -4   6   0   29.40    7.70
  -4   6   0   23.10   10.40
  -4   6   0   21.80   12.50
   4   6   0   22.80    2.60
  -4   6   0   24.10    3.60
   4   6   0   32.70   15.10
   4   6   0   18.80   19.10
  -4  -6   0   24.20    5.90
   4  -6   0   24.50    6.60
   4   6   0   32.60    7.30
  -4   6   0   32.70   13.20
  -4  -6   0   26.10    6.90
  -4   8   0  727.33   54.19
   4   8   0  507.75   53.09
   4   8   0  484.75   62.99
  -4   8   0  617.94   48.60
   4   8   0  655.73   48.80
  -4   8   0  511.65   55.19
   4  10   0   -9.30   13.50
  -4  10   0    8.90    5.40
  -4  10   0   -2.10   11.90
   4  10   0   10.90   31.80
  -4   1   1 2063.39  162.88
   4  -1  -1 2097.09  162.48
  -4  -3  -1  661.63   48.80
  -4   3   1  683.23   49.20
  -4   3   1  653.03   48.90
   4   3  -1  681.73   52.99
  -4   3   1  523.55   52.19
   4   3  -1  629.04   48.80
  -4  -3  -1  670.73   49.40
   4  -3   1  656.93   49.50
   4  -3   1  560.54   52.39
  -4  -3  -1  631.44   50.89
  -4   3   1  598.94   49.80
  -4   3   1  699.93   51.09
  -4  -3  -1  571.74   49.99
   4   3  -1  612.24   49.10
   4   3  -1  537.45   49.80
  -4   3  -1  641.24   51.59
   4   3   1  653.83   49.20
  -4   3  -1  653.43   49.10
   4  -3  -1  663.63   49.10
  -4  -3   1  575.74   50.19
  -4   3  -1  578.84   49.50
   4  -3  -1  542.75   52.09
   4   3   1  730.63   55.69
   4   3   1  561.14   49.99
  -4   3  -1  540.25   50.89
  -4  -3   1  670.33   49.30
  -4   3  -1  662.93   49.00
   4   5  -1  392.56   32.00
   4  -5   1  372.06   31.40
   4   5  -1  346.17   33.30
  -4   5   1  404.86   35.50
  -4  -5  -1  414.76   30.60
  -4   5   1  405.36   32.60
  -4  -5  -1  391.76   31.30
   4   5  -1  396.96   38.50
  -4   5   1  391.76   30.00
  -4   5   1  353.56   30.60
  -4   5   1  338.27   34.50
  -4   5   1  448.46   33.40
   4   5  -1  381.16   29.90
   4   5  -1  371.76   30.50
  -4   5  -1  340.97   30.30
   4   5   1  380.66   29.90
  -4   5  -1  344.87   35.10
   4   5   1  390.76   38.30
   4   5   1  359.76   30.70
  -4   5  -1  409.16   32.20
  -4   5  -1  383.26   30.10
   4   5   1  434.56   42.20
   4   5   1  360.26   32.50
  -4   5  -1  406.26   35.10
  -4  -5   1  393.06   31.30
  -4   5  -1  381.46   31.70
   4  -5  -1  374.66   31.10
   4   5   1  416.96   32.50
  -4  -7  -1  231.08   17.70
   4   7  -1  178.88   33.90
  -4   7   1  175.28   28.80
   4   7  -1  196.78   20.50
   4   7  -1  163.68   24.40
  -4   7   1  197.18   20.60
  -4   7   1  220.18   21.60
  -4  -7  -1  179.68   18.90
  -4   7   1  240.08   28.40
   4  -7  -1  168.88   18.60
  -4  -7   1  170.08   18.30
   4   7   1  199.68   20.80
  -4   7  -1  175.18   23.80
   4   7   1  175.38   30.50
  -4   7  -1  239.08   21.60
   4   7   1  150.78   23.70
  -4   7  -1  213.68   26.60
  -4   7  -1  185.98   19.60
  -4   9   1   48.10   12.10
   4   9  -1    8.90   30.10
   4   9  -1   17.20   27.50
  -4   9   1   31.50   17.20
   4   9   1    8.60   29.60
  -4   9  -1   53.09    9.70
  -4   9  -1   17.60   18.70
   4   9   1   44.80   13.60
  -4   9  -1   34.70    6.20
  -4   9  -1   41.70   12.90
  -4   9  -1   39.40   18.50
   4   0  -2 5628.64  453.95
  -4   0   2 5045.90  469.85
   4   0   2 6264.67  454.95
   4   0  -2 5647.83  467.35
  -4  -2  -2  483.85   42.30
  -4   2   2  492.55   42.10
  -4   2   2  494.25   44.60
   4   2  -2  471.25   42.10
   4   2  -2  616.84   43.10
   4   2  -2  529.95   41.50
   4  -2   2  497.85   43.80
  -4   2   2  551.84   41.20
  -4  -2  -2  507.95   41.60
   4   2  -2  511.55   44.00
  -4  -2  -2  629.64   48.60
   4  -2   2  564.74   46.40
  -4   2  -2  609.34   41.80
   4   2   2  509.15   41.60
  -4   2  -2  608.54   46.50
  -4  -2   2  462.05   42.40
   4  -2  -2  522.75   44.20
   4   2   2  468.55   42.20
   4  -2  -2  506.35   41.30
  -4   2  -2  536.35   41.70
  -4   2  -2  532.75   41.40
  -4  -2   2  526.85   41.60
   4  -2  -2  504.15   42.20
  -4   2  -2  573.74   43.20
  -4   4   2 1634.94  113.89
  -4   4   2 1459.95  113.39
  -4  -4  -2 1446.76  114.19
   4  -4   2 1669.13  114.69
  -4   4   2 1458.25  113.99
  -4   4   2 1318.37  114.89
  -4  -4  -2 1511.25  113.09
   4   4  -2 1556.64  114.89
  -4   4   2 1466.65  112.89
   4   4  -2 1443.46  112.79
   4   4  -2 1601.64  114.39
   4   4  -2 1538.35  112.69
   4   4  -2 1316.37  113.29
   4   4   2 1464.65  112.89
  -4   4  -2 1386.56  112.79
   4  -4  -2 1396.66  112.79
  -4   4  -2 1325.57  113.19
  -4  -4   2 1507.65  112.99
  -4  -4   2 1386.86  113.59
   4   4   2 1372.66  115.49
  -4   4  -2 1222.28  114.09
   4   4   2 1675.73  117.59
  -4   4  -2 1402.76  113.29
  -4   4  -2 1321.47  112.79
  -4   4  -2 1377.96  114.69
   4  -4  -2 1423.66  115.19
   4   4   2 1398.36  113.49
  -4  -6  -2   36.30    5.70
  -4   6   2   49.00   14.00
  -4  -6  -2   46.00    7.70
   4   6  -2   29.90   14.40
  -4   6   2   29.70   12.10
   4   6  -2   48.20    4.60
   4   6  -2   31.40    7.90
   4   6  -2   38.60    3.60
  -4   6   2   38.50   10.00
   4   6  -2   35.10   16.50
  -4   6   2   45.90    9.10
  -4   6   2   18.40   13.30
  -4   6  -2   46.70    7.30
  -4   6  -2   36.10    5.60
  -4   6  -2   29.50    4.60
   4   6   2   46.60    9.00
  -4   6  -2   30.50   11.50
  -4  -6   2   46.70    8.10
   4   6   2   52.89   21.90
   4   6   2   23.10   14.90
   4   6   2   34.10    3.70
  -4   6  -2   30.30   12.30
  -4   6  -2   32.80    8.70
   4   6   2   23.80    8.40
   4  -6  -2   38.10    6.70
  -4   8   2  281.77   31.60
   4   8  -2  210.18   38.00
  -4  -8  -2  244.88   20.60
   4   8  -2  246.08   22.80
   4   8  -2  226.38   19.00
  -4   8   2  264.17   23.90
   4   8  -2  251.17   34.10
  -4   8   2  213.08   38.60
  -4   8  -2  284.67   24.50
   4   8   2  197.28   30.40
  -4   8  -2  200.58   27.40
  -4   8  -2  207.18   19.20
  -4   8  -2  247.28   22.30
   4   8   2  234.48   23.90
   4  -8  -2  187.98   21.40
   4   8   2  165.88   36.30
  -4  -8   2  222.78   21.70
   4  10  -2   -6.00   29.50
   4  10  -2    4.80   14.30
  -4  10   2   17.30   12.10
   4  10   2    7.80   12.70
  -4  10  -2    9.00   12.60
  -4  10  -2    8.50    4.70
  -4   1   3 2007.80  151.78
   4   1   3 1867.71  151.08
   4  -1  -3 1946.41  151.98
   4   3  -3 1259.57   96.99
  -4  -3  -3 1330.27   95.39
  -4   3   3 1070.39   97.19
   4   3  -3 1324.57   95.19
  -4   3   3 1169.08   95.69
   4  -3   3 1345.57   97.69
  -4  -3  -3 1419.16   97.79
   4   3  -3 1224.18   95.19
   4   3  -3 1052.39   95.59
   4   3   3 1142.49   95.79
  -4  -3   3 1326.17   95.29
   4   3   3 1149.19   98.09
   4  -3  -3 1219.68   95.09
  -4   3  -3 1111.39   95.49
  -4   3  -3 1424.36   97.79
  -4   3  -3 1272.17   95.19
   4  -3  -3 1121.79   97.19
  -4   3  -3 1098.69   95.39
   4   3   3 1258.27   95.29
  -4   3  -3 1358.36   95.39
  -4   3  -3 1045.00   96.29
  -4  -3   3 1123.09   95.69
  -4  -5  -3  641.74   49.60
   4   5  -3  538.85   51.69
  -4   5   3  653.03   53.49
  -4   5   3  667.63   50.49
  -4   5   3  603.84   53.59
  -4   5   3  565.34   49.00
  -4   5   3  631.94   48.50
  -4   5   3  552.54   51.09
   4   5  -3  656.33   52.99
  -4  -5  -3  671.13   48.80
   4   5  -3  690.23   48.60
   4  -5   3  640.24   52.19
   4   5  -3  585.34   48.90
   4   5  -3  660.73   48.60
   4   5  -3  633.44   49.90
   4  -5  -3  643.74   54.79
  -4   5  -3  652.53   52.09
   4   5   3  615.64   48.50
   4   5   3  600.94   49.00
  -4  -5   3  668.03   49.40
  -4   5  -3  570.54   48.70
  -4   5  -3  529.15   52.79
   4   5   3  587.24   59.99
  -4   5  -3  621.74   48.80
   4  -5  -3  627.94   49.00
   4   5   3  569.44   54.69
  -4   5  -3  683.23   49.99
  -4  -5   3  613.14   50.29
  -4   5  -3  626.74   49.80
  -4   5  -3  653.73   48.90
   4   5   3  621.74   50.19
   4   7  -3  214.48   31.40
  -4   7   3  232.48   29.10
  -4   7   3  258.37   22.70
  -4  -7  -3  202.88   18.60
   4   7  -3  233.58   21.10
  -4   7   3  196.68   21.90
   4   7  -3  168.98   32.60
  -4   7   3  176.98   32.80
   4   7  -3  200.38   17.00
   4   7   3  236.98   22.90
  -4   7  -3  198.08   19.60
   4   7   3  173.58   34.10
   4  -7  -3  198.78   19.20
  -4   7  -3  256.47   21.30
  -4   7  -3  203.48   17.40
  -4   7  -3  222.68   25.90
  -4  -7   3  202.38   19.70
  -4   7  -3  182.18   24.10
   4   9  -3   68.99   25.40
  -4   9   3   89.29   12.30
   4   9  -3   56.99   18.60
  -4   9  -3   73.89   19.70
  -4   9  -3   77.09    9.20
  -4   9  -3   96.89   13.50
   4   9   3   23.80   36.40
   4   9   3   62.09   13.40
   4  -9  -3   58.69    9.90
  -4   0  -4    9.90   19.30
   4   0  -4   29.70    5.50
   4   0   4    9.90   18.60
  -4   0   4   29.10    4.40
  -4   0  -4   16.40    2.00
   4   0  -4   42.90    9.30
   4   0  -4   20.30    1.90
  -4   0   4   13.30    5.70
  -4   0   4   18.70    2.30
   4   0  -4   10.60    7.30
  -4   0   4   34.80    7.60
  -4   2   4 3724.93  302.87
  -4  -2  -4 4422.86  304.97
   4   2   4 3602.24  303.27
   4   2   4 3892.01  302.27
   4  -2  -4 3780.22  302.97
   4   4  -4   13.80    3.70
  -4  -4  -4    8.50    2.60
   4   4  -4   15.60    5.90
  -4   4   4   10.40    1.80
   4  -4   4    7.10   11.50
   4   4  -4   12.10    9.60
  -4  -4  -4   11.50    5.60
  -4   4   4    7.40    7.20
   4   4  -4   10.70    3.70
  -4   4   4    4.40   11.70
  -4  -4  -4   13.00   10.00
  -4   4   4    5.90    3.80
   4   4  -4   11.70    7.60
   4   4  -4   13.90    1.90
  -4   4  -4   12.20    3.20
   4   4   4   14.60   13.30
  -4   4  -4   14.20    3.20
  -4  -4   4    8.30    6.40
   4  -4  -4   14.60    3.40
   4  -4  -4   15.50   11.30
  -4  -4   4    6.90    4.90
  -4   4  -4   10.50   11.70
  -4   4  -4   17.50    9.60
   4   4   4   11.40    1.60
  -4   4  -4   10.80    5.50
   4   4   4   12.00    4.00
  -4   4  -4    8.80    3.80
   4   4   4   35.10   24.20
   4   4   4    6.90    6.10
   4   6  -4  978.80   78.69
  -4  -6  -4 1034.60   78.89
   4  -6   4  859.81   81.89
  -4   6   4 1108.29   82.99
   4   6  -4 1046.70   78.59
   4   6  -4 1002.90   82.69
   4   6  -4 1034.70   79.89
   4   6   4 1118.19   80.59
  -4  -6   4 1004.60   79.39
   4   6   4  922.11   82.99
   4   6   4  908.01   90.89
  -4   6  -4 1100.29   82.09
  -4   6  -4 1008.50   79.69
   4  -6  -4  979.30   78.99
  -4   6  -4  912.31   78.89
  -4   6  -4 1065.79   78.79
  -4   6  -4 1138.99   80.09
   4   6   4  958.80   78.49
   4   8  -4   -3.20   19.80
  -4   8   4    3.80    9.80
  -4   8   4  -10.70   13.60
   4   8  -4   19.90   17.20
  -4  -8  -4   -5.70    6.70
  -4   8   4    5.00   10.70
   4   8  -4   -9.20    3.40
   4   8  -4   -2.40    8.20
  -4  -8   4    3.30    7.40
   4   8   4    0.60   12.80
  -4   8  -4  -24.80   13.60
   4   8   4    8.70   15.10
   4   8   4    1.90   34.50
   4   8   4   -5.70    9.20
  -4   8  -4   -1.20    4.10
  -4   8  -4   -5.00    6.90
   4  -8  -4   14.10    7.00
  -4   8  -4   -3.50    9.90
  -4   8  -4   -1.40   13.10
  -4  -1  -5  273.87   35.40
   4   1  -5  221.38   17.10
  -4  -1  -5  211.78   17.10
   4   1  -5  214.28   18.10
   4   1  -5  262.87   22.30
   4  -1   5  232.78   17.40
  -4   1   5  204.98   18.80
  -4   1   5  221.48   17.10
  -4   1   5  168.98   21.90
   4   1  -5  195.58   21.20
   4  -1  -5  213.58   18.80
  -4   1  -5  269.57   30.20
  -4   1  -5  235.28   17.20
   4   1   5  226.38   17.70
  -4  -1   5  222.68   18.10
  -4  -1   5  181.68   19.70
   4  -1  -5  188.48   23.00
   4  -1  -5  221.48   17.20
   4   1   5  208.68   17.10
  -4  -1   5  232.18   17.10
   4   1   5  179.28   18.80
   4   3  -5  176.78   18.60
   4   3  -5  143.79   15.40
  -4   3   5  153.08   12.60
   4  -3   5  188.38   24.20
  -4  -3  -5  160.88   12.70
  -4   3   5  175.38   17.70
  -4   3   5  150.68   16.10
  -4  -3  -5  171.08   26.50
   4   3  -5  146.49   13.40
   4   3  -5  164.38   12.50
  -4   3  -5  174.18   13.00
  -4  -3   5  152.28   13.90
  -4  -3   5  166.48   13.00
   4  -3  -5  137.89   21.90
   4   3   5  149.79   15.80
   4   3   5  164.18   13.80
   4  -3  -5  150.98   13.00
   4   3   5  185.48   36.70
   4   3   5  158.88   12.50
  -4  -3   5  145.09   15.70
  -4   3  -5  136.69   23.10
   4   3   5  145.59   18.80
  -4  -5  -5   45.00   10.10
   4  -5   5   62.29   14.30
  -4  -5  -5   54.49    5.00
   4   5  -5   49.30    4.70
   4   5  -5   47.20    5.50
   4   5  -5   55.39    5.40
  -4   5   5   52.59    9.30
  -4   5   5   31.40   12.70
   4   5  -5   40.40    7.80
   4   5  -5   47.90   12.70
   4  -5  -5   47.90    5.40
  -4   5  -5   47.00    5.00
  -4   5  -5   50.29   14.00
   4   5   5   46.70   27.00
   4   5   5   44.50    4.40
  -4  -5   5   42.90    7.10
  -4   5  -5   39.60   12.10
   4   5   5   39.60    8.30
  -4   5  -5   27.70    5.20
  -4  -5   5   41.80    8.30
  -4   5  -5   54.29    6.20
   4   5   5   29.30   14.40
   4  -5  -5   36.10   15.80
  -4   5  -5   44.50    7.00
   4   7  -5   23.20    8.90
  -4   7   5   29.40    9.40
   4   7  -5   31.20    3.60
  -4  -7  -5   31.70    5.80
  -4   7   5   25.90    9.70
  -4   7   5   11.40   13.90
   4   7  -5   33.30   15.60
   4   7  -5    2.10   14.70
   4   7   5   27.20   12.20
   4   7   5   36.60   31.60
  -4  -7   5   24.60    7.90
   4   7   5   26.90   10.90
  -4   7  -5   21.80   10.40
  -4   7  -5   29.40    7.60
   4   7   5    0.60   14.60
  -4   7  -5   28.90   14.30
  -4   7  -5   18.70    4.10
   4  -7  -5   14.10    6.70
  -4   9   5  -11.20    9.70
   4   9  -5    2.70   21.60
   4   9   5   -5.00   11.90
   4  -9  -5   -6.50    9.00
  -4   9  -5   19.00   12.90
  -4   9  -5    5.20    3.90
  -4   9  -5    6.60   16.30
   4   0   6   -2.00   16.60
  -4   0   6   10.90    7.60
  -4   0   6    7.10    4.50
  -4   0   6   19.10    6.80
   4   0  -6    6.20    9.90
   4   0  -6    4.30    1.40
  -4   0  -6   11.10   18.20
  -4   0   6    3.20    1.30
  -4   0  -6    6.60    1.50
   4   0  -6    3.60    4.40
   4   0   6   10.40    1.60
   4   0  -6   17.50    9.00
  -4   2   6 3098.39  266.87
   4   2  -6 3608.84  267.47
   4   2   6 3380.66  266.37
   4   2   6 3351.36  267.47
  -4   2  -6 3973.20  268.57
   4   2   6 3287.87  266.37
   4  -2  -6 3243.58  267.17
   4  -2  -6 3424.56  266.27
   4   4  -6    1.90    1.50
  -4   4   6    4.90   12.10
  -4  -4  -6   -0.10    2.40
  -4   4   6    0.40    7.90
  -4  -4  -6    0.00   11.50
   4   4  -6    0.60    6.00
  -4   4   6    2.10    1.40
   4   4  -6    0.70    9.70
  -4   4   6   -3.70    4.00
   4   4  -6   -1.20    3.60
   4  -4   6    3.10   12.70
   4   4   6    1.00    6.70
   4   4   6   -2.90    4.10
  -4   4  -6   -1.80    4.50
  -4   4  -6    0.50   12.40
  -4  -4   6    7.70    6.50
   4  -4  -6    2.00    2.90
  -4   4  -6    4.20    2.70
   4  -4  -6    2.70   12.90
   4   4   6   -2.00   13.40
   4   4   6    1.70    1.40
  -4  -4   6   -4.80    4.80
   4   4   6    4.90   25.00
   4  -6   6  798.22   77.59
   4   6  -6  940.21   78.19
   4   6  -6  934.31   74.09
   4   6  -6  953.30   73.79
  -4  -6  -6  941.31   74.09
   4   6  -6  895.01   75.19
  -4   6   6 1023.60   75.59
  -4   6   6  988.10   78.19
  -4   6  -6  977.60   73.99
  -4   6  -6  861.21   74.09
  -4   6  -6 1068.59   78.19
  -4   6  -6 1042.70   75.59
  -4  -6   6  968.20   74.69
  -4   6  -6  963.90   74.99
   4  -6  -6  972.60   74.19
   4   6   6  964.90   76.19
   4   6   6  788.72   87.09
   4   6   6 1046.00   75.99
   4   6   6  883.21   78.99
  -4   8   6    9.60   13.80
  -4  -8  -6   -0.80    5.70
   4   8  -6   -7.30   18.50
   4   8  -6   -3.30    3.40
  -4   8   6   10.60    9.40
   4   8  -6    2.80   15.60
   4   8  -6   -6.10    8.90
  -4   8  -6    2.30   11.50
  -4   8  -6    0.00   14.80
   4  -8  -6   -3.90    6.80
   4   8   6   -6.90   16.90
   4   8   6   -9.30   11.30
   4   8   6   14.30   34.00
  -4  -8   6    0.00    7.80
  -4   8  -6    3.30    3.70
   4   1  -7 1696.73  134.09
   4   1  -7 1849.52  135.09
  -4   1   7 1559.24  133.99
  -4   1   7 1771.22  133.79
   4  -1   7 1921.81  136.89
   4   1  -7 1704.43  133.09
  -4   1   7 1665.13  133.19
   4  -1  -7 1547.35  133.19
  -4  -1   7 1904.51  134.29
   4  -1  -7 1543.45  134.59
   4   1   7 1567.04  133.29
   4   1   7 1501.95  134.49
   4   1   7 1990.00  136.79
  -4  -1   7 1625.44  133.59
   4   1   7 1707.93  132.99
  -4   1  -7 1792.52  136.59
   4   3  -7 1225.08  101.09
  -4   3   7 1287.47   99.09
  -4  -3  -7 1210.08  103.89
   4  -3   7 1228.98   98.39
  -4   3   7 1207.38  100.69
   4   3  -7 1237.58   98.49
   4  -3   7 1383.56  102.29
   4   3  -7 1166.78   99.29
   4   3   7 1306.07   99.59
  -4   3  -7 1174.38  102.09
   4   3   7 1263.57   98.29
   4   3   7 1250.47  101.69
  -4  -3   7 1206.18   99.09
   4  -3  -7 1241.98  101.19
  -4  -3   7 1404.96  100.39
  -4  -3   7 1312.87   98.29
  -4  -3   7 1361.56   98.59
   4   3   7 1365.96  105.09
   4   3   7 1189.08   99.19
   4   3   7 1246.18   98.59
  -4  -5  -7  433.96   45.00
  -4   5   7  555.94   46.00
  -4   5   7  600.44   42.20
   4   5  -7  523.35   39.60
   4  -5   7  472.55   46.50
   4   5  -7  520.25   41.50
  -4  -5  -7  549.35   39.90
   4   5  -7  457.35   40.10
   4   5  -7  487.75   40.30
   4   5   7  490.55   39.60
   4   5   7  394.26   57.29
  -4   5  -7  463.95   39.90
   4   5   7  510.95   42.30
  -4  -5   7  525.15   41.90
  -4   5  -7  485.35   40.70
  -4   5  -7  555.44   39.90
  -4  -5   7  524.45   40.80
   4  -5  -7  521.75   40.10
   4   5   7  493.95   47.40
   4  -5  -7  574.84   48.60
   4   5   7  538.15   43.40
  -4  -7  -7  235.78   20.80
  -4   7   7  320.97   24.70
   4   7  -7  231.08   19.60
   4   7  -7  222.38   31.40
   4   7  -7  262.97   33.80
   4   7  -7  229.38   23.50
  -4   7   7  306.57   30.80
  -4   7  -7  232.98   22.20
  -4   7  -7  242.68   20.00
   4  -7  -7  211.18   21.00
  -4  -7   7  231.48   22.80
   4   7   7  253.57   32.40
   4   7   7  256.67   26.60
  -4   7  -7  319.07   26.00
   4   7   7  285.87   26.20
  -4   7  -7  340.27   35.60
   4   9  -7   29.00   20.80
   4  -9  -7   26.10    7.30
   4   9   7   48.60   12.50
  -4   9  -7   16.00   15.20
  -4   0   8 1369.66  111.09
   4   0   8 1475.45  114.19
   4   0  -8 1274.57  111.79
  -4   0   8 1501.65  110.49
  -4   0  -8 1462.05  114.99
   4   0  -8 1450.85  112.69
   4   0  -8 1319.27  110.59
  -4   0   8 1476.55  111.59
  -4   2   8  408.16   37.40
   4   2  -8  425.96   33.60
   4   2  -8  443.16   34.20
   4  -2   8  443.56   42.90
   4   2  -8  436.16   39.20
   4   2  -8  457.95   36.40
  -4  -2  -8  486.45   45.90
   4  -2   8  406.76   33.80
  -4  -2  -8  405.06   33.60
  -4   2   8  421.96   35.50
  -4   2   8  409.46   33.60
  -4   2   8  426.56   35.00
   4   2   8  421.56   33.60
  -4  -2   8  440.56   34.20
   4  -2  -8  412.96   34.90
   4   2   8  459.45   44.70
   4   2   8  429.36   40.50
  -4   2  -8  446.96   33.70
  -4  -2   8  423.26   35.00
   4  -2  -8  410.06   38.70
   4  -2  -8  447.96   33.70
  -4   2  -8  420.56   41.20
   4   2   8  406.76   34.10
   4   2   8  463.35   35.80
  -4  -2   8  468.75   37.20
  -4  -2   8  427.76   33.70
   4   4  -8  487.65   42.50
  -4   4   8  538.15   46.90
   4   4  -8  474.45   41.00
   4  -4   8  483.15   47.20
  -4  -4  -8  526.55   40.50
  -4  -4  -8  508.25   49.40
   4   4  -8  534.75   40.40
  -4   4   8  574.94   42.90
  -4  -4   8  537.35   41.20
   4   4   8  558.74   43.60
  -4  -4   8  484.05   40.70
   4   4   8  495.45   40.40
   4   4   8  511.75   42.70
   4   4   8  547.25   47.80
  -4   4  -8  559.24   40.60
  -4  -4   8  504.45   42.10
   4  -4  -8  533.05   47.50
   4  -4  -8  514.05   40.70
   4   6  -8   70.39   10.90
  -4   6   8   79.69   11.40
   4   6  -8   91.29   16.20
   4   6  -8   76.49    6.90
  -4   6   8   75.09   16.00
  -4  -6  -8   82.39    8.40
   4   6   8   30.50   29.40
   4  -6  -8   61.89    7.50
  -4  -6   8   96.79    9.70
  -4   6  -8   79.59    7.80
   4   6   8   50.19   16.80
  -4  -6   8   85.89   11.10
  -4   6  -8   80.79   11.20
   4   6   8   85.49   14.40
   4   6   8   84.09   11.90
  -4  -8  -8   89.19   10.50
   4   8  -8   71.69   19.20
  -4   8   8  129.09   13.30
  -4   8  -8   93.29    8.60
  -4  -8   8   88.19   11.10
   4  -8  -8   56.19    8.80
   4   8   8   75.29   14.20
   4   1  -9  151.28   12.20
  -4   1   9  138.29   17.40
  -4  -1  -9  151.78   12.20
   4   1  -9  180.38   23.40
   4   1  -9  152.38   19.70
   4   1  -9  136.99   13.70
  -4  -1  -9  166.98   32.00
   4  -1   9  150.28   12.30
  -4   1   9  163.78   17.90
   4  -1   9  203.38   30.10
  -4   1   9  154.68   12.20
  -4   1   9  145.99   14.20
  -4  -1   9  166.38   13.90
  -4   1  -9  145.59   26.90
  -4  -1   9  175.38   19.40
   4  -1  -9  155.58   12.30
   4  -1  -9  173.28   25.00
  -4  -1   9  143.79   12.20
  -4   1  -9  168.48   12.30
   4   1   9  150.38   12.20
   4   1   9  133.79   15.20
   4   1   9  139.09   13.00
   4  -1  -9  151.28   21.50
   4   1   9  124.59   20.40
  -4  -1   9  149.09   16.20
   4   1   9  168.48   29.50
   4  -1  -9  134.19   14.70
   4   3  -9   61.89    5.40
  -4  -3  -9   46.30   21.90
   4   3  -9   62.99   10.30
  -4  -3  -9   62.19    5.80
   4   3  -9   66.79    6.70
   4  -3   9   69.49   17.10
  -4   3   9   69.49    9.00
  -4   3   9   53.39   11.40
  -4  -3   9   72.69    7.20
   4   3   9   45.00   10.90
   4  -3  -9   55.59    6.20
   4   3   9   65.09    9.10
  -4  -3   9   65.39   11.80
  -4  -3   9   59.39    6.00
   4   3   9   47.00   16.30
   4   3   9   49.80    5.30
  -4   3  -9   59.39    5.80
  -4  -3   9   53.99    8.30
   4   3   9   59.29   22.40
   4   3   9   57.59    7.60
   4  -3  -9   60.59   15.30
   4   5  -9   20.40    5.70
   4  -5   9   26.80   15.30
   4   5  -9   48.50   10.10
   4   5  -9   43.10    4.40
  -4   5   9   59.19   10.40
  -4   5   9   44.00   13.90
  -4  -5  -9   44.20    4.90
   4   5   9   33.20   25.50
   4   5   9   42.30    9.20
   4   5   9   50.69   12.40
   4  -5  -9   45.70    4.90
   4  -5  -9   47.10   18.70
  -4   5  -9   30.90    4.00
   4   5   9   39.60   17.00
  -4  -5   9   30.40    6.80
  -4  -5   9   49.50    9.30
  -4  -7  -9   32.50    5.30
   4   7  -9   31.10   15.40
  -4   7   9   49.00   15.70
   4  -7   9   16.50   14.40
   4   7  -9   35.20   10.50
  -4   7   9   39.10   10.60
   4   7  -9   32.50    3.60
   4   7   9   28.00   12.00
  -4  -7   9   24.10    8.30
   4   7   9   31.40   10.60
   4  -7  -9   27.10    6.20
  -4   7  -9   26.40    4.00
   4   7   9   25.70   16.30
  -4   9   9    3.40   10.50
   4   9  -9    4.60   22.70
  -4   9  -9    1.60    3.30
   4  -9  -9   -3.00    6.80
   4   9   9    5.70   12.70
  -4   9  -9  -10.30   15.20
  -4   0 -10 2449.05  198.98
   4   0 -10 2393.46  196.38
   4   0  10 2611.74  198.68
   4   0 -10 2609.74  197.88
  -4   0  10 2663.83  196.48
   4   0 -10 2261.97  195.18
  -4   0  10 2553.94  195.68
  -4  -2 -10   45.40    4.80
  -4   2  10   63.79    9.90
  -4   2  10   47.30   11.10
   4   2 -10   45.30    6.50
  -4   2  10   42.20    8.00
   4   2 -10   48.50   14.70
   4  -2  10   68.29   19.10
   4   2 -10   30.00   10.90
   4   2 -10   47.90    4.50
  -4  -2 -10   48.10   22.10
  -4   2 -10   45.80    4.80
  -4  -2  10   51.29    6.10
   4  -2 -10   52.59   19.40
   4   2  10   46.80    5.60
   4   2  10   47.40   14.20
   4   2  10   50.99    8.90
   4  -2 -10   34.10   13.40
   4  -2 -10   34.80    7.20
  -4  -2  10   32.10    7.50
   4  -2 -10   48.30    5.10
  -4  -2  10   52.99   10.80
   4   2  10   48.60   21.00
  -4  -2  10   40.10    4.70
  -4   4  10 1378.76  111.79
  -4  -4 -10 1444.06  109.29
  -4  -4 -10 1335.37  115.39
   4   4 -10 1403.36  110.59
   4   4 -10 1223.98  109.49
   4  -4  10 1286.67  113.29
  -4   4  10 1538.45  110.29
   4   4  10 1455.35  113.69
  -4  -4  10 1428.46  112.09
  -4  -4  10 1417.26  110.29
   4  -4 -10 1419.96  109.29
  -4  -4  10 1216.48  109.29
   4   4  10 1496.75  110.89
  -4  -4  10 1417.86  109.69
   4  -4 -10 1577.74  113.89
   4   4  10 1478.05  110.79
  -4   6  10   -6.30   12.80
  -4   6  10    1.60    9.50
  -4  -6 -10   -1.80    4.00
   4   6 -10    4.60    2.30
   4   6 -10    2.90   10.10
   4   6 -10   -0.40   14.00
   4  -6  10    1.00   13.10
   4   6  10    9.50   11.70
   4   6  10    1.40    9.50
  -4   6 -10    0.60    2.80
  -4  -6  10    4.20    8.90
   4  -6 -10    5.80    4.30
   4   6  10  -14.40   25.20
  -4  -6  10   -5.50    7.10
   4   6  10   -1.40   16.90
  -4   8  10  294.07   24.50
  -4  -8 -10  216.78   20.30
   4   8 -10  226.08   33.80
  -4   8 -10  229.68   18.90
  -4   1  11  216.28   23.20
   4  -1  11  266.17   34.60
   4   1 -11  250.67   25.90
  -4   1  11  245.88   24.70
  -4  -1 -11  272.07   37.80
   4   1 -11  225.98   29.40
  -4   1  11  254.07   20.50
  -4  -1 -11  238.88   19.00
   4   1 -11  247.88   18.90
   4   1 -11  222.98   20.50
  -4  -1  11  235.18   22.10
   4   1  11  222.38   19.60
  -4  -1  11  258.27   20.30
   4   1  11  231.28   35.30
   4  -1 -11  237.98   19.00
   4  -1 -11  246.78   32.50
   4  -1 -11  240.08   27.40
   4   1  11  236.98   25.10
  -4   1 -11  255.37   19.00
  -4  -1  11  244.48   25.90
   4  -1 -11  208.68   20.90
   4   1  11  229.58   21.00
   4   3 -11   99.59    8.10
   4   3 -11   79.59   10.50
   4  -3  11   82.49   19.10
  -4   3  11  118.89   11.80
   4   3 -11  110.39   14.00
  -4   3  11  121.19   15.50
  -4  -3 -11   61.79   26.60
  -4  -3 -11  102.99    8.40
  -4  -3  11   90.79   13.40
   4   3  11   93.99   24.00
  -4  -3  11   96.89   10.90
  -4   3 -11   99.59    8.30
   4   3  11   69.79    9.90
   4  -3 -11   98.99    8.70
   4  -3 -11   98.69   17.80
   4   3  11   83.39   12.50
  -4  -3  11  106.19   19.40
   4   3  11   96.59   17.90
  -4   5  11  117.39   12.30
  -4  -5 -11   94.89    9.30
   4   5 -11  102.29    8.50
  -4   5  11   61.79   15.00
   4  -5  11  100.79   18.80
   4   5 -11  100.89   13.10
  -4  -5  11  102.99   15.10
  -4   5 -11  105.39    8.80
   4   5  11   85.29   19.20
   4   5  11   44.10   25.00
   4  -5 -11  139.49   22.80
   4   5  11   87.39   14.60
   4   5  11  111.79   13.10
   4  -5 -11  102.39    9.70
  -4  -5  11   96.99   12.30
   4   7 -11   39.70   16.50
   4   7 -11   37.30    3.90
  -4   7  11   37.30   10.30
  -4  -7 -11   32.00    6.00
   4  -7  11    9.20   14.20
   4   7  11   40.80   12.70
  -4   7 -11   39.10    4.30
   4  -7 -11   29.40    5.50
  -4  -7  11   52.59   15.20
   4   0  12  656.43   58.79
   4   0 -12  598.64   53.29
  -4   0 -12  617.84   48.60
  -4   0  12  693.33   49.40
   4   0 -12  540.55   49.50
   4   0 -12  567.44   55.49
   4   0 -12  630.64   48.60
  -4   0  12  628.84   52.49
  -4   0  12  665.73   50.69
  -4  -2 -12  200.98   15.90
   4   2 -12  192.48   17.70
   4  -2  12  208.08   31.50
  -4   2  12  208.18   22.20
   4   2 -12  185.68   24.10
   4   2 -12  206.98   15.80
  -4  -2 -12  165.18   30.80
  -4   2  12  232.38   18.40
  -4   2  12  159.68   21.90
  -4  -2  12  201.78   17.20
  -4   2 -12  205.58   15.90
   4  -2 -12  178.08   35.10
  -4  -2  12  191.08   24.20
   4   2  12  202.98   25.20
  -4  -2  12  213.18   19.20
   4   2  12  222.58   19.60
   4  -2 -12  230.18   27.80
   4  -2 -12  203.78   16.00
   4   2  12  171.68   27.70
   4   2  12  184.78   16.90
  -4   4  12  236.38   22.10
   4   4 -12  238.68   24.50
   4  -4  12  197.68   31.50
  -4   4  12  231.28   27.20
   4   4 -12  232.08   17.80
  -4  -4 -12  215.18   18.10
   4   4  12  227.18   23.00
  -4   4 -12  225.98   17.90
   4   4  12  259.57   23.80
  -4  -4  12  212.38   27.10
   4   4  12  244.08   32.50
   4  -4 -12  256.37   33.00
  -4  -4  12  189.68   19.60
   4  -4 -12  245.48   18.30
  -4  -4  12  200.38   21.60
  -4  -6 -12   56.69    5.50
   4   6 -12   51.69   17.30
   4  -6  12   30.00   14.30
  -4   6  12    8.60   12.80
   4   6 -12   46.70    4.90
  -4   6  12   34.20    9.80
  -4  -6  12   28.80    8.70
   4   6  12   44.20   11.10
   4  -6 -12   37.80    5.70
  -4   6 -12   32.80    4.10
   4   6  12   35.80   12.90
   4   6  12   23.30   17.90
  -4   8  12   40.20   10.70
   4   8  12   37.60   12.90
   4   1 -13  299.17   32.40
  -4   1  13  327.57   28.90
   4   1 -13  273.57   26.80
  -4   1  13  368.76   26.70
   4   1 -13  321.67   25.30
  -4  -1 -13  312.67   25.30
  -4   1  13  324.37   31.20
   4  -1  13  309.17   38.80
   4   1  13  297.87   41.00
   4  -1 -13  329.07   25.30
  -4  -1  13  319.67   26.50
   4   1  13  342.17   29.40
  -4   1 -13  324.87   25.30
  -4  -1  13  337.97   32.40
   4   1  13  321.77   26.70
   4  -1 -13  300.47   33.70
  -4  -1  13  326.17   28.20
   4   3 -13  247.18   19.20
  -4   3  13  291.57   27.50
   4   3 -13  232.38   26.80
  -4  -3 -13  230.88   19.30
  -4   3  13  275.77   22.70
  -4   3  13  214.98   24.10
   4  -3  13  202.48   32.10
   4   3  13  269.97   23.70
  -4  -3  13  239.68   20.90
  -4  -3  13  219.18   27.40
   4   3  13  259.97   30.90
   4   3  13  272.47   24.00
  -4   3 -13  253.47   19.30
   4  -3 -13  259.27   32.30
  -4  -3  13  231.38   22.60
   4   3  13  176.28   37.60
   4  -3 -13  257.47   19.50
  -4  -5 -13  136.09   12.00
  -4   5  13  152.88   18.80
  -4   5  13  186.88   15.70
   4   5 -13  139.69   11.40
   4   5  13  112.69   16.40
   4  -5 -13  181.88   23.20
  -4  -5  13  120.39   15.00
  -4   5 -13  131.89   11.50
   4   5  13  140.29   19.00
   4   5  13   88.19   21.40
   4  -5 -13  137.89   12.30
   4   7 -13   33.40   17.10
   4  -7  13    6.40   13.60
  -4   7  13   48.60   10.30
  -4  -7 -13   30.70    5.40
   4   7  13   11.40   12.20
  -4   7 -13   26.00    3.50
   4  -7 -13   27.90    5.30
  -4   0  14    0.80   12.20
  -4   0  14    7.00    9.00
   4   0  14    4.80   20.40
   4   0 -14    0.70   13.30
   4   0 -14   -1.00    2.40
  -4   0 -14    4.20    2.50
  -4   0  14    9.30    6.70
  -4   2  14  776.12   63.49
   4   2 -14  807.82   60.79
  -4   2  14  695.73   64.39
  -4   2  14  790.92   61.69
   4  -2  14  682.83   67.89
  -4  -2 -14  801.92   60.89
   4   2 -14  743.93   64.79
  -4  -2  14  710.13   64.99
   4   2  14  719.83   70.99
  -4  -2  14  785.02   62.39
   4  -2 -14  779.62   66.99
   4   2  14  863.61   62.29
   4   2  14  924.91   64.89
   4  -2 -14  818.22   60.89
  -4   2 -14  791.22   60.79
  -4  -4 -14   -6.20    3.10
  -4   4  14   -8.00   12.80
   4   4 -14   -1.20    2.40
  -4   4  14    0.90    9.80
   4  -4  14  -10.60   16.70
   4   4  14    1.80    9.20
   4  -4 -14    0.30    3.30
  -4  -4  14   -1.00    7.10
   4   4  14    6.30   16.90
   4   4  14    2.00   23.20
  -4   4 -14    2.80    2.40
   4  -4 -14   -4.30   18.20
   4   4  14    0.80   11.10
  -4  -6 -14  251.67   21.60
   4   6 -14  258.47   35.00
   4   6 -14  266.37   21.00
  -4   6  14  293.87   25.70
  -4   6 -14  256.77   21.00
   4   6  14  270.77   28.30
   4  -6 -14  264.57   21.60
   4   1 -15    5.90    2.60
  -4   1  15   -2.70   12.00
  -4   1  15    1.20    6.10
  -4   1  15    2.60    8.90
   4   1 -15   16.70   14.30
   4  -1  15    3.80   18.90
  -4  -1 -15    7.90    2.60
   4  -1 -15  -12.10   15.90
   4  -1 -15    4.90    2.60
  -4  -1  15    2.20    6.70
  -4   1 -15    2.60    2.50
  -4  -1  15   -4.30    8.50
   4   1  15    8.60   20.80
  -4  -1  15    6.10   12.30
   4   1  15    6.20    6.40
  -4  -3 -15    0.30    2.80
   4  -3  15   -8.70   17.20
   4   3 -15    1.70    2.30
  -4   3  15   -0.50    7.20
  -4   3  15    0.20   10.70
  -4  -3  15    6.40   12.80
   4   3  15   15.10   22.80
   4   3  15   -3.40   19.00
   4   3  15   -7.80   10.00
   4  -3 -15    0.50    3.00
   4  -3 -15   -8.20   17.50
  -4   3 -15    0.30    2.30
  -4   5  15   10.70   10.00
   4  -5  15    3.20   16.10
  -4  -5 -15    2.60    3.60
   4   5 -15   -1.90    2.60
  -4   5 -15    3.50    2.50
   4   5  15   -0.40   11.80
   4  -5 -15    1.60    3.90
   4   0 -16    0.40    2.60
  -4   0  16   -1.20    7.30
   4   0  16    3.90   19.40
  -4   0 -16   -1.50    2.40
  -4   0  16   -0.50   12.60
  -4   2  16  495.85   40.10
  -4   2  16  520.15   42.20
   4  -2  16  386.96   47.60
  -4  -2 -16  489.85   38.80
   4   2 -16  515.45   38.70
  -4   2 -16  491.95   38.70
   4  -2 -16  524.75   48.80
   4   2  16  522.45   40.20
   4  -2 -16  499.75   38.80
   4  -4  16   -2.60   16.80
  -4  -4 -16    2.30    3.20
   4   4 -16    1.80    2.50
  -4   4  16    2.10    8.20
  -4   4  16  -17.80   14.30
  -4   4 -16   -2.70    2.30
   4   4  16   15.90   11.40
   4  -4 -16   -0.90    3.60
   4   1 -17   53.59    5.30
   4  -1  17   19.00   18.10
  -4  -1 -17   44.40    4.50
  -4   1  17   31.40   14.30
  -4   1  17   37.80    8.50
  -4   1 -17   44.50    5.10
  -4  -1  17   32.20   14.40
   4  -1 -17   50.89    5.60
   4   1  17   23.90   20.60
  -4  -3 -17   48.60    5.50
  -4   3  17   63.89    9.70
   4  -3  17   23.50   18.60
   4   3 -17   61.09    5.80
   4  -3 -17   66.79    6.50
  -4   3 -17   56.29    5.80
  -4   0 -18  247.68   18.60
   4   0 -18  244.08   18.60
  -4   0  18  170.98   28.60
  -4   2  18   15.80    7.50
   4   2 -18    1.60    2.90
   4  -2  18    7.40   18.20
  -4  -2 -18    3.40    3.00
  -4   2 -18    3.60    2.70
  -4  -2  18   -1.60   14.20
   4  -2 -18    2.10    3.20
   4   2  18    2.20   25.70
   4  -1  19   18.70   19.50
  -4  -1 -19   60.79    6.20
   4   1 -19   64.79    6.20
   4   1  19   26.60   19.40
  -4   1 -19   57.49    5.90
   4  -1 -19   64.59    6.50
   5  -1   0    6.50   14.80
   5   1   0    9.70   15.70
   5   1   0    8.60    3.60
   5  -1   0   -6.10    7.90
  -5   1   0    4.30    3.90
  -5   1   0    8.20    3.00
  -5   1   0   -2.30    7.20
   5  -1   0    7.30    4.50
   5   1   0    4.30    4.90
  -5  -1   0    9.60   14.40
   5  -1   0   -0.70    3.90
  -5  -1   0   -0.40    3.50
  -5  -1   0    6.20    5.60
   5  -3   0    5.00    4.80
  -5  -3   0   -5.20    6.90
   5   3   0   -0.60    5.10
  -5   3   0    7.50    2.80
  -5  -3   0   -4.50    5.10
   5  -3   0   -1.90    7.70
  -5   3   0    6.70   10.30
  -5   3   0   15.80    9.80
   5   3   0    2.70   13.20
   5  -3   0    5.10   10.20
   5   3   0    4.50    3.20
  -5   3   0    5.90    5.70
  -5  -3   0   23.00    7.00
   5   5   0   -2.10   15.80
   5   5   0    4.40    7.00
   5   5   0   -1.60    6.30
   5   5   0   -0.20    1.40
  -5   5   0    0.50    2.50
  -5   5   0    1.00   10.90
  -5   5   0    0.20   11.60
  -5   5   0   18.50    7.50
  -5  -5   0  -10.40    6.60
   5  -5   0    1.60    6.10
  -5  -5   0   -0.40    4.50
   5   5   0    1.30    3.80
  -5   5   0    1.50    3.50
   5   7   0    6.80   22.70
  -5   7   0   -0.10   12.40
  -5   7   0    5.90   10.00
  -5   7   0    5.00    8.00
   5   7   0   -6.30   16.50
   5   7   0   -4.20    7.60
  -5   7   0    0.70   14.30
   5  -7   0   -0.80    7.40
  -5  -7   0   -2.00    6.50
   5   9   0    8.50   28.50
  -5   9   0    7.00   16.90
  -5   9   0    9.50   11.40
  -5   0   1  783.92   66.39
   5   0  -1  876.71   70.09
  -5   0  -1  734.73   65.69
  -5   0  -1  924.41   72.39
   5   0  -1  767.12   66.29
   5   0   1  965.20   73.59
  -5   0   1  869.61   68.99
   5  -2   1 4889.51  380.66
   5   4  -1   53.89    5.40
   5   4  -1   72.99   14.20
  -5   4   1   56.49    8.60
  -5  -4  -1   58.59    6.80
   5  -4   1   64.99    7.70
  -5  -4  -1   80.49   10.70
  -5   4   1   69.29    7.50
  -5   4   1   33.50   12.70
  -5   4   1   78.09   11.40
   5   4  -1   53.49    7.90
  -5   4   1   62.29    6.00
  -5  -4  -1   72.09    7.70
   5   4  -1   57.49    7.40
   5   4  -1   65.89   12.90
  -5   4  -1   68.19    7.80
   5   4   1   68.09    6.60
  -5  -4   1   56.39    8.80
  -5   4  -1   85.39   11.90
   5   4   1   59.49    5.20
  -5   4  -1   31.80   10.30
  -5   4  -1   49.30    6.90
   5  -4  -1   81.39    7.00
   5  -4  -1   49.20   13.20
   5   4   1   74.49   17.60
  -5  -4   1   70.49    7.60
   5   4   1   59.09    8.20
  -5   4  -1   65.99    6.70
  -5   6   1 1501.55  113.49
   5   6  -1 1298.97  115.69
  -5   6   1 1494.25  114.69
  -5   6   1 1551.14  113.29
  -5   6   1 1550.04  115.49
   5   6  -1 1314.37  111.99
   5   6  -1 1472.85  113.29
   5  -6   1 1327.27  112.79
  -5  -6  -1 1563.24  112.49
   5   6  -1 1430.46  117.19
  -5  -6  -1 1415.16  112.69
  -5  -6   1 1488.65  112.79
   5   6   1 1371.86  119.49
  -5   6  -1 1409.06  113.19
   5   6   1 1428.56  113.29
   5  -6  -1 1439.36  112.69
   5   6   1 1308.67  111.99
   5   6   1 1376.96  115.99
  -5   6  -1 1584.54  113.19
  -5   6  -1 1494.85  114.89
   5   8  -1  -11.90   18.00
  -5   8   1    9.30    9.10
  -5   8   1   25.60   15.40
   5   8  -1   12.50    9.10
  -5   8   1   17.60   10.90
  -5   8   1    1.20   16.90
   5   8  -1   -5.90   25.00
   5   8  -1   -7.50    4.30
   5   8   1   17.20   27.00
  -5   8  -1    9.20    8.90
   5   8   1    3.20    9.60
  -5  -8   1    0.70    7.60
  -5   8  -1   -9.80   15.80
  -5   8  -1   -3.00   11.00
   5  -8  -1  -12.70    7.40
  -5   8  -1    5.00   15.10
   5   8   1   -7.90   14.80
   5  10  -1   71.09   34.20
   5  10  -1   65.29   15.70
  -5  10   1  103.39   14.20
  -5  10  -1  104.99   11.30
   5  10   1   95.89   16.10
  -5  10  -1  111.59   15.20
   5   1  -2 4685.03  420.46
   5  -1   2 4825.42  402.86
  -5   1   2 4523.75  411.16
   5  -1  -2 5146.78  400.16
   5  -1  -2 5173.88  421.66
  -5  -1   2 5273.97  401.66
  -5   3   2 1162.88  104.79
  -5  -3  -2 1491.75  105.59
  -5  -3  -2 1378.96  103.19
   5   3  -2 1312.07  102.99
   5   3  -2 1142.39  103.39
   5   3  -2 1397.26  105.39
  -5   3   2 1234.58  103.39
   5  -3  -2 1179.78  104.79
   5  -3  -2 1302.97  102.89
   5   3   2 1191.88  103.59
  -5   3  -2 1408.16  102.99
  -5   3  -2 1401.16  105.49
  -5  -3   2 1217.18  103.59
  -5   3  -2 1458.65  103.09
  -5   3  -2 1235.48  103.09
   5   3   2 1339.77  103.09
   5   3   2 1530.55  108.89
  -5  -3   2 1410.16  103.09
   5  -5   2  436.86   35.70
   5   5  -2  391.86   33.10
   5   5  -2  411.56   31.10
   5   5  -2  363.16   34.70
  -5   5   2  389.46   31.10
  -5  -5  -2  435.36   32.40
   5   5  -2  419.86   39.30
   5   5  -2  402.56   31.00
  -5   5   2  399.36   37.70
  -5   5   2  336.87   31.70
   5   5  -2  385.26   31.60
  -5  -5  -2  398.96   31.40
  -5   5   2  445.56   35.20
  -5   5   2  362.66   35.80
  -5   5   2  422.96   33.70
  -5   5  -2  380.56   32.70
  -5   5  -2  394.26   31.30
   5   5   2  440.56   44.40
   5   5   2  400.16   33.60
   5   5   2  390.56   30.90
   5   5   2  380.66   31.80
   5  -5  -2  411.06   31.90
   5   5   2  349.67   39.60
  -5   5  -2  375.36   35.10
  -5   5  -2  379.76   36.30
  -5   5  -2  418.76   32.80
  -5   5  -2  373.66   31.40
   5  -5  -2  422.06   39.70
  -5  -5   2  416.26   32.40
  -5  -5   2  389.26   33.40
   5   7  -2  274.97   39.30
   5   7  -2  335.97   29.30
  -5   7   2  397.36   30.20
  -5  -7  -2  320.47   27.50
   5   7  -2  312.07   26.30
   5   7  -2  295.47   38.30
  -5   7   2  400.26   36.10
  -5  -7  -2  322.57   28.40
  -5   7   2  327.87   36.40
  -5   7   2  330.27   29.80
  -5   7  -2  315.77   28.70
  -5  -7   2  296.17   28.00
  -5   7  -2  417.46   34.30
   5   7   2  282.87   47.70
   5   7   2  308.37   36.50
  -5   7  -2  389.36   29.60
  -5   7  -2  302.87   31.90
   5   7   2  361.06   30.20
   5  -7  -2  317.37   28.30
  -5   9   2  167.78   19.60
   5   9  -2   79.79   29.80
  -5   9  -2  191.78   20.70
  -5   9  -2   98.59   11.80
   5   9   2   86.69   16.50
  -5   9  -2  141.39   16.30
   5   9   2  110.69   37.50
  -5   9  -2  120.59   23.50
   5   0   3 2116.89  141.09
   5   0  -3 1588.64  137.59
  -5   0   3 1583.64  137.39
  -5   2   3  640.74   49.00
   5   2  -3  634.24   51.49
  -5   2   3  580.44   51.69
   5   2  -3  557.64   49.99
  -5  -2  -3  763.92   57.69
  -5   2   3  610.84   49.90
  -5  -2  -3  650.33   49.50
   5   2  -3  649.54   49.30
  -5   2  -3  752.22   54.79
   5   2   3  555.04   49.99
   5  -2  -3  529.25   52.19
   5   2   3  540.65   49.30
   5  -2  -3  600.54   49.90
  -5  -2   3  715.83   49.00
  -5   2  -3  676.13   49.60
  -5  -2   3  582.94   50.09
   5  -2  -3  620.54   49.10
  -5  -2   3  685.43   49.40
  -5   4   3 1786.92  148.09
   5   4  -3 2036.90  146.09
   5   4  -3 1863.41  146.19
   5  -4   3 2061.99  148.49
  -5   4   3 1784.52  146.29
   5   4  -3 1748.82  146.59
  -5  -4  -3 1946.91  146.39
  -5   4   3 1863.71  146.69
   5   4  -3 1873.11  147.69
  -5  -4  -3 1837.92  147.89
   5  -4  -3 1865.91  148.39
  -5   4  -3 1850.71  146.49
  -5  -4   3 1997.10  146.39
   5   4   3 1887.81  148.89
   5   4   3 1797.02  146.89
   5   4   3 2091.39  151.98
   5  -4  -3 1884.81  146.19
  -5   4  -3 2021.00  146.29
  -5   4  -3 1861.11  146.69
  -5   4  -3 1742.73  148.29
  -5   4  -3 1753.92  147.29
  -5   4  -3 1888.51  146.19
  -5  -4   3 1825.72  146.89
   5   4   3 1812.12  146.29
   5   6  -3   89.09   10.60
  -5   6   3   79.69   17.50
  -5   6   3   69.39   14.10
   5   6  -3   97.89   20.00
  -5  -6  -3   69.29    7.70
   5   6  -3   73.99    7.40
   5  -6   3   83.69   14.70
  -5   6   3   90.39   16.00
  -5   6   3   92.89   11.30
  -5  -6  -3   83.09    9.90
   5   6  -3   76.29    7.10
  -5   6  -3   68.39   13.20
  -5   6  -3   48.20   14.10
  -5   6  -3   73.49    8.90
   5   6   3   59.19   26.00
  -5  -6   3   75.29    9.40
   5   6   3  113.49   12.00
   5   6   3   74.99    6.50
  -5   6  -3   79.99    8.60
  -5   6  -3   62.89   10.40
  -5   6  -3   88.09   12.40
   5  -6  -3   93.09    8.80
   5   6   3   91.49   18.50
  -5   8   3  158.38   19.30
   5   8  -3  150.68   12.60
   5   8  -3  160.38   18.50
  -5  -8  -3  140.29   15.40
  -5   8   3  189.78   19.70
  -5   8   3  210.88   27.00
   5   8  -3  105.29   24.00
   5   8  -3  106.59   22.20
  -5   8  -3  144.39   16.40
  -5  -8   3  139.99   16.30
   5   8   3  165.88   19.70
  -5   8  -3  133.59   13.30
   5  -8  -3  148.49   16.70
  -5   8  -3  194.58   26.50
   5   8   3   64.79   33.30
  -5   8  -3  188.88   19.30
  -5   8  -3  121.59   22.00
  -5  10   3   30.40   11.60
   5  10  -3   29.10   28.60
   5 -10  -3    9.00    7.90
  -5  10  -3   -4.60    4.70
   5  10   3    0.60   12.70
  -5  10  -3   27.40   12.40
  -5   1   4  311.77   26.00
   5  -1   4  350.26   26.20
  -5  -1  -4  399.66   40.70
  -5  -1  -4  325.47   26.00
  -5   1   4  329.77   27.10
   5  -1   4  387.46   36.60
   5   1  -4  335.97   29.30
   5   1  -4  292.77   26.70
  -5   1   4  331.87   29.60
   5   1  -4  266.97   28.70
  -5  -1  -4  339.57   26.50
  -5   1  -4  387.36   26.10
   5   1   4  316.37   26.40
   5   1   4  269.87   32.20
   5  -1  -4  336.27   27.40
   5   1   4  313.77   26.00
   5  -1  -4  317.27   30.40
   5  -1  -4  345.77   28.10
  -5   1  -4  368.06   38.30
  -5  -1   4  311.47   26.70
   5   1   4  431.76   43.50
   5  -1  -4  322.67   26.10
  -5  -1   4  350.06   26.00
   5   3  -4  413.76   35.50
   5  -3   4  454.75   41.50
  -5   3   4  422.86   34.10
  -5   3   4  403.46   35.70
  -5  -3  -4  441.26   34.90
  -5  -3  -4  487.15   42.70
  -5   3   4  399.76   38.90
   5   3  -4  480.45   37.20
   5   3  -4  425.96   34.50
  -5  -3  -4  462.95   34.10
   5   3  -4  460.35   38.10
   5   3  -4  440.86   34.00
   5   3   4  387.66   35.40
   5   3   4  516.65   49.99
   5   3   4  415.46   41.00
  -5   3  -4  489.85   34.90
  -5   3  -4  462.85   34.40
   5  -3  -4  406.86   39.30
   5   3   4  435.76   34.10
   5  -3  -4  380.46   35.50
  -5  -3   4  404.76   35.70
   5   3   4  433.26   34.70
  -5  -3   4  444.66   34.80
   5  -3  -4  415.36   34.30
  -5   3  -4  457.15   41.30
   5   5  -4   68.59    6.80
  -5  -5  -4   63.39   11.00
  -5  -5  -4   79.59    7.30
   5   5  -4   71.69    6.10
  -5   5   4   82.89   10.70
  -5  -5  -4   70.49    8.80
  -5   5   4   59.59    6.00
  -5   5   4   82.39   13.60
   5  -5   4   70.09   14.30
   5   5  -4   78.19   13.60
   5   5  -4   61.29    6.80
   5   5  -4   61.39    8.90
  -5   5  -4   72.39    7.70
  -5   5  -4   64.09    9.30
  -5   5  -4   53.79   14.20
   5  -5  -4   48.00   15.30
  -5   5  -4   63.49    7.70
  -5   5  -4   60.89    7.30
  -5  -5   4   78.19    8.40
  -5   5  -4   49.60   12.00
   5   5   4   44.30   16.40
   5   5   4   70.29    5.80
   5   5   4   77.09    9.40
  -5  -5   4   74.79   10.20
   5   5   4   56.59   27.40
   5  -5  -4   70.29    8.20
  -5   7   4   35.70   10.10
  -5   7   4   34.60   10.50
   5   7  -4   25.50   17.10
   5   7  -4   15.20   17.70
   5   7  -4   25.50    3.80
  -5   7   4   33.10   13.50
  -5  -7  -4   26.10    5.70
   5   7  -4   23.90    8.10
  -5   7  -4   15.40    4.20
   5   7   4   18.70   30.90
   5   7   4   -5.00   15.10
  -5   7  -4   41.30    9.60
  -5   7  -4   45.80   13.90
  -5   7  -4   33.10    7.40
   5   7   4   47.10   10.10
   5  -7  -4   12.50    6.10
  -5  -7   4   21.00    8.10
   5   9  -4   18.20   22.30
  -5   9   4   28.80   11.40
   5   9  -4   38.10   22.70
   5   9   4   33.10   12.90
  -5  -9   4   15.20    8.60
   5  -9  -4   -2.90    7.70
  -5   9  -4   15.20    4.50
   5   9   4    8.60   41.90
  -5   9  -4   14.80   11.00
  -5   9  -4   23.00   15.00
   5   0  -5 4693.93  398.06
  -5   0   5 5087.19  397.66
   5   0   5 4325.27  442.36
   5   0  -5 4525.75  422.66
   5   0   5 5824.22  399.96
  -5   0   5 4444.96  420.56
  -5  -2  -5    2.40   20.20
   5   2  -5    8.50    4.00
   5  -2   5   12.50    2.70
  -5   2   5   20.00    8.40
   5   2  -5    8.60    7.40
   5   2  -5    2.40    7.70
   5  -2   5   -4.50   16.10
  -5   2   5   11.00    1.50
  -5   2   5   13.90    5.50
  -5  -2  -5    4.90    4.40
  -5  -2  -5    9.40    1.50
   5   2  -5    9.20    1.30
   5   2   5    6.70    3.60
   5   2   5   11.20   13.10
   5  -2  -5    6.40   10.60
   5   2   5    7.70    5.20
  -5  -2   5    5.70    5.90
   5  -2  -5    9.50    5.90
   5   2   5    6.40    1.50
   5   2   5   10.10   22.50
  -5  -2   5   11.30    1.60
  -5  -2   5    7.50    4.10
  -5   2  -5   14.20    2.30
  -5   2  -5    7.20   14.00
   5  -2  -5    8.10    2.30
   5   4  -5 3245.38  236.18
   5   4  -5 2872.71  237.68
  -5   4   5 3325.77  236.58
  -5   4   5 3089.09  237.78
   5   4  -5 3047.09  236.68
  -5  -4  -5 3105.89  238.38
   5  -4   5 3378.66  238.48
  -5  -4  -5 3239.18  236.48
  -5  -4   5 3007.40  236.78
  -5   4  -5 2837.72  236.28
   5   4   5 3123.29  238.38
   5   4   5 2960.90  241.28
  -5   4  -5 3077.79  236.28
  -5   4  -5 3072.49  236.08
   5   4   5 3020.60  236.28
  -5   4  -5 2814.92  236.38
   5   4   5 2694.53  236.78
  -5   4  -5 2700.63  238.38
   5  -4  -5 3095.69  238.08
   5  -6   5  105.99   22.50
  -5   6   5   81.09   16.50
  -5   6   5  110.29   12.30
   5   6  -5  101.09    9.40
   5   6  -5  117.19   23.40
  -5  -6  -5  103.99   10.30
   5   6  -5  103.49    8.90
   5   6  -5   94.59   14.40
  -5  -6   5  108.29   13.00
  -5   6  -5  115.39   16.00
  -5   6  -5  116.99   10.00
  -5   6  -5   99.69   10.10
  -5   6  -5  103.69   12.30
   5   6   5   80.89   31.70
   5   6   5  108.09   13.10
   5   6   5  102.19   18.60
  -5   6  -5  118.99   13.40
  -5  -6   5   93.39   12.40
   5  -6  -5  102.69   11.10
   5   6   5  101.19    8.60
  -5   8   5  468.95   36.10
   5   8  -5  463.15   35.10
   5   8  -5  359.56   45.90
  -5  -8  -5  381.66   32.90
   5   8  -5  413.26   42.50
   5   8   5  335.47   44.10
   5   8   5  347.27   41.70
  -5   8  -5  389.06   39.30
   5  -8  -5  378.76   33.40
  -5   8  -5  404.06   32.00
  -5   8  -5  445.36   39.20
   5   8   5  425.16   36.80
  -5  -8   5  374.06   33.70
   5   1  -6 2446.86  205.48
  -5  -1  -6 3017.00  208.98
  -5   1   6 2361.46  205.48
   5   1  -6 2877.71  206.18
   5  -1   6 2941.21  207.38
   5  -1  -6 2423.16  204.98
  -5   1  -6 2795.12  207.88
   5  -1  -6 2899.11  205.88
   5   1   6 2451.65  206.08
   5   1   6 2246.38  204.98
   5   1   6 2517.15  204.78
   5   1   6 2912.41  208.28
   5  -1  -6 2363.06  205.88
   5   3  -6 1182.18   91.89
  -5   3   6 1193.48   92.49
   5   3  -6 1251.17   94.09
  -5   3   6 1088.89   94.09
  -5  -3  -6 1253.77   97.49
   5  -3   6 1323.67   96.29
  -5  -3   6 1116.39   92.49
  -5  -3   6 1211.98   91.69
   5   3   6 1211.28   91.99
  -5   3  -6 1138.89   95.69
   5   3   6 1150.48   95.09
   5  -3  -6 1089.79   94.59
   5   3   6 1084.09   92.59
  -5  -3   6 1283.97   91.99
   5  -3  -6 1082.89   92.39
   5  -5   6  348.17   34.00
  -5   5   6  313.07   32.70
  -5  -5  -6  347.97   24.90
   5   5  -6  273.37   25.20
   5   5  -6  320.27   24.50
  -5   5   6  314.57   28.00
   5   5  -6  304.07   26.90
  -5  -5  -6  275.37   31.20
   5   5  -6  330.97   32.20
   5   5  -6  315.27   25.40
  -5   5  -6  286.57   30.30
   5   5   6  259.47   34.50
  -5  -5   6  326.77   26.20
  -5   5  -6  279.67   26.90
  -5   5  -6  316.17   25.00
  -5   5  -6  333.97   25.00
   5   5   6  306.37   24.50
   5  -5  -6  310.37   25.20
  -5  -5   6  322.67   27.80
   5   5   6  265.67   48.20
   5   5   6  339.17   27.90
   5  -5  -6  298.57   35.60
  -5   5  -6  321.07   26.30
  -5   7   6   99.69   17.00
   5   7  -6   88.39   12.30
   5   7  -6  109.99    9.00
  -5   7   6  136.29   13.00
   5   7  -6   91.79   19.30
   5  -7   6   89.39   18.00
  -5  -7  -6  110.89   10.90
  -5  -7   6  112.39   14.20
  -5   7  -6  135.59   15.00
   5   7   6   66.49   34.00
   5  -7  -6   97.59   12.00
  -5   7  -6  114.39   10.10
   5   7   6   95.29   15.40
  -5   7  -6   97.79   13.60
  -5   7  -6  117.79   18.40
   5   7   6   68.59   17.50
   5   9  -6   74.59   22.90
  -5   9   6  124.59   13.50
  -5  -9   6   76.89   11.60
  -5   9  -6   81.09   18.00
   5   9   6  128.29   15.80
   5   0  -7 2899.51  200.48
  -5   0   7 2377.36  199.28
   5   0   7 2827.12  202.08
  -5   0  -7 2702.43  202.48
   5   0  -7 2188.68  199.68
   5   0  -7 2339.77  198.78
   5   2  -7   89.79    7.40
   5  -2   7   88.69    8.10
   5   2  -7   85.59    9.10
   5   2  -7   96.89   14.00
  -5   2   7   88.69    7.40
  -5  -2  -7  115.09   22.60
   5   2  -7   85.79   18.10
  -5   2   7   93.99    9.70
   5  -2   7  124.29   20.20
  -5   2   7  102.09   12.90
  -5  -2  -7   87.99    7.50
   5   2   7   91.19   15.30
   5  -2  -7   81.29   10.90
  -5   2  -7   97.59    7.80
   5   2   7   94.39   11.20
  -5  -2   7   78.79   11.50
   5   2   7  101.69   22.20
   5  -2  -7  104.19    7.90
  -5  -2   7   91.89   14.60
   5   2   7   86.99    9.00
  -5  -2   7   99.09    9.50
   5  -2  -7   98.29   13.70
  -5   2  -7   88.49   17.00
   5   2   7   85.69    7.50
   5   2   7   78.69   11.60
  -5  -2   7   93.29    7.60
  -5   4   7 1128.99   86.79
  -5   4   7 1138.99   89.29
   5   4  -7 1056.39   86.79
  -5  -4  -7 1159.88   85.69
  -5  -4  -7 1042.60   91.29
   5   4  -7 1000.20   85.89
   5   4  -7 1145.89   85.59
   5  -4   7 1141.19   90.09
   5  -4  -7 1134.59   89.49
   5   4   7 1100.29   90.29
   5  -4  -7 1137.19   85.69
   5   4   7 1138.79   87.39
   5   4   7 1061.99   85.59
   5   4   7 1056.99   86.89
  -5  -4   7 1152.68   86.09
   5   4   7 1077.69   95.69
  -5  -4   7 1076.99   86.69
   5   4   7 1060.49   85.99
  -5   6   7  106.19   16.40
   5   6  -7   83.69    7.60
  -5  -6  -7   86.39    9.20
   5   6  -7   88.29   16.10
  -5   6   7  105.99   11.80
   5   6  -7   96.09   11.20
  -5   6  -7   92.09   11.60
   5   6   7   99.09   14.80
  -5  -6   7   87.89   10.20
   5  -6  -7  120.79   20.00
   5   6   7   62.59   17.50
  -5   6  -7   74.29   11.60
  -5   6  -7   73.59   15.30
   5  -6  -7   87.89    9.90
   5   6   7   34.90   32.60
  -5   6  -7   88.09    8.70
   5   6   7  107.19   12.30
  -5  -6   7   99.69   14.80
  -5  -8  -7  116.69   15.20
   5   8  -7  182.18   18.50
  -5   8   7  208.88   19.80
   5   8  -7  130.09   24.90
   5   8  -7  234.68   31.90
   5  -8  -7  157.28   15.90
  -5   8  -7  172.88   13.70
  -5  -8   7  160.68   17.50
   5   8   7  122.29   17.70
  -5   1   8 1256.57  103.19
   5   1  -8 1295.17  104.49
   5   1  -8 1317.57  103.19
  -5   1   8 1397.96  103.89
   5  -1   8 1407.76  107.99
  -5   1   8 1211.38  103.99
  -5  -1  -8 1511.25  109.59
   5   1  -8 1401.76  105.79
   5   1   8 1432.76  107.99
  -5  -1   8 1260.17  103.69
   5   1   8 1281.17  102.99
   5  -1  -8 1527.95  105.69
   5   1   8 1198.08  102.79
  -5  -1   8 1427.86  103.09
  -5   1  -8 1317.07  107.69
  -5  -1   8 1419.06  104.39
   5   1   8 1207.48  103.39
   5  -1  -8 1204.08  105.09
   5  -1  -8 1189.68  103.29
   5   1   8 1199.98  104.89
   5   3  -8  372.36   36.50
   5  -3   8  420.06   40.70
  -5   3   8  381.56   34.80
   5   3  -8  351.56   31.10
  -5   3   8  394.26   32.40
   5  -3   8  376.56   30.90
  -5  -3  -8  393.36   44.00
   5   3  -8  406.36   30.50
  -5   3   8  368.96   30.50
  -5  -3  -8  398.66   30.60
   5   3  -8  348.07   33.40
  -5   3  -8  343.07   39.20
  -5  -3   8  422.06   31.40
   5   3   8  385.56   31.20
   5   3   8  396.76   30.50
  -5  -3   8  376.76   32.40
   5   3   8  377.16   38.80
   5  -3  -8  413.96   38.00
   5   3   8  438.26   45.90
   5  -3  -8  365.66   32.20
  -5  -3   8  410.46   30.70
   5   3   8  386.76   33.90
   5  -3  -8  418.96   30.80
  -5   3  -8  434.06   30.60
   5   3   8  378.66   32.60
   5  -5   8  227.98   31.50
  -5   5   8  299.17   24.60
   5   5  -8  207.18   21.10
   5   5  -8  258.17   19.80
   5   5  -8  221.58   20.70
  -5  -5  -8  217.48   29.90
   5   5  -8  259.77   23.40
   5   5  -8  274.77   29.20
  -5  -5  -8  270.47   20.30
  -5   5   8  293.87   31.10
   5  -5  -8  258.17   33.60
  -5   5  -8  263.77   20.20
   5   5   8  284.37   26.70
  -5  -5   8  256.77   23.30
   5   5   8  265.87   24.70
  -5  -5   8  251.17   21.70
   5  -5  -8  265.97   20.70
   5   5   8  249.58   32.40
   5   5   8  173.78   36.00
   5   7  -8  145.39   27.00
  -5   7   8  149.49   18.50
  -5   7   8  132.29   18.60
   5   7  -8  138.09   10.60
   5   7  -8  110.69   17.20
  -5  -7  -8  118.39   12.20
   5   7   8  142.09   21.30
  -5  -7   8   96.39   13.00
   5  -7  -8  140.69   12.80
   5   7   8   68.69   35.50
  -5   7  -8  124.59   11.40
  -5   7  -8  137.39   18.30
   5   7   8  135.69   16.60
  -5   9   8   72.59   11.80
   5   9  -8   32.30   21.60
  -5   9  -8   51.99   17.20
   5  -9  -8    5.00    7.00
   5   9   8   16.70   12.10
  -5  -9   8   29.40    9.50
  -5   9  -8   37.10    4.70
  -5   0   9   82.99    9.30
   5   0  -9   84.69   12.90
  -5   0   9   74.19   13.90
  -5   0   9   91.89   12.90
   5   0  -9   77.79    6.70
   5   0  -9   82.09   14.10
  -5   0  -9   92.29   22.20
  -5   0  -9   80.19    6.80
   5   0   9   64.99   19.70
  -5   0   9   76.29    6.60
   5   0   9   76.19    6.80
   5   0  -9   79.99    9.90
   5   2  -9 2435.46  196.28
   5   2  -9 2460.65  193.78
  -5   2   9 2554.14  194.28
   5   2  -9 2574.44  194.68
  -5  -2  -9 2606.24  198.68
  -5   2   9 2506.65  193.98
   5  -2   9 2781.82  197.48
  -5   2   9 2399.96  194.88
   5   2   9 2530.75  194.18
   5  -2  -9 2304.17  193.98
   5  -2  -9 2445.36  195.58
  -5  -2   9 2378.16  194.18
  -5   2  -9 2245.78  196.88
   5   2   9 2653.53  197.88
   5  -2  -9 2651.93  196.48
   5   2   9 2376.26  194.28
   5   2   9 2477.75  195.78
  -5  -2   9 2546.85  195.18
   5   2   9 2392.16  193.78
  -5   4   9   66.29   12.70
  -5  -4  -9   78.99    7.40
   5   4  -9   64.29    9.10
   5  -4   9   79.79   18.30
   5   4  -9   75.39   11.40
  -5  -4  -9   60.69   20.60
   5   4  -9   82.59    6.80
  -5   4   9   83.39   10.50
  -5  -4   9   75.49    9.90
   5   4   9   62.59   17.20
   5   4   9   69.39   10.30
  -5  -4   9   92.79   10.30
   5  -4  -9   94.19   16.80
  -5   4  -9   88.99    7.20
   5   4   9   94.19   13.40
   5  -4  -9   79.09    8.00
  -5  -4   9   70.79    7.60
   5   4   9   61.69   25.20
  -5   6   9 1024.90   74.99
   5   6  -9  862.11   75.29
  -5  -6  -9  797.72   70.19
  -5   6   9  968.20   71.89
   5   6  -9  885.61   71.89
   5   6  -9  872.81   69.89
   5  -6  -9 1065.59   77.89
  -5   6  -9  848.82   70.09
   5   6   9  887.51   72.69
   5   6   9 1006.90   72.49
  -5  -6   9  902.61   72.09
  -5  -6   9  845.82   70.99
   5  -6  -9  829.72   70.29
   5   8  -9   -1.20   17.50
  -5  -8  -9   -8.20    5.20
  -5   8   9   15.70   11.00
  -5   8  -9   -6.50    3.70
   5   8   9   -3.90   11.60
   5  -8  -9   -9.70    6.10
  -5  -8   9    0.40    8.60
  -5   1  10   21.30    8.90
   5  -1  10   25.30   21.00
  -5  -1 -10   37.20    4.00
  -5   1  10   40.10    6.20
   5   1 -10   31.90    5.80
   5   1 -10   24.10   11.30
   5   1 -10   33.70    3.80
  -5   1  10   47.30    8.80
   5   1 -10   28.60   13.40
  -5  -1 -10   17.40   21.40
   5  -1 -10   34.20    4.10
  -5  -1  10   48.40    6.10
  -5  -1  10   30.40    3.90
   5   1  10   29.40   20.10
  -5  -1  10   29.20    9.60
   5  -1 -10   30.00    6.40
   5   1  10   39.30    7.30
  -5   1 -10   35.00    3.50
   5   1  10   39.30    4.50
   5  -1 -10   34.40   12.50
  -5   1 -10   33.70   18.20
   5  -1 -10   24.30   15.60
   5   1  10   49.70   11.30
  -5  -1  10   35.20    7.90
  -5   3  10   -7.40    7.40
   5   3 -10    0.90    9.50
  -5  -3 -10   18.40   23.30
   5   3 -10    2.60    1.80
  -5   3  10   -9.20   10.30
   5  -3  10    9.80   17.00
   5   3 -10   -2.50    5.00
  -5  -3 -10   -0.60    2.40
   5   3  10   -0.60    7.00
   5   3  10    1.40    4.20
   5   3  10   -8.90   10.30
   5   3  10    1.30   15.80
  -5   3 -10   -1.80    2.30
  -5  -3  10    0.10    7.20
   5   3  10   -2.00   22.10
  -5  -3  10    4.00   10.30
  -5  -3  10   -1.30    2.30
  -5  -3  10    1.60    5.30
   5  -3 -10   -0.60    2.70
   5  -3 -10    7.50   14.10
  -5  -5 -10   15.80    3.40
   5   5 -10   13.30    2.30
   5   5 -10    7.60    9.70
  -5   5  10    6.80   11.80
  -5   5  10   20.60   10.00
   5  -5  10    2.60   16.40
   5  -5 -10   14.40    3.90
   5   5  10   15.50    9.80
  -5  -5  10   12.70    7.90
  -5  -5  10    6.90    6.10
   5   5  10    8.60   26.30
   5   5  10   20.10   11.90
  -5   5 -10   11.50    2.80
   5   5  10   -1.60   17.80
   5  -5 -10   23.90   17.20
   5   7 -10   -5.10    2.50
   5   7 -10   10.40   15.80
   5  -7  10  -10.00   14.30
  -5  -7 -10   -8.50    5.00
  -5   7  10   -0.30   10.00
   5  -7 -10    0.40    5.20
  -5   7 -10    1.10    3.00
   5   7  10    0.80   27.40
   5   7  10   33.10   12.50
  -5  -7  10    1.30    8.20
   5   0 -11    6.90    2.10
   5   0 -11   -1.00   14.40
  -5   0 -11    4.90   23.90
  -5   0  11   -4.30    7.90
   5   0 -11    5.70    5.70
  -5   0  11   11.70    9.10
   5   0 -11   -5.10   11.90
  -5   0  11    7.00    5.70
   5   0  11   10.00   19.40
  -5   0 -11    4.20    2.20
  -5  -2 -11 1420.36  117.99
  -5   2  11 1372.26  111.29
   5   2 -11 1261.67  110.39
   5  -2  11 1377.86  115.49
  -5   2  11 1431.16  111.79
  -5   2  11 1472.35  110.59
   5   2 -11 1457.05  112.19
   5  -2 -11 1450.45  115.69
  -5  -2  11 1520.95  110.29
   5   2  11 1260.27  110.19
   5   2  11 1435.46  112.99
  -5  -2  11 1408.26  112.29
   5   2  11 1372.46  116.39
   5   2  11 1514.75  110.89
   5  -2 -11 1408.66  113.29
  -5  -2  11 1448.36  110.99
   5   2  11 1425.86  111.09
  -5   4  11   -4.20    8.00
  -5   4  11   12.00   11.80
   5  -4  11   15.50   16.00
   5   4 -11   -3.10    9.90
  -5  -4 -11    0.00    3.00
   5   4 -11   -0.60    2.00
  -5  -4  11    1.20    7.40
   5   4  11   -6.30   11.30
   5   4  11   -0.10    8.20
  -5  -4  11    0.90    5.60
   5  -4 -11    0.00    3.40
   5  -4 -11    7.10   16.90
   5   4  11   -1.30   17.10
   5   4  11   -2.00   23.30
  -5   4 -11    0.90    2.60
  -5   6  11  434.56   38.70
  -5   6  11  453.75   35.30
  -5  -6 -11  359.56   32.50
   5   6 -11  402.46   32.00
   5   6 -11  438.86   41.90
   5   6  11  446.66   37.40
  -5  -6  11  362.86   34.10
   5   6  11  481.15   36.50
  -5   6 -11  385.66   32.20
   5  -6 -11  502.55   45.50
   5  -6 -11  378.96   32.70
   5   6  11  394.06   44.40
  -5   8  11   -1.40   10.20
   5   8 -11   -4.10   17.00
  -5  -8 -11   -2.20    5.20
   5   8  11    7.90   13.20
   5  -8 -11    4.30    5.90
  -5   8 -11    1.70    3.50
  -5  -1 -12  672.13   53.29
   5   1 -12  644.94   57.39
   5   1 -12  576.74   54.09
   5  -1  12  732.33   62.59
   5   1 -12  690.73   53.29
  -5   1  12  733.43   54.09
  -5   1  12  734.73   55.59
  -5   1  12  677.03   56.19
   5  -1 -12  655.83   58.29
  -5  -1  12  719.13   55.09
   5  -1 -12  653.83   61.49
  -5  -1  12  697.33   56.99
  -5   1 -12  701.43   53.29
   5   1  12  682.83   56.19
   5   1  12  648.44   63.19
   5   1  12  630.24   53.59
   5   1  12  708.73   54.19
   5  -1 -12  680.83   53.29
  -5  -1  12  736.93   53.99
  -5   3  12  342.27   28.30
   5   3 -12  324.47   25.50
  -5  -3 -12  311.87   25.70
  -5   3  12  348.17   32.00
   5  -3  12  293.77   37.60
   5   3 -12  361.46   31.60
   5  -3 -12  352.56   36.70
   5   3  12  321.67   29.00
   5   3  12  335.77   36.10
   5  -3 -12  332.97   25.70
  -5  -3  12  321.57   26.80
  -5  -3  12  306.77   32.10
  -5  -3  12  312.87   28.50
   5   3  12  338.87   29.60
  -5   3 -12  320.97   25.60
   5   5 -12  130.89   10.40
  -5  -5 -12  122.49   11.10
  -5   5  12  146.79   16.30
  -5   5  12  119.69   16.50
  -5  -5  12  139.19   20.20
   5   5  12  134.99   21.90
   5  -5 -12  141.09   23.20
   5   5  12  115.69   14.60
   5   5  12  128.49   16.30
   5  -5 -12  123.29   11.50
  -5  -5  12  108.19   13.60
  -5   5 -12  121.29   10.60
   5   7 -12   62.79   18.00
  -5   7  12   64.39   11.30
  -5  -7 -12   80.99    9.30
   5  -7 -12   96.09   10.10
  -5   7 -12   80.19    7.60
   5   7  12   61.69   14.60
   5   0 -13  279.77   31.50
  -5   0 -13  286.87   21.80
   5   0 -13  224.68   33.80
  -5   0  13  305.17   25.70
   5   0  13  243.78   39.20
  -5   0  13  268.67   27.70
   5   0 -13  286.47   21.80
  -5   0  13  312.67   23.40
   5   0 -13  224.98   24.70
   5  -2  13  119.09   22.80
  -5   2  13  117.39   18.20
  -5  -2 -13  129.59   10.80
  -5   2  13  129.29   18.50
   5   2 -13  130.19   10.60
   5   2 -13  138.59   17.90
  -5   2  13  120.09   14.20
   5  -2 -13  127.79   10.90
   5   2  13  181.38   22.40
  -5   2 -13  125.49   10.70
   5   2  13   75.99   25.60
   5   2  13  146.59   15.50
  -5  -2  13  160.18   15.80
  -5  -2  13  110.89   20.50
   5   2  13  142.59   15.90
  -5  -2  13  135.79   13.00
   5  -2 -13  147.59   20.00
   5   4 -13  433.26   32.80
  -5   4  13  470.75   35.60
   5  -4  13  326.67   42.80
  -5   4  13  464.15   39.30
  -5  -4 -13  395.86   32.90
   5   4 -13  429.06   41.40
  -5  -4  13  416.16   34.00
  -5   4 -13  426.96   32.80
   5   4  13  347.47   43.40
   5  -4 -13  419.66   33.10
   5   4  13  448.96   36.40
  -5  -4  13  401.96   35.80
   5  -4 -13  408.76   44.20
   5   4  13  442.86   37.00
   5   6 -13    8.70    2.70
   5   6 -13    4.30   15.50
  -5  -6 -13    7.60    4.10
  -5   6  13   19.50    9.90
   5  -6  13    5.00   13.30
  -5   6 -13    8.10    3.00
   5   6  13    7.60   12.80
   5  -6 -13   11.60    4.50
  -5  -1 -14   38.00    4.60
  -5   1  14   40.20    6.80
   5   1 -14   36.30   14.60
   5  -1  14   18.80   21.00
  -5   1  14   40.70   11.70
  -5   1  14   39.10    9.70
   5   1 -14   38.50    4.70
   5   1  14   20.90    9.80
   5  -1 -14   38.20   15.90
  -5   1 -14   37.60    4.60
   5  -1 -14   40.50    4.10
  -5  -1  14   45.20    7.20
   5   1  14   38.80    6.80
   5   1  14   40.90    7.90
   5   1  14   41.80   23.20
  -5  -1  14   30.60    9.40
  -5  -1  14   35.60   12.30
  -5  -3 -14  129.39   10.40
  -5   3  14  138.59   19.30
   5   3 -14  122.59   10.10
   5  -3  14   81.69   20.70
  -5   3  14  132.59   14.30
  -5   3 -14  129.59   10.10
  -5  -3  14  113.49   16.90
   5   3  14  124.19   17.20
   5  -3 -14  131.79   10.50
   5  -3 -14  116.09   20.30
   5   3  14  116.39   18.40
  -5  -3  14  126.99   22.20
   5   3  14  102.99   14.00
  -5  -3  14  111.09   13.20
   5   3  14   66.89   25.70
  -5  -5 -14   43.30    5.00
   5   5 -14   48.10    5.20
   5  -5  14   19.00   16.60
  -5   5  14   30.90   15.70
  -5   5  14   39.90   10.30
   5   5  14   40.20   13.40
   5   5  14   45.70   10.80
   5   5  14   27.80   20.10
   5  -5 -14   53.59    5.60
  -5   5 -14   48.30    5.40
  -5   0  15  992.00   94.09
   5   0 -15 1173.28   95.19
  -5   0  15 1263.07   93.09
  -5   0  15 1294.37   91.99
   5   0 -15 1140.09   91.09
  -5  -2 -15   18.00    3.10
  -5   2  15    5.80   11.60
   5   2 -15   21.50    3.00
  -5   2  15   19.10    9.90
   5  -2  15    6.10   18.60
  -5   2  15   17.50    7.20
  -5   2 -15   23.30    3.00
   5  -2 -15   24.70    3.40
   5   2  15   19.40    8.50
  -5  -2  15   10.70    6.60
  -5  -2  15   13.40   12.50
   5  -2 -15   13.10   16.80
   5   2  15    6.60   23.60
   5   4 -15  573.24   43.70
  -5   4  15  610.14   45.60
  -5  -4 -15  528.45   43.90
   5  -4 -15  550.64   43.90
   5   4  15  544.65   46.90
   5  -4 -15  611.14   54.19
  -5   4 -15  536.85   43.70
  -5   6  15   16.90   11.10
  -5  -6 -15   22.20    4.90
   5  -6  15    6.80   14.50
   5   6 -15   24.20   17.20
  -5   6 -15   22.10    3.40
   5   6  15  -12.10   13.00
   5  -6 -15   10.60    4.50
  -5   1  16   18.70   10.10
   5   1 -16   16.80    2.80
  -5   1  16   20.80    7.30
  -5   1  16    4.50   12.40
  -5  -1 -16   17.10    2.90
   5  -1  16    0.30   18.60
  -5  -1  16   23.40    7.40
  -5  -1  16   12.80   12.70
   5   1  16   -8.30   22.00
   5  -1 -16   13.70    3.20
   5  -1 -16    6.50   17.60
  -5   1 -16   15.30    2.80
  -5  -3 -16    6.40    3.00
   5  -3  16    6.40   18.30
  -5   3  16   -9.20   10.70
  -5   3  16   15.70    7.70
   5   3 -16    8.90    2.70
   5  -3 -16   20.80   18.50
   5  -3 -16    2.30    3.10
   5   3  16   19.20   24.70
  -5   3 -16    4.60    2.50
   5   3  16  -11.90   10.40
  -5   5  16   -5.80    9.10
   5   5 -16    2.80    2.70
   5  -5  16    0.40   14.70
   5   5 -16   -6.60   16.60
  -5  -5 -16   -0.20    3.70
  -5   5 -16    1.40    2.50
   5   5  16   12.30   11.70
   5  -5 -16   -0.20    3.80
  -5   0  17  116.49   23.90
  -5   0  17  141.89   15.40
  -5   0 -17  152.08   12.10
   5   0 -17  149.88   12.10
  -5   2  17   26.90    7.60
  -5  -2 -17   44.90    4.20
   5   2 -17   44.90    5.10
   5  -2  17   17.20   18.00
  -5   2 -17   33.50    4.10
   5   2  17   39.50   24.00
   5  -2 -17   36.80    4.30
   5  -4  17   18.80   17.80
  -5  -4 -17   57.49    6.50
  -5   4  17   40.70    9.60
   5   4 -17   53.69    5.70
   5  -4 -17   57.89    6.80
  -5   4 -17   47.00    5.50
  -5  -1 -18  117.79   10.40
   5   1 -18  123.29   10.30
   5  -1 -18  122.09   10.50
  -5   1 -18  119.09   10.20
   5   3 -18   56.29    5.80
   5  -3  18   21.00   18.50
  -5   3  18   30.20    8.80
  -5  -3 -18   49.60    6.00
   5  -3 -18   47.20    5.10
  -5   3 -18   45.60    5.40
  -5   0 -19   -0.50    2.60
   5   0  19   15.10   18.60
   5   0 -19    1.30    3.30
  -6   0   0  126.19   16.40
  -6   0   0  238.08   33.40
   6   0   0  150.08   14.60
   6   0   0  189.58   14.60
  -6   0   0  168.68   14.50
  -6   0   0  201.08   14.20
   6   2   0   42.30   16.40
  -6  -2   0   46.20   11.40
   6   2   0   52.99    5.30
  -6   2   0   43.20    6.00
   6  -2   0   28.60    6.50
  -6   2   0   37.10    9.00
   6   2   0   46.90    6.40
  -6   2   0   55.49    6.00
  -6   2   0   43.90   13.80
   6  -2   0   48.40    6.00
  -6  -2   0   37.50    7.30
  -6  -2   0   49.99    5.80
   6  -2   0   13.00   10.00
   6  -2   0   63.79   12.40
   6   4   0 1815.12  150.18
  -6  -4   0 1877.21  150.38
  -6  -4   0 2026.60  149.88
   6   4   0 2024.70  153.58
  -6   4   0 1862.51  149.69
  -6   4   0 1954.90  151.78
   6  -4   0 2026.80  149.88
  -6   4   0 1838.12  149.99
   6  -4   0 2132.19  150.88
   6   4   0 1841.02  149.59
  -6   4   0 1755.72  151.08
   6  -4   0 1912.31  151.68
   6  -6   0   -4.10    6.80
  -6   6   0    3.40    7.20
  -6   6   0   14.60   13.90
  -6   6   0    0.00    8.90
  -6  -6   0    6.40    7.10
  -6   6   0    9.50   13.20
   6   6   0    4.90    7.70
   6   6   0    0.70    1.50
   6   6   0   -8.10   14.20
   6   6   0   -0.70   20.30
   6   8   0   66.59   21.00
   6   8   0   92.49   29.20
  -6   8   0  101.49   21.10
  -6   8   0  118.79   18.50
   6   8   0  133.29   11.30
  -6   8   0  150.58   16.50
  -6  -8   0   83.39   11.80
  -6  10   0   -9.30   11.80
   6  10   0   -9.00   14.40
  -6  10   0   -8.50    4.80
   6  10   0   -5.10   33.20
  -6   1   1 3297.07  258.67
   6   1   1 3285.67  260.57
  -6   1  -1 3313.07  258.77
  -6  -3  -1  106.09   11.40
   6  -3   1  143.69   20.10
   6   3  -1  100.79   22.30
  -6  -3  -1   92.79   13.20
   6  -3   1  110.99   11.70
  -6   3   1  106.69    9.00
   6   3  -1   95.39   12.50
  -6  -3  -1  107.39   18.00
   6   3  -1  101.79    9.80
  -6   3   1   97.39   12.20
   6  -3   1   96.59   13.70
  -6   3   1   97.99   13.20
  -6   3   1  129.99   19.90
  -6   3  -1  115.39    9.60
   6   3   1   97.79    9.80
  -6   3  -1   68.89   10.90
   6  -3  -1   88.89   14.10
  -6  -3   1  101.99   15.20
  -6  -3   1  104.79   10.80
   6  -3  -1  122.09   14.20
  -6   3  -1  115.49    9.60
   6   3   1  126.29   19.50
   6   3   1   90.39   12.00
   6  -3  -1  117.59   10.40
   6  -3  -1  107.79   13.00
  -6  -3   1  115.79   12.90
  -6   3  -1  104.89   20.10
  -6   3  -1   71.89   11.90
  -6  -5  -1   90.79    9.30
  -6   5   1   89.59   10.50
  -6   5   1   81.19    8.60
   6  -5   1   83.09   12.30
  -6   5   1   69.29   13.90
   6   5  -1   70.19   14.70
  -6   5   1   78.29    6.90
   6   5  -1   71.99    6.30
   6   5  -1   72.19    8.60
   6  -5   1   90.29    9.30
   6   5  -1   74.99   17.20
  -6   5   1   69.79   13.60
   6   5  -1   85.59    9.30
  -6  -5  -1   75.39    8.80
  -6  -5   1   67.39    9.60
  -6   5  -1   75.59   13.10
   6   5   1   74.89   20.60
  -6  -5   1  104.29   10.90
  -6   5  -1   65.79    7.80
   6   5   1   70.69    6.20
  -6   5  -1   58.99   13.90
   6   5   1   80.39    9.10
   6  -5  -1  103.99   17.10
   6  -5  -1   73.19    8.30
  -6   5  -1   77.19    9.50
  -6   5  -1   81.89    7.40
   6   5   1   60.79    8.50
   6   7  -1   66.89   19.70
  -6   7   1  111.19   13.10
  -6   7   1   95.09   18.60
  -6  -7  -1   78.49   11.20
   6   7  -1   78.59   24.30
  -6  -7  -1   99.29   12.00
  -6   7   1  108.79   17.10
   6   7  -1  128.49   12.60
   6   7  -1  100.99    9.90
  -6   7   1  135.29   16.20
  -6  -7   1  112.59   13.80
  -6   7  -1  105.89   17.50
  -6   7  -1  100.69   20.30
   6  -7  -1   80.69   10.70
   6   7   1  125.39   16.50
  -6   7  -1  125.29   14.90
   6   7   1   89.29   20.00
   6   7   1   89.09   27.70
  -6   7  -1  100.39   13.20
  -6   9   1    4.30   17.60
   6   9  -1   13.80   30.10
  -6   9   1    7.60   11.40
  -6   9  -1   17.10   20.10
  -6   9  -1    9.50    9.10
  -6   9  -1    6.40   11.50
  -6   9  -1    0.00   17.10
   6   9   1    4.20   31.00
  -6   9  -1    1.60    4.70
  -6   0   2 3614.24  332.67
   6   0  -2 3409.46  323.47
  -6   0   2 4264.47  308.07
   6   0   2 3463.35  308.57
   6   0  -2 3401.06  304.77
   6  -2   2   29.50    9.10
   6   2  -2   48.60    6.10
   6  -2   2   30.50    6.00
  -6  -2  -2   21.50   15.80
   6  -2   2    2.80   13.80
   6   2  -2   30.90    4.20
  -6   2   2   34.60    3.80
   6   2  -2   29.50   12.90
  -6   2   2   25.30    5.40
  -6   2   2   31.20    8.80
  -6  -2  -2   28.00    2.70
  -6  -2  -2   35.20    5.30
   6  -2  -2   34.60    6.00
  -6  -2   2   19.60    4.70
   6   2   2   23.50    2.60
   6  -2  -2   16.50   10.20
  -6   2  -2   32.60   16.30
   6   2   2   36.10    5.70
  -6  -2   2   34.00    6.80
   6   2   2   27.40    4.00
  -6   2  -2   23.40    4.90
   6  -2  -2   26.20    3.60
   6   2   2   15.90   22.90
   6  -4   2  700.93   52.49
  -6  -4  -2  664.03   48.70
  -6  -4  -2  626.54   51.19
  -6   4   2  651.03   52.09
  -6   4   2  636.64   48.70
  -6   4   2  580.44   52.59
  -6  -4  -2  670.23   49.50
   6   4  -2  550.24   49.80
  -6   4   2  620.14   49.90
  -6   4   2  604.04   49.10
   6   4  -2  580.94   48.90
   6   4  -2  642.84   54.19
   6   4  -2  660.43   51.09
   6  -4  -2  583.34   53.19
  -6   4  -2  620.34   53.09
  -6   4  -2  561.34   49.40
  -6  -4   2  655.03   49.30
  -6   4  -2  618.14   48.90
  -6   4  -2  641.54   48.90
   6   4   2  645.54   48.50
   6   4   2  619.74   49.10
  -6  -4   2  603.44   50.19
   6  -4  -2  647.04   49.00
   6   4   2  598.04   49.99
   6   4   2  684.33   59.09
  -6   4  -2  524.55   51.19
   6   6  -2    1.70    1.70
   6   6  -2   -7.20    7.50
   6   6  -2    3.40   16.80
  -6   6   2    0.80   12.50
  -6   6   2   -3.30   12.20
   6   6  -2   -1.60    2.90
  -6   6   2    2.80   13.10
  -6  -6  -2    2.10    7.00
  -6   6   2   -5.70    9.10
  -6  -6  -2   -0.30    4.60
  -6   6  -2   -7.60    6.30
   6   6   2   -5.00    7.70
  -6   6  -2   -9.40   11.60
   6  -6  -2    3.90    5.90
   6   6   2   -1.90    7.10
  -6   6  -2  -11.90   12.20
  -6  -6   2    7.70    6.70
   6   6   2   -9.00   15.90
  -6   6  -2   -5.50    7.70
   6   6   2   -3.80   22.50
   6   6   2   -1.20    1.30
  -6   6  -2   -3.90    3.50
  -6  -8  -2   75.09   10.60
  -6   8   2  136.79   17.10
  -6   8   2  112.19   14.10
   6   8  -2  119.19   10.80
  -6   8   2  109.89   25.50
   6   8  -2  112.49   28.40
   6   8  -2  136.89   17.80
  -6   8   2   78.69   17.30
   6   8  -2   82.19   20.20
  -6   8  -2   87.69   11.30
   6  -8  -2  124.89   12.10
  -6  -8   2   97.99   11.70
  -6   8  -2   95.79   18.00
  -6   8  -2  107.69   21.80
  -6   8  -2  121.69   13.90
   6   8   2  149.99   18.10
   6   8   2   65.49   32.50
  -6  10   2   26.90   11.40
   6  10  -2    0.90   31.20
   6  10   2   -3.30   13.10
  -6  10  -2   -3.30    4.20
  -6  10  -2    5.10   12.10
   6   1  -3  631.04   54.69
  -6   1   3  639.44   55.19
   6   1  -3  708.73   56.39
  -6  -1  -3  758.72   53.59
  -6  -1  -3  613.84   54.09
   6   1  -3  725.83   53.59
   6  -1   3  764.22   53.49
  -6   1   3  689.33   53.79
   6  -1  -3  683.33   55.99
   6   1   3  701.83   53.39
  -6  -1   3  685.93   53.69
   6  -1  -3  689.53   53.99
   6   1   3  589.94   53.89
   6   3  -3  375.96   30.90
  -6   3   3  398.66   30.50
  -6   3   3  364.66   35.80
   6  -3   3  455.15   38.50
   6   3  -3  353.16   32.00
  -6  -3  -3  410.56   31.50
   6   3  -3  457.25   33.60
  -6  -3  -3  417.76   38.10
   6   3  -3  386.86   35.60
  -6  -3  -3  422.96   30.40
  -6   3   3  379.06   32.10
  -6   3  -3  342.87   33.10
  -6   3  -3  327.47   31.20
  -6   3  -3  407.56   30.80
   6   3   3  364.86   32.20
   6   3   3  386.96   31.10
   6  -3  -3  379.56   30.80
  -6   3  -3  400.26   31.20
   6   3   3  387.96   30.40
   6  -3  -3  340.87   35.40
  -6  -3   3  423.36   31.30
   6   3   3  442.66   49.40
  -6   3  -3  420.26   38.90
  -6   3  -3  412.86   30.90
  -6  -3   3  341.07   32.20
   6  -3  -3  339.47   32.00
  -6  -5  -3   54.19    7.40
   6   5  -3   26.90    9.20
  -6   5   3   38.20    5.40
  -6   5   3   56.19    8.80
   6   5  -3   50.69    5.30
  -6   5   3   45.60    4.70
   6   5  -3   58.69    7.60
   6   5  -3   44.10    4.70
   6   5  -3   46.80    5.00
   6  -5   3   54.89   13.30
  -6  -5  -3   41.20    9.90
  -6   5   3   35.10   12.70
  -6  -5  -3   45.80    5.00
   6   5  -3   50.39   15.20
  -6   5  -3   47.80   11.40
  -6   5  -3   50.99    7.60
   6   5   3   45.80    4.30
  -6  -5   3   57.89    7.50
   6   5   3   56.99    8.80
   6   5   3   27.70   22.80
  -6   5  -3   35.30    4.80
  -6   5  -3   41.70    5.30
  -6   5  -3   49.99    7.90
  -6  -5   3   60.49    9.40
   6  -5  -3   49.70   15.20
  -6   5  -3   38.00   13.00
   6   5   3   32.60   15.30
   6  -5  -3   58.99    6.30
  -6   5  -3   48.10    5.20
  -6   7   3   19.60   13.40
   6   7  -3   18.30    3.40
  -6   7   3   15.60    9.30
   6   7  -3   16.70   18.40
   6   7  -3   28.70    8.40
  -6  -7  -3   15.20    7.70
  -6   7   3   14.20   17.70
   6   7  -3   18.60   15.80
  -6   7   3   18.50   10.30
  -6  -7  -3    9.90    5.80
   6   7   3   16.30    8.80
   6   7   3   14.00   27.80
   6   7   3   14.30   16.50
  -6   7  -3   30.50    8.00
   6  -7  -3   22.50    8.20
  -6   7  -3   18.50    4.70
  -6  -7   3   14.00    8.50
  -6   7  -3   23.00    9.30
  -6   7  -3   34.90   13.30
   6   9  -3   51.99   28.60
  -6   9   3   44.40   11.50
  -6   9  -3   47.40   11.20
   6  -9  -3   31.40    9.00
  -6   9  -3   32.80   15.60
   6   9   3   42.10   13.10
  -6  -9   3   22.30    8.70
   6   9   3   47.60   37.60
  -6   0   4   66.59    9.90
   6   0  -4   78.19    7.30
  -6   0   4   65.89    8.50
  -6   0  -4   69.09    5.70
   6   0  -4   53.59    5.70
   6   0   4   94.49   21.50
   6   0  -4   68.29   13.50
   6   0   4   71.49    6.00
  -6   0   4   63.79    5.50
  -6   0  -4   85.89   21.00
   6   0  -4   72.09   10.30
   6   2  -4 1757.82  148.79
  -6  -2  -4 2191.78  153.08
   6  -2   4 2120.79  151.58
  -6  -2  -4 1959.30  148.39
  -6   2   4 1837.22  149.39
  -6   2   4 1824.52  148.49
  -6   2  -4 2087.89  151.58
   6  -2  -4 1751.52  149.88
   6   2   4 1684.13  148.69
   6  -2  -4 1778.02  148.59
   6   2   4 2239.88  155.08
   6   2   4 1880.01  148.29
  -6  -2   4 1720.13  148.69
  -6   4   4   80.89    7.10
   6   4  -4   82.79    8.30
   6   4  -4   69.79   15.20
  -6  -4  -4   90.09    7.50
   6   4  -4   82.29    6.90
  -6   4   4  107.99   10.10
  -6  -4  -4   67.79   13.90
   6  -4   4   81.59   15.70
   6   4  -4   87.79   13.70
  -6   4   4  101.39   14.10
   6   4  -4   85.49   11.70
   6   4  -4   89.89    8.60
  -6  -4  -4  103.69   10.80
   6   4   4   89.19   10.10
   6   4   4   87.29    9.20
  -6   4  -4   79.49    8.50
  -6   4  -4   84.89    8.20
  -6  -4   4   80.99   10.10
  -6   4  -4   75.49   16.20
   6   4   4   65.79   27.70
   6   4   4   86.59   16.70
   6  -4  -4   83.39    8.50
  -6  -4   4   84.19    9.90
  -6   4  -4   92.59   11.10
   6  -4  -4  103.69   15.10
  -6   4  -4   80.59   11.90
   6   4   4   78.59    6.90
  -6   4  -4   99.69   10.80
  -6   4  -4   84.99    9.60
  -6   6   4  770.62   62.19
  -6  -6  -4  697.63   58.49
   6  -6   4  623.64   61.79
   6   6  -4  732.93   58.89
  -6   6   4  840.92   59.19
   6   6  -4  688.43   64.69
  -6  -6  -4  710.13   57.59
   6   6  -4  720.73   57.19
   6   6  -4  688.93   57.29
   6   6   4  828.92   59.89
   6  -6  -4  749.53   57.89
   6   6   4  724.03   57.19
  -6   6  -4  613.14   57.59
  -6   6  -4  807.32   58.99
  -6   6  -4  747.83   57.59
  -6   6  -4  820.72   58.99
  -6  -6   4  772.32   59.39
  -6  -6   4  712.13   58.19
  -6   6  -4  811.22   61.79
   6   6   4  648.44   74.69
   6   6   4  688.63   63.79
   6  -6  -4  819.22   65.29
  -6   8   4    3.30    9.50
   6   8  -4   17.00   18.50
   6   8  -4   -2.30    8.90
  -6   8   4   11.40   14.20
   6   8  -4    5.00   19.70
  -6  -8  -4   -5.30    6.40
  -6   8   4   -1.20    9.60
   6   8   4    2.80    9.50
   6  -8  -4   -4.40    7.20
  -6   8  -4    9.30    4.60
  -6   8  -4   -7.40   10.00
  -6   8  -4   -9.70   10.90
  -6  -8   4   -2.90    7.60
   6   8   4  -22.90   35.10
  -6   8  -4  -22.90   14.30
  -6   8  -4    0.60    7.40
   6   8   4   -1.20   16.00
  -6  -1  -5  472.85   35.20
  -6  -1  -5  468.35   34.80
  -6   1   5  365.86   37.30
   6   1  -5  455.15   34.70
  -6   1   5  446.96   34.80
  -6  -1  -5  499.95   47.40
  -6   1   5  432.36   35.60
   6  -1   5  479.05   34.90
   6   1  -5  451.55   37.70
   6   1  -5  404.26   35.40
  -6  -1   5  460.05   35.40
  -6   1  -5  495.45   34.80
   6   1   5  533.95   47.80
  -6  -1   5  470.65   34.70
  -6  -1   5  371.46   36.30
   6   1   5  457.35   34.80
   6  -1  -5  444.96   34.80
   6  -1  -5  471.75   36.80
   6   1   5  353.06   40.30
   6  -1  -5  370.46   38.70
   6   1   5  436.96   35.10
   6  -1  -5  419.46   35.90
   6   3  -5  244.88   24.40
  -6  -3  -5  314.27   34.20
  -6   3   5  286.97   22.30
   6   3  -5  334.87   26.50
   6  -3   5  354.16   33.60
   6   3  -5  293.37   22.20
   6   3  -5  277.17   27.80
  -6   3   5  270.87   24.40
  -6   3   5  217.18   28.00
  -6  -3  -5  296.87   23.40
  -6  -3  -5  306.17   22.30
   6   3  -5  278.97   22.90
  -6   3  -5  289.17   23.30
   6   3   5  274.37   23.00
  -6   3  -5  326.47   22.60
  -6  -3   5  245.38   24.60
   6   3   5  282.27   22.20
   6   3   5  319.77   44.80
  -6  -3   5  309.57   23.30
  -6  -3   5  276.47   22.40
   6   3   5  244.78   24.20
   6  -3  -5  241.38   24.00
   6  -3  -5  229.78   29.30
   6   3   5  249.78   32.80
   6  -3  -5  283.57   22.60
  -6   3  -5  289.27   32.60
   6   5  -5  135.69   10.00
  -6  -5  -5  100.49   19.30
   6   5  -5  124.89   10.90
   6  -5   5  151.88   25.00
   6   5  -5  106.39   11.30
  -6  -5  -5  129.49   10.80
  -6   5   5  114.69   16.10
  -6  -5  -5  121.89   14.40
  -6   5   5  122.49   16.20
   6   5  -5  110.79   22.50
   6   5  -5  104.59   14.60
  -6   5  -5  116.69   14.80
  -6   5  -5  106.89   14.00
  -6   5  -5  144.79   11.40
   6   5   5  124.99   10.00
   6  -5  -5  134.39   11.50
   6  -5  -5  141.99   20.00
  -6   5  -5  112.89   15.70
  -6  -5   5  134.09   13.50
  -6  -5   5  111.99   15.90
   6   5   5  117.99   16.40
  -6   5  -5  139.29   22.50
   6   5   5  141.29   30.80
  -6   5  -5  121.49   11.30
   6   5   5  103.39   19.60
   6   7  -5   42.70   18.70
  -6  -7  -5   26.10    5.90
  -6   7   5   31.70   10.60
   6  -7   5   20.80   14.40
   6   7  -5   34.40    8.90
  -6   7   5   38.80   13.20
   6   7  -5   42.50    4.70
  -6   7  -5   35.60   11.20
   6  -7  -5   26.50    6.30
   6   7   5   23.50   16.40
  -6  -7   5   46.90    8.90
   6   7   5   37.20   10.50
   6   7   5   42.40   32.90
  -6   7  -5   54.79    5.70
  -6   7  -5   19.40   15.10
  -6   7  -5   48.30    8.40
  -6   9   5    7.20   10.10
   6   9  -5    5.60   22.20
  -6   9  -5   21.40    4.90
   6  -9  -5    1.00    8.50
  -6   9  -5   -0.30   18.20
  -6  -9   5    6.20    8.30
   6   9   5  -12.80   12.40
  -6   9  -5    2.60   13.10
   6   0   6  151.88   30.40
   6   0  -6  172.38   15.00
  -6   0  -6  159.48   33.80
   6   0   6  153.38   12.90
   6   0  -6  156.98   12.80
  -6   0  -6  153.28   12.80
  -6   0   6  163.68   12.70
   6   0  -6  153.38   19.40
  -6   0   6  174.48   14.30
   6   0  -6  179.88   20.20
  -6   0   6  181.18   17.30
  -6   2   6  677.73   52.99
  -6  -2  -6  675.13   63.59
   6  -2   6  697.33   53.19
  -6  -2  -6  663.33   52.99
   6  -2   6  709.43   60.49
   6   2  -6  691.63   53.39
  -6   2   6  680.13   53.89
   6   2  -6  692.83   55.49
   6   2  -6  671.43   54.69
  -6   2   6  681.33   55.59
  -6   2  -6  654.33   59.19
   6   2   6  692.03   58.09
  -6   2  -6  722.53   53.09
   6  -2  -6  641.54   53.89
   6   2   6  646.74   52.99
  -6  -2   6  716.93   53.39
  -6  -2   6  633.84   54.09
   6   2   6  785.72   65.39
   6  -2  -6  685.93   53.09
   6   2   6  659.43   53.29
   6  -2  -6  703.23   56.69
   6   2   6  637.44   53.99
  -6   4   6   14.40   12.00
   6   4  -6   28.60    9.90
   6  -4   6   25.10   16.10
   6   4  -6   20.80    7.40
  -6   4   6   25.90    3.30
  -6  -4  -6   26.40    3.20
  -6   4   6   39.70    8.70
  -6  -4  -6   27.30   16.00
   6   4  -6   27.00    4.50
   6   4  -6   26.70    2.60
   6   4  -6   24.40   11.10
   6  -4  -6   21.30   13.90
   6   4   6   50.89   27.60
   6   4   6   32.10    4.90
  -6   4  -6   25.30    5.40
  -6   4  -6   36.70    4.10
   6   4   6    4.90   14.80
  -6  -4   6   22.20    7.40
   6  -4  -6   28.20    4.30
  -6  -4   6   31.80    5.80
  -6   4  -6   24.20   14.50
   6   4   6   24.80    2.60
   6   4   6   25.50    7.30
  -6   6   6  300.77   31.40
   6   6  -6  264.47   31.80
   6   6  -6  251.47   21.30
  -6  -6  -6  266.97   22.00
   6   6  -6  270.97   24.90
  -6   6   6  334.97   25.90
   6  -6   6  215.58   31.40
  -6   6  -6  264.27   22.00
   6   6   6  326.27   27.00
   6   6   6  209.08   33.00
   6   6   6  255.07   21.30
  -6   6  -6  356.46   31.70
   6  -6  -6  268.77   22.50
  -6   6  -6  316.97   25.80
  -6   6  -6  308.77   24.20
   6  -6  -6  367.26   36.60
  -6  -6   6  236.98   23.60
   6   6   6  198.68   39.20
  -6  -6   6  278.17   25.50
   6   8  -6    1.30    8.80
  -6   8   6  -12.00   21.60
   6   8  -6  -16.40   15.80
  -6  -8  -6   -8.50    5.70
   6   8  -6   14.90   20.90
  -6   8   6   -6.80    9.50
  -6   8  -6    8.90    4.30
  -6   8  -6   -8.40   11.70
   6  -8  -6    1.70    6.70
   6   8   6   19.30   35.40
   6   8   6    0.20   12.10
  -6  -8   6    1.20    8.10
  -6   1   7  699.53   55.89
   6   1  -7  727.93   56.39
   6   1  -7  749.73   59.29
  -6   1   7  698.93   57.69
   6   1  -7  739.03   58.09
  -6  -1  -7  747.43   66.09
   6  -1   7  683.83   55.99
   6  -1   7  770.02   62.59
  -6   1   7  675.23   56.49
   6   1   7  715.13   55.89
   6   1   7  672.13   56.99
   6  -1  -7  666.13   58.99
   6   1   7  692.33   59.39
  -6  -1   7  797.22   56.39
   6   1   7  698.23   56.09
   6   1   7  654.73   56.69
  -6   1  -7  753.32   63.49
   6  -1  -7  666.83   56.59
   6  -1  -7  797.52   58.79
  -6  -1   7  712.73   57.19
   6   1   7  800.22   64.89
  -6  -3  -7  406.16   30.00
  -6   3   7  355.96   29.90
   6  -3   7  394.56   40.50
   6   3  -7  383.06   29.90
  -6  -3  -7  354.46   43.00
   6   3  -7  388.36   30.60
  -6   3   7  363.76   33.90
   6   3  -7  358.46   34.50
  -6   3   7  391.56   31.60
   6   3  -7  386.36   32.80
  -6  -3   7  372.16   31.90
   6  -3  -7  375.66   37.20
   6   3   7  388.46   29.90
   6   3   7  371.96   30.60
  -6   3  -7  403.46   30.10
   6   3   7  428.26   49.20
   6   3   7  356.66   31.90
   6   3   7  375.56   38.60
   6  -3  -7  338.97   31.40
  -6  -3   7  413.06   30.00
  -6   3  -7  360.96   38.80
   6  -3  -7  403.96   30.20
  -6  -3   7  412.16   30.80
   6   5  -7   57.29    9.30
  -6  -5  -7   73.69    6.40
   6  -5   7   45.20   16.70
  -6   5   7   71.79   13.30
  -6  -5  -7   36.30   14.60
   6   5  -7   51.79    4.90
   6   5  -7   57.09   13.70
  -6   5   7   84.39   10.30
   6   5  -7   44.90    6.20
   6   5  -7   41.10    6.20
   6   5   7   60.09   16.40
  -6  -5   7   52.99    8.80
  -6   5  -7   49.20    5.30
   6  -5  -7   60.39    5.80
   6  -5  -7   84.09   18.90
   6   5   7   49.10    5.00
   6   5   7   63.79    9.30
   6   5   7   38.10   30.60
  -6  -5   7   57.99    7.40
   6   7  -7   24.90   17.30
  -6   7   7   28.50   14.70
  -6  -7  -7   16.50    5.30
   6   7  -7   33.00    9.00
   6  -7   7   14.50   15.00
   6   7  -7   32.20    3.20
  -6   7   7   47.60   10.20
  -6  -7   7   44.70    8.40
   6   7   7   27.70   15.80
   6   7   7   36.80   11.90
   6   7   7   -3.70   34.40
   6   7   7   25.00   12.50
  -6   7  -7   33.00   11.10
   6  -7  -7   20.60    5.80
  -6   7  -7   23.90    4.30
  -6   9   7   38.30   10.80
   6   9  -7    2.60   21.20
  -6   9  -7   29.00   16.60
   6  -9  -7    7.20    7.30
  -6  -9   7    7.60    8.50
   6   9   7   28.00   12.50
  -6   9  -7   22.50    4.50
  -6   0  -8  219.08   17.70
   6   0   8  215.58   17.70
   6   0  -8  218.78   17.60
  -6   0   8  264.97   18.80
   6   0   8  199.08   33.50
   6   0  -8  213.28   24.40
   6   0  -8  199.98   19.20
  -6   0   8  256.17   21.20
  -6   0  -8  221.98   35.80
  -6   0   8  230.68   17.60
   6   0  -8  206.98   25.00
  -6   0   8  226.08   21.10
   6  -2   8  346.77   38.60
  -6  -2  -8  320.87   41.00
   6  -2   8  306.57   25.30
  -6   2   8  326.27   29.50
  -6   2   8  339.37   26.90
  -6  -2  -8  311.07   25.00
   6   2  -8  330.27   25.00
   6   2  -8  328.47   31.50
   6   2  -8  301.17   25.90
   6   2  -8  319.47   28.80
  -6   2   8  303.27   25.00
   6   2   8  315.37   25.60
  -6  -2   8  303.47   27.00
   6  -2  -8  292.67   26.60
   6   2   8  340.97   41.50
   6   2   8  316.27   25.00
   6  -2  -8  299.27   32.30
  -6   2  -8  348.67   25.10
  -6   2  -8  271.37   35.20
   6   2   8  301.47   27.00
  -6  -2   8  341.97   25.90
   6   2   8  347.27   28.10
  -6  -2   8  334.77   25.10
   6  -2  -8  325.07   25.20
   6   2   8  326.77   33.60
   6   4  -8  165.58   12.50
   6   4  -8  131.09   14.10
  -6  -4  -8  164.58   12.90
   6  -4   8  134.49   21.90
  -6   4   8  156.98   21.70
   6   4  -8  167.88   24.00
   6   4  -8  158.58   18.40
  -6  -4  -8  146.09   30.90
  -6   4   8  152.48   17.30
   6  -4  -8  208.88   26.60
  -6  -4   8  160.18   14.80
   6  -4  -8  171.98   13.30
   6   4   8  141.89   16.90
  -6   4  -8  160.18   13.00
  -6  -4   8  167.78   17.00
   6   4   8  147.49   12.50
  -6  -4   8  154.48   13.10
   6   4   8  167.48   17.50
   6   4   8  135.99   32.10
   6   4   8  144.09   21.10
   6   6  -8    5.00    2.20
  -6   6   8    2.30   10.10
  -6  -6  -8   10.20    3.90
   6  -6   8    0.70   14.50
   6   6  -8   -2.40    8.60
  -6   6   8   -7.50   12.50
   6   6  -8    6.20   14.50
  -6  -6   8   -1.70    7.00
   6   6   8   -2.00   15.70
   6  -6  -8    7.30    5.00
  -6   6  -8    7.50    3.70
   6   6   8    2.30   31.30
   6   6   8   -4.50    9.30
   6   6   8   -4.10   12.40
  -6  -6   8    6.40    9.00
   6  -6  -8   -8.80   17.90
  -6  -8  -8    3.10    5.70
   6   8  -8   19.70   21.60
  -6   8   8   34.60   10.80
   6   8   8   21.40   12.50
   6  -8  -8   31.40    6.90
  -6   8  -8   12.20    4.30
  -6  -8   8   10.50    8.70
  -6   1   9   94.69   14.80
  -6   1   9  129.09   13.60
   6  -1   9  151.08   23.20
  -6  -1  -9  108.59    8.90
   6   1  -9  105.89    8.80
   6   1  -9   87.49   11.50
  -6   1   9  101.89    8.70
  -6  -1  -9  126.49   24.60
   6   1  -9  108.59   14.40
   6   1  -9  122.09   21.40
   6  -1   9   97.49    9.10
  -6   1   9   95.69   11.50
   6   1   9  131.39   23.80
   6  -1  -9  117.79   22.00
  -6   1  -9  146.09   22.30
  -6  -1   9  105.19    8.80
   6   1   9  105.99    8.80
  -6   1  -9  113.79    8.90
   6   1   9   94.99   14.90
  -6  -1   9  111.79   13.80
  -6  -1   9  134.59   15.70
   6  -1  -9   90.09   11.90
   6   1   9  106.69   11.00
   6   1   9   93.19    9.90
  -6  -1   9  123.79   11.20
   6  -1  -9  103.49   15.20
   6   1   9   84.39   12.00
   6  -1  -9  101.49    9.00
  -6   3   9   10.80    7.30
   6  -3   9   -4.20   18.40
   6   3  -9    2.50    4.50
  -6   3   9   13.80   10.30
  -6  -3  -9    1.30   21.60
  -6  -3  -9    2.90    2.30
   6   3  -9    8.30    1.70
   6   3  -9    9.00    9.20
   6   3   9    5.20    1.80
   6   3   9   -6.20   15.30
   6   3   9    3.30    4.20
   6   3   9    8.00   10.30
  -6  -3   9   12.80    5.30
  -6   3  -9   11.80    2.50
   6   3   9    7.70   24.10
   6   3   9    7.50    6.80
   6  -3  -9   11.30    2.90
  -6  -3   9    8.00    7.20
   6  -3  -9   23.90   14.50
  -6  -3   9    5.30    2.30
  -6   5   9   49.20    9.70
   6   5  -9   30.00    3.20
  -6  -5  -9   32.10    4.10
  -6   5   9   29.00   12.30
   6  -5   9   10.00   17.10
   6   5  -9   32.30   14.10
   6   5  -9   27.80   10.30
   6   5   9   21.60   27.20
  -6  -5   9   23.20    6.60
   6   5   9   35.50   12.80
   6   5   9   28.30   17.00
   6  -5  -9   29.30    4.90
  -6   5  -9   36.50    4.20
  -6  -5   9   27.20    8.40
   6  -5  -9   49.50   18.30
   6   5   9   38.90    9.20
   6   7  -9   21.80   10.10
  -6  -7  -9   30.20    5.30
   6   7  -9   37.90    4.10
  -6   7   9   31.00    9.80
   6  -7   9   15.80   14.30
  -6   7   9   26.70   14.20
   6   7  -9   24.60   16.50
   6   7   9   11.60   13.20
   6   7   9   37.20   12.20
   6   7   9   14.50   16.20
   6  -7  -9   41.20    6.30
  -6  -7   9   19.00    8.30
  -6   7  -9   27.70    4.10
   6   7   9   22.40   34.70
  -6   0  10  482.35   40.50
   6   0 -10  483.75   38.20
  -6   0  10  525.95   41.10
  -6   0 -10  503.65   38.20
  -6   0  10  470.15   38.20
   6   0 -10  492.25   43.90
   6   0  10  514.05   48.80
   6   0 -10  453.15   43.20
   6   0 -10  430.56   39.20
  -6   0 -10  475.95   52.09
  -6   0  10  540.65   39.10
  -6   2  10   42.50   10.40
   6   2 -10   44.80   14.30
   6   2 -10   37.20    4.10
   6   2 -10   29.90   11.60
  -6  -2 -10   30.80   22.20
   6  -2  10   60.69   20.00
   6   2 -10   27.80    6.10
  -6  -2 -10   36.30    4.50
  -6   2  10   49.80    7.40
   6  -2 -10   47.80    5.00
   6  -2 -10   55.09   19.20
  -6  -2  10   38.10    4.30
   6  -2 -10   34.20   13.50
  -6  -2  10   53.89    6.20
   6   2  10   31.20   15.20
   6   2  10   33.40    9.50
   6   2  10   47.00    5.30
   6   2  10   39.30    7.60
   6   2  10   33.50   21.90
  -6  -2  10   32.80    7.90
  -6   2 -10   42.20    4.60
   6  -4  10  685.43   68.39
   6   4 -10  799.72   61.79
   6   4 -10  706.63   63.79
  -6  -4 -10  792.42   61.89
  -6   4  10  852.31   63.09
  -6   4  10  886.61   65.39
  -6  -4 -10  708.93   71.19
   6   4  10  862.41   64.69
   6   4  10  820.52   69.29
  -6  -4  10  787.52   62.49
   6  -4 -10  835.72   61.99
  -6  -4  10  693.33   61.99
   6  -4 -10  896.61   68.19
   6   4  10  813.42   63.79
  -6  -4  10  814.72   63.49
   6  -6  10   12.90   16.70
  -6   6  10    1.80    8.90
   6   6 -10   -7.90   14.00
   6   6 -10   10.70   10.40
  -6   6  10    5.10   11.30
  -6  -6 -10   -5.00    3.80
   6   6 -10   -1.10    2.20
   6  -6 -10   -6.10   18.10
   6  -6 -10   -1.20    4.80
  -6   6 -10    3.60    3.20
   6   6  10    7.00    9.10
   6   6  10   -0.70   30.30
  -6  -6  10    0.10    9.20
   6   6  10    9.50   13.60
  -6  -6  10   -9.70    7.40
   6   6  10    1.30   17.00
   6   8 -10   68.39   21.30
  -6  -8 -10   49.60    7.50
  -6   8  10   81.69   11.40
   6   8  10   53.39   14.30
  -6   8 -10   74.79    7.10
   6  -8 -10   52.49    8.00
  -6  -8  10   57.69   11.00
  -6   1  11  180.88   19.90
  -6   1  11  197.28   17.00
  -6  -1 -11  161.98   30.10
  -6  -1 -11  190.78   15.10
   6   1 -11  189.68   15.00
   6   1 -11  175.38   17.00
   6   1 -11  154.18   25.80
  -6   1  11  214.78   20.00
   6   1 -11  183.88   24.00
   6  -1  11  177.88   34.60
   6   1  11  170.08   22.00
   6  -1 -11  196.18   15.20
   6   1  11  192.38   17.60
   6   1  11  185.58   15.80
  -6   1 -11  190.28   15.10
  -6  -1  11  230.98   19.30
   6   1  11  186.58   17.80
  -6  -1  11  217.58   16.90
   6  -1 -11  163.68   17.60
   6  -1 -11  221.08   26.70
   6  -1 -11  173.28   28.80
   6   1  11  167.98   35.00
  -6  -1  11  178.18   21.20
   6   3 -11    3.10    2.10
  -6   3  11   -4.50   10.50
   6   3 -11    1.10   10.80
  -6  -3 -11  -15.50   24.10
  -6  -3 -11    2.50    2.60
   6  -3  11    1.60   17.90
  -6   3  11    5.50    8.10
   6   3 -11    3.10    4.90
   6  -3 -11    9.30   15.40
   6   3  11    0.80   10.60
  -6  -3  11    2.60    7.40
  -6   3 -11   -1.00    2.40
   6   3  11    7.50    4.50
   6   3  11    6.90    7.50
   6   3  11  -12.90   22.60
   6  -3 -11    2.90    3.00
  -6  -3  11  -11.00    5.60
   6   3  11    7.40   16.80
  -6  -5 -11    7.40    3.40
  -6   5  11   12.70   11.70
  -6   5  11   15.10    8.10
   6   5 -11    5.20   10.10
   6   5 -11   13.60    2.40
   6   5 -11    4.60   14.30
   6  -5  11   12.40   16.60
  -6   5 -11    8.40    2.90
   6   5  11   -2.60   26.80
  -6  -5  11   21.30    6.70
   6  -5 -11    0.00   18.50
   6   5  11  -15.70   12.50
  -6  -5  11    1.90    8.40
   6   5  11   18.70    9.00
   6  -5 -11   12.60    3.90
   6   5  11    7.00   19.30
   6  -7  11    2.80   14.60
   6   7 -11   18.70   16.60
  -6   7  11   25.30   10.00
  -6  -7 -11   18.20    5.20
   6   7  11   30.50   13.30
  -6   7 -11   13.30    3.20
   6  -7 -11   18.70    5.00
  -6  -7  11   19.10    8.60
   6   0 -12  308.77   34.10
  -6   0  12  339.97   29.80
   6   0  12  322.17   41.90
  -6   0  12  320.07   31.00
   6   0 -12  336.97   26.60
  -6   0  12  360.26   27.80
   6   0 -12  342.17   36.60
  -6   0 -12  348.67   26.50
   6   2 -12  110.09   15.80
   6  -2  12   66.89   22.60
   6   2 -12   91.09    8.00
  -6   2  12  121.39   10.50
   6   2 -12   90.89   10.80
  -6   2  12  105.89   13.10
  -6  -2 -12   96.79    8.20
   6  -2 -12   98.49    8.50
  -6   2 -12   98.99    8.30
   6   2  12  105.59   16.90
   6   2  12   81.89   10.00
   6   2  12  100.79   12.00
  -6  -2  12   83.89   10.90
   6   2  12   76.09   25.20
  -6  -2  12   82.69   14.10
   6   2  12  105.09   13.70
   6  -2 -12   89.09   17.10
  -6  -2  12   94.79   14.00
  -6  -4 -12   23.10    3.50
   6   4 -12   19.80   11.90
   6   4 -12   23.60    2.90
  -6   4  12   24.60   11.70
   6  -4  12    8.90   17.60
  -6   4  12   21.80    9.30
   6  -4 -12   20.80    4.00
  -6   4 -12   27.80    3.20
   6   4  12    5.00   18.30
   6   4  12   28.90   25.50
  -6  -4  12   25.30    8.70
  -6  -4  12   25.60    6.90
   6   4  12   30.40   12.10
   6   4  12   13.40    9.00
   6  -4 -12    9.40   17.00
   6   6 -12   13.90    2.70
  -6   6  12    3.60    9.40
   6  -6  12    9.00   14.90
   6   6 -12   10.10   15.20
  -6  -6 -12    8.40    4.20
   6   6  12   25.80   13.50
  -6  -6  12    2.30    8.30
   6   6  12   -9.40   18.60
  -6   6 -12   13.70    3.30
   6   6  12    4.40    9.60
   6  -6 -12   15.50    4.70
   6   1 -13  153.68   12.40
   6   1 -13  136.59   19.10
  -6  -1 -13  153.38   12.40
  -6   1  13  168.88   19.70
   6   1 -13  112.89   16.20
  -6   1  13  143.79   17.80
   6  -1  13  178.98   33.80
  -6   1  13  150.38   14.60
   6  -1 -13  164.78   20.40
  -6  -1  13  144.89   17.20
   6   1  13  159.08   27.60
  -6  -1  13  166.48   20.90
  -6  -1  13  173.68   14.80
   6   1  13  151.08   15.90
   6  -1 -13  153.28   12.50
  -6   1 -13  151.78   12.30
   6   1  13  109.09   16.20
  -6   3  13  209.48   19.00
  -6   3  13  198.78   23.30
   6  -3  13  149.09   31.50
  -6  -3 -13  197.48   16.00
   6   3 -13  190.78   25.70
   6   3 -13  197.18   15.80
   6   3  13  182.38   24.00
   6   3  13  187.98   22.30
  -6  -3  13  197.58   20.30
   6   3  13  182.58   20.90
   6  -3 -13  224.48   31.20
   6  -3 -13  208.58   16.20
  -6  -3  13  223.78   18.00
  -6   3 -13  195.48   15.90
  -6   5  13   70.79   10.70
  -6  -5 -13   59.79    7.10
  -6   5  13   73.79   14.40
   6   5 -13   67.19    6.20
   6   5 -13   70.99   16.80
   6  -5  13   36.40   18.50
   6  -5 -13   60.79    6.50
   6  -5 -13   74.69   21.50
   6   5  13   58.29   10.80
   6   5  13   77.99   20.40
  -6   5 -13   62.79    6.40
  -6  -5  13   60.39    8.80
   6   5  13   59.09   13.40
   6   5  13   27.00   28.00
  -6  -7 -13    7.80    4.60
  -6   7  13    2.30    9.20
   6  -7  13    7.20   14.60
   6   7 -13   22.40   17.40
   6  -7 -13    9.90    4.90
   6   7  13    2.50   12.70
  -6   7 -13    5.50    3.10
   6   0 -14    3.70    2.40
  -6   0 -14    0.60    2.30
  -6   0  14   -4.30   10.70
   6   0  14   -9.80   22.30
  -6   0  14   -4.40    9.40
   6   0 -14    0.80   15.20
  -6   0  14    8.60    7.20
  -6   2  14  179.78   17.60
   6   2 -14  172.48   26.00
  -6   2  14  175.18   21.10
  -6  -2 -14  184.28   14.90
   6   2 -14  193.18   14.80
   6  -2  14  151.88   32.50
   6   2  14  183.58   19.30
   6   2  14  189.58   19.30
   6   2  14  199.48   26.40
  -6   2 -14  191.18   14.80
  -6  -2  14  181.58   16.80
   6   2  14  144.29   29.40
   6  -2 -14  191.98   15.00
   6  -2 -14  200.48   29.70
  -6  -2  14  168.98   19.20
   6  -4  14    0.30   17.60
  -6  -4 -14    0.60    3.10
  -6   4  14   -1.10   11.90
  -6   4  14   10.20    8.30
   6   4 -14    0.90    2.40
   6  -4 -14   -3.50    3.50
   6   4  14   -8.10    9.00
   6   4  14   -3.00   18.20
   6  -4 -14   -3.10   18.90
  -6   4 -14   -0.50    2.60
   6   4  14    7.00   24.20
   6   4  14   14.60   12.30
  -6  -4  14  -13.80    6.40
  -6  -6 -14  110.29   11.60
  -6   6  14  146.39   18.20
   6   6 -14  138.09   29.30
   6  -6 -14  124.39   12.20
  -6   6 -14  134.09   10.60
   6   6  14   81.29   16.60
  -6  -1 -15   43.60    5.00
  -6   1  15   32.20   10.20
   6   1 -15   39.60    5.00
  -6   1  15   39.00    7.60
   6   1 -15   32.10   16.30
   6  -1  15   37.60   22.80
   6  -1 -15   38.90    4.40
   6  -1 -15   36.10   16.70
   6   1  15   12.80   23.70
  -6   1 -15   48.60    4.90
  -6  -1  15   43.90    7.90
  -6  -1  15   43.40   10.20
  -6   3  15   11.90   10.90
  -6  -3 -15   19.50    3.40
   6   3 -15   24.70    3.00
  -6   3  15   25.10    7.80
   6  -3  15   18.00   18.00
   6   3  15   24.00   25.00
   6  -3 -15   19.30    3.60
  -6  -3  15    9.40    7.30
  -6   3 -15   19.80    3.20
   6   3  15   13.40   10.40
   6  -3 -15   19.20   17.20
   6   5 -15   -3.90   15.90
   6  -5  15   -9.00   16.80
  -6  -5 -15   -1.00    3.70
   6   5 -15   -0.50    2.60
  -6   5  15    8.90    9.40
  -6   5 -15    1.50    2.80
   6  -5 -15    2.10    4.00
   6   5  15   -0.60   13.00
  -6   0 -16   10.20    2.70
   6   0 -16    0.90    2.60
   6   0  16   10.70   22.20
  -6   0  16    4.60    7.00
   6   2 -16  214.38   17.00
  -6   2  16  221.68   19.20
  -6  -2 -16  203.78   17.10
   6  -2  16  166.08   32.80
  -6  -2  16  206.88   19.10
  -6   2 -16  222.88   16.90
   6  -2 -16  193.68   25.70
   6  -2 -16  215.38   17.10
  -6   4  16    6.80    8.50
   6  -4  16   -1.20   17.10
   6   4 -16   -0.40    2.70
  -6  -4 -16    1.00    3.30
   6   4  16   -0.70   11.10
   6  -4 -16   -1.70    3.60
  -6   4 -16   -3.20    2.60
  -6   1  17  115.29   13.80
  -6  -1 -17  111.39    9.60
   6   1 -17  113.19    9.70
   6   1  17   68.79   25.60
   6  -1 -17  112.69    9.80
  -6   1 -17  115.29    9.60
   6  -3  17   54.99   20.40
  -6  -3 -17   88.39    7.90
   6   3 -17   90.39    7.70
  -6   3  17   65.79   10.20
  -6   3 -17   85.99    7.50
   6  -3 -17   78.59    8.10
   6   3  17   24.60   38.40
   6   0 -18   52.09    5.90
  -6   0 -18   46.60    5.50
   6   0  18   37.40   21.40
  -6   2  18   13.20    8.00
   6   2 -18   10.80    3.00
  -6  -2 -18   10.30    3.20
   6  -2  18    7.00   17.90
  -6   2 -18   15.90    2.80
   6  -2 -18    7.50    3.40
   6   2  18    3.40   23.20
   6   1 -19    6.60    3.00
  -6  -1 -19    1.20    2.90
   6  -1  19   -0.30   18.10
   6   1  19    6.10   20.80
   6  -1 -19    6.60    3.40
  -6   1 -19    4.00    2.60
   7   1   0    7.20    5.20
  -7   1   0   -1.50   17.00
  -7   1   0    1.40    7.70
   7  -1   0    5.80   19.70
  -7  -1   0    7.20    5.70
   7   1   0    2.50   18.70
  -7   1   0   -3.60    4.10
  -7   1   0    3.50    3.10
   7  -1   0   14.30    8.30
   7   1   0    5.80    3.80
  -7  -1   0    4.10    3.70
  -7  -1   0    5.80   16.10
   7  -1   0   -5.50    4.40
   7  -1   0    4.20    5.00
  -7   3   0   14.20    9.40
  -7   3   0   -2.70    2.50
   7   3   0    2.40    5.50
  -7  -3   0    0.50    6.90
  -7  -3   0    5.90    5.20
   7  -3   0   -6.50    6.50
  -7  -3   0   -1.20    7.80
   7  -3   0    9.80    5.40
   7   3   0   -1.10    3.70
   7   3   0   -1.40   16.60
  -7   3   0   13.20   12.90
  -7   3   0    9.60    5.50
   7  -3   0    5.30   10.90
   7  -3   0  -13.80   11.30
   7  -5   0   -8.30   15.00
   7   5   0    0.60    3.50
   7   5   0    5.80    6.20
  -7   5   0    1.00    2.60
   7  -5   0    1.60    6.30
  -7   5   0   11.80   14.50
   7  -5   0   -2.10    9.30
  -7   5   0   -1.50    3.50
  -7   5   0    1.00   11.60
  -7   5   0    8.30    7.40
  -7  -5   0    4.80    5.90
   7   5   0   -6.00   19.30
  -7  -5   0   -1.90    6.70
  -7  -7   0   -1.10    7.40
   7   7   0  -17.30   23.90
   7  -7   0    6.00    7.00
  -7   7   0   -4.90    9.60
  -7   7   0    4.00   13.90
   7   7   0    3.40    8.70
  -7   7   0   -1.40   11.90
   7   7   0   -1.40   17.00
  -7   7   0    8.90    8.00
  -7   9   0    1.30   16.30
   7   9   0    4.20   30.10
  -7   9   0   -7.80   10.80
  -7   0  -1   78.89    8.10
   7   0  -1   60.39    8.60
  -7   0   1   68.79    6.70
   7   0  -1   98.29   10.10
  -7   0   1   82.99    8.90
  -7   0   1   96.69   10.20
   7   0   1   68.79    8.20
  -7   0  -1   75.79    8.40
   7   0   1   71.49   24.90
   7   0  -1   56.39    7.40
   7   0   1   85.79    9.30
  -7   0  -1   78.29    7.00
  -7   0  -1  106.19   22.60
  -7   0   1   74.99   16.50
  -7   0  -1   64.59    7.80
   7   0  -1   97.89   20.60
   7  -2   1 5927.81  461.25
  -7   4   1   25.80    3.20
   7   4  -1   29.90   14.90
  -7   4   1   32.40    4.70
  -7  -4  -1   34.70    8.50
   7   4  -1   27.90    4.40
  -7   4   1   33.10   13.00
  -7  -4  -1   26.90    5.80
   7   4  -1   19.10    6.50
  -7  -4  -1   17.70    6.70
  -7   4   1   14.70   10.70
   7  -4   1   13.40   12.70
  -7   4   1   21.70    6.60
   7  -4   1   26.90    6.10
   7   4   1   25.20   17.70
   7  -4  -1   33.10    5.80
  -7   4  -1   31.70    3.90
   7  -4  -1    5.30   11.80
  -7   4  -1   16.40    6.00
  -7   4  -1    3.90    9.00
   7   4   1   22.10    6.40
  -7  -4   1   19.30    7.60
  -7   4  -1   35.70   13.40
  -7   4  -1   32.90    4.00
   7   4   1   26.50    4.20
  -7  -4   1   29.70    6.10
  -7   6   1 2129.59  156.48
  -7   6   1 2121.09  157.68
  -7  -6  -1 2092.69  155.78
   7   6  -1 1929.91  161.58
  -7   6   1 2090.09  158.28
   7  -6   1 1980.10  156.18
   7   6  -1 2048.20  156.68
  -7   6   1 1677.63  158.98
  -7  -6  -1 2027.40  156.18
   7   6   1 2229.28  156.78
   7  -6  -1 2017.20  156.08
  -7   6  -1 2083.59  156.38
  -7   6  -1 1978.50  156.58
   7   6   1 1825.32  155.48
   7   6   1 1849.21  158.98
  -7   6  -1 2051.39  157.98
  -7  -6   1 1937.31  156.18
   7   6   1 1930.81  162.38
  -7   8   1   -8.00   14.60
  -7   8   1   -7.40   17.20
   7   8  -1  -11.10   26.70
  -7   8   1    5.50   10.00
   7   8  -1  -23.50   15.90
  -7   8   1   -8.10    8.90
   7   8  -1    5.60   10.00
  -7  -8  -1    4.70    8.20
   7   8   1    3.00   10.40
  -7   8  -1   -4.00   15.10
   7  -8  -1   -5.30    8.20
  -7   8  -1   -1.50   13.40
   7   8   1   10.20   28.70
  -7  -8   1    3.30    8.10
  -7   8  -1   19.90   10.50
  -7   8  -1    5.60    7.40
   7   8   1  -18.80   18.00
   7  10  -1   66.39   33.20
  -7  10  -1  100.19   10.90
   7  10   1  156.18   17.40
   7  10   1   19.50   38.00
  -7  -1  -2 5402.16  369.66
   7  -1  -2 4034.90  367.06
   7   3  -2 1661.23  137.79
  -7   3   2 1730.83  137.59
   7   3  -2 1964.60  140.39
  -7  -3  -2 1966.90  139.99
   7   3  -2 1794.52  137.39
  -7   3   2 1596.24  138.69
   7  -3   2 1647.94  138.79
  -7  -3  -2 1733.13  137.99
  -7  -3  -2 1944.01  137.59
   7   3   2 1627.74  137.79
   7  -3  -2 1790.12  137.29
  -7   3  -2 1848.12  137.29
  -7  -3   2 1970.00  137.49
   7   3   2 1792.92  137.39
   7  -3  -2 1599.64  138.89
   7  -3  -2 1658.23  137.69
  -7  -3   2 1615.64  137.89
   7   3   2 2060.49  143.39
  -7   3  -2 1531.55  138.09
  -7   3  -2 1969.10  137.39
  -7   3  -2 1556.04  137.39
  -7   5   2  718.33   56.49
  -7   5   2  568.34   52.59
  -7  -5  -2  721.53   53.39
   7   5  -2  595.94   54.89
   7   5  -2  621.84   52.49
  -7   5   2  732.43   53.69
   7  -5   2  686.63   56.69
  -7  -5  -2  662.03   54.99
   7   5  -2  672.83   59.99
  -7   5   2  655.23   52.19
  -7   5   2  606.14   56.59
   7   5  -2  683.03   53.59
  -7  -5  -2  726.33   52.39
  -7   5   2  768.52   54.29
  -7   5  -2  586.64   57.69
   7   5   2  673.73   53.79
  -7   5  -2  595.34   52.39
  -7   5  -2  716.93   53.59
  -7   5  -2  656.73   53.19
  -7  -5   2  696.63   54.09
  -7  -5   2  673.33   53.09
   7   5   2  685.73   52.09
  -7   5  -2  638.84   52.49
   7   5   2  701.63   65.29
  -7   5  -2  659.83   55.19
   7  -5  -2  686.63   58.39
   7  -5  -2  715.03   52.79
  -7  -7  -2  298.97   29.70
   7   7  -2  263.17   43.80
  -7   7   2  402.26   36.20
   7   7  -2  285.67   38.10
  -7   7   2  423.96   31.30
  -7   7   2  371.86   31.70
  -7  -7  -2  367.56   28.70
  -7   7   2  306.17   37.20
   7   7  -2  366.36   31.00
   7   7   2  411.76   31.60
  -7   7  -2  399.26   35.50
  -7  -7   2  312.67   30.00
  -7   7  -2  393.86   30.70
  -7   7  -2  334.87   30.10
   7   7   2  301.17   39.90
   7  -7  -2  322.07   29.80
   7   9  -2  100.49   31.10
  -7  -9   2   98.79   12.90
  -7   9  -2  145.09   29.90
   7  -9  -2  139.09   13.20
  -7   9  -2  106.89   11.80
   7   9   2   66.19   35.80
   7   0   3 4090.19  316.37
  -7   0  -3 3966.30  316.27
   7   2  -3 1196.68   92.69
  -7  -2  -3 1263.07   92.89
  -7   2   3 1192.98   92.99
  -7   2   3 1125.69   94.19
   7   2  -3 1118.99   93.39
  -7  -2  -3 1077.49   98.69
   7  -2   3 1359.56   96.39
   7   2  -3 1189.18   95.59
  -7   2  -3 1334.87   97.69
   7  -2  -3 1101.29   94.79
   7   2   3 1049.70   93.09
  -7  -2   3 1263.37   92.79
  -7  -2   3 1104.69   93.19
   7   2   3 1151.18   92.69
   7  -2  -3 1144.99   92.59
  -7   2  -3 1267.57   92.69
   7  -2  -3 1155.98   93.09
  -7   2  -3 1314.27   92.89
  -7   4   3 1431.66  113.29
   7   4  -3 1411.36  113.49
  -7  -4  -3 1520.65  113.79
  -7   4   3 1482.65  113.99
   7  -4   3 1573.94  116.49
   7   4  -3 1416.66  114.09
   7   4  -3 1502.05  115.09
  -7   4   3 1449.46  115.59
   7   4  -3 1452.75  116.89
  -7  -4  -3 1439.56  116.29
  -7   4  -3 1532.95  113.49
  -7  -4   3 1409.56  114.19
  -7   4  -3 1492.25  113.39
  -7  -4   3 1541.75  113.69
  -7   4  -3 1358.46  113.69
   7   4   3 1429.56  113.49
   7  -4  -3 1465.95  115.99
   7   4   3 1581.54  121.39
  -7   4  -3 1399.36  116.99
  -7   4  -3 1500.85  113.49
   7  -4  -3 1455.15  113.49
   7   4   3 1346.57  114.09
  -7   4  -3 1310.87  114.59
   7  -6   3   77.99   15.60
  -7   6   3  111.09   22.40
   7   6  -3  134.39   14.20
   7   6  -3  105.19   20.00
  -7  -6  -3  107.39   11.50
  -7   6   3  121.99   12.20
  -7   6   3  119.79   16.40
  -7  -6  -3   97.39   10.50
  -7   6  -3  104.69   11.60
  -7   6  -3   91.69   11.00
   7   6   3   68.39   28.10
   7  -6  -3  145.79   21.00
   7   6   3  107.19    8.60
  -7  -6   3  130.99   15.70
  -7  -6   3  115.99   13.20
   7  -6  -3  117.39   12.20
  -7   6  -3  141.99   14.10
   7   6   3  106.99   15.90
  -7   6  -3   65.09   17.90
  -7   6  -3   94.79   10.40
  -7   6  -3   87.89   14.80
   7   6   3  104.09   19.70
   7   8  -3  147.39   30.80
   7   8  -3  256.77   22.20
  -7  -8  -3  216.78   19.40
  -7   8   3  284.37   29.90
  -7   8   3  219.48   23.10
   7  -8  -3  180.48   20.90
  -7   8  -3  189.48   26.70
  -7   8  -3  238.68   21.50
  -7  -8   3  201.18   20.90
  -7   8  -3  268.87   22.60
   7   8   3  196.88   30.50
  -7   8  -3  194.48   18.50
  -7   8  -3  250.47   28.90
   7   1  -4 1366.96  113.89
   7   1  -4 1353.36  114.89
  -7  -1  -4 1719.73  119.49
   7   1  -4 1734.53  114.29
  -7  -1  -4 1517.55  113.19
  -7  -1  -4 1310.77  113.49
  -7   1   4 1422.66  113.29
  -7   1   4 1310.27  114.09
   7   1  -4 1450.55  113.19
   7  -1  -4 1357.06  114.79
   7   1   4 1431.66  113.09
  -7  -1   4 1319.47  113.69
  -7   1  -4 1673.13  118.29
   7  -1  -4 1408.56  113.49
  -7   3   4  561.24   46.90
   7   3  -4  534.85   47.10
  -7   3   4  560.84   45.90
  -7  -3  -4  656.43   46.70
   7   3  -4  579.24   46.20
  -7  -3  -4  617.94   45.90
   7   3  -4  604.24   49.90
  -7  -3  -4  638.94   53.69
  -7   3  -4  677.53   53.09
   7  -3  -4  572.04   46.10
   7   3   4  684.73   60.59
   7  -3  -4  529.25   49.99
   7   3   4  493.75   47.20
   7   3   4  583.34   46.30
  -7   3  -4  603.04   46.40
   7  -3  -4  533.75   46.90
   7   3   4  599.84   45.80
  -7  -3   4  614.34   46.50
  -7   3  -4  634.14   46.10
  -7  -3   4  537.45   47.40
  -7  -5  -4  321.87   31.80
  -7  -5  -4  359.96   27.30
   7  -5   4  374.56   35.90
   7   5  -4  343.27   38.00
  -7   5   4  361.76   29.80
  -7  -5  -4  360.96   28.70
  -7   5   4  373.96   34.50
   7   5  -4  338.37   29.20
   7   5  -4  292.97   27.60
   7   5   4  352.86   26.80
  -7   5  -4  310.77   28.80
  -7   5  -4  269.77   36.90
  -7  -5   4  357.86   30.20
   7   5   4  325.87   37.40
  -7   5  -4  356.66   28.90
   7   5   4  316.37   53.09
  -7  -5   4  354.46   28.50
  -7   5  -4  369.16   27.60
  -7   5  -4  341.87   27.50
   7  -5  -4  346.37   27.90
  -7   5  -4  341.37   32.30
   7   5   4  351.76   30.10
   7  -5  -4  366.26   37.20
   7   7  -4  163.98   34.30
  -7  -7  -4  166.88   17.10
  -7   7   4  260.17   27.60
   7   7  -4  185.58   20.60
   7  -7   4  153.38   27.90
  -7   7   4  222.48   21.40
  -7   7  -4  252.57   21.00
   7   7   4  213.48   22.10
   7  -7  -4  171.88   18.20
  -7  -7   4  193.38   19.10
  -7   7  -4  257.47   27.00
  -7   7  -4  182.48   16.70
  -7   7  -4  206.18   19.70
   7   9  -4   25.20   26.50
  -7   9   4   42.00   11.40
  -7   9  -4   12.10   14.00
   7   9   4   41.20   14.20
  -7   9  -4   39.00   10.60
  -7   9  -4   30.30    5.20
  -7  -9   4   11.20    8.40
   7  -9  -4   20.20    8.60
   7   9   4   23.70   40.50
  -7   0  -5 6557.04  472.35
   7   0  -5 4898.01  473.95
   7   0  -5 5047.10  495.75
   7   0   5 6538.85  476.05
   7   2  -5   54.49    9.10
  -7   2   5   53.39    5.00
  -7  -2  -5   52.29    5.00
   7   2  -5   66.59    6.40
  -7   2   5   47.70    7.40
   7  -2   5   72.29   17.60
   7   2  -5   55.79    9.40
  -7   2   5   56.19   10.20
   7   2  -5   62.99   11.10
  -7  -2  -5   58.89   21.30
  -7  -2  -5   68.69    8.30
   7   2  -5   56.29    4.70
  -7  -2   5   56.69    4.90
  -7  -2   5   66.29    6.50
  -7   2  -5   85.09   17.90
   7   2   5   56.99    7.10
   7   2   5   60.29    7.70
   7   2   5   53.19    5.00
  -7  -2   5   59.19    8.00
  -7   2  -5   60.69    5.90
   7  -2  -5   44.70    7.20
   7  -2  -5   54.49    5.80
   7  -2  -5   59.69   12.50
   7   2   5   86.19   26.10
   7   2   5   46.60   14.80
  -7  -4  -5 4431.66  330.67
  -7  -4  -5 4171.28  332.87
   7   4  -5 4580.14  330.47
  -7   4   5 4485.25  330.87
   7   4  -5 4216.88  330.57
   7   4  -5 4262.57  330.97
  -7   4   5 4318.27  331.87
   7  -4   5 4369.06  332.87
   7   4  -5 3664.73  331.87
  -7   4  -5 4260.77  330.67
   7  -4  -5 4477.65  332.47
   7   4   5 4453.65  335.87
  -7  -4   5 4170.38  331.07
   7   4   5 4227.58  331.17
   7   4   5 4400.66  332.77
   7   4   5 4016.10  330.57
  -7   4  -5 3782.92  332.87
  -7  -6  -5   19.90   10.80
   7   6  -5   46.10    8.80
  -7  -6  -5   33.80    5.10
   7  -6   5   28.70   14.70
   7   6  -5   36.50   18.40
   7   6  -5   40.10    4.10
  -7   6   5   45.00    9.70
  -7   6   5   32.30   13.90
  -7   6  -5   47.40    7.70
   7   6   5   34.70    9.80
   7  -6  -5    6.10   20.20
   7  -6  -5   51.09    6.50
  -7   6  -5   36.70    9.00
   7   6   5   29.70   30.70
  -7   6  -5   26.30   13.00
  -7   6  -5   50.89    5.30
  -7   6  -5   35.00    5.30
  -7  -6   5   34.00    8.00
  -7  -6   5   34.40    9.40
   7   6   5   32.30   17.50
   7   6   5   36.00    4.10
   7   8  -5  512.85   58.49
   7   8  -5  635.14   56.59
   7   8  -5  653.23   48.50
  -7  -8  -5  594.64   46.60
  -7   8  -5  579.54   46.20
   7  -8  -5  569.94   47.20
   7   8   5  554.64   50.09
  -7  -8   5  575.04   47.60
  -7   1   6  561.04   46.10
  -7   1   6  474.15   47.40
   7   1  -6  572.74   45.40
  -7  -1  -6  660.13   56.89
   7   1  -6  576.34   48.20
   7   1  -6  543.15   47.70
  -7  -1  -6  572.54   45.40
   7   1  -6  571.04   46.00
   7  -1   6  635.24   54.49
  -7   1   6  560.54   45.40
   7   1  -6  677.53   48.20
   7  -1   6  575.64   45.60
  -7  -1   6  632.44   46.00
   7  -1  -6  676.43   47.90
   7  -1  -6  562.94   45.50
  -7  -1   6  599.64   45.40
   7  -1  -6  518.45   49.30
  -7   1  -6  629.84   54.49
  -7  -1   6  541.75   46.90
   7   1   6  547.35   50.39
   7  -1  -6  566.14   46.40
   7   1   6  575.94   45.40
   7   1   6  565.24   45.70
   7  -1  -6  613.84   47.70
  -7   3   6   97.49    7.70
  -7  -3  -6  103.79   11.40
   7   3  -6   90.99   16.10
   7   3  -6   92.09    7.50
   7  -3   6   99.49   19.80
   7   3  -6   95.59   18.40
  -7  -3  -6   66.29   21.30
  -7   3   6   88.89   11.80
   7   3  -6   81.99    9.30
  -7  -3  -6  101.59    7.80
  -7   3   6   88.29   12.50
   7   3  -6  115.89   11.30
   7   3   6   85.89    9.30
   7  -3  -6  102.19   10.20
  -7   3  -6   81.09   17.80
   7   3   6   93.29    7.70
  -7   3  -6  102.69    8.50
   7  -3  -6   89.99    8.50
   7   3   6  101.19   29.00
  -7  -3   6   87.79    8.10
   7   3   6  106.99   18.00
   7   3   6   81.59   12.30
  -7  -3   6   86.29   13.10
  -7  -3   6   87.19   10.30
   7  -3  -6   87.89   14.60
   7   5  -6   63.59    5.40
   7   5  -6   55.19    9.30
  -7   5   6   65.79   10.70
  -7  -5  -6   64.29    6.80
  -7  -5  -6   48.80   15.50
   7   5  -6   64.79   15.10
   7   5  -6   51.79    6.50
  -7   5   6   68.79   14.00
   7  -5   6   54.89   17.60
   7   5   6   82.69   10.70
  -7   5  -6   59.89    7.50
   7  -5  -6   66.99    6.90
   7   5   6   33.90   29.80
   7  -5  -6   62.59   16.80
   7   5   6   68.09   17.20
   7   5   6   58.69    5.50
  -7  -5   6   63.89    9.50
  -7  -5   6   74.39    8.20
  -7   7   6   50.29   10.90
   7  -7   6    3.60   14.40
   7   7  -6   24.30   19.30
   7   7  -6   33.80    3.30
  -7   7   6   28.50   13.30
  -7  -7  -6   14.10    5.30
   7   7  -6   44.30    9.60
   7   7   6   27.10   16.60
  -7  -7   6   32.50    8.40
   7  -7  -6   13.10    6.00
   7   7   6   50.89   34.00
   7   7   6   42.90   10.50
  -7   7  -6   28.80    4.90
  -7   7  -6   49.30    9.10
  -7   7  -6   45.80   10.60
  -7   7  -6   39.30   16.30
  -7   9   6   24.80   10.30
   7   9  -6    1.50   21.20
  -7   9  -6   16.80   14.20
  -7  -9   6   15.90    8.50
  -7   9  -6    8.10    4.30
   7   9   6   28.40   13.90
   7  -9  -6   19.20    7.90
   7   0   7 3146.89  235.58
   7   0  -7 3037.10  233.58
   7   0  -7 2785.22  232.38
  -7   0  -7 3133.79  236.48
   7   0  -7 2921.01  233.38
  -7   0   7 2897.91  232.88
  -7   2   7  455.95   37.40
   7  -2   7  488.05   47.80
  -7   2   7  471.35   38.70
  -7  -2  -7  488.95   37.40
   7   2  -7  513.65   41.60
   7   2  -7  486.75   37.40
   7   2  -7  440.26   37.90
  -7   2   7  446.66   40.60
   7  -2   7  485.95   37.70
   7   2  -7  494.45   41.00
   7   2  -7  424.86   39.70
  -7  -2  -7  474.55   50.79
  -7   2  -7  527.35   37.50
   7   2   7  516.25   51.49
   7  -2  -7  445.36   38.50
   7  -2  -7  447.26   42.90
   7   2   7  501.75   44.60
  -7  -2   7  476.15   38.90
   7  -2  -7  483.95   37.50
   7   2   7  491.35   37.80
  -7  -2   7  525.15   37.40
  -7  -2   7  518.15   38.10
   7   2   7  436.96   38.60
  -7   2  -7  455.55   46.10
   7   2   7  469.85   37.40
  -7   4   7  950.90   75.39
  -7  -4  -7  830.22   79.49
   7  -4   7  872.21   78.39
   7   4  -7  965.70   76.39
   7   4  -7  797.22   72.89
  -7  -4  -7 1007.10   72.59
   7   4  -7  940.01   73.99
  -7   4   7  958.50   73.79
   7   4  -7  908.61   72.49
  -7  -4   7  945.31   73.89
  -7   4  -7  973.90   72.69
   7   4   7  881.91   72.59
   7   4   7  909.21   85.79
  -7  -4   7  993.20   73.19
   7   4   7  846.62   72.99
   7  -4  -7 1048.50   77.79
   7  -4  -7  955.70   72.79
   7   4   7  968.60   73.99
   7   4   7  997.40   78.29
   7  -6   7   77.99   18.50
   7   6  -7   93.29    7.90
   7   6  -7   99.89   17.80
   7   6  -7   91.09   11.90
  -7   6   7  124.69   12.20
  -7   6   7   81.29   14.50
  -7  -6  -7   99.69    9.30
   7   6   7   58.49   18.00
  -7  -6   7   76.99   12.00
   7  -6  -7  114.89   22.00
   7   6   7   59.29   34.00
   7   6   7   69.09   14.30
   7   6   7  126.19   18.00
   7  -6  -7   90.59   10.20
  -7  -6   7   95.09   10.70
  -7   6  -7   99.59    9.30
   7   8  -7  110.89   21.10
  -7  -8  -7  116.49   13.60
   7   8  -7  181.08   36.10
   7   8  -7  169.98   17.90
   7   8   7  198.18   22.50
   7  -8  -7  128.99   14.50
  -7  -8   7   92.49   13.80
  -7   8  -7  139.19   12.00
   7   8   7   74.89   41.60
   7  -1   8 1785.92  135.29
   7   1  -8 1708.43  133.09
  -7   1   8 1677.33  131.09
   7   1  -8 1660.33  131.09
  -7  -1  -8 1663.13  136.99
  -7   1   8 1540.05  131.89
   7   1  -8 1690.83  132.39
   7  -1  -8 1484.75  131.19
   7  -1  -8 1776.42  132.89
  -7  -1   8 1880.21  131.09
   7  -1  -8 1676.83  132.89
  -7   1  -8 1679.93  135.69
  -7  -1   8 1683.63  131.59
   7   1   8 1796.42  136.49
   7   1   8 1695.93  131.29
   7   1   8 1698.43  132.69
   7   1   8 1641.94  130.79
   7   1   8 1532.95  131.19
   7   3  -8 1022.30   77.69
   7  -3   8  948.31   82.59
   7   3  -8  928.11   76.29
  -7   3   8 1025.60   78.69
  -7  -3  -8  921.61   84.19
   7   3  -8 1010.10   75.99
  -7   3   8 1051.59   76.99
   7   3  -8  868.71   79.19
   7   3  -8  863.81   79.29
  -7  -3   8 1047.40   76.39
   7  -3  -8 1041.50   76.09
   7  -3  -8  980.40   79.99
   7   3   8  907.91   85.99
   7   3   8  969.80   77.19
   7   3   8  919.61   76.29
  -7  -3   8  974.50   75.99
   7   3   8 1132.19   81.69
   7   3   8 1009.20   77.89
  -7  -3   8  980.40   77.19
   7   3   8  952.00   75.99
  -7   5   8  497.25   43.90
   7   5  -8  505.35   41.70
   7   5  -8  451.25   40.00
   7  -5   8  442.86   47.70
   7   5  -8  503.35   39.20
  -7  -5  -8  531.15   39.40
  -7   5   8  535.75   41.60
   7   5  -8  513.55   45.90
   7  -5  -8  503.45   39.70
  -7  -5   8  485.75   40.30
  -7  -5   8  506.05   41.60
   7   5   8  557.64   42.40
   7   5   8  502.85   43.70
   7  -5  -8  583.04   49.30
   7   5   8  392.26   60.69
  -7   5  -8  525.95   39.50
   7   5   8  453.25   49.10
  -7   7   8  231.98   20.50
   7  -7   8  119.69   27.10
   7   7  -8  178.88   33.30
  -7   7   8  254.97   26.40
   7   7  -8  158.58   19.90
  -7  -7  -8  167.08   15.50
   7   7   8  149.29   19.50
   7   7   8   99.49   23.40
   7  -7  -8  192.68   16.10
   7   7   8  240.78   22.90
  -7   7  -8  183.28   14.90
  -7  -7   8  151.48   18.00
  -7   9   8   81.19   11.50
   7   9  -8   83.79   24.40
   7  -9  -8   54.59    9.00
   7   9   8   71.09   14.30
  -7  -9   8   50.69   10.50
  -7   9  -8   82.79    8.10
  -7   9  -8   36.90   16.20
   7   0  -9   61.69    8.30
  -7   0  -9   71.99    6.60
  -7   0   9   74.29    9.70
   7   0   9   89.09   22.40
   7   0  -9   90.99   13.50
   7   0   9   65.19    6.70
  -7   0  -9   90.79   23.90
   7   0  -9   81.29   13.80
  -7   0   9   77.09    6.30
   7   0  -9   77.49    6.50
  -7  -2  -9 2067.99  178.98
   7   2  -9 2098.79  175.68
   7   2  -9 2311.07  174.68
   7  -2   9 2348.27  177.88
   7   2  -9 2179.58  173.48
  -7   2   9 2280.27  173.68
  -7   2   9 2180.08  174.58
   7   2   9 2263.57  173.48
   7   2   9 2318.57  179.18
  -7  -2   9 2244.18  174.08
   7   2   9 2510.15  174.08
   7  -2  -9 2201.98  175.78
   7   2   9 2496.65  175.88
   7  -2  -9 1963.40  173.78
   7   2   9 1985.90  173.88
   7   4  -9    3.40    1.80
  -7   4   9   -3.30   10.20
  -7  -4  -9    6.10   19.00
   7   4  -9   16.90   12.30
   7   4  -9    1.60    9.50
   7  -4   9  -10.00   17.40
   7   4  -9   -2.10    4.90
  -7  -4  -9    2.40    2.60
  -7   4   9   12.20    7.90
   7   4   9    8.70   11.80
   7  -4  -9    5.00    3.40
   7   4   9   24.60   27.40
  -7  -4   9    5.60    7.70
  -7  -4   9    4.80    5.80
   7  -4  -9   18.20   15.40
  -7   4  -9    2.70    2.70
   7   4   9  -18.70   17.30
  -7  -4   9    4.50    2.80
   7   4   9   11.60    7.60
   7   6  -9  789.32   69.79
  -7   6   9  868.41   67.79
  -7  -6  -9  788.52   63.99
  -7   6   9  910.01   65.69
   7   6  -9  787.82   63.79
   7   6  -9  776.92   66.09
   7   6   9  921.41   66.69
  -7  -6   9  755.22   64.99
  -7   6  -9  771.92   63.89
  -7  -6   9  839.52   66.29
   7   6   9  768.92   71.19
   7  -6  -9  942.01   72.69
   7   6   9  780.72   66.99
   7  -6  -9  822.12   64.19
  -7  -8  -9    2.50    5.30
  -7   8   9    0.90    9.30
   7   8  -9    9.30   20.90
  -7   8  -9    6.60    3.80
  -7  -8   9    7.40    9.00
   7  -8  -9    8.50    7.00
   7   8   9  -14.00   13.10
   7   1 -10   35.10    3.20
  -7   1  10   36.00    9.00
   7   1 -10   23.90    5.90
   7   1 -10   31.40   12.40
  -7  -1 -10   30.10    3.10
  -7   1  10   34.00    6.30
  -7  -1 -10   24.20   23.30
   7   1 -10   15.90   12.80
   7  -1  10   27.30   20.10
  -7  -1  10   15.00    8.00
   7  -1 -10   30.40    3.30
   7   1  10    2.20   23.40
   7  -1 -10   28.60   14.00
   7  -1 -10   34.70   14.20
   7   1  10   31.20   12.60
   7  -1 -10   30.60    7.00
   7   1  10   26.10    6.00
  -7   1 -10   35.70    3.40
  -7  -1  10   32.50    6.20
   7   1  10   38.60    7.50
  -7  -1  10   25.70    3.00
   7   1  10   28.50    4.10
   7   3 -10   13.90   10.10
   7   3 -10    5.70    2.00
   7  -3  10   14.20   19.90
   7   3 -10   13.80    5.30
  -7  -3 -10    9.10    2.70
  -7  -3 -10   -5.10   23.00
  -7   3  10   23.40   11.10
  -7   3  10   21.00    8.40
   7   3  10    1.90   16.90
   7  -3 -10    8.50    3.20
   7  -3 -10   12.30   15.00
   7   3  10    7.20   25.80
  -7  -3  10   13.00    2.50
   7   3  10    5.00    7.30
  -7   3 -10    6.30    2.70
  -7  -3  10    5.20    7.30
   7   3  10    8.90   10.90
  -7  -3  10   10.20    5.70
   7   3  10   11.80    4.30
  -7  -5 -10   -0.10    3.10
  -7   5  10    4.60    7.60
   7   5 -10   -5.20   10.20
   7   5 -10    2.30   13.80
  -7   5  10   -3.80   10.50
   7   5 -10   -1.10    2.10
   7  -5  10   -8.50   17.40
   7   5  10  -20.90   13.00
   7  -5 -10    7.60    4.20
   7   5  10  -14.40   29.20
  -7  -5  10    4.00    8.70
   7   5  10   -2.70    8.70
  -7  -5  10   -7.20    6.30
   7   5  10   -2.70   17.80
   7  -5 -10  -12.50   18.70
  -7   5 -10    1.00    2.80
  -7   7  10  -15.80    8.70
   7   7 -10    4.20   16.70
  -7  -7 -10    2.10    4.90
   7  -7  10   -9.90   14.30
   7   7  10    3.90   13.70
  -7  -7  10  -10.80    7.80
   7  -7 -10   -2.80    4.60
  -7   7 -10   -2.20    3.10
   7   0 -11   12.50    2.40
   7   0 -11    7.60   13.60
   7   0 -11   13.80    6.10
  -7   0 -11   11.70    2.40
  -7   0  11   19.90    6.20
   7   0 -11    9.10   13.00
  -7   0  11   18.60    8.50
   7   0  11   15.80   21.90
  -7  -2 -11 1773.12  180.48
  -7   2  11 2185.28  166.28
   7  -2  11 2056.09  169.58
   7   2 -11 1921.61  165.18
  -7   2  11 2197.58  165.28
   7   2 -11 2194.98  166.78
   7   2  11 1944.61  170.88
   7   2  11 2208.38  165.78
   7  -2 -11 2297.57  167.78
   7   2  11 2038.30  164.98
  -7  -2  11 2215.08  165.78
   7  -2 -11 2004.30  168.88
   7   2  11 2330.57  167.68
  -7  -2  11 1886.91  164.98
  -7  -2  11 2264.87  165.08
   7   2  11 2355.86  165.68
  -7   4  11    2.80    8.50
  -7   4  11  -11.40   11.50
   7  -4  11   11.00   17.90
   7   4 -11    4.70   13.70
   7   4 -11    3.40    2.10
   7   4 -11   10.20   10.30
  -7  -4 -11    1.60    2.70
   7   4  11    4.80    8.10
   7  -4 -11    4.70    3.70
   7  -4 -11    4.90   16.20
   7   4  11   -8.10   27.50
  -7  -4  11    9.30    6.20
   7   4  11   -7.20   19.30
  -7  -4  11   -2.90    7.90
   7   4  11   -1.50   12.50
  -7   4 -11    1.30    2.70
   7   6 -11  619.24   56.39
  -7   6  11  725.03   50.69
  -7  -6 -11  587.04   49.00
   7   6 -11  644.94   48.70
   7   6  11  605.54   59.49
  -7   6 -11  591.54   48.80
   7  -6 -11  600.44   49.20
  -7  -6  11  641.74   54.59
   7   6  11  638.74   53.09
  -7  -6  11  512.45   50.29
   7   6  11  724.23   52.29
  -7  -8 -11    4.70    6.80
  -7   8  11   -0.10    8.80
   7  -8  11   -5.40   15.90
   7   8 -11   13.20   20.60
   7   8  11   -3.30   12.80
  -7   8 -11   -2.20    3.50
   7  -8 -11   -6.20    5.70
   7  -1  12  683.63   64.49
   7   1 -12  693.33   53.69
  -7   1  12  680.63   55.79
   7   1 -12  653.43   58.19
  -7  -1 -12  691.53   53.69
  -7   1  12  740.23   54.49
   7  -1 -12  724.93   59.49
   7   1  12  666.33   53.99
   7  -1 -12  630.44   60.89
  -7   1 -12  719.83   53.69
   7  -1 -12  700.53   53.69
  -7  -1  12  750.52   54.39
   7   1  12  643.14   54.49
  -7  -1  12  709.93   55.59
   7   1  12  628.34   64.59
   7   1  12  667.23   56.79
   7  -3  12  387.06   48.40
   7   3 -12  498.95   42.90
   7   3 -12  482.85   37.70
  -7  -3 -12  488.65   37.80
  -7   3  12  470.25   42.00
  -7   3  12  474.25   39.40
  -7  -3  12  488.25   38.70
  -7  -3  12  472.65   40.10
   7   3  12  518.45   47.40
   7  -3 -12  505.95   47.20
   7   3  12  520.35   41.00
   7   3  12  465.95   40.20
  -7   3 -12  494.75   37.80
   7  -3 -12  496.25   37.90
  -7   5  12  189.58   24.30
   7   5 -12  182.48   14.10
   7   5 -12  128.29   21.10
   7   5 -12  185.88   29.30
  -7  -5 -12  165.08   14.60
  -7   5  12  192.78   19.50
  -7   5 -12  166.58   14.30
  -7  -5  12  153.48   17.20
   7   5  12  216.98   21.40
   7   5  12  123.49   25.60
   7  -5 -12  236.58   33.80
   7  -5 -12  174.08   15.00
   7   5  12  200.58   24.10
  -7  -5  12  198.28   20.60
   7   7 -12   99.49   19.90
  -7  -7 -12   85.19   10.10
  -7   7  12   89.19   12.30
   7  -7 -12   84.79   10.90
   7   7  12   64.89   15.90
  -7   7 -12  107.79    8.90
  -7   0  13  847.82   62.59
   7   0  13  715.13   71.99
  -7   0 -13  792.22   61.79
   7   0 -13  783.12   61.79
  -7   0  13  809.62   63.89
   7   0 -13  795.32   66.99
  -7   2  13   82.39    9.10
   7  -2  13   58.39   22.20
   7   2 -13   73.49    6.70
  -7   2  13   81.19   11.80
  -7  -2 -13   79.69    6.90
   7   2 -13   74.89   15.60
   7  -2 -13   65.49   17.30
   7   2  13   61.99   15.90
   7  -2 -13   67.49    7.20
   7   2  13   76.39    9.60
  -7  -2  13   67.29    8.50
   7   2  13   70.09   11.10
  -7   2 -13   74.19    6.80
  -7  -2  13   72.79   10.30
   7   2  13   34.00   24.70
  -7   4  13  615.14   49.20
  -7   4  13  574.04   46.30
   7   4 -13  546.75   49.30
   7   4 -13  575.44   52.09
  -7  -4 -13  521.75   44.50
   7   4 -13  558.34   44.30
   7   4  13  591.14   47.20
  -7   4 -13  549.85   44.40
   7   4  13  630.14   47.80
  -7  -4  13  564.04   47.00
   7  -4 -13  613.74   53.59
   7  -4 -13  562.04   44.60
  -7  -4  13  510.05   45.50
   7   4  13  645.64   54.39
   7   6 -13   -8.20   15.80
  -7   6  13    2.70    9.50
  -7  -6 -13    0.10    4.50
   7  -6  13    8.00   16.40
  -7   6 -13    1.10    2.80
   7   6  13   13.30   13.20
   7  -6 -13    3.70    4.90
  -7   1  14  172.38   19.00
   7   1 -14  157.48   13.10
   7  -1  14  138.09   26.40
  -7  -1 -14  160.68   13.20
  -7   1  14  148.69   15.50
   7   1 -14  182.38   25.40
  -7  -1  14  182.88   15.70
   7  -1 -14  162.08   13.30
   7   1  14  140.19   28.50
   7  -1 -14  184.18   21.70
  -7  -1  14  179.48   18.10
  -7   1 -14  153.78   13.10
   7   3 -14   81.89   18.00
  -7   3  14  107.39   13.50
  -7   3  14  137.49   18.80
  -7  -3 -14  105.59    9.20
   7  -3  14   83.09   20.90
   7   3 -14  109.39    9.00
  -7  -3  14  113.39   12.60
   7  -3 -14  108.39   20.50
   7   3  14   48.80   26.50
   7   3  14  115.79   16.10
   7  -3 -14  108.69    9.60
   7   3  14  101.79   14.10
   7   3  14   92.79   19.60
  -7  -3  14  112.19   16.00
  -7   3 -14  101.29    9.00
  -7   5  14   64.09   11.20
   7   5 -14   87.19   18.80
   7   5 -14   77.19    6.80
   7  -5  14   56.39   19.30
  -7  -5 -14   66.89    7.60
   7  -5 -14   68.29    8.30
   7   5  14   56.59   14.70
   7   5  14   79.09   12.90
  -7   5 -14   66.59    6.80
   7   5  14   39.20   21.00
  -7   0  15 1234.68   93.99
   7   0 -15 1098.99   96.69
  -7   0 -15 1156.08   92.09
   7   0 -15 1174.08   92.09
  -7   0  15 1242.58   92.89
  -7   2  15   27.30    7.20
   7   2 -15   34.30    3.40
  -7  -2 -15   25.60    3.50
   7  -2  15   16.90   20.50
  -7   2  15   12.20    9.90
   7  -2 -15   23.00    3.70
   7   2  15   15.90   24.80
   7   2  15   25.70    8.90
  -7   2 -15   26.90    3.20
   7  -2 -15   37.70   17.10
  -7  -2  15   22.60    6.80
   7   4 -15  769.12   57.29
  -7  -4 -15  679.33   57.29
   7   4 -15  761.82   64.59
   7   4  15  819.12   60.39
   7  -4 -15  714.23   57.49
  -7   4 -15  693.73   57.19
  -7   6  15    4.50   10.00
   7  -6  15    6.60   13.60
  -7  -6 -15    3.40    4.10
   7   6 -15    2.90   16.40
   7  -6 -15    0.30    4.70
   7   6  15    1.20   13.80
  -7   6 -15    1.00    2.80
  -7  -1 -16  272.87   22.10
   7  -1  16  203.28   38.70
  -7   1  16  304.27   26.70
   7   1 -16  295.27   22.20
  -7   1  16  294.17   24.10
   7  -1 -16  289.97   22.20
  -7   1 -16  285.27   22.10
   7   1  16  205.98   41.50
  -7  -1  16  268.87   24.30
   7  -1 -16  288.97   34.60
  -7   3  16  126.49   15.30
   7   3 -16  135.99   11.40
  -7  -3 -16  136.99   11.60
  -7   3  16  176.78   20.70
   7  -3 -16  130.19   22.40
  -7   3 -16  134.99   11.30
   7  -3 -16  129.29   11.90
  -7  -5 -16   89.79    8.80
   7   5 -16   92.09    9.00
  -7   5  16   91.99   11.80
   7   5 -16  115.89   20.50
   7   5  16   55.29   15.00
   7  -5 -16   83.19    9.20
  -7   5 -16   82.79    8.00
   7   0 -17  457.25   35.00
  -7   0 -17  433.36   34.90
  -7   0  17  445.56   36.40
   7   2 -17   12.30    3.10
  -7   2  17    9.00    7.20
  -7  -2 -17   19.50    3.20
   7  -2  17   12.00   19.70
  -7   2 -17   13.60    2.90
   7  -2 -17   15.70    3.30
   7   2  17    0.40   24.50
   7   4 -17  158.48   12.80
  -7   4  17  167.58   17.10
  -7  -4 -17  135.69   13.00
   7   4 -17  146.19   30.40
   7  -4 -17  165.08   13.30
  -7   4 -17  148.39   12.60
   7   1 -18  147.29   12.00
  -7   1  18  130.89   16.70
   7   1 -18  148.59   28.80
  -7  -1 -18  141.69   11.90
  -7   1 -18  142.69   11.80
   7  -1 -18  138.19   12.10
  -7  -3 -18  119.79   11.30
   7   3 -18  161.08   28.90
   7   3 -18  134.49   11.20
  -7   3 -18  125.49   10.90
   7  -3 -18  136.29   11.60
  -7   0 -19    8.90    2.80
   7   0 -19    7.10    3.20
   7   0  19    0.70   20.40
   8   0   0 1370.76  102.99
  -8   0   0 1369.26  102.79
   8   0   0 1421.16  102.99
   8   0   0 1244.58  103.59
  -8   0   0 1198.08  103.39
  -8  -2   0  204.58   24.80
   8   2   0  183.88   16.20
  -8  -2   0  210.88   18.30
   8  -2   0  190.28   27.30
  -8   2   0  166.58   20.30
   8  -2   0  168.88   17.50
  -8   2   0  183.18   16.90
   8   2   0  207.38   32.50
   8   2   0  179.78   17.90
   8  -2   0  167.08   21.80
  -8   2   0  244.68   28.90
  -8  -2   0  194.48   16.40
   8  -2   0  217.98   17.20
  -8   2   0  200.88   15.90
   8  -4   0  211.98   16.80
  -8  -4   0  182.68   16.60
  -8   4   0  177.38   26.50
   8  -4   0  163.48   24.50
  -8   4   0  193.08   22.60
   8   4   0  164.48   15.00
  -8  -4   0  173.28   19.60
  -8   4   0  167.38   14.50
  -8   4   0  178.38   17.30
   8  -4   0  169.18   21.20
   8   4   0  173.78   17.30
  -8  -4   0  196.18   18.30
   8   4   0  168.78   32.60
  -8   6   0    5.20   12.50
   8   6   0    3.80    8.40
   8   6   0    2.60   22.50
  -8   6   0   11.30    8.30
   8  -6   0   11.70    6.70
  -8  -6   0    9.70    7.30
  -8   6   0    6.10   16.40
  -8  -8   0    4.30    7.80
   8   8   0   -5.90   10.00
  -8   8   0   -9.90   16.40
  -8   8   0    5.20   10.10
   8   8   0    4.40   17.30
  -8   8   0    3.80    8.40
   8   8   0  -16.70   26.50
  -8   8   0    4.90   15.30
  -8  -1  -1  359.46   26.00
  -8   1   1  320.57   26.10
   8  -1   1  262.67   28.90
  -8  -1  -1  348.17   25.20
   8  -1   1  323.97   26.30
  -8   1   1  300.27   28.40
  -8  -1  -1  268.47   27.10
   8   1  -1  320.27   25.90
   8   1  -1  363.66   37.80
   8   1  -1  324.17   27.50
  -8   1   1  322.57   25.50
  -8  -1  -1  358.76   40.40
   8  -1  -1  288.77   29.50
  -8   1  -1  349.77   26.10
  -8   1  -1  393.96   40.10
  -8   1  -1  290.97   27.70
  -8  -1   1  267.17   27.20
  -8  -1   1  340.67   26.00
   8  -1  -1  323.27   26.50
   8   1   1  265.77   26.90
  -8  -1   1  365.06   32.40
  -8   1  -1  345.77   25.90
   8   1   1  316.67   25.80
   8  -1  -1  329.37   25.80
   8   1   1  432.26   48.10
   8  -3   1   34.30    6.20
  -8   3   1   36.90    3.80
  -8   3   1   15.90   13.60
   8   3  -1   26.00    6.20
   8   3  -1   31.10    4.40
  -8   3   1   31.20    6.40
   8  -3   1   32.10    7.20
  -8  -3  -1   29.70    7.30
  -8   3   1   31.40    9.60
  -8  -3  -1   37.30    5.60
   8  -3   1   34.30   11.50
  -8  -3  -1   34.90   11.50
   8  -3   1   40.00   15.00
   8   3  -1   31.60   17.00
  -8  -3   1   47.30    6.20
   8   3   1   33.60    4.70
   8   3   1   29.70    6.40
   8   3   1   28.30   19.30
   8  -3  -1   34.90   11.20
   8  -3  -1   39.60   11.70
  -8   3  -1   34.70    5.50
  -8   3  -1   30.90    4.50
  -8  -3   1   42.90    7.80
  -8   3  -1   21.60   14.00
  -8   3  -1   34.90    8.30
  -8  -3   1   34.60    8.50
   8  -3  -1   53.29    5.30
   8  -3  -1   37.50    7.10
   8   5  -1   20.30   18.90
   8  -5   1   11.30   11.30
  -8   5   1   11.00    7.50
  -8   5   1    2.30    3.70
  -8   5   1   -6.60   11.60
   8   5  -1    1.90    8.10
   8  -5   1    5.70    6.10
   8   5  -1    4.30    7.00
  -8   5   1   14.50   15.30
  -8  -5  -1    6.90    6.30
  -8  -5   1    9.20    6.50
  -8   5  -1   12.10    6.80
  -8   5  -1    6.00    3.40
   8   5   1   13.00    7.30
  -8  -5   1    9.80    7.10
   8  -5  -1   -2.30   15.50
   8   5   1   -1.20   19.40
  -8   5  -1   -2.10   10.30
  -8   5  -1    5.80   14.40
   8  -5  -1   13.20    6.20
  -8   5  -1   -3.40    3.50
   8   7  -1    9.20   15.30
  -8  -7  -1    8.40    7.20
  -8   7   1    2.10   13.50
   8   7  -1   10.40    8.60
   8   7  -1    1.30   25.70
  -8   7   1   -1.60   13.20
  -8   7   1    8.00    9.30
  -8   7   1   15.00    8.20
  -8  -7   1   -1.30    8.70
   8   7   1    7.40    9.30
  -8   7  -1   27.40   13.50
  -8   7  -1    9.80    9.30
   8   7   1    6.40   15.70
   8  -7  -1   -2.80    6.80
  -8   7  -1    3.30    7.10
   8   7   1   -3.50   24.80
  -8   9   1  -12.70   24.30
   8   9  -1   25.30   30.50
  -8   9   1   -5.50   11.00
  -8   9  -1   -7.80   11.40
   8   9   1    3.00   34.50
  -8   9  -1    4.00    5.40
  -8  -9   1    4.30    8.50
  -8   9  -1    0.90    9.20
  -8   9  -1   -1.70   22.40
   8   0   2  105.49   26.60
  -8   0   2   96.49   18.80
  -8   0  -2  100.89    9.30
  -8   0  -2  129.49   22.80
   8   0  -2  130.59   10.60
  -8   0   2   99.79    8.20
  -8   0  -2   94.49    8.60
   8   0   2   95.19    9.30
   8   0   2   98.99   12.10
   8   0  -2   91.69   19.00
  -8   0  -2   99.29   11.10
   8   0  -2   93.79   14.60
  -8   0   2  114.79   15.10
  -8   0   2  107.49   10.90
   8   0  -2   87.79    8.60
   8  -2   2   99.39   12.90
   8   2  -2  108.39   10.60
  -8   2   2  126.89   26.20
  -8   2   2  112.29    9.30
  -8  -2  -2  119.59    8.80
  -8  -2  -2  104.39   11.00
   8   2  -2  111.89   13.10
   8   2  -2  103.19   17.40
   8  -2   2  105.79   11.70
  -8   2   2  117.49   12.90
   8  -2   2  116.49   20.00
  -8  -2  -2  118.99   13.20
  -8   2   2  100.39   12.10
  -8  -2  -2  120.19   19.80
   8   2   2   97.49   12.50
  -8   2  -2  126.79   14.00
   8  -2  -2  106.49   19.10
   8   2   2  102.59   29.40
   8  -2  -2  129.19   12.40
  -8  -2   2  102.29   13.60
  -8   2  -2  118.29   20.30
   8  -2  -2  108.09   10.30
  -8  -2   2  102.59   11.00
   8   2   2  106.89   10.40
   8  -2  -2  154.28   18.10
  -8   2  -2  103.99   10.30
   8   2   2  106.29    8.90
  -8   2  -2  128.29   11.30
  -8  -2   2  119.89   16.00
   8   4  -2   -1.90    3.40
  -8  -4  -2    3.80   10.00
  -8  -4  -2   -0.10    2.50
   8   4  -2    0.30    5.60
   8   4  -2    7.90   13.70
  -8  -4  -2    4.60    6.30
  -8   4   2    3.20    7.00
   8  -4   2   -2.40   13.00
  -8  -4  -2   -5.50    5.40
  -8   4   2    2.30    2.10
   8  -4   2   -2.40   13.30
  -8   4   2   -3.30   12.70
  -8   4   2    2.80   10.80
   8   4   2  -27.50   22.00
  -8   4  -2   -3.30    8.60
  -8   4  -2    0.60    3.30
   8  -4  -2    4.30    4.40
   8   4   2   -5.00    5.50
   8  -4  -2   -2.90   11.90
   8   4   2   -0.60    3.40
  -8  -4   2    3.50    5.20
  -8   4  -2    2.40    3.40
  -8  -4   2    8.00    6.50
  -8   4  -2   -4.00    5.20
   8   4   2   -0.40    1.10
  -8   4  -2   -9.40   13.30
  -8  -6  -2   13.80    7.70
  -8   6   2    3.60   10.40
  -8   6   2   -0.90   15.70
   8  -6   2    9.80   11.90
   8   6  -2   -1.40    7.10
  -8   6   2   -9.20    8.50
   8   6  -2    2.90   18.80
  -8   6   2   -0.10   12.10
  -8  -6  -2   -1.50    4.70
   8   6   2    2.80   26.60
  -8   6  -2    3.70    6.80
   8   6   2    0.60    1.50
  -8  -6   2   -1.60    8.20
  -8   6  -2   -3.00    3.60
   8   6   2  -11.40   15.50
   8  -6  -2   -0.80   18.00
  -8  -6   2   -6.50    7.00
   8   6   2    4.30    7.80
  -8   6  -2  -13.70   10.50
  -8   6  -2   -8.10   15.10
   8  -6  -2    4.70    7.10
  -8   6  -2    4.30    7.50
  -8   8   2   -0.90   14.20
  -8   8   2   -2.80   10.40
  -8  -8  -2    1.50    8.00
   8   8  -2  -15.60   17.50
  -8   8   2    1.30    8.40
   8   8  -2   -6.40   25.30
   8   8  -2    6.30    8.50
  -8   8  -2    3.00   13.50
  -8  -8   2    6.00    8.30
  -8   8  -2   -1.80    9.60
  -8   8  -2   22.70   14.40
   8   8   2    3.80   31.10
   8   8   2   -6.30   10.40
   8  -8  -2    3.70    7.30
   8   8   2  -10.10   16.20
  -8   8  -2   -4.10    5.30
  -8   8  -2   -7.00    7.40
  -8   1   3   41.40    8.80
   8   1  -3   47.00    5.30
  -8   1   3   44.80    5.80
  -8  -1  -3   40.20    6.70
  -8  -1  -3   36.60    3.80
   8   1  -3   42.00   13.00
  -8  -1  -3   49.80    5.10
  -8   1   3   30.60    8.20
  -8   1   3   38.90    4.00
   8   1  -3   34.60    3.90
   8   1  -3   42.80    7.80
   8  -1   3   49.80   20.30
  -8  -1  -3   37.30   22.40
   8   1   3   50.39    4.70
   8   1   3   39.50    4.20
  -8  -1   3   29.30    7.30
   8  -1  -3   45.50    6.10
  -8   1  -3   44.50    4.10
  -8  -1   3   38.80    3.50
   8   1   3   42.80   26.20
   8  -1  -3   42.30   10.60
   8  -1  -3   38.90    4.00
  -8   1  -3   58.49   20.90
   8  -1  -3   60.79   18.70
  -8  -1   3   33.50    8.30
   8   1   3   32.70    5.80
  -8  -1   3   50.39    5.90
   8   3  -3    6.00    7.10
  -8  -3  -3    3.10    5.00
   8   3  -3    7.90    5.60
  -8   3   3    1.80    8.30
  -8   3   3   -0.50    1.80
   8   3  -3   -3.90   13.40
  -8  -3  -3   -7.10   15.10
   8   3  -3    3.10    3.50
  -8  -3  -3   -2.40    5.80
   8  -3   3  -13.30   10.40
   8  -3   3   -5.70   16.20
  -8   3   3   -5.30    5.40
  -8  -3  -3    0.20    1.60
   8   3   3    0.50    5.10
   8   3   3    4.50    3.20
  -8  -3   3    8.00    6.30
   8  -3  -3    0.80    3.40
  -8   3  -3  -17.10    6.30
  -8   3  -3   -0.90    3.80
  -8   3  -3   -2.80   15.50
   8   3   3   -9.20   27.20
  -8   3  -3    5.20    2.90
  -8  -3   3   -6.20    4.50
  -8   3  -3   -5.70    3.40
   8  -3  -3   -7.60    5.80
   8   3   3   -0.40    1.10
  -8   3  -3    5.10    3.40
   8  -3  -3   12.90   10.60
  -8  -5  -3   19.70    3.90
   8   5  -3   26.20    7.70
  -8  -5  -3   23.50   10.30
   8   5  -3   15.80   16.20
   8  -5   3   22.00   14.80
  -8   5   3   12.50   12.50
  -8  -5  -3   33.40    7.20
  -8   5   3   23.90    8.70
   8   5   3   24.00    2.30
  -8   5  -3   10.70    6.40
  -8  -5   3   29.50    6.90
   8  -5  -3   19.80    5.30
   8   5   3   15.20   14.70
  -8   5  -3   22.80    4.10
   8   5   3    6.80   25.00
  -8   5  -3   18.50    6.80
   8  -5  -3    4.60   15.90
  -8   5  -3   41.20   15.30
   8   5   3   33.30    7.20
  -8  -5   3   34.70    8.90
  -8   5  -3    9.90    9.70
  -8   5  -3   22.20    4.60
   8   7  -3   -0.80    8.50
   8   7  -3   -1.10   20.10
  -8   7   3    2.90   12.90
  -8  -7  -3    4.70    5.50
  -8  -7  -3    1.10    7.50
  -8   7   3    2.30    9.40
  -8  -7   3    2.10    7.80
   8   7   3    8.70    9.70
  -8   7  -3   15.20    8.30
   8   7   3  -23.50   16.20
  -8   7  -3   -1.50    5.00
  -8   7  -3   -1.60    7.50
   8   7   3   10.50   30.80
   8  -7  -3   13.60    7.00
  -8   7  -3   10.40   12.00
  -8   9   3   -1.80   10.80
   8   9  -3  -12.90   28.80
   8   9   3   21.00   39.10
  -8   9  -3    8.00   10.50
   8  -9  -3    0.00    8.10
  -8   9  -3   10.70   15.50
  -8  -9   3   -2.40    8.00
  -8   9  -3   -1.00    5.20
   8   0   4   51.79    5.70
  -8   0  -4   50.39    5.10
   8   0  -4   75.79    6.60
  -8   0   4   62.29    7.00
  -8   0  -4   62.69    8.40
   8   0  -4   55.99    5.20
  -8   0   4   53.89    4.80
   8   0  -4   70.19   12.80
  -8   0  -4   63.39   22.50
   8   0   4   57.19    8.00
   8   0   4   43.90    6.20
   8   0   4   34.80   23.00
  -8   2   4   36.90    6.90
   8   2  -4   41.80    5.10
  -8  -2  -4   34.30    3.70
   8   2  -4   41.70    7.70
   8   2  -4   30.20   12.30
  -8   2   4   32.40    9.90
   8  -2   4   51.19   18.00
   8   2  -4   41.30    8.10
  -8   2   4   46.80    4.00
  -8  -2  -4   38.20    6.80
  -8  -2  -4   32.50   19.20
   8   2  -4   37.50    3.50
  -8  -2  -4   46.00    5.70
   8  -2  -4   48.50   11.60
   8  -2  -4   42.90    4.30
  -8  -2   4   40.20    7.60
   8   2   4   37.70   26.20
  -8  -2   4   44.20    5.60
  -8   2  -4   45.00   18.80
   8   2   4   51.79    4.70
  -8   2  -4   35.10    5.40
  -8  -2   4   39.70    3.50
   8   2   4   30.60    3.70
   8  -2  -4   46.10    6.80
   8   2   4   31.40    6.30
  -8   2  -4   44.40    4.40
  -8   4   4   35.70   10.60
  -8  -4  -4   41.40    6.90
   8  -4   4   24.60   16.70
   8   4  -4   31.90   15.20
  -8   4   4   36.00    7.60
   8   4  -4   52.59    8.00
   8   4  -4   34.60    5.00
  -8   4   4   35.80    4.00
  -8  -4  -4   28.40   13.60
   8   4  -4   18.90    7.90
  -8  -4  -4   41.20    3.60
  -8   4  -4   26.10    8.70
  -8   4  -4   42.50    6.50
  -8  -4   4   40.80    7.40
  -8   4  -4   32.40   16.40
   8  -4  -4   29.40    7.00
  -8   4  -4   30.60    4.20
  -8  -4   4   41.70    6.30
   8   4   4   30.30   27.30
  -8   4  -4   27.10    4.80
  -8   4  -4   27.20    6.20
   8   4   4   33.80    7.40
   8   4   4   23.20   15.50
   8  -4  -4   39.90    5.00
   8   4   4   28.60    3.40
   8   4   4   37.80    5.10
  -8   4  -4   38.00    4.70
   8  -4  -4   33.90   13.90
  -8   6   4   93.79   16.80
  -8  -6  -4  130.39   13.90
  -8   6   4  113.39   13.10
   8   6  -4  120.19   22.90
  -8  -6  -4   98.69   10.20
   8  -6   4   88.29   17.20
   8   6  -4  117.39   14.80
   8  -6  -4  105.79   12.10
  -8   6  -4  125.19   11.00
  -8   6  -4  137.09   14.80
  -8   6  -4  123.89   14.80
   8   6   4  127.19   16.80
   8   6   4   47.70   19.60
   8   6   4  103.19    8.80
   8   6   4   56.89   33.30
  -8   6  -4  115.69   10.80
  -8  -6   4  109.09   11.60
  -8  -6   4   86.79   12.50
  -8   6  -4  113.59   15.20
   8  -6  -4  133.29   21.30
   8   8  -4   11.10   22.80
   8   8  -4   -4.50   18.10
  -8   8   4    0.90   10.00
  -8   8   4   -1.50   13.80
  -8   8   4   -3.70   10.80
   8   8  -4   -3.80    9.40
   8   8   4   -2.90   16.70
  -8  -8   4    2.40    8.50
  -8   8  -4  -29.10    9.00
  -8   8  -4   -7.10    4.10
   8   8   4  -41.20   36.50
   8  -8  -4   -0.40    7.50
   8   1  -5  101.49    8.50
  -8  -1  -5   98.49   10.00
   8   1  -5  123.89   15.00
   8  -1   5  131.49   22.00
   8   1  -5   96.49   18.60
  -8   1   5   97.49   11.10
   8   1  -5  105.39   10.60
  -8   1   5   99.09    8.40
   8  -1   5  109.09    9.30
  -8  -1  -5  121.99   22.80
  -8   1   5  115.29   12.30
  -8  -1  -5   97.59    8.50
   8   1  -5  109.69   12.50
   8  -1  -5  104.09   20.40
  -8  -1   5   85.19   13.10
   8  -1  -5  120.79   14.60
   8  -1  -5   92.99   11.90
   8  -1  -5  101.29    8.80
  -8   1  -5  113.29    8.90
  -8  -1   5  107.39    8.40
   8   1   5   84.59   11.50
   8   1   5  103.49    8.60
  -8   1  -5  147.89   23.30
   8   1   5   96.99   27.00
   8  -1  -5  105.29   13.40
  -8  -1   5  113.49   11.00
   8   1   5   99.79    9.40
  -8  -3  -5   15.00    2.10
  -8  -3  -5   22.00    5.60
   8   3  -5   12.20    7.40
   8   3  -5   10.90   10.60
  -8   3   5   15.70    2.00
   8   3  -5   15.30    1.60
  -8   3   5   11.50    9.10
   8   3  -5   12.10    3.90
  -8   3   5   18.20    6.20
   8   3  -5   16.40    7.20
   8  -3   5    6.60   18.20
  -8  -3  -5    7.00   17.10
  -8   3  -5   11.70    4.40
   8   3   5   15.40    1.80
  -8  -3   5   10.40    5.20
   8  -3  -5   12.90    3.50
   8   3   5    4.50   26.70
   8   3   5    8.50    3.80
   8   3   5   -1.50   14.90
  -8   3  -5   15.10   16.00
  -8   3  -5   17.70    3.30
   8  -3  -5   10.00    5.30
   8  -3  -5   13.90   11.80
  -8  -3   5   25.40    7.40
   8   3   5   17.30    6.00
  -8  -3   5   12.50    2.30
  -8   5   5   14.00   11.60
  -8  -5  -5   -3.00    3.10
  -8  -5  -5    2.00    6.90
   8   5  -5    5.00    7.50
   8   5  -5    5.00   16.20
   8  -5   5   -6.50   15.00
  -8   5   5   -8.30    8.80
  -8  -5  -5   -9.50   12.50
   8   5   5    0.00    1.50
  -8  -5   5    2.70    6.40
  -8   5  -5   -7.70    6.60
  -8   5  -5    2.20    3.50
   8  -5  -5   10.80   16.80
  -8  -5   5    6.00    7.50
  -8   5  -5    2.80   10.20
  -8   5  -5  -10.20    3.70
   8   5   5  -12.70   28.60
   8   5   5   -1.60    7.20
   8  -5  -5   -2.20    4.80
   8   5   5    8.00   17.40
   8   7  -5   -6.20   18.60
  -8   7   5    6.00   10.20
  -8   7   5   -8.80   13.90
   8  -7   5    1.60   13.90
   8   7  -5    5.10    8.30
  -8  -7  -5   -4.70    4.60
  -8   7  -5    3.00    7.80
   8   7   5    5.70   33.20
  -8   7  -5  -16.70   13.30
   8   7   5    0.80    9.20
   8   7   5    4.20   15.60
  -8   7  -5    5.00    4.70
  -8   7  -5  -14.30    8.90
   8  -7  -5    4.20    5.70
  -8  -7   5    8.80    7.50
   8   9  -5   -0.90   24.50
  -8   9   5    9.80   10.30
  -8   9  -5    5.80   12.70
   8   9   5   -6.40   42.80
  -8   9  -5   11.10    5.10
  -8  -9   5   14.00    8.40
   8  -9  -5    1.90    8.50
   8   9   5   12.50   12.70
   8   0  -6   15.80    8.20
   8   0   6   24.50    3.10
   8   0  -6   36.20    6.10
   8   0  -6   34.30    2.90
  -8   0  -6   24.40    2.70
  -8   0   6   49.50    8.20
   8   0  -6   27.80    9.90
  -8   0   6   28.60    5.50
  -8   0   6   20.80    2.90
  -8   0  -6   18.20   19.60
   8   0  -6   47.30   10.60
   8   0   6    5.50   22.10
   8   2  -6   53.49    6.00
  -8  -2  -6   51.09    4.60
   8   2  -6   49.10    4.40
   8  -2   6   58.39   19.60
  -8   2   6   49.50   10.00
  -8  -2  -6   33.50   22.50
   8   2  -6   52.59    9.40
  -8  -2  -6   51.09    6.30
   8   2  -6   48.00   11.40
  -8   2   6   54.99    7.60
  -8   2   6   49.90    4.60
   8   2  -6   48.10    9.60
   8  -2   6   47.70    5.10
   8  -2  -6   45.10    7.10
   8   2   6   45.70    4.60
   8   2   6   38.60   15.60
   8   2   6   54.09    6.50
  -8   2  -6   54.69    5.60
  -8  -2   6   63.39    6.50
  -8   2  -6   45.90   17.90
  -8  -2   6   54.39    4.60
   8   2   6   34.30   27.00
   8  -2  -6   56.39    5.60
   8   2   6   42.90    7.00
  -8  -2   6   54.19    8.10
   8  -2  -6   44.30   13.10
   8  -4   6   13.20   17.60
   8   4  -6    1.90    7.40
  -8   4   6    7.90   10.10
   8   4  -6    4.00   11.70
  -8  -4  -6   -1.10    2.40
  -8  -4  -6   -3.10   16.50
   8   4  -6    2.20    1.40
  -8  -4  -6    6.10    6.30
  -8   4   6   -9.60    7.20
   8   4  -6   -2.60    4.20
  -8   4  -6    2.70   16.70
   8   4   6   -0.20    1.50
   8  -4  -6    2.10    3.90
   8  -4  -6    0.10   13.70
   8   4   6   -3.10   16.90
   8   4   6   -2.20    4.40
   8   4   6   11.40   30.50
  -8  -4   6   -1.90    5.60
  -8  -4   6    6.20    7.10
  -8   4  -6   -3.70    3.00
   8   4   6    0.00    7.50
  -8  -6  -6   26.80    5.00
   8  -6   6   22.00   16.60
  -8   6   6   42.60   10.50
  -8   6   6   27.70   12.70
   8   6  -6   40.30   18.50
   8   6  -6   37.70    8.90
   8   6   6   35.00    9.30
  -8   6  -6   37.80   13.00
  -8  -6   6   39.40    8.30
  -8   6  -6   38.90    5.00
  -8  -6   6   23.90    9.40
  -8   6  -6   38.30    7.70
   8  -6  -6   50.89    6.60
   8   6   6   21.20   15.60
   8  -6  -6   47.20   18.90
   8   6   6   33.30   32.30
  -8   6  -6   17.80    8.60
   8   8  -6   35.80   18.10
   8   8  -6    4.40    9.00
  -8   8   6   10.20    9.90
   8   8  -6   12.40   21.30
  -8   8  -6    9.00    4.80
   8  -8  -6    5.20    6.70
   8   8   6   13.20   37.40
  -8  -8   6  -11.60    8.20
   8   8   6   -6.10   12.60
  -8   1   7  257.97   20.00
   8   1  -7  212.58   23.90
   8   1  -7  256.37   23.70
  -8   1   7  207.28   22.30
  -8  -1  -7  219.98   37.40
   8   1  -7  236.48   18.50
  -8   1   7  230.68   18.50
   8  -1   7  262.27   35.20
  -8  -1  -7  232.48   18.50
   8   1  -7  238.68   24.30
   8  -1   7  228.58   18.80
   8   1  -7  220.58   19.60
  -8  -1   7  249.48   18.50
   8   1   7  224.98   27.80
   8  -1  -7  233.48   18.70
   8  -1  -7  239.78   24.00
  -8  -1   7  244.78   21.70
   8   1   7  236.88   19.00
   8   1   7  205.78   20.10
   8   1   7  220.78   18.60
  -8   1  -7  249.78   34.80
  -8  -1   7  252.57   19.80
  -8   1  -7  246.58   18.60
   8  -1  -7  273.77   24.60
   8   1   7  237.98   38.10
   8  -1  -7  206.48   20.50
   8  -1  -7  235.98   25.90
  -8  -3  -7   47.00    5.00
  -8  -3  -7   42.50   22.00
  -8   3   7   55.09    8.00
  -8   3   7   42.70   10.40
  -8   3   7   48.80    4.70
   8   3  -7   60.99    6.20
   8   3  -7   49.60    4.50
   8   3  -7   42.90   10.80
   8  -3   7   72.29   20.00
   8   3  -7   48.20   11.80
   8   3  -7   54.59    9.70
  -8   3  -7   41.40   16.10
  -8  -3   7   50.39    8.90
   8   3   7   56.89    7.20
  -8   3  -7   55.19    6.00
   8   3   7   20.40   16.60
  -8  -3   7   48.90    5.20
   8  -3  -7   36.10    7.30
   8  -3  -7   55.39    6.20
   8  -3  -7   43.30   14.20
   8   3   7   51.59    8.10
  -8  -3   7   61.89    6.80
   8   3   7   65.99   29.90
   8   3   7   51.09    4.80
  -8  -5  -7   -4.60    3.30
   8   5  -7    0.10    1.60
  -8   5   7    5.50    8.20
   8   5  -7    7.90    8.30
   8  -5   7    3.30   17.30
  -8   5   7    4.40   10.20
   8   5  -7   -1.00    4.30
   8   5  -7    5.80   13.40
  -8  -5  -7  -11.60   13.50
  -8   5  -7   -0.70    3.50
   8   5   7    1.50    1.70
   8  -5  -7    6.00    3.80
   8   5   7    0.80    8.20
  -8  -5   7    4.30    6.20
   8   5   7   18.60   32.10
  -8  -5   7    0.60    7.60
   8   5   7   -6.50   15.50
   8  -5  -7    6.60   16.60
  -8   7   7   -8.20   11.80
   8   7  -7   -2.60    9.60
  -8   7   7    3.00   10.10
   8  -7   7   -5.40   14.60
   8   7  -7   -0.90   18.50
  -8  -7  -7   -4.50    4.70
   8   7   7   -0.90    9.30
   8  -7  -7   -0.10   19.80
  -8   7  -7   -3.30   15.00
  -8  -7   7   -4.30    7.50
   8   7   7   16.10   35.30
   8   7   7    0.50   13.30
  -8   7  -7    4.50    4.20
  -8  -7   7   -4.60    9.00
   8   7   7    0.80   16.20
   8  -7  -7    0.40    5.60
  -8   9   7   26.00   10.60
   8   9  -7   12.00   22.00
  -8  -9   7   13.30    8.70
  -8   9  -7   13.70    4.60
   8  -9  -7    1.00    7.60
   8   9   7    9.80   13.70
  -8   0   8   11.10    8.30
   8   0  -8   17.20    8.60
   8   0  -8   17.10   11.10
   8   0  -8   20.40    2.50
   8   0  -8    5.70   10.20
  -8   0   8   20.10    2.00
   8   0  -8    7.80    5.20
  -8   0  -8   20.20    2.40
   8   0   8   19.70   21.60
  -8   0  -8    6.50   20.20
   8   0   8   14.30    2.60
  -8   0   8   18.40    5.90
  -8  -2  -8    4.70   22.70
   8  -2   8    5.20    3.10
  -8   2   8    7.90    9.00
   8   2  -8    9.80    4.80
  -8  -2  -8    8.90    2.10
   8   2  -8    7.80    1.70
  -8   2   8   20.30    6.50
  -8   2   8    5.70    1.40
   8  -2   8    6.70   19.10
   8   2  -8    8.50   10.10
   8   2  -8   16.60    9.90
   8   2  -8    8.20    9.00
  -8  -2   8   13.50    6.80
  -8  -2   8   10.80    1.90
  -8  -2   8    9.40    5.10
   8   2   8   13.10    6.20
   8   2   8  -12.80   15.70
   8   2   8    8.50    1.90
   8  -2  -8   14.90   13.60
   8   2   8    9.20   24.60
  -8   2  -8    4.70    2.30
  -8   2  -8    6.30   16.40
   8   2   8    5.00    3.70
   8  -2  -8   13.10    2.70
   8  -2  -8    4.20    5.80
  -8  -4  -8   49.90   19.70
   8   4  -8   61.89    5.10
   8   4  -8   53.89   13.70
   8   4  -8   65.39   10.90
   8  -4   8   53.89   19.60
  -8  -4  -8   62.49    6.00
  -8   4   8   40.00   11.50
  -8   4   8   62.49    8.70
   8   4  -8   46.80    6.90
  -8  -4   8   65.89    7.50
  -8  -4   8   51.99    9.20
   8  -4  -8   79.19   18.20
  -8  -4   8   48.00    5.40
   8   4   8   35.00   31.80
   8   4   8   55.49    5.30
  -8   4  -8   61.79    6.50
   8  -4  -8   70.79    7.30
   8   4   8   55.59    9.20
   8   4   8   43.40   17.70
  -8  -6  -8   11.60    4.00
   8   6  -8   15.60    9.40
   8   6  -8   19.10   16.50
   8   6  -8    9.60    2.20
  -8   6   8   18.40   11.30
  -8   6   8   17.30    8.70
   8  -6   8    0.50   16.90
   8   6   8   28.70    9.50
  -8  -6   8    8.30    7.50
   8  -6  -8   13.80    4.50
   8   6   8   31.20   14.60
   8   6   8    8.60   33.50
   8   6   8   14.50   17.00
   8  -6  -8   10.80   21.10
  -8   6  -8    8.80    3.70
  -8  -6   8   14.70    9.10
   8  -8   8   -7.00   16.30
   8   8  -8    6.90   20.90
  -8   8   8    8.30    9.70
  -8  -8   8   13.90    8.70
  -8   8  -8    1.10    4.10
   8  -8  -8    1.60    6.80
   8   8   8   -9.40   13.00
   8  -1   9   22.70   18.70
  -8  -1  -9   32.70    3.80
   8  -1   9   33.50    3.90
  -8  -1  -9   30.50   21.90
   8   1  -9   52.19   12.00
  -8   1   9   27.40    3.50
   8   1  -9   28.30    6.30
   8   1  -9   38.70   11.50
  -8   1   9   37.60    6.10
   8   1  -9   26.00   10.50
   8   1  -9   36.40    3.90
  -8   1   9   35.60    8.40
   8   1   9   40.30   23.10
   8  -1  -9   30.70    6.40
  -8  -1   9   30.40    6.40
   8  -1  -9   37.80   13.10
   8  -1  -9   16.80   12.30
   8   1   9   38.10    4.40
   8  -1  -9   32.90    9.00
  -8   1  -9   38.80    4.20
   8   1   9   20.40   14.10
  -8  -1   9   37.70    3.80
   8   1   9   24.60    8.20
   8   1   9   33.50    4.00
   8  -1  -9   37.30    3.60
  -8  -1   9   27.50    8.40
   8   1   9   28.10    6.40
  -8   1  -9   29.90   19.90
   8   3  -9    5.10    4.80
   8  -3   9   -5.60   19.70
  -8  -3  -9    0.50    2.30
   8   3  -9    0.10   11.30
   8   3  -9  -14.50    9.40
  -8   3   9    7.50    9.90
  -8   3   9    0.60    7.90
  -8  -3  -9   -4.00   21.60
   8   3  -9    0.00    1.70
   8   3   9    1.70    1.90
  -8   3  -9    0.40    2.40
  -8  -3   9    0.10    7.20
   8   3   9    0.00    4.00
  -8  -3   9   -1.80    2.10
   8  -3  -9   -0.40    3.20
   8   3   9    4.70   26.50
   8  -3  -9   10.90   14.30
   8   3   9   11.70   11.20
   8   3   9    2.30    7.00
   8   3   9    9.60   17.30
  -8  -3   9    0.50    5.50
   8   5  -9   20.40   10.10
   8   5  -9   17.40   14.30
   8   5  -9    5.80    2.00
  -8  -5  -9    4.50    3.40
  -8   5   9   17.80   10.60
  -8   5   9   10.40    7.60
   8  -5   9    5.30   18.00
   8   5   9    9.30   13.00
  -8  -5   9    7.40    8.50
  -8   5  -9   13.40    3.40
   8   5   9   15.10   17.20
   8  -5  -9   21.90   17.20
  -8  -5   9    6.80    6.50
   8   5   9  -19.40   31.00
   8   5   9    9.40    9.40
   8  -5  -9    6.50    4.50
  -8  -7  -9    5.90    4.80
   8  -7   9   10.10   14.20
   8   7  -9    5.30   10.30
  -8   7   9    4.20    9.00
   8   7  -9   16.90   19.80
  -8   7  -9    9.00    3.70
   8   7   9   -5.30   37.00
   8   7   9   10.30   17.20
   8   7   9    4.50   13.40
  -8  -7   9    2.70    8.00
   8  -7  -9    2.70    5.50
  -8  -7   9   14.50    9.70
   8   0 -10    9.60    6.40
   8   0 -10   18.00   13.00
   8   0  10    1.00   21.50
  -8   0  10    8.50    1.90
  -8   0  10   23.30    6.00
   8   0 -10   11.60    2.40
  -8   0 -10   10.60    2.40
  -8   0  10   20.70    8.40
   8   0 -10    6.70   12.90
  -8  -2 -10   13.50   23.40
   8   2 -10    6.50   11.30
  -8  -2 -10   12.60    2.60
   8   2 -10   15.50    2.30
   8   2 -10   17.00   12.00
  -8   2  10   14.50    9.00
   8   2 -10    9.10    5.40
   8  -2  10   19.00   20.70
  -8   2  10   11.10    6.30
   8  -2 -10   15.30    3.00
  -8  -2  10   16.80    2.40
  -8  -2  10   15.70    7.80
   8   2  10   18.70   16.70
   8   2  10   13.70    9.90
   8   2  10   16.30    4.10
   8   2  10   16.90    6.80
   8  -2 -10    3.60   14.20
  -8  -2  10   13.80    5.90
   8   2  10    9.10   24.40
  -8   2 -10   14.70    2.60
  -8   4  10  166.08   17.90
   8  -4  10  126.89   23.80
  -8   4  10  160.08   22.20
   8   4 -10  127.89   19.40
  -8  -4 -10  163.68   13.10
   8   4 -10  157.48   12.70
   8   4 -10  172.78   26.50
   8   4  10  104.19   31.90
  -8  -4  10  165.18   18.10
   8  -4 -10  172.88   22.40
   8   4  10  142.39   18.00
   8   4  10  129.59   22.80
  -8   4 -10  169.58   13.00
  -8  -4  10  169.08   15.30
   8  -4 -10  163.18   13.50
   8   4  10  171.48   18.90
   8   6 -10   -0.40   10.40
  -8  -6 -10    0.60    4.10
   8   6 -10    4.60    2.40
  -8   6  10   -2.30    7.70
   8   6 -10    9.30   15.90
  -8   6  10    7.20   10.90
   8  -6  10    4.00   17.40
   8   6  10    9.90   32.30
   8   6  10   37.80   18.50
   8   6  10    8.00    9.50
  -8  -6  10    0.40    7.50
  -8   6 -10    4.60    3.50
   8  -6 -10   10.30   19.80
   8   6  10    4.20   14.40
   8  -6 -10   -6.60    4.70
  -8  -6  10   -5.00    9.40
   8  -8  10    7.30   15.90
   8   8 -10   18.00   21.20
  -8   8  10   14.20    8.80
   8  -8 -10   16.30    6.90
  -8  -8  10    8.20    9.10
  -8   8 -10    6.30    3.70
   8   8  10  -13.90   13.70
  -8   1  11   75.09   10.60
   8  -1  11   35.00   22.70
  -8   1  11   87.69   10.10
   8   1 -11   89.99   14.90
   8   1 -11   47.70   15.00
   8   1 -11   68.49    6.50
   8   1 -11   60.49    8.20
  -8  -1 -11   70.09    6.60
   8  -1 -11   73.39    6.80
  -8  -1  11   85.79   10.00
  -8   1 -11   74.69    6.60
   8   1  11   77.79   10.90
   8  -1 -11   55.09   16.20
   8   1  11   68.39   13.50
   8   1  11   49.10   25.20
   8  -1 -11   76.39   16.20
   8  -1 -11   75.79   15.90
  -8  -1  11   92.29   10.70
   8  -3  11    1.80   20.40
  -8  -3 -11   13.30    2.90
   8   3 -11    6.50   11.40
  -8   3  11    2.90    9.90
  -8   3  11    7.00    7.30
   8   3 -11   14.50   13.10
   8   3 -11   14.00    2.30
  -8  -3  11   11.70    5.90
  -8  -3  11   16.40    2.80
   8   3  11   -8.90   26.20
   8   3  11   13.50    7.70
   8   3  11    4.80    4.40
  -8  -3  11    2.60    7.60
   8   3  11   14.40   18.70
   8  -3 -11   13.60    3.50
   8  -3 -11   39.20   17.20
  -8   3 -11   14.80    2.90
   8   3  11   16.50   11.80
  -8  -5 -11    7.20    3.40
  -8   5  11    3.90    8.50
   8  -5  11    9.40   17.50
   8   5 -11    5.30    2.30
   8   5 -11   18.80   14.60
  -8   5  11   15.80   11.60
   8   5 -11    9.70   10.70
   8   5  11    3.30    8.90
  -8  -5  11    5.00    9.10
  -8  -5  11    4.90    6.70
   8  -5 -11  -14.70   20.00
   8   5  11   10.80   30.10
  -8   5 -11    6.40    2.80
   8  -5 -11    7.80    4.40
   8   5  11    6.40   13.40
   8   5  11    1.30   19.40
   8   7 -11   -6.50   18.20
   8  -7  11    3.30   14.20
  -8   7  11    3.60    8.20
  -8  -7 -11   -3.10    4.70
   8  -7 -11   -3.00    5.40
  -8  -7  11    7.50    8.50
  -8   7 -11   -0.10    3.10
   8   7  11   15.80   13.50
  -8   0  12  180.18   19.70
   8   0 -12  153.88   27.10
   8   0 -12  180.68   14.30
   8   0 -12  190.08   26.10
  -8   0 -12  175.78   14.20
  -8   0  12  189.58   16.70
   8   0  12  149.99   27.90
  -8  -2 -12    1.40    2.50
   8   2 -12    2.70   13.40
  -8   2  12    2.00    6.40
   8  -2  12  -11.80   21.30
   8   2 -12   -0.50    2.10
  -8   2  12   -0.30    8.90
   8  -2 -12    8.30   15.10
   8   2  12   -2.50   15.00
  -8  -2  12    3.70    7.90
   8   2  12    9.20    9.70
   8   2  12    0.80    6.90
   8  -2 -12    1.90    2.80
   8   2  12    0.20   25.90
   8  -2 -12    0.30    8.80
  -8   2 -12   -1.40    2.60
  -8  -2  12   -7.10    5.90
   8  -4  12   -0.10   18.40
  -8   4  12    1.30   11.50
  -8  -4 -12   -4.40    2.80
   8   4 -12    8.00   11.90
  -8   4  12   -6.60    8.80
   8   4 -12    1.60    2.20
   8   4 -12   -2.90   13.90
   8   4  12   10.00   12.90
   8   4  12    9.00   27.50
  -8  -4  12    0.70    6.50
  -8  -4  12   -4.00    8.50
   8   4  12    5.30   19.80
   8   4  12   -6.40    8.70
  -8   4 -12   -0.60    2.60
   8  -4 -12   12.00   17.80
   8  -4 -12   -2.70    3.80
   8   6 -12   -0.70   16.10
   8  -6  12    2.90   17.10
  -8  -6 -12    0.10    4.40
  -8   6  12   -7.90    9.10
  -8  -6  12   -0.80    8.10
   8  -6 -12    1.20    5.10
   8   6  12   18.70   14.30
   8   6  12    6.00    9.80
   8   6  12   -5.00   20.50
   8   6  12   -0.70   32.50
  -8   6 -12    1.80    3.30
   8   1 -13   17.40    2.90
  -8  -1 -13   13.90    3.00
  -8   1  13   15.50    6.10
   8  -1  13   17.40   23.00
   8   1 -13    0.80   14.30
  -8   1  13   23.60    8.90
  -8  -1  13   24.40    6.60
  -8   1 -13   21.90    2.90
  -8  -1  13   19.30    8.60
   8  -1 -13   18.40   16.00
   8   1  13   15.70   23.50
   8  -1 -13   21.10    3.20
   8  -1 -13   17.00   10.60
   8  -3  13   21.00   20.50
  -8   3  13   22.40   11.20
   8   3 -13   35.80   14.80
   8   3 -13   52.99   15.00
  -8   3  13   21.50    7.90
   8   3 -13   31.10    3.40
  -8  -3 -13   29.00    3.90
   8   3  13    5.20   27.00
   8   3  13   24.70   17.80
  -8  -3  13   34.80    7.20
   8  -3 -13   30.50   18.00
  -8  -3  13   22.10    8.90
   8  -3 -13   28.10    4.30
   8   3  13   32.60   11.80
  -8   3 -13   30.40    3.60
   8   3  13   32.40    9.20
   8   5 -13    5.50    2.60
  -8   5  13   -3.90   10.00
   8  -5  13   14.80   18.20
   8   5 -13    5.30   15.40
  -8  -5 -13    6.70    3.70
  -8   5  13   21.10   12.50
  -8   5 -13    2.60    3.00
   8   5  13   -2.90    9.70
   8  -5 -13    3.70    4.00
   8   5  13    3.40   13.50
   8   5  13   -5.10   28.40
   8   5  13   29.30   21.00
  -8  -5  13   -7.80    7.50
   8  -7  13   -0.20   14.80
  -8   7  13    0.60    9.60
  -8  -7 -13   -8.40    4.70
   8   7 -13    8.50   18.30
   8   7  13   -1.70   13.90
  -8   7 -13   -2.40    3.00
   8  -7 -13    1.90    4.70
   8   0  14   12.30   23.90
  -8   0  14   16.50    9.80
  -8   0  14    8.60    7.60
   8   0 -14    7.40    2.90
  -8   0 -14    8.50    2.60
   8   0 -14    1.00   15.70
  -8  -2 -14    4.20    2.70
   8  -2  14  -10.60   21.80
  -8   2  14   -2.40    6.60
   8   2 -14    9.30   14.70
  -8   2  14    3.70    9.40
   8   2 -14    5.90    2.50
   8   2  14    0.00    8.30
   8  -2 -14   15.30   16.60
   8   2  14    8.30   24.40
  -8  -2  14    2.20    6.40
  -8  -2  14    3.30    8.40
   8  -2 -14    5.80    2.90
  -8   2 -14    3.70    2.50
  -8   4  14   -1.30    7.80
  -8   4  14    7.30   11.30
   8   4 -14   -7.20   14.70
  -8  -4 -14   -4.10    3.00
   8   4 -14   -6.30    2.60
   8  -4  14   15.30   18.80
   8  -4 -14   -1.90    3.70
  -8  -4  14    2.30    7.30
   8   4  14  -26.60   12.50
   8   4  14   17.90   21.80
   8   4  14   16.70   27.60
  -8   4 -14    0.50    2.60
   8  -4 -14   -7.90   17.80
  -8  -6 -14   18.10    4.70
   8   6 -14   29.40   17.70
  -8   6  14   33.90   10.10
   8  -6  14   10.90   16.60
   8  -6 -14   21.50    5.00
  -8   6 -14   14.50    3.20
   8   6  14   -6.40   13.10
   8  -1  15   -0.80   21.90
   8   1 -15    0.60    2.60
  -8   1  15   -1.80    9.40
   8   1 -15   -7.80   15.60
  -8   1  15   -6.30    6.80
  -8  -1 -15   -1.60    2.60
   8  -1 -15    6.10   11.80
   8  -1 -15   -0.40    2.90
   8   1  15   -4.70   25.10
  -8  -1  15    3.00    7.10
   8  -1 -15   -9.30   15.40
  -8   1 -15    1.10    2.50
  -8  -1  15   -2.80    9.00
  -8  -3 -15    2.50    3.00
   8   3 -15    2.40    2.60
   8  -3  15   -8.60   18.30
  -8   3  15    6.90    7.40
  -8   3  15    5.90   10.40
   8   3 -15    6.80   15.20
   8  -3 -15   -1.70   18.10
  -8   3 -15   -0.20    2.70
   8   3  15   -7.40   26.00
  -8  -3  15   -0.10    7.60
   8  -3 -15    4.90    3.40
   8   3  15   -6.70   10.60
   8   5 -15    9.80   16.60
  -8  -5 -15   17.90    3.70
   8  -5  15   -6.00   17.50
   8   5 -15   15.90    3.80
  -8   5  15   28.40    8.90
  -8   5 -15   14.20    3.20
   8  -5 -15   22.20    4.30
   8   5  15   -1.00   14.00
   8   0 -16  -17.80   18.30
   8   0  16  -13.00   22.80
  -8   0  16   -4.40    9.20
  -8   0 -16   -1.30    2.70
  -8   0  16   -7.50    6.90
   8   0 -16   12.40   14.70
   8   0 -16    1.80    2.90
  -8  -2 -16    9.40    3.10
  -8   2  16   13.90    6.70
   8   2 -16   21.90   15.20
  -8   2  16   11.70    9.70
   8  -2  16    6.30   19.90
   8   2 -16   13.20    2.80
   8  -2 -16    4.40   18.30
  -8  -2  16    7.20    7.30
  -8   2 -16   11.60    2.60
   8  -2 -16    8.90    3.30
   8   2  16   -7.40   26.10
  -8  -4 -16   -2.60    3.40
   8   4 -16    0.30    2.90
   8  -4  16   -1.20   18.40
  -8   4  16    5.80    8.00
   8   4 -16    6.60   16.10
  -8   4 -16    0.50    2.60
   8  -4 -16    2.50    3.80
   8  -1  17  -10.40   21.90
   8   1 -17   -1.50   15.10
  -8  -1 -17   -3.00    2.70
  -8   1  17   -4.20    8.00
   8   1 -17    2.30    3.00
  -8   1 -17   -1.40    2.60
   8   1  17   -3.70   24.70
  -8  -1  17   -7.90    7.80
   8  -1 -17    3.90    3.00
  -8  -3 -17    5.60    3.10
  -8   3  17    3.80    7.60
   8   3 -17    3.30    2.80
   8  -3  17   -5.20   18.30
   8   3 -17    3.90   16.40
   8  -3 -17   -0.90    3.50
   8   3  17   -2.80   27.50
  -8   3 -17   -3.80    2.60
   8   0  18   -1.80   22.90
  -8   0  18   -7.60   11.70
   8   0 -18   -1.90    3.10
  -8   0 -18   -3.80    2.50
   8   2 -18   -0.10   16.20
   8  -2  18    1.40   18.70
  -8  -2 -18    5.50    2.90
  -8   2  18    3.10    7.70
   8   2 -18    1.90    3.00
   8   2  18    8.20   25.50
  -8   2 -18    3.30    2.80
   8  -2 -18    5.70    3.30
  -9  -1   0   -9.80   16.40
  -9  -1   0   -4.20    2.30
  -9   1   0   -2.10    3.20
   9  -1   0   21.80   21.70
   9   1   0    3.90    3.80
   9  -1   0    4.00    5.30
  -9   1   0    1.10    7.40
   9  -1   0    3.70    4.30
  -9  -1   0   -1.70    6.10
  -9   1   0    7.00   19.50
  -9   1   0   -4.80    4.00
  -9  -1   0    2.90    4.30
   9   1   0    6.70    5.80
   9   1   0  -10.40   22.20
   9  -1   0    3.60    9.20
  -9  -3   0   -1.60    5.00
   9  -3   0  -10.50    6.40
  -9   3   0   -2.70   14.10
   9   3   0    0.10    5.40
  -9   3   0    5.90    2.70
   9  -3   0    2.90   14.20
   9  -3   0    1.70   10.80
  -9   3   0    1.50    8.40
   9   3   0   -6.40    3.70
  -9  -3   0    2.80    6.30
  -9  -3   0    0.00    9.50
   9  -3   0    5.60    5.40
  -9   3   0    3.70    5.10
   9   3   0  -10.90   16.70
  -9  -5   0    0.10    6.30
  -9   5   0   -0.70   11.70
  -9   5   0   -5.40   15.50
   9  -5   0   -9.00   15.90
   9  -5   0   -0.50    6.10
   9  -5   0    0.70   10.30
  -9   5   0    8.90    7.90
   9   5   0   -2.10   21.00
   9   5   0   -4.10    7.20
  -9   5   0   -9.40    3.30
  -9  -5   0   -2.90    7.00
  -9   7   0    0.30    7.30
  -9   7   0   -4.60    9.40
   9  -7   0   -3.60    7.60
   9   7   0   -0.10    9.60
  -9   7   0    3.90   12.00
   9   7   0   12.10   24.40
  -9   7   0    2.80   14.10
  -9  -7   0    0.20    7.90
   9   7   0   -5.00   16.60
  -9   9   0   13.30   12.10
  -9   9   0   14.50   17.90
   9   9   0   11.70   31.10
  -9  -9   0   -1.80    9.00
   9   0   1    7.20    3.70
   9   0  -1   18.10    4.40
   9   0  -1   19.40   24.00
  -9   0  -1   -3.40   23.20
  -9   0  -1   15.30    3.90
  -9   0  -1    5.80    5.50
   9   0  -1   10.80    3.60
  -9   0   1    7.60    2.30
  -9   0   1   16.60    4.40
  -9   0  -1    9.20    3.80
  -9   0   1   16.80   16.20
   9   0  -1   11.10    8.00
  -9   0  -1   -0.50    2.60
   9   0   1   -1.70   24.70
   9   0   1   15.90    6.90
   9  -2   1 4858.51  391.66
  -9   2   1 5058.99  391.56
   9  -2   1 5143.89  391.06
   9  -2  -1 5060.19  391.86
  -9   4   1   83.09    7.50
  -9   4   1   83.49    9.50
  -9   4   1   68.19   16.20
  -9  -4  -1   87.49   13.10
  -9  -4  -1   85.09   10.00
   9   4  -1   89.89   11.30
   9  -4   1   64.39   15.10
   9   4  -1   74.29    8.40
   9   4  -1   65.79   21.40
   9  -4   1   93.39    9.00
  -9  -4  -1   93.09   11.20
  -9   4   1   84.89   12.50
   9  -4   1   86.69   16.30
  -9  -4   1   78.99    9.90
  -9  -4   1   97.49   10.50
  -9  -4   1   80.79   14.90
   9   4   1   84.49   12.20
   9  -4  -1   81.19    8.60
   9   4   1   73.49    8.70
  -9   4  -1   85.49    7.90
   9   4   1   62.79   22.40
   9  -4  -1   78.09   11.90
  -9   4  -1   66.79   11.50
   9  -4  -1   81.79   14.90
  -9   4  -1   79.79    8.50
  -9   4  -1   66.99    8.90
  -9   4  -1   62.89   15.80
   9   6  -1 1359.06  101.69
   9  -6   1 1261.77  101.19
  -9   6   1 1411.86  101.59
  -9  -6  -1 1224.38  101.19
   9   6  -1 1123.59  109.49
  -9   6   1 1396.36  103.89
  -9  -6   1 1242.08  101.09
   9  -6  -1 1405.56  106.09
   9   6   1 1049.49  109.99
   9   6   1 1416.66  101.89
  -9  -6   1 1255.87  101.89
   9  -6  -1 1217.78  101.09
  -9   6  -1 1330.67  101.39
  -9   6  -1 1338.77  103.39
  -9   8   1   -6.10   10.80
   9   8  -1   -2.00    8.80
  -9   8   1    0.60   15.50
  -9  -8  -1   -4.00    7.90
   9   8  -1    2.40   26.50
  -9   8   1    2.40    8.70
   9   8  -1   11.70   17.50
  -9   8  -1  -10.50   15.20
  -9   8  -1   -7.20   10.40
   9   8   1  -21.40   28.90
   9   8   1   -1.70   10.40
   9   8   1    1.90   18.70
  -9  -8   1   14.70    8.60
  -9   8  -1   -9.50    7.60
   9  -8  -1   -0.90    8.10
  -9   8  -1   -2.20   13.40
   9   1  -2 2263.67  172.18
   9   1  -2 2256.27  171.98
  -9   1   2 2294.77  174.38
   9   1  -2 2486.45  175.68
   9  -1   2 2152.58  172.68
   9  -1   2 2296.37  172.08
  -9  -1  -2 2062.09  172.48
   9   1  -2 2031.70  172.68
  -9   1   2 2170.18  172.78
   9  -1  -2 2212.68  172.28
  -9   1  -2 2268.07  172.18
   9  -1  -2 2185.88  173.18
  -9   1  -2 2140.99  172.38
   9   1   2 2156.68  172.08
  -9  -3  -2 2379.76  174.68
   9   3  -2 2050.19  172.38
   9   3  -2 2404.26  175.68
  -9   3   2 2246.18  173.88
  -9  -3  -2 2369.16  172.18
  -9   3   2 2093.99  172.98
  -9   3   2 2085.09  172.08
   9  -3   2 2077.49  173.28
   9  -3   2 2579.64  175.18
   9   3  -2 2118.59  171.98
  -9  -3  -2 2213.48  172.68
  -9   3  -2 2065.29  172.58
  -9   3  -2 2032.60  171.98
   9   3   2 1979.80  172.38
   9   3   2 2153.68  171.98
   9   3   2 2431.06  178.18
  -9   3  -2 2440.86  175.38
  -9  -3   2 2231.38  173.38
   9  -3  -2 2020.90  173.58
  -9  -3   2 2417.06  172.08
  -9   3  -2 2314.07  171.98
   9  -3  -2 2248.88  171.98
   9  -3  -2 1961.30  172.18
  -9  -3   2 2154.78  172.58
  -9   5   2  745.93   68.19
   9   5  -2  915.71   76.59
  -9   5   2  958.70   71.59
   9   5  -2  873.61   68.99
  -9   5   2  927.61   69.19
  -9   5   2  740.03   72.19
   9  -5   2  887.61   72.49
  -9  -5  -2  781.52   70.49
  -9  -5  -2  954.40   68.69
  -9  -5   2  929.91   68.59
  -9   5  -2  754.62   73.19
  -9   5  -2  856.31   68.69
   9  -5  -2  899.91   68.39
  -9  -5   2  928.31   69.69
  -9   5  -2  810.02   67.99
  -9   5  -2  868.01   70.49
   9  -5  -2  932.11   73.49
   9   5   2  932.21   69.29
   9   5   2  864.71   80.59
   9   7  -2  256.57   46.90
  -9   7   2  390.86   35.50
  -9  -7  -2  309.77   27.80
  -9   7   2  389.56   29.80
   9   7  -2  338.87   28.60
  -9   7   2  268.87   35.40
   9   7   2  377.56   30.50
   9  -7  -2  295.27   27.80
   9   7   2  260.47   53.29
   9   7   2  216.98   37.00
  -9   7  -2  362.86   28.80
  -9   7  -2  340.07   28.60
  -9  -7   2  286.47   28.00
  -9   9   2  175.68   19.70
   9   9  -2   78.09   32.60
  -9   9  -2  119.29   15.00
   9   9   2   19.30   35.80
  -9  -9   2   72.99   11.80
  -9   9  -2  110.79   10.20
  -9   0  -3 5860.61  475.05
   9   0   3 6295.97  475.85
   9  -2   3  742.93   65.69
   9  -2   3  879.71   70.89
  -9   2   3  799.22   63.79
  -9  -2  -3  803.12   71.79
  -9  -2  -3  821.92   64.89
   9   2  -3  803.42   64.09
  -9  -2  -3  833.22   64.19
  -9   2   3  820.02   65.69
  -9   2   3  818.42   64.39
  -9  -2  -3  833.02   63.69
   9   2  -3  815.22   65.09
   9   2  -3  899.11   68.79
  -9  -2   3  871.51   64.19
   9  -2  -3  857.31   66.69
   9   2   3  811.22   63.99
  -9   2  -3  821.92   64.19
   9  -2  -3  785.22   63.89
   9   2   3  930.51   76.49
  -9   2  -3  847.12   64.69
  -9  -2   3  830.12   65.89
   9  -2  -3  799.92   64.49
  -9   2  -3  810.22   63.99
   9   2   3  792.52   63.69
   9   2   3  718.33   64.59
   9  -2  -3  788.52   66.69
  -9  -2   3  787.62   64.69
  -9   2  -3  847.12   71.09
  -9  -4  -3 1234.18   86.69
  -9   4   3 1102.19   86.09
   9   4  -3 1187.88   91.49
  -9  -4  -3 1214.18   86.09
  -9   4   3 1154.78   86.89
   9  -4   3 1194.28   91.09
   9   4  -3 1013.30   87.99
  -9  -4  -3 1044.00   89.99
  -9   4   3 1069.09   88.29
   9   4  -3 1127.99   87.09
   9   4  -3 1033.20   86.29
   9  -4  -3 1114.99   90.19
  -9   4  -3 1121.29   86.29
  -9  -4   3 1240.48   86.59
   9   4   3 1045.90   86.29
   9  -4  -3 1044.70   86.99
   9   4   3 1125.99   87.19
  -9  -4   3 1154.88   87.19
  -9   4  -3 1068.29   86.29
  -9   4  -3 1098.39   86.29
   9   4   3 1087.59   85.99
  -9   4  -3  964.20   86.49
   9  -4  -3 1134.99   86.39
  -9   4  -3  998.70   87.29
  -9   4  -3 1033.30   91.49
   9   4   3 1157.98   98.19
   9   6  -3   84.89   10.00
  -9   6   3   67.29   14.20
  -9  -6  -3   57.29    8.90
   9  -6   3   40.70   15.00
  -9  -6  -3   67.79    8.20
   9   6  -3   86.89   21.70
  -9   6   3   69.39   10.90
  -9   6  -3   60.19   13.00
   9  -6  -3   59.89   21.10
   9   6   3   67.09    5.90
  -9   6  -3   60.19    8.20
   9   6   3   83.89   11.20
   9  -6  -3   74.39    8.70
  -9   6  -3   62.49    7.40
  -9   6  -3   73.69    9.90
   9   6   3   60.69   30.00
   9   6   3   41.10   17.30
  -9  -6   3   66.89   10.90
  -9  -6   3   90.39   10.10
  -9   6  -3   62.89    9.40
  -9   8   3  257.77   24.20
  -9  -8  -3  209.88   22.10
   9   8  -3  278.27   23.50
  -9   8  -3  180.68   19.50
   9   8   3  156.88   41.20
  -9  -8   3  215.78   22.30
  -9   8  -3  265.87   30.30
  -9   8  -3  266.77   23.60
  -9   8  -3  239.78   23.40
   9  -8  -3  204.18   21.80
  -9  -1  -4 1028.10   82.09
  -9   1   4  944.61   72.69
   9   1  -4  912.91   72.49
   9  -1   4 1021.70   79.89
  -9  -1  -4  860.11   72.99
   9   1  -4  907.91   72.19
  -9   1   4  841.72   73.69
  -9   1   4  906.41   72.19
   9   1  -4  939.31   76.09
  -9  -1  -4  937.31   72.49
   9   1  -4  856.41   73.49
  -9   1  -4  964.60   72.29
   9   1   4  888.21   72.19
  -9  -1   4  836.82   73.19
   9  -1  -4  831.72   72.29
  -9  -1   4 1023.40   72.59
   9  -1  -4 1074.89   77.39
  -9   1  -4 1045.80   80.89
   9  -1  -4  901.81   72.79
   9  -1  -4  935.91   74.69
   9   1   4  906.01   72.39
  -9   3   4  166.68   16.80
   9   3  -4  193.38   19.10
  -9   3   4  157.88   21.00
   9   3  -4  179.58   27.30
   9  -3   4  203.38   31.30
  -9   3   4  182.38   14.00
   9   3  -4  163.38   14.90
  -9  -3  -4  197.68   13.90
   9   3  -4  160.68   17.90
  -9  -3  -4  187.88   15.90
  -9  -3  -4  170.88   30.10
   9   3   4  148.29   16.70
  -9   3  -4  173.08   30.10
   9   3   4  168.48   14.70
  -9   3  -4  191.08   14.70
   9   3   4  194.98   32.30
  -9  -3   4  191.48   16.00
  -9   3  -4  181.98   15.40
   9  -3  -4  162.48   20.10
   9   3   4  159.28   13.90
   9  -3  -4  167.38   14.70
   9  -3  -4  159.18   16.60
  -9  -3   4  169.68   17.80
  -9  -5  -4  155.88   23.30
   9   5  -4  180.58   17.80
   9  -5   4  144.99   28.20
   9   5  -4  199.18   31.40
  -9  -5  -4  177.68   17.00
  -9   5   4  163.98   23.50
  -9   5   4  191.48   18.50
  -9  -5  -4  157.28   14.00
  -9   5  -4  166.18   16.90
  -9   5  -4  149.29   14.40
  -9   5  -4  200.28   20.70
  -9  -5   4  182.48   18.30
  -9  -5   4  187.68   16.30
   9   5   4  157.28   13.30
  -9   5  -4  131.79   23.00
   9  -5  -4  184.48   15.30
   9   5   4  108.99   21.50
  -9   5  -4  181.48   17.40
   9   5   4  186.58   18.50
   9   5   4  125.39   34.70
   9  -5  -4  215.88   23.30
  -9   5  -4  173.38   14.70
   9  -7   4   71.89   17.70
  -9  -7  -4   97.29   12.20
  -9   7   4  187.68   24.80
  -9  -7  -4  114.09   11.60
   9   7  -4  127.79   24.00
   9   7  -4  153.38   16.50
  -9   7   4  169.98   18.20
   9   7   4   74.99   20.10
   9   7   4  171.98   19.40
  -9  -7   4  129.19   14.80
  -9   7  -4  145.89   17.00
  -9   7  -4  124.09   17.00
  -9   7  -4  128.49   16.30
  -9   7  -4  110.29   11.80
   9  -7  -4   82.59   11.40
   9   9  -4   26.20   29.90
  -9   9   4    3.50   10.50
  -9   9  -4  -11.20   14.20
   9  -9  -4   10.40    8.70
   9   9   4   17.80   39.50
  -9  -9   4    4.20    8.40
  -9   9  -4    0.40    4.90
  -9   0  -5 7400.66  578.04
  -9  -2  -5  227.78   18.00
   9   2  -5  217.28   19.10
   9  -2   5  234.68   33.60
  -9   2   5  241.98   23.00
  -9  -2  -5  254.07   35.20
   9   2  -5  231.28   28.30
   9   2  -5  210.68   21.80
  -9   2   5  228.88   19.80
   9   2  -5  250.37   18.00
  -9   2   5  223.58   18.00
  -9  -2  -5  231.88   19.40
   9   2   5  228.58   18.00
   9   2   5  212.98   45.60
   9  -2  -5  221.38   25.10
  -9  -2   5  189.28   20.70
  -9  -2   5  251.27   18.00
   9   2   5  220.48   18.60
  -9   2  -5  263.07   34.80
   9   2   5  202.78   20.30
  -9  -2   5  231.48   19.20
   9  -2  -5  216.08   18.40
  -9   2  -5  239.88   18.40
   9  -2  -5  238.78   20.00
   9  -4   5 3937.01  304.57
  -9   4   5 4094.99  301.87
   9   4  -5 3520.85  301.57
  -9   4   5 3847.52  302.67
  -9  -4  -5 4136.49  301.77
  -9  -4  -5 3673.23  304.57
   9   4  -5 3869.21  304.37
   9   4  -5 3929.81  302.17
  -9   4  -5 3451.05  304.47
  -9  -4   5 3946.51  302.17
   9   4   5 3735.63  302.07
   9   4   5 4072.59  307.67
   9   4   5 4102.39  304.17
   9   4   5 3715.63  301.57
   9  -4  -5 4164.68  303.87
   9  -6   5   10.00   16.30
  -9  -6  -5    9.80    7.60
   9   6  -5    3.10   17.60
  -9   6   5   -3.90   11.60
  -9   6   5   14.30    9.50
   9   6  -5    2.10    8.20
  -9  -6  -5    0.70    3.90
   9   6   5    9.20   17.50
  -9   6  -5    0.80   12.00
  -9  -6   5    2.30    7.40
   9  -6  -5    4.50   18.10
  -9   6  -5   21.90    8.80
  -9   6  -5   13.00    4.80
   9   6   5   -1.00   32.50
  -9  -6   5    3.10    8.50
   9  -6  -5    5.60    5.30
   9   6   5    5.10    8.50
  -9   6  -5    0.00    7.50
   9   8  -5  645.54   47.20
   9   8  -5  555.14   59.59
   9  -8  -5  522.25   46.00
  -9  -8   5  529.25   46.20
  -9   8  -5  570.84   44.90
  -9   1   6 1018.70   80.59
  -9   1   6  909.11   81.49
   9  -1   6  986.00   80.19
   9   1  -6 1044.60   83.39
   9   1  -6 1129.19   82.09
   9  -1   6 1118.99   87.59
  -9  -1  -6 1088.69   88.29
  -9  -1  -6 1053.19   80.39
   9   1   6 1106.49   89.29
   9  -1  -6 1094.99   83.39
  -9  -1   6 1094.29   80.59
   9  -1  -6  959.40   80.79
   9  -1  -6 1167.28   81.69
  -9   1  -6 1111.39   88.29
   9  -1  -6  995.80   80.19
   9  -1  -6  960.10   82.89
  -9  -1   6  945.31   81.19
   9   1   6 1021.60   80.29
   9   1   6  849.41   80.69
   9   1   6  984.90   80.09
  -9   3   6  284.97   22.90
   9   3  -6  306.17   22.80
  -9  -3  -6  321.07   22.90
   9  -3   6  311.67   38.30
  -9  -3  -6  254.67   37.90
   9   3  -6  271.87   23.80
   9   3  -6  267.77   27.50
  -9   3   6  296.87   28.10
  -9  -3  -6  321.17   24.50
   9   3  -6  302.97   31.40
   9   3  -6  264.77   26.40
  -9   3   6  316.37   25.20
   9  -3  -6  249.18   24.50
   9  -3  -6  288.27   32.10
   9   3   6  280.77   23.50
  -9  -3   6  310.07   25.70
  -9  -3   6  300.37   23.00
  -9  -3   6  316.67   24.10
   9   3   6  333.17   36.30
   9   3   6  274.77   48.10
  -9   3  -6  244.48   35.50
   9   3   6  285.17   22.90
  -9   3  -6  251.57   24.00
   9  -3  -6  311.17   23.40
   9   3   6  263.47   25.20
  -9   3  -6  316.37   23.30
  -9  -5  -6  388.96   29.20
   9   5  -6  383.76   41.70
   9  -5   6  359.36   40.40
  -9  -5  -6  361.46   31.30
  -9   5   6  379.36   31.80
  -9   5   6  365.86   34.50
   9   5  -6  349.27   31.80
  -9   5  -6  386.36   29.50
   9   5   6  329.27   28.90
   9   5   6  270.67   55.49
   9  -5  -6  390.96   29.70
   9   5   6  378.16   32.50
   9  -5  -6  418.56   39.80
  -9  -5   6  367.46   31.90
  -9  -5   6  390.96   30.60
   9   5   6  371.26   42.50
  -9   7   6  214.18   24.80
   9   7  -6  151.68   18.20
  -9  -7  -6  141.69   14.00
   9   7  -6  168.78   34.70
  -9   7   6  201.68   19.50
   9  -7  -6  188.68   25.60
  -9  -7   6  119.89   17.00
  -9  -7   6  168.18   19.60
   9   7   6   88.49   22.10
  -9   7  -6  168.58   14.10
  -9   7  -6  156.48   20.20
   9  -7  -6  154.78   15.70
  -9   9   6   24.10   10.00
   9   9  -6   18.10   26.40
  -9  -9   6   15.10    8.70
   9  -9  -6   20.70    8.40
  -9   9  -6    8.60    4.40
   9   9   6   12.40   13.00
   9   0  -7 2934.31  226.28
   9   0  -7 3007.20  225.88
  -9   0   7 2923.61  224.68
  -9   0  -7 2876.11  229.38
  -9   0   7 2882.11  225.28
   9   0  -7 2831.22  225.88
   9   0  -7 2708.53  224.78
   9   0   7 2937.71  228.78
  -9  -2  -7  485.25   58.09
   9   2  -7  605.24   44.90
  -9   2   7  639.64   47.50
   9   2  -7  583.34   45.50
   9   2  -7  597.34   49.30
  -9   2   7  566.74   44.90
   9  -2   7  546.75   45.20
  -9  -2  -7  592.34   45.80
  -9  -2  -7  571.64   44.90
   9  -2   7  507.45   54.49
   9   2  -7  515.05   48.20
   9   2  -7  640.54   47.40
  -9   2   7  629.44   45.90
   9   2   7  566.04   45.30
  -9   2  -7  521.55   54.29
   9   2   7  543.85   46.10
   9  -2  -7  544.65   46.10
   9   2   7  560.34   45.00
  -9  -2   7  585.84   44.90
   9  -2  -7  607.24   50.49
  -9  -2   7  560.34   46.50
  -9  -2   7  588.94   45.60
  -9   2  -7  586.24   45.10
   9   2   7  546.45   60.39
   9  -2  -7  604.04   45.10
   9   2   7  700.73   52.99
   9   4  -7  761.32   63.19
   9  -4   7  704.43   66.19
  -9   4   7  789.82   61.29
  -9  -4  -7  751.12   59.09
   9   4  -7  619.04   58.59
   9   4  -7  746.23   57.89
  -9  -4  -7  794.22   57.99
  -9   4   7  764.72   59.19
   9   4  -7  721.03   59.89
  -9  -4  -7  623.24   66.39
  -9   4  -7  817.42   58.09
  -9  -4   7  819.12   58.69
   9   4   7  632.34   75.29
   9  -4  -7  800.32   64.79
   9   4   7  785.22   65.89
   9   4   7  747.93   59.69
  -9  -4   7  761.12   59.59
   9   4   7  694.93   57.89
   9  -4  -7  760.32   58.19
  -9   6   7   32.40   12.00
  -9  -6  -7   59.19    5.60
   9   6  -7   53.99   10.40
   9   6  -7   40.60   19.20
   9  -6   7   40.40   18.20
  -9   6   7   52.29   10.50
   9  -6  -7   46.70    6.30
   9   6   7   67.29   11.00
   9  -6  -7   36.20   19.30
   9   6   7   25.00   17.10
  -9   6  -7   43.70    5.40
  -9  -6   7   39.30    8.50
  -9  -6   7   58.49   10.80
   9   6   7   19.80   34.60
   9   8  -7  139.99   26.40
   9   8  -7  146.49   20.30
  -9   8   7  194.58   18.40
   9   8   7  110.29   17.70
   9  -8  -7  148.99   15.00
   9   8   7   44.40   41.90
  -9  -8   7  129.19   17.10
  -9   8  -7  124.69   12.50
   9   1  -8 1422.06  106.59
  -9   1   8 1321.67  104.09
   9   1  -8 1259.57  104.49
   9  -1   8 1414.76  110.49
  -9   1   8 1264.07  105.39
   9   1  -8 1326.27  105.99
  -9  -1  -8 1273.37  111.79
  -9   1   8 1364.06  104.49
   9   1  -8 1364.36  106.59
   9  -1   8 1193.78  104.19
   9   1   8 1210.58  104.69
   9  -1  -8 1180.18  104.69
   9  -1  -8 1448.76  106.59
   9  -1  -8 1491.45  106.69
   9   1   8 1439.26  111.99
  -9  -1   8 1345.67  105.19
   9   1   8 1390.96  107.39
   9   1   8 1316.77  104.19
  -9  -1   8 1458.85  104.49
  -9   1  -8 1354.06  111.59
   9  -1  -8 1314.67  106.79
   9   1   8 1317.67  104.09
   9   3  -8 1136.09   98.79
   9  -3   8 1176.58  104.89
   9   3  -8 1307.27  100.09
  -9   3   8 1285.07  100.69
  -9  -3  -8 1063.89  105.99
  -9   3   8 1370.06   99.39
   9   3  -8 1304.57  102.09
   9   3   8 1403.26  103.69
   9  -3  -8 1308.17   98.59
   9   3   8 1227.08   98.49
  -9  -3   8 1319.67   99.69
  -9  -3   8 1205.58   98.49
  -9  -3   8 1399.16   98.99
   9   3   8 1273.47   99.69
   9  -3  -8 1389.96  102.39
   9   3   8 1195.18   98.79
   9   3   8 1179.38  109.19
   9   5  -8  667.73   52.59
  -9   5   8  716.53   56.49
   9   5  -8  667.83   55.09
  -9   5   8  736.93   54.29
   9  -5   8  548.35   60.69
   9   5  -8  656.13   59.49
  -9  -5  -8  697.63   52.79
   9   5   8  623.24   61.29
   9  -5  -8  773.72   60.99
  -9  -5   8  640.34   53.69
  -9   5  -8  684.03   52.89
   9  -5  -8  665.93   53.09
   9   5   8  709.63   55.19
  -9  -5   8  674.93   54.89
  -9   7   8  188.88   18.60
   9   7  -8  144.79   25.60
  -9   7   8  186.98   21.80
  -9  -7  -8  124.49   13.70
   9   7  -8  167.48   19.20
   9  -7  -8  151.68   15.10
   9   7   8  120.59   18.70
   9   7   8  210.68   20.80
   9   7   8   74.79   39.20
   9   7   8  105.29   23.30
  -9  -7   8  160.18   19.50
  -9   7  -8  142.49   13.10
  -9  -7   8  139.09   16.90
  -9   0  -9   34.60   22.10
   9   0   9   42.70    5.10
   9   0  -9   42.90    4.90
   9   0   9   49.80   24.70
   9   0  -9   32.20    6.70
  -9   0   9   47.20    9.50
   9   0  -9   28.10   12.60
  -9   0   9   49.80    4.40
  -9   0  -9   46.00    4.90
   9   0  -9   53.79   12.70
   9   0  -9   50.09   11.40
  -9   0   9   55.59    7.20
  -9   2   9 2808.92  213.98
   9  -2   9 2601.34  216.98
   9   2  -9 2470.05  214.98
   9   2  -9 2828.42  214.08
   9   2  -9 2910.51  214.98
  -9  -2  -9 2344.47  218.38
  -9   2   9 2988.50  213.08
   9   2  -9 2553.44  212.98
   9   2   9 2690.13  218.78
   9   2   9 2676.93  213.28
   9   2   9 3085.69  213.58
  -9  -2   9 2814.82  212.98
   9  -2  -9 2955.10  215.38
  -9  -2   9 2652.73  213.48
   9   2   9 2658.53  212.78
   9   4  -9    2.40   10.00
   9   4  -9    0.60    1.80
  -9  -4  -9   -2.40    2.80
   9  -4   9   -5.20   19.30
   9   4  -9    4.30   13.20
  -9   4   9    3.40    8.30
  -9   4   9    4.90   11.10
   9   4   9   -3.40   19.60
  -9  -4   9   -3.70    8.10
   9  -4  -9    3.40    4.00
  -9  -4   9   -7.10    6.00
   9  -4  -9  -17.00   17.70
   9   4   9   19.90   12.80
  -9   4  -9   -0.90    2.80
  -9  -4   9   -0.90    2.70
   9   4   9    4.70    8.20
   9   4   9   36.50   29.70
  -9   6   9  997.20   70.29
   9   6  -9  808.52   71.29
  -9  -6  -9  834.82   68.99
   9   6  -9  870.51   76.69
   9   6  -9  933.51   68.79
  -9   6  -9  837.12   68.99
   9   6   9  843.22   76.69
  -9  -6   9  945.41   71.29
   9   6   9  792.72   72.19
   9   6   9 1000.90   71.39
  -9  -6   9  817.42   69.89
   9  -6  -9  999.70   77.79
   9  -6  -9  829.72   69.19
  -9   8   9    8.50    8.70
   9   8  -9   -1.30   21.50
   9  -8   9   11.10   16.40
  -9  -8   9   -8.30    8.70
   9   8   9    5.10   13.70
  -9   8  -9    2.20    3.90
   9  -8  -9    3.90    6.60
   9   1 -10    5.70    5.70
   9   1 -10   10.20   11.00
  -9  -1 -10    0.60    2.10
   9   1 -10   -0.90    2.00
   9  -1  10    4.70   20.40
  -9   1  10    3.10    8.50
   9   1 -10   -6.40   12.50
  -9   1  10   -5.50    5.80
   9   1 -10   -5.10   12.00
   9  -1 -10    2.20    2.50
   9   1  10   -7.40    7.80
  -9  -1  10    1.80    5.80
   9  -1 -10    2.00    9.70
   9  -1 -10    2.90   12.60
   9   1  10   -7.30   13.30
  -9   1 -10   -2.40    2.20
   9  -1 -10    2.70   13.60
  -9  -1  10   -0.70    1.90
   9   1  10   -7.80   24.50
  -9  -1  10   -2.10    7.90
   9   3 -10   20.60   10.70
  -9   3  10   19.60    7.20
   9   3 -10   16.10    2.30
   9  -3  10    8.90   19.80
  -9  -3 -10   19.80    2.70
  -9   3  10   19.10    9.90
   9   3 -10   10.70   12.60
   9   3  10    2.80   28.80
  -9  -3  10   16.60    7.70
   9  -3 -10   23.30    3.70
   9   3  10   21.40   12.00
  -9   3 -10    5.60    2.90
   9   3  10   16.70    4.70
  -9  -3  10   13.50    6.00
   9   3  10   22.30    7.80
   9   3  10   13.10   17.90
  -9  -3  10   14.40    2.60
   9  -3 -10   20.30   15.30
   9   5 -10    2.70    2.20
  -9   5  10    6.50   10.90
  -9   5  10   10.60    8.30
   9   5 -10    0.50   14.80
   9   5 -10    0.30   10.80
   9  -5  10    3.50   18.70
  -9  -5 -10    3.80    3.30
  -9  -5  10    1.50    6.80
   9   5  10   15.90   31.80
   9   5  10  -11.70   13.30
   9  -5 -10    9.40    4.30
   9   5  10  -15.00   19.00
   9   5  10    0.90    9.20
   9  -5 -10   -8.20   17.20
  -9  -5  10    5.70    8.70
  -9   5 -10    6.60    2.90
  -9   7  10   -0.20    8.10
   9   7 -10   21.80   21.40
   9  -7  10    1.30   15.90
  -9  -7 -10   -2.70    4.80
  -9   7 -10    0.90    3.80
   9   7  10   31.60   15.00
   9   7  10   14.60   36.20
   9  -7 -10    0.00    5.20
  -9  -7  10    2.20    8.20
  -9   0  11   49.00   10.30
   9   0 -11   55.69    5.70
  -9   0  11   57.39    8.00
   9   0 -11   60.09   15.40
   9   0 -11   52.59   12.10
   9   0 -11   46.90   14.80
  -9   0 -11   51.99    5.60
   9   0  11   85.29   24.00
  -9   2  11 2523.15  198.28
  -9   2  11 2513.65  197.38
   9   2 -11 2546.55  199.58
   9  -2  11 2337.97  201.88
   9   2 -11 2642.04  198.88
  -9  -2  11 2505.35  197.28
   9   2  11 2337.27  202.98
   9   2  11 2389.86  197.18
   9  -2 -11 2685.33  200.18
  -9  -2  11 2287.17  196.98
   9   2  11 2871.81  200.18
   9   2  11 2582.64  197.78
  -9  -2  11 2411.66  197.88
   9   2  11 2869.81  197.88
   9   4 -11   31.10   11.50
  -9   4  11   33.20    9.10
   9   4 -11   45.50    4.40
  -9  -4 -11   38.40    4.10
   9   4 -11   36.80   14.70
  -9   4  11   28.50   12.30
   9  -4  11   20.70   19.10
   9  -4 -11   39.10    4.90
  -9  -4  11   44.20    9.50
   9   4  11   23.50   13.40
   9   4  11   13.30   19.60
  -9   4 -11   42.80    4.30
   9   4  11   10.30   29.80
  -9  -4  11   33.80    7.40
   9  -4 -11   44.20   19.70
   9   4  11   30.10    9.40
   9   6 -11  855.51   72.29
  -9   6  11  917.91   66.69
   9   6 -11  815.52   69.29
  -9  -6 -11  780.72   65.09
   9   6  11  954.10   67.49
  -9  -6  11  890.41   67.59
  -9   6 -11  810.62   64.89
   9   6  11  808.62   68.59
   9   6  11  735.53   73.79
  -9  -6  11  728.03   65.99
  -9   8  11   14.80    9.60
   9   8  11  -24.90   14.30
  -9   1  12  444.26   37.80
   9   1 -12  412.56   41.30
  -9   1  12  447.86   35.80
   9   1 -12  430.76   34.70
   9   1 -12  479.45   41.10
   9  -1  12  393.66   49.40
  -9  -1 -12  434.06   34.70
   9  -1 -12  441.46   34.80
  -9  -1  12  442.96   37.30
   9   1  12  381.46   51.29
  -9  -1  12  499.25   35.90
  -9   1 -12  436.36   34.70
   9  -1 -12  487.45   43.20
   9  -1 -12  448.16   39.90
   9   3 -12  506.25   44.40
   9   3 -12  478.05   46.80
  -9  -3 -12  492.25   39.40
  -9   3  12  506.45   40.70
   9   3 -12  500.25   39.30
  -9   3  12  487.15   42.90
   9   3  12  511.85   41.80
  -9  -3  12  498.35   40.30
   9   3  12  513.85   43.10
  -9  -3  12  522.45   41.60
   9  -3 -12  499.05   39.60
   9   3  12  566.94   50.19
   9  -3 -12  531.95   48.80
  -9   3 -12  482.95   39.30
   9   5 -12  220.48   31.40
   9   5 -12  197.28   15.50
   9   5 -12  160.88   23.00
  -9   5  12  230.88   21.00
  -9  -5 -12  183.78   15.90
  -9  -5  12  168.68   18.70
   9   5  12  229.08   26.20
   9   5  12  248.58   22.40
  -9   5 -12  163.58   15.80
   9  -5 -12  225.28   26.40
  -9  -5  12  215.78   21.60
   9  -5 -12  194.58   16.70
   9   5  12  159.88   28.20
  -9   7  12  109.89   11.40
  -9  -7 -12   77.29    8.90
   9   7 -12   76.99   23.20
   9  -7 -12   73.49    8.00
  -9   7 -12   68.09    7.60
   9   7  12   67.19   16.10
  -9  -7  12   40.50   10.90
   9   0 -13 1182.28   86.49
  -9   0  13 1016.20   82.79
   9   0 -13 1064.89   85.89
   9   0 -13 1015.10   81.99
  -9   0 -13 1011.10   81.99
  -9   0  13 1063.99   83.99
   9   2 -13   62.39   16.10
   9  -2  13   77.39   24.60
   9   2 -13   81.09   15.80
  -9  -2 -13   87.89    7.40
  -9   2  13   84.59    9.40
   9   2 -13   77.89    7.30
  -9   2  13   68.59   11.70
  -9   2 -13   84.99    7.40
  -9  -2  13   63.09   10.80
   9   2  13   92.49   10.40
   9   2  13   84.49   12.20
   9  -2 -13   89.09   18.30
   9   2  13   72.19   16.90
   9  -2 -13   85.79    7.80
   9   2  13   48.60   27.90
  -9  -2  13   77.59    9.20
  -9   4  13  379.76   30.20
   9   4 -13  368.46   38.10
   9   4 -13  363.06   27.80
  -9  -4 -13  339.37   27.90
  -9   4  13  371.16   33.70
   9   4 -13  346.47   34.70
  -9  -4  13  325.47   29.50
  -9   4 -13  325.87   27.80
   9   4  13  368.36   32.10
   9   4  13  335.97   43.10
   9  -4 -13  339.37   28.20
   9  -4 -13  418.56   41.10
  -9  -4  13  356.16   31.80
   9   4  13  369.06   33.60
  -9   6  13    4.30    9.30
   9  -6  13   -5.70   17.00
   9   6 -13   13.50   17.10
  -9  -6 -13   13.10    4.60
   9  -6 -13    9.30    4.80
   9   6  13    4.00   14.00
  -9   6 -13   13.10    3.40
  -9  -6  13    4.90    8.30
  -9   1  14  334.77   27.30
   9   1 -14  326.67   35.00
   9   1 -14  335.27   34.30
   9   1 -14  321.17   25.50
  -9   1  14  297.97   29.60
   9  -1  14  284.27   43.90
  -9  -1 -14  330.67   25.60
   9  -1 -14  310.57   33.00
  -9  -1  14  342.47   27.20
   9  -1 -14  335.97   37.10
  -9   1 -14  320.17   25.50
  -9  -1  14  339.47   29.00
   9  -1 -14  315.17   25.60
  -9   3  14  150.78   15.80
   9   3 -14  153.48   27.80
   9   3 -14  149.69   20.50
  -9   3  14  144.89   20.10
   9  -3  14   99.49   24.20
   9   3 -14  151.38   12.10
  -9  -3 -14  144.89   12.20
  -9   3 -14  147.39   12.00
   9  -3 -14  130.79   22.50
   9   3  14  172.18   21.10
  -9  -3  14  152.78   18.00
   9  -3 -14  140.69   12.70
  -9  -3  14  151.88   15.00
   9   5 -14   97.89   19.60
   9   5 -14  106.69    8.90
  -9   5  14  114.39   12.10
  -9  -5 -14   83.69    8.80
  -9  -5  14   52.79   10.70
   9   5  14   79.29   15.50
   9  -5 -14   91.59    9.80
  -9   5 -14   87.59    8.20
   9   0 -15  941.51   79.59
  -9   0  15 1045.00   76.89
  -9   0 -15  915.01   74.69
   9   0 -15  946.61   80.39
  -9   0  15  978.20   75.49
   9   0 -15  931.91   74.69
   9   2 -15   30.00   15.40
   9  -2  15    3.50   22.30
  -9   2  15   -2.60    6.70
  -9  -2 -15   16.60    3.00
  -9   2  15   12.70   10.10
   9   2 -15    5.30   18.30
   9   2 -15   22.90    3.00
  -9  -2  15   16.40    7.00
   9  -2 -15   16.40   17.90
   9  -2 -15   14.60    3.40
  -9  -2  15   16.40   10.10
  -9   2 -15   17.00    2.80
   9   2  15  -14.10   26.20
  -9  -4 -15  656.73   53.09
   9   4 -15  688.53   61.19
   9   4 -15  718.13   53.09
   9   4  15  789.72   56.99
  -9   4 -15  623.64   52.99
  -9  -4  15  649.34   54.29
   9  -4 -15  670.23   53.29
   9   1 -16  133.39   27.10
  -9  -1 -16  144.89   11.80
  -9   1  16  142.49   15.30
   9   1 -16  140.59   11.90
  -9   1  16  154.68   18.60
   9  -1 -16   88.29   20.50
  -9   1 -16  136.59   11.70
   9  -1 -16  150.48   12.00
  -9  -1  16  142.79   15.30
  -9  -3 -16   35.90    3.90
   9   3 -16   35.20   16.10
   9  -3  16   -8.20   19.20
  -9   3  16   26.00    7.70
   9   3 -16   32.00    3.80
   9  -3 -16   37.80    4.50
  -9  -3  16   23.90   11.80
  -9   3 -16   26.90    3.70
   9   3  16   20.80   27.70
   9   5 -16   88.79   20.10
   9  -5  16   22.60   18.80
  -9   5  16   70.29   10.50
  -9  -5 -16   63.89    7.30
  -9   5 -16   62.59    6.30
   9  -5 -16   54.19    6.60
   9   0 -17  356.76   26.70
  -9   0 -17  341.97   26.60
  -9   0  17  347.67   28.40
   9   0  17  247.48   44.30
   9   2 -17   38.80    4.00
   9  -2  17   22.50   21.40
   9   2 -17   44.60   16.70
  -9  -2 -17   30.70    4.10
  -9   2  17   25.60    8.00
   9  -2 -17   39.00    4.30
   9   2  17  -12.70   26.90
  -9   2 -17   27.50    3.70
   9   4 -17  149.88   31.20
   9   4 -17  141.89   12.30
  -9   4  17  126.49   15.90
  -9  -4 -17  137.29   11.90
  -9   4 -17  133.49   11.40
   9  -4 -17  130.99   12.30
  -9   1  18   97.69   11.50
  -9  -1 -18   94.99    8.80
   9   1 -18  101.19    9.00
   9  -1 -18   98.09    9.10
   9   1  18   50.49   26.80
  -9   1 -18  103.09    8.70
  10   0   0  -10.80   23.50
 -10   0   0   -9.40   19.10
  10   0   0    4.40    4.40
  10   0   0    2.10    4.30
  10   0   0    3.10    7.60
 -10   0   0    7.80    6.10
 -10   0   0    3.60    3.00
 -10   0   0   16.20    4.40
 -10  -2   0  300.67   26.90
  10  -2   0  303.47   29.70
 -10   2   0  303.37   25.40
  10   2   0  301.97   42.20
  10  -2   0  327.87   25.80
 -10   2   0  332.47   24.80
 -10   2   0  292.77   28.00
 -10   2   0  306.77   37.40
 -10  -2   0  303.87   32.20
 -10  -2   0  351.26   25.50
  10  -2   0  311.87   35.30
  10  -2   0  286.67   25.90
  10   2   0  312.47   26.40
  10   2   0  307.07   25.00
 -10   4   0    5.80    9.30
 -10   4   0   17.30    3.10
 -10  -4   0   17.70    6.20
  10  -4   0   26.80   13.60
  10   4   0   24.40   19.70
  10   4   0   25.40    4.20
 -10  -4   0   18.10    7.60
 -10   4   0   18.40   14.20
  10   4   0   13.50    6.20
  10  -4   0    7.70   13.30
 -10   4   0   21.90    6.60
 -10  -4   0   20.90    9.10
  10  -4   0   26.40    6.20
 -10   6   0  106.69   15.90
 -10   6   0  116.89   13.30
  10   6   0  136.69   16.60
 -10  -6   0  151.18   14.50
  10   6   0  121.19   30.00
 -10   6   0   78.59   20.80
  10  -6   0  104.79   11.70
 -10   8   0   31.60   14.60
 -10  -8   0   -7.70    7.70
 -10   8   0    8.70    7.80
  10   8   0    9.40   28.20
 -10   8   0  -11.30   11.10
  10   8   0   -4.00   10.80
  10   8   0   14.10   17.80
 -10   8   0    1.90   15.10
 -10   1   1  233.98   19.20
 -10   1   1  272.57   35.00
 -10  -1  -1  243.18   36.60
 -10  -1  -1  193.28   21.30
  10   1  -1  229.38   21.90
 -10  -1  -1  261.87   19.40
 -10  -1  -1  248.78   19.70
  10   1  -1  238.08   37.60
 -10   1   1  250.07   22.50
  10  -1   1  239.38   20.30
  10  -1   1  229.28   23.90
 -10   1   1  250.67   20.00
  10   1  -1  254.47   19.80
 -10  -1  -1  260.27   18.90
  10  -1   1  294.87   38.00
 -10   1  -1  247.68   19.70
  10  -1  -1  223.38   24.50
  10  -1  -1  212.88   19.90
  10   1   1  236.78   19.60
 -10  -1   1  205.18   19.90
 -10  -1   1  200.18   21.30
  10  -1  -1  238.08   38.20
  10   1   1  267.87   45.10
  10   1   1  226.58   21.20
 -10   1  -1  287.87   36.00
  10  -1  -1  245.98   20.70
 -10   1  -1  217.78   22.30
 -10   1  -1  256.07   19.90
 -10  -1   1  283.47   29.40
 -10  -3  -1  186.58   19.50
 -10   3   1  193.68   21.60
 -10   3   1  187.28   18.20
 -10  -3  -1  241.38   17.80
 -10   3   1  181.08   16.40
 -10   3   1  220.58   29.10
  10  -3   1  226.88   18.60
  10   3  -1  193.18   19.00
  10  -3   1  205.88   24.20
  10   3  -1  190.08   16.90
  10   3  -1  215.68   33.80
  10  -3   1  258.07   30.00
  10  -3   1  205.28   18.90
 -10  -3  -1  192.78   25.80
  10   3   1  196.78   38.50
 -10   3  -1  229.18   31.60
 -10   3  -1  197.58   17.90
  10   3   1  179.28   18.40
  10  -3  -1  215.48   18.00
  10  -3  -1  169.78   19.00
  10  -3  -1  254.97   26.40
  10  -3  -1  198.98   24.80
 -10  -3   1  198.58   22.20
 -10   3  -1  205.68   16.80
  10   3   1  199.88   16.90
 -10  -3   1  239.68   18.00
 -10   3  -1  206.18   21.20
 -10  -3   1  181.48   19.50
  10  -5   1  147.29   22.00
  10  -5   1  179.78   16.20
  10  -5   1  170.48   25.00
 -10   5   1  141.49   27.80
 -10  -5  -1  173.18   17.40
  10   5  -1  174.18   36.80
  10   5  -1  143.99   16.40
 -10   5   1  114.69   17.10
 -10   5   1  175.68   17.50
 -10   5   1  157.28   14.10
 -10  -5  -1  169.58   16.00
 -10   5  -1  151.38   21.10
 -10   5  -1  134.59   13.40
  10   5   1  166.98   17.70
 -10   5  -1  138.19   27.30
  10   5   1  143.79   28.30
  10  -5  -1  152.88   16.10
  10  -5  -1  164.18   19.40
 -10  -5   1  169.38   18.40
 -10  -5   1  157.18   16.30
  10  -5  -1  140.19   21.10
 -10   5  -1  128.99   16.80
 -10   7   1   36.80   13.80
 -10   7   1   43.30   11.00
 -10   7   1   41.60   13.50
  10   7  -1   39.80   25.90
  10   7  -1   54.09    9.60
 -10  -7  -1   48.40    8.90
 -10   7  -1   45.60   15.00
 -10   7  -1   52.19   11.00
 -10  -7   1   46.80   10.00
  10  -7  -1   39.30    8.00
  10   7   1   58.69   10.30
  10   7   1   33.50   28.20
 -10   7  -1   42.70    8.60
  10   7   1   15.90   16.80
  10   9  -1   -4.00   28.60
 -10   9   1    0.80   11.50
 -10  -9  -1   -7.10    8.30
  10   9   1   -2.50   33.20
 -10  -9   1    5.50    8.40
 -10   9  -1   -1.10    5.40
 -10   9  -1   15.30   12.40
  10   0   2  651.13   52.39
 -10   0   2  648.14   52.09
  10   0  -2  646.04   54.09
 -10   0  -2  653.63   52.59
  10   0  -2  631.14   52.29
 -10   0   2  740.63   56.99
 -10   0  -2  722.63   63.79
 -10   0   2  738.93   52.69
 -10   0  -2  672.93   52.19
 -10   0  -2  595.34   52.99
 -10   0  -2  680.73   52.49
  10   0  -2  645.84   52.69
  10   0   2  617.74   53.39
  10   0  -2  795.32   62.99
 -10   0   2  667.73   53.69
  10  -2   2    1.40    4.90
 -10  -2  -2   -1.70    4.80
  10  -2   2   -5.40    9.30
 -10   2   2    8.90    5.00
 -10   2   2    4.30    7.90
 -10  -2  -2    1.60    1.00
  10   2  -2    1.40    6.30
  10   2  -2    5.30   17.30
 -10  -2  -2    1.30    6.20
 -10   2   2   -0.30   15.90
 -10  -2  -2    4.40   16.10
  10   2  -2    0.00    3.60
  10  -2   2   -2.90   17.80
 -10   2   2    6.80    2.10
 -10   2  -2    9.80    4.50
  10  -2  -2    9.60    5.80
  10   2   2    1.70    1.90
 -10  -2   2    6.00    6.20
 -10  -2   2    3.90    7.90
 -10   2  -2    8.10    7.30
  10   2   2    4.20    3.80
 -10   2  -2    9.50   19.70
 -10   2  -2    2.30    4.10
  10   2   2    0.30   27.80
  10  -2  -2    5.10    3.60
  10   2   2    3.50    5.40
  10  -2  -2    3.70   15.80
 -10  -2   2    9.00    4.90
  10  -2  -2   -7.70   10.30
 -10   4   2  115.29   17.30
 -10   4   2  117.29   13.10
 -10   4   2   81.19   16.30
 -10  -4  -2  103.89   14.10
  10   4  -2   97.29   23.40
  10   4  -2  116.49   13.50
  10  -4   2  107.49   19.50
 -10  -4  -2  109.89   12.70
 -10  -4  -2   99.29   21.60
 -10   4   2  102.69    9.00
  10   4  -2   95.49   10.00
  10  -4   2   95.89   16.70
 -10   4  -2  109.69    9.80
  10  -4  -2  123.49   18.00
  10   4   2   76.89   25.70
  10  -4  -2  104.09   11.40
 -10   4  -2  109.79   15.90
 -10   4  -2  109.79   10.20
 -10  -4   2  120.99   14.40
 -10   4  -2  106.89   11.30
  10   4   2  113.89   13.70
 -10  -4   2  111.19   12.30
  10   4   2   93.19   10.40
  10  -4  -2   97.39   11.60
 -10   4  -2  105.59   19.10
 -10   6   2   -1.20    9.20
  10   6  -2   -0.80    8.60
 -10   6   2   -2.50   17.10
 -10   6   2    6.30    9.00
 -10  -6  -2   -2.00    8.40
  10  -6   2    0.30   13.30
  10   6  -2   -2.60   22.70
 -10   6   2  -17.10   11.30
 -10  -6   2    0.30    7.00
  10  -6  -2   -3.10   19.60
  10   6   2   -4.70    8.10
 -10  -6   2    0.00    7.70
  10  -6  -2  -17.10    7.40
 -10   6  -2   18.00    8.20
  10   6   2    3.60   29.70
 -10   6  -2    1.40    4.00
 -10   6  -2   -1.50   15.80
 -10   6  -2    0.80   10.80
  10   8  -2   -3.50   17.10
 -10  -8  -2    3.90    7.70
  10   8  -2    2.20    9.70
 -10   8   2    8.40   10.90
  10   8  -2    7.40   26.20
 -10   8   2   13.30    8.90
 -10   8   2    5.10   13.70
  10   8   2   15.70   33.90
 -10  -8   2    6.90    9.30
 -10   8  -2   11.70   14.00
 -10   8  -2   24.30    6.60
  10   8   2  -14.20   18.50
  10  -8  -2   15.80    7.40
 -10   8  -2  -11.60   11.10
 -10   8  -2   12.00    8.20
 -10   1   3   38.90    8.20
  10  -1   3   30.70    5.30
  10   1  -3   37.40    3.60
 -10  -1  -3   31.00    7.20
 -10   1   3   37.10    5.70
 -10  -1  -3   16.30   21.20
  10  -1   3   36.60   22.30
  10   1  -3   39.30    5.50
  10  -1   3   27.30    8.20
  10   1  -3   38.00    8.10
 -10   1   3   37.40    4.10
 -10  -1  -3   36.70    3.70
 -10  -1  -3   49.30    5.60
 -10   1   3   35.60   10.60
  10   1  -3   40.00   17.00
 -10   1  -3   68.49   21.10
 -10   1  -3   38.00    4.60
 -10   1  -3   40.80    5.40
 -10  -1   3   60.39    5.90
  10   1   3   26.50   27.30
 -10   1  -3   33.10    4.00
  10   1   3   39.70    4.70
  10  -1  -3   48.50   19.80
  10  -1  -3   38.10    4.10
 -10  -1   3   35.20    3.40
  10   1   3   31.80    6.40
 -10   1  -3   38.90    5.80
  10   1   3   46.20    4.70
 -10  -1   3   30.20    9.10
 -10  -1   3   47.50    7.20
  10  -1  -3   21.60    9.50
  10  -1  -3   25.90    6.30
  10   3  -3   36.30   15.70
 -10  -3  -3   38.30    7.80
 -10   3   3   33.30    7.20
  10   3  -3   39.10    7.60
  10  -3   3   26.10   18.30
 -10  -3  -3   32.20    6.40
 -10  -3  -3   45.30   17.20
 -10   3   3   37.30    4.50
  10   3  -3   34.90    5.10
  10  -3   3   40.50   11.90
 -10  -3  -3   38.00    3.70
 -10   3   3   39.00   10.20
 -10   3  -3   38.20    5.10
  10  -3  -3   35.20    4.90
  10   3   3   37.40    3.70
  10   3   3   26.60   27.30
 -10   3  -3   26.50    5.40
 -10   3  -3   51.19   19.30
 -10  -3   3   44.00    8.50
  10   3   3   44.90    5.10
  10  -3  -3   35.50    7.00
  10  -3  -3   43.50   13.90
 -10   3  -3   40.20    4.70
 -10   3  -3   34.30    7.60
  10   3   3   38.90    7.10
 -10  -3   3   37.10    6.40
 -10   5   3   52.39    9.00
 -10  -5  -3   64.79    9.30
 -10   5   3   42.00   11.10
 -10  -5  -3   43.80    5.10
  10   5  -3   65.79    9.20
  10   5  -3   53.39   19.90
  10  -5   3   65.99   17.90
 -10   5  -3   40.60    5.90
 -10   5  -3   54.39   17.90
 -10  -5   3   47.40    8.40
 -10   5  -3   49.80    6.00
  10   5   3   47.80    9.10
  10  -5  -3   57.59   17.20
 -10   5  -3   36.40    9.90
 -10  -5   3   60.69   10.00
  10   5   3   68.19   31.90
 -10   5  -3   48.80    7.70
  10  -5  -3   58.89    7.10
  10   5   3   56.69    4.70
 -10   7   3    1.30   13.00
 -10  -7  -3    3.20    7.40
  10  -7   3    4.90   14.60
  10   7  -3    4.30   23.40
  10   7  -3    9.10    8.70
 -10   7   3   -4.60    9.40
  10  -7  -3   11.50    8.60
 -10   7  -3    0.40    5.50
 -10  -7   3   14.20    7.80
  10   7   3   -3.20    9.60
 -10   7  -3    2.80   11.30
 -10   7  -3    0.40    8.60
  10   7   3   17.40   32.60
  10   7   3    6.10   16.50
 -10   7  -3   -6.20    9.00
 -10   9   3   11.60   11.00
  10   9  -3   -0.50   30.10
  10   9   3    9.00   39.70
  10  -9  -3    0.10    7.60
 -10   9  -3  -15.30   11.90
 -10   9  -3    0.70    4.80
 -10  -9   3    0.30    8.10
 -10   0   4  176.58   20.40
 -10   0   4  205.88   17.50
  10   0   4  187.58   16.20
  10   0  -4  247.08   29.70
  10   0  -4  174.48   21.30
 -10   0  -4  203.48   16.40
 -10   0  -4  226.88   35.70
  10   0   4  218.08   16.10
  10   0   4  192.98   39.10
 -10   0  -4  216.68   15.80
  10   0  -4  173.88   17.20
 -10   0   4  210.18   19.80
 -10   0  -4  170.38   17.40
 -10   0   4  206.18   15.60
  10   0  -4  191.88   15.80
  10   0   4  175.68   17.70
  10   2  -4  491.55   41.00
 -10  -2  -4  540.05   40.30
 -10  -2  -4  525.25   51.89
  10  -2   4  599.64   51.39
 -10   2   4  476.15   42.90
  10   2  -4  460.25   42.60
 -10   2   4  538.15   41.20
 -10  -2  -4  566.84   41.20
 -10  -2  -4  478.75   41.90
 -10   2   4  528.85   40.40
  10   2  -4  543.55   47.70
  10   2   4  533.85   40.40
 -10  -2   4  544.95   41.10
  10   2   4  459.55   41.60
  10  -2  -4  501.55   40.60
  10   2   4  587.84   59.49
 -10   2  -4  551.94   52.59
 -10   2  -4  531.85   41.00
 -10   2  -4  546.95   40.60
 -10  -2   4  459.55   41.90
  10   2   4  512.55   40.80
  10  -2  -4  481.85   44.90
  10  -2  -4  499.85   41.40
 -10  -4  -4   14.00    6.80
 -10  -4  -4    1.60   12.80
  10  -4   4   -1.40   18.20
  10   4  -4    6.40   15.90
  10   4  -4    3.00    7.50
 -10  -4  -4    0.30    2.30
  10   4  -4    7.70    4.10
 -10   4   4    5.20    6.80
 -10   4   4   -1.10   10.20
  10  -4  -4  -16.60   14.40
  10   4   4   -0.70    4.10
 -10   4  -4    9.70    3.60
 -10   4  -4    1.90    7.60
 -10   4  -4    1.50    4.10
  10  -4  -4    6.30    4.50
 -10  -4   4   -0.60    6.10
  10   4   4  -12.10   29.00
  10   4   4    6.60    7.00
 -10   4  -4    4.10    3.50
  10   4   4    3.40    1.50
 -10   4  -4    2.90   17.90
  10  -4  -4    3.20    6.40
 -10  -4   4    7.10    7.60
  10   6  -4   24.30   18.70
 -10  -6  -4   34.10    8.50
 -10   6   4   36.00    9.10
  10   6  -4   34.80    9.30
 -10   6   4   31.90   11.10
 -10  -6  -4   20.10    4.30
  10  -6   4   25.00   16.20
 -10   6  -4   16.60    8.20
  10   6   4   16.70   32.70
 -10  -6   4   37.70    9.50
 -10   6  -4   27.40    8.80
  10  -6  -4   44.00   20.80
  10   6   4   17.10   17.90
  10   6   4   40.30    9.40
 -10   6  -4   32.00    5.60
  10  -6  -4   37.70    7.00
 -10  -6   4   21.40    8.40
 -10   6  -4   25.20   10.90
  10   8  -4    1.00    9.80
 -10   8   4   -2.00   10.20
 -10   8   4   -2.10   13.40
  10   8  -4   12.70   25.00
 -10   8  -4    3.10    5.10
  10   8   4   -4.30   36.80
 -10  -8   4    0.00    8.60
  10  -8  -4   11.00    9.20
 -10   8  -4   17.50   10.30
  10   1  -5   26.10   13.00
  10  -1   5   27.40    4.10
 -10  -1  -5   32.40   22.10
 -10  -1  -5   28.70    2.80
 -10   1   5   28.80    3.30
  10   1  -5   21.40    7.80
 -10   1   5   32.30    8.00
 -10  -1  -5   31.40    6.10
  10  -1   5   18.50   20.60
  10   1  -5   35.10    2.90
 -10  -1  -5   28.00    5.00
  10   1  -5   25.80    5.20
  10   1  -5   33.00    8.60
 -10   1   5   26.80    5.70
 -10  -1   5   29.30    7.80
 -10   1  -5   19.30   19.30
  10   1   5   30.80    3.10
  10  -1  -5   24.40    7.10
  10   1   5   28.00    4.10
  10   1   5   27.00    5.70
  10  -1  -5   22.90   15.60
 -10   1  -5   25.80    3.40
  10  -1  -5   25.00   11.60
  10   1   5   21.50   28.40
 -10  -1   5   26.60    5.60
 -10  -1   5   34.10    3.00
  10  -1  -5   21.90    6.00
  10  -1  -5   27.10    3.40
  10   3  -5   -0.70    6.90
 -10  -3  -5    6.80    5.70
 -10   3   5   13.20    6.50
  10   3  -5    1.60   14.30
  10  -3   5    3.20   19.50
  10   3  -5    0.40    7.20
 -10  -3  -5   -7.80   17.60
 -10   3   5    2.50    8.50
  10   3  -5   -5.40    3.80
 -10  -3  -5   -1.70    1.70
 -10   3   5   -0.60    1.70
 -10   3  -5    3.40    4.30
 -10  -3   5   -3.40    5.60
 -10   3  -5    0.30    3.30
  10   3   5   -3.90    3.60
  10   3   5   12.20   29.70
 -10   3  -5    6.20   17.90
  10   3   5   -6.60    5.90
  10  -3  -5   -4.40    5.50
 -10  -3   5   -5.50    7.40
  10  -3  -5    2.10    3.20
  10   3   5    0.40    1.60
  10  -3  -5   -8.10   13.50
 -10  -5  -5    4.20    3.10
  10  -5   5  -10.70   17.90
 -10  -5  -5   -0.10    6.60
 -10   5   5   -0.60   10.00
  10   5  -5   -0.50   18.10
 -10   5   5   -0.20    7.80
  10   5  -5    3.90    7.60
 -10   5  -5   -0.10    5.90
 -10  -5   5   -0.50    6.90
 -10   5  -5    1.80    6.60
  10  -5  -5   -6.50    5.10
  10   5   5    5.60    7.70
 -10   5  -5    3.10    9.30
 -10   5  -5    2.60    4.50
  10   5   5    1.60    1.70
 -10  -5   5    4.50    7.90
  10   5   5   29.70   17.40
  10   5   5   -8.00   29.20
  10  -5  -5   -2.80   15.80
 -10   7   5    4.70    9.30
  10   7  -5    2.80   19.80
 -10   7   5  -17.50   11.50
  10  -7   5   16.40   14.80
  10   7  -5   -1.30    8.40
 -10  -7  -5    0.20    8.60
 -10  -7  -5   -2.60    4.40
 -10   7  -5    4.00    4.50
 -10   7  -5    4.90    9.40
  10   7   5   11.50   10.70
 -10   7  -5   -3.10   11.80
 -10  -7   5    2.30    8.50
  10  -7  -5    9.30    6.50
 -10  -7   5    1.20    7.70
  10   7   5   -5.60   33.10
  10  -7  -5  -15.20   21.90
  10   7   5  -21.50   17.90
  10   9  -5  -20.20   26.40
 -10   9   5    3.00    9.80
  10   9   5   30.50   39.70
 -10   9  -5   -1.70   13.60
  10  -9  -5    0.20    9.30
 -10   9  -5    0.00    4.70
  10   9   5   18.20   13.40
 -10  -9   5    7.00    8.40
  10   0  -6    5.80    9.50
 -10   0   6   -3.20    5.70
  10   0  -6   -3.80   11.80
 -10   0   6    3.60    1.30
 -10   0   6    6.60    8.30
  10   0  -6    4.40    2.10
  10   0   6    2.40    2.40
  10   0  -6    3.10    7.70
  10   0  -6    6.10    5.30
 -10   0  -6    4.10    1.80
 -10   0  -6    2.20   21.10
  10   0   6    3.20   23.10
 -10   2   6  167.18   13.20
  10   2  -6  167.38   18.60
  10  -2   6  149.59   32.80
  10   2  -6  170.68   26.00
 -10   2   6  165.48   18.80
 -10   2   6  171.98   15.50
  10   2  -6  162.28   19.30
  10   2  -6  153.28   14.50
 -10  -2  -6  173.58   13.20
  10   2  -6  175.18   13.20
 -10  -2  -6  176.98   15.50
 -10  -2  -6  159.88   26.70
 -10   2  -6  145.39   32.30
  10   2   6  140.59   16.30
 -10   2  -6  179.38   13.70
 -10  -2   6  139.49   17.00
 -10  -2   6  166.38   15.10
  10  -2  -6  168.18   13.80
  10  -2  -6  155.08   15.80
 -10  -2   6  179.48   13.20
  10   2   6  164.38   14.10
  10  -2  -6  155.78   23.40
  10   2   6  164.68   13.30
  10   2   6  155.48   33.30
 -10  -4  -6   10.80   17.70
 -10   4   6    6.40    7.30
 -10  -4  -6    3.30    2.50
 -10   4   6    8.30    9.80
 -10  -4  -6   18.00    6.60
  10   4  -6   10.40    8.50
  10  -4   6   -4.20   19.10
  10   4  -6   14.30   16.70
 -10  -4   6   11.00    8.50
  10   4   6   22.80   18.40
  10   4   6    8.40   31.70
  10  -4  -6   -9.20   16.60
 -10   4  -6    6.30    3.30
  10   4   6    6.50    7.40
 -10  -4   6   11.20    6.00
  10   4   6    4.30    1.80
  10  -4  -6    4.40    3.70
 -10   6   6   36.70    9.40
 -10   6   6   11.50   11.60
  10  -6   6   12.80   17.20
  10   6  -6   32.20   19.30
 -10  -6  -6   20.60    4.50
 -10  -6  -6   21.10    8.10
  10   6  -6   19.80    9.80
  10   6   6   20.80   33.20
 -10   6  -6   29.60    4.50
  10  -6  -6   23.30    5.80
  10   6   6   31.40    9.10
 -10   6  -6   17.40   11.30
  10   6   6   32.80   18.20
 -10  -6   6   19.90    9.50
 -10  -6   6    5.70    7.90
  10  -6  -6   52.19   19.70
 -10   6  -6   26.60    7.30
 -10   8   6   -5.90    9.90
  10  -8   6    2.60   16.50
  10   8  -6    2.60   21.70
 -10  -8   6    9.20    8.60
 -10   8  -6    2.40    4.60
  10   8   6   -6.60   36.90
  10  -8  -6   -0.90    7.10
 -10   1   7   85.89   10.30
  10   1  -7   95.19   12.80
  10  -1   7   76.99    7.80
 -10  -1  -7   92.29   23.60
  10  -1   7   64.49   24.00
 -10  -1  -7   86.09    9.40
  10   1  -7   80.99   15.00
  10   1  -7   70.19   12.00
 -10   1   7   76.89    6.80
  10   1  -7   72.79    9.70
  10   1  -7   85.99    7.00
 -10   1   7   90.29   10.90
 -10  -1  -7   84.39    7.00
  10  -1  -7   79.59   15.30
  10  -1  -7   84.09   12.20
 -10  -1   7   88.09    6.80
 -10   1  -7   74.89   22.60
  10   1   7   70.79   10.70
  10   1   7   73.79    8.30
 -10  -1   7   85.99   10.30
  10   1   7   81.99   17.30
  10   1   7   62.09   26.70
  10  -1  -7   66.39    9.10
 -10   1  -7   87.39    7.20
  10   1   7   86.29    7.20
  10  -1  -7   87.99   13.70
 -10  -1   7   80.09   10.40
  10  -1  -7   84.09    7.50
 -10  -3  -7  218.18   16.40
  10   3  -7  187.38   21.60
  10   3  -7  172.38   17.70
  10   3  -7  215.18   16.20
  10   3  -7  214.38   29.10
  10   3  -7  207.38   26.20
 -10  -3  -7  160.68   36.20
 -10   3   7  197.28   22.70
  10  -3   7  239.48   36.20
 -10  -3  -7  213.78   18.80
 -10   3   7  209.88   19.60
  10   3   7  210.08   25.90
 -10   3  -7  229.68   16.80
  10  -3  -7  212.38   17.10
  10   3   7  194.48   19.40
  10   3   7  203.98   16.40
  10   3   7  220.48   38.30
 -10  -3   7  219.48   18.00
 -10  -3   7  204.18   19.90
 -10  -3   7  199.98   16.40
  10   3   7  184.38   17.10
  10  -3  -7  206.68   23.10
 -10  -5  -7  123.59   15.60
 -10   5   7  152.78   20.70
  10   5  -7  131.49   21.70
 -10   5   7  126.59   15.80
 -10  -5  -7  138.99   10.90
  10   5  -7  115.09   16.70
  10  -5   7  112.09   23.00
  10   5   7   91.19   22.40
  10   5   7  122.59   17.10
 -10  -5   7  139.89   14.30
  10  -5  -7  137.39   22.80
  10   5   7  117.69   10.40
 -10   5  -7  122.79   11.50
 -10  -5   7  130.39   16.60
  10  -5  -7  137.39   12.00
  10   5   7  101.39   37.70
  10   7  -7   31.50   10.00
  10   7  -7   27.40   20.30
 -10   7   7   25.00   11.00
  10  -7   7   22.10   16.70
 -10  -7  -7   24.20    5.30
 -10   7   7   41.10    9.10
 -10  -7   7   20.40    9.60
  10   7   7   42.60   11.40
 -10   7  -7   31.10    4.80
  10   7   7   12.60   17.60
 -10  -7   7   21.50    8.20
  10  -7  -7   25.00    6.90
  10  -7  -7   31.00   20.50
  10   7   7   19.40   36.90
  10   9  -7   14.20   26.70
 -10   9   7    0.10   10.00
  10  -9  -7   -7.70    9.30
  10   9   7   15.00   14.30
 -10   9  -7    6.50    4.90
 -10  -9   7   -2.30    9.00
 -10   0   8  180.48   14.20
  10   0  -8  169.48   16.60
 -10   0  -8  172.18   28.20
 -10   0  -8  187.48   14.40
 -10   0   8  183.38   19.20
  10   0  -8  174.58   14.40
  10   0  -8  174.18   24.10
  10   0   8  162.18   14.50
  10   0   8  211.98   37.50
  10   0  -8  185.58   25.10
  10   0  -8  191.58   22.20
 -10   0   8  193.68   16.50
 -10   2   8   42.70    4.30
 -10  -2  -8   25.00   23.80
 -10  -2  -8   44.00    4.70
  10  -2   8   39.10   20.70
  10   2  -8   32.90   10.80
  10   2  -8   39.30   12.90
  10   2  -8   53.49   10.60
 -10   2   8   40.40    9.90
  10   2  -8   40.20    6.50
  10   2  -8   51.19    4.50
  10   2   8   52.29   18.00
 -10   2  -8   51.19    5.30
  10   2   8   50.29    6.30
  10  -2  -8   47.90    4.80
 -10  -2   8   44.60    4.60
  10  -2  -8   48.70   14.60
 -10  -2   8   54.79    6.60
 -10  -2   8   39.50    8.30
  10   2   8   27.90   28.00
  10   2   8   41.20    4.80
  10   2   8   61.29    7.50
 -10   4   8   -8.00    9.40
  10  -4   8   -7.70   20.10
  10   4  -8   -2.20    9.20
  10   4  -8   -1.40    1.70
  10   4  -8    2.70   14.10
 -10   4   8   -3.90    7.60
 -10  -4  -8    2.30    2.60
  10  -4  -8    1.20    4.30
  10   4   8   -3.50   33.30
  10   4   8   -1.50    2.00
 -10  -4   8    1.10    8.10
  10   4   8    2.10   18.40
 -10  -4   8   -1.60    2.80
  10   4   8    3.90    7.60
  10  -4  -8  -16.60   16.70
 -10   4  -8    2.80    3.30
 -10  -4   8    3.90    6.40
 -10  -6  -8   11.30    4.30
  10   6  -8   20.90    9.80
  10  -6   8    2.30   18.20
  10   6  -8   17.10   18.60
 -10   6   8   29.80   11.80
 -10   6   8   41.90    9.10
 -10   6  -8   20.80    3.90
 -10  -6   8   28.50    7.70
  10  -6  -8    8.70   21.40
 -10  -6   8   16.60    9.40
  10   6   8   21.90   35.30
  10   6   8   15.30   17.90
  10   6   8   27.40    9.30
  10  -6  -8   13.80    5.10
 -10   8   8    2.00    8.40
  10  -8   8   -1.90   16.00
  10   8  -8    7.80   22.00
 -10  -8   8    4.60    8.90
  10   8   8    7.90   13.70
  10  -8  -8    1.70    6.40
  10   8   8   11.90   42.20
 -10   8  -8    4.40    4.30
  10   1  -9   15.90   12.50
 -10   1   9    4.60    1.70
  10   1  -9    9.20    6.10
  10   1  -9   -6.40   11.10
  10  -1   9    8.60   22.70
 -10   1   9    6.00    5.60
  10   1  -9    5.40    2.20
  10   1  -9   -0.10   11.20
 -10  -1  -9    6.10    2.10
 -10   1   9   10.50    7.80
 -10  -1  -9   12.30   22.90
 -10  -1   9    2.30    1.80
  10   1   9    3.90    3.50
  10   1   9    4.40    5.90
  10  -1  -9    5.60   12.30
  10   1   9    1.10    2.20
 -10  -1   9    3.50    7.50
  10  -1  -9    1.60   12.10
  10   1   9  -10.70   26.00
 -10  -1   9   11.40    5.80
  10   1   9   -0.20    8.90
 -10   1  -9    4.80    2.30
  10  -1  -9    2.50   12.90
  10  -1  -9    6.20    2.60
  10   1   9    2.50   14.60
 -10   3   9    5.80    7.10
 -10  -3  -9   -2.50    2.40
  10  -3   9    4.40   21.70
  10   3  -9   10.80   10.10
 -10   3   9    1.70   10.10
  10   3  -9    2.90    1.90
  10   3  -9   -0.80   12.90
  10  -3  -9    4.80    3.40
  10  -3  -9  -16.30   15.30
 -10   3  -9    2.50    2.90
 -10  -3   9    6.00    5.80
  10   3   9    8.00    4.10
  10   3   9   -2.60    6.80
 -10  -3   9    0.30    2.10
  10   3   9   14.50   19.30
  10   3   9   -1.30   31.30
 -10  -3   9   -2.00    7.30
  10  -5   9   -8.30   19.20
 -10  -5  -9    1.20    3.30
 -10   5   9    3.10   11.40
 -10   5   9    1.90    8.70
  10   5  -9  -12.10    9.70
  10   5  -9   -0.80    2.00
  10   5  -9   -2.20   16.30
  10   5   9    0.50   33.90
  10  -5  -9    0.00    5.00
  10  -5  -9    3.80   17.40
  10   5   9   -4.60   20.20
 -10  -5   9    1.30    6.80
  10   5   9   -8.30    8.60
  10   5   9  -18.60   13.90
 -10  -5   9    7.00    8.50
 -10   5  -9   -0.30    3.20
 -10   7   9   -0.50    8.30
 -10  -7  -9   -0.80    4.70
  10  -7   9   -6.90   16.10
  10   7  -9   -8.60   20.70
  10   7  -9   -9.40   10.90
  10   7   9   14.00   14.30
 -10  -7   9  -10.50    8.00
  10  -7  -9   -9.40    5.70
 -10  -7   9   -3.50    9.60
 -10   7  -9    0.10    3.70
  10   7   9   -5.50   37.70
 -10   0  10  592.74   45.80
  10   0  10  497.45   58.89
  10   0 -10  582.24   49.40
  10   0 -10  575.04   44.80
  10   0 -10  578.74   50.29
 -10   0  10  589.14   47.30
 -10   0 -10  586.04   44.80
  10   0 -10  569.04   50.69
 -10   0  10  566.04   44.80
  10   2 -10  113.19   23.30
  10  -2  10  136.49   26.60
 -10   2  10  112.19   17.20
 -10   2  10  116.89   13.40
 -10  -2 -10  128.49   10.20
  10   2 -10  129.79   16.10
  10   2 -10  123.99   10.00
 -10  -2  10  124.49   12.90
  10  -2 -10  132.09   10.80
 -10  -2  10  109.49   15.70
 -10  -2  10  131.29   10.10
  10   2  10  114.49   14.70
 -10   2 -10  125.49   10.30
  10  -2 -10  118.59   18.80
  10   2  10   95.29   11.10
  10   2  10  119.09   20.10
  10   2  10  105.29   14.10
  10   2  10  105.29   31.20
 -10   4  10  223.48   21.70
 -10   4  10  211.58   25.10
  10   4 -10  203.18   23.70
  10   4 -10  242.28   30.40
  10   4 -10  230.58   17.60
  10  -4  10  204.48   35.70
 -10  -4 -10  225.88   17.70
 -10  -4  10  212.78   19.90
  10   4  10  241.28   26.80
  10   4  10  136.49   38.20
 -10   4 -10  217.88   17.80
  10  -4 -10  227.58   18.40
  10  -4 -10  257.57   34.80
  10   4  10  191.58   28.40
 -10  -4  10  220.58   22.40
  10   4  10  239.78   22.00
  10  -6  10   14.30   18.20
  10   6 -10    9.00   18.90
 -10  -6 -10   10.10    4.40
  10   6 -10    6.90   11.10
 -10   6  10   10.00    8.50
 -10   6  10    9.20   11.10
 -10   6 -10   24.70    3.70
  10   6  10    2.50   34.30
  10   6  10   -3.80   18.70
  10   6  10   17.00   14.70
 -10  -6  10   11.00    7.40
  10  -6 -10   11.00    4.60
 -10  -6  10   11.20    9.30
  10   6  10   -2.30    9.30
  10   8 -10   46.40   23.80
  10  -8  10   15.40   16.20
 -10   8  10   53.69   10.40
  10   8  10   31.50   15.90
 -10  -8  10   29.80    9.70
  10  -8 -10   33.20    8.30
 -10   8 -10   53.39    5.50
  10   1 -11   11.20   11.80
  10  -1  11   17.20   24.10
 -10   1  11    7.80    9.30
  10   1 -11    1.80   13.60
  10   1 -11    7.40   13.40
 -10  -1 -11    4.60    2.50
  10   1 -11    7.10    2.50
 -10   1  11    6.90    6.00
  10  -1 -11   -6.90   14.40
  10   1  11    7.00   27.50
 -10  -1  11   16.30    6.20
 -10  -1  11    2.00    8.00
  10  -1 -11    0.40   14.40
 -10   1 -11    5.10    2.60
  10  -1 -11    5.60    2.80
  10  -1 -11    3.80   12.80
  10  -3  11    9.30   20.70
  10   3 -11    0.70   13.50
 -10  -3 -11   -1.90    2.70
  10   3 -11    0.60    2.20
  10   3 -11    5.40   11.70
 -10   3  11   -1.10    6.60
 -10   3  11   -6.80    8.90
  10   3  11   10.60   29.90
  10   3  11    5.50    7.50
 -10  -3  11   -0.80    6.10
 -10   3 -11   -0.80    2.80
  10   3  11  -10.00   18.80
  10  -3 -11   -6.10    3.60
  10   3  11   18.80   12.40
  10  -3 -11    5.60   15.70
 -10  -3  11   -1.00    7.70
 -10  -5 -11   12.90    3.70
  10   5 -11   11.60    2.60
  10  -5  11   13.80   18.80
 -10   5  11   -4.80   10.90
  10   5 -11   27.30   16.30
 -10   5  11    4.90    8.80
  10   5 -11   11.00   11.20
  10  -5 -11   31.80   20.30
  10  -5 -11    7.50    4.60
  10   5  11   14.40   20.10
 -10  -5  11   15.60    9.50
  10   5  11    2.50    8.90
  10   5  11    3.30   31.20
  10   5  11   14.30   14.20
 -10   5 -11   14.70    3.30
 -10  -5  11   12.20    7.20
 -10   7  11   -3.30    9.50
  10  -7  11    5.10   16.50
 -10  -7 -11   -1.90    4.70
  10   7 -11  -18.20   20.40
 -10  -7  11   -2.90    8.40
  10  -7 -11    5.20    5.40
  10   7  11   14.70   14.90
 -10   7 -11    3.40    3.30
 -10   0  12   82.79    8.70
  10   0  12   29.40   24.80
  10   0 -12   52.49    6.10
 -10   0 -12   49.10    5.80
  10   0 -12   53.39   13.70
  10   0 -12   68.29   16.90
 -10   0  12   79.99   11.40
  10  -2  12   17.20   22.70
 -10   2  12   -0.70    9.10
  10   2 -12   -4.10   14.20
  10   2 -12   -4.40   12.70
 -10   2  12    2.90    6.80
 -10  -2 -12   -1.80    2.50
  10   2 -12    0.20    2.40
  10   2  12   -6.40   10.10
  10   2  12    0.70   27.80
  10  -2 -12   -6.10   16.20
 -10  -2  12    6.40    6.20
  10  -2 -12   -0.40    3.20
 -10   2 -12   -1.50    2.50
  10   2  12  -16.60   16.70
 -10  -2  12    5.50    8.30
  10   2  12   -3.20    6.60
  10   4 -12   69.49    6.60
 -10  -4 -12   60.69    6.90
  10  -4  12   53.99   21.00
  10   4 -12   72.19   16.90
 -10   4  12   71.39   13.00
 -10   4  12   70.49    9.70
  10   4 -12   58.79   14.20
  10   4  12   59.49   23.70
  10  -4 -12   75.69   21.40
  10   4  12   56.99   15.00
  10   4  12   23.60   30.90
 -10  -4  12   73.09    9.20
  10  -4 -12   69.89    8.10
 -10   4 -12   70.09    6.80
 -10  -4  12   69.29   11.20
  10   4  12   77.79   10.90
 -10  -6 -12    7.70    4.60
 -10   6  12   -3.80    9.30
  10   6 -12    7.90   19.00
  10  -6  12  -14.80   17.70
  10   6  12   -4.40   34.20
 -10  -6  12   -7.40    7.60
  10   6  12  -14.40   14.50
  10  -6 -12   -1.20    4.80
 -10   6 -12    8.30    3.10
  10   6  12    0.20   24.20
  10   1 -13   36.10    3.70
  10   1 -13   26.50   15.40
 -10  -1 -13   35.50    3.80
  10  -1  13   39.00   24.30
  10   1 -13   32.70   13.70
 -10   1  13   34.00    7.20
 -10   1  13   46.70   10.00
  10   1  13   17.70   26.30
 -10  -1  13   27.90    7.20
 -10   1 -13   32.30    3.70
  10  -1 -13   27.50   17.10
  10  -1 -13   27.70    4.00
  10  -1 -13   30.50   14.30
 -10  -1  13   35.30    9.40
  10   3 -13   30.80   14.90
 -10   3  13   27.80   10.20
  10   3 -13   31.70   14.90
 -10  -3 -13   27.90    3.90
 -10   3  13   29.20    7.60
  10   3 -13   25.60    3.40
  10  -3  13    2.20   21.80
  10   3  13   32.30   12.20
  10  -3 -13   11.70   18.10
  10   3  13   48.80    9.10
 -10  -3  13   23.50    7.10
  10  -3 -13   33.20    4.30
  10   3  13    2.60   19.80
 -10  -3  13   15.30    9.00
 -10   3 -13   30.80    3.50
  10   3  13    7.10   29.30
 -10   5  13   17.60    8.30
  10   5 -13    8.30    4.80
  10   5 -13   23.60   17.00
  10  -5  13   -4.60   17.70
 -10  -5 -13    7.60    3.80
  10  -5 -13   12.70    4.70
  10   5  13   -3.80   31.20
 -10   5 -13   11.90    3.00
 -10  -5  13    7.80    7.60
  10   5  13    6.20    9.60
  10   5  13   -6.00   14.40
  10   5  13  -15.70   22.80
  10   0  14    7.30   23.70
 -10   0  14   18.30    7.20
 -10   0  14   11.50    9.70
  10   0 -14   16.10   14.10
  10   0 -14    3.50   16.10
 -10   0 -14   16.10    2.80
  10   0 -14   16.70    3.20
  10   2 -14   67.69    6.60
 -10   2  14   84.89   11.90
  10  -2  14   33.00   24.70
  10   2 -14   71.89   16.00
  10   2 -14   80.19   17.40
 -10  -2 -14   63.19    6.60
 -10   2  14   77.29    8.80
  10   2  14   56.79   10.80
 -10  -2  14   65.39    8.60
 -10   2 -14   68.19    6.50
  10  -2 -14   70.79    7.30
  10  -2 -14   89.89   18.70
  10   2  14   26.60   27.80
 -10  -2  14   53.49   10.40
 -10  -4 -14    4.50    3.40
  10   4 -14   -8.70   16.20
  10   4 -14    3.70    2.70
 -10   4  14    8.80   11.50
  10  -4  14    2.40   19.20
 -10   4  14  -11.30    8.20
  10   4  14    0.90   30.60
  10  -4 -14   -1.10    3.90
 -10   4 -14   -2.90    2.70
 -10  -4  14    2.70    7.70
  10   4  14   -4.40   13.10
  10   6 -14    6.70   19.40
  10  -6  14   -4.60   17.80
 -10  -6 -14    1.10    4.40
 -10   6  14   -0.30    8.60
 -10   6 -14    7.00    3.00
  10  -6 -14   -1.60    5.20
  10   6  14   -2.70   14.50
  10  -1  15   11.50   24.20
  10   1 -15    7.70   14.50
 -10  -1 -15   12.70    2.80
 -10   1  15   14.80    7.30
 -10   1  15    2.40    9.60
  10   1 -15    5.80   16.10
  10   1 -15   10.10    3.00
  10  -1 -15   16.10    3.30
 -10   1 -15   13.10    2.80
  10   1  15  -28.00   25.60
 -10  -1  15   17.20    7.20
 -10  -1  15   18.80    9.20
  10  -1 -15  -10.00   17.10
 -10   3  15    0.10    7.10
  10   3 -15    1.10    2.70
 -10   3  15  -12.10   10.10
  10   3 -15    2.80   15.90
  10  -3  15  -11.60   20.50
 -10  -3 -15   -1.50    2.90
 -10   3 -15   -1.70    2.70
  10  -3 -15   -0.20   24.60
  10   3  15  -15.60   27.10
 -10  -3  15   -1.40    7.60
  10  -3 -15   -2.20    3.70
 -10   5  15    0.70    9.00
  10   5 -15   -3.30   17.00
 -10  -5 -15   -3.40    3.60
  10  -5  15   -0.10   18.90
  10   5  15   -3.80   14.20
 -10   5 -15    0.50    2.70
  10  -5 -15   -0.40    4.50
 -10   0  16   -5.80    6.90
 -10   0 -16   -0.10    2.80
  10   0 -16    0.10   15.20
  10   0 -16    6.20    3.10
  10   0  16  -17.20   24.50
 -10   0  16    0.40    9.30
  10   0 -16    1.70   17.90
  10   2 -16   28.00    3.80
  10   2 -16   25.70   16.30
 -10  -2 -16   33.70    3.70
  10  -2  16   18.40   22.90
 -10   2  16   30.50    7.70
 -10   2  16   24.10   10.50
 -10  -2  16   21.10    7.60
 -10   2 -16   30.60    3.50
  10  -2 -16   33.20   19.50
  10   2  16   31.30   27.60
  10  -2 -16   27.60    4.30
  10  -4  16   12.80   18.50
  10   4 -16    7.10   17.30
 -10  -4 -16    4.40    3.50
  10   4 -16   -0.20    3.20
 -10   4  16   -1.70    7.80
  10  -4 -16   -5.20    3.80
 -10   4 -16    5.40    2.60
  10   4  16  -20.60   28.70
 -10  -1 -17    0.50    2.70
  10   1 -17    7.80   16.50
  10  -1  17   -4.60   24.50
 -10   1  17   -5.80    8.30
  10   1 -17   -2.10    3.00
  10   1  17    3.70   27.00
  10  -1 -17    4.90    3.30
 -10   1 -17    1.00    2.70
 -10  -1  17    1.20    8.00
  10   3 -17    4.70   17.10
  10  -3  17    0.30   19.90
 -10   3  17    5.50    7.00
  10   3 -17    8.10    3.10
 -10  -3 -17    5.90    3.20
  10  -3 -17    3.60    3.90
  10   3  17   -2.00   28.30
 -10   3 -17    6.80    2.70
 -10   0  18   26.00    8.20
  10   0  18   18.70   24.90
 -10   0 -18   26.90    3.60
  10   0 -18   29.20    4.00
  10  -2  18    7.50   20.90
  10   2 -18   11.30   17.60
 -10  -2 -18    0.40    3.20
  10   2 -18   -0.40    3.20
 -10   2  18    5.30    7.90
 -10   2 -18   -1.10    2.60
  10   2  18    0.40   27.30
  10  -2 -18    0.10    3.70
 -11  -1   0    8.10   16.90
  11  -1   0   -5.50   23.30
  11  -1   0    2.30    4.50
  11   1   0    1.20    3.70
 -11   1   0   -7.60   22.10
  11   1   0   -0.70   25.30
  11  -1   0    0.80    9.40
 -11   1   0   -5.00    7.40
  11  -1   0   -9.40    5.30
 -11   1   0   -1.80    4.60
 -11  -1   0   -4.80    6.40
 -11  -1   0   -1.60    2.40
 -11   1   0    5.30    3.10
 -11  -1   0    0.10    2.00
 -11  -1   0    0.80    4.80
  11  -3   0    5.70    6.90
  11  -3   0   -0.40   12.00
  11   3   0   -1.80    3.80
 -11  -3   0    7.70    5.50
  11  -3   0  -15.10   15.10
  11   3   0    3.50   22.70
 -11   3   0    1.20    2.80
 -11   3   0    7.30    8.40
 -11   3   0   -5.50   17.60
 -11  -3   0   -2.20   10.60
  11  -3   0    0.30    5.40
  11   3   0    0.90    6.50
 -11   3   0   -2.10    5.40
 -11  -3   0    1.10    6.90
  11  -5   0   22.90   17.40
 -11   5   0    7.50    7.40
  11   5   0   -5.80   21.40
 -11   5   0    0.50   10.30
 -11  -5   0    2.00    7.00
  11  -5   0    0.00   12.40
  11  -5   0   -6.10    7.10
  11   5   0   -2.90    7.30
 -11  -5   0   -3.40    7.90
 -11   5   0   -8.70   15.40
 -11   5   0   -6.70    3.80
 -11   7   0    9.70   10.10
  11  -7   0   -5.10    7.90
 -11   7   0  -12.50   12.70
 -11  -7   0   -0.80    8.80
  11   7   0   -2.60    9.30
  11   7   0  -11.00   29.20
  11   9   0   12.90   34.60
 -11   9   0   -4.10   11.60
 -11  -9   0    3.50    7.90
  11   0  -1  774.52   62.49
 -11   0  -1  831.22   62.39
 -11   0  -1  838.72   62.19
 -11   0  -1  811.52   62.39
 -11   0   1  690.43   63.19
  11   0  -1  667.83   63.59
 -11   0  -1  952.00   72.49
  11   0   1  684.13   63.39
 -11   0   1  853.51   62.49
  11   0  -1  822.22   62.39
 -11   0   1  935.81   69.39
  11   0   1  794.12   62.39
 -11   0   1  759.92   62.09
  11  -2   1 6226.78  513.75
  11  -2   1 6220.88  513.05
 -11   2   1 7250.97  515.65
 -11   2  -1 6975.60  515.75
  11   2   1 7173.98  517.35
  11  -2  -1 6326.87  513.95
  11  -2  -1 6044.60  513.15
 -11   4   1    4.60   14.70
 -11   4   1   10.40    2.80
 -11  -4  -1   15.60    6.70
  11   4  -1   14.80    4.20
 -11   4   1    6.90   10.20
  11  -4   1   13.20    7.20
  11  -4   1   18.20   14.10
  11   4  -1    3.30    7.10
 -11  -4  -1    6.30    8.10
  11  -4   1   30.30   16.40
  11   4  -1   -0.20   21.50
 -11  -4  -1    0.70    9.70
 -11   4   1   11.80    6.70
  11  -4  -1    4.10    8.10
  11  -4  -1   25.60    6.20
 -11   4  -1   16.00   16.40
 -11   4  -1    9.30    9.60
 -11   4  -1   13.20    6.30
  11  -4  -1   17.20   14.50
 -11  -4   1    5.20    7.40
 -11   4  -1   12.90    3.50
  11   4   1    6.70    6.50
  11  -4  -1   20.40   13.10
  11   4   1   12.80    3.90
 -11  -4   1   11.30    8.30
  11   4   1   15.50   22.90
 -11  -4   1   17.60    6.40
  11  -6   1 1265.67  100.19
 -11  -6  -1 1292.57  100.09
  11   6  -1 1326.27  100.59
 -11   6   1 1329.17  100.49
  11   6  -1 1168.38  109.49
 -11   6   1 1187.38  101.89
  11   6   1 1456.45  100.99
  11   6   1 1044.50  111.59
 -11  -6   1 1253.57  100.09
  11  -6  -1 1271.67  100.09
 -11   6  -1 1202.18  101.79
 -11   6  -1 1293.67  100.39
  11  -6  -1 1461.15  105.79
 -11  -8  -1   14.50    8.10
 -11   8   1   23.40   10.70
 -11   8   1   18.60   13.50
 -11   8   1   19.20    8.60
  11   8  -1   14.00   27.70
  11   8  -1    3.00   17.90
  11   8   1   -2.60   17.80
 -11   8  -1   -1.00    8.10
 -11   8  -1    2.40   10.80
 -11   8  -1    9.20   14.40
 -11  -8   1    2.40    8.40
  11   8   1   -9.80   31.40
  11  -8  -1    4.80    7.50
 -11   1   2  660.73   49.10
  11  -1   2  548.85   50.69
 -11   1   2  717.23   55.59
 -11  -1  -2  641.54   48.50
  11   1  -2  625.44   59.09
 -11   1   2  596.24   50.49
  11  -1   2  611.04   49.10
 -11  -1  -2  666.63   49.00
  11   1  -2  613.94   49.00
  11   1  -2  559.64   50.09
 -11  -1  -2  569.24   49.80
  11   1  -2  624.24   48.70
 -11  -1  -2  665.13   59.39
 -11   1   2  610.24   48.60
 -11  -1   2  665.33   49.10
 -11  -1   2  628.84   48.50
  11   1   2  672.53   63.99
  11   1   2  637.44   48.90
  11  -1  -2  619.04   48.90
 -11   1  -2  652.13   48.80
 -11   1  -2  654.03   48.90
  11  -1  -2  589.44   49.40
 -11   1  -2  602.74   49.10
  11   1   2  547.15   49.70
  11  -1  -2  573.74   51.49
 -11  -1   2  677.93   53.69
 -11   1  -2  676.83   59.09
 -11  -1   2  612.34   49.90
 -11   1  -2  593.74   49.70
  11  -3   2 1592.04  112.79
 -11   3   2 1327.37  109.29
  11   3  -2 1417.76  114.29
 -11   3   2 1370.26  112.19
 -11  -3  -2 1512.35  108.19
 -11  -3  -2 1345.57  111.59
  11   3  -2 1339.47  108.59
 -11   3   2 1351.36  107.79
  11   3  -2 1409.56  107.99
 -11  -3  -2 1401.36  108.79
 -11   3   2 1383.26  108.29
  11  -3   2 1292.17  108.39
  11  -3   2 1306.27  109.89
 -11  -3   2 1386.06  109.89
  11  -3  -2 1273.57  108.39
 -11   3  -2 1346.67  107.99
  11   3   2 1290.07  108.49
  11  -3  -2 1400.16  108.09
 -11   3  -2 1453.35  113.79
 -11  -3   2 1504.65  108.19
  11  -3  -2 1535.35  110.49
  11   3   2 1338.27  117.89
 -11   3  -2 1374.96  107.99
 -11  -3   2 1383.16  108.79
  11   3   2 1340.87  107.99
  11  -3  -2 1377.46  110.59
 -11   3  -2 1356.86  108.89
  11   5  -2  744.03   57.29
  11  -5   2  770.72   63.69
  11  -5   2  635.04   62.09
 -11   5   2  701.13   58.79
 -11   5   2  745.73   56.99
 -11  -5  -2  771.52   56.69
  11   5  -2  662.03   67.89
 -11  -5  -2  708.53   57.59
  11   5   2  795.52   57.69
 -11   5  -2  680.93   56.59
  11  -5  -2  683.13   56.69
  11  -5  -2  778.62   62.59
 -11  -5   2  756.22   57.79
 -11   5  -2  726.43   58.39
  11   5   2  590.14   71.99
 -11   5  -2  624.94   55.99
 -11  -5   2  737.23   56.69
 -11  -7  -2  157.08   18.80
  11   7  -2  215.78   20.60
 -11   7   2  222.48   21.20
  11   7  -2  148.09   33.70
 -11   7   2  224.28   25.30
 -11   7   2  148.79   27.40
  11  -7  -2  139.49   18.80
 -11  -7   2  171.18   18.90
 -11   7  -2  206.98   20.70
  11   7   2  142.99   38.90
 -11   7  -2  210.68   20.20
 -11   7  -2  198.68   25.20
 -11   9   2   48.40   11.60
  11   9  -2   19.10   31.40
 -11  -9  -2   22.00    9.60
  11  -9  -2   19.80    8.50
 -11  -9   2   10.80    8.50
 -11   9  -2   49.70   12.80
 -11   9  -2   37.20    6.50
  11   9   2   32.10   38.20
 -11   0  -3 5006.80  398.36
  11   0   3 5464.85  399.56
  11   0  -3 4405.86  395.66
  11   0  -3 5462.65  398.06
 -11   2   3  142.89   14.60
 -11  -2  -3  158.38   16.20
  11   2  -3  153.48   13.60
 -11   2   3  158.38   12.50
 -11  -2  -3  152.78   12.20
  11  -2   3  148.09   19.20
 -11   2   3  162.68   18.00
 -11  -2  -3  158.38   14.20
 -11   2   3  129.09   23.40
  11   2  -3  158.18   31.70
  11  -2   3  159.78   14.40
  11   2  -3  158.18   16.90
 -11  -2  -3  140.19   31.10
  11  -2   3  162.18   32.10
 -11  -2   3  154.88   18.40
  11   2   3  172.78   30.60
  11   2   3  149.19   15.40
 -11   2  -3  156.08   13.50
 -11   2  -3  174.08   16.00
  11   2   3  156.88   12.50
 -11  -2   3  154.88   15.80
 -11  -2   3  163.08   14.00
  11  -2  -3  178.58   22.40
 -11   2  -3  148.29   24.70
  11  -2  -3  167.68   13.50
  11  -2  -3  127.49   26.30
 -11   2  -3  146.59   13.20
 -11   2  -3  144.39   14.00
  11  -2  -3  143.09   15.50
  11   2   3  146.19   13.40
  11  -4   3  914.21   76.69
 -11   4   3  962.50   70.69
 -11   4   3  963.90   72.49
 -11  -4  -3  760.22   74.49
 -11  -4  -3  888.31   71.29
  11  -4   3  940.21   74.59
 -11  -4  -3  978.80   70.59
  11   4  -3  922.61   78.39
  11   4  -3  877.11   70.09
  11   4  -3  880.31   70.89
 -11   4  -3  872.21   71.49
 -11  -4   3  978.20   70.49
 -11  -4   3  920.01   71.29
  11  -4  -3  907.41   74.89
  11   4   3  821.52   70.09
 -11   4  -3  850.41   76.89
  11   4   3  912.71   71.09
  11   4   3  830.92   85.99
 -11   4  -3  849.61   69.99
  11  -4  -3  931.31   70.19
 -11   4  -3  867.21   70.29
  11  -4  -3  822.02   70.89
 -11   4  -3  938.91   70.09
 -11   6   3   21.90   11.40
  11   6  -3   42.60    8.90
  11  -6   3   18.30   16.50
  11   6  -3   29.70   22.80
 -11   6   3   46.60    9.40
 -11  -6  -3   41.90    8.50
 -11   6  -3   31.60    6.00
  11  -6  -3   47.30   19.90
 -11  -6   3   33.80    8.40
  11   6   3    4.10   16.00
  11   6   3   52.29   10.50
  11  -6  -3   37.30    7.90
 -11  -6   3   36.00    9.50
 -11   6  -3   11.20   10.40
  11   6   3   27.10   31.60
 -11   6  -3   23.50    5.20
 -11   6  -3   31.10    7.90
 -11   6  -3   49.20    9.00
 -11   8   3  234.88   27.30
  11   8  -3  145.19   33.30
 -11  -8  -3  198.08   20.50
 -11   8   3  273.47   22.80
 -11   8  -3  250.97   22.80
  11  -8  -3  164.38   20.10
  11   8   3  131.19   42.30
 -11   8  -3  200.48   17.90
 -11  -8   3  190.98   20.60
 -11  -1  -4  729.63   53.69
  11   1  -4  657.63   53.29
  11   1  -4  763.02   61.59
 -11   1   4  656.43   54.99
 -11   1   4  692.33   53.29
 -11   1   4  743.33   53.89
 -11   1   4  712.33   55.09
  11  -1   4  820.12   64.39
 -11  -1  -4  604.04   54.29
  11   1  -4  679.63   53.69
 -11  -1  -4  692.53   53.19
 -11  -1  -4  682.53   65.59
  11   1  -4  628.14   55.09
  11  -1  -4  750.12   63.59
 -11   1  -4  676.53   53.39
 -11  -1   4  735.13   53.89
  11  -1  -4  640.74   56.29
  11   1   4  745.03   68.99
  11   1   4  700.33   53.39
 -11   1  -4  707.33   64.79
  11   1   4  638.94   53.49
 -11  -1   4  693.23   53.19
  11  -1  -4  657.23   53.39
  11  -1  -4  670.43   54.09
  11   1   4  580.34   54.09
 -11   1  -4  670.73   53.79
 -11  -1   4  701.43   55.59
 -11  -1   4  614.54   54.59
 -11  -3  -4  338.17   25.70
 -11  -3  -4  334.87   24.00
  11   3  -4  350.56   28.20
  11   3  -4  340.97   36.20
  11  -3   4  369.16   39.10
 -11   3   4  273.67   28.70
 -11  -3  -4  255.57   37.20
 -11  -3  -4  304.37   26.70
  11   3  -4  271.17   27.00
 -11   3   4  307.87   26.10
 -11   3   4  316.77   24.10
  11   3  -4  281.47   24.70
  11  -3  -4  305.67   33.30
 -11   3  -4  279.37   25.00
  11   3   4  355.96   48.70
 -11   3  -4  288.77   38.50
  11  -3  -4  239.38   25.90
  11  -3  -4  310.57   24.70
  11   3   4  302.77   24.00
  11   3   4  305.77   24.80
 -11  -3   4  291.57   26.80
 -11   3  -4  305.17   24.60
 -11  -3   4  348.27   25.50
  11   3   4  286.67   26.50
  11   5  -4  232.98   21.40
 -11  -5  -4  203.18   18.20
 -11   5   4  251.37   25.40
 -11  -5  -4  237.48   21.40
  11  -5   4  193.58   33.30
 -11   5   4  249.38   21.20
  11   5  -4  244.98   36.00
  11  -5  -4  232.98   19.60
 -11   5  -4  230.18   18.90
  11   5   4  276.87   22.80
 -11   5  -4  208.58   20.30
 -11  -5   4  249.08   22.10
  11   5   4  191.88   38.20
  11   5   4  212.98   17.70
  11  -5  -4  293.07   33.50
 -11   5  -4  190.78   18.70
 -11   5  -4  150.88   32.80
 -11   5  -4  252.17   24.10
 -11   5  -4  249.28   21.50
 -11  -5   4  229.38   20.40
 -11   7   4  111.29   12.60
  11   7  -4  133.69   16.00
 -11  -7  -4   87.99   11.20
 -11   7   4   74.39   14.20
  11  -7   4   66.09   17.30
  11   7  -4  109.89   26.50
 -11   7  -4  128.09   16.40
 -11   7  -4   99.09   11.60
  11  -7  -4  121.59   23.50
 -11   7  -4  100.29   10.80
 -11  -7   4   80.19   11.00
  11   7   4   57.19   37.60
 -11  -7   4  127.39   16.50
  11   7   4   68.69   21.10
 -11   7  -4   97.39   14.60
  11  -7  -4   80.59   10.60
 -11   9   4   20.50   10.50
  11   9  -4    6.30   30.30
 -11  -9   4   -1.30    8.50
 -11   9  -4    0.70    5.00
  11  -9  -4    7.10    8.10
 -11   9  -4    3.40   15.30
  11   9   4   13.10   40.00
  11   0   5 6775.72  486.15
 -11   0  -5 6004.70  485.65
  11   0  -5 6639.24  484.65
  11   0  -5 5956.60  483.15
 -11   0  -5 5663.53  482.45
  11   2  -5  244.68   21.20
 -11  -2  -5  173.18   19.30
  11  -2   5  244.48   35.50
  11   2  -5  214.78   16.40
 -11  -2  -5  217.38   16.30
 -11  -2  -5  242.68   18.10
 -11   2   5  210.48   16.40
 -11   2   5  189.88   21.20
  11   2  -5  214.68   29.70
  11   2  -5  204.88   17.70
  11   2  -5  189.38   21.00
 -11  -2  -5  181.48   35.10
 -11   2   5  202.28   18.40
  11   2   5  206.78   17.20
  11   2   5  173.28   19.00
 -11  -2   5  156.98   19.40
 -11  -2   5  230.58   16.30
  11  -2  -5  211.88   17.00
  11   2   5  206.18   16.50
 -11   2  -5  225.78   16.90
  11   2   5  186.18   35.40
  11  -2  -5  175.38   25.70
  11  -2  -5  185.68   18.50
 -11   2  -5  201.08   37.90
 -11   2  -5  199.18   17.80
 -11  -2   5  199.28   17.80
  11   4  -5 2374.66  186.68
 -11   4   5 2443.06  186.28
 -11   4   5 2316.97  187.38
  11  -4   5 2345.27  190.08
  11   4  -5 2414.26  189.88
 -11  -4  -5 2536.75  186.28
  11  -4  -5 2390.56  188.78
 -11  -4   5 2541.65  186.08
  11   4   5 2216.18  185.68
  11   4   5 2381.66  186.68
  11   4   5 2213.98  194.38
  11  -4  -5 2393.76  185.88
 -11  -4   5 2477.85  186.78
  11   6  -5    2.70    7.90
 -11  -6  -5    0.40    7.50
  11   6  -5   18.00   19.90
 -11   6   5    4.30    9.90
 -11  -6  -5   -0.70    4.00
  11  -6   5   20.40   17.60
 -11   6   5   10.00    8.60
  11   6   5   11.50   31.90
  11   6   5    2.70    9.20
 -11   6  -5    1.70    4.60
  11  -6  -5   -3.80   19.20
 -11   6  -5    0.70    7.80
 -11   6  -5   -5.90    7.10
 -11  -6   5    1.20    9.30
 -11  -6   5    4.00    8.00
 -11   6  -5   12.00   10.90
  11  -6  -5    9.20    6.10
  11   6   5  -15.00   17.70
  11  -8   5  277.67   39.50
  11   8  -5  380.66   52.59
 -11   8  -5  382.96   28.70
  11  -8  -5  381.46   30.60
 -11  -8   5  333.57   30.80
 -11   1   6  356.36   32.70
  11  -1   6  363.26   30.10
 -11   1   6  384.76   29.70
  11   1  -6  336.77   33.30
  11   1  -6  397.86   38.40
 -11  -1  -6  377.66   29.70
 -11  -1  -6  389.26   30.40
 -11  -1  -6  371.36   46.00
  11  -1   6  414.46   45.40
  11   1  -6  386.76   29.80
  11   1  -6  323.47   30.70
 -11   1   6  405.76   30.80
  11   1  -6  401.36   33.10
  11  -1  -6  370.36   35.70
  11   1   6  331.97   31.00
  11   1   6  373.26   29.90
 -11  -1   6  395.06   29.70
 -11  -1   6  416.56   30.80
 -11  -1   6  374.26   31.90
  11  -1  -6  400.06   39.50
  11  -1  -6  353.66   31.00
  11   1   6  350.96   50.49
  11  -1  -6  437.06   32.70
  11  -1  -6  373.66   29.90
 -11   1  -6  373.96   29.90
  11   1   6  389.56   30.10
 -11   1  -6  407.66   45.40
 -11  -3  -6  208.78   36.50
 -11   3   6  237.98   21.20
 -11  -3  -6  261.27   20.90
  11   3  -6  238.98   33.10
  11   3  -6  188.38   23.80
 -11   3   6  225.98   24.20
 -11  -3  -6  252.37   18.50
  11   3  -6  229.98   19.70
  11  -3   6  222.78   37.70
  11   3  -6  246.78   23.20
 -11   3  -6  215.58   36.00
  11   3   6  222.88   18.60
  11  -3  -6  245.58   30.30
  11  -3  -6  245.98   19.30
 -11   3  -6  258.77   19.10
 -11  -3   6  237.68   21.90
 -11  -3   6  276.57   20.20
  11   3   6  243.68   33.70
  11   3   6  211.28   21.70
  11   3   6  227.38   19.40
  11   3   6  168.78   39.50
 -11  -5  -6  347.67   29.00
 -11  -5  -6  353.76   26.90
 -11   5   6  359.76   29.60
  11   5  -6  327.77   30.20
  11   5  -6  355.06   41.80
  11  -5   6  296.87   39.80
 -11   5   6  355.26   33.00
  11   5   6  381.36   30.60
 -11  -5   6  362.56   30.20
  11  -5  -6  398.86   40.70
  11  -5  -6  336.07   27.70
 -11  -5   6  333.87   28.60
 -11   5  -6  339.17   27.20
  11   5   6  310.67   42.10
  11   5   6  260.47   56.39
  11   5   6  305.27   26.70
 -11   7   6  109.09   12.40
 -11  -7  -6   84.99   11.10
  11   7  -6  100.19   23.80
 -11   7   6   78.39   14.00
  11   7  -6  120.59   17.20
 -11   7  -6  108.39   10.90
  11   7   6   81.49   37.70
  11  -7  -6  136.59   25.90
  11  -7  -6  126.19   13.20
 -11  -7   6  134.29   17.90
  11   7   6  156.98   20.00
  11   7   6   50.89   19.90
 -11  -7   6  114.09   12.60
 -11   9   6    1.40    9.00
  11   9  -6   16.80   29.10
 -11  -9   6   -0.40    8.80
  11  -9  -6   11.70    9.50
 -11   9  -6    7.20    5.20
  11   9   6    3.70   13.60
  11   0  -7 1505.95  115.39
  11   0  -7 1363.96  113.89
  11   0   7 1317.07  113.49
  11   0  -7 1442.36  113.39
  11   0  -7 1441.56  115.49
 -11   0   7 1519.85  114.69
 -11   0  -7 1327.77  120.59
  11   0   7 1499.45  121.59
  11   0  -7 1588.04  116.79
 -11   0   7 1574.44  113.89
 -11   2   7  414.06   32.70
 -11   2   7  392.56   34.60
 -11  -2  -7  398.46   31.40
 -11   2   7  388.06   31.40
  11   2  -7  395.86   40.90
 -11  -2  -7  364.06   49.00
  11   2  -7  432.76   35.10
  11   2  -7  424.76   31.40
  11   2  -7  364.76   32.20
 -11  -2  -7  408.46   32.50
  11  -2  -7  358.06   32.80
 -11   2  -7  411.96   31.60
  11   2   7  468.45   43.30
  11   2   7  368.76   31.50
 -11   2  -7  302.97   46.80
  11   2   7  367.56   55.59
  11   2   7  414.46   33.30
  11   2   7  404.06   31.90
 -11  -2   7  423.86   33.70
  11  -2  -7  417.66   31.70
 -11  -2   7  412.56   31.40
 -11  -2   7  411.56   32.40
  11  -2  -7  484.45   38.30
 -11   4   7  618.14   45.30
  11   4  -7  549.45   46.50
 -11   4   7  561.84   47.30
  11  -4   7  462.55   54.59
 -11  -4  -7  585.34   43.30
  11   4  -7  558.04   52.99
 -11  -4  -7  571.24   44.70
  11   4   7  563.34   45.40
 -11  -4   7  550.24   44.30
  11   4   7  430.66   65.59
 -11  -4   7  583.94   45.80
  11  -4  -7  559.04   43.70
  11   4   7  569.14   55.09
  11   4   7  488.75   43.30
  11  -4  -7  614.24   51.79
 -11   4  -7  571.34   43.60
 -11   6   7   18.30   12.00
  11   6  -7   36.30   20.80
 -11  -6  -7   27.50    4.60
  11   6  -7   36.80   10.00
  11  -6   7   30.80   19.50
 -11   6   7   45.10    8.90
  11  -6  -7   33.30    6.40
 -11  -6   7   16.30    7.70
  11   6   7   19.90   18.50
 -11  -6   7   21.30    9.30
  11   6   7   54.39   10.50
  11   6   7   37.00   36.10
 -11   6  -7   31.20    4.80
  11  -6  -7   69.69   21.30
  11   8  -7   63.49   23.60
  11  -8   7   59.19   18.40
 -11   8   7   56.19    9.50
  11   8   7   37.10   14.50
 -11  -8   7   46.40    9.90
  11   8   7   29.60   40.50
  11  -8  -7   81.39    9.20
  11   1  -8  694.53   61.59
 -11   1   8  767.12   62.89
  11  -1   8  729.93   61.19
  11   1  -8  838.42   66.69
 -11   1   8  823.22   61.59
  11   1  -8  794.12   63.99
 -11  -1  -8  711.33   72.09
  11   1  -8  759.12   63.99
 -11   1   8  757.02   60.99
  11   1  -8  790.52   60.99
 -11  -1  -8  779.62   60.99
  11  -1   8  768.62   71.69
  11   1   8  811.82   61.19
  11  -1  -8  837.02   63.99
  11  -1  -8  805.72   61.09
  11  -1  -8  850.41   66.69
 -11  -1   8  792.22   62.59
  11   1   8  727.73   60.99
  11   1   8  803.52   74.39
  11   1   8  815.82   67.09
  11  -1  -8  710.93   62.09
 -11  -1   8  862.01   61.69
  11   1   8  714.73   61.79
  11  -1  -8  741.43   65.29
 -11   1  -8  833.32   60.99
 -11  -1   8  827.52   60.99
  11   3  -8  917.01   70.39
  11   3  -8  884.61   76.79
 -11   3   8  987.60   71.39
 -11  -3  -8  932.71   70.39
  11  -3   8  819.22   79.69
  11   3  -8  915.91   72.49
 -11   3   8  978.10   72.89
 -11  -3   8  917.21   71.89
  11   3   8 1015.20   78.69
  11  -3  -8  951.70   76.29
 -11  -3   8  842.82   70.39
  11   3   8  831.12   70.39
  11   3   8  890.31   71.69
  11  -3  -8  940.41   70.59
 -11   3  -8  921.11   70.49
  11   3   8  790.32   70.69
 -11  -3   8  986.30   71.09
  11   3   8  767.32   86.59
 -11  -5  -8  504.55   37.70
  11   5  -8  471.95   41.50
 -11   5   8  522.75   39.90
  11   5  -8  449.46   49.40
  11  -5   8  380.26   48.50
 -11   5   8  459.45   42.20
  11   5   8  502.75   49.70
 -11   5  -8  476.35   37.80
  11   5   8  340.47   63.39
  11  -5  -8  470.15   38.10
  11   5   8  545.05   40.60
  11  -5  -8  588.34   49.90
 -11  -5   8  492.05   40.60
 -11  -5   8  475.05   39.00
  11   7  -8  127.19   13.30
 -11   7   8   95.49   12.20
 -11  -7  -8   78.09    9.90
  11   7  -8  102.59   23.90
 -11   7  -8   94.49    9.20
  11  -7  -8  122.49   12.20
  11   7   8   32.60   22.50
 -11  -7   8   76.79   12.90
 -11  -7   8   61.99   10.90
  11   7   8   49.30   16.00
  11   7   8   57.59   39.50
  11   0  -9  129.79   25.20
 -11   0   9  116.39    9.80
  11   0   9  106.49   27.60
 -11   0  -9  123.29   10.10
 -11   0   9  124.09   16.60
  11   0  -9  117.09   16.50
  11   0  -9  109.39   20.80
 -11   0   9  141.29   13.40
  11   0  -9  122.99   10.20
  11   2  -9 2088.69  154.88
  11  -2   9 1767.22  156.78
  11   2  -9 1710.83  152.88
 -11   2   9 2002.30  152.68
 -11   2   9 2074.59  151.68
  11   2  -9 1700.13  154.98
  11   2   9 1684.03  151.38
  11   2   9 1943.41  151.38
  11  -2  -9 2178.08  154.58
  11   2   9 1665.23  159.18
  11   2   9 2053.29  152.08
 -11  -2   9 2171.98  151.58
 -11  -2   9 2082.79  152.28
  11  -2  -9 2062.09  151.28
 -11  -2   9 1967.60  151.18
  11   4  -9   13.10   11.00
  11   4  -9   24.70   17.00
  11  -4   9   26.70   22.60
  11   4  -9   16.60    2.40
 -11   4   9   16.30   10.00
 -11  -4  -9   17.00    3.20
 -11   4   9   17.50    8.20
 -11  -4   9   18.10    6.90
  11   4   9   19.30    8.20
 -11   4  -9   15.80    3.40
  11   4   9   23.10   34.50
  11   4   9   18.50   20.40
 -11  -4   9   23.00    9.10
  11  -4  -9   12.70    4.30
  11  -4  -9   17.50   18.60
  11   6  -9  479.45   51.49
 -11   6   9  493.35   42.90
  11   6  -9  437.56   41.60
 -11  -6  -9  437.56   38.00
 -11   6   9  548.65   40.40
  11   6   9  471.15   43.70
 -11  -6   9  535.35   41.00
  11   6   9  525.05   41.30
  11  -6  -9  495.15   38.50
 -11  -6   9  422.96   39.30
  11  -6  -9  571.04   51.49
  11   6   9  447.16   51.79
 -11   6  -9  452.95   38.00
  11   8  -9    2.90   22.40
 -11   8   9   -7.50    8.90
  11  -8   9   -2.70   15.60
 -11  -8   9   -6.90    8.50
  11  -8  -9    0.50    6.70
  11   8   9  -18.30   15.40
 -11   8  -9   -0.90    3.90
  11   1 -10   33.00   13.50
  11   1 -10   41.70    3.90
 -11   1  10   45.50    6.50
  11   1 -10   37.00   14.30
 -11  -1 -10   36.80    3.60
  11  -1  10   18.30   23.70
  11   1 -10   13.20   12.50
 -11   1  10   40.40    9.20
  11  -1 -10   25.00   13.70
 -11   1 -10   42.10    3.90
  11   1  10   39.40   27.30
 -11  -1  10   38.10    8.80
  11  -1 -10   31.90   13.80
  11   1  10   41.30    7.10
  11  -1 -10    9.60   15.90
  11   1  10   29.60   15.60
 -11  -1  10   31.50    4.10
  11  -1 -10   37.40    4.10
 -11  -1  10   38.40    6.90
  11   3 -10   -0.30   14.30
 -11   3  10    8.60    6.60
  11   3 -10   -0.70    2.10
  11  -3  10    2.30   22.20
 -11   3  10  -14.40    9.10
 -11  -3 -10    3.10    2.40
  11   3 -10    3.40   10.90
 -11  -3  10   -2.60    8.00
  11   3  10   -1.30    4.10
 -11   3 -10    1.00    2.60
 -11  -3  10    1.20    6.10
  11  -3 -10    0.90   16.90
  11   3  10   -1.30    7.30
  11  -3 -10    3.10    3.60
  11   3  10   -8.80   12.80
  11   3  10    4.20   31.10
  11   3  10   -9.70   19.80
 -11  -3  10   -0.10    2.30
  11   5 -10    4.90   18.30
  11   5 -10   -1.70    2.30
 -11   5  10    3.80    8.60
 -11   5  10   -7.90   11.30
  11   5 -10  -10.20   11.10
 -11  -5 -10   -0.30    3.40
  11  -5  10  -10.70   19.60
  11   5  10    8.30   14.40
  11  -5 -10   14.30   20.30
 -11   5 -10   -1.40    3.30
  11   5  10   -2.60    8.50
  11  -5 -10   -2.30    4.70
  11   5  10    6.20   21.00
 -11  -5  10    6.50    7.00
 -11  -5  10    2.90    8.90
  11   5  10   13.90   32.70
  11  -7  10   -0.70   17.20
 -11   7  10    1.60    9.00
 -11  -7 -10   -6.00    5.20
  11   7 -10    0.80   21.80
  11  -7 -10   -0.80    6.10
 -11   7 -10    1.20    3.90
 -11  -7  10   -4.60    8.60
  11   7  10   -4.50   14.70
  11   7  10    9.40   37.60
  11   0 -11   44.00    4.50
  11   0 -11   35.20   15.40
 -11   0 -11   45.20    4.30
 -11   0  11   50.59    7.90
  11   0 -11   61.49   15.40
  11   0 -11   24.40   14.10
 -11   0  11   69.99   10.90
  11   0  11   15.40   27.00
  11   2 -11  918.51   75.19
 -11   2  11  899.11   72.39
 -11  -2 -11  897.81   71.69
 -11   2  11  895.91   73.69
  11   2 -11  931.11   71.69
  11   2 -11  904.51   76.69
  11   2  11 1010.30   78.69
 -11  -2  11  905.31   73.29
  11   2  11  954.30   73.69
  11  -2 -11  948.91   77.49
 -11   2 -11  935.61   71.69
 -11  -2  11  921.01   72.29
  11   2  11  944.91   72.99
 -11  -2  11  851.61   71.79
  11  -2 -11  923.31   71.79
  11   4 -11   31.20   16.20
  11   4 -11   15.30   11.70
 -11   4  11   18.10    8.00
 -11   4  11   22.20   11.20
  11   4 -11   30.20    3.20
  11  -4  11   23.60   21.20
 -11  -4 -11   32.50    3.70
 -11   4 -11   21.80    3.60
  11  -4 -11   27.60    4.80
  11   4  11    3.90   20.80
  11   4  11   30.50   14.10
 -11  -4  11   14.70    9.60
  11   4  11   16.60    8.60
 -11  -4  11   15.60    8.00
  11   4  11   25.10   32.30
  11  -4 -11   42.60   20.00
 -11   6  11  295.47   23.40
 -11  -6 -11  216.48   18.90
  11   6 -11  228.68   39.00
  11   6 -11  196.48   25.60
  11   6  11  162.48   29.50
 -11   6 -11  212.38   18.50
 -11  -6  11  285.67   24.30
  11   6  11  286.47   24.30
  11   6  11  234.78   28.60
 -11  -6  11  186.18   21.30
  11   1 -12  518.25   45.70
  11  -1  12  387.56   53.09
  11   1 -12  524.45   39.10
 -11   1  12  500.25   40.20
  11   1 -12  512.25   46.10
 -11   1  12  500.55   42.30
 -11  -1 -12  502.75   39.10
  11  -1 -12  513.15   39.20
 -11  -1  12  490.35   41.50
 -11   1 -12  509.35   39.10
  11  -1 -12  498.55   47.30
  11  -1 -12  500.85   46.70
  11   1  12  421.86   57.99
 -11  -1  12  530.85   40.20
  11   3 -12  597.44   52.89
  11   3 -12  528.85   49.90
  11   3 -12  596.94   45.20
 -11  -3 -12  585.74   45.30
  11  -3  12  456.45   56.59
 -11   3  12  564.14   48.70
 -11   3  12  587.94   46.50
 -11  -3  12  548.65   47.30
  11   3  12  626.24   49.50
  11  -3 -12  612.04   53.39
 -11   3 -12  572.84   45.20
  11   3  12  586.24   57.69
  11   3  12  605.04   47.40
  11  -3 -12  598.74   45.50
 -11  -3  12  594.24   46.20
  11   5 -12  278.77   39.30
 -11   5  12  343.57   26.90
  11   5 -12  240.18   29.70
 -11   5  12  251.77   31.30
 -11  -5 -12  303.27   23.70
  11   5  12  351.66   43.20
 -11  -5  12  342.97   28.30
  11   5  12  299.47   31.80
  11   5  12  320.57   28.00
 -11  -5  12  268.87   25.90
  11  -5 -12  295.67   24.30
 -11   5 -12  282.07   23.60
  11   7 -12  105.29   25.30
 -11   7  12  155.78   17.60
  11  -7 -12  106.19   12.30
 -11   7 -12  114.39    9.90
  11   7  12   42.20   17.40
  11   0 -13  704.23   65.19
 -11   0  13  795.72   59.79
 -11   0  13  787.62   61.09
  11   0 -13  794.32   64.69
 -11   0 -13  725.93   58.69
  11   0 -13  729.73   58.79
 -11   2  13   39.90    7.80
 -11  -2 -13   58.99    5.90
  11   2 -13   63.19   16.10
 -11   2  13   38.80   10.60
  11   2 -13   64.39   16.70
  11   2 -13   58.39    5.90
  11  -2  13   42.10   24.20
  11   2  13   60.09   11.30
 -11  -2  13   46.40    9.80
 -11  -2  13   47.20    8.00
 -11   2 -13   52.69    5.90
  11  -2 -13   72.19    6.90
  11   2  13   64.79   30.90
  11  -2 -13   49.00   17.80
  11   2  13   54.09   22.60
 -11   4  13  181.18   17.50
 -11  -4 -13  158.58   13.90
  11   4 -13  176.28   30.30
 -11   4  13  195.88   21.90
  11   4 -13  179.88   13.80
  11   4 -13  127.89   20.10
  11  -4 -13  192.58   26.80
  11   4  13  218.28   22.30
  11   4  13  115.49   19.80
 -11  -4  13  139.39   17.10
 -11  -4  13  187.78   20.30
  11   4  13  131.59   27.40
 -11   4 -13  164.98   13.80
  11  -4 -13  171.68   14.60
  11  -6  13   10.20   18.20
 -11  -6 -13   22.80    5.00
  11   6 -13   33.80   22.50
 -11   6  13   39.60    9.90
 -11  -6  13   10.30    8.20
  11   6  13   12.90   15.90
  11  -6 -13   24.00    5.60
 -11   6 -13   23.10    3.60
 -11   1  14  151.38   18.70
  11   1 -14  172.48   21.80
 -11   1  14  151.78   15.40
  11  -1  14   91.59   28.40
  11   1 -14  166.78   27.10
  11   1 -14  163.88   12.70
 -11  -1 -14  159.38   12.60
  11  -1 -14  158.48   12.80
  11   1  14   91.39   28.90
  11  -1 -14  144.59   22.10
 -11  -1  14  143.39   15.70
 -11  -1  14  160.78   18.30
 -11   1 -14  154.18   12.60
  11  -1 -14  141.19   28.20
  11   3 -14   50.39    5.50
 -11   3  14   55.49    8.80
 -11  -3 -14   46.80    4.70
  11   3 -14   25.50   16.60
  11   3 -14   56.59   16.90
 -11   3  14   47.20   11.70
  11  -3  14   12.60   22.60
  11  -3 -14   46.00   19.30
 -11  -3  14   45.60    8.00
 -11   3 -14   43.70    5.40
  11   3  14   49.10   13.20
  11   3  14    3.70   30.70
  11  -3 -14   45.50    5.30
 -11  -3  14   40.10   10.00
 -11   5  14   18.50    8.00
  11   5 -14   18.80   18.90
  11  -5  14    8.50   18.00
 -11  -5 -14   15.40    3.70
  11  -5 -14   14.80    4.80
 -11  -5  14   18.30    8.20
  11   5  14  -15.90   14.90
  11   5  14    1.10   31.80
 -11   5 -14   11.40    3.10
 -11   0 -15  758.52   56.79
 -11   0  15  720.73   59.09
  11   0 -15  702.03   64.89
  11   0 -15  737.93   63.89
  11   0 -15  729.13   56.89
 -11   0  15  714.23   57.69
 -11   2  15    6.10    6.80
 -11  -2 -15   12.60    3.10
  11   2 -15   13.80   17.30
  11   2 -15   17.40   16.00
 -11   2  15   13.10    9.80
  11   2 -15   16.60    3.20
  11  -2  15   18.80   24.30
  11  -2 -15   11.80   16.70
 -11   2 -15   11.00    3.10
  11  -2 -15   18.10    3.70
 -11  -2  15    8.20    9.10
  11   2  15    4.50   26.90
 -11  -2  15   14.70    7.00
  11   4 -15  456.25   47.60
 -11  -4 -15  447.56   36.30
 -11   4  15  461.65   38.10
  11   4 -15  535.95   36.40
 -11  -4  15  407.96   38.10
  11   4  15  411.36   49.20
  11  -4 -15  489.05   36.60
 -11   4 -15  428.26   36.20
 -11   1  16   77.99   12.60
 -11  -1 -16   67.59    6.50
 -11   1  16   66.89    9.70
  11   1 -16   65.49    6.90
  11   1 -16   52.79   18.10
  11  -1  16   38.70   27.10
  11  -1 -16   62.49    7.10
 -11   1 -16   65.89    6.40
  11   1  16   15.10   27.40
  11  -1 -16   48.50   18.90
 -11  -1  16   67.39    9.20
  11   3 -16   34.40   17.30
  11  -3  16   21.00   20.30
  11   3 -16   35.30    4.00
 -11   3  16   22.30    7.30
 -11  -3 -16   27.20    4.00
  11  -3 -16   16.30    4.50
  11   3  16    5.80   29.10
 -11  -3  16   24.00    8.60
 -11   3 -16   27.60    3.40
 -11   0  17  132.59   15.80
 -11   0 -17  165.48   12.70
  11   0 -17  155.18   12.90
  11   0  17  115.19   30.90
  11  -2  17   26.50   23.30
 -11   2  17   54.99    8.60
  11   2 -17   31.90   18.50
 -11  -2 -17   48.20    4.60
  11   2 -17   44.20    4.80
  11  -2 -17   34.30    5.20
 -11  -2  17   46.70    8.90
  11   2  17   23.60   29.40
 -11   2 -17   48.30    5.20
 -11   1  18  103.99   13.70
 -11  -1 -18  117.29    9.90
  11   1 -18  116.89   10.30
  11  -1 -18  106.39   10.40
 -11   1 -18  117.19    9.90
 -12   0   0 2988.40  230.28
 -12   0   0 2657.63  230.68
 -12   0   0 3390.56  234.58
  12   0   0 2824.62  230.88
  12   2   0  428.76   50.19
 -12  -2   0  455.15   38.00
 -12   2   0  389.56   31.40
  12   2   0  372.06   31.10
 -12   2   0  441.66   43.40
  12  -2   0  476.05   43.40
 -12   2   0  421.16   30.80
 -12  -2   0  407.46   31.50
  12   2   0  324.57   32.40
  12  -2   0  420.86   31.70
  12  -2   0  389.46   32.10
 -12  -2   0  335.27   32.60
  12  -2   0  325.77   35.70
 -12   2   0  330.97   33.10
  12   4   0 1614.44  138.39
 -12  -4   0 1492.75  132.79
  12  -4   0 1678.23  133.79
 -12  -4   0 1696.23  131.49
  12  -4   0 1709.03  133.79
  12   4   0 1665.43  131.19
 -12   4   0 1642.04  131.89
  12  -4   0 1811.72  130.89
  12  -4   0 1606.94  131.19
 -12   4   0 1691.93  130.89
 -12   4   0 1631.74  134.99
 -12  -4   0 1858.01  130.79
 -12  -6   0   25.20    8.00
  12  -6   0    7.80    8.40
 -12   6   0   14.50   11.80
  12   6   0   18.30    8.40
  12  -6   0   30.40   22.10
  12   6   0   15.60   26.30
 -12  -6   0   11.40    8.50
  12  -6   0   27.60   12.70
 -12   6   0   30.90    8.70
 -12  -8   0  200.98   21.70
 -12   8   0  190.38   21.80
 -12   8   0  278.47   24.40
 -12   8   0  259.07   29.50
  12  -1   1  343.27   46.40
  12  -1   1  335.57   30.90
  12   1  -1  308.17   46.70
 -12  -1  -1  347.37   27.50
 -12  -1  -1  318.07   28.60
 -12   1   1  399.56   40.90
 -12   1   1  365.76   27.70
  12   1  -1  324.27   29.40
 -12  -1  -1  343.47   26.70
  12   1  -1  349.77   27.50
  12  -1   1  333.57   27.80
 -12   1   1  343.97   27.00
 -12  -1  -1  371.26   41.20
 -12  -1  -1  336.27   27.20
 -12   1   1  358.56   29.70
 -12   1  -1  358.26   29.10
  12   1   1  323.67   48.60
  12  -1  -1  329.87   31.50
 -12  -1   1  364.16   27.50
 -12   1  -1  382.46   27.50
  12   1   1  319.07   28.90
 -12  -1   1  319.57   28.70
  12  -1  -1  389.96   45.90
 -12   1  -1  331.17   42.90
  12  -1  -1  344.17   28.10
 -12  -1   1  354.86   36.60
  12   1   1  320.67   27.30
 -12   1  -1  340.97   27.20
 -12  -1   1  298.47   26.70
  12  -1  -1  328.57   27.80
 -12   3   1   41.20    9.00
 -12   3   1   21.60   17.70
 -12   3   1   33.80    6.30
  12  -3   1   38.60   18.80
  12   3  -1   40.10   20.70
  12   3  -1   41.70    5.00
 -12  -3  -1   26.50   14.00
  12  -3   1   45.30    7.90
 -12   3   1   38.00    4.10
 -12  -3  -1   32.20    6.40
  12  -3   1   33.10   13.30
  12  -3   1   43.40    7.50
  12   3  -1   32.90    6.90
 -12  -3  -1   27.50    7.40
 -12   3  -1   27.20    8.90
 -12   3  -1   35.40   20.10
 -12  -3   1   38.10    6.10
 -12   3  -1   36.20    4.30
 -12  -3   1   31.40    8.20
  12  -3  -1   28.10    7.50
  12  -3  -1   33.80   13.30
  12   3   1   28.40   25.20
  12  -3  -1   26.60    6.40
 -12   3  -1   32.10    5.80
 -12  -3   1   28.10   10.40
  12   3   1   39.30    4.80
  12  -3  -1   33.30   16.90
  12   3   1   28.80    7.20
  12   5  -1  105.09   13.90
 -12   5   1   68.09   18.40
  12  -5   1  110.79   18.60
 -12   5   1   58.59   13.40
  12  -5   1   79.19   20.20
 -12  -5  -1   94.39   10.40
 -12  -5  -1   64.09   10.60
  12  -5   1   94.29   10.30
  12   5  -1   52.29   23.90
 -12   5   1  105.69   10.60
  12   5   1   86.39   10.30
 -12   5  -1   80.49    9.40
 -12  -5   1   85.29   10.00
 -12   5  -1   90.19   10.30
 -12   5  -1   67.49   19.20
  12  -5  -1   92.69   19.20
 -12   5  -1   65.79   13.20
 -12  -5   1   74.49   11.00
  12   5   1   76.69   30.30
  12  -5  -1   75.89   18.90
  12  -5  -1   88.89    9.90
  12   7  -1   67.09   10.50
 -12   7   1   49.99   11.00
 -12  -7  -1   56.19   10.70
 -12   7   1   57.79   14.10
  12   7  -1   35.60   29.60
 -12   7   1   40.50   13.80
 -12  -7   1   49.70    9.50
 -12   7  -1   48.70   10.80
  12  -7  -1   69.09    9.80
  12   7   1   54.69   31.60
 -12   7  -1   77.89   10.90
 -12   7  -1   57.89   14.10
  12   7   1   90.49   11.70
  12   9  -1  -10.50   31.40
 -12  -9  -1   -8.00    8.70
 -12   9   1   -0.20   10.90
 -12  -9   1   -6.70    8.80
  12   9   1   12.40   37.30
 -12   9  -1    7.70    6.10
 -12   9  -1   -5.70   11.40
  12   0   2 1847.32  141.49
 -12   0  -2 1813.82  141.49
 -12   0  -2 1726.33  147.69
 -12   0   2 1915.21  144.69
  12   0  -2 1800.12  141.49
  12   0   2 2058.69  149.59
 -12   0  -2 1661.63  141.39
  12   0   2 1841.32  142.09
  12   0  -2 1992.50  148.79
 -12   0   2 1819.22  141.29
  12   0  -2 1816.02  141.59
  12   0  -2 1778.52  142.39
 -12   0   2 1874.51  142.19
 -12   0  -2 1596.14  141.89
 -12   0  -2 1773.12  141.49
  12   2  -2  117.99   22.60
 -12   2   2  125.59   10.80
  12  -2   2  134.69   13.60
 -12  -2  -2  133.09   15.10
  12   2  -2  122.99   11.90
  12   2  -2  133.99   15.30
 -12   2   2  114.29   21.10
  12  -2   2  146.39   19.70
 -12  -2  -2  120.39   10.30
 -12  -2  -2  130.59   13.00
 -12   2   2  133.69   13.10
 -12   2   2  135.49   16.90
  12  -2   2  143.39   23.60
 -12  -2  -2  127.59   22.20
  12   2   2  133.59   14.40
 -12  -2   2  152.38   12.60
  12  -2  -2  131.29   12.30
 -12   2  -2  128.19   11.90
  12   2   2  124.99   11.80
  12  -2  -2  170.88   21.50
 -12   2  -2  146.69   15.60
 -12   2  -2  143.49   12.30
 -12   2  -2  121.99   24.00
  12  -2  -2  134.59   14.40
 -12   2  -2  140.29   11.80
 -12  -2   2  134.49   14.70
  12  -2  -2  105.29   22.60
  12   2   2  123.39   29.90
 -12  -2   2  130.19   19.60
 -12   4   2  302.87   25.50
 -12  -4  -2  317.27   26.60
 -12  -4  -2  227.68   32.60
  12   4  -2  266.57   42.70
 -12   4   2  231.48   34.40
  12  -4   2  268.37   36.70
 -12   4   2  316.27   28.60
  12  -4   2  316.57   33.30
  12   4  -2  317.97   25.90
 -12  -4  -2  326.07   25.20
 -12   4  -2  297.37   28.00
  12  -4  -2  290.77   24.70
 -12  -4   2  318.17   24.90
  12   4   2  305.87   49.99
  12  -4  -2  267.27   25.90
  12  -4  -2  300.17   33.50
 -12   4  -2  279.67   24.70
  12  -4  -2  254.27   28.70
 -12  -4   2  325.57   26.20
  12   4   2  311.57   25.60
 -12   4  -2  263.47   37.60
  12   6  -2    9.40    9.10
  12  -6   2    8.70   15.90
  12   6  -2   -5.70   23.90
 -12  -6  -2    8.10    8.70
 -12   6   2   -2.60   11.20
 -12   6   2   -0.30    7.80
 -12   6  -2   -7.90   18.30
 -12   6  -2   -2.90   11.30
  12  -6  -2  -22.90   19.70
  12   6   2    3.90    8.70
 -12   6  -2    9.00    7.70
 -12  -6   2   -5.40    8.40
 -12  -6   2  -11.80    9.40
  12  -6  -2   -7.70    7.30
  12   6   2  -18.90   31.70
 -12   8   2   37.70   10.90
 -12  -8  -2   38.50    9.10
 -12   8   2   54.49   14.00
  12   8  -2   74.09   32.20
 -12   8  -2   55.79   11.30
  12   8   2   29.30   35.40
 -12   8  -2   33.60    6.50
  12  -8  -2   68.19    9.50
 -12  -8   2   50.19   10.00
 -12   1   3  220.28   21.70
 -12   1   3  217.58   25.20
  12  -1   3  212.08   22.00
  12   1  -3  224.18   21.40
  12  -1   3  207.48   39.00
  12   1  -3  210.98   18.50
  12   1  -3  205.18   17.60
 -12  -1  -3  222.18   37.10
 -12   1   3  226.98   17.40
 -12  -1  -3  228.98   17.30
  12   1  -3  223.98   35.60
 -12  -1  -3  214.58   18.50
 -12  -1  -3  208.88   20.00
  12  -1   3  202.88   18.60
 -12   1   3  238.18   18.80
  12  -1  -3  256.47   24.20
  12   1   3  228.68   18.10
 -12  -1   3  247.58   18.70
 -12   1  -3  195.88   18.50
  12  -1  -3  206.78   18.00
  12   1   3  210.48   19.80
 -12  -1   3  223.08   23.50
 -12   1  -3  208.68   36.40
 -12   1  -3  237.58   18.10
 -12   1  -3  204.38   17.80
 -12  -1   3  227.18   17.20
  12  -1  -3  239.28   36.60
  12   1   3  177.38   34.90
 -12  -1   3  215.78   20.10
 -12   1  -3  223.28   19.10
  12  -1  -3  230.38   19.40
  12   3  -3  356.16   29.60
  12  -3   3  347.87   30.80
 -12  -3  -3  369.56   31.60
  12   3  -3  344.87   31.50
  12  -3   3  347.17   35.30
 -12   3   3  368.96   30.40
 -12  -3  -3  407.06   30.40
  12   3  -3  384.46   44.60
  12  -3   3  373.26   41.50
 -12  -3  -3  398.66   28.90
 -12   3   3  369.86   29.10
 -12   3   3  363.46   33.00
  12  -3  -3  369.26   29.80
  12  -3  -3  385.46   34.70
  12  -3  -3  334.37   30.70
 -12   3  -3  372.76   44.50
  12   3   3  377.46   29.00
 -12  -3   3  380.56   31.70
  12   3   3  345.87   53.09
 -12  -3   3  411.76   30.30
  12  -3  -3  374.86   37.20
 -12   3  -3  370.26   31.80
  12   3   3  368.76   29.50
 -12   3  -3  356.26   29.60
  12   3   3  321.77   30.70
 -12   3  -3  387.36   29.60
 -12  -3   3  384.76   33.10
 -12   3  -3  356.66   29.80
 -12   5   3  166.28   22.40
  12   5  -3  149.49   27.00
 -12   5   3  156.18   17.50
 -12  -5  -3  176.08   16.70
  12  -5   3  181.98   30.60
  12   5  -3  161.88   17.70
 -12   5  -3  171.78   14.50
 -12   5  -3  152.78   16.10
 -12   5  -3  115.49   24.40
 -12  -5   3  154.38   18.10
  12  -5  -3  160.98   15.80
  12   5   3  176.98   18.70
  12  -5  -3  156.98   22.90
 -12   5  -3  138.99   20.80
 -12   5  -3  143.39   14.20
  12   5   3  113.49   36.00
 -12  -5   3  179.68   16.30
 -12   7   3   36.00   10.10
  12   7  -3   41.10    9.50
 -12  -7  -3   42.90    8.90
  12  -7   3   28.30   15.70
  12   7  -3   39.70   28.40
 -12   7   3   31.20   12.60
  12   7   3    9.10   34.40
 -12  -7   3   17.40    9.80
 -12  -7   3   31.10    9.00
  12  -7  -3   39.80   22.30
 -12   7  -3   20.00    5.80
 -12   7  -3   42.40    9.90
  12   7   3   53.29   11.20
 -12   7  -3   31.50    9.00
 -12   7  -3   28.30   12.90
  12   7   3   14.30   19.40
  12  -7  -3   25.50    8.40
 -12  -9  -3   16.60    9.60
 -12   9   3   14.80   10.20
  12   9  -3   13.80   32.40
 -12   9  -3   29.50    6.00
 -12  -9   3    7.60    8.80
  12   9   3   -2.40   40.60
  12  -9  -3   18.30    8.90
  12   0  -4  147.79   20.80
 -12   0   4  145.79   19.30
  12   0   4  171.88   18.10
  12   0  -4  156.98   16.50
 -12   0  -4  214.18   14.90
 -12   0  -4  199.18   36.20
 -12   0   4  192.28   14.70
  12   0  -4  188.68   15.10
  12   0  -4  233.28   34.40
 -12   0   4  194.48   19.80
 -12   0  -4  197.48   15.60
  12   0   4  175.88   15.60
  12   0   4  244.38   41.90
 -12   0  -4  151.88   17.00
 -12   0   4  196.28   16.90
 -12  -2  -4 1725.73  123.19
 -12   2   4 1531.65  124.19
  12  -2   4 1672.23  128.89
  12   2  -4 1558.74  123.99
 -12   2   4 1575.64  123.29
 -12  -2  -4 1399.26  128.79
  12   2  -4 1508.25  123.09
 -12   2   4 1679.83  122.89
 -12   2   4 1642.04  124.29
 -12  -2  -4 1630.14  123.79
  12   2  -4 1668.23  128.69
  12  -2  -4 1496.95  123.49
  12   2   4 1628.24  122.89
 -12  -2   4 1445.96  123.69
  12  -2  -4 1600.64  125.39
 -12   2  -4 1490.55  122.99
 -12   2  -4 1709.13  129.39
  12  -2  -4 1610.44  126.89
  12  -2  -4 1561.74  122.99
  12   2   4 1633.24  133.59
  12   2   4 1446.36  123.49
 -12   2  -4 1555.94  123.19
  12   2   4 1575.04  122.99
 -12  -2   4 1584.34  123.19
  12   4  -4   17.10   20.40
 -12  -4  -4   13.40    2.40
  12  -4   4   16.10   20.80
 -12   4   4   -0.40    8.00
  12   4  -4   12.50    7.90
 -12   4   4   17.00   10.40
  12  -4   4   17.90   16.50
 -12  -4  -4   20.50    6.70
 -12   4  -4   12.80    4.30
  12  -4  -4    7.40    4.90
 -12   4  -4    6.80    8.10
 -12   4  -4   10.00    3.90
 -12   4  -4   21.30   20.60
  12   4   4    5.80    7.70
 -12  -4   4   14.10    8.40
  12   4   4   13.70    2.10
 -12  -4   4    2.80    6.40
  12   4   4    4.80   30.80
  12  -4  -4   10.20   15.90
 -12   4  -4    8.40    5.00
 -12   6   4  436.76   34.30
  12   6  -4  333.77   49.80
 -12  -6  -4  367.96   34.00
 -12   6   4  422.26   37.20
  12   6  -4  386.76   34.40
 -12  -6   4  373.66   33.90
 -12   6  -4  375.16   32.50
 -12  -6   4  441.56   35.70
  12   6   4  357.96   43.90
  12  -6  -4  446.06   46.70
 -12   6  -4  486.85   37.50
 -12   6  -4  399.86   33.90
 -12   6  -4  434.96   34.80
  12  -6  -4  396.96   33.30
 -12   8   4   11.10    9.30
  12   8  -4    5.80   28.00
 -12  -8  -4   -0.70    9.00
 -12   8   4    2.40   19.90
 -12   8  -4    2.60    5.30
 -12   8  -4   -1.10    9.30
 -12  -8   4    3.70    9.40
  12  -8  -4   13.80    8.20
  12   8   4   -4.40   38.40
  12   1  -5    2.90    4.60
  12   1  -5    1.00    2.10
 -12  -1  -5   26.80   22.10
 -12   1   5    1.00    1.60
  12   1  -5   -0.50   17.30
 -12   1   5   12.40    8.30
  12   1  -5   -5.50    7.70
 -12  -1  -5    0.20    1.80
 -12  -1  -5   -8.90    5.70
 -12   1   5    0.10    5.30
 -12  -1  -5   -2.90    4.60
  12  -1   5    6.10   23.60
 -12  -1   5    4.30    1.40
 -12   1  -5   -2.10   20.10
  12   1   5    6.20    3.50
 -12  -1   5    7.50    5.80
  12   1   5    3.80    2.60
 -12  -1   5   -0.20    7.00
 -12   1  -5    2.70    2.60
  12  -1  -5    4.80    3.00
  12   1   5  -13.80   30.40
  12  -1  -5   -2.80   11.70
  12  -1  -5    8.30    5.50
  12   1   5    1.20    5.90
  12  -1  -5   12.80   19.60
  12   3  -5    1.20    8.50
  12   3  -5    0.20    4.60
 -12   3   5   -2.50    8.70
  12   3  -5   15.40    8.20
 -12   3   5    6.20    6.80
  12  -3   5    2.60   20.90
 -12  -3  -5    8.40   17.80
 -12  -3  -5    1.00    6.00
  12   3  -5    4.00   15.90
 -12   3   5    4.20    1.80
 -12  -3  -5    2.60    1.80
  12   3   5    2.20    4.30
 -12   3  -5   25.40   20.70
  12  -3  -5    0.70   15.00
  12  -3  -5   -0.60    3.80
 -12   3  -5   -1.00    3.40
 -12  -3   5    6.30    5.90
  12  -3  -5   -7.50    5.70
 -12  -3   5    2.00    8.10
  12   3   5    3.90    6.90
  12   3   5   13.40   30.10
  12   3   5    7.50    2.10
 -12  -5  -5    2.50    3.10
  12   5  -5   -6.00    8.30
 -12   5   5   -1.00   10.80
 -12   5   5    5.10    8.70
 -12  -5  -5   -9.90    7.50
  12  -5   5    1.50   19.80
  12   5  -5    1.90   18.90
 -12   5  -5   -2.80    4.40
  12   5   5   -2.20   30.10
  12  -5  -5    6.70    5.70
 -12  -5   5    6.20    8.00
 -12  -5   5    8.70    7.10
  12   5   5   10.50   18.50
  12   5   5    1.40    2.00
  12  -5  -5  -16.40   18.00
  12   5   5    3.50    9.10
  12  -7   5    1.30   16.30
 -12   7   5   -3.30   11.30
 -12  -7  -5    4.60    8.20
  12   7  -5   12.10   24.30
 -12   7   5   -6.40    8.10
  12   7  -5   -6.10    9.10
 -12   7  -5   -2.30    4.60
  12   7   5  -18.90   18.60
  12  -7  -5   -8.20   21.60
 -12  -7   5   -1.60    9.00
  12  -7  -5    0.80    7.10
 -12   7  -5    3.40    8.40
  12   7   5   -1.90   10.50
  12   7   5  -14.90   35.20
 -12  -7   5    2.70    9.70
  12   9  -5   -3.70   28.20
 -12   9   5  -11.10    9.40
 -12  -9   5    1.20    9.30
 -12   9  -5    3.20    5.40
  12  -9  -5   -0.80    8.20
  12   9   5   31.30   40.70
 -12   0   6   -2.30    6.60
 -12   0  -6    3.70    2.00
 -12   0   6    0.80    1.40
  12   0   6   25.90   26.10
  12   0  -6    1.20    7.80
  12   0  -6    2.80    9.60
  12   0  -6   -6.40   16.40
  12   0   6    4.10    3.10
  12   0  -6    8.10    2.50
 -12   0   6   10.70    9.00
 -12   0  -6    7.90   21.30
  12   0  -6    0.60    5.30
  12   2  -6  775.22   64.69
  12   2  -6  743.63   62.69
  12  -2   6  744.83   72.09
 -12  -2  -6  855.01   62.89
 -12   2   6  780.52   64.29
  12   2  -6  840.52   62.19
  12   2  -6  856.51   68.99
 -12   2   6  783.52   62.19
 -12  -2  -6  667.93   71.89
  12   2  -6  829.02   64.29
 -12  -2  -6  829.02   62.19
 -12   2   6  822.62   62.99
  12   2   6  788.22   62.29
  12  -2  -6  721.33   63.09
 -12   2  -6  713.03   62.79
  12   2   6  783.92   63.29
  12   2   6  799.72   79.49
 -12  -2   6  857.91   62.89
  12  -2  -6  862.71   66.99
 -12  -2   6  858.61   62.19
 -12   2  -6  836.62   62.39
  12  -2  -6  801.82   62.49
 -12  -2   6  837.62   63.79
 -12   2  -6  724.53   73.29
  12   2   6  817.02   62.49
 -12   4   6    9.90    7.80
 -12  -4  -6    5.40    2.60
  12  -4   6   -2.40   21.50
  12   4  -6    2.00   17.40
 -12  -4  -6    6.50    7.10
  12   4  -6  -13.00    9.00
 -12   4   6    6.40   10.60
  12   4   6    8.10   18.60
  12  -4  -6   -0.30    4.00
 -12  -4   6   13.70    8.20
 -12   4  -6    5.80    3.90
  12   4   6    3.40    2.10
  12   4   6   -1.60   33.50
  12   4   6    6.70    7.70
 -12  -4   6    8.40    7.00
  12  -4  -6   -1.40   17.00
  12  -6   6  186.48   33.40
 -12   6   6  266.17   26.10
  12   6  -6  231.98   22.50
  12   6  -6  211.78   37.50
 -12   6   6  234.78   21.70
 -12  -6  -6  227.08   21.10
 -12  -6  -6  204.48   18.00
 -12  -6   6  203.98   20.30
  12  -6  -6  283.57   37.00
 -12   6  -6  207.68   18.10
  12  -6  -6  242.48   19.40
  12   6   6  152.78   27.10
  12   6   6  126.49   39.90
 -12  -6   6  232.18   22.60
 -12   8   6    6.60    8.50
  12   8  -6  -20.40   25.90
  12  -8   6    3.20   17.10
 -12   8  -6    0.40    5.10
 -12  -8   6    6.50    8.80
  12   8   6   -3.80   38.00
  12  -8  -6   -3.80    8.50
  12  -1   7  375.16   32.90
  12   1  -7  358.26   33.50
 -12   1   7  435.16   35.60
  12   1  -7  443.46   42.20
  12   1  -7  404.66   36.50
 -12  -1  -7  423.56   32.60
  12  -1   7  382.56   49.20
 -12   1   7  446.56   33.60
  12   1  -7  390.46   37.00
 -12   1   7  414.66   32.60
 -12  -1  -7  438.36   33.50
  12   1  -7  436.66   32.70
 -12  -1  -7  383.36   48.70
  12   1   7  445.16   54.39
  12  -1  -7  390.96   34.00
 -12   1  -7  366.46   48.50
  12   1   7  421.66   33.00
  12   1   7  403.66   34.00
  12  -1  -7  440.36   39.20
  12  -1  -7  415.76   32.80
 -12  -1   7  445.46   33.70
  12  -1  -7  419.26   36.00
 -12  -1   7  451.95   34.90
  12  -1  -7  426.76   42.80
 -12  -1   7  445.46   32.50
  12   1   7  396.16   32.70
 -12   1  -7  423.46   32.70
  12   3  -7  431.46   42.20
 -12   3   7  492.45   42.30
  12   3  -7  489.65   49.40
 -12  -3  -7  555.44   40.40
  12  -3   7  486.65   52.69
 -12  -3  -7  544.35   39.00
  12   3  -7  517.55   38.90
 -12   3   7  508.05   40.30
  12   3   7  461.85   39.00
  12   3   7  567.84   51.59
 -12  -3   7  531.65   39.90
 -12   3  -7  525.85   39.20
  12   3   7  461.95   39.50
 -12  -3   7  474.65   41.20
 -12  -3   7  463.35   39.00
  12   3   7  442.76   64.29
  12   3   7  496.45   41.10
  12  -3  -7  516.15   39.40
  12  -3  -7  511.25   47.40
 -12   5   7  184.48   24.20
  12   5  -7  174.88   21.40
  12   5  -7  195.98   35.10
 -12  -5  -7  221.88   19.80
 -12   5   7  210.18   20.70
 -12  -5  -7  218.98   16.20
  12  -5   7  211.48   34.40
  12   5   7  121.19   27.80
  12   5   7  204.58   22.00
 -12   5  -7  190.68   16.70
 -12  -5   7  210.88   21.60
  12  -5  -7  199.28   17.50
  12   5   7  122.59   39.30
  12  -5  -7  214.28   27.20
 -12  -5   7  209.38   19.00
  12   7  -7   58.49   11.60
  12   7  -7   57.79   22.10
 -12   7   7   41.30   13.90
  12  -7   7   30.20   19.30
 -12   7   7   60.99   10.60
 -12   7  -7   78.49    8.10
  12  -7  -7   82.79    8.90
  12   7   7   47.60   19.00
 -12  -7   7   82.59   12.90
 -12  -7   7   32.30   10.10
  12   7   7   44.00   38.60
  12   0  -8  683.23   57.99
  12   0  -8  674.33   56.89
  12   0  -8  595.44   55.19
  12   0   8  662.63   67.49
  12   0  -8  705.83   53.69
 -12   0   8  743.23   54.59
 -12   0  -8  714.23   53.59
 -12   0   8  676.73   53.59
  12   0  -8  779.52   60.19
  12   0   8  624.04   53.79
 -12   0   8  705.43   55.89
 -12  -2  -8   55.79    5.70
  12   2  -8   93.79   12.10
 -12   2   8   76.19   10.00
  12   2  -8   37.20   11.50
 -12  -2  -8   59.69    8.10
  12   2  -8   54.49    5.80
 -12   2   8   70.09    8.10
  12  -2   8   33.20   23.10
  12   2  -8   61.09   18.00
 -12  -2   8   58.89    5.60
  12   2   8   74.49   21.10
  12   2   8   70.09    8.00
  12   2   8   43.50   32.00
 -12  -2   8   70.79    8.00
 -12   2  -8   52.99    6.40
  12  -2  -8   75.49   15.70
  12  -2  -8   71.29    7.10
 -12  -2   8   79.79   10.20
  12   2   8   52.79    6.10
 -12   4   8  146.19   20.10
  12   4  -8  123.39   18.80
  12   4  -8  140.39   23.10
 -12   4   8  159.48   16.60
 -12  -4  -8  142.59   16.10
  12  -4   8  104.29   25.30
 -12  -4  -8  151.58   11.60
  12   4   8  164.08   17.80
 -12  -4   8  152.68   18.30
  12  -4  -8  163.18   23.30
 -12  -4   8  136.29   14.70
 -12   4  -8  147.89   12.30
  12   4   8  141.99   25.70
  12   4   8  124.39   11.50
  12  -4  -8  139.59   12.90
  12   4   8   73.09   38.00
 -12   6   8    5.50    8.40
  12   6  -8   -2.10   10.70
 -12  -6  -8    1.00    4.00
  12   6  -8    1.90   19.70
  12  -6   8   -6.00   19.30
 -12   6   8   -6.10   10.00
 -12   6  -8    0.60    3.80
  12  -6  -8    3.00    5.80
  12  -6  -8   35.40   20.10
  12   6   8    9.40    9.70
  12   6   8  -10.10   18.30
  12   6   8  -10.30   35.30
 -12  -6   8   -5.50    7.30
 -12  -6   8   -3.70    8.70
  12   8  -8   24.00   24.00
  12  -8   8   11.30   16.70
 -12   8   8   20.20    9.30
  12   8   8   11.30   16.10
  12  -8  -8   25.40    7.50
  12   8   8   34.90   39.90
 -12  -8   8   15.60    8.80
 -12   8  -8   15.30    4.40
 -12  -1  -9  182.98   14.70
  12   1  -9  195.98   24.20
 -12   1   9  204.38   16.90
 -12   1   9  185.38   20.10
  12   1  -9  220.08   30.70
  12   1  -9  189.48   14.80
  12  -1   9  166.58   31.20
 -12  -1   9  190.78   19.40
  12   1   9  165.48   33.80
 -12  -1   9  178.18   14.50
 -12   1  -9  182.38   14.80
  12  -1  -9  178.08   30.30
  12  -1  -9  177.88   15.10
  12   1   9  171.68   15.40
  12  -1  -9  155.58   24.10
  12   1   9  193.28   17.30
  12  -1  -9  183.18   26.80
  12   1   9  204.88   23.70
 -12  -1   9  175.08   17.00
  12  -3   9   15.10   23.50
 -12   3   9   19.90    9.40
  12   3  -9   22.00   11.00
 -12   3   9   40.10    8.00
 -12  -3  -9   25.90    3.30
  12   3  -9   35.00    3.10
  12   3  -9   32.50   17.10
  12   3   9   16.60    4.90
 -12  -3   9   28.70    8.50
 -12   3  -9   33.40    3.80
  12  -3  -9   25.20    4.60
 -12  -3   9   25.20    7.00
  12  -3  -9   -2.10   17.50
  12   3   9   28.20    8.50
  12   3   9   20.70   32.00
  12   3   9    6.80   20.50
 -12  -3   9   22.80    3.00
 -12   5   9   15.40   11.30
  12   5  -9   23.10   19.70
 -12  -5  -9   46.30    4.70
  12  -5   9   27.70   21.60
 -12   5   9   45.40   10.10
  12   5  -9   49.10   11.60
  12   5   9   37.90   36.90
 -12   5  -9   41.80    4.70
  12  -5  -9   34.50    5.60
 -12  -5   9   34.50    9.80
  12  -5  -9   45.70   22.20
  12   5   9    4.20   21.30
  12   5   9   49.00    9.80
 -12  -5   9   30.00    7.80
  12   7  -9   24.50   12.70
 -12   7   9   33.90    9.40
  12  -7   9   20.40   18.30
  12   7  -9   34.30   22.50
 -12  -7   9   21.70    9.50
  12   7   9   39.10   15.60
  12  -7  -9   33.00    7.20
 -12  -7   9   41.10   11.30
 -12   7  -9   32.40    4.70
  12   7   9   11.10   39.20
  12   0 -10  522.65   48.30
 -12   0  10  491.45   42.50
 -12   0 -10  496.65   39.70
  12   0  10  429.26   57.09
  12   0 -10  547.95   46.20
 -12   0  10  525.55   40.90
  12   0 -10  516.75   39.70
  12   2 -10   20.90   16.00
  12   2 -10   17.50    2.60
  12   2 -10   -0.70   12.00
 -12   2  10    9.80    6.30
 -12   2  10    6.00    8.90
  12  -2  10   15.70   24.60
 -12  -2 -10   15.00    2.70
  12  -2 -10   14.10   17.60
  12   2  10   20.40   31.40
  12   2  10   16.90   19.40
 -12   2 -10   15.50    3.10
  12   2  10    1.10   12.00
  12  -2 -10   13.70    3.70
  12   2  10    9.50    7.30
 -12  -2  10    4.30    8.10
 -12  -2  10   13.10    2.40
  12   2  10    8.50    4.60
 -12  -2  10    9.30    6.30
  12   4 -10  434.06   33.20
  12   4 -10  376.16   37.60
 -12  -4 -10  410.56   33.30
  12   4 -10  398.66   46.50
 -12   4  10  488.05   35.30
 -12   4  10  463.55   37.90
 -12  -4  10  438.46   36.60
 -12   4 -10  394.26   33.40
 -12  -4  10  420.96   34.90
  12  -4 -10  486.05   45.70
  12  -4 -10  416.56   33.80
  12   4  10  479.95   49.30
  12   4  10  398.56   39.30
  12   4  10  450.25   36.30
  12   4  10  293.27   60.59
  12  -6  10   -2.70   18.70
 -12   6  10    8.90    8.90
  12   6 -10   -2.50   20.70
 -12  -6 -10    1.70    4.30
  12   6 -10    4.30   11.30
  12  -6 -10    0.40    4.80
 -12   6 -10    4.30    3.50
  12   6  10   14.20   22.10
 -12  -6  10    2.60    7.50
  12   6  10    7.20    9.50
 -12  -6  10    1.50    9.50
  12   6  10  -17.50   35.50
  12   6  10   -5.90   14.90
 -12  -8  10   36.20    9.50
 -12   1  11  100.29   12.10
  12  -1  11   75.59   24.90
 -12  -1 -11   96.59    8.20
  12   1 -11   97.49    8.40
  12   1 -11   91.59   16.80
 -12   1  11   89.49   12.50
  12   1 -11   86.69   18.90
 -12   1 -11  104.79    8.30
  12  -1 -11   74.49   17.40
 -12  -1  11  106.69   11.90
 -12  -1  11   71.29   11.50
  12  -1 -11  105.79   17.90
  12  -1 -11   94.19    8.90
  12   1  11   46.10   29.10
  12   3 -11   18.70    2.90
 -12  -3 -11   19.20    3.00
 -12   3  11   28.80    7.60
  12   3 -11   -8.30   12.70
  12  -3  11   20.40   23.90
  12   3 -11   10.10   17.00
 -12   3  11   10.30    9.50
  12  -3 -11   20.00    4.10
  12   3  11    7.00   13.40
  12   3  11    9.70   20.40
  12   3  11   19.00   32.90
  12  -3 -11   20.50   18.00
  12   3  11   10.30    8.70
 -12  -3  11   12.20    6.60
 -12   3 -11   18.10    3.30
 -12  -3  11   14.60    8.20
 -12   5  11   26.30   11.20
 -12   5  11   57.29    9.10
  12   5 -11   29.40   12.40
  12   5 -11   36.40   20.70
  12  -5  11   28.10   20.30
 -12  -5 -11   40.40    4.90
  12  -5 -11   51.59    6.20
 -12  -5  11   22.90   10.10
  12   5  11   -7.90   22.10
 -12   5 -11   45.20    4.50
 -12  -5  11   20.90    8.10
  12   5  11   30.60   15.60
  12   5  11   44.10   34.60
  12  -5 -11   30.80   20.00
  12   5  11   41.60   10.00
  12   7 -11   37.30   23.00
  12  -7  11    9.80   17.80
 -12   7  11   23.00    9.70
 -12   7 -11   21.20    3.90
  12   7  11   20.00   48.80
 -12  -7  11   16.00    9.40
  12   7  11   12.90   16.40
  12  -7 -11   17.70    6.40
  12   0  12  130.59   30.80
  12   0 -12  157.68   30.30
  12   0 -12  160.28   12.90
 -12   0 -12  144.79   12.70
 -12   0  12  165.78   19.00
 -12   0  12  161.68   15.90
  12   0 -12  180.08   26.70
  12   2 -12  104.29   18.00
 -12   2  12  129.49   17.60
  12  -2  12   58.89   26.90
 -12   2  12  131.29   13.10
 -12  -2 -12  113.29   10.20
  12   2 -12   94.39   20.00
  12   2 -12  125.09   10.20
  12   2  12   89.49   31.40
  12   2  12   83.89   14.80
  12   2  12  111.19   21.50
  12  -2 -12  154.18   22.10
 -12  -2  12  125.69   16.70
  12  -2 -12  136.89   10.90
  12   2  12  137.99   15.20
 -12   2 -12  122.79   10.20
 -12  -2  12  118.49   13.30
  12   4 -12   17.80   18.20
 -12   4  12   21.30   10.00
 -12  -4 -12   20.40    3.60
  12   4 -12   37.30   13.60
 -12   4  12   29.20    8.00
  12   4 -12   28.00    3.40
  12  -4  12    4.40   21.60
  12  -4 -12   26.90    5.20
 -12  -4  12   21.40    8.40
 -12  -4  12   24.30   10.20
  12   4  12   21.30    9.40
  12   4  12   20.10   14.50
 -12   4 -12   25.30    3.50
  12   4  12   16.10   22.50
  12   4  12   30.40   33.70
  12  -4 -12   34.40   19.90
  12   6 -12    1.90   20.80
  12  -6  12   11.60   20.00
 -12   6  12   -3.30    9.30
 -12  -6 -12    5.00    4.40
  12   6  12  -19.40   15.00
 -12   6 -12    4.60    3.20
 -12  -6  12    6.40    8.00
  12  -6 -12    4.60    4.50
  12   6  12   -0.20   35.60
  12   1 -13  172.78   31.90
 -12   1  13  173.18   16.50
  12   1 -13  149.99   21.50
  12   1 -13  179.18   13.90
 -12   1  13  169.48   20.00
 -12  -1 -13  163.68   13.80
  12  -1 -13  182.28   23.30
  12   1  13  133.69   34.00
  12  -1 -13  163.68   14.10
 -12  -1  13  195.68   16.60
 -12  -1  13  175.38   19.00
  12  -1 -13  165.58   27.90
 -12   1 -13  162.58   13.80
 -12   3  13  206.68   23.40
  12   3 -13  224.08   17.00
 -12  -3 -13  207.38   17.10
  12   3 -13  227.78   34.00
 -12   3  13  223.38   19.70
  12   3 -13  183.78   27.20
 -12   3 -13  197.78   17.00
  12  -3 -13  209.18   17.50
  12   3  13  244.58   25.40
  12  -3 -13  213.98   31.90
 -12  -3  13  207.48   21.50
 -12  -3  13  200.98   19.10
  12  -5  13   22.00   20.80
  12   5 -13   86.29   23.40
 -12  -5 -13   77.39    7.40
 -12   5  13   75.59   10.30
  12   5  13   44.30   16.50
 -12   5 -13   68.49    6.80
  12  -5 -13   63.89    7.20
  12   5  13   21.80   34.60
 -12  -5  13   53.69    9.50
  12   0 -14    4.80   17.80
 -12   0  14    2.60    6.70
  12   0 -14   -2.70   15.90
 -12   0  14    2.20    9.40
 -12   0 -14   -0.30    2.70
  12   0  14   -4.30   26.10
  12   0 -14    4.30    3.10
  12   2 -14  127.79   21.10
 -12   2  14  155.18   20.20
  12   2 -14  152.18   31.10
 -12  -2 -14  166.48   13.00
  12  -2  14  109.69   27.90
  12   2 -14  159.08   13.10
 -12   2  14  154.78   15.90
  12  -2 -14  213.88   30.50
 -12  -2  14  164.78   15.80
  12  -2 -14  159.18   13.60
 -12   2 -14  154.18   13.00
 -12  -2  14  172.08   18.90
  12  -4  14   -2.80   20.20
  12   4 -14    3.20    3.40
 -12   4  14   -0.80    7.60
 -12  -4 -14    6.40    3.20
  12   4 -14   -1.30   19.60
  12   4  14   -7.20   31.70
  12  -4 -14    2.40    4.20
 -12  -4  14    7.60    8.00
 -12   4 -14    7.80    2.80
  12   4  14   14.90   14.30
  12  -6  14   13.60   18.40
  12   6 -14   61.09   23.00
 -12   6  14   34.30    9.00
 -12  -6 -14   37.90    5.40
 -12   6 -14   41.50    4.40
  12  -6 -14   39.30    6.00
  12   6  14   33.50   16.20
  12   1 -15   -7.50   16.60
  12   1 -15    7.30    3.10
  12   1 -15   12.70   18.90
 -12  -1 -15    4.20    3.00
 -12   1  15   -4.30    7.30
 -12   1  15    1.90    9.80
  12  -1  15  -29.30   25.90
  12  -1 -15    4.90    3.30
 -12  -1  15   -3.70    7.20
  12   1  15  -15.60   28.40
 -12   1 -15    5.20    2.50
  12  -1 -15   14.70   18.00
 -12  -1  15   -2.10    9.30
  12  -3  15    4.20   21.90
  12   3 -15   -1.20    3.10
 -12  -3 -15   -3.90    3.30
 -12   3  15   11.70    7.00
  12   3 -15   16.50   18.50
  12   3  15  -22.20   29.80
 -12   3 -15    1.30    2.70
  12  -3 -15    2.00    3.90
 -12  -3  15    6.10    7.60
 -12   5  15  -13.10    8.40
  12   5 -15   -4.20   21.40
 -12  -5 -15   -0.40    3.60
  12  -5  15   -7.30   18.10
  12  -5 -15    0.80    4.60
 -12   5 -15   -1.10    2.90
  12   0  16   10.00   28.10
 -12   0 -16    3.40    2.90
  12   0 -16  -17.40   17.30
 -12   0  16    3.80    9.20
 -12   0  16    0.80    6.90
  12   0 -16    3.30    3.10
  12   2 -16  126.19   24.10
 -12   2  16  125.59   15.90
  12   2 -16  153.78   12.70
 -12  -2 -16  147.19   12.40
  12  -2 -16  154.58   13.10
 -12   2 -16  154.98   12.30
 -12   4  16    0.40    7.50
  12   4 -16    0.50   20.80
  12  -4  16    6.30   19.30
 -12  -4 -16    3.80    3.30
  12  -4 -16    1.70    4.40
 -12   4 -16   -0.40    2.80
  12   4  16    2.50   29.90
  12   1 -17   20.60    3.70
 -12   1  17   25.80    7.90
  12  -1  17   -7.90   24.20
 -12  -1 -17   27.00    3.40
 -12  -1  17   25.50    8.20
  12   1  17   12.40   28.30
  12  -1 -17   16.60    4.00
 -12   1 -17   16.50    3.30
 -12  -3 -17   22.10    3.80
  12  -3  17    6.00   20.20
 -12   3  17   20.50    8.10
  12   3 -17   21.30    4.10
  12   3 -17   27.10   21.50
  12  -3 -17   17.60    4.40
 -12   3 -17   16.70    3.20
  12   3  17   13.80   29.80
 -12   0  18   31.90    9.00
  12   0 -18   60.89    6.60
 -12   0 -18   55.59    5.80
  12   0  18   30.10   26.70
 -13   1   0    9.00   19.70
  13   1   0   -2.20    4.20
 -13  -1   0    0.70    2.30
 -13  -1   0    1.60    4.90
  13  -1   0   -4.10    5.10
 -13   1   0    0.80    7.60
  13  -1   0   -2.90    5.50
 -13  -1   0    2.50    6.90
  13   1   0  -17.10   27.40
 -13  -1   0  -11.60   17.00
  13  -1   0  -13.60    9.40
  13  -1   0  -11.60   25.50
 -13   1   0   -5.70    5.20
 -13   1   0    1.40    3.00
 -13  -1   0    1.50    2.20
  13   1   0   -1.10    7.60
  13   3   0    7.10    3.80
  13  -3   0   -0.70    5.90
  13  -3   0   -0.20    7.40
 -13  -3   0   -0.50    6.00
  13  -3   0   -3.10   13.10
  13  -3   0   -8.50   19.50
 -13  -3   0    3.80    6.90
  13   3   0   -4.90   23.80
 -13  -3   0   -7.90   12.70
 -13   3   0   -1.40   18.20
 -13   3   0    1.40    2.90
 -13   3   0    0.70    8.40
  13   3   0   -2.70    6.60
 -13   3   0   -1.40    5.40
  13   5   0   10.40   25.60
  13  -5   0    5.00    7.10
 -13   5   0   -6.80    7.70
  13  -5   0  -14.50   17.70
 -13  -5   0   -2.90    8.30
 -13  -5   0   -2.90    9.10
  13   5   0   -8.20    8.30
  13  -5   0    0.60   15.50
 -13   5   0    8.20   11.00
 -13   5   0   -0.30   19.00
  13   7   0    7.10    9.70
 -13   7   0   -5.60    9.20
 -13   7   0   -7.60   13.10
  13  -7   0   -2.20    7.50
 -13  -7   0    5.20    8.30
  13   7   0    7.30   31.60
 -13  -9   0   -4.70    8.10
 -13   9   0  -18.60   10.90
  13   9   0   -2.80   35.70
  13   0   1   22.90    5.00
 -13   0   1   19.80   16.90
 -13   0  -1   23.20    3.70
  13   0   1   25.00   29.10
 -13   0  -1   24.20   19.90
  13   0   1   22.70    8.10
 -13   0  -1   34.80    5.00
  13   0  -1   33.60    5.00
 -13   0   1   13.10    7.40
 -13   0  -1   32.70    4.10
  13   0  -1   30.70    5.50
  13   0  -1   11.60    9.10
  13   0  -1   26.50   25.60
 -13   0   1   28.30    3.30
 -13   0   1   32.60    5.70
 -13   0  -1   18.10    6.90
 -13   2   1 1989.90  146.39
  13   2  -1 1775.32  146.89
 -13  -2  -1 1654.73  150.58
  13  -2   1 1849.52  146.59
  13  -2   1 1996.70  151.28
  13   2  -1 1733.53  146.19
 -13   2   1 1884.31  146.99
 -13   2   1 1893.41  146.09
 -13   2   1 2016.80  151.48
 -13  -2  -1 2018.70  146.39
 -13  -2  -1 1857.41  146.89
  13   2  -1 1867.51  153.18
  13  -2   1 1834.62  147.89
 -13  -2   1 1964.20  146.39
  13   2   1 1773.52  146.79
  13  -2  -1 1864.21  146.59
 -13   2  -1 1948.91  146.99
  13   2   1 1855.61  146.19
  13  -2  -1 1899.11  146.39
  13  -2  -1 1853.21  148.09
 -13  -2   1 1902.21  149.39
 -13   2  -1 1895.01  146.19
  13  -2  -1 1879.91  150.58
 -13  -2   1 1815.82  146.89
 -13   2  -1 1983.70  146.29
 -13   2  -1 1941.61  151.28
  13   2   1 1752.32  155.08
 -13   4   1   47.50    8.20
 -13  -4  -1   46.20    9.00
  13  -4   1   46.40   17.20
  13  -4   1   43.10   20.50
  13  -4   1   51.69    8.20
 -13   4   1   61.69   11.30
 -13  -4  -1   73.19    8.40
  13   4  -1   31.60   23.30
  13   4  -1   56.09    9.20
  13  -4   1   62.69   10.30
 -13   4   1   36.30   18.60
 -13   4  -1   45.20   21.00
 -13  -4   1   60.79    7.80
 -13   4  -1   51.39    7.60
  13  -4  -1   51.89    7.80
 -13   4  -1   60.29   10.90
  13   4   1   45.70    8.50
 -13  -4   1   37.60    8.50
  13   4   1   47.70   28.10
  13  -4  -1   39.80    9.70
  13  -4  -1   65.59   16.20
  13  -4  -1   65.09   17.10
  13  -6   1  380.96   43.20
 -13   6   1  370.56   33.40
  13   6  -1  335.27   29.50
 -13  -6  -1  315.47   29.70
 -13  -6  -1  289.67   28.50
 -13   6   1  342.07   29.30
  13   6  -1  281.37   49.90
  13   6   1  380.26   29.70
  13  -6  -1  364.96   42.70
 -13  -6   1  316.47   30.00
 -13  -6   1  319.07   28.70
 -13   6  -1  366.16   33.90
  13   6   1  275.67   53.99
 -13   6  -1  334.07   29.50
  13  -6  -1  289.57   28.50
 -13   8   1    4.10   14.50
 -13  -8  -1    7.30    8.90
 -13   8   1    1.10    9.80
 -13   8   1    9.10    9.50
  13   8  -1    9.30   30.00
 -13   8  -1    6.30    9.00
 -13   8  -1   -1.90   16.20
 -13   8  -1    0.70   10.30
 -13  -8   1   12.40    9.00
  13  -8  -1   11.80    8.80
  13   8   1    4.80   34.60
  13  -1   2  287.97   25.80
  13  -1   2  312.87   44.50
 -13  -1  -2  309.47   40.50
 -13  -1  -2  309.17   25.30
 -13   1   2  335.27   25.90
 -13   1   2  310.07   27.90
  13   1  -2  323.97   25.30
  13   1  -2  319.27   25.50
 -13  -1  -2  316.87   24.70
 -13   1   2  299.07   24.80
 -13  -1  -2  334.27   25.70
 -13  -1  -2  307.67   27.00
 -13   1   2  339.87   36.80
  13  -1   2  287.07   28.90
  13   1  -2  311.67   27.80
  13   1  -2  322.27   44.10
 -13  -1   2  314.77   25.60
 -13   1  -2  330.07   25.60
 -13   1  -2  319.87   25.20
  13  -1  -2  321.07   25.50
  13  -1  -2  286.87   26.30
  13   1   2  278.17   27.00
  13   1   2  318.67   50.79
 -13   1  -2  304.27   26.70
 -13   1  -2  335.47   25.50
 -13  -1   2  334.77   24.60
  13  -1  -2  287.17   30.00
 -13  -1   2  325.37   33.40
  13   1   2  316.97   25.20
  13  -1  -2  390.26   44.90
 -13   1  -2  316.07   41.00
 -13  -1   2  302.27   27.00
 -13   3   2  550.54   43.70
 -13   3   2  538.05   42.80
 -13  -3  -2  549.15   44.80
 -13   3   2  553.64   52.99
 -13   3   2  531.95   45.50
  13   3  -2  592.34   55.79
  13  -3   2  558.44   53.59
  13   3  -2  521.45   43.10
  13   3  -2  553.24   44.60
  13  -3   2  498.15   48.40
 -13  -3  -2  607.44   43.70
  13  -3   2  528.55   44.20
 -13  -3   2  614.04   43.70
  13  -3  -2  516.75   44.30
  13   3   2  518.05   43.20
 -13   3  -2  581.54   54.99
 -13  -3   2  524.45   46.40
  13  -3  -2  556.94   50.09
 -13   3  -2  556.44   43.10
  13   3   2  517.75   44.30
  13  -3  -2  556.84   43.70
 -13   3  -2  550.04   43.40
 -13   3  -2  556.94   45.10
  13   3   2  521.15   63.89
  13  -3  -2  531.55   49.10
 -13  -3   2  543.85   44.90
  13  -5   2  501.65   45.90
  13  -5   2  383.96   44.40
 -13   5   2  406.96   38.90
  13   5  -2  376.66   53.49
 -13  -5  -2  471.05   35.80
 -13  -5  -2  463.25   36.80
  13   5  -2  451.45   36.60
 -13   5   2  459.85   36.20
 -13  -5   2  441.26   36.80
  13  -5  -2  440.76   35.70
 -13   5  -2  371.76   34.50
  13  -5  -2  365.06   37.60
  13  -5  -2  530.35   45.40
 -13  -5   2  462.25   35.60
  13   5   2  492.95   36.60
  13   5   2  364.56   59.69
 -13   5  -2  401.26   35.70
 -13   5  -2  454.45   38.60
 -13   7   2  184.38   23.40
 -13  -7  -2   98.39   13.30
  13   7  -2  126.99   17.30
 -13   7   2  169.58   17.30
  13   7  -2   87.89   29.20
  13   7   2   65.59   20.10
  13  -7  -2  147.29   26.40
  13   7   2  166.68   18.70
 -13   7  -2  104.29   12.90
 -13   7  -2   97.49   13.50
 -13  -7   2  122.99   15.50
  13   7   2   80.69   35.60
 -13   7  -2   91.99   17.00
 -13   7  -2  140.89   17.40
  13  -7  -2  129.99   13.10
 -13  -9  -2    3.20    9.60
 -13   9   2   20.40   10.50
  13   9  -2   -7.70   35.00
 -13   9  -2    6.50    5.40
  13  -9  -2   -5.00    8.20
 -13  -9   2    0.60    8.20
 -13   9  -2   14.80   12.00
  13   9   2    4.80   39.50
 -13   0   3 1469.05  109.79
  13   0   3 1413.36  107.49
 -13   0   3 1377.46  106.49
  13   0   3 1224.58  117.09
  13   0  -3 1292.37  106.89
 -13   0  -3 1289.47  107.19
 -13   0  -3 1296.37  106.79
  13   0   3 1379.06  106.69
  13   0  -3 1606.74  114.89
  13   0  -3 1329.47  106.69
  13   0  -3 1332.17  108.09
 -13   0  -3 1317.17  114.19
 -13   0   3 1485.35  106.89
 -13   0  -3 1367.16  106.69
 -13  -2  -3  122.29    9.60
  13  -2   3  105.19   24.70
 -13  -2  -3  123.99   12.40
  13  -2   3  145.29   19.80
 -13   2   3  136.99   16.60
  13   2  -3  131.99   16.40
  13   2  -3  102.89   22.90
  13  -2   3  117.69   12.90
 -13   2   3  134.99   12.70
 -13   2   3  114.49   25.30
  13   2  -3  110.19   11.60
 -13   2   3  108.19   10.00
 -13  -2  -3  124.59   22.60
 -13  -2  -3  124.89   14.60
  13  -2  -3  117.89   11.50
  13  -2  -3  120.79   16.30
 -13  -2   3  115.39   12.10
 -13   2  -3   93.19   24.80
  13  -2  -3  108.49   23.40
  13   2   3  120.49   10.40
  13   2   3  105.59   11.00
  13   2   3  106.79   31.50
 -13   2  -3  148.39   14.70
  13  -2  -3  136.69   14.20
 -13   2  -3  120.59   11.60
  13   2   3  131.79   14.20
 -13  -2   3  119.09   17.80
 -13   2  -3  120.09   11.00
 -13  -2   3  123.09   14.40
 -13   2  -3  107.69   11.70
  13  -4   3  294.67   43.50
 -13  -4  -3  376.86   30.70
  13   4  -3  369.96   31.70
 -13  -4  -3  368.56   31.80
  13  -4   3  390.86   38.40
 -13   4   3  371.66   30.90
 -13   4   3  345.87   33.50
  13   4  -3  355.36   47.70
  13  -4  -3  401.96   39.00
 -13   4  -3  380.46   32.40
 -13   4  -3  363.36   29.40
 -13  -4   3  403.66   30.50
 -13   4  -3  318.37   45.20
  13   4   3  304.27   57.19
  13   4   3  372.86   31.10
 -13  -4   3  379.66   31.80
  13  -4  -3  367.16   29.90
 -13   4  -3  351.66   29.80
  13  -6   3   36.00   19.40
 -13   6   3   72.79   11.10
  13   6  -3   56.79   26.10
 -13   6   3   55.89   14.10
  13   6  -3   82.59   11.30
 -13  -6  -3   85.29   11.00
 -13   6  -3   63.79   13.30
 -13  -6   3   74.79   11.00
 -13   6  -3   80.39    8.30
 -13  -6   3   91.29   12.60
  13   6   3  100.09   12.10
 -13   6  -3   65.09    9.90
  13   6   3   71.49   36.60
  13  -6  -3   75.79   10.40
  13  -6  -3   78.79   22.70
  13   8  -3   72.99   32.00
 -13  -8  -3   31.60    9.40
 -13   8   3   43.10   14.10
 -13   8   3   82.79   10.80
  13   8   3   22.10   39.20
 -13  -8   3   66.49   10.80
  13  -8  -3   62.49    9.30
 -13   8  -3   58.49    7.10
 -13   8  -3   60.59   11.80
  13   1  -4  362.66   31.40
  13   1  -4  390.16   42.40
  13  -1   4  321.87   31.50
  13  -1   4  343.97   47.30
  13   1  -4  359.36   28.30
 -13   1   4  368.96   29.30
 -13  -1  -4  338.27   30.20
  13   1  -4  367.26   28.90
 -13  -1  -4  352.66   44.40
 -13   1   4  371.46   28.10
 -13  -1  -4  385.56   29.00
  13  -1   4  332.27   28.90
 -13   1   4  354.76   31.30
 -13   1   4  369.06   32.20
 -13  -1  -4  377.86   28.10
 -13   1  -4  341.87   28.30
 -13   1  -4  322.27   44.10
 -13  -1   4  365.96   32.20
  13   1   4  367.06   28.60
  13   1   4  367.56   28.40
 -13  -1   4  375.26   30.40
  13   1   4  393.56   53.19
  13  -1  -4  355.06   28.50
 -13   1  -4  362.06   28.50
 -13  -1   4  371.06   28.00
 -13  -1   4  411.76   29.20
 -13   1  -4  349.27   28.90
  13   1   4  337.37   29.90
  13  -1  -4  333.97   29.50
  13  -1  -4  351.46   33.70
 -13   1  -4  308.67   29.20
 -13  -3  -4  402.76   29.20
  13   3  -4  348.17   30.00
  13  -3   4  404.06   44.10
 -13   3   4  395.26   30.80
 -13   3   4  366.66   33.00
 -13   3   4  361.86   29.30
  13  -3   4  332.07   36.40
  13   3  -4  343.77   45.80
 -13  -3  -4  412.56   30.80
 -13  -3  -4  382.16   32.00
 -13  -3  -4  318.17   41.90
  13   3  -4  381.66   32.40
  13   3   4  355.96   55.19
  13   3   4  373.76   29.30
  13  -3  -4  305.27   31.10
  13   3   4  366.46   29.90
 -13  -3   4  409.36   30.70
 -13   3  -4  388.16   30.50
  13  -3  -4  355.06   38.60
 -13  -3   4  377.66   32.00
  13   3   4  368.86   31.20
 -13   3  -4  336.47   45.50
 -13   3  -4  386.16   29.80
 -13   3  -4  389.86   31.60
  13  -3  -4  387.46   30.10
  13   5  -4  171.98   29.80
 -13   5   4  187.08   23.20
 -13  -5  -4  195.28   18.70
 -13   5   4  170.88   19.50
  13  -5   4  154.58   34.30
  13   5  -4  193.38   20.20
 -13  -5   4  203.68   18.00
  13  -5  -4  189.58   17.10
 -13   5  -4  151.18   15.80
 -13   5  -4  185.38   17.10
 -13  -5   4  186.88   19.70
  13  -5  -4  208.38   25.20
  13   5   4  211.88   20.70
 -13   5  -4  184.18   20.90
 -13   5  -4  183.58   16.00
  13   5   4  132.59   37.00
 -13   7   4   49.40   10.00
  13   7  -4   65.19   10.30
  13   7  -4   38.60   26.40
 -13   7   4   46.20   12.70
  13  -7   4   28.70   17.40
 -13  -7  -4   56.59    9.10
 -13   7  -4   54.39    9.30
  13  -7  -4   49.90    8.80
  13   7   4   28.20   18.20
  13   7   4    3.70   37.00
 -13  -7   4   24.70    9.70
 -13   7  -4   52.59    6.10
  13  -7  -4   82.79   25.80
 -13  -7   4   41.30    9.60
  13   7   4   84.59   11.80
  13   9  -4   29.10   30.70
 -13   9   4   11.60   10.10
 -13   9  -4   12.60    5.40
 -13  -9   4   21.50   10.10
  13  -9  -4   12.60    8.00
  13   9   4   -2.20   38.70
  13   0   5 3637.64  285.37
 -13   0  -5 3215.18  284.07
  13   0  -5 3277.07  280.97
  13   0  -5 3889.41  283.67
 -13   0   5 3772.12  280.67
 -13   0  -5 3612.74  280.27
 -13   0  -5 3793.12  279.87
  13   0   5 3469.25  279.87
  13   0   5 3729.03  280.37
 -13   2   5   25.60    9.30
  13   2  -5   43.20    9.90
 -13   2   5   37.50    4.40
 -13  -2  -5   63.99    6.90
 -13  -2  -5   20.90   20.20
  13   2  -5   39.00    6.00
 -13  -2  -5   37.30    4.10
  13   2  -5   32.80   19.90
  13   2  -5   39.80    3.90
  13  -2   5   52.59   24.20
 -13   2   5   46.80    7.20
 -13  -2  -5   39.80    7.90
  13  -2  -5   52.79   19.00
 -13  -2   5   44.20    6.50
  13   2   5   43.90    4.10
 -13   2  -5   27.50   21.80
  13   2   5   40.30    7.70
  13  -2  -5   48.70    4.80
  13  -2  -5   27.50    6.90
  13  -2  -5   22.10   12.50
  13   2   5   45.90    5.30
 -13   2  -5   37.40    5.40
 -13  -2   5   26.90    8.30
  13   2   5   22.30   32.20
 -13   4   5  804.22   67.49
 -13  -4  -5  872.81   64.69
  13   4  -5  760.92   74.29
 -13  -4  -5  850.91   65.79
 -13   4   5  870.31   65.99
  13  -4   5  701.73   74.09
  13   4  -5  833.52   66.49
  13  -4  -5  811.12   65.19
 -13   4  -5  827.62   64.99
 -13  -4   5  867.71   66.39
  13  -4  -5  932.11   71.49
 -13  -4   5  880.01   65.49
  13   4   5  848.52   66.39
  13   4   5  765.02   64.69
  13  -6   5   -2.80   18.70
 -13  -6  -5    0.10    8.00
  13   6  -5   -6.30    9.10
 -13   6   5   -1.90    8.20
 -13   6   5   -7.60   10.50
 -13  -6  -5   -1.60    4.30
  13   6  -5    5.80   22.70
  13  -6  -5  -40.70   21.20
 -13   6  -5    0.40    5.00
  13  -6  -5   11.20    6.30
 -13  -6   5   -9.20    8.30
 -13  -6   5    0.80    9.30
 -13   6  -5   -6.50    9.90
  13   6   5    5.10    9.40
  13   6   5   -1.50   20.00
  13   6   5    8.20   34.30
 -13   6  -5   -7.20    8.20
 -13  -8  -5  159.58   19.10
  13  -8  -5  192.58   19.10
 -13   8  -5  167.18   15.30
 -13  -8   5  146.29   18.50
 -13  -1  -6  -12.50   22.70
 -13   1   6    8.70    5.90
  13   1  -6    3.50    4.90
 -13  -1  -6    3.70    6.10
 -13   1   6    4.50    8.70
  13   1  -6    7.60    8.40
  13  -1   6   -6.10   24.90
 -13  -1  -6   10.20    5.40
  13   1  -6   10.30   18.90
 -13   1   6    4.60    1.70
 -13  -1  -6    2.70    2.00
  13   1  -6    2.50    2.40
  13   1  -6    6.10    9.20
  13  -1  -6    1.80    5.50
 -13  -1   6    7.00    6.80
  13   1   6    9.40    3.80
  13  -1  -6    5.90    7.90
  13   1   6   -0.80    6.40
  13   1   6  -16.30   28.50
 -13   1  -6   16.70   21.70
 -13   1  -6   -1.50    2.60
 -13  -1   6    6.20    5.50
  13  -1  -6    2.00    3.10
  13  -1  -6    6.60   11.80
  13  -1  -6   -3.30   19.60
 -13  -1   6    3.50    1.50
  13   1   6    3.40    2.90
  13  -3   6   38.00   24.00
 -13   3   6   72.59   10.80
 -13  -3  -6   88.99    9.00
  13   3  -6   69.89   10.80
 -13   3   6   62.49    8.50
 -13  -3  -6   68.69    6.10
  13   3  -6   69.59   19.20
 -13  -3   6   73.39   10.40
  13   3   6   65.09    8.50
  13  -3  -6   60.09   16.80
  13   3   6   53.09   34.00
  13  -3  -6   68.69    8.30
 -13  -3   6   60.69    8.30
  13   3   6   61.29    6.50
  13   3   6   86.79    9.80
 -13   3  -6   67.19    7.60
 -13   5   6   57.59   12.50
 -13  -5  -6   59.59    6.90
  13   5  -6   71.39   21.60
  13  -5   6   17.60   22.10
 -13  -5  -6   76.29    9.80
  13   5  -6   59.69   11.20
 -13   5   6   65.29   10.20
  13   5   6   42.60   21.00
  13   5   6   81.29   10.90
 -13   5  -6   67.39    6.50
 -13  -5   6   65.09   10.10
 -13  -5   6   69.79    9.00
  13   5   6   19.80   34.70
  13  -5  -6   61.69   22.40
  13  -5  -6   64.39    7.50
 -13  -7  -6   -6.10    8.60
 -13   7   6   16.80   12.50
 -13   7   6   18.70    9.60
  13   7  -6    5.80   25.10
  13   7  -6    3.30    9.70
  13  -7   6   12.30   18.60
 -13  -7   6    3.20   10.70
 -13   7  -6    3.90    4.40
 -13  -7   6    5.40    9.20
  13   7   6  -30.60   35.80
  13  -7  -6    7.10    7.00
  13   7   6   -2.30   20.50
 -13   0   7  588.94   45.00
  13   0   7  556.54   45.30
  13   0  -7  578.54   45.20
 -13   0   7  602.84   47.60
  13   0   7  544.55   61.39
  13   0  -7  520.25   46.10
  13   0  -7  537.75   48.10
  13   0  -7  613.94   49.60
 -13   0  -7  579.84   45.10
 -13   0   7  631.34   46.20
  13   0  -7  609.14   55.19
 -13  -2  -7  113.59    9.20
  13  -2   7   96.19   26.80
  13   2  -7  117.09   14.00
  13   2  -7  101.79   19.70
 -13   2   7  127.09   17.00
  13   2  -7   98.39   17.90
 -13   2   7  118.39   12.90
 -13  -2  -7  116.19   13.00
  13   2  -7  115.19    9.40
  13  -2  -7  115.69   10.50
 -13   2  -7  115.59    9.90
 -13  -2   7  115.69   14.90
  13   2   7  103.39   10.70
  13   2   7   59.09   34.40
  13  -2  -7  133.69   17.40
  13   2   7  113.29   13.40
 -13  -2   7  116.09   12.40
  13   2   7   93.59    9.60
 -13  -2   7  116.79    9.10
 -13   4   7  446.76   34.20
 -13  -4  -7  421.46   33.90
  13   4  -7  383.06   35.70
 -13   4   7  413.26   36.70
 -13  -4  -7  429.26   32.00
  13   4  -7  393.76   45.80
 -13  -4   7  396.96   33.50
  13   4   7  422.96   47.20
 -13  -4   7  428.16   35.30
  13   4   7  348.87   32.00
  13  -4  -7  424.36   32.60
  13  -4  -7  486.45   43.10
 -13   4  -7  389.66   32.30
  13   4   7  441.66   35.10
  13   4   7  295.77   60.39
 -13   6   7    8.40    8.80
 -13  -6  -7   15.40    4.00
  13   6  -7   29.00   20.50
 -13  -6  -7   12.40    8.90
 -13   6   7    5.00   10.40
  13   6  -7   14.30    9.90
  13  -6   7   22.10   20.80
 -13  -6   7   18.90    7.70
 -13   6  -7   21.70    4.20
  13  -6  -7   20.30    6.40
  13  -6  -7   11.20   20.40
 -13  -6   7   12.80    8.80
  13   6   7   16.20   21.50
  13   6   7   16.50   38.10
  13   6   7   23.60   10.80
 -13   8   7   32.20    9.40
  13   8  -7   32.50   28.00
  13  -8   7   22.40   17.20
  13   8   7    8.50   39.60
  13  -8  -7   46.20    8.80
 -13   8  -7   29.70    5.00
 -13  -8   7   22.80    9.50
  13   1  -8  367.86   39.40
  13   1  -8  363.66   28.00
  13   1  -8  293.97   33.40
 -13  -1  -8  348.27   27.90
 -13   1   8  388.46   29.20
 -13   1   8  346.97   27.80
 -13  -1  -8  368.26   29.00
  13  -1   8  335.87   48.60
  13   1  -8  326.17   33.50
 -13   1   8  368.56   31.50
 -13   1  -8  351.76   27.90
  13   1   8  423.06   41.30
  13   1   8  330.37   28.00
  13   1   8  350.36   29.70
 -13  -1   8  371.76   27.80
  13  -1  -8  359.26   28.10
  13  -1  -8  346.57   36.10
  13  -1  -8  341.37   32.70
 -13  -1   8  373.86   30.80
 -13  -1   8  397.06   29.20
  13  -1  -8  368.36   40.80
  13   1   8  340.77   28.20
  13   1   8  284.77   51.19
 -13   3   8  312.27   28.40
 -13  -3  -8  313.97   23.80
  13   3  -8  307.67   28.70
  13  -3   8  254.07   42.60
 -13  -3  -8  321.97   26.00
  13   3  -8  296.27   38.50
  13   3  -8  308.37   23.70
 -13   3   8  329.57   26.00
 -13  -3   8  300.97   26.90
  13   3   8  300.17   24.60
  13  -3  -8  347.87   36.80
  13  -3  -8  321.17   24.50
 -13   3  -8  311.17   24.00
 -13  -3   8  305.67   25.20
  13   3   8  269.97   23.90
  13   3   8  322.47   42.40
  13   3   8  300.07   27.10
 -13  -3   8  258.87   23.70
  13   5  -8  217.68   37.30
 -13   5   8  242.38   25.90
 -13   5   8  260.87   22.90
 -13  -5  -8  240.68   22.50
 -13  -5  -8  233.58   18.80
  13   5  -8  185.18   24.30
 -13  -5   8  228.58   21.30
  13   5   8  252.17   24.30
  13   5   8  153.68   41.70
  13  -5  -8  228.08   29.30
  13  -5  -8  258.77   19.90
 -13   5  -8  228.28   19.00
 -13  -5   8  236.78   24.00
 -13   7   8   53.29   10.00
  13   7  -8   51.69   22.80
  13  -7   8   22.00   18.70
 -13  -7   8   31.20    9.40
 -13  -7   8   36.10   11.10
  13   7   8    5.50   38.20
  13  -7  -8   49.99    8.00
 -13   7  -8   40.20    5.10
  13   0  -9   55.19   13.30
 -13   0   9   60.49    5.60
 -13   0   9   82.99    8.90
  13   0   9   50.89   27.30
  13   0  -9   69.89    6.80
  13   0  -9   72.79   15.50
 -13   0  -9   61.39    6.30
 -13   0   9   63.69   10.50
  13   0  -9   66.19   18.70
 -13   2   9 1217.78   93.39
  13   2  -9 1114.39   94.09
 -13   2   9 1160.58   92.19
  13   2  -9 1174.48   91.59
  13   2  -9 1174.88   98.19
  13  -2  -9 1260.37   96.19
  13  -2  -9 1208.28   91.69
  13   2   9 1008.40  104.49
 -13  -2   9 1188.98   92.09
 -13  -2   9 1142.69   91.59
  13   2   9 1189.28   92.59
 -13  -2   9 1191.18   93.09
  13   2   9 1120.79   91.79
  13   2   9 1346.77   98.59
 -13   4   9    7.10    7.00
  13   4  -9    5.00    2.30
  13   4  -9    2.20   18.90
  13  -4   9   24.30   22.20
  13   4  -9   -0.20   10.30
 -13   4   9    7.10   10.30
 -13  -4  -9    1.50    2.80
  13  -4  -9    5.60   16.80
 -13  -4   9    4.50    9.30
  13   4   9    4.30   22.10
 -13   4  -9    4.70    3.30
  13   4   9    5.40    8.70
 -13  -4   9    0.00    7.50
  13   4   9   18.70   35.00
  13  -4  -9    5.30    4.40
 -13   6   9  254.07   21.40
 -13  -6  -9  217.68   16.50
  13   6  -9  144.09   22.40
  13   6  -9  153.18   28.30
 -13   6   9  197.28   24.60
 -13  -6   9  168.98   19.50
  13  -6  -9  203.68   17.80
  13   6   9  134.89   28.20
 -13   6  -9  205.58   16.40
 -13  -6   9  219.88   22.30
 -13   8   9   -2.80   10.00
  13  -8   9    5.30   16.30
  13   8  -9    7.70   24.50
  13   8   9   13.90   16.30
  13  -8  -9    3.70    7.40
 -13   8  -9    0.40    4.40
 -13  -8   9    7.20    8.90
 -13  -1 -10   28.40    3.10
 -13   1  10   15.00    9.20
  13   1 -10   37.20   17.70
 -13   1  10   27.00    6.80
  13   1 -10   11.70   12.80
  13  -1  10   34.60   26.30
  13   1 -10   15.40   13.40
  13   1 -10   29.30    3.20
 -13  -1  10   19.20    9.20
 -13  -1  10   22.00    2.60
  13   1  10   25.90   17.30
 -13  -1  10   11.40    6.70
  13  -1 -10   21.60    3.80
 -13   1 -10   16.80    3.30
  13  -1 -10   22.50   13.60
  13   1  10   20.20   31.00
  13  -1 -10   26.10   17.40
  13  -1 -10   23.30   16.20
 -13   3  10    5.10    6.50
 -13   3  10   -4.90    9.30
  13   3 -10    0.60    2.40
  13  -3  10   21.40   24.50
 -13  -3 -10    2.80    2.50
  13   3 -10   12.20   18.10
  13   3 -10   -2.60   11.90
 -13  -3  10    3.30    8.10
  13   3  10    6.40   31.70
 -13  -3  10    4.60    6.50
 -13   3 -10    1.60    2.80
  13  -3 -10   25.30   17.60
  13   3  10   -1.00    8.20
  13  -3 -10    1.90    4.30
  13   3  10   -8.50   22.80
 -13  -5 -10   -2.70    3.50
 -13   5  10    2.90    8.10
  13  -5  10   -3.30   20.40
 -13   5  10   -6.40   11.40
  13   5 -10   -0.20   10.80
  13   5 -10    9.00   20.60
  13   5  10  -12.50   23.90
  13  -5 -10    1.80    5.20
 -13  -5  10    3.80    7.40
 -13  -5  10    1.70    9.60
 -13   5 -10   -0.30    3.20
  13  -5 -10  -34.10   19.60
  13   5  10   13.30   10.10
  13   5  10   21.40   15.20
  13   5  10   12.60   34.30
  13   7 -10    6.90   21.50
 -13   7  10    0.80    9.90
  13  -7  10   -3.00   18.20
 -13  -7  10   -4.30    8.80
  13  -7 -10   -0.40    6.20
  13   7  10  -16.40   37.60
  13   7  10   -0.70   15.60
 -13   7 -10   -0.60    3.80
 -13   0  11   10.90    9.00
  13   0 -11   16.90    3.40
  13   0  11    8.10   29.00
  13   0 -11   15.00   16.90
 -13   0 -11   16.30    3.00
 -13   0  11   22.40    7.00
  13   0 -11   17.40   15.80
 -13   2  11  897.11   70.79
  13   2 -11  810.42   73.89
 -13  -2 -11  877.01   70.09
  13   2 -11  850.81   77.79
 -13   2  11  929.71   72.39
  13   2 -11  906.51   70.09
  13   2  11  925.01   71.39
 -13   2 -11  865.11   70.09
  13  -2 -11  892.01   70.29
  13   2  11  968.40   72.49
  13  -2 -11  931.01   76.69
 -13  -2  11  886.51   71.99
  13   2  11  984.30   77.19
 -13  -2  11  902.91   70.79
  13   4 -11   -2.40   11.70
 -13   4  11   10.30    7.30
  13   4 -11   12.90    2.80
  13  -4  11    2.00   23.10
  13   4 -11   20.50   19.70
 -13   4  11   14.10   10.30
 -13  -4 -11    6.40    3.10
  13   4  11   40.90   23.90
 -13   4 -11   11.50    3.20
  13  -4 -11   -3.00   20.70
  13  -4 -11    9.40    5.00
  13   4  11   -5.50   15.40
 -13  -4  11   14.50    8.30
  13   4  11   -8.90   33.80
 -13  -4  11   26.00    9.80
  13   4  11    4.10    9.50
  13   6 -11  223.38   40.20
 -13  -6 -11  227.08   18.00
  13   6 -11  162.28   24.00
 -13   6  11  271.07   22.00
 -13  -6  11  231.28   23.60
  13  -6 -11  240.98   18.70
 -13  -6  11  183.78   20.60
  13   6  11  162.68   23.70
  13   6  11  148.79   32.10
 -13   6 -11  218.18   17.60
 -13   1  12  191.88   17.10
  13   1 -12  179.48   14.60
 -13  -1 -12  174.48   14.50
  13   1 -12  212.78   27.00
  13  -1  12  112.39   30.30
 -13   1  12  166.48   20.50
  13   1 -12  182.88   33.30
  13   1  12  132.79   36.00
 -13   1 -12  183.48   14.50
 -13  -1  12  187.38   17.00
  13  -1 -12  150.08   31.70
  13  -1 -12  193.88   14.90
 -13  -1  12  177.88   19.60
  13  -1 -12  207.58   28.90
  13   3 -12  178.18   26.90
 -13  -3 -12  217.38   17.40
 -13   3  12  206.28   23.50
  13   3 -12  202.88   36.10
 -13   3  12  237.58   20.10
  13   3 -12  229.68   17.40
 -13  -3  12  183.88   19.40
  13  -3 -12  236.48   33.00
  13   3  12  210.48   26.00
 -13   3 -12  209.08   17.40
 -13  -3  12  178.88   21.60
  13   3  12  230.78   22.20
  13  -3 -12  247.68   18.00
  13   3  12  210.68   30.00
  13   5 -12   93.89   24.20
 -13   5  12  156.68   15.50
  13   5 -12  113.39   16.80
 -13  -5 -12  126.59   11.00
  13   5  12  123.39   27.00
  13  -5 -12  137.59   12.30
  13   5  12   80.39   18.80
 -13   5 -12  112.79   10.60
 -13  -5  12  148.19   19.00
 -13  -5  12  114.09   12.70
 -13   7  12   53.09    9.60
  13  -7  12   11.50   19.50
  13  -7 -12   32.40    6.80
  13   7  12   23.50   16.30
 -13  -7  12   27.10   10.00
 -13   0 -13  343.17   26.40
 -13   0  13  336.67   28.00
  13   0 -13  339.77   40.00
  13   0 -13  370.96   36.90
  13   0 -13  345.07   26.60
 -13   0  13  333.67   30.10
  13   0  13  229.18   47.80
 -13   2  13   12.30    6.70
  13  -2  13    0.10   26.90
  13   2 -13   19.60   18.60
 -13  -2 -13   23.40    3.40
 -13   2  13   17.40    9.80
  13   2 -13   16.60    3.20
  13   2 -13   23.40   15.80
 -13   2 -13   20.70    3.30
  13  -2 -13   10.30   18.20
 -13  -2  13   30.50    9.30
  13   2  13    1.50   31.30
 -13  -2  13   23.00    7.30
  13   2  13    8.70   11.00
  13  -2 -13   19.30    4.20
  13  -4  13   30.90   22.40
 -13  -4 -13   73.09    7.50
  13   4 -13   42.70   15.50
 -13   4  13   74.99   10.40
  13   4 -13   87.29    8.30
  13   4 -13   70.69   23.00
  13   4  13   29.10   34.00
 -13  -4  13   62.19   10.40
 -13   4 -13   82.19    7.20
  13  -4 -13   95.79    9.40
 -13  -4  13   75.29   12.50
  13   4  13   49.40   16.70
 -13   6  13   33.90    8.40
  13   6 -13   46.70   23.30
 -13  -6 -13   27.60    5.10
  13  -6  13    1.70   19.80
  13   6  13   40.90   16.60
 -13  -6  13   28.10    8.80
  13   6  13   39.10   37.80
 -13   6 -13   27.90    4.00
  13  -6 -13   36.90    6.20
  13  -1  14   41.80   26.30
 -13   1  14   48.70   11.40
  13   1 -14   69.09   17.60
 -13  -1 -14   58.49    6.60
 -13   1  14   51.99    9.00
  13   1 -14   64.79   20.70
  13   1 -14   58.89    6.90
 -13  -1  14   77.49   11.00
  13  -1 -14   71.79    7.40
 -13   1 -14   73.29    6.50
  13  -1 -14   70.39   18.60
  13   1  14   44.00   29.70
 -13  -1  14   77.19    9.00
  13   3 -14   36.00    4.30
  13   3 -14   29.80   20.00
 -13   3  14   34.50   11.00
 -13  -3 -14   41.40    4.50
 -13   3  14   56.49    8.50
  13   3 -14   32.30   16.70
  13  -3  14    9.10   22.80
  13   3  14   -3.50   32.80
 -13  -3  14   43.70    8.10
  13  -3 -14   35.90    5.20
 -13   3 -14   35.20    4.20
 -13  -3  14   43.70   10.00
 -13   5  14    9.90    7.90
 -13  -5 -14   -1.40    3.60
  13   5 -14   -2.30   21.50
  13  -5  14    7.60   19.40
  13   5  14   11.60   32.30
  13  -5 -14    8.20    4.70
  13   5  14  -10.20   15.70
 -13   5 -14   -0.90    3.00
 -13  -5  14   -3.60    8.10
  13   0 -15  553.04   52.59
  13   0 -15  562.94   57.39
 -13   0  15  545.85   45.40
  13   0 -15  578.34   44.50
 -13   0 -15  586.14   44.40
 -13   0  15  561.94   47.20
  13   2 -15   21.90    3.60
  13   2 -15   23.20   19.90
 -13   2  15   28.30    7.60
 -13  -2 -15   15.40    3.20
  13  -2  15    9.70   24.40
 -13   2  15    6.70   10.40
  13   2 -15   14.30   16.60
 -13   2 -15   17.20    3.00
 -13  -2  15   19.00    7.30
 -13  -2  15    0.20    9.20
  13   2  15   -8.50   29.40
  13  -2 -15   15.00    4.10
  13   4 -15  226.88   40.80
 -13   4  15  260.37   22.60
 -13  -4 -15  255.37   19.90
  13  -4 -15  266.77   20.60
 -13   4 -15  235.38   19.70
 -13  -4  15  213.98   22.90
 -13  -1 -16   53.69    5.90
  13   1 -16   48.90    5.30
  13  -1  16    9.30   26.70
  13   1 -16   51.89   22.80
 -13   1  16   77.59    9.30
 -13  -1  16   57.29    8.80
 -13   1 -16   61.99    5.70
  13   1  16   15.60   29.50
  13  -1 -16   39.40    5.60
  13   3 -16   82.29   23.80
 -13   3  16   81.89   10.10
  13   3 -16   75.19    8.30
  13  -3  16   26.00   23.50
 -13  -3 -16   86.99    7.90
 -13   3 -16   87.59    7.30
  13   3  16   10.00   30.60
  13  -3 -16   82.89    8.90
 -13  -3  16   69.09   10.60
 -13   0  17   46.80    8.50
 -13   0 -17   56.09    5.90
  13   0 -17   51.29    5.40
  13   0  17   29.10   28.60
  13  -2  17   -1.50   23.90
  13   2 -17   11.00    3.50
 -13   2  17   21.80    7.90
  13   2 -17   21.20   21.80
 -13  -2 -17   16.90    3.30
 -13   2 -17   10.30    2.70
  13  -2 -17   19.00    4.30
 -13  -2  17   16.60    7.80
  13   2  17   14.00   30.00
  14   0   0 2525.65  197.28
 -14   0   0 2534.85  194.88
  14   0   0 2418.06  190.98
  14   0   0 2402.46  190.28
 -14   0   0 2347.86  190.68
 -14   0   0 2455.35  190.18
  14   2   0   45.70    6.00
 -14   2   0   66.59    7.00
 -14  -2   0   52.19   15.10
  14  -2   0   63.19    8.50
  14  -2   0  103.19   24.00
 -14   2   0   53.99   22.50
  14   2   0   51.89   30.80
  14  -2   0   44.80   13.70
 -14   2   0   55.09    6.50
 -14   2   0   49.60    9.50
 -14  -2   0   54.19    9.00
  14   2   0   36.30    8.80
 -14  -2   0   81.99    9.50
  14  -2   0   68.59    7.70
  14  -4   0 2193.68  167.48
 -14  -4   0 2078.29  165.38
 -14  -4   0 2268.27  164.78
  14  -4   0 2255.17  164.78
 -14   4   0 2228.58  165.68
  14   4   0 2167.88  165.18
  14  -4   0 1971.10  168.28
  14  -4   0 1958.90  165.08
 -14   4   0 2133.39  164.68
  14   4   0 1845.12  172.68
  14   6   0    0.10   32.10
 -14  -6   0    9.30    8.10
  14   6   0   11.80    8.30
 -14   6   0    4.60   12.10
 -14   6   0    8.80    8.80
  14  -6   0    6.80   21.90
 -14  -6   0   -2.20    7.50
  14  -6   0    5.10    6.80
  14  -6   0    6.30   13.10
 -14  -8   0  212.18   22.90
 -14   8   0  215.48   23.50
  14   8   0  132.79   43.00
 -14   8   0  312.87   32.00
 -14   8   0  304.57   25.50
 -14   1   1  610.74   49.40
 -14  -1  -1  583.74   47.10
  14  -1   1  554.64   62.79
  14  -1   1  585.24   47.90
 -14  -1  -1  520.55   48.50
  14   1  -1  638.14   49.00
 -14  -1  -1  613.24   47.30
 -14   1   1  631.34   57.09
  14   1  -1  612.24   65.89
  14   1  -1  575.84   47.60
 -14   1   1  631.44   47.30
 -14   1   1  659.43   47.90
  14  -1   1  634.24   50.39
 -14  -1  -1  633.54   56.99
 -14  -1  -1  604.64   47.70
  14   1   1  650.23   65.09
  14  -1  -1  707.13   62.59
 -14   1  -1  651.63   47.60
  14   1   1  616.34   47.60
 -14  -1   1  555.34   54.69
 -14  -1   1  607.04   47.10
 -14   1  -1  570.34   60.29
 -14   1  -1  607.34   48.70
  14  -1  -1  514.45   50.49
  14  -1  -1  523.15   48.10
  14  -1  -1  622.74   47.90
 -14  -1   1  636.74   47.70
  14   1   1  567.24   48.90
 -14   1  -1  637.54   47.40
 -14  -1   1  591.54   48.60
  14  -3   1  108.59   16.80
 -14   3   1   92.69   11.80
  14   3  -1   99.89   14.30
  14  -3   1   93.99   11.30
  14  -3   1  121.39   13.50
 -14  -3  -1  104.19   14.60
  14  -3   1   92.89   24.00
 -14   3   1   77.99   23.10
 -14  -3  -1  123.19   12.20
 -14  -3  -1   87.19   16.90
  14   3  -1   84.39   28.70
 -14   3   1  100.29    9.00
  14   3  -1   99.39   10.10
 -14   3   1   96.99   12.20
 -14  -3   1   73.29   13.80
  14  -3  -1  111.69   10.20
 -14  -3   1  104.39   13.90
  14   3   1  108.49   14.00
  14  -3  -1   98.89   22.40
  14   3   1   89.09   10.00
 -14   3  -1  111.59   15.90
  14  -3  -1   93.89   17.10
  14   3   1   85.09   32.70
 -14   3  -1  103.19    9.40
 -14  -3   1  115.99   11.60
  14  -3  -1   85.79   11.20
 -14   3  -1   90.59   11.40
 -14   3  -1   66.99   22.70
 -14   5   1   66.29   13.00
  14   5  -1   78.09   11.10
  14  -5   1   62.19   19.90
  14   5  -1   38.30   27.00
 -14  -5  -1   76.89   11.60
 -14   5   1   39.00   20.80
 -14  -5  -1   76.69   10.60
  14  -5   1   77.09   20.50
 -14   5   1   69.69    9.90
 -14   5  -1   55.59   12.50
  14  -5  -1   70.19   20.30
 -14  -5   1   54.09   10.20
  14   5   1   80.59   10.30
 -14   5  -1   47.00   23.10
  14  -5  -1   79.49   15.30
 -14   5  -1   65.49    9.40
  14   5   1   79.59   30.30
  14  -5  -1   85.49    9.20
 -14  -5   1   86.49    9.60
  14  -7   1   23.30   15.30
 -14   7   1   38.90   14.30
  14   7  -1   64.59    9.90
 -14  -7  -1   41.00    9.80
 -14   7   1   66.89   11.00
  14   7  -1   30.50   29.50
  14  -7  -1   29.20    8.50
  14  -7  -1   72.19   25.00
  14   7   1   69.19   11.50
  14   7   1   18.30   33.00
 -14  -7   1   32.80    9.60
 -14  -7   1   33.70    8.90
 -14   7  -1   34.40   10.00
 -14   7  -1   52.29   14.60
 -14  -9  -1   -5.60    8.50
  14   9  -1   23.60   36.10
 -14   9   1   -8.30   11.40
 -14  -9   1   11.80    9.30
 -14   9  -1   10.70   10.90
 -14   9  -1   11.20    5.60
  14   9   1  -13.20   37.20
  14   0   2 1971.00  146.19
  14   0  -2 1791.62  145.49
 -14   0   2 1746.03  148.69
 -14   0  -2 1890.41  151.38
 -14   0  -2 1800.02  145.89
 -14   0   2 1717.83  145.19
 -14   0   2 2034.00  145.49
 -14   0  -2 1809.92  145.29
 -14   0  -2 1730.63  145.39
  14   0   2 1897.01  145.39
  14   0  -2 2061.89  153.28
  14   0  -2 1802.22  145.49
  14   0  -2 1928.61  146.49
  14   0   2 1902.91  153.98
 -14   0  -2 1928.31  145.39
 -14   0   2 1903.61  146.09
 -14  -2  -2  231.88   20.10
  14   2  -2  208.58   17.80
 -14  -2  -2  235.88   18.60
 -14   2   2  208.08   16.90
  14   2  -2  216.18   20.80
  14  -2   2  204.88   19.40
  14  -2   2  244.68   25.60
 -14  -2  -2  197.78   17.20
 -14   2   2  203.78   33.00
  14  -2   2  174.98   39.40
 -14  -2  -2  198.68   16.40
  14   2  -2  188.68   41.80
 -14   2   2  242.78   21.20
 -14   2   2  235.98   18.30
 -14  -2  -2  174.88   32.60
  14   2   2  150.28   34.60
  14  -2  -2  233.38   26.40
  14   2   2  220.58   19.70
 -14  -2   2  205.78   20.00
  14  -2  -2  197.78   36.20
 -14  -2   2  192.78   18.30
 -14   2  -2  221.58   18.10
  14   2   2  214.58   17.50
 -14   2  -2  249.88   21.00
 -14  -2   2  177.08   25.60
 -14   2  -2  175.68   36.00
  14  -2  -2  235.68   18.60
  14  -2  -2  198.78   19.60
 -14   2  -2  196.68   17.40
 -14   2  -2  201.08   17.60
 -14  -4  -2  541.75   42.80
  14   4  -2  542.15   42.20
  14   4  -2  503.65   56.59
  14  -4   2  465.95   51.99
 -14   4   2  538.65   44.00
  14  -4   2  530.35   49.10
 -14   4   2  505.65   41.50
 -14  -4  -2  520.45   41.50
 -14   4  -2  536.45   43.30
 -14   4  -2  507.75   41.10
  14  -4  -2  563.34   48.70
  14  -4  -2  499.05   41.40
 -14  -4   2  532.55   41.40
  14   4   2  545.35   42.30
 -14   4  -2  391.36   53.99
  14  -4  -2  441.56   44.00
  14   4   2  407.76   65.39
 -14  -4   2  535.55   42.60
  14  -6   2    6.60   17.70
 -14   6   2   14.40   11.60
 -14   6   2   13.70    8.80
  14   6  -2    5.40   25.00
  14   6  -2   15.50    9.50
 -14  -6  -2   10.20    8.60
 -14   6  -2    6.50   11.80
  14   6   2   19.70    9.30
 -14  -6   2    4.40   10.00
  14  -6  -2    1.30   21.70
 -14   6  -2   16.10    8.10
  14  -6  -2    9.30    7.50
 -14  -6   2   12.40    9.20
  14   6   2   35.90   35.00
 -14   8   2   84.89   15.90
  14   8  -2   36.80   32.30
 -14   8   2   77.59   11.80
 -14  -8  -2   53.79   10.00
  14  -8  -2   63.29   10.20
 -14  -8   2   45.60   10.80
 -14   8  -2   82.19    8.40
 -14   8  -2   53.69   11.50
  14   8   2   63.19   42.20
 -14  -1  -3  934.41   75.09
  14  -1   3  904.91   85.29
 -14  -1  -3  947.71   74.09
 -14  -1  -3  881.31   74.39
 -14   1   3  863.41   77.79
  14   1  -3  943.21   75.69
 -14   1   3  973.40   75.59
 -14   1   3  892.81   74.09
  14   1  -3  934.11   74.49
  14   1  -3  956.00   84.39
  14   1  -3  991.50   74.29
  14  -1   3  964.30   74.49
 -14  -1  -3 1010.00   74.49
  14  -1   3  999.50   76.09
 -14   1   3  999.00   74.59
 -14  -1  -3  891.01   82.19
  14  -1  -3  928.71   74.39
 -14  -1   3  995.80   77.69
 -14   1  -3  848.12   82.89
 -14   1  -3  966.70   74.19
  14  -1  -3  925.91   76.89
  14   1   3  961.40   75.19
 -14  -1   3  983.20   75.29
 -14  -1   3 1038.90   74.59
 -14   1  -3  981.10   74.89
  14  -1  -3  882.11   74.79
 -14  -1   3  971.30   73.99
  14   1   3 1003.40   89.39
  14  -1  -3 1048.80   83.69
 -14   1  -3  995.50   74.29
 -14   1  -3  903.41   74.49
  14   1   3  927.61   74.29
  14  -3   3  669.83   56.29
 -14   3   3  709.43   61.39
 -14   3   3  728.43   55.89
 -14   3   3  593.34   54.99
  14   3  -3  737.23   56.99
  14  -3   3  731.23   59.79
 -14  -3  -3  750.22   55.89
 -14  -3  -3  735.33   56.79
  14  -3   3  641.34   65.99
  14   3  -3  726.23   68.19
 -14   3   3  721.63   57.49
 -14  -3   3  717.13   60.49
 -14   3  -3  773.32   56.89
 -14   3  -3  689.53   66.89
  14   3   3  614.04   72.79
  14  -3  -3  776.12   61.29
  14  -3  -3  663.43   60.89
  14   3   3  706.33   56.49
  14  -3  -3  655.53   56.39
 -14   3  -3  691.43   55.49
 -14  -3   3  760.42   55.89
 -14   3  -3  754.52   55.39
  14   3   3  643.94   55.29
 -14  -3   3  721.33   56.89
  14  -3  -3  718.83   55.59
  14  -5   3  292.17   37.30
 -14   5   3  253.97   23.30
  14   5  -3  208.18   45.10
 -14  -5  -3  246.38   22.40
 -14   5   3  248.28   27.10
 -14  -5  -3  260.87   23.60
  14  -5   3  202.28   37.20
  14   5  -3  230.68   23.70
 -14  -5   3  256.27   22.20
  14  -5  -3  217.98   22.00
  14   5   3  194.98   44.30
 -14  -5   3  242.88   23.70
  14  -5  -3  285.47   37.30
 -14   5  -3  239.78   25.30
  14   5   3  271.17   23.50
 -14   5  -3  217.48   21.40
 -14   5  -3  266.27   20.70
 -14   7   3   70.39   11.10
  14   7  -3   78.49   11.50
  14   7  -3   82.39   28.40
 -14  -7  -3   64.89   10.30
  14  -7   3   29.10   17.70
 -14   7   3   46.10   13.70
  14   7   3   46.40   41.80
  14   7   3  120.99   16.70
 -14  -7   3   52.59   11.40
 -14  -7   3   66.39   10.40
  14   7   3   46.40   19.90
 -14   7  -3   55.19   17.20
  14  -7  -3   97.89   26.30
 -14   7  -3   60.29   10.60
 -14   7  -3   76.99    8.00
  14  -7  -3   64.49    9.50
 -14  -9  -3   38.90   10.10
  14   9  -3   52.29   35.70
 -14   9   3   43.50   11.50
 -14   9  -3   41.70    6.50
 -14  -9   3   19.20    9.80
  14   9   3   22.40   40.40
  14  -9  -3   43.20   10.60
  14   0   4   29.80   29.40
  14   0  -4   35.80   23.60
 -14   0  -4   45.80    3.50
  14   0  -4   13.60    5.90
 -14   0  -4   25.50   22.80
 -14   0   4   22.10    6.10
 -14   0  -4   27.20    5.10
  14   0  -4   36.40    4.20
 -14   0   4   34.90    9.70
  14   0  -4   14.10   10.30
 -14   0   4   14.00    8.10
  14   0   4   11.70    8.20
 -14   0  -4   14.60    6.90
 -14   0  -4   19.90    5.00
 -14   0   4   34.90    3.50
  14   0   4   28.60    4.70
  14   2  -4 2079.69  170.68
  14   2  -4 2240.08  176.08
 -14  -2  -4 2327.87  170.78
 -14   2   4 2309.87  171.58
 -14   2   4 2173.48  172.38
 -14   2   4 2389.56  170.78
  14  -2   4 2116.19  170.78
 -14  -2  -4 1971.20  175.68
  14  -2   4 2240.38  176.08
 -14  -2  -4 2206.38  171.18
  14   2  -4 2306.67  171.58
 -14   2   4 2226.18  170.38
  14   2   4 2200.38  170.48
 -14   2  -4 2303.17  170.98
  14  -2  -4 2193.58  171.08
  14   2   4 2178.38  171.08
  14  -2  -4 2423.36  173.08
  14  -2  -4 1951.40  174.78
  14  -2  -4 2228.68  170.58
  14   2   4 2051.69  179.38
 -14   2  -4 1942.61  170.68
 -14  -2   4 2264.97  171.38
 -14  -2   4 2362.96  170.78
 -14   2  -4 1958.30  176.48
  14   2   4 2107.69  170.58
 -14  -2   4 2215.38  172.48
 -14   4   4   30.30   10.90
 -14   4   4   43.90    7.70
 -14  -4  -4   30.40    9.00
 -14  -4  -4   37.60    8.10
  14   4  -4   35.90   24.30
  14  -4   4   42.80   23.30
  14  -4   4   21.10   17.40
  14   4  -4   23.70    9.70
 -14  -4   4   26.50    8.90
 -14   4  -4   30.10    6.30
  14  -4  -4   39.80   17.70
 -14   4  -4    9.70   26.20
  14   4   4   25.20    8.30
  14  -4  -4   41.50    6.30
 -14   4  -4   33.10    5.30
 -14   4  -4   35.50    5.10
  14   4   4   38.90    3.80
 -14   4  -4   34.80    9.30
 -14  -4   4   42.80    7.30
  14   4   4   57.39   32.70
 -14   6   4  796.52   60.79
  14   6  -4  762.02   61.29
 -14   6   4  765.42   62.89
 -14  -6  -4  736.23   60.59
  14   6  -4  675.53   74.09
 -14   6  -4  796.62   61.29
  14  -6  -4  709.23   60.09
 -14  -6   4  748.73   60.29
 -14   6  -4  716.93   59.99
  14   6   4  634.64   67.29
 -14   6  -4  840.22   62.39
  14  -6  -4  895.21   68.99
 -14  -6   4  779.32   61.69
 -14   6  -4  726.33   59.39
 -14  -8  -4   -2.80    8.80
  14  -8   4    6.20   17.40
 -14   8   4    1.40    9.60
  14   8  -4    3.60   29.30
 -14   8  -4   -2.30    4.70
  14  -8  -4    1.20    8.20
 -14  -8   4  -12.70    9.00
  14   8   4   15.20   38.20
  14   1  -5  162.38   13.30
  14   1  -5  174.88   35.00
 -14  -1  -5  144.39   15.80
 -14  -1  -5  163.78   12.90
 -14   1   5  161.58   18.20
 -14  -1  -5  173.08   14.60
 -14   1   5  165.68   15.60
  14   1  -5  128.39   14.70
 -14   1   5  159.48   18.30
  14  -1   5  185.18   31.30
 -14   1   5  169.28   12.80
 -14  -1  -5  134.19   27.50
  14   1  -5  146.29   19.80
  14  -1  -5  139.49   15.60
 -14   1  -5  158.48   13.30
  14   1   5  141.09   36.70
 -14   1  -5  161.58   14.70
  14  -1  -5  165.28   13.60
 -14  -1   5  171.08   12.70
  14   1   5  173.58   13.60
 -14   1  -5  113.19   24.80
  14   1   5  161.38   13.90
  14  -1  -5  154.58   28.20
 -14  -1   5  182.78   15.30
  14   1   5  150.68   16.50
 -14  -1   5  153.28   17.00
  14  -1  -5  151.58   23.30
  14   3  -5  117.09   17.30
 -14  -3  -5  122.99   14.10
 -14   3   5  129.69   17.90
 -14  -3  -5  135.99    9.90
  14   3  -5   90.49   24.60
 -14   3   5  106.99   13.80
  14  -3   5  106.49   26.00
 -14  -3  -5  131.89   15.40
 -14  -3   5  125.89   13.30
 -14  -3   5  127.89   16.10
  14  -3  -5  129.09   12.10
  14   3   5  112.29   10.40
 -14   3  -5  122.19   11.30
  14  -3  -5  141.99   20.20
  14   3   5  103.49   15.00
  14   3   5  123.89   35.50
  14   3   5  113.09   11.60
 -14   5   5   88.39   11.10
 -14   5   5   57.29   12.50
 -14  -5  -5   92.99   11.00
  14   5  -5   85.79   12.50
 -14  -5  -5   64.59    8.20
  14   5  -5   69.39   24.40
  14  -5   5   77.69   23.90
  14   5   5   49.10   33.60
  14  -5  -5   55.09   22.70
 -14   5  -5   92.89    9.50
 -14  -5   5  107.99   10.80
  14  -5  -5   92.29    9.40
  14   5   5  107.79   11.70
 -14  -5   5   84.59   12.20
  14   7  -5   55.79   29.50
  14   7  -5   14.60   10.50
  14  -7   5   19.00   18.90
 -14   7   5    1.70   11.50
 -14   7   5   22.20    9.20
 -14  -7  -5   18.70    8.70
  14   7   5   17.20   20.20
 -14   7  -5   37.00    5.50
 -14  -7   5   18.30   11.00
  14  -7  -5   22.60   25.00
  14   7   5    2.40   36.20
  14  -7  -5   28.90    8.20
 -14  -7   5   29.40    9.30
 -14   0   6   10.60    8.70
  14   0  -6    5.50    8.70
 -14   0  -6   14.70    5.90
 -14   0  -6    0.30   20.80
 -14   0   6   10.00    6.50
  14   0  -6    9.80   20.80
  14   0  -6    7.00   11.60
  14   0  -6    9.00    3.30
  14   0   6    6.20    3.70
 -14   0  -6   14.60    4.80
  14   0   6   13.60   28.70
 -14   0   6    9.20    1.90
 -14   0  -6    8.40    2.50
  14   0   6    8.30    3.80
  14   0   6   18.10    8.00
  14   0  -6    3.70    5.50
 -14   2   6 1401.96  112.59
  14   2  -6 1588.74  114.29
  14   2  -6 1465.55  112.59
 -14  -2  -6 1537.95  113.79
  14  -2   6 1230.38  120.59
 -14  -2  -6 1438.36  112.59
 -14   2   6 1488.65  113.09
  14   2  -6 1452.25  120.09
 -14   2   6 1564.34  114.09
 -14  -2  -6 1515.85  113.09
  14   2   6 1371.26  112.79
  14  -2  -6 1579.84  116.39
  14   2   6 1328.27  112.69
 -14  -2   6 1611.14  113.09
 -14  -2   6 1575.74  113.89
  14   2   6 1188.98  125.89
 -14   2  -6 1377.56  112.69
  14  -2  -6 1417.56  112.79
  14  -2  -6 1295.07  113.69
  14   2   6 1494.95  113.49
 -14  -2   6 1443.36  112.49
  14   4  -6    5.40    9.50
 -14   4   6    3.00    7.30
 -14  -4  -6    9.40    7.80
 -14  -4  -6    4.90    2.60
  14   4  -6    7.80   21.10
  14  -4   6   13.80   24.20
 -14   4   6    1.60    9.90
 -14  -4   6   -4.20    7.50
  14   4   6    2.30    8.10
 -14   4  -6   -1.40    4.10
  14  -4  -6    8.80   16.80
  14   4   6   -5.50   34.30
 -14  -4   6    2.70    9.00
  14  -4  -6    5.30    5.10
  14   4   6    2.60    2.50
 -14   6   6  467.05   34.50
 -14  -6  -6  402.26   33.60
 -14   6   6  468.85   37.30
 -14  -6  -6  361.96   31.70
  14   6  -6  350.16   50.79
  14   6  -6  431.96   35.30
 -14  -6   6  412.76   35.00
 -14   6  -6  357.96   31.80
  14  -6  -6  388.86   32.60
 -14  -6   6  377.76   33.30
  14   6   6  366.26   46.50
  14  -8   6   -9.90   16.70
  14   8  -6    1.00   27.40
 -14   8   6    3.30    9.70
 -14   8  -6   10.30    5.10
  14   8   6   35.10   39.20
  14  -8  -6   -4.60    9.10
 -14  -8   6   -2.70    8.80
 -14  -1  -7  536.95   41.80
  14   1  -7  523.85   45.20
  14   1  -7  537.65   41.10
  14   1  -7  521.85   54.19
 -14   1   7  527.95   40.90
 -14   1   7  584.94   42.10
 -14   1   7  520.65   43.70
  14   1  -7  466.45   44.40
  14  -1   7  476.75   57.29
 -14  -1  -7  542.95   41.00
 -14  -1   7  539.45   40.90
 -14  -1   7  562.84   41.90
  14  -1  -7  477.75   44.10
  14  -1  -7  535.85   47.10
  14   1   7  475.85   63.29
  14   1   7  535.85   41.30
 -14   1  -7  535.95   41.10
 -14  -1   7  545.75   43.00
  14   1   7  487.25   41.10
  14   1   7  514.75   42.30
  14  -1  -7  506.45   53.69
  14  -1  -7  523.35   41.20
 -14   3   7  353.86   29.50
  14   3  -7  310.17   31.80
 -14   3   7  353.96   32.00
 -14  -3  -7  379.86   27.60
 -14  -3  -7  423.56   29.70
  14   3  -7  357.56   42.30
  14  -3   7  328.57   45.50
  14  -3  -7  360.76   39.60
  14   3   7  320.47   28.30
  14   3   7  335.57   27.70
 -14  -3   7  335.07   29.00
  14   3   7  291.97   60.29
  14   3   7  367.36   30.40
  14  -3  -7  368.16   28.30
  14   3   7  395.76   43.40
 -14  -3   7  313.47   30.40
 -14   3  -7  357.96   27.90
  14   5  -7   95.79   13.40
  14   5  -7   84.39   22.20
 -14  -5  -7  116.69   13.90
 -14  -5  -7   94.09    8.60
 -14   5   7   96.29   11.60
  14  -5   7   81.99   24.20
 -14   5   7   75.79   13.70
 -14  -5   7  112.29   16.30
  14   5   7  121.69   17.40
  14  -5  -7  126.59   25.20
  14  -5  -7   86.99    9.40
  14   5   7   49.60   23.00
 -14   5  -7   90.79    9.40
 -14  -5   7   78.39   10.50
  14   5   7   55.59   39.90
  14  -7   7   11.90   19.60
 -14   7   7   42.40   10.00
  14   7  -7   35.80   25.60
  14   7   7   32.40   37.60
 -14   7  -7   36.90    5.00
  14  -7  -7   31.40    7.40
 -14  -7   7   26.60   11.70
 -14  -7   7   32.80    9.60
  14   0  -8  834.32   66.89
 -14   0   8  869.61   63.39
 -14   0  -8  776.12   62.49
  14   0  -8  819.82   71.89
 -14   0   8  836.92   64.49
  14   0  -8  804.12   62.59
  14   0  -8  691.13   65.79
 -14   0   8  801.52   62.39
 -14   2   8  124.29   12.40
 -14  -2  -8   97.99    8.60
 -14   2   8  127.89   16.30
  14  -2   8   56.69   28.00
  14   2  -8   90.49   20.40
  14   2  -8  105.59    9.00
 -14  -2  -8  110.19   12.60
  14   2  -8  119.79   15.00
  14  -2  -8  109.39   10.10
  14   2   8  132.29   24.80
 -14  -2   8  105.49   12.10
 -14  -2   8   95.29    8.50
  14   2   8  100.19   10.30
  14   2   8  116.49   13.90
 -14  -2   8  113.89   15.10
  14   2   8   83.19    9.10
  14   2   8   50.79   34.80
  14  -2  -8  111.89   18.10
 -14   2  -8   99.19    9.20
  14   4  -8  306.97   45.20
 -14   4   8  395.36   34.80
 -14   4   8  400.36   32.30
  14   4  -8  344.37   34.60
 -14  -4  -8  397.96   30.30
 -14  -4  -8  409.46   32.50
 -14   4  -8  362.46   30.60
 -14  -4   8  372.16   32.10
  14  -4  -8  430.56   42.20
  14  -4  -8  373.36   30.90
  14   4   8  414.06   48.70
 -14  -4   8  377.56   34.10
  14   4   8  445.46   33.70
  14   6  -8  -11.40   21.00
  14   6  -8    1.80   11.40
 -14   6   8   20.10   11.90
 -14   6   8   -4.40    8.80
 -14  -6  -8   -3.20    4.00
  14  -6   8   -6.60   21.40
  14  -6  -8   16.00   21.90
 -14  -6   8   -2.70    8.00
 -14   6  -8    0.80    3.80
  14   6   8    0.50   10.10
  14  -6  -8    3.50    6.30
  14   6   8  -15.40   21.40
 -14  -6   8   -3.80    9.20
  14   6   8    4.50   37.80
  14  -8   8   11.70   17.30
  14   8  -8   23.30   27.00
 -14   8   8   44.30   10.40
  14   8   8   40.20   16.00
  14   8   8  -11.20   39.60
 -14   8  -8   34.20    5.10
 -14  -8   8   27.50    9.30
  14  -8  -8   58.89    8.70
  14   1  -9  328.47   24.60
 -14  -1  -9  309.67   24.40
  14   1  -9  286.37   32.30
  14   1  -9  333.07   38.50
  14   1  -9  252.67   30.70
 -14   1   9  304.97   28.70
  14  -1   9  275.67   47.90
 -14   1   9  330.27   26.20
 -14   1  -9  314.77   24.60
 -14  -1   9  318.47   24.30
 -14  -1   9  311.77   27.80
  14   1   9  236.08   51.49
  14   1   9  316.07   26.50
  14  -1  -9  270.47   31.50
  14  -1  -9  331.87   24.80
  14  -1  -9  281.87   40.00
  14   1   9  344.27   39.10
  14   1   9  319.17   24.90
 -14  -1   9  326.97   26.10
  14  -1  -9  318.97   34.50
  14   3  -9  150.98   11.90
 -14   3   9  156.38   15.30
  14   3  -9  134.29   20.80
 -14   3   9  148.19   19.20
 -14  -3  -9  147.69   11.90
  14   3  -9  133.69   23.80
  14  -3   9   96.99   28.10
  14   3   9  151.48   27.20
 -14  -3   9  129.99   17.30
  14   3   9   60.49   37.50
  14  -3  -9  162.78   23.80
  14  -3  -9  159.78   13.20
 -14   3  -9  156.18   12.30
  14   3   9  153.18   17.30
 -14  -3   9  116.99   14.70
 -14  -5  -9   96.69    9.00
 -14   5   9   73.99   12.90
  14   5  -9   87.69   22.60
 -14   5   9  112.19   11.40
  14  -5   9   55.69   24.00
  14   5  -9   91.29   14.50
  14  -5  -9  100.49   24.50
  14  -5  -9  100.29   10.90
  14   5   9  109.59   12.90
  14   5   9   47.10   39.00
  14   5   9   78.09   24.00
 -14  -5   9   86.09   13.00
 -14  -5   9   95.09   11.20
 -14   5  -9  102.99    9.20
  14  -7   9   26.60   20.20
  14   7  -9   53.19   24.30
 -14   7   9   46.70    9.80
 -14  -7   9   40.10   10.20
  14   7   9  -13.10   39.00
  14   7   9   47.80   16.10
  14  -7  -9   47.90    7.70
 -14   7  -9   71.19    7.40
  14   0 -10 1135.19   86.29
  14   0 -10 1174.48   90.19
 -14   0 -10 1064.49   86.19
 -14   0  10 1109.49   87.89
  14   0 -10 1040.50   93.89
 -14   0  10 1122.19   86.89
 -14   2  10   15.50    9.10
  14  -2  10   51.39   25.40
 -14   2  10   29.30    7.20
  14   2 -10   28.10   13.20
  14   2 -10   49.99   19.10
 -14  -2 -10   38.00    4.00
  14   2 -10   41.70    4.00
 -14   2 -10   38.70    4.30
 -14  -2  10   66.99    7.70
  14  -2 -10   19.50   17.90
 -14  -2  10   16.70    9.00
  14   2  10   18.00   32.80
  14  -2 -10   38.00    5.10
  14   2  10   24.30   22.20
  14   2  10   35.60    8.10
  14   4 -10  956.20   72.99
  14   4 -10  808.92   75.69
 -14  -4 -10  917.91   72.99
  14   4 -10  901.81   82.09
 -14   4  10  963.40   74.09
 -14   4  10  904.31   75.59
  14   4  10 1031.00   75.09
  14  -4 -10  947.91   73.29
 -14  -4  10  921.11   75.29
  14   4  10 1090.19   83.59
  14  -4 -10 1023.60   80.19
 -14  -4  10  893.21   73.99
 -14   4 -10  895.71   72.99
 -14   6  10    7.10    8.30
 -14  -6 -10    2.80    4.40
  14  -6  10    4.00   21.00
  14   6 -10   15.60   21.10
  14   6 -10   -4.10   11.90
  14  -6 -10    1.00    5.60
  14   6  10   -2.80   15.70
  14   6  10   23.90   23.90
  14   6  10  -18.10   36.80
 -14  -6  10    2.10    8.20
 -14   6 -10    6.00    3.70
 -14  -6  10    8.90    9.80
  14   6  10    1.40   10.80
  14   1 -11  265.27   36.70
 -14   1  11  248.18   22.90
 -14  -1 -11  272.77   21.00
  14   1 -11  273.97   21.20
  14   1 -11  268.57   31.10
 -14   1  11  263.57   25.60
  14  -1 -11  249.28   36.40
  14   1  11  213.68   39.40
  14  -1 -11  273.27   33.50
 -14  -1  11  271.97   22.90
 -14   1 -11  268.37   21.10
  14  -1 -11  267.57   21.40
 -14  -1  11  262.87   25.00
  14   3 -11   42.60    4.20
  14  -3  11   24.50   24.30
 -14   3  11   32.00   10.80
  14   3 -11   33.00   19.80
  14   3 -11   21.20   13.60
 -14   3  11   38.90    8.20
 -14  -3 -11   45.90    5.30
  14   3  11   33.40   34.40
 -14   3 -11   43.00    4.50
  14  -3 -11   35.70    5.50
  14   3  11    3.70   23.50
  14   3  11   46.40   15.40
  14  -3 -11   33.40   20.20
 -14  -3  11   33.80    9.20
 -14  -3  11   28.90    7.50
  14   3  11   49.20   10.00
  14   5 -11   27.20   13.00
  14  -5  11   23.80   21.20
  14   5 -11   30.70   21.40
 -14  -5 -11   49.70    4.90
 -14   5  11   49.00    9.00
  14   5  11   43.60   16.70
  14   5  11   69.99   11.50
 -14   5 -11   31.70    4.50
  14   5  11   67.49   25.10
 -14  -5  11   34.10   10.50
  14   5  11   52.29   37.30
  14  -5 -11   34.30    6.00
 -14  -5  11   21.10    8.20
  14  -7  11    5.00   19.00
  14   7 -11   -2.80   22.40
 -14   7  11   18.70    8.40
  14  -7 -11   14.60    6.40
 -14  -7  11   -0.20    9.10
 -14   7 -11   14.20    3.60
  14   7  11   21.80   17.00
  14   7  11  -10.90   38.50
 -14   0  12  491.95   41.50
 -14   0  12  497.95   43.20
  14   0 -12  543.05   40.60
  14   0 -12  553.44   48.00
 -14   0 -12  522.35   40.40
  14   0 -12  491.35   51.59
  14   2 -12   17.40   19.60
 -14   2  12   36.10    7.40
  14   2 -12   46.20   15.60
  14  -2  12   14.40   23.40
  14   2 -12   50.29    4.30
 -14  -2 -12   36.20    4.20
 -14   2  12   33.70   10.50
  14  -2 -12   43.30    4.90
  14   2  12   16.20   31.80
  14   2  12   29.80   12.60
 -14  -2  12   23.40    9.50
  14  -2 -12   29.70   19.10
 -14   2 -12   36.80    4.20
 -14  -2  12   35.30    7.50
  14  -4  12   68.69   24.90
  14   4 -12   73.79   16.20
 -14   4  12  146.69   18.90
 -14   4  12  126.19   14.30
 -14  -4 -12  119.59    9.70
  14   4 -12  114.39   24.60
 -14   4 -12  127.39    9.70
  14   4  12   73.69   17.90
  14   4  12   42.00   37.30
  14   4  12   82.89   26.20
 -14  -4  12  107.29   14.30
 -14  -4  12   86.69   12.10
  14  -4 -12  112.19   11.20
  14   6 -12    0.50   21.70
  14  -6  12    0.90   19.60
 -14   6  12    9.00    7.80
 -14  -6 -12    4.00    4.50
 -14  -6  12   -4.00    8.20
  14   6  12    5.50   16.20
  14  -6 -12    3.70    4.60
 -14   6 -12    1.10    3.10
  14   6  12    7.80   35.20
 -14  -1 -13  248.58   20.20
  14   1 -13  259.87   31.50
  14   1 -13  265.27   38.10
 -14   1  13  255.27   25.20
 -14   1  13  251.67   22.30
  14   1 -13  268.27   20.30
 -14  -1  13  258.77   24.60
  14   1  13  174.28   39.50
 -14   1 -13  246.38   20.20
 -14  -1  13  257.87   22.50
  14  -1 -13  252.07   33.90
  14  -1 -13  223.38   48.00
  14  -1 -13  265.07   20.60
 -14   3  13  255.07   26.10
  14   3 -13  237.68   30.20
  14   3 -13  240.28   39.20
 -14   3  13  260.97   22.70
 -14  -3 -13  259.07   20.40
  14   3 -13  250.67   20.40
 -14  -3  13  223.08   22.20
  14  -3 -13  237.48   35.60
  14   3  13  325.77   29.40
 -14  -3  13  244.28   24.40
 -14   3 -13  256.47   20.30
  14  -3 -13  269.67   21.00
 -14   5  13  117.99   14.30
  14   5 -13   94.19   24.40
 -14  -5 -13   99.59    9.50
  14   5  13   48.90   18.20
  14  -5 -13  108.29   10.90
  14   5  13   47.00   37.20
 -14  -5  13   68.79   11.40
 -14   5 -13  109.89    9.00
 -14   0 -14    2.60    2.50
  14   0 -14    9.40   18.80
  14   0 -14    6.70   16.40
 -14   0  14    8.20    7.00
  14   0  14   23.30   26.70
 -14   0  14   -9.80    9.60
  14   0 -14    5.00    3.60
 -14  -2 -14  374.76   30.20
  14   2 -14  355.06   46.10
  14   2 -14  404.36   39.20
  14   2 -14  402.76   30.30
 -14   2 -14  361.66   30.10
  14  -2 -14  419.36   42.80
 -14  -2  14  368.76   31.60
 -14  -2  14  405.46   33.70
  14  -2 -14  384.36   30.60
 -14   4  14    2.10    7.30
 -14  -4 -14   -1.10    3.30
  14  -4  14   18.50   22.20
  14   4 -14   -5.80   20.80
 -14   4 -14    2.10    2.80
  14   4  14    0.40   32.80
 -14  -4  14   -9.30    8.60
  14  -4 -14   -2.10    5.00
  14   4  14   -2.20   20.50
  14   1 -15   22.80    3.60
  14   1 -15   -3.90   20.80
  14  -1  15   12.30   29.20
  14   1 -15   19.10   17.30
 -14  -1 -15   17.10    3.30
 -14   1  15    5.00   10.20
 -14   1  15   20.00    8.10
 -14  -1  15   18.90    7.40
 -14  -1  15   13.90    9.10
  14  -1 -15   11.60    4.10
 -14   1 -15   19.60    3.10
  14   1  15    3.80   28.20
 -14  -3 -15   12.10    3.70
  14  -3  15    8.60   23.00
  14   3 -15    6.20   21.30
 -14   3  15   16.10    7.00
  14   3 -15   11.70    4.30
 -14   3 -15   15.70    3.00
  14   3  15   18.80   33.50
 -14  -3  15    5.90    7.80
  14  -3 -15   13.40    4.30
  14   0 -16   -0.70    3.70
 -14   0 -16    2.50    2.90
 -14   0  16    5.20    7.20
  14   0  16    2.20   27.90
  14  -2  16  187.98   41.90
  14   2 -16  236.68   42.30
 -14   2  16  252.87   23.60
 -14  -2 -16  271.37   21.40
  14   2 -16  287.47   21.60
 -14  -2  16  276.77   23.60
 -14   2 -16  278.37   21.40
  14  -2 -16  270.17   21.90
 -14   1  17  218.88   22.10
  14   1 -17  263.87   20.40
 -14  -1 -17  267.87   20.10
 -14  -1  17  223.28   22.70
 -14   1 -17  259.47   20.10
  14  -1 -17  243.68   20.60
  15  -1   0   -0.60   28.20
 -15   1   0    2.10    5.20
 -15  -1   0    5.30    5.20
  15  -1   0    1.10   10.60
 -15  -1   0    4.10   17.80
  15  -1   0   -1.90    5.80
  15  -1   0   -5.80    5.80
 -15  -1   0    0.40    2.60
  15   1   0    3.80   28.00
 -15   1   0   -3.90    3.00
 -15  -1   0    2.00    2.80
 -15   1   0   10.70   20.60
  15   1   0    2.90    8.30
  15   1   0   -7.20    4.20
 -15  -1   0    1.20    6.40
 -15   3   0   -2.70   20.50
 -15   3   0   -6.20    5.70
 -15  -3   0    2.60    8.00
  15   3   0   13.90   28.50
  15  -3   0    7.70    8.30
  15  -3   0  -10.50   22.60
 -15   3   0    2.80    8.50
  15  -3   0   -5.10   15.40
 -15  -3   0   -0.10    7.00
  15   3   0   -3.30    5.80
  15  -3   0    6.50    6.50
 -15   3   0    0.20    3.00
  15   3   0   -1.80    8.00
  15   5   0  -15.90   31.40
  15  -5   0  -11.70   17.00
 -15   5   0    5.30    7.30
 -15  -5   0   -8.70    8.80
  15  -5   0   -4.70    7.00
  15  -5   0   12.20   19.90
 -15   5   0   -3.20   21.80
  15   5   0    3.50    8.20
 -15   5   0    7.30   10.60
 -15  -5   0   13.10    8.50
  15   7   0    2.50   32.40
  15   7   0    0.40    9.80
 -15  -7   0   -4.20    8.30
 -15   7   0   -5.90    9.50
 -15   7   0    1.00   13.10
 -15   9   0   -5.00   11.00
 -15   9   0   -5.00    6.30
 -15  -9   0   -7.50    8.50
  15   9   0   18.90   36.00
 -15   0   1    8.70    5.30
 -15   0  -1    9.90    6.80
  15   0  -1    9.70    5.60
 -15   0   1    8.30    2.80
 -15   0   1    1.50    6.70
 -15   0  -1   17.50    5.10
  15   0   1    8.40    4.70
  15   0  -1    1.20    9.00
 -15   0   1    0.40   17.70
 -15   0  -1   13.60    3.50
 -15   0  -1    9.60   20.00
  15   0  -1   12.80    5.40
  15   0   1    5.80    8.60
 -15   0  -1   12.80    3.30
  15   0  -1   16.40   26.70
  15   0   1   30.70   30.20
  15   2  -1  563.94   67.29
 -15  -2  -1  730.73   51.59
 -15  -2  -1  688.83   52.69
 -15   2   1  726.53   51.49
  15  -2   1  653.13   62.99
  15   2  -1  675.53   52.69
  15  -2   1  700.33   55.59
 -15   2   1  557.84   61.19
  15   2  -1  604.34   51.19
 -15   2   1  710.23   52.99
 -15   2   1  675.43   50.99
 -15  -2  -1  564.64   59.39
  15  -2   1  635.94   51.99
  15   2   1  601.34   70.59
 -15  -2   1  638.54   51.49
 -15  -2   1  636.44   52.49
 -15   2  -1  701.03   52.69
  15  -2  -1  607.74   62.39
 -15   2  -1  596.64   62.49
 -15  -2   1  561.94   56.59
  15  -2  -1  682.13   51.79
 -15   2  -1  712.73   51.39
  15   2   1  654.93   52.49
  15  -2  -1  602.14   51.99
 -15   2  -1  664.03   51.09
  15   2   1  625.04   51.19
  15  -2  -1  708.33   55.69
 -15  -4  -1   -4.10    7.10
  15  -4   1   -1.70    9.50
 -15   4   1    7.00    6.60
 -15   4   1  -11.10   21.10
  15   4  -1   -1.80    7.80
 -15  -4  -1    1.80    7.60
  15   4  -1   -8.70   26.20
 -15   4   1    3.90    9.70
  15  -4   1    8.90   21.50
  15  -4   1   13.10   17.10
  15  -4  -1    5.10   19.20
 -15  -4   1   -3.20    8.00
 -15  -4   1   -9.70    8.80
  15   4   1   -7.00   31.20
 -15   4  -1   16.50   22.20
 -15   4  -1    7.50    9.50
 -15   4  -1   12.10    6.40
  15  -4  -1  -18.40   16.60
  15  -4  -1    4.80    6.90
  15  -4  -1  -12.30    9.10
  15   4   1   10.00    8.10
  15   6  -1   79.19   10.90
 -15   6   1   51.89    9.80
  15   6  -1   36.40   28.90
  15  -6   1   41.70   17.90
 -15  -6  -1   85.09    9.90
 -15  -6  -1   44.10    9.70
  15  -6   1   81.89   24.40
 -15   6   1   49.40   13.30
 -15   6  -1   67.99    9.50
 -15  -6   1   55.39   10.50
  15  -6  -1   93.09   24.00
 -15  -6   1   58.49    9.70
  15   6   1   32.30   32.10
 -15   6  -1   53.29   13.20
  15  -6  -1   39.30   13.00
  15  -6  -1   64.19    8.80
 -15   8   1   -2.20   10.10
 -15  -8  -1   -3.70    9.00
  15   8  -1    7.00   32.20
 -15   8   1   -5.10   14.20
 -15  -8   1   -5.70    9.00
  15   8   1    1.70   38.00
 -15   8  -1    1.90   10.40
  15  -8  -1   -7.10    9.40
 -15   8  -1    5.40    6.50
 -15  -1  -2  371.16   30.80
 -15  -1  -2  347.47   28.50
  15   1  -2  371.06   29.30
 -15  -1  -2  379.96   29.50
  15  -1   2  386.36   29.70
 -15   1   2  386.86   32.00
 -15  -1  -2  299.17   42.90
 -15   1   2  378.36   40.60
  15  -1   2  261.07   48.40
  15   1  -2  376.46   31.80
 -15  -1  -2  348.17   29.00
  15   1  -2  369.16   52.19
  15   1  -2  358.36   29.20
  15  -1   2  391.66   33.40
 -15   1   2  384.56   28.60
 -15   1   2  396.76   29.90
 -15   1  -2  409.76   29.30
  15   1   2  366.86   29.10
  15  -1  -2  327.77   50.09
  15   1   2  289.17   54.29
 -15   1  -2  359.46   29.10
 -15   1  -2  377.16   29.00
  15  -1  -2  301.57   30.00
 -15  -1   2  327.17   28.40
 -15  -1   2  327.27   37.10
  15   1   2  360.76   31.10
 -15   1  -2  395.66   30.40
 -15  -1   2  403.16   29.60
  15  -1  -2  344.27   29.80
 -15  -1   2  418.46   30.90
 -15   1  -2  295.67   46.90
  15  -1  -2  337.57   34.30
  15   3  -2  215.88   46.50
 -15   3   2  156.88   36.80
 -15   3   2  249.28   20.90
 -15  -3  -2  259.07   20.90
  15  -3   2  246.98   30.30
 -15   3   2  243.28   23.90
  15  -3   2  241.18   40.10
  15  -3   2  228.08   22.20
 -15   3   2  230.08   20.00
  15   3  -2  255.47   23.00
 -15  -3  -2  247.58   22.80
 -15   3  -2  183.98   38.20
 -15   3  -2  245.38   19.80
 -15  -3   2  256.27   23.00
  15   3   2  257.67   22.30
 -15  -3   2  252.47   20.80
  15   3   2  173.28   38.40
 -15   3  -2  240.88   23.20
  15  -3  -2  243.48   21.10
  15  -3  -2  211.28   35.40
  15   3   2  211.28   19.60
  15  -3  -2  235.68   31.70
  15  -3  -2  218.68   22.30
 -15   3  -2  238.48   20.00
 -15   5   2  194.38   19.20
 -15   5   2  199.68   23.80
  15   5  -2  211.58   20.00
  15  -5   2  137.19   26.60
 -15  -5  -2  187.18   20.50
  15  -5   2  217.98   26.90
  15   5  -2  134.69   33.90
 -15  -5  -2  198.68   19.40
 -15   5  -2  204.28   22.70
 -15  -5   2  207.78   20.40
 -15   5  -2  179.98   17.00
 -15  -5   2  192.88   18.80
  15  -5  -2  162.88   26.40
 -15   5  -2  145.89   29.20
  15   5   2  230.38   20.60
  15   5   2  113.39   41.50
  15  -5  -2  189.98   18.90
 -15   5  -2  203.18   17.90
  15   7  -2   32.20   31.10
  15  -7   2   15.90   16.40
 -15  -7  -2   48.20   10.40
 -15   7   2   55.99   10.50
 -15   7   2   50.19   14.20
 -15   7  -2   47.50    6.70
  15  -7  -2   54.79   25.00
  15   7   2   27.40   36.80
 -15  -7   2   41.10    9.40
  15  -7  -2   67.09    9.10
 -15   7  -2   60.39   14.20
 -15  -7   2   39.00   10.30
  15   7   2   88.39   11.80
 -15   7  -2   39.70    9.90
 -15   9   2    5.70   10.70
 -15  -9  -2    4.90    8.40
  15   9  -2    0.20   36.80
 -15   9  -2    4.60    6.20
  15   9   2  -11.90   43.30
 -15  -9   2    2.70    8.80
  15   0  -3  183.78   20.70
  15   0  -3  184.88   14.90
 -15   0   3  165.58   13.60
  15   0   3  175.38   14.90
 -15   0   3  183.38   18.10
 -15   0  -3  142.69   27.90
 -15   0   3  168.38   25.80
  15   0  -3  167.28   15.60
  15   0  -3  159.38   31.80
 -15   0  -3  172.28   15.00
 -15   0   3  185.48   15.60
 -15   0  -3  163.88   14.90
 -15   0  -3  158.18   16.80
  15   0   3  154.28   35.50
  15   0   3  168.58   18.60
 -15   0  -3  167.38   13.90
 -15  -2  -3   31.30    6.60
 -15   2   3   22.80    8.50
  15   2  -3   21.50    9.40
  15   2  -3   37.40   25.00
 -15   2   3   25.70    3.20
 -15   2   3   28.70   16.50
  15  -2   3   43.70   13.60
  15   2  -3   21.10    5.00
 -15  -2  -3   30.60   18.70
 -15   2   3   26.40    6.40
 -15  -2  -3   32.50    8.70
 -15  -2  -3   31.50    3.30
  15  -2   3   21.50    7.30
  15  -2   3   33.80   25.30
 -15  -2   3   29.30   10.30
  15   2   3   12.60   32.00
 -15   2  -3   34.60   21.90
  15  -2  -3    5.30   13.40
  15   2   3   28.30    4.80
 -15   2  -3   25.20    5.30
  15  -2  -3   30.30    7.70
 -15   2  -3   32.60    4.30
 -15  -2   3   30.30    6.20
  15   2   3   32.40    7.80
 -15  -2   3   10.40    7.30
  15  -2  -3   29.00    5.30
  15  -2  -3    7.80   23.90
 -15   2  -3   19.80    4.60
 -15   2  -3   16.30    7.20
  15   4  -3  156.38   17.60
  15  -4   3  103.29   26.30
 -15   4   3  132.19   19.30
  15  -4   3  139.79   21.50
 -15  -4  -3  141.69   17.50
 -15  -4  -3  142.89   15.70
  15   4  -3  132.79   27.60
 -15   4  -3  137.19   14.00
 -15   4  -3  131.79   13.10
 -15  -4   3  152.48   15.30
  15  -4  -3  136.69   14.90
  15   4   3  144.89   17.00
  15   4   3   71.69   35.00
 -15   4  -3  144.59   18.20
 -15  -4   3  142.49   17.40
  15  -4  -3  130.59   21.40
  15   6  -3   25.20   26.20
  15   6  -3   38.40    9.60
  15  -6   3   34.70   20.90
 -15   6   3   42.90   12.50
 -15   6   3   49.80    9.50
 -15  -6  -3   57.89    9.50
 -15  -6   3   34.20    9.10
 -15   6  -3   35.80   11.90
 -15   6  -3   32.90    8.10
  15  -6  -3   39.90   22.10
 -15  -6   3   19.60   10.00
 -15   6  -3   64.09    7.10
  15   6   3   40.40    9.40
  15   6   3   22.90   37.30
  15  -6  -3   42.60    8.60
 -15   8   3   25.80   10.10
 -15  -8  -3   -1.70    8.10
  15   8  -3    0.30   30.40
  15  -8  -3   22.20    9.30
  15   8   3   -8.90   41.10
 -15   8  -3   14.00    6.20
 -15   8  -3    8.40   11.60
 -15  -8   3    5.10    8.90
  15   1  -4  -10.80   23.00
 -15   1   4    2.70    6.20
 -15  -1  -4    3.70    2.00
  15   1  -4    5.50   10.00
 -15   1   4    7.00   11.50
 -15  -1  -4   11.40    5.80
  15  -1   4   -0.60   10.10
 -15  -1  -4    1.40    7.50
  15   1  -4    0.70    3.60
 -15   1   4    5.80    2.00
 -15  -1  -4    6.90   20.60
 -15   1   4   -2.60    8.30
  15  -1   4   -0.20    5.20
  15   1  -4   -3.00    4.80
  15  -1   4   26.90   28.30
 -15  -1   4   -5.00    9.20
 -15   1  -4    9.30    4.40
  15   1   4    6.70    7.60
 -15   1  -4    0.40    4.30
  15   1   4    4.90   31.60
  15   1   4    5.70    4.00
 -15   1  -4    4.60    3.20
 -15  -1   4    4.50    1.60
  15  -1  -4   -0.90    4.10
 -15   1  -4    1.30    5.80
  15  -1  -4    0.90    6.20
  15  -1  -4   17.70   12.10
 -15  -1   4    3.60    6.00
 -15   1  -4   22.40   21.20
 -15  -1   4    6.60    7.30
  15  -1  -4    3.70   23.30
 -15  -3  -4   51.89    8.10
  15   3  -4   44.70   10.80
  15   3  -4   25.20   24.60
 -15   3   4   43.30    7.80
 -15  -3  -4   48.60    9.40
  15  -3   4   22.40   14.40
 -15   3   4   34.70    9.90
 -15  -3  -4   39.60    4.20
  15  -3   4   27.40   25.40
  15  -3  -4   45.80    6.20
 -15  -3   4   34.90    9.30
 -15   3  -4   40.90    6.60
  15   3   4   38.60    4.60
  15   3   4   64.89    9.10
  15   3   4   51.49   32.80
  15   3   4   37.60    5.60
 -15  -3   4   39.60    8.10
 -15   3  -4   44.50    5.20
  15  -3  -4   46.20   17.10
 -15   3  -4   12.70   24.60
 -15   3  -4   49.10    8.90
  15   5  -4   -6.50    9.50
  15  -5   4   -5.10   22.30
  15   5  -4    3.30   25.20
 -15  -5  -4   -8.10    8.40
 -15   5   4   -2.60   10.20
 -15   5   4    0.20    7.70
  15  -5  -4   13.80   22.10
 -15   5  -4   -2.20    9.90
 -15  -5   4   -4.20    8.30
 -15  -5   4   -7.30    8.50
 -15   5  -4    1.40    5.30
  15  -5  -4   -0.60    6.70
 -15   5  -4    3.20    6.60
  15   5   4  -18.50    8.00
  15   5   4   -8.00   31.90
 -15  -7  -4    0.00    7.90
 -15   7   4   -2.60   11.60
  15   7  -4    0.60   29.30
  15  -7   4   -1.00   18.70
 -15   7   4   -9.70    9.40
  15   7   4   -4.90   19.00
  15  -7  -4    7.70    8.30
 -15   7  -4    0.20    8.10
 -15   7  -4    0.80    5.30
 -15  -7   4    4.10    9.30
 -15  -7   4   -1.70    8.50
  15  -7  -4   -9.00   24.30
  15   7   4    4.80   36.20
  15   0   5 1044.50   84.99
 -15   0  -5 1193.08   85.19
  15   0   5  939.81   97.29
 -15   0  -5 1081.39   85.69
  15   0  -5 1096.59   84.89
 -15   0   5 1132.49   84.79
 -15   0   5 1109.19   87.09
  15   0  -5 1124.59   87.39
 -15   0  -5  917.41   94.19
  15   0   5 1164.88   86.19
  15   0  -5 1172.28   94.59
  15   0  -5  963.80   85.29
 -15   0  -5 1130.79   84.79
 -15   0   5 1129.19   85.29
 -15  -2  -5   -1.10    6.20
 -15   2   5   -2.40    7.60
 -15  -2  -5    1.40    2.00
 -15   2   5    4.90    2.10
 -15  -2  -5    4.60    7.40
  15   2  -5    8.40   21.30
 -15   2   5   11.90    8.70
 -15   2   5   12.30    6.30
  15  -2   5   20.20   26.00
  15   2  -5    9.90    9.80
 -15   2  -5   -8.20   27.50
 -15  -2   5   -0.80    7.30
  15   2   5   -5.50   33.60
  15  -2  -5    6.60    4.30
  15  -2  -5    9.10   15.00
  15   2   5    8.00    3.20
 -15   2  -5    1.20    3.20
  15  -2  -5   -9.80   21.00
  15   2   5    6.50    4.30
  15   2   5    7.10    7.50
 -15  -4  -5  117.09   10.20
  15   4  -5  116.19   17.40
  15  -4   5   86.99   27.60
 -15   4   5  137.19   18.70
  15   4  -5  109.59   27.90
 -15  -4  -5  131.09   15.00
 -15   4   5  125.29   14.60
 -15  -4   5  126.89   14.00
  15   4   5  114.09   10.60
  15   4   5  119.99   15.60
 -15   4  -5  137.09   11.70
 -15  -4   5  121.69   17.00
  15  -4  -5  133.69   13.00
  15   4   5  103.99   36.00
  15  -4  -5  128.29   22.40
 -15   6   5  -13.00   10.50
  15   6  -5    0.10   10.00
 -15   6   5    4.30    9.10
  15   6  -5   17.10   25.40
 -15  -6  -5    2.10    9.10
  15  -6   5    6.30   21.70
  15   6   5   -4.30   34.20
 -15   6  -5   -1.40    7.00
 -15  -6   5   -1.00    9.20
 -15   6  -5   -9.00    4.60
  15  -6  -5   13.80    7.60
 -15  -6   5   -6.50    8.20
  15   6   5  -12.10   20.20
  15  -6  -5   -3.10   20.50
  15   6   5   -9.10    9.40
 -15   8   5   32.80   10.40
 -15  -8  -5   18.50    9.00
  15  -8   5   20.40   17.80
  15   8  -5   34.60   31.40
 -15  -8   5   23.00    9.70
  15   8   5   29.30   39.10
 -15   8  -5   28.90    5.60
  15  -8  -5   24.80    8.80
  15  -1   6  254.37   49.99
  15   1  -6  349.37   45.80
 -15   1   6  381.76   31.70
 -15  -1  -6  390.66   29.50
 -15  -1  -6  375.86   30.40
 -15   1   6  385.56   29.70
  15   1  -6  318.77   32.60
 -15  -1  -6  367.06   28.20
  15   1  -6  347.17   33.40
 -15   1   6  354.06   28.20
  15   1  -6  361.56   28.40
  15  -1  -6  331.77   49.00
  15  -1  -6  365.26   28.70
  15   1   6  372.86   28.70
  15  -1  -6  408.96   36.00
  15   1   6  326.97   28.60
 -15   1  -6  345.17   28.40
 -15  -1   6  380.36   30.90
 -15   1  -6  295.97   29.20
 -15  -1   6  369.66   28.10
  15   1   6  389.36   30.60
 -15  -1   6  412.26   29.60
  15   1   6  272.57   55.49
  15   3  -6  596.94   51.29
 -15  -3  -6  660.53   48.40
 -15   3   6  634.74   51.29
  15   3  -6  594.34   62.59
 -15  -3  -6  653.73   49.60
 -15   3   6  638.04   49.60
 -15  -3   6  617.14   50.59
  15   3   6  573.34   48.90
  15   3   6  653.93   50.29
  15   3   6  478.25   72.09
 -15   3  -6  614.74   48.60
 -15  -3   6  628.04   49.30
  15  -3  -6  707.63   56.99
  15   3   6  579.84   48.50
  15  -3  -6  626.54   49.00
 -15  -5  -6  314.57   26.90
 -15   5   6  319.17   27.00
  15   5  -6  300.37   28.50
  15   5  -6  295.97   47.00
 -15   5   6  286.57   30.30
 -15  -5  -6  260.67   24.00
  15  -5   6  221.38   41.90
 -15  -5   6  318.17   28.40
 -15   5  -6  320.37   24.50
  15   5   6  342.77   28.20
 -15  -5   6  325.27   26.50
  15  -5  -6  348.87   41.70
  15  -5  -6  299.97   25.50
  15   5   6  306.67   42.50
  15   5   6  257.47   57.39
  15   7  -6   76.29   30.30
  15  -7   6   32.90   21.10
 -15  -7  -6   58.29    9.90
 -15   7   6   48.00   10.40
 -15  -7   6   20.60   15.10
  15   7   6   44.00   37.30
  15  -7  -6   81.19    9.70
 -15  -7   6   44.10   10.10
 -15   0  -7  247.68   18.50
 -15   0   7  249.08   20.50
  15   0  -7  184.08   27.40
  15   0  -7  224.98   18.80
 -15   0   7  225.78   18.20
  15   0  -7  250.67   24.00
  15   0   7  219.78   19.10
  15   0   7  206.08   36.50
  15   0  -7  227.28   40.50
 -15   0   7  224.18   22.60
  15   2  -7    5.00    2.90
 -15  -2  -7    8.00    6.60
  15  -2   7   10.50   27.20
 -15  -2  -7    2.50    2.20
  15   2  -7   28.90   22.70
 -15   2   7    6.20    8.70
 -15   2   7    5.10    6.60
  15   2  -7    7.00   11.30
 -15  -2   7    2.40    8.90
  15   2   7    5.30    4.30
  15   2   7    1.80    3.10
 -15  -2   7    7.10    2.00
  15   2   7    1.00    7.50
  15  -2  -7   32.10   16.50
  15   2   7   19.90   34.80
 -15  -2   7    0.70    6.70
  15  -2  -7   11.00    4.30
 -15   2  -7    4.00    3.30
 -15  -4  -7  345.87   24.90
  15   4  -7  258.87   29.50
  15   4  -7  302.47   44.60
  15  -4   7  286.07   44.70
 -15   4   7  306.77   29.90
 -15  -4  -7  341.17   27.60
 -15   4   7  330.87   27.40
 -15  -4   7  312.57   27.00
 -15   4  -7  318.17   25.30
  15   4   7  225.38   47.80
  15  -4  -7  318.47   26.00
  15   4   7  313.77   28.30
 -15  -4   7  312.27   29.20
  15  -4  -7  383.66   39.30
 -15   6   7   -1.00   11.40
 -15   6   7   -4.10    8.90
  15   6  -7    6.10   24.10
  15  -6   7  -19.30   22.00
 -15  -6  -7    1.00    8.80
  15   6  -7    6.50   10.20
  15   6   7    9.20   37.20
  15  -6  -7   14.50   21.10
 -15  -6   7   -6.50    9.50
 -15   6  -7   -0.70    4.00
 -15  -6   7    3.00    8.50
  15  -6  -7    9.30    6.00
  15   6   7   -4.40   10.50
  15   6   7  -10.30   22.00
  15   8  -7   33.40   28.20
  15  -8   7    3.20   17.20
 -15   8   7   22.60    9.70
  15   8   7    8.50   40.20
 -15   8  -7   27.80    4.80
  15  -8  -7   29.60    9.30
 -15  -8   7   12.60    9.10
 -15  -1  -8   45.20    5.30
  15   1  -8   52.39    6.00
 -15   1   8   44.50   10.40
  15   1  -8   32.20   11.30
  15  -1   8   46.40   28.70
 -15  -1  -8   53.09    7.40
 -15   1   8   38.60    7.50
  15   1  -8   64.69   13.90
  15   1  -8   23.00   22.60
  15   1   8   52.59    8.60
 -15  -1   8   34.40    9.40
  15  -1  -8   32.70   16.10
 -15  -1   8   54.29    8.20
 -15   1  -8   47.90    4.70
  15  -1  -8   42.70   11.60
  15  -1  -8   50.59    5.40
  15   1   8   55.49    5.80
 -15  -1   8   51.89    4.70
  15  -1  -8   33.40   22.70
  15   1   8   47.80   32.70
 -15   3   8   -6.40    9.00
 -15  -3  -8    8.00    7.30
  15   3  -8    3.50   20.60
 -15   3   8   -3.10    6.60
 -15  -3  -8    6.00    2.60
  15  -3   8   12.00   26.70
  15   3  -8   15.90   11.40
  15   3  -8    8.30    2.70
 -15   3  -8    8.30    3.20
 -15  -3   8   13.60    6.70
  15   3   8  -14.10   36.30
  15   3   8   -8.80   23.80
  15   3   8    5.70    2.90
  15  -3  -8    4.90    4.20
  15  -3  -8   14.70   19.20
  15   3   8   15.00    7.90
 -15  -3   8   10.60    8.50
 -15  -5  -8   23.80    8.70
  15  -5   8   23.90   23.60
  15   5  -8   18.30   22.10
 -15   5   8   21.70    8.10
 -15   5   8   26.10    9.90
 -15  -5  -8   15.30    3.80
  15   5  -8   20.40   11.00
  15   5   8   -6.10   24.10
  15  -5  -8   32.00    6.10
  15   5   8   19.80   38.70
 -15  -5   8   32.80    8.60
  15  -5  -8   35.80   22.40
 -15  -5   8   23.20   10.30
 -15   5  -8   19.80    4.30
  15   5   8   33.70   10.50
  15  -7   8   11.20   19.80
 -15   7   8   17.50    8.60
  15   7  -8    5.70   26.10
 -15  -7   8    7.40    8.90
  15  -7  -8    4.90    7.00
  15   7   8    0.20   37.80
 -15   7  -8    6.30    4.10
 -15   0   9   31.70    3.90
 -15   0   9   35.70    7.60
  15   0  -9   30.90   12.00
  15   0  -9   20.10   14.40
  15   0  -9   38.50    4.40
  15   0   9   36.00   30.60
  15   0  -9   26.00   21.70
 -15   0   9   22.90    9.70
 -15   0  -9   33.90    3.80
  15   2  -9  431.56   43.70
 -15   2   9  487.95   39.60
 -15  -2  -9  502.05   38.40
  15   2  -9  490.75   38.50
 -15   2   9  491.15   41.40
 -15  -2  -9  506.65   40.10
  15   2  -9  486.95   51.19
  15  -2  -9  517.15   47.20
 -15   2  -9  473.05   38.50
 -15  -2   9  503.25   39.60
  15   2   9  497.05   40.60
  15  -2  -9  482.05   38.90
  15   2   9  550.54   54.29
 -15  -2   9  494.15   41.10
 -15  -4  -9    7.20    3.00
  15   4  -9    6.70   10.90
 -15   4   9    3.90    7.80
  15  -4   9   -7.40   24.50
 -15   4   9  -16.40    9.90
  15   4  -9    5.00   20.00
 -15   4  -9    7.60    3.40
  15   4   9   15.00    9.50
  15   4   9   19.70   37.80
  15  -4  -9   -5.30    4.70
  15  -4  -9   -2.40   18.10
  15   4   9   14.90   24.70
 -15  -4   9    8.30    8.40
 -15  -4   9   18.30   10.20
  15  -6   9   26.50   22.60
  15   6  -9   50.89   23.70
  15   6  -9   35.70   12.50
 -15   6   9   59.49   10.10
  15   6   9   80.69   12.10
  15   6   9   13.20   40.50
  15  -6  -9   53.09    7.50
 -15   6  -9   65.79    7.30
  15   6   9   47.30   24.40
 -15  -6   9   38.60   10.90
 -15  -6   9   31.60    9.20
  15  -1  10   -3.10   29.00
 -15   1  10  -10.80    6.60
  15   1 -10   -1.10   19.80
  15   1 -10   -4.60   14.40
  15   1 -10    1.40    3.20
 -15   1  10    3.10    9.40
 -15  -1 -10    3.30    2.60
 -15  -1  10   12.40    8.60
 -15  -1  10  -10.20    7.10
  15   1  10    6.70   30.90
 -15   1 -10    5.20    2.80
  15   1  10   20.80   20.40
  15  -1 -10   -5.70   21.20
  15  -1 -10    0.50   15.90
  15  -1 -10   -3.10    3.70
 -15  -1  10    1.70    1.90
  15   3 -10   -9.50   11.60
 -15   3  10   -2.50    8.80
 -15  -3 -10   -1.20    2.70
  15  -3  10    6.40   24.70
  15   3 -10   -1.90   19.10
  15   3 -10    2.00    2.90
 -15   3  10   -8.50    6.60
 -15  -3  10   -4.20    8.80
  15   3  10   14.40   24.80
 -15  -3  10    3.10    6.80
 -15   3 -10   -4.80    2.80
  15   3  10  -21.00   34.90
  15   3  10    2.10    8.50
  15  -3 -10    0.70   18.20
  15  -3 -10   -0.90    4.50
 -15   5  10   -7.40   10.90
 -15  -5 -10    1.80    3.70
  15   5 -10    1.00   10.90
  15   5 -10   -9.20   20.50
  15  -5  10   -7.90   22.00
 -15   5  10    0.30    7.70
  15   5  10   -4.60   10.10
  15   5  10   -5.10   34.90
  15  -5 -10    2.30    4.60
 -15  -5  10   -2.20    9.50
 -15  -5  10    3.00    7.90
 -15   5 -10   -0.10    3.50
  15   5  10   30.50   24.90
  15   7 -10   12.20   24.60
  15  -7  10    3.30   19.70
 -15   7  10   14.50    9.10
 -15   7 -10   -0.10    3.80
  15   7  10  -18.20   16.10
  15   7  10   -2.30   39.60
  15  -7 -10   -3.80    6.90
 -15  -7  10   -0.90    9.10
  15   0 -11    8.10   16.00
  15   0  11    2.40   31.50
 -15   0 -11    4.30    2.70
 -15   0  11    1.10    7.10
 -15   0  11   10.00    9.10
  15   0 -11   18.10   21.80
  15   0 -11    3.60    3.60
  15   2 -11  117.69   18.80
  15  -2  11   78.79   28.20
  15   2 -11  134.19   11.30
 -15  -2 -11  133.29   11.00
 -15   2  11  143.49   14.30
  15   2 -11  152.88   33.00
 -15   2  11  132.49   18.40
  15  -2 -11  134.99   12.10
  15  -2 -11   95.09   21.30
  15   2  11  142.99   15.90
 -15  -2  11  136.99   14.10
  15   2  11  119.69   25.10
 -15   2 -11  138.19   11.10
  15   2  11  100.49   17.20
  15   2  11   83.59   36.00
 -15  -2  11  121.29   17.40
  15   4 -11    0.60   20.60
  15   4 -11  -11.20   12.10
 -15  -4 -11   -3.80    3.10
 -15   4  11    8.80    7.20
  15  -4  11    3.00   25.20
 -15   4  11    1.50    9.10
 -15  -4  11   -0.30    9.90
  15   4  11    4.50   36.00
  15  -4 -11    3.90    4.70
  15   4  11  -34.00   26.00
 -15  -4  11    1.70    8.20
 -15   4 -11   -0.90    2.90
  15   4  11    4.30   16.00
  15  -4 -11   20.80   20.40
  15   4  11   11.50   10.00
 -15   6  11   22.40    8.30
  15   6 -11   21.60   22.20
  15  -6  11   21.90   20.40
  15   6  11    9.60   16.70
 -15   6 -11   27.10    3.90
  15   6  11   -5.50   37.20
  15  -6 -11   23.20    6.20
 -15  -6  11   15.20    8.60
  15  -1  12   12.80   27.70
  15   1 -12   34.10   20.20
  15   1 -12   71.49   16.40
  15   1 -12   53.49    5.20
 -15  -1 -12   46.80    5.50
 -15   1  12   54.89   10.50
 -15   1  12   48.60    8.10
  15  -1 -12   51.69    5.50
  15  -1 -12   34.20   21.50
  15   1  12   36.10   32.80
 -15  -1  12   48.30    8.40
 -15   1 -12   45.10    5.70
 -15  -1  12   34.40    9.70
  15  -1 -12   49.20   17.40
  15   3 -12   30.70   14.70
 -15   3  12   32.00   10.20
  15   3 -12   37.50    4.30
 -15  -3 -12   39.50    4.20
  15   3 -12   28.00   20.10
 -15   3  12   40.10    8.40
  15  -3  12   31.00   25.00
 -15  -3  12   31.70    8.00
 -15  -3  12   39.40   10.20
  15   3  12    5.00   34.80
  15  -3 -12   64.99   22.00
  15  -3 -12   49.10    5.60
 -15   3 -12   33.80    4.40
  15   3  12   32.30   15.40
 -15   5  12   24.40    7.70
 -15  -5 -12   24.00    4.20
  15   5 -12   31.80   21.90
  15  -5  12   20.80   21.70
  15   5  12   18.80   16.50
 -15   5 -12   18.10    3.60
 -15  -5  12   24.60    8.30
  15  -5 -12   18.80    4.90
  15   5  12   12.40   36.00
 -15  -5  12   36.00   10.60
 -15   0 -13   48.10    5.90
  15   0  13   39.50   30.60
 -15   0  13   42.00   10.30
  15   0 -13   65.39    5.70
 -15   0  13   37.70    8.20
  15   0 -13   29.60   22.40
  15   0 -13   57.69   18.80
 -15   2  13    9.20   10.40
  15  -2  13   12.70   27.00
  15   2 -13    6.60   16.10
  15   2 -13    7.30   20.20
  15   2 -13    8.90    3.30
 -15   2  13    8.80    7.30
 -15  -2 -13   11.20    3.20
  15  -2 -13    8.80    4.20
 -15  -2  13   12.90    9.40
  15   2  13   12.80   32.30
  15  -2 -13   10.50   17.90
 -15   2 -13    8.20    3.00
 -15  -2  13   -1.60    6.90
  15  -4  13   -3.80   23.10
  15   4 -13   17.40   21.60
 -15   4  13   21.00    7.50
  15   4 -13   33.90   14.70
 -15  -4 -13   20.00    3.60
 -15   4 -13   15.60    3.50
 -15  -4  13   16.90   10.60
 -15  -4  13   20.60    9.00
  15  -4 -13   18.60    5.00
  15   4  13   10.90   16.30
  15   4  13   -6.50   34.90
  15  -6  13   -4.00   19.70
 -15   6  13   12.80    8.80
  15   6 -13   17.20   22.70
 -15   6 -13   20.50    3.60
  15  -6 -13   14.40    5.80
 -15  -6  13    9.10    8.60
  15   6  13   10.70   16.70
  15   6  13   25.50   37.40
  15   1 -14    2.40    3.60
  15   1 -14  -14.50   19.80
  15   1 -14    8.00   16.50
  15  -1  14   13.90   25.70
 -15  -1 -14    1.50    2.90
 -15   1  14    1.30   10.60
 -15   1  14   -5.60    7.80
 -15   1 -14    3.70    2.90
  15  -1 -14    0.30    3.90
 -15  -1  14   -6.80    6.90
  15   1  14    0.60   31.00
  15  -1 -14    1.80   18.30
 -15  -1  14   -0.50    8.60
  15  -3  14   -7.00   22.80
  15   3 -14    5.50   16.90
  15   3 -14    5.40   20.70
 -15  -3 -14    8.20    3.30
  15   3 -14    2.60    4.20
 -15   3  14   12.40    7.20
  15   3  14   26.70   33.90
 -15  -3  14   14.90    7.60
 -15  -3  14    5.30    9.40
 -15   3 -14    7.90    2.90
  15  -3 -14   10.10    4.80
 -15  -5 -14   -1.80    4.10
  15  -5  14    2.60   20.40
 -15   5  14    2.60    8.40
  15   5 -14   -7.90   22.70
  15  -5 -14    1.40    5.00
 -15  -5  14    1.20    8.40
  15   5  14    3.20   34.80
  15   5  14  -11.10   26.20
 -15   5 -14    4.40    2.90
  15   0 -15  303.37   23.10
 -15   0  15  259.77   24.50
 -15   0  15  284.67   26.90
 -15   0 -15  282.17   22.60
 -15   2  15    5.60    7.70
  15  -2  15  -10.40   26.00
  15   2 -15   10.80    3.60
 -15  -2 -15   10.40    3.10
  15   2 -15   -5.70   21.00
 -15   2 -15   15.70    2.90
  15   2  15   19.30   32.30
  15  -2 -15    8.40    4.30
 -15  -2  15    1.60    9.30
 -15  -2  15    9.60    7.20
  15   4 -15   70.89   23.80
 -15  -4 -15   72.89    7.30
 -15   4  15   55.79    9.70
  15  -4  15   32.20   22.60
 -15   4 -15   72.59    6.70
 -15  -4  15   47.40   10.60
  15   4  15   21.30   35.70
  15  -4 -15   83.19    9.20
 -15  -1 -16   62.29    6.30
  15   1 -16   52.59    5.90
 -15   1  16   55.59    8.60
  15  -1  16   35.20   29.80
 -15  -1  16   64.19    9.00
  15   1  16   26.30   30.50
 -15   1 -16   54.19    5.90
  15  -1 -16   53.99    6.00
 -15   3  16    3.10    8.10
  15  -3  16   18.70   23.90
  15   3 -16   18.30   22.70
 -15  -3 -16    8.20    3.70
  15  -3 -16    9.50    4.70
 -15  -3  16   18.10    8.30
 -15   3 -16   12.80    2.90
  15   3  16   -6.40   32.10
  15   0 -17    2.90    4.10
  15   0  17   22.00   31.10
 -15   0  17    2.10    7.50
 -15   0 -17    5.20    3.00
 -16   0   0 3807.22  292.07
 -16   0   0 3850.11  291.47
  16   0   0 3502.45  297.47
  16   0   0 3582.54  291.57
  16   0   0 3891.41  292.37
 -16   0   0 3854.81  295.57
 -16  -2   0   66.79   11.00
 -16  -2   0   73.99   15.80
 -16   2   0   86.29   24.70
  16   2   0   94.99   33.10
 -16   2   0  103.79    8.50
 -16  -2   0   97.79   11.20
  16  -2   0   77.09   10.20
 -16   2   0   92.59   10.90
 -16   2   0   77.49   11.10
  16  -2   0   78.99   16.00
  16   2   0   79.99    9.40
  16  -2   0  103.69   10.00
  16   2   0   91.29   11.30
 -16   4   0 2502.85  194.88
  16  -4   0 2838.52  197.88
 -16  -4   0 2646.14  194.98
  16   4   0 2610.64  195.38
  16   4   0 2053.09  202.88
  16  -4   0 2496.25  195.38
  16  -4   0 2477.65  194.98
 -16   4   0 2582.44  195.78
 -16  -4   0 2586.74  195.68
  16  -4   0 2201.98  199.08
 -16   6   0   77.79   14.20
 -16  -6   0   71.89   12.50
  16  -6   0   87.29   10.70
  16  -6   0   71.99   17.60
  16   6   0  111.69   12.50
  16   6   0   44.60   31.90
 -16  -6   0   94.39   11.70
  16  -6   0   80.49   25.20
 -16   6   0   88.89   10.70
 -16  -8   0  235.38   22.90
  16   8   0  197.58   46.70
 -16   1   1  561.54   41.40
 -16  -1  -1  520.15   40.80
  16  -1   1  530.95   44.90
  16   1  -1  497.25   43.20
 -16   1   1  507.95   42.70
  16  -1   1  500.75   61.19
  16   1  -1  482.65   41.20
 -16  -1  -1  475.15   51.79
 -16   1   1  582.64   52.29
 -16  -1  -1  554.24   41.40
  16  -1   1  504.15   41.60
  16   1  -1  485.15   62.69
 -16  -1  -1  531.75   40.60
 -16   1   1  542.45   40.80
 -16  -1  -1  487.65   42.40
  16  -1  -1  564.64   59.49
 -16   1  -1  520.55   42.40
 -16  -1   1  572.34   41.40
 -16   1  -1  514.15   41.00
  16   1   1  484.45   41.10
 -16   1  -1  520.65   41.00
  16   1   1  552.54   62.59
  16  -1  -1  466.25   41.80
  16   1   1  505.55   43.00
 -16  -1   1  546.95   40.80
 -16  -1   1  502.15   49.40
 -16   1  -1  554.54   41.30
 -16  -1   1  509.45   40.60
 -16  -1   1  512.15   42.40
  16  -1  -1  542.55   41.70
 -16   1  -1  467.85   54.39
  16  -1  -1  501.05   45.20
 -16   3   1  184.18   39.40
 -16   3   1  231.48   18.40
  16  -3   1  189.08   20.50
 -16   3   1  214.88   21.20
  16  -3   1  195.78   23.70
  16   3  -1  138.19   34.80
  16   3  -1  203.58   20.70
  16  -3   1  152.88   31.10
 -16  -3  -1  207.28   20.70
 -16  -3  -1  216.08   18.80
 -16  -3   1  219.48   18.30
  16  -3  -1  193.58   20.10
  16   3   1  188.98   20.20
 -16   3  -1  219.38   21.30
  16  -3  -1  169.18   37.80
  16  -3  -1  207.18   19.10
 -16  -3   1  206.48   20.50
 -16   3  -1  162.18   29.10
 -16   3  -1  212.48   17.70
  16   3   1  149.88   38.40
  16  -3  -1  216.08   30.20
 -16  -5  -1   67.39   10.10
 -16  -5  -1   44.10   10.40
  16  -5   1   38.00   21.30
  16   5  -1   79.29   10.40
 -16   5   1   69.49    8.80
 -16   5   1   59.39   12.20
  16   5  -1   56.79   30.40
  16  -5   1   48.60   21.20
  16   5   1   50.49   35.30
 -16   5  -1   50.29   12.00
  16  -5  -1   54.49    8.80
 -16  -5   1   64.59    9.60
 -16   5  -1   39.10   34.30
 -16  -5   1   59.79   10.90
  16   5   1   69.49   10.70
  16  -5  -1   59.49   22.90
 -16   5  -1   58.99    8.70
  16  -5  -1   34.20   17.20
  16   7  -1   26.20   32.90
 -16  -7  -1   17.40   10.20
 -16   7   1   26.10   13.40
 -16   7   1   34.20    9.40
  16  -7   1    8.40   15.20
  16  -7  -1   43.40    9.80
 -16   7  -1   27.90   13.10
  16   7   1   -0.40   37.50
 -16   7  -1   33.10    9.00
 -16  -7   1   22.60    9.90
 -16  -7   1   29.50    9.10
  16  -7  -1   39.80   25.90
 -16   0  -2  809.52   66.29
  16   0  -2  849.52   66.59
  16   0  -2  887.81   68.59
 -16   0   2  869.71   66.09
 -16   0   2  899.41   67.49
  16   0  -2  754.62   66.59
  16   0  -2  773.02   79.29
 -16   0   2  836.52   66.59
 -16   0  -2  876.91   67.19
  16   0   2  845.02   66.49
 -16   0   2  811.42   72.29
 -16   0  -2  873.81   66.49
 -16   0  -2  825.82   66.19
  16   0   2  955.00   67.89
  16   0   2  836.12   83.29
  16   2  -2  428.66   33.30
 -16  -2  -2  361.36   29.60
 -16   2   2  380.56   29.90
  16  -2   2  421.06   37.40
 -16   2   2  407.66   31.00
  16  -2   2  270.47   49.20
 -16   2   2  442.86   33.10
 -16  -2  -2  357.16   30.10
  16   2  -2  351.86   52.79
 -16  -2  -2  394.46   32.40
 -16   2   2  382.66   43.30
 -16  -2  -2  382.16   31.00
  16  -2   2  358.36   31.60
  16   2  -2  361.46   30.60
  16   2   2  354.86   30.30
 -16   2  -2  362.96   30.30
 -16   2  -2  360.16   30.40
  16   2   2  412.56   32.50
 -16   2  -2  440.96   32.20
 -16   2  -2  422.86   30.60
 -16   2  -2  283.17   46.50
  16  -2  -2  351.16   31.30
  16  -2  -2  360.86   31.70
  16   2   2  297.27   55.49
 -16  -2   2  426.06   32.30
 -16  -2   2  392.46   30.90
  16  -2  -2  426.56   37.80
 -16  -2   2  315.47   37.40
  16  -4   2  426.66   39.00
 -16  -4  -2  502.55   39.10
 -16  -4  -2  493.85   37.80
  16   4  -2  497.85   38.80
  16  -4   2  350.66   52.09
  16   4  -2  332.87   59.19
 -16   4   2  427.86   40.00
 -16   4   2  442.46   37.50
  16  -4   2  530.95   47.10
  16  -4  -2  503.45   47.10
  16   4   2  359.06   64.69
 -16   4  -2  463.75   37.10
  16  -4  -2  451.95   37.80
  16   4   2  500.95   38.70
 -16  -4   2  488.25   39.10
 -16   4  -2  492.85   39.50
 -16  -4   2  494.85   37.80
 -16   4  -2  350.86   53.69
 -16  -6  -2   60.79   10.40
  16  -6   2   64.49   25.60
 -16   6   2   49.80    9.60
  16   6  -2   64.99   33.20
  16   6  -2   55.69   10.10
  16  -6   2   23.00   20.90
 -16  -6  -2   52.29   10.40
 -16   6   2   58.59   12.80
 -16  -6   2   59.69    9.60
  16   6   2   20.90   37.40
 -16   6  -2   49.80   12.40
 -16   6  -2   64.99    8.80
  16   6   2   68.99   10.30
  16  -6  -2   63.09    9.30
  16  -6  -2   71.19   22.80
 -16  -6   2   40.00   10.50
 -16   6  -2   39.90    6.70
 -16   8   2   30.90   10.60
  16   8  -2   36.70   33.40
 -16  -8  -2   21.40    9.00
 -16   8  -2   65.39    7.80
  16   8   2   46.50   41.70
 -16   8  -2   65.39   11.00
 -16  -8   2   43.70   10.90
  16  -8  -2   49.00    9.40
 -16   1   3 2076.89  152.88
 -16  -1  -3 1647.04  158.08
  16   1  -3 1848.92  152.68
 -16   1   3 1955.50  152.38
 -16  -1  -3 1893.11  152.58
 -16  -1  -3 1980.20  153.28
  16  -1   3 2097.69  154.08
 -16   1   3 1986.00  153.68
  16  -1   3 1988.00  152.68
 -16  -1  -3 2010.30  152.38
  16  -1   3 1810.12  160.58
  16   1  -3 2019.60  160.98
  16   1  -3 1959.60  153.58
 -16   1   3 2035.00  155.78
  16   1  -3 2054.69  152.58
 -16  -1  -3 2051.69  152.68
 -16   1  -3 2066.49  152.48
  16   1   3 1960.10  153.38
  16  -1  -3 1990.70  152.68
 -16   1  -3 1821.62  152.58
 -16   1  -3 2032.90  153.08
 -16   1  -3 1745.83  159.08
  16   1   3 1961.80  152.58
 -16  -1   3 1960.20  153.28
  16  -1  -3 1745.13  154.38
 -16   1  -3 2081.69  152.58
 -16  -1   3 1993.00  152.28
 -16  -1   3 1884.41  155.48
  16   1   3 1898.71  163.28
 -16  -1   3 2149.39  152.68
  16  -1  -3 1980.20  159.98
 -16  -3  -3  932.51   69.19
  16  -3   3  835.32   79.39
  16   3  -3  804.22   81.89
 -16   3   3  875.01   68.29
  16  -3   3  851.41   72.89
 -16  -3  -3  951.00   68.29
  16   3  -3  858.81   69.39
 -16   3   3  802.12   74.39
  16  -3   3  870.61   68.89
 -16   3   3  875.81   69.59
  16   3   3  873.31   68.99
 -16  -3   3  809.72   69.19
 -16   3  -3  924.51   69.19
  16  -3  -3  746.63   74.39
 -16   3  -3  907.61   67.79
 -16   3  -3  898.91   67.99
  16  -3  -3  922.01   73.49
 -16  -3   3  872.51   68.29
  16   3   3  756.92   84.69
  16  -3  -3  870.71   68.19
  16  -5   3  438.66   45.00
 -16   5   3  363.56   31.60
 -16  -5  -3  371.76   31.60
  16  -5   3  281.77   45.30
 -16   5   3  394.76   34.90
 -16  -5  -3  326.37   32.40
  16   5  -3  391.46   54.29
  16   5  -3  351.86   32.70
 -16   5  -3  398.96   34.10
  16  -5  -3  381.76   45.40
  16   5   3  400.96   32.70
 -16   5  -3  406.06   30.10
 -16  -5   3  383.06   32.70
 -16   5  -3  350.36   31.00
 -16  -5   3  368.26   31.40
  16  -5  -3  364.76   31.60
  16   7  -3   69.39   32.10
 -16  -7  -3  112.69   14.60
 -16   7   3  178.58   18.00
 -16  -7   3  139.09   17.00
  16   7   3   48.40   26.70
 -16   7  -3  149.59   13.30
 -16   7  -3  146.79   16.20
  16   7   3   71.49   40.40
  16  -7  -3  147.89   29.30
  16  -7  -3  148.19   16.60
  16   0   4  217.08   19.60
  16   0  -4  152.38   34.00
  16   0   4  112.89   35.30
 -16   0   4  170.68   22.20
  16   0  -4  202.78   22.60
  16   0  -4  173.98   15.40
 -16   0  -4  177.98   15.50
  16   0  -4  172.98   16.10
 -16   0  -4  116.19   29.30
 -16   0  -4  187.68   15.60
 -16   0   4  231.98   19.00
 -16   0  -4  155.68   14.50
 -16   0  -4  186.18   17.70
 -16   0   4  180.28   16.30
  16   0   4  183.28   15.30
 -16   0   4  171.48   14.10
  16  -2   4 1482.35  107.09
  16  -2   4 1187.88  112.59
  16   2  -4 1245.78  114.09
 -16  -2  -4 1410.26  105.49
 -16   2   4 1438.86  105.69
 -16  -2  -4 1339.77  104.09
 -16   2   4 1145.89  107.29
  16   2  -4 1357.96  105.79
  16  -2   4 1251.67  104.79
 -16  -2  -4 1416.96  104.69
 -16   2   4 1374.56  104.59
 -16   2   4 1184.18  104.09
 -16   2  -4 1429.66  104.39
  16   2   4 1293.07  104.39
  16  -2  -4 1452.25  107.99
 -16   2  -4 1417.16  104.89
  16  -2  -4 1105.19  111.99
  16  -2  -4 1323.17  104.49
  16   2   4 1485.05  105.29
 -16  -2   4 1463.45  104.69
 -16  -2   4 1426.96  105.39
 -16  -2   4 1233.78  106.79
 -16   2  -4 1297.27  104.29
 -16  -4  -4    1.50    8.10
 -16  -4  -4   -3.50    8.50
  16   4  -4    1.90    8.60
  16  -4   4   10.50   25.50
 -16   4   4    3.40    9.30
  16  -4   4  -16.50   17.40
  16   4  -4   19.60   26.60
 -16   4   4    3.00    7.60
  16   4   4   -4.70   33.20
 -16  -4   4    1.50    9.00
 -16   4  -4    2.80    5.90
  16  -4  -4    3.50   19.90
  16  -4  -4    1.50    6.00
 -16  -4   4    1.40    6.80
 -16   4  -4    2.90    9.10
 -16   4  -4    6.50    4.40
  16   4   4   -1.50    8.30
 -16   6   4  597.24   42.80
 -16  -6  -4  509.35   42.90
  16   6  -4  429.66   61.09
  16   6  -4  534.05   43.50
 -16   6   4  546.85   45.40
 -16  -6   4  555.14   44.10
  16  -6  -4  499.45   42.40
  16  -6  -4  633.84   54.09
 -16   6  -4  475.95   42.10
 -16  -6   4  462.25   42.40
 -16   6  -4  487.55   41.10
 -16   8   4    0.10   10.00
  16  -8   4   -7.80   18.40
 -16  -8  -4    1.90    8.90
  16   8  -4   16.70   29.00
  16   8   4   31.40   38.30
 -16   8  -4    2.00    5.70
  16  -8  -4    5.90    8.90
 -16  -8   4    8.60    8.60
 -16   1   5  501.35   39.80
  16   1  -5  506.55   40.20
 -16   1   5  499.55   42.60
  16  -1   5  486.45   40.70
 -16   1   5  538.95   43.40
 -16   1   5  539.15   41.10
 -16  -1  -5  541.05   39.90
 -16  -1  -5  554.04   40.70
  16   1  -5  518.75   57.79
  16   1  -5  505.45   43.50
  16  -1   5  518.35   44.00
  16  -1   5  468.85   58.29
 -16  -1  -5  513.05   41.90
 -16   1  -5  499.15   40.40
 -16   1  -5  468.25   40.50
  16  -1  -5  495.45   56.09
  16  -1  -5  518.05   40.40
  16   1   5  495.95   40.30
 -16  -1   5  584.74   40.90
  16   1   5  409.76   65.79
 -16   1  -5  450.25   41.20
 -16  -1   5  520.95   41.80
  16   1   5  494.55   42.00
 -16  -1   5  517.25   44.10
 -16  -1   5  532.05   39.80
 -16   1  -5  520.55   40.00
  16  -1  -5  466.35   45.80
 -16   3   5  253.67   27.50
  16   3  -5  264.77   27.10
 -16  -3  -5  308.17   25.10
 -16  -3  -5  280.47   26.40
 -16  -3  -5  300.07   22.50
  16   3  -5  298.27   45.80
 -16   3   5  292.07   24.70
  16  -3   5  235.68   44.20
  16   3   5  286.07   23.00
  16  -3  -5  302.87   36.30
  16   3   5  245.38   54.99
  16   3   5  278.47   26.00
  16  -3  -5  300.97   24.00
 -16  -3   5  250.47   26.50
 -16   3  -5  307.77   23.30
 -16  -3   5  294.17   24.60
 -16   5   5   85.29   10.40
 -16  -5  -5   74.19   11.10
  16   5  -5   83.59   12.70
  16   5  -5   88.19   29.70
 -16   5   5   56.99   12.10
  16  -5   5   55.39   24.70
  16   5   5   98.49   12.00
 -16  -5   5   90.89   12.70
 -16   5  -5  105.59    9.90
  16  -5  -5   90.39    9.90
  16   5   5   35.70   36.70
 -16  -5   5  108.59   11.30
  16  -5  -5   90.29   23.80
 -16   7   5   43.70   10.10
 -16  -7  -5   43.10    9.00
 -16   7   5   22.90   12.50
  16  -7   5   19.10   20.60
  16   7  -5   73.79   30.10
  16  -7  -5   43.60    9.10
 -16  -7   5   31.20    9.80
 -16   7  -5   39.70    6.00
  16   7   5   35.00   36.90
 -16   0   6   74.79    9.10
 -16   0   6   81.79    6.40
 -16   0  -6   79.29    9.40
 -16   0  -6   57.19    9.40
  16   0   6   64.69   11.40
  16   0  -6   35.20   13.50
 -16   0   6   48.30   10.60
  16   0   6   53.89   31.80
  16   0   6   61.19    7.40
  16   0  -6  100.19   27.20
 -16   0  -6   86.79    6.90
  16   0  -6   83.49    8.00
 -16  -2  -6 2579.64  184.98
 -16   2   6 2559.14  184.88
 -16   2   6 2560.34  185.78
 -16  -2  -6 2485.05  185.58
  16  -2   6 2076.79  191.28
  16   2  -6 2316.87  185.88
  16   2  -6 2393.56  184.58
  16   2  -6 2414.06  191.18
  16  -2  -6 2565.94  187.58
  16   2   6 2457.95  185.28
  16  -2  -6 2435.36  184.68
  16   2   6 1996.90  194.98
 -16  -2   6 2582.74  184.88
 -16  -2   6 2098.79  184.38
  16   2   6 2346.77  184.68
  16  -2  -6 2094.39  188.58
 -16  -2   6 2438.36  185.58
  16   2   6 2275.67  184.58
 -16  -4  -6   86.79   10.10
  16   4  -6  100.39   27.80
  16   4  -6   65.49   12.40
  16  -4   6   94.19   27.50
 -16   4   6   43.50   11.70
 -16   4   6   82.99    9.50
 -16  -4  -6   82.79    7.00
  16   4   6   55.39   39.30
 -16  -4   6   76.49    9.60
  16   4   6   73.89   11.00
 -16  -4   6   43.60   11.30
  16  -4  -6   78.69    8.30
  16  -4  -6   75.59   20.60
  16   6  -6  564.24   70.39
  16   6  -6  684.93   56.99
 -16  -6  -6  669.13   55.79
 -16   6   6  790.02   56.09
  16  -6  -6  731.13   55.39
  16   6   6  613.04   66.59
 -16  -6   6  701.03   57.09
 -16   6  -6  690.53   54.59
  16  -6  -6  856.91   65.89
 -16  -6   6  640.94   55.69
 -16  -8  -6  -11.60    8.90
  16   8  -6   -6.20   29.00
 -16   8   6    6.90    9.90
  16  -8   6    3.80   17.90
  16   8   6   11.10   38.70
 -16   8  -6    5.60    5.00
 -16  -8   6   -6.40    8.70
  16  -8  -6    7.50    9.10
  16   1  -7 1141.19   87.79
  16  -1   7 1004.00   98.89
  16   1  -7 1139.49   97.49
  16   1  -7 1155.08   90.59
 -16   1   7 1204.98   88.29
 -16  -1  -7 1159.58   87.59
 -16   1   7 1094.19   87.59
 -16  -1  -7 1180.08   88.19
 -16   1   7 1126.99   89.29
  16  -1  -7 1133.49   87.89
  16   1   7 1210.88   88.89
 -16  -1   7 1210.88   89.09
 -16   1  -7 1109.99   87.69
  16   1   7 1054.59   87.89
 -16  -1   7 1202.48   88.29
 -16  -1   7 1161.08   87.59
  16  -1  -7 1029.40   89.79
  16  -1  -7 1041.70   98.79
  16   1   7 1084.09   87.89
  16   1   7  907.41  101.69
  16  -1  -7 1222.38   91.69
 -16  -3  -7  568.74   41.20
 -16   3   7  555.04   42.60
 -16  -3  -7  560.74   43.00
  16   3  -7  490.65   44.70
  16   3  -7  547.15   58.19
 -16   3   7  549.95   44.60
  16  -3   7  458.15   56.39
  16   3   7  564.84   43.60
  16  -3  -7  559.44   51.49
  16  -3  -7  533.95   41.90
 -16   3  -7  520.25   41.50
 -16  -3   7  530.55   43.70
  16   3   7  469.25   41.40
 -16  -3   7  516.45   42.40
  16   3   7  420.06   69.79
 -16   5   7  205.48   22.90
 -16   5   7  201.38   19.10
  16   5  -7  180.18   21.70
 -16  -5  -7  175.18   15.40
  16   5  -7  191.88   33.00
 -16  -5  -7  206.38   19.20
 -16  -5   7  188.38   18.90
  16  -5  -7  202.88   17.70
  16  -5  -7  233.98   30.00
  16   5   7  102.29   29.10
  16   5   7   92.79   42.70
  16   5   7  210.28   20.50
 -16   5  -7  185.48   16.00
 -16  -5   7  198.08   21.50
  16   7  -7   67.49   29.00
  16  -7   7   36.00   21.50
 -16   7   7   81.29   10.60
 -16  -7  -7   82.89   10.90
  16   7   7   35.70   39.00
  16  -7  -7  101.69   10.20
 -16  -7   7   55.39   11.00
  16   0   8  509.95   67.89
 -16   0  -8  641.34   48.40
  16   0  -8  516.65   52.09
 -16   0   8  630.04   48.30
 -16   0   8  682.33   50.59
 -16   0   8  654.13   49.30
  16   0  -8  658.73   48.70
  16   0  -8  666.93   63.59
  16   0  -8  562.14   53.89
 -16   2   8   65.59   10.20
  16   2  -8   60.49    6.50
 -16  -2  -8   59.99    5.60
  16   2  -8   53.09   23.90
 -16  -2  -8   52.19    8.60
  16  -2   8   16.00   28.60
  16   2  -8   70.29   14.00
 -16   2   8   66.69    7.70
 -16  -2   8   53.89    8.20
 -16  -2   8   59.49   10.30
 -16  -2   8   51.49    5.50
  16   2   8    8.00   34.50
  16  -2  -8   66.69   18.30
  16   2   8   36.40    6.00
  16   2   8   57.59    6.40
 -16   2  -8   53.69    5.40
  16  -2  -8   59.99    6.10
 -16  -4  -8  599.14   46.80
  16   4  -8  492.15   48.40
 -16  -4  -8  591.44   45.10
 -16   4   8  607.94   46.50
  16   4  -8  533.55   60.69
  16   4   8  426.16   73.09
  16   4   8  639.34   47.30
 -16   4  -8  531.35   45.30
  16  -4  -8  592.44   45.80
  16  -4  -8  665.53   55.59
 -16  -4   8  550.74   46.50
  16   4   8  670.03   60.49
 -16  -4   8  587.04   48.10
 -16  -6  -8    1.00    8.80
  16  -6   8    9.40   23.10
  16   6  -8   15.60   25.20
 -16   6   8    6.10    8.80
  16   6  -8    3.60   12.40
 -16   6  -8    0.90    4.00
  16   6   8   11.40   23.90
  16   6   8    2.70   10.30
 -16  -6   8   -2.30    8.20
 -16  -6   8   -1.60    9.20
  16  -6  -8   -4.20    6.40
  16   6   8   -0.70   36.40
  16   1  -9  143.89   28.00
  16  -1   9  106.99   33.30
  16   1  -9  153.48   13.00
  16   1  -9  159.98   20.20
 -16   1   9  152.58   19.20
 -16   1   9  163.08   15.80
 -16  -1  -9  151.78   12.60
 -16  -1   9  156.38   12.30
  16   1   9  153.58   16.90
 -16  -1   9  155.98   15.60
  16  -1  -9  127.99   27.40
  16   1   9  158.48   26.50
 -16  -1   9  135.89   17.70
  16  -1  -9  162.68   13.60
 -16   1  -9  155.98   12.80
  16  -1  -9  194.88   27.90
  16   1   9  116.69   36.50
 -16   3   9  153.58   19.70
  16   3  -9  129.69   27.00
  16  -3   9   81.29   29.70
 -16  -3  -9  160.08   12.30
 -16  -3  -9  168.08   17.00
  16   3  -9  125.99   17.10
  16   3  -9  151.58   12.50
 -16   3   9  156.78   15.70
  16  -3  -9  144.99   13.70
 -16  -3   9  155.18   15.50
  16   3   9  112.99   38.40
 -16   3  -9  151.68   12.70
  16  -3  -9  141.19   22.50
  16   3   9  154.18   29.70
 -16  -3   9  153.08   17.80
  16   3   9  162.08   18.00
  16  -5   9   29.50   24.30
 -16   5   9   45.40    8.80
  16   5  -9   54.99   12.10
  16   5  -9   46.30   25.00
 -16  -5  -9   43.80    5.10
 -16   5   9   56.29   11.20
  16   5   9   15.10   39.50
 -16  -5   9   48.80    9.20
  16  -5  -9   36.10    6.90
  16   5   9   80.99   11.40
  16  -5  -9   80.49   25.10
 -16  -5   9   23.30   10.40
  16   5   9   47.70   26.00
 -16   5  -9   44.20    5.30
  16   7  -9   32.50   26.70
  16  -7   9    4.50   19.70
 -16   7   9    9.60    8.20
 -16   7  -9   21.40    4.50
  16   7   9   -4.50   39.00
  16  -7  -9   16.10    7.30
 -16  -7   9    5.60    9.00
  16   0 -10 1515.25  114.99
 -16   0 -10 1393.56  111.29
 -16   0  10 1382.96  111.79
 -16   0  10 1484.15  112.69
  16   0 -10 1460.75  111.39
  16   0 -10 1344.57  119.59
  16   2 -10   34.30   22.40
  16  -2  10   22.60   26.40
 -16   2  10   16.30   10.20
  16   2 -10   23.50    4.00
 -16  -2 -10   27.70    3.50
 -16   2  10   14.00    7.30
  16   2 -10   19.60   14.10
  16   2  10   27.20    8.50
 -16  -2  10   42.60    7.70
  16  -2 -10   13.60   16.30
 -16  -2  10   20.80    8.80
 -16   2 -10   34.50    3.70
  16   2  10    4.60   34.00
  16   2  10  -14.70   23.40
  16  -2 -10   25.90    5.10
  16   4 -10  779.82   72.49
  16   4 -10  868.51   79.99
 -16  -4 -10  876.71   69.39
 -16   4  10  933.41   70.49
  16  -4 -10 1045.10   77.39
 -16  -4  10  818.62   70.49
  16   4  10 1000.50   81.59
 -16   4 -10  817.62   69.49
 -16  -4  10  849.32   71.89
  16   4  10 1002.60   71.49
  16  -4 -10  903.01   69.79
  16  -6  10   13.90   22.50
 -16   6  10   22.20    8.40
  16   6 -10   15.20   24.70
  16   6  10  -10.90   37.10
 -16  -6  10   20.20    8.50
 -16   6 -10   18.20    4.10
  16  -6 -10   14.60    6.40
  16   1 -11  338.07   25.00
  16  -1  11  267.57   49.30
 -16  -1 -11  321.57   24.70
 -16   1  11  315.37   26.70
  16   1 -11  280.27   34.30
  16   1 -11  277.27   45.30
 -16   1  11  309.37   29.50
 -16  -1  11  307.87   28.40
  16  -1 -11  326.87   25.10
 -16   1 -11  337.17   24.70
  16  -1 -11  366.46   36.70
  16   1  11  219.18   41.70
  16  -1 -11  259.17   44.10
 -16  -1  11  298.97   26.50
 -16   3  11  133.69   18.60
  16   3 -11  124.99   17.40
  16   3 -11  123.39   10.90
 -16  -3 -11  119.69   10.40
 -16   3  11  124.69   14.20
  16   3 -11  108.59   23.90
 -16   3 -11  111.79   10.60
  16   3  11  143.29   17.10
 -16  -3  11  124.39   17.20
  16  -3 -11  112.39   22.40
 -16  -3  11  118.09   13.90
  16   3  11  132.29   29.70
  16  -3 -11  129.19   12.00
  16   3  11   62.89   38.10
 -16  -5 -11   32.40    4.60
  16  -5  11    4.10   23.40
  16   5 -11   38.10   22.70
 -16   5  11   23.40    8.60
 -16  -5  11   21.50    8.20
  16   5  11   11.10   37.00
 -16  -5  11   19.60   11.10
  16   5  11   63.09   17.20
 -16   5 -11   33.90    4.00
  16  -5 -11   27.10    5.70
  16   5  11    9.00   17.00
  16   5  11   58.29   28.50
  16   0 -12  597.94   52.29
  16   0 -12  585.84   44.90
 -16   0  12  618.64   47.40
  16   0 -12  506.15   60.19
 -16   0  12  536.95   45.70
 -16   0 -12  567.14   44.60
  16  -2  12   28.80   27.40
 -16  -2 -12   15.30    3.10
 -16   2  12    8.90   10.10
 -16   2  12    3.90    7.70
  16   2 -12   14.70   14.90
  16   2 -12   16.50    3.80
  16   2 -12   11.90   20.50
 -16  -2  12   17.70    9.30
 -16   2 -12   13.40    3.00
 -16  -2  12   12.00    7.00
  16   2  12  -18.00   33.80
  16  -2 -12   24.80   18.40
  16   2  12   -2.30   12.80
  16  -2 -12   13.60    4.80
 -16   4  12  170.78   17.20
 -16  -4 -12  182.38   14.00
  16   4 -12  131.99   20.40
  16   4 -12  183.68   36.80
 -16  -4  12  160.68   17.80
 -16  -4  12  177.08   21.20
  16  -4 -12  176.28   15.30
  16   4  12  116.09   21.60
 -16   4 -12  162.18   14.00
  16  -6  12    1.90   20.40
 -16   6  12   20.50    9.00
  16   6 -12   19.10   23.70
 -16  -6  12    6.10    8.50
  16   6  12  -19.60   16.70
  16  -6 -12   15.70    5.70
  16   6  12   -1.90   35.70
 -16   6 -12    4.30    3.40
 -16   1  13  203.48   19.50
 -16  -1 -13  201.18   16.40
  16   1 -13  216.08   16.90
 -16   1  13  185.78   22.70
  16   1 -13  156.08   30.40
  16   1 -13  220.98   29.50
  16  -1 -13  218.18   17.10
 -16  -1  13  199.48   21.40
  16  -1 -13  214.28   31.50
 -16   1 -13  194.38   16.40
 -16  -1  13  205.48   18.80
 -16  -3 -13  109.09    9.30
  16   3 -13   71.69   23.20
  16   3 -13   70.69   18.00
 -16   3  13  109.49   12.80
  16  -3  13   48.80   26.80
 -16  -3  13   99.89   13.00
 -16  -3  13  131.49   16.50
  16  -3 -13  117.39   10.90
 -16   3 -13  105.39    9.10
  16   3  13   50.69   35.00
 -16  -5 -13   79.29    7.20
  16  -5  13   10.10   21.50
 -16   5  13   44.30    9.60
  16   5 -13   65.89   24.10
 -16   5 -13   61.09    6.40
  16   5  13   26.60   17.50
  16   5  13   26.20   37.50
  16  -5 -13   43.40    6.70
 -16  -5  13   52.09    9.60
 -16   0  14   -8.60    9.30
  16   0 -14    2.10    3.80
 -16   0  14    3.40    7.20
  16   0 -14   -8.10   16.40
 -16   0 -14    6.80    2.80
  16   0  14   -5.80   28.30
  16   2 -14  570.24   42.60
 -16  -2 -14  542.55   42.40
  16   2 -14  507.05   55.99
  16   2 -14  560.04   49.70
  16  -2 -14  545.65   42.80
 -16  -2  14  551.34   45.50
 -16  -2  14  501.85   43.60
 -16   2 -14  538.35   42.40
 -16   4  14   12.40    7.60
  16  -4  14   15.10   24.00
 -16  -4 -14   17.90    3.90
  16   4 -14   12.70   21.90
  16   4  14    8.10   33.20
 -16   4 -14   18.30    3.30
 -16  -4  14    9.00    8.80
  16  -4 -14   14.60    5.00
  16  -1  15   -3.50   26.60
  16   1 -15   27.80   25.70
  16   1 -15    6.20    4.10
 -16  -1 -15   11.90    3.30
 -16   1  15    2.50    7.60
 -16  -1  15    4.70    7.30
 -16   1 -15   12.90    3.00
  16  -1 -15   12.30    4.30
  16   1  15   27.80   31.00
  16   3 -15    8.10   21.70
 -16   3  15   12.60    7.60
 -16  -3 -15   23.20    3.60
  16  -3  15   19.10   24.80
 -16   3 -15   12.60    3.20
  16   3  15   -6.90   35.40
 -16  -3  15   16.00    8.20
  16  -3 -15   14.60    5.10
  16   0 -16    7.00    4.20
  16   0  16   -6.00   30.10
 -16   0  16   -2.00    7.40
 -16   0 -16    2.60    3.00
 -16  -2 -16  306.97   22.50
  16   2 -16  265.87   43.30
 -16   2  16  244.38   25.10
 -16   2 -16  284.07   22.40
  16  -2 -16  292.07   23.10
 -16  -2  16  254.57   24.50
  17   1   0   35.70   29.90
 -17  -1   0   -6.40   18.30
 -17  -1   0   -3.80    2.90
 -17  -1   0    1.20    3.10
  17  -1   0  -19.30   30.40
  17   1   0    0.10    4.80
 -17   1   0    1.70    3.20
  17  -1   0   -3.80    6.20
  17   1   0   -2.10    8.70
 -17  -1   0   -6.80    7.00
  17  -1   0   -0.20   12.40
 -17   1   0   -2.50    5.70
 -17   1   0    3.50    7.60
 -17  -1   0   -0.50    5.70
 -17   1   0    5.30   21.10
  17  -3   0   -1.30    9.00
 -17   3   0    7.40   24.80
  17  -3   0   -0.30   17.00
 -17   3   0    4.50    5.80
 -17  -3   0    1.10    7.40
  17   3   0   -0.70    8.20
  17   3   0    1.40   34.80
 -17   3   0   -8.20    8.80
  17  -3   0   -2.40   25.30
  17  -3   0   -7.20    7.50
 -17  -3   0   -8.90    7.90
  17   5   0   -8.60   33.70
  17  -5   0  -27.90   21.60
  17   5   0    2.40    8.50
 -17   5   0    7.00    7.30
 -17   5   0   -5.60   10.50
 -17  -5   0   14.70    8.50
  17  -5   0    2.50    7.80
 -17  -5   0   -4.10    9.50
  17  -5   0   -2.10   19.30
 -17  -7   0   10.20    9.10
 -17   7   0   -7.60    8.60
  17  -7   0   -9.10   25.70
  17   7   0   -1.70   33.60
 -17   7   0   -1.80   12.20
 -17   0  -1   11.50    3.80
 -17   0  -1    4.20    7.20
 -17   0  -1   15.90    5.50
  17   0  -1   11.30    9.80
 -17   0   1   14.60    5.90
  17   0  -1   11.80    5.70
  17   0   1   21.90   33.40
  17   0  -1   -0.50   29.00
  17   0   1   16.70    5.50
 -17   0  -1    7.70   20.60
 -17   0   1   23.90   19.30
 -17   0   1   14.10    7.50
 -17   0  -1   18.00    3.60
 -17   0   1   15.70    3.00
  17   0   1   14.10   10.10
  17  -2   1   -0.10   14.70
 -17   2   1   19.60    8.50
 -17  -2  -1   -1.10    8.10
  17   2  -1   13.70   10.00
 -17   2   1   18.60    6.50
  17  -2   1   14.60    7.50
  17  -2   1   31.60   26.80
  17   2  -1   -0.90   32.80
 -17   2   1    7.70    3.20
 -17   2   1   16.50   22.30
 -17  -2  -1   12.30    6.40
 -17   2  -1   18.10    6.30
 -17  -2   1    5.80    7.80
 -17   2  -1    9.50    3.50
 -17  -2   1    2.50    6.20
 -17   2  -1    7.30    8.50
  17  -2  -1    2.40   14.40
  17   2   1   14.10   31.70
  17  -2  -1    3.70    7.40
 -17   2  -1  -13.70   24.40
  17  -2  -1   24.90    6.60
  17  -2  -1   27.10   26.90
  17   2   1    7.70    4.40
 -17   4   1  -11.60    6.80
  17   4  -1    7.20   29.40
 -17   4   1   -4.10    9.90
  17  -4   1   12.30   18.50
 -17  -4  -1   12.70    8.20
  17   4  -1   -4.30    8.20
 -17   4   1  -13.40   25.60
  17  -4   1   -7.80   10.20
 -17  -4  -1    7.00    9.40
  17  -4   1  -15.00   24.50
  17   4   1   23.00   36.90
 -17   4  -1   -8.40    9.10
 -17   4  -1    2.80   24.40
 -17   4  -1   -2.00    6.40
 -17  -4   1   -6.80    9.10
  17  -4  -1  -10.40   18.60
  17   4   1    6.40    7.70
  17  -4  -1    9.40    7.20
 -17  -4   1    8.10    8.60
  17  -4  -1  -12.90   21.70
 -17  -6  -1   -4.70    8.00
  17  -6   1  -15.30   24.20
 -17   6   1   -2.60   11.20
  17   6  -1   -1.10   33.50
  17   6  -1   -5.20    9.00
  17  -6   1   -5.00   18.10
 -17  -6  -1   -5.10    8.50
 -17   6   1   -3.80    7.60
 -17   6  -1   -1.20   11.50
 -17  -6   1    7.70   10.60
 -17  -6   1  -12.90    9.70
  17   6   1   29.30   36.80
 -17   6  -1   -4.40    7.70
  17  -6  -1   -8.10   15.80
  17   6   1  -10.10    9.00
  17  -6  -1   -3.20    7.10
  17  -6  -1   -7.70   23.50
  17   8  -1  -12.30   33.80
 -17   8   1    8.40    9.30
 -17  -8  -1   -2.90    9.30
 -17   8  -1  -13.90    9.20
 -17   8  -1    4.40    6.00
  17   8   1   26.10   40.30
 -17  -8   1    4.70   10.40
 -17   1   2   10.20    8.30
 -17  -1  -2   13.50    8.10
 -17  -1  -2    7.60    3.80
 -17   1   2   10.50    2.80
  17   1  -2    9.70    5.00
  17   1  -2    4.30    9.00
  17   1  -2   25.20   31.40
  17  -1   2  -21.20   29.90
 -17  -1  -2    5.90    2.50
 -17  -1  -2    9.30    6.20
 -17   1   2   12.70    6.30
  17  -1   2    8.30    6.20
  17  -1   2   17.70   12.40
 -17   1   2   15.40   18.30
 -17  -1  -2   18.50   20.20
 -17  -1   2    4.20    2.10
 -17   1  -2   11.10    4.00
 -17   1  -2    0.70   23.80
  17   1   2  -14.30   34.70
  17  -1  -2    3.80    5.90
 -17   1  -2   19.60    6.80
 -17  -1   2   -0.20    6.20
  17  -1  -2   12.80   12.20
 -17  -1   2   10.60   15.20
 -17   1  -2   -0.30    4.00
  17  -1  -2    4.50    6.60
 -17  -1   2   18.00    8.10
 -17   1  -2    8.40    5.40
  17   1   2    3.30    4.70
  17  -1  -2   -0.60   29.30
  17   1   2   14.50    9.10
 -17  -3  -2   17.30    7.10
  17   3  -2    1.60    9.70
  17  -3   2   12.40    9.30
  17   3  -2   10.00   28.20
 -17  -3  -2    6.10    7.70
  17  -3   2   -0.50   27.40
  17  -3   2    8.80   17.20
 -17   3   2  -12.40   20.60
 -17   3   2   10.90    6.00
 -17   3   2    6.60    8.90
  17   3   2   -5.30    8.60
 -17  -3   2   10.30    6.90
 -17  -3   2   16.10    8.20
  17  -3  -2    1.50    6.90
  17  -3  -2   21.70   16.20
 -17   3  -2   13.00    8.70
 -17   3  -2    2.90    6.00
  17   3   2    3.90   32.00
  17  -3  -2   12.00   22.50
 -17   3  -2   -0.40    4.70
 -17   3  -2    1.00   23.30
 -17  -5  -2    1.50    9.10
 -17   5   2    9.00   10.60
  17  -5   2   -7.70   22.40
  17  -5   2   27.00   21.80
 -17  -5  -2   -0.60    8.20
 -17   5   2    4.00    7.90
  17   5  -2   -4.70   31.80
  17   5  -2    8.10    9.10
  17   5   2    5.10    8.70
  17   5   2    2.60   37.40
  17  -5  -2   -4.30   13.80
 -17  -5   2  -12.70    9.00
 -17   5  -2   -7.20   10.50
  17  -5  -2   -8.90    7.40
 -17   5  -2    2.90    5.20
 -17  -5   2   -9.80    9.20
  17  -5  -2    3.80   22.00
 -17   5  -2  -10.70    7.10
 -17   7   2    4.60    9.00
 -17   7   2   -6.80   12.30
  17   7  -2   26.20   31.80
 -17  -7  -2   11.80    9.20
  17  -7   2    3.80   17.60
 -17   7  -2    6.80    5.20
 -17  -7   2   -6.00    9.10
  17  -7  -2   -6.90   25.20
  17  -7  -2   -3.10    8.10
  17   7   2  -14.80   41.30
 -17   7  -2    7.00    8.30
  17   0   3   10.90    9.50
 -17   0  -3    3.40    3.10
 -17   0   3   12.00    5.90
  17   0  -3   -8.40   28.40
 -17   0  -3  -13.70   22.30
 -17   0  -3    6.00    4.70
 -17   0   3    9.60    7.70
  17   0  -3    9.00    5.60
  17   0  -3    3.10    5.90
  17   0   3    7.50   34.70
 -17   0  -3   11.40    7.30
  17   0   3    2.20    4.90
 -17   0   3    5.80    2.10
  17   0  -3    5.10   11.00
 -17   0  -3    6.90    5.30
 -17   0   3    3.60   15.00
 -17   2   3    2.60    2.70
 -17   2   3    6.10    9.00
 -17   2   3    3.90    6.30
  17   2  -3    5.70   10.40
  17   2  -3    4.80   27.70
 -17  -2  -3    4.70    1.80
  17  -2   3  -12.50   27.00
 -17  -2  -3   -7.20    8.00
  17  -2   3    5.40   14.70
 -17  -2  -3    2.50    4.00
  17  -2   3   -5.00    7.30
 -17  -2  -3   -2.50    6.70
 -17   2   3    3.30   16.60
  17   2   3    5.80    4.50
  17  -2  -3   15.00   26.90
 -17  -2   3    5.90    7.70
 -17   2  -3    1.40    7.20
  17   2   3   -2.20    8.10
 -17   2  -3    7.30    5.50
 -17  -2   3    2.40    6.90
 -17   2  -3   14.40   24.00
  17  -2  -3  -10.30   15.40
 -17   2  -3    7.20    4.20
  17  -2  -3   -6.00    6.10
  17   2   3   23.40   33.60
 -17  -4  -3    6.70    9.60
 -17  -4  -3    0.30    8.40
  17   4  -3   18.60   10.00
  17  -4   3    4.20   10.50
 -17   4   3    2.70    9.80
  17  -4   3   27.50   26.30
  17   4  -3   29.10   30.50
  17  -4   3   14.10   19.90
 -17   4   3   -5.70   17.40
 -17   4   3   11.70    7.60
  17  -4  -3   14.60   19.90
 -17   4  -3   28.90    6.40
  17   4   3    9.80    8.80
 -17  -4   3   29.50    7.80
  17  -4  -3   10.20   16.30
 -17  -4   3    8.40    8.30
 -17   4  -3   14.00    9.30
 -17   4  -3   28.30    5.20
  17   4   3  -23.50   32.30
  17  -4  -3   13.20    7.60
  17  -6   3   22.20   22.40
 -17   6   3    6.70    7.80
 -17   6   3   -5.30   11.40
 -17  -6  -3   -0.10    9.10
  17   6  -3   19.10   30.70
  17   6  -3    5.30    9.70
 -17  -6   3    9.00   10.80
 -17  -6   3   15.90    9.70
  17   6   3   11.10   10.00
  17   6   3   -9.10   35.20
 -17   6  -3    3.00    5.60
  17  -6  -3   28.40    7.90
 -17   6  -3   -1.30    7.80
  17  -6  -3  -19.10   22.00
 -17   6  -3   -2.80   11.60
  17   8  -3   19.10   31.70
 -17  -8  -3   -5.20    9.20
 -17   8   3   -4.00    9.30
  17  -8  -3   -3.90    8.70
 -17   8  -3  -12.10    6.20
 -17  -8   3   -1.70    9.50
  17   8   3   26.30   40.00
 -17  -1  -4   15.40    8.00
  17  -1   4   27.60   12.70
 -17   1   4   16.80    2.60
  17  -1   4   16.70    6.30
 -17  -1  -4   19.30    2.80
 -17   1   4    9.90    8.90
 -17  -1  -4   20.20    4.70
  17   1  -4    1.10   10.80
 -17  -1  -4   30.70    6.70
  17   1  -4   28.10    5.30
  17   1  -4   10.70   26.70
 -17   1   4   22.80    7.10
 -17   1   4   15.60   13.60
  17  -1   4    9.40   29.80
 -17  -1   4   22.00    6.70
 -17   1  -4   13.10    5.30
 -17  -1   4   18.70    2.30
 -17   1  -4   19.00    3.60
 -17   1  -4   23.80    5.20
  17   1   4   16.90    5.00
 -17  -1   4   16.70    8.00
  17   1   4   26.80    9.10
 -17   1  -4   21.00    6.60
  17   1   4   31.60   35.00
  17  -1  -4   14.10    5.10
 -17  -1   4    8.20   11.10
  17  -1  -4   11.90   26.90
  17  -1  -4   17.70   13.60
 -17   3   4   51.49   14.30
 -17  -3  -4   63.09   10.50
  17   3  -4   59.29   11.20
  17  -3   4   42.50   17.40
  17  -3   4   49.10   10.40
  17  -3   4   83.19   28.60
 -17   3   4   37.40   10.20
 -17   3   4   61.79    8.80
  17   3  -4   65.69   29.90
 -17  -3  -4   94.29    9.80
 -17  -3   4   58.39   10.50
  17  -3  -4   69.29    7.90
  17   3   4   71.79   10.20
 -17   3  -4   59.89    9.50
 -17  -3   4   88.79    9.60
 -17   3  -4   82.49    8.40
  17  -3  -4   46.30   19.70
  17   3   4   62.39   36.00
 -17   3  -4   66.69    7.70
  17  -3  -4   58.59   18.60
 -17   5   4    3.50   10.70
  17   5  -4    3.30   26.00
 -17  -5  -4   24.90    8.50
  17  -5   4  -17.30   21.40
  17   5  -4    8.00    9.10
 -17   5   4    8.00    7.40
 -17  -5  -4   -7.90    8.40
  17  -5   4   -4.20   24.60
 -17   5  -4    3.90    6.50
  17  -5  -4   34.10   22.60
 -17   5  -4    8.50    5.30
 -17   5  -4   14.20   10.20
  17   5   4   12.30    9.30
 -17  -5   4   13.40    8.70
  17  -5  -4    6.50    7.50
 -17  -5   4    9.40    9.60
  17   5   4   -1.10   33.30
  17  -7   4    5.60   20.50
 -17   7   4    7.30   12.10
  17   7  -4   -0.30   29.10
 -17   7   4   10.60    9.20
 -17  -7  -4    5.10    9.20
  17  -7  -4  -12.60    8.00
 -17   7  -4    5.10    5.70
 -17  -7   4   -5.90    9.00
  17   7   4   -2.80   36.00
  17   0   5   10.00   32.90
  17   0   5   82.89   11.60
 -17   0  -5   86.29    8.50
 -17   0   5   79.69    6.60
 -17   0  -5   69.99    7.80
 -17   0   5   83.69    8.70
  17   0   5   70.99    9.20
 -17   0  -5   73.69    9.80
  17   0  -5   58.79   14.30
  17   0  -5   65.59   31.00
  17   0  -5   76.59    7.60
 -17   0   5   70.39   10.60
 -17   0  -5   74.19    7.30
 -17   0   5   70.29   12.70
 -17  -2  -5   -4.80    7.70
 -17  -2  -5    0.40    6.80
 -17  -2  -5    5.30    2.20
  17  -2   5   13.80   27.50
 -17   2   5   -1.80    6.50
  17   2  -5  -16.20   26.30
  17   2  -5   -8.60   10.80
 -17   2   5   -1.80    8.20
 -17   2   5   -0.20    9.20
 -17   2  -5    2.80    3.60
  17  -2  -5   10.70   16.30
 -17   2  -5    4.60    6.30
  17   2   5    5.30    4.70
  17   2   5    0.40    8.30
  17   2   5  -10.00   34.90
 -17  -2   5   -3.60    6.60
  17  -2  -5    8.90    5.00
  17  -2  -5    3.00   24.80
 -17  -2   5    4.10    7.70
 -17   4   5    4.00    7.00
  17   4  -5   16.50   25.60
 -17  -4  -5   12.80    8.50
  17  -4   5   -1.60   26.60
 -17   4   5   12.10   10.30
 -17  -4  -5    4.00    2.50
 -17  -4  -5   -0.50    8.30
  17   4  -5    3.80   10.80
  17   4   5    9.40    9.20
  17  -4  -5   -0.30   19.40
  17   4   5  -10.50   35.10
 -17   4  -5    2.50    4.40
 -17  -4   5    1.30    9.80
  17  -4  -5    9.50    6.10
 -17  -4   5   12.40    7.50
  17   6  -5   -2.10   26.70
  17   6  -5   -0.80   10.40
 -17   6   5   -1.10   10.20
 -17   6   5   -3.30    8.40
  17  -6   5   14.20   23.30
 -17  -6  -5    1.80    9.10
 -17  -6   5    1.10    9.40
  17  -6  -5   15.50   23.40
 -17   6  -5    7.90    5.20
 -17  -6   5  -10.30   10.00
  17  -6  -5   12.00    8.20
  17   6   5    2.30   36.20
  17   6   5   -8.10   20.20
  17   6   5   14.10   10.20
 -17   8   5    4.20    9.00
  17   8  -5    9.40   29.50
  17  -8   5   -8.10   22.20
 -17  -8  -5    1.30    9.40
  17  -8  -5   -4.40    8.50
  17   8   5    4.40   37.90
 -17   8  -5   -4.20    5.40
 -17  -8   5    8.00    8.70
  17  -1   6  125.59   33.00
  17   1  -6  143.29   31.40
 -17   1   6  149.79   12.10
 -17  -1  -6  140.29   16.60
 -17  -1  -6  154.68   14.90
 -17   1   6  129.29   18.70
  17   1  -6  143.19   13.20
  17   1  -6  158.18   22.50
 -17   1   6  141.69   15.60
 -17  -1  -6  173.08   12.20
  17   1   6  136.09   13.30
 -17   1  -6  156.68   12.60
  17  -1  -6  147.29   13.60
 -17  -1   6  167.08   14.90
  17  -1  -6  105.59   18.70
  17  -1  -6  135.39   29.80
  17   1   6  160.38   17.70
  17   1   6   77.29   37.10
 -17  -1   6  136.99   16.90
 -17  -1   6  153.88   11.90
  17   3  -6   42.60   25.40
 -17   3   6   21.10    9.70
  17  -3   6   37.70   27.90
 -17  -3  -6   39.30    9.30
 -17  -3  -6   51.59    8.30
 -17  -3  -6   37.70    4.60
 -17   3   6   34.20    7.80
  17   3  -6   46.20   11.90
  17   3   6   38.40    4.90
  17  -3  -6   42.40    6.40
 -17  -3   6   27.10    8.00
 -17   3  -6   37.90    5.00
  17   3   6   23.90   37.30
  17   3   6   40.10    9.40
 -17  -3   6   36.70   10.10
  17  -3  -6   24.20   18.70
 -17  -5  -6   36.50    5.10
 -17   5   6   59.19    9.30
  17  -5   6   20.30   24.90
  17   5  -6   55.79   11.50
 -17  -5  -6   53.89    9.70
  17   5  -6   38.30   28.30
 -17   5   6   24.70   10.50
 -17  -5   6   63.59    9.00
  17   5   6   63.99   10.90
  17  -5  -6   55.39   24.40
 -17   5  -6   58.69    5.80
  17   5   6   17.90   38.40
  17  -5  -6   38.40    7.60
 -17  -5   6   31.80   10.10
  17   7  -6   11.00   28.60
  17  -7   6   15.20   21.10
 -17   7   6   46.90    9.80
 -17  -7  -6   17.90    8.70
 -17  -7   6   14.40   10.30
  17  -7  -6   29.90    8.80
  17   7   6   11.30   39.50
 -17   7  -6   32.90    5.20
  17   0   7   10.50    4.90
  17   0  -7   17.20   10.40
 -17   0  -7   17.60    3.20
 -17   0   7   19.30    8.90
  17   0   7  -11.10   31.20
  17   0  -7   27.10    4.20
 -17   0   7   23.80    7.10
 -17   0  -7   23.50    7.20
 -17   0   7   18.70    2.40
  17   0  -7    4.00   26.60
  17   0  -7    6.50   14.20
  17   0   7   12.20    9.40
 -17  -2  -7   13.60    2.70
 -17   2   7    8.90    9.20
  17  -2   7   27.60   29.60
 -17  -2  -7   18.80    7.20
  17   2  -7   12.10    3.70
  17   2  -7    3.50   11.20
 -17   2   7   12.30    7.10
  17   2  -7   18.40   25.00
  17   2   7   11.80    4.80
  17   2   7   11.40    8.00
 -17   2  -7   15.10    3.70
  17   2   7   26.60   37.40
 -17  -2   7   14.50    2.20
  17   2   7   10.40    3.90
  17  -2  -7    7.20    9.90
 -17  -2   7   15.60    7.40
  17  -2  -7   13.40    4.90
  17  -2  -7   10.60   21.10
 -17  -2   7   12.20    9.10
  17  -2  -7    4.00   17.00
  17   4  -7    2.50   25.10
 -17  -4  -7   13.90    8.70
  17  -4   7    6.10   26.60
  17   4  -7   -8.50   10.00
 -17   4   7    5.80    7.00
 -17   4   7  -11.10    8.90
 -17  -4  -7    0.80    2.80
  17  -4  -7    4.80    5.70
  17  -4  -7  -10.20   19.00
 -17  -4   7    5.00    8.40
  17   4   7    4.50    9.00
 -17   4  -7    6.10    4.00
  17   4   7   10.40   22.90
 -17  -4   7    0.90    9.20
  17   4   7   29.70   37.60
  17   6  -7    8.00   27.00
 -17   6   7   11.30    8.20
 -17   6   7    0.50   10.60
 -17  -6  -7    9.10    9.10
  17  -6   7   25.90   23.60
  17   6   7    1.60   24.10
  17   6   7   21.20   40.20
 -17   6  -7   19.70    4.40
  17   6   7    1.30    9.80
  17  -6  -7   18.90    7.10
 -17  -6   7    7.40   10.10
 -17  -6   7    9.10    9.10
 -17  -8   7    1.10    9.30
 -17   1   8   24.10    8.20
  17   1  -8   31.30   25.30
 -17  -1  -8   39.10    4.00
  17   1  -8   19.20   14.50
  17  -1   8   13.10   29.00
  17   1  -8   43.00    4.80
 -17   1   8   49.50   10.70
 -17  -1  -8   39.50    7.60
 -17   1  -8   31.10    4.20
  17   1   8   21.30   34.40
  17  -1  -8   38.50    5.10
  17  -1  -8   28.60   15.10
 -17  -1   8   40.70    7.90
 -17  -1   8   34.00    4.10
 -17  -1   8   47.10    9.30
  17  -1  -8   28.60   11.90
  17   1   8   32.70    6.20
  17   1   8   43.60    8.90
  17  -1  -8   43.50   28.00
 -17  -3  -8    1.00    8.00
 -17  -3  -8   -1.30    2.70
  17   3  -8    5.20   11.30
 -17   3   8   -1.20    6.70
  17   3  -8   -2.40   24.80
 -17   3   8   -5.40    9.20
  17  -3   8   -2.20   26.90
 -17  -3   8   -5.50    9.00
 -17   3  -8   -1.80    3.30
 -17  -3   8    8.90    7.80
  17   3   8   -2.70   37.40
  17   3   8   -3.90    8.90
  17  -3  -8   -7.60   17.70
  17   3   8   -8.70   24.80
  17  -3  -8    2.20    5.30
  17   5  -8    2.30   11.50
 -17   5   8    5.10    7.40
 -17  -5  -8   -2.00    3.40
  17   5  -8   10.80   26.00
 -17   5   8   -7.60   10.10
  17  -5   8    5.50   24.90
 -17  -5  -8    3.50    8.40
  17   5   8   -0.60    8.90
  17  -5  -8   -9.80    6.10
  17   5   8  -14.90   25.30
 -17  -5   8   -2.40    9.40
 -17  -5   8   -0.40    7.90
  17   5   8    9.30   37.00
 -17   5  -8    4.70    3.90
  17  -5  -8   15.50   21.40
  17   7  -8   14.20   27.70
 -17   7   8    3.20    7.70
  17  -7   8   -1.80   21.30
 -17  -7   8    8.90    8.90
 -17   7  -8    1.00    3.90
  17  -7  -8   10.90    7.70
  17   7   8   -0.90   38.30
  17   0  -9   29.20   26.00
  17   0  -9   29.70   15.50
 -17   0   9   27.90    9.00
 -17   0  -9   42.10    4.10
 -17   0   9   38.50    7.50
  17   0  -9   36.60    5.00
  17   0   9   25.10   33.60
  17   2  -9    0.60   13.50
  17  -2   9   -9.70   29.00
  17   2  -9   -0.50    3.60
 -17   2   9   12.60    9.70
 -17  -2  -9   -0.40    2.50
  17   2  -9   -6.00   24.30
 -17  -2  -9    5.40    7.50
 -17   2   9    1.40    7.10
 -17   2  -9    2.80    2.90
  17   2   9   40.20   26.40
  17   2   9   -6.40    7.60
 -17  -2   9    0.10    7.20
  17   2   9  -12.90   33.80
 -17  -2   9   -4.90    9.30
  17  -2  -9    1.80    4.30
  17  -2  -9   -1.50   16.70
 -17  -4  -9    0.90    3.20
 -17  -4  -9    4.40    8.80
  17   4  -9    3.50   10.70
  17   4  -9   16.10   25.20
 -17   4   9   -3.60   10.50
 -17   4   9    0.20    8.00
  17  -4   9   12.30   25.80
 -17  -4   9   -5.00   10.60
  17   4   9    1.50    9.50
 -17  -4   9    4.00    8.50
  17   4   9   18.30   37.40
  17  -4  -9    8.10   19.60
  17   4   9   -3.30   27.50
 -17   4  -9    3.70    3.40
  17  -4  -9    0.40    5.70
  17  -6   9  -11.20   22.80
  17   6  -9   -1.70   27.00
 -17   6   9    1.90    8.60
  17  -6  -9   -9.50    6.40
 -17   6  -9    0.50    4.10
  17   6   9   -9.00   39.70
 -17  -6   9    6.70    8.50
  17   1 -10    9.60   15.00
 -17   1  10    2.00    7.70
  17  -1  10   35.00   30.90
 -17  -1 -10    1.20    2.60
  17   1 -10    3.20   24.50
 -17   1  10   -4.80    9.30
  17   1 -10    4.20    3.70
 -17   1 -10    3.90    2.90
 -17  -1  10   -8.60    7.10
  17   1  10   -2.60   34.10
  17  -1 -10   -5.10   24.30
  17  -1 -10   -4.40   17.30
  17  -1 -10   -1.90    4.20
 -17  -1  10   -4.80    8.10
  17   3 -10   -0.40    3.40
  17   3 -10   10.70   12.50
  17   3 -10   -9.20   23.30
 -17   3  10    0.80    7.10
  17  -3  10  -12.70   28.30
 -17  -3 -10   -1.30    2.80
 -17   3  10    5.70    8.80
 -17  -3  10   -7.60    8.40
 -17  -3  10   -0.30    7.90
  17   3  10    9.30   26.80
  17   3  10    4.00    9.30
  17   3  10   -8.40   34.50
  17  -3 -10    1.60   19.00
 -17   3 -10   -7.40    3.00
  17  -3 -10    2.80    4.60
 -17   5  10    1.50    7.30
 -17  -5 -10   -3.00    3.70
  17   5 -10    9.00   24.50
  17  -5  10   -3.10   23.90
 -17  -5  10    3.20    8.20
  17  -5 -10   -0.60    5.80
 -17   5 -10   -5.10    3.50
  17   5  10   11.20   36.00
  17   5  10    0.80    9.40
 -17  -5  10   -6.00   10.20
  17   5  10   22.80   26.90
 -17   7  10   -5.10    7.80
  17   7 -10   13.10   27.40
  17  -7  10   -5.90   21.20
 -17   7 -10   -5.30    3.60
 -17  -7  10    4.30    8.90
  17  -7 -10   -2.40    6.60
  17   7  10   10.90   38.50
  17   7  10    8.10   17.60
  17   0 -11    4.50    3.80
  17   0  11   12.80   32.50
 -17   0 -11    1.20    3.00
 -17   0  11    9.30    6.40
  17   0 -11   14.50   25.10
 -17   0  11    7.50    8.60
  17   0 -11  -10.10   15.20
 -17  -2 -11   13.90    3.10
  17  -2  11   21.40   26.10
  17   2 -11    3.50   14.70
 -17   2  11    8.00    8.90
  17   2 -11   20.60    3.90
  17   2 -11   24.10   24.50
 -17   2  11    9.90    7.00
 -17  -2  11   10.60    7.40
  17   2  11   15.90   36.30
 -17   2 -11   15.90    3.40
  17  -2 -11   24.20   19.00
  17  -2 -11   20.90    4.80
 -17  -2  11    6.60    9.80
 -17  -4 -11    8.50    3.40
 -17   4  11  -14.60    7.90
  17   4 -11    6.80   12.40
  17   4 -11    2.00   23.50
  17  -4  11   11.20   25.00
  17   4  11    4.90   35.60
 -17   4 -11   -3.60    3.20
  17  -4 -11    0.20    4.60
 -17  -4  11    1.30   10.00
 -17  -4  11   -5.00    8.40
  17  -6  11   10.70   22.50
  17   6 -11   -2.80   24.70
 -17   6  11   -1.80    7.50
 -17   6 -11    3.40    3.30
  17  -6 -11    1.00    6.20
 -17  -6  11   11.20    8.70
  17   6  11   -2.20   37.50
  17   6  11  -21.90   17.30
  17   1 -12    2.30   15.70
  17   1 -12    0.00    3.80
 -17   1  12   16.50    9.50
  17   1 -12   -0.50   25.80
 -17  -1 -12   -1.10    2.60
  17  -1  12  -15.30   28.90
 -17   1  12    2.50    7.30
  17   1  12  -23.70   31.80
  17  -1 -12    9.60   17.00
  17  -1 -12   -6.60    4.20
 -17  -1  12    0.00    6.80
 -17  -1  12    0.90    8.10
 -17   1 -12    1.10    3.00
  17   3 -12    3.00   14.10
 -17   3  12   -4.90    6.60
  17  -3  12   -6.60   28.00
 -17   3  12   -3.00   12.60
 -17  -3 -12    1.60    3.10
  17   3 -12   14.20   21.90
 -17  -3  12    9.80    7.40
  17   3  12   38.10   16.50
 -17   3 -12    0.70    2.90
 -17  -3  12    2.60    9.00
  17  -3 -12    6.40    4.80
  17   3  12   -9.90   36.80
 -17   5  12   -2.80    8.30
  17   5 -12   -2.40   23.80
 -17  -5 -12   -4.50    4.30
  17  -5  12   -8.10   22.80
  17  -5 -12   -4.80    5.70
 -17  -5  12   -0.40    8.30
 -17   5 -12    5.90    3.20
  17   5  12   44.40   17.60
  17   5  12   24.20   37.00
 -17   0  13    0.20    7.20
 -17   0  13   -1.50    9.30
  17   0 -13  -12.30   17.10
 -17   0 -13    2.10    2.90
  17   0  13    5.30   31.00
  17   0 -13   -3.50    4.00
  17   0 -13  -10.40   24.40
  17   2 -13    1.80   23.50
  17  -2  13  -10.50   24.10
 -17   2  13  -10.40    6.80
 -17   2  13    3.20   15.90
  17   2 -13   -0.80    3.90
  17   2 -13   13.80   16.90
 -17  -2 -13    0.60    3.20
  17  -2 -13    0.50    4.70
 -17  -2  13  -16.10    9.40
  17   2  13    8.30   33.40
 -17   2 -13    1.50    2.80
 -17  -2  13   -2.80    7.00
 -17  -4 -13   10.70    3.70
  17  -4  13    4.80   23.80
 -17   4  13    5.10    7.50
  17   4 -13   -7.80   22.30
  17  -4 -13    6.80    5.20
  17   4  13   20.70   36.40
 -17  -4  13    3.30    8.70
 -17   4 -13    9.40    3.10
  17  -1  14  -13.90   29.60
 -17   1  14   -7.80    7.00
  17   1 -14    9.40   27.40
 -17  -1 -14    4.40    2.90
  17   1 -14    0.70    4.00
  17  -1 -14   -1.80    4.10
 -17  -1  14  -16.60    9.20
 -17  -1  14   -8.80    7.20
  17   1  14    2.60   34.10
 -17   1 -14   -0.60    2.90
 -17   3  14    8.00    7.80
  17   3 -14    3.50   23.30
 -17  -3 -14    4.50    3.30
  17  -3  14  -21.80   25.90
 -17   3 -14    2.30    2.80
  17   3  14   12.90   34.10
  17  -3 -14    0.50    5.00
 -17  -3  14    8.20    7.50
 -17   0  15    4.50    7.00
  17   0 -15    8.80    4.20
 -17   0 -15    3.10    3.00
  17   0  15   16.00   29.10
  17   2 -15   13.10   25.20
 -17   2  15    4.00    7.70
 -17  -2 -15    2.20    3.30
  17  -2  15   12.30   27.90
 -17   2 -15    3.40    3.00
  17  -2 -15    1.20    4.90
  17   2  15   16.80   34.30
 -17  -2  15    1.20    7.20
 -17  -1 -16   34.80    4.30
  17  -1  16    6.00   28.40
  17   1 -16   36.20    5.10
 -17   1  16   17.90    7.40
 -17  -1  16   42.20    8.30
  17  -1 -16   41.30    5.30
 -17   1 -16   28.80    3.90
  17   1  16   28.00   32.00
 -18   0   0 2732.53  209.28
 -18   0   0 2800.02  209.48
  18   0   0 2995.20  210.68
 -18   0   0 2768.32  209.38
 -18   0   0 2440.06  214.18
 -18   0   0 2933.41  210.08
  18   0   0 2309.77  217.18
  18   0   0 2523.05  209.58
 -18   2   0   17.60    6.80
 -18   2   0    9.40    3.40
  18  -2   0    0.30    7.60
 -18  -2   0   -0.20    8.80
  18   2   0   20.30   33.10
  18   2   0    7.80    9.90
  18  -2   0   14.00   28.00
 -18  -2   0    8.80    6.90
 -18   2   0    0.30   23.00
 -18   2   0   13.90    8.90
  18  -2   0   15.30   15.70
  18   4   0 1151.68  126.19
 -18   4   0 1395.06  110.89
 -18  -4   0 1430.96  111.19
  18   4   0 1488.05  111.89
  18  -4   0 1576.04  116.19
 -18   4   0 1478.85  112.09
  18  -4   0 1378.46  111.29
  18  -6   0   49.40   25.20
  18   6   0   17.90   36.40
 -18   6   0   22.80   12.00
  18   6   0   38.20   10.00
  18  -6   0   18.70   17.70
 -18  -6   0   42.20    9.50
 -18  -6   0   24.20   10.20
 -18   6   0   37.20    8.60
 -18  -8   0  146.49   19.90
 -18   8   0  207.88   19.40
  18   8   0  121.59   46.60
 -18   1   1  402.66   32.20
  18   1  -1  372.16   34.60
 -18   1   1  367.56   45.50
  18   1  -1  351.16   57.49
 -18   1   1  402.16   31.30
 -18  -1  -1  426.96   32.20
  18  -1   1  448.66   37.50
  18   1  -1  368.96   32.60
  18  -1   1  386.26   32.70
 -18  -1  -1  402.56   31.30
 -18  -1  -1  391.96   33.70
 -18  -1  -1  402.56   31.20
 -18   1   1  405.56   33.90
  18  -1   1  302.67   57.59
 -18   1  -1  419.76   31.70
 -18   1  -1  395.76   33.40
  18  -1  -1  415.96   32.80
  18   1   1  341.27   59.49
 -18   1  -1  343.67   47.30
  18  -1  -1  411.76   38.20
 -18   1  -1  434.86   32.10
 -18  -1   1  444.56   32.30
 -18  -1   1  384.66   33.70
 -18  -1   1  417.56   31.30
  18  -1  -1  424.66   57.19
  18   1   1  366.16   31.80
 -18  -1   1  383.36   41.40
 -18  -1   1  405.86   31.10
  18   1   1  389.06   34.60
 -18   1  -1  381.16   31.50
  18  -1  -1  345.77   32.80
  18  -3   1  260.07   48.50
  18   3  -1  323.57   29.00
 -18   3   1  234.38   44.00
  18   3  -1  357.76   59.49
  18  -3   1  314.67   28.80
 -18   3   1  343.27   29.30
  18  -3   1  347.77   38.00
 -18   3   1  316.37   26.60
 -18  -3  -1  336.97   27.30
 -18  -3  -1  350.86   29.00
  18  -3  -1  356.76   37.60
 -18  -3   1  327.77   26.90
  18   3   1  314.97   28.60
  18   3   1  272.47   45.50
  18  -3  -1  257.97   44.90
  18  -3  -1  325.17   27.50
 -18  -3   1  306.27   28.80
 -18   3  -1  255.47   47.00
 -18   3  -1  345.97   29.00
 -18   3  -1  320.97   26.50
 -18   5   1   57.79    8.90
 -18  -5  -1   53.99   10.50
  18  -5   1   70.79   23.60
  18  -5   1   26.80   22.40
 -18  -5  -1   66.99   11.80
 -18   5   1   46.40   11.90
  18   5  -1   69.59   11.70
  18   5  -1   50.69   34.70
  18  -5  -1   76.99   24.70
  18  -5  -1   67.59    9.50
 -18  -5   1   54.89    9.90
 -18   5  -1   79.49   12.20
  18   5   1   31.10   38.20
 -18  -5   1   43.10   10.90
 -18   5  -1   51.59    8.70
  18   5   1   71.69   10.20
  18  -5  -1   18.60   18.90
  18   7  -1    2.40   36.40
 -18   7   1   -5.70   12.20
 -18  -7  -1    5.60    8.90
 -18   7   1   14.90    8.50
  18   7   1   51.39   42.80
  18  -7  -1   18.20    9.00
 -18  -7   1   10.40    8.40
 -18   7  -1   15.40    8.80
 -18   7  -1   23.00    6.20
  18  -7  -1   26.60   26.60
  18   0   2  739.13   60.19
  18   0  -2  676.13   61.09
  18   0  -2  810.52   62.89
 -18   0  -2  774.02   59.69
 -18   0  -2  834.92   60.09
 -18   0   2  806.62   59.69
 -18   0  -2  731.73   59.89
 -18   0  -2  817.42   60.99
 -18   0   2  793.62   60.29
 -18   0   2  726.63   66.69
 -18   0   2  809.22   61.29
  18   0   2  608.54   79.09
  18   0  -2  782.22   60.39
  18   0  -2  683.23   76.29
 -18   2   2  108.59   15.60
  18  -2   2   76.59   10.90
 -18   2   2   83.79   22.50
  18  -2   2  130.49   18.30
 -18   2   2  102.89   12.00
  18   2  -2   76.09   35.10
  18   2  -2  101.59   12.80
 -18   2   2   89.49    8.60
 -18  -2  -2   87.29   10.00
 -18  -2  -2   86.79    9.00
  18  -2   2   45.90   30.00
 -18  -2  -2   87.29    7.80
 -18  -2  -2   87.99   11.60
 -18  -2   2   97.19   12.00
 -18   2  -2   58.49   27.20
  18   2   2   80.29   34.20
 -18   2  -2  112.29   11.00
  18  -2  -2  109.99   18.70
  18  -2  -2   97.19   10.30
 -18   2  -2  119.99   14.40
  18  -2  -2   47.80   29.10
 -18  -2   2  105.59   12.10
 -18   2  -2  108.99   10.30
 -18  -4  -2  648.54   51.39
 -18   4   2  639.04   51.79
  18  -4   2  706.43   58.59
  18  -4   2  561.24   51.39
  18   4  -2  510.25   71.09
 -18   4   2  621.64   49.99
 -18  -4  -2  647.94   50.19
  18   4  -2  627.14   51.49
 -18   4  -2  598.84   49.50
 -18   4  -2  671.23   51.79
 -18  -4   2  646.54   51.39
 -18   4  -2  587.84   49.70
  18   4   2  504.95   73.79
  18   4   2  667.83   50.99
  18  -4  -2  691.33   59.89
 -18  -4   2  619.94   50.29
  18  -4  -2  625.54   50.29
 -18  -6  -2   27.40    9.20
  18  -6   2   33.60   23.00
 -18   6   2   41.80    8.80
 -18  -6  -2   30.10    9.90
 -18   6   2   28.60   12.50
  18  -6   2   52.19   27.00
  18   6  -2   34.70   33.00
  18   6  -2   60.29   10.10
 -18   6  -2   37.50    8.80
 -18   6  -2   45.70   12.50
  18  -6  -2   67.69   23.80
 -18  -6   2   36.50   10.30
  18   6   2   53.99   11.30
 -18   6  -2   58.99    7.50
 -18  -6   2   34.40    9.50
  18   6   2   -0.40   38.70
  18  -6  -2   56.09    9.00
 -18   8   2   40.20    9.50
  18   8  -2   15.80   34.50
 -18  -8  -2   38.30   10.40
  18   8   2    1.80   42.80
  18  -8  -2   39.80    8.90
 -18   8  -2   41.90    7.00
 -18  -8   2   34.00   10.00
 -18   1   3 1454.65  110.19
 -18   1   3 1369.96  114.69
  18  -1   3 1620.84  112.79
  18  -1   3 1236.18  121.79
 -18   1   3 1432.96  111.49
 -18  -1  -3 1369.36  111.39
 -18  -1  -3 1361.56  110.59
  18   1  -3 1229.48  124.29
 -18  -1  -3 1390.76  110.19
  18   1  -3 1514.05  110.59
  18   1  -3 1443.26  111.99
  18  -1   3 1377.46  110.69
 -18   1   3 1452.25  110.69
 -18  -1  -3 1296.87  110.39
 -18  -1   3 1549.84  110.69
  18   1   3 1282.47  124.79
  18   1   3 1501.65  111.59
  18  -1  -3 1525.85  113.29
  18  -1  -3 1343.87  121.59
 -18   1  -3 1481.95  110.29
 -18   1  -3 1529.15  110.49
 -18   1  -3 1466.35  111.09
  18  -1  -3 1386.36  110.69
 -18  -1   3 1472.75  111.39
  18   1   3 1293.17  110.39
 -18   1  -3 1338.97  110.39
  18   3  -3  388.16   63.19
  18  -3   3  393.36   59.19
 -18   3   3  418.66   50.89
 -18   3   3  546.55   42.50
 -18   3   3  525.65   40.70
 -18  -3  -3  509.95   42.50
  18  -3   3  588.44   49.20
 -18  -3  -3  531.95   41.10
  18  -3   3  468.95   42.10
  18   3  -3  529.65   43.10
 -18  -3   3  505.35   42.40
 -18   3  -3  490.05   40.40
 -18   3  -3  513.65   40.20
  18   3   3  552.24   42.30
  18   3   3  408.46   65.09
  18  -3  -3  470.45   41.20
  18  -3  -3  574.74   49.30
 -18  -3   3  527.05   41.10
 -18   3  -3  543.35   41.80
  18   5  -3  238.48   25.40
 -18  -5  -3  240.08   25.10
  18  -5   3  286.77   40.50
 -18  -5  -3  247.58   24.10
 -18   5   3  272.07   26.80
 -18   5   3  242.88   23.20
 -18   5  -3  290.47   26.30
 -18   5  -3  221.18   22.20
 -18  -5   3  232.98   24.50
 -18   5  -3  251.97   21.50
  18  -5  -3  249.58   32.60
  18  -5  -3  251.37   23.60
 -18  -5   3  272.27   23.60
  18   5   3  294.37   24.90
 -18   7   3  147.69   15.60
 -18   7   3  162.88   22.20
  18   7  -3  113.09   37.00
 -18  -7  -3   74.19   12.50
  18   7   3   95.29   39.80
  18  -7  -3  106.99   31.40
  18  -7  -3   93.39   11.60
 -18   7  -3  111.59   11.90
 -18  -7   3   79.69   12.90
 -18   7  -3   94.79   13.40
  18   0   4    9.80   34.70
  18   0  -4   48.40    6.60
 -18   0   4   51.59    9.30
  18   0   4   39.40    6.30
 -18   0  -4   41.40    4.50
 -18   0   4   35.70   12.90
 -18   0   4   35.40    4.50
 -18   0  -4   63.69    9.00
 -18   0  -4   47.20    6.90
 -18   0  -4   29.10    5.80
  18   0  -4   66.09   12.60
 -18   0   4   30.90    7.60
  18   0  -4   32.70   30.90
 -18  -2  -4 1508.15  117.29
  18  -2   4 1401.96  118.09
 -18  -2  -4 1567.24  117.89
 -18  -2  -4 1626.64  118.69
  18  -2   4 1236.38  126.59
 -18   2   4 1562.24  117.89
  18   2  -4 1340.87  128.89
  18   2  -4 1503.05  118.99
 -18   2   4 1385.26  121.09
  18  -2   4 1712.33  120.79
  18   2   4 1253.97  132.19
  18   2   4 1700.43  118.69
 -18   2  -4 1524.25  117.49
 -18  -2   4 1615.34  118.59
 -18   2  -4 1678.13  118.19
  18  -2  -4 1641.94  121.29
  18  -2  -4 1250.67  125.99
 -18  -2   4 1664.93  117.89
  18  -2  -4 1538.85  117.79
 -18   2  -4 1515.65  117.59
  18   2   4 1328.17  117.49
 -18  -4  -4   20.00    9.30
 -18   4   4    9.40    9.90
  18   4  -4    4.10   28.00
 -18   4   4   17.70    7.90
  18   4  -4   21.90   10.10
  18  -4   4   19.80   19.40
 -18  -4  -4   31.10    9.00
  18  -4   4   13.20   27.50
 -18   4  -4   21.50    7.00
 -18  -4   4   13.60    8.50
  18  -4  -4   25.20    7.70
  18  -4  -4   12.40   21.10
  18   4   4   42.10   34.60
 -18  -4   4    9.80    7.80
 -18   4  -4   23.70    4.80
  18   4   4   22.30    9.70
 -18   6   4  506.35   38.70
 -18   6   4  479.75   41.80
 -18  -6  -4  469.45   39.40
  18   6  -4  359.86   61.79
  18   6  -4  460.55   40.40
 -18   6  -4  447.36   37.30
 -18   6  -4  456.05   38.30
  18  -6  -4  573.44   52.39
 -18  -6   4  424.56   38.90
 -18  -6   4  499.55   40.60
  18  -6  -4  484.45   38.90
 -18   8   4    2.10    8.70
 -18  -8  -4   -6.90    8.80
  18   8  -4  -10.80   35.20
 -18  -8   4    1.90    9.70
  18  -8  -4   -1.40    9.20
 -18   8  -4   -5.40    5.40
  18   8   4  -14.00   37.70
 -18   1   5   21.60    7.20
  18  -1   5   26.90   31.40
 -18  -1  -5   26.20    3.10
  18  -1   5   31.10   13.30
 -18   1   5   16.80    2.60
  18   1  -5   29.10    5.10
  18   1  -5    5.70   11.10
 -18   1   5   12.50    8.50
 -18  -1  -5   14.80    6.50
  18  -1   5   20.40    6.70
 -18   1   5   15.40   10.50
  18   1  -5   18.20   28.80
 -18  -1  -5   19.20    8.30
 -18  -1  -5    9.30    5.20
 -18   1  -5   21.70    7.50
 -18  -1   5   14.10   10.90
 -18   1  -5   25.00    3.80
 -18  -1   5   13.90    6.50
  18   1   5   15.20    9.80
  18  -1  -5   15.20   14.30
  18  -1  -5   17.20   26.20
  18   1   5    9.00   37.50
  18  -1  -5   20.30    5.40
 -18   1  -5   20.80    5.80
 -18  -1   5   21.40    8.20
  18   1   5   14.50    5.30
 -18  -1   5   20.20    2.40
 -18  -3  -5   41.30    8.70
 -18   3   5   29.90    9.20
  18  -3   5   24.60   29.70
  18   3  -5   41.50   11.90
 -18   3   5   28.70    7.40
  18   3  -5   36.10   27.70
 -18  -3  -5   23.70    9.10
 -18  -3  -5   31.60    3.40
 -18  -3   5   28.20    9.50
  18  -3  -5   32.00    6.50
 -18   3  -5   42.30    5.20
 -18  -3   5   22.20    7.80
  18   3   5   35.80    9.10
  18  -3  -5   56.69   19.50
  18   3   5   39.60   36.80
 -18  -5  -5   33.50    9.90
  18   5  -5   22.20   11.20
  18   5  -5   18.80   27.40
 -18   5   5   21.00    8.30
 -18   5   5   17.10   10.00
  18  -5   5   22.20   25.70
  18   5   5    2.00   36.40
  18   5   5   31.30   10.30
 -18  -5   5   19.80    8.40
  18  -5  -5   34.40    8.00
  18  -5  -5   35.20   22.70
 -18  -5   5   11.30    9.30
 -18   5  -5   28.40    5.00
  18  -7   5  -14.90   20.80
 -18   7   5   20.70    8.30
  18   7  -5    2.70   28.50
 -18  -7  -5    2.70    9.30
 -18   7  -5   -3.40    5.30
  18   7   5   10.70   38.90
 -18  -7   5    4.70    9.30
  18  -7  -5    4.50    8.60
 -18   0   6    3.10    2.00
 -18   0  -6    9.90    7.80
  18   0   6  -10.70   31.80
 -18   0  -6    2.30    5.80
 -18   0  -6    3.50    2.80
  18   0  -6    5.10    4.60
 -18   0   6   -4.10    6.80
  18   0   6   -3.40    5.10
  18   0  -6    9.80   29.50
  18   0   6  -15.50    9.60
 -18   0   6   -8.00    8.20
  18   0  -6  -16.50   14.10
 -18   2   6 1513.65  115.39
 -18  -2  -6 1477.25  116.19
 -18  -2  -6 1409.16  114.69
  18   2  -6 1509.95  116.89
  18   2  -6 1317.47  125.49
 -18  -2  -6 1483.75  115.39
 -18  -2   6 1568.64  116.19
  18   2   6 1290.67  114.99
  18   2   6 1634.84  116.19
 -18  -2   6 1489.55  115.39
 -18   2  -6 1432.06  114.89
  18  -2  -6 1603.94  119.29
  18  -2  -6 1459.15  115.09
 -18  -4  -6   20.80    8.20
 -18  -4  -6   12.60    2.90
  18  -4   6    4.10   27.50
  18   4  -6    6.50    9.70
  18   4  -6   18.20   26.30
 -18   4   6   13.20    9.50
 -18   4   6    4.50    7.80
  18   4   6  -18.00   37.10
 -18  -4   6   12.90    8.00
  18   4   6   17.00    9.40
 -18   4  -6   14.70    4.50
  18  -4  -6    4.80   21.60
  18  -4  -6    8.50    6.10
 -18  -4   6   -8.40    9.10
 -18  -6  -6  382.66   32.40
 -18   6   6  439.36   32.10
  18   6  -6  302.37   53.99
 -18  -6   6  328.87   32.20
  18  -6  -6  423.06   32.10
 -18   6  -6  348.67   30.10
 -18   8   6    1.20    8.30
 -18  -8  -6    4.10    9.90
 -18  -8   6    4.90    9.80
 -18  -1  -7  669.73   51.79
 -18   1   7  633.14   52.59
 -18   1   7  640.94   51.09
 -18  -1  -7  640.14   49.80
  18   1  -7  649.34   50.09
  18   1  -7  658.53   54.59
  18   1  -7  568.74   67.59
 -18  -1  -7  688.73   50.89
  18   1   7  690.43   52.19
  18  -1  -7  552.94   65.89
 -18  -1   7  594.04   49.70
 -18  -1   7  673.13   50.79
  18  -1  -7  669.83   50.29
 -18   1  -7  629.84   49.90
  18  -1  -7  575.34   56.39
  18   1   7  580.74   50.29
 -18  -1   7  672.23   51.79
  18   3  -7  190.68   24.70
  18   3  -7  180.68   35.30
 -18   3   7  241.48   20.80
 -18  -3  -7  241.38   21.80
 -18   3   7  244.48   23.50
 -18  -3  -7  246.88   18.40
  18  -3  -7  217.78   20.20
 -18  -3   7  244.18   23.30
  18  -3  -7  263.37   35.70
  18   3   7  240.88   23.20
 -18   3  -7  237.48   18.90
 -18  -3   7  217.98   21.10
  18   3   7  159.98   44.10
 -18   5   7   82.49   10.20
 -18   5   7   54.19   12.00
  18  -5   7   32.90   26.60
 -18  -5  -7   53.89   10.30
  18   5  -7   58.79   12.70
  18   5  -7   39.50   27.70
  18   5   7  103.39   12.10
 -18   5  -7   67.29    8.40
  18   5   7   66.19   25.60
 -18  -5   7   84.49   11.10
 -18  -5   7   83.99   12.50
  18  -5  -7   75.39    8.70
  18  -5  -7   79.59   22.70
  18   5   7   56.29   41.10
 -18  -7  -7   24.20   10.50
  18   7  -7   62.39   31.10
  18  -7   7   14.30   22.70
 -18   7   7   47.90    9.10
  18   7   7   -2.80   41.50
  18  -7  -7   37.50    9.00
 -18   7  -7   38.60    5.40
 -18  -7   7   25.50    9.70
 -18   0   8  266.97   23.20
  18   0  -8  284.57   31.80
 -18   0  -8  278.47   21.40
 -18   0   8  328.87   25.60
  18   0  -8  280.67   22.00
  18   0  -8  268.27   49.00
  18   0  -8  214.18   28.90
 -18   0   8  249.58   21.10
  18   2  -8  103.39    9.60
  18   2  -8   78.49   28.40
  18  -2   8   51.99   31.60
 -18   2   8   68.19   12.00
 -18  -2  -8   90.99   11.10
 -18  -2  -8  100.69    8.40
  18   2  -8  116.39   16.10
 -18   2   8  108.39   13.00
 -18  -2   8  111.59   16.00
 -18   2  -8   91.49    9.10
  18   2   8   70.29   37.80
  18  -2  -8  112.59   20.10
  18  -2  -8   91.99   10.60
  18   2   8  123.79   16.00
 -18  -2   8   95.59   12.50
  18   4  -8  380.06   37.00
 -18   4   8  412.46   34.20
 -18  -4  -8  407.16   34.70
 -18  -4  -8  394.66   32.40
 -18   4   8  438.46   36.60
  18   4  -8  349.37   55.09
 -18  -4   8  399.36   36.40
 -18  -4   8  387.16   34.40
  18  -4  -8  431.46   33.60
  18   4   8  472.15   35.80
 -18   4  -8  409.66   32.70
  18   4   8  406.56   53.49
  18  -4  -8  462.85   46.80
  18  -6   8   -9.50   23.50
 -18  -6  -8    8.20    9.80
  18   6  -8   19.30   27.30
 -18   6   8   20.60    8.60
 -18  -6   8    7.80    9.10
 -18   6  -8   20.40    4.20
  18  -6  -8   16.10    7.20
  18   6   8   12.50   38.30
 -18  -1  -9  121.39   13.50
  18  -1   9   61.79   33.00
 -18   1   9  117.59   17.70
 -18  -1  -9  116.19    9.50
  18   1  -9  113.19   10.50
  18   1  -9   76.99   29.00
 -18   1   9  109.49   14.20
  18   1  -9   92.69   17.10
  18   1   9   96.59   26.50
  18  -1  -9   74.49   29.60
 -18   1  -9  110.49    9.70
  18   1   9   62.49   35.80
  18  -1  -9   80.99   18.20
 -18  -1   9   95.89   13.10
  18  -1  -9  125.99   11.00
 -18  -1   9  119.09   15.50
 -18   3   9  184.68   19.30
 -18  -3  -9  217.38   16.70
 -18   3   9  215.38   22.30
  18   3  -9  171.18   25.20
 -18  -3  -9  222.28   20.40
  18   3  -9  156.58   32.80
 -18   3  -9  203.48   16.90
 -18  -3   9  210.58   19.40
  18   3   9  133.09   41.50
  18   3   9  231.98   22.00
  18   3   9  196.78   33.90
 -18  -3   9  228.38   21.90
  18  -3  -9  173.38   26.10
  18  -3  -9  229.48   18.10
 -18   5   9   43.40    8.20
  18  -5   9   32.80   26.90
 -18  -5  -9   51.69   10.10
  18   5  -9   23.60   27.00
  18  -5  -9   41.60    7.10
  18   5   9   -1.00   27.50
 -18  -5   9   18.10   11.50
  18   5   9   25.60   40.10
 -18  -5   9   32.70    8.70
 -18   5  -9   33.90    4.90
  18   5   9   56.69   10.80
 -18   7   9   13.00    8.20
  18  -7   9   12.30   22.20
  18   7  -9   -3.90   27.70
 -18   7  -9    9.90    4.40
  18  -7  -9   14.50    7.80
 -18  -7   9    7.20    9.10
  18   7   9  -10.40   39.80
  18   0 -10 1435.06  107.39
 -18   0 -10 1413.76  107.19
  18   0 -10 1309.87  111.09
  18   0 -10 1250.57  118.89
 -18   0  10 1330.87  107.79
 -18   0  10 1490.55  108.89
  18   2 -10   35.40    4.80
  18  -2  10   11.20   28.40
 -18   2  10   27.70    7.80
  18   2 -10   26.30   14.70
  18   2 -10   37.30   26.40
 -18  -2 -10   27.20    3.80
 -18   2  10   14.20    9.30
  18   2  10   26.00   10.00
  18  -2 -10   12.70   17.40
  18   2  10   24.90   36.10
  18  -2 -10   34.60    5.60
  18   2  10    7.40   26.40
 -18   2 -10   38.20    4.10
 -18  -2  10   25.60    7.30
 -18  -2  10   24.30    9.10
 -18  -4 -10  705.13   54.39
  18   4 -10  579.34   57.99
  18   4 -10  633.94   71.19
  18   4  10  820.32   57.09
  18  -4 -10  737.63   54.99
  18   4  10  822.72   71.19
 -18   4 -10  661.63   54.39
 -18  -4  10  652.03   55.79
 -18   6  10   29.90    8.90
  18   6 -10   21.20   28.10
  18  -6  10  -12.70   23.50
  18  -6 -10   26.70    7.30
  18   6  10   -6.20   40.10
 -18   6 -10   24.80    4.30
 -18  -6  10   36.00    9.60
 -18   1  11  188.08   20.60
  18   1 -11  188.88   14.80
  18  -1  11  108.29   35.10
 -18   1  11  154.98   17.50
 -18  -1 -11  184.68   13.90
  18   1 -11  141.19   21.60
  18   1 -11  152.48   31.70
  18   1  11  115.89   37.90
  18  -1 -11  114.49   31.20
 -18  -1  11  172.28   16.70
 -18  -1  11  169.78   19.30
  18  -1 -11  187.88   15.10
  18  -1 -11  154.88   23.60
 -18   1 -11  176.08   14.00
 -18  -3 -11  128.79   10.30
 -18   3  11  172.38   18.90
 -18   3  11  120.99   13.90
  18   3 -11  107.29   17.40
  18   3 -11   86.09   28.80
  18   3  11   68.39   38.90
  18  -3 -11  115.79   12.10
 -18  -3  11  121.89   14.10
 -18  -3  11  134.39   17.20
 -18   3 -11   96.79   10.30
  18  -5  11   -2.00   24.60
 -18   5  11   23.00    7.90
  18   5 -11   21.00   26.70
  18   5  11   18.40   38.20
 -18  -5  11   24.40    8.80
 -18   5 -11   20.60    3.60
  18  -5 -11   27.90    6.50
  18   0 -12  341.07   51.69
 -18   0 -12  346.87   27.20
  18   0 -12  347.17   38.00
  18   0 -12  375.76   27.80
 -18   0  12  342.37   30.90
 -18   0  12  303.97   28.80
  18  -2  12   25.00   26.00
 -18   2  12   -3.40    9.90
  18   2 -12   25.10   15.80
  18   2 -12   -5.30   26.40
 -18   2  12    7.70    7.60
  18   2 -12    0.70    4.10
 -18  -2 -12    4.40    3.20
 -18  -2  12   15.20   10.00
  18   2  12    0.30   34.20
 -18  -2  12    5.30    7.20
  18  -2 -12    2.40    4.80
 -18   2 -12    6.10    3.20
 -18  -4 -12  183.88   14.80
  18   4 -12  143.19   30.90
 -18   4  12  203.28   17.90
 -18   4 -12  174.08   14.70
 -18  -4  12  157.88   18.60
  18   4  12   85.39   41.20
  18  -4 -12  213.68   16.10
  18   4  12  141.59   23.20
  18   1 -13  169.88   35.00
 -18   1  13  169.08   25.30
 -18  -1 -13  229.58   18.10
  18   1 -13  253.87   18.80
 -18  -1  13  201.48   22.60
 -18  -1  13  216.58   20.50
  18  -1 -13  239.78   19.10
 -18   1 -13  234.08   18.10
 -18  -3 -13   99.49    8.60
  18   3 -13   79.39   29.00
 -18   3  13   80.69   10.50
  18  -3  13   42.90   28.40
 -18   3 -13   88.99    8.40
 -18  -3  13   89.29   11.10
  18  -3 -13  105.99   10.50
  18   3  13   55.89   37.00
  18   5 -13   45.60   27.50
 -18   5  13   64.09    9.40
  18  -5  13   28.10   23.90
 -18  -5  13   51.99    9.80
  18  -5 -13   96.39   10.40
 -18   5 -13   71.09    6.90
  18   5  13   -4.60   37.20
  18   0  14   -9.70   31.60
  18   0 -14    6.70    4.40
 -18   0  14   -1.60    7.20
 -18   0 -14    0.40    3.00
 -18   2  14  410.06   35.60
  18   2 -14  392.76   55.89
 -18  -2 -14  437.46   33.90
 -18  -2  14  400.36   35.40
  18  -2 -14  462.45   34.50
 -18   2 -14  443.66   33.80
 -18  -4 -14   10.30    3.80
  18  -4  14    7.60   24.50
  18   4 -14   20.30   26.30
 -18   4  14   13.80    8.00
  18   4  14   -5.60   36.30
 -18  -4  14   14.10    9.00
 -18   4 -14   17.80    3.20
  18  -4 -14   10.10    5.40
 -18  -1 -15   23.20    3.40
  18   1 -15   16.50    4.60
 -18   1  15   20.30    7.30
  18  -1  15   17.70   31.20
 -18  -1  15   11.80    7.90
  18   1  15   47.40   33.90
  18  -1 -15   16.20    4.90
 -18   1 -15   12.90    3.40
 -18   3  15    2.50    7.40
  18   3 -15   17.10   26.20
 -18  -3 -15    3.10    3.70
  18  -3  15  -15.80   23.90
 -18   3 -15    6.60    2.90
  18  -3 -15    0.70    5.00
 -18  -3  15   -1.50    7.90
  18   3  15   12.60   37.70
  18   0  16   18.80   31.10
 -18   0  16   15.80    7.40
 -18   0 -16    7.90    3.00
  18   0 -16    5.10    4.60
  19  -1   0    3.90   14.10
 -19  -1   0   -6.90    3.10
 -19   1   0    3.80    3.40
 -19   1   0   -6.00    6.00
 -19   1   0    6.30    7.70
  19   1   0  -11.00   10.10
  19  -1   0  -26.60   33.70
 -19  -1   0   -1.50    3.00
 -19  -1   0   -4.40    7.30
  19   1   0    8.00   32.90
 -19   1   0    8.70   21.90
  19  -1   0    5.60    7.00
 -19  -1   0    2.60    6.10
  19  -3   0   27.00   18.40
 -19  -3   0    0.40    7.80
 -19  -3   0   -0.90    9.30
 -19   3   0    5.80    6.50
 -19   3   0   -3.60   24.90
  19   3   0   -7.80    9.30
  19  -3   0   -4.30   27.10
 -19   3   0    7.60    9.00
  19   3   0   -5.20   36.50
 -19  -5   0    2.40   10.00
  19   5   0    7.40    9.80
  19  -5   0   11.60   24.10
 -19   5   0   -4.40    7.20
  19   5   0  -14.90   38.00
 -19  -5   0  -11.60    8.90
  19  -5   0   10.20   21.20
 -19   5   0   -6.10   10.30
  19   7   0   15.80   39.50
 -19  -7   0    0.90    9.90
 -19   7   0   -4.30    8.70
 -19   0  -1   16.80    3.90
 -19   0   1   14.70    6.20
 -19   0   1    5.10    7.70
 -19   0  -1    7.30    6.30
 -19   0   1   16.70    3.10
 -19   0  -1    8.00    3.60
  19   0  -1   11.00   31.80
  19   0   1   25.00   33.80
 -19   0  -1   10.40    7.80
 -19   0   1   23.20   20.00
  19   0  -1    2.50   11.70
  19   0   1    5.20    5.90
  19   0   1   21.10   11.40
  19  -2   1  103.29   18.90
  19   2  -1  128.79   13.70
  19  -2   1   86.79   11.10
  19  -2   1   32.70   30.70
 -19  -2  -1   84.39   10.20
  19   2  -1   68.29   36.60
 -19   2   1   94.29   10.30
 -19   2   1   52.39   24.00
 -19   2   1   94.69   12.30
 -19  -2  -1  116.99   15.70
  19  -2  -1   69.89   18.30
 -19  -2   1  126.19   15.50
  19  -2  -1   84.29   10.70
 -19   2  -1  101.79   10.60
  19  -2  -1   42.50   31.10
 -19   2  -1  104.19   15.40
 -19   2  -1   94.19   11.30
  19   2   1   43.60   34.10
 -19   2  -1   52.59   26.90
 -19  -2   1  102.49   12.70
  19   2   1  122.29   13.70
  19   4  -1   11.80   35.20
  19  -4   1  -16.50   26.90
 -19  -4  -1   -0.70    8.90
  19  -4   1    1.60   20.10
  19   4  -1   11.60    9.30
 -19   4   1   12.50    6.70
 -19  -4  -1   14.00    9.10
 -19   4   1    7.00    9.40
 -19  -4   1    6.30    8.00
 -19   4  -1   20.20    6.80
  19   4   1   12.30    9.80
 -19   4  -1    0.10   10.00
  19   4   1  -13.90   35.90
 -19   4  -1    3.20   27.00
 -19  -4   1   -5.90    8.70
  19  -4  -1    2.50   24.20
  19  -4  -1   12.70    8.10
  19  -4  -1   -2.20   21.80
  19   6  -1  -25.80   34.10
  19   6  -1   23.80   10.30
 -19   6   1  -10.90   11.30
  19  -6   1  -17.80   20.30
 -19   6   1    5.20    8.10
 -19  -6  -1    6.60    9.00
 -19  -6  -1    6.40    9.10
  19  -6   1    8.60   26.10
 -19   6  -1   -3.60   11.80
  19  -6  -1   -2.70   23.70
  19  -6  -1   10.10    7.90
 -19  -6   1   10.90   10.00
  19   6   1   20.80    9.70
 -19   6  -1   14.60    8.20
 -19  -6   1    8.30   11.00
  19   6   1    4.10   39.20
  19   8  -1   -7.10   39.70
 -19  -8  -1    3.70    9.40
 -19   8   1   -4.10    8.90
 -19   8  -1    0.70   11.70
 -19   8  -1    3.20    5.60
 -19  -8   1   -6.40    9.80
  19   8   1   11.80   43.20
 -19   1   2   49.99    6.00
 -19  -1  -2   54.39    7.90
  19  -1   2   50.79   32.70
 -19  -1  -2   50.79    5.60
  19  -1   2   51.29   14.80
 -19   1   2   40.80   20.50
 -19   1   2   42.80    7.30
 -19   1   2   43.00    9.40
 -19  -1  -2   50.59    5.50
 -19  -1  -2   42.40    9.40
  19  -1   2   42.10    7.90
  19   1  -2   46.40   12.00
  19   1  -2   55.99   33.10
 -19   1  -2   58.29    5.70
 -19   1  -2   47.00    5.60
 -19  -1   2   30.10    9.20
  19   1   2   31.70    6.20
 -19  -1   2   32.30    7.50
 -19   1  -2   55.39    6.90
  19   1   2   44.90   37.40
  19  -1  -2   48.40   32.40
  19   1   2   50.29   11.10
  19  -1  -2   52.19    7.90
  19  -1  -2   46.70   14.90
 -19  -1   2   45.30    5.00
 -19   1  -2   41.90    8.90
  19   3  -2   89.39   12.90
 -19  -3  -2  108.59   13.10
  19  -3   2   77.99   20.70
 -19  -3  -2   59.39   11.40
 -19   3   2   70.69   12.40
  19  -3   2   57.79   31.00
  19   3  -2   91.49   36.00
 -19   3   2   96.09   24.10
 -19   3   2   94.19    9.80
  19  -3   2   84.09   12.60
  19   3   2   87.39   35.00
 -19  -3   2   82.59   11.90
 -19   3  -2   83.69    9.90
 -19   3  -2  103.59   10.60
  19  -3  -2   49.00   26.60
  19  -3  -2  101.29   20.20
  19   3   2   91.79   12.00
  19  -3  -2  111.69   10.40
 -19   3  -2   84.59   11.90
 -19  -3   2  116.09   12.90
 -19   5   2   69.89   12.60
  19  -5   2   30.50   25.50
 -19  -5  -2   55.09   10.90
  19   5  -2   83.29   11.20
  19   5  -2   61.49   35.50
 -19   5   2   70.79    9.60
  19  -5   2   84.99   24.20
 -19  -5  -2   67.09   10.60
  19   5   2   32.40   37.70
  19  -5  -2   86.19    9.70
 -19  -5   2   53.69   10.30
 -19   5  -2   71.39    9.00
 -19   5  -2   81.39    8.10
  19  -5  -2   42.20   17.70
  19  -5  -2   59.29   25.10
 -19   5  -2   56.49   12.10
  19   5   2   84.99   11.30
 -19  -5   2   66.99   10.40
  19   7  -2   17.00   36.70
 -19   7   2    7.00    8.70
 -19  -7  -2   17.30    9.20
 -19   7   2   -4.80   12.30
  19  -7  -2   28.90   27.40
  19   7   2   21.20   40.20
 -19   7  -2   21.40    6.60
 -19   7  -2    8.80    9.10
  19  -7  -2    4.20    7.60
 -19  -7   2   12.10    9.50
 -19   0  -3   58.19    6.80
  19   0  -3   55.99   30.60
 -19   0  -3   57.19    9.50
 -19   0   3   37.00   16.90
  19   0   3   48.60   38.00
 -19   0   3   56.39    5.70
  19   0  -3   58.69    7.90
  19   0   3   52.09    7.40
 -19   0   3   58.79    8.40
  19   0  -3   82.59   14.80
 -19   0   3   53.29    9.70
  19   0   3   66.19   12.40
 -19   0  -3   61.69    7.60
 -19   0  -3   52.79    6.40
 -19  -2  -3    4.20    7.30
 -19   2   3   -9.10   17.20
 -19  -2  -3    6.40    2.10
 -19  -2  -3   15.20    9.20
  19  -2   3    9.50   16.70
  19  -2   3    7.00    8.10
 -19  -2  -3    3.50    4.10
  19   2  -3   19.80   11.00
 -19   2   3   13.20    7.30
  19  -2   3   24.80   30.70
  19   2  -3   -0.20   33.00
 -19   2   3   10.50    8.90
 -19  -2   3   14.70    8.40
  19   2   3   25.30   36.80
  19  -2  -3   10.90   28.90
  19   2   3    5.50    9.20
 -19   2  -3   16.00    6.00
 -19   2  -3   10.90    4.30
  19  -2  -3   13.10    7.10
 -19   2  -3   22.40    7.60
 -19  -2   3   20.20    7.50
  19  -2  -3   15.90   16.10
  19  -4   3  -10.80   20.40
  19  -4   3   13.90   27.90
 -19  -4  -3   -3.40    8.30
 -19   4   3    2.70    7.40
  19   4  -3   12.60    9.40
 -19  -4  -3    7.10    9.80
 -19   4   3    3.40    9.00
  19   4  -3   -3.00   31.70
  19  -4  -3   14.10   22.80
  19   4   3   16.70    9.20
 -19  -4   3   -9.60    8.60
 -19  -4   3    2.80    9.10
  19  -4  -3    3.70    7.50
  19   4   3   28.00   34.70
 -19   4  -3   -0.50    4.90
  19  -4  -3   -4.90   19.00
 -19   4  -3   15.70    9.60
 -19   4  -3    5.50    6.80
 -19   6   3    9.60   11.30
  19   6  -3   -7.80   33.80
 -19  -6  -3   -3.50    9.10
 -19   6   3    9.40    8.30
  19  -6   3   -0.80   23.50
 -19  -6   3   -3.10    9.20
  19  -6  -3    7.50    8.30
  19   6   3   16.20    9.60
 -19   6  -3    5.50    5.30
  19  -6  -3   26.90   23.80
 -19   6  -3   14.10    7.40
  19   6   3    3.70   36.30
 -19  -6   3    1.50    9.70
  19   8  -3   10.90   35.20
 -19   8   3    3.30    9.10
 -19  -8  -3    3.90    9.20
  19  -8  -3   18.80    7.90
  19   8   3  -14.30   38.80
 -19   8  -3   -0.70    6.00
 -19  -8   3    8.90    9.60
  19   1  -4   49.40    7.10
 -19  -1  -4   48.00    7.90
  19   1  -4   26.50   33.80
  19  -1   4   39.00   32.90
  19  -1   4   39.70    7.80
 -19  -1  -4   32.90    6.00
  19   1  -4   43.40   12.10
 -19   1   4   40.50    7.40
 -19   1   4   33.70   15.50
 -19   1   4   35.40    9.60
 -19  -1  -4   43.50    5.20
  19  -1   4   43.50   14.80
 -19   1   4   47.30    5.10
 -19  -1  -4   43.50    9.30
 -19  -1   4   48.70    7.20
 -19   1  -4   49.30    8.30
 -19  -1   4   42.50    9.00
  19   1   4   48.20   10.80
 -19   1  -4   51.79    6.80
  19  -1  -4   55.89    7.40
  19  -1  -4   73.79   16.90
 -19  -1   4   39.30    4.50
  19   1   4   33.90    6.00
  19  -1  -4   17.80   30.30
  19   1   4   62.19   37.60
 -19   1  -4   44.80    5.00
 -19   3   4   33.90   10.50
 -19  -3  -4   48.10    8.70
  19  -3   4   27.70   18.30
  19   3  -4   37.60   30.80
 -19  -3  -4   41.00   10.10
 -19   3   4   46.20    7.40
  19   3  -4   35.60   10.40
  19  -3   4   34.80   30.50
 -19   3  -4   52.19    7.00
 -19   3  -4   37.00    8.90
 -19  -3   4   43.80    9.40
  19  -3  -4   30.90   22.20
  19   3   4   12.00   36.10
  19  -3  -4   54.39   19.80
 -19   3  -4   51.19    5.90
  19  -3  -4   41.70    8.10
 -19  -3   4   45.20    8.80
  19   3   4   45.30   10.60
 -19  -5  -4   22.60    9.70
  19  -5   4   16.20   26.20
  19   5  -4   23.70   30.60
 -19   5   4   16.60    7.90
  19   5  -4   23.20   10.00
 -19  -5  -4   36.80    9.10
 -19   5   4   28.20   11.00
 -19   5  -4   22.60    7.30
  19   5   4   44.90   36.70
  19  -5  -4   36.60   23.00
 -19  -5   4   11.60    8.50
  19  -5  -4   26.00    8.40
 -19   5  -4   23.30    5.40
 -19  -5   4   16.90    9.50
  19   5   4   27.20    9.70
 -19   7   4   12.90    8.90
  19   7  -4   22.80   32.90
  19  -7   4    4.00   21.30
 -19  -7  -4    4.80    9.30
 -19  -7   4   10.80    9.50
  19   7   4   18.60   37.70
  19  -7  -4    8.40    8.70
 -19   7  -4   12.00    5.70
  19   0  -5  257.97   20.40
  19   0  -5  274.67   29.00
 -19   0   5  294.57   23.00
 -19   0   5  211.88   18.60
 -19   0   5  235.58   26.30
 -19   0  -5  256.67   22.30
  19   0   5  149.88   40.10
 -19   0  -5  230.18   19.00
 -19   0  -5  207.98   20.00
 -19   0  -5  215.28   20.40
  19   0   5  236.08   20.20
  19   0  -5  172.48   39.00
 -19   0   5  255.97   20.80
  19   0   5  290.77   24.90
  19   2  -5    3.50   10.70
 -19  -2  -5    1.50    4.70
  19  -2   5    7.50    7.60
 -19   2   5   15.30    6.70
  19  -2   5   19.30   15.70
 -19  -2  -5    0.80    7.80
  19  -2   5   18.80   30.90
 -19  -2  -5   13.90    7.30
  19   2  -5   18.00   30.50
 -19   2   5    6.70    8.40
 -19   2   5   14.80   11.00
 -19  -2  -5   15.30    2.60
  19  -2  -5  -15.30   28.30
 -19  -2   5    8.70    6.90
 -19  -2   5    8.00    8.50
 -19   2  -5    6.00    6.70
 -19   2  -5   15.40    4.10
  19  -2  -5   15.00   16.80
  19  -2  -5    5.50    5.90
  19   2   5    6.80   36.90
  19   2   5   -0.30    9.30
 -19   2  -5    6.90    5.40
 -19   4   5   25.40    9.30
  19   4  -5   27.20   10.30
  19   4  -5   27.40   30.70
 -19  -4  -5   35.00    8.70
  19  -4   5   26.60   29.10
 -19   4   5   28.00    7.60
 -19  -4  -5   12.80    9.10
  19  -4  -5   25.80   22.60
  19  -4  -5   32.70    7.50
  19   4   5   40.90   10.30
 -19   4  -5   25.80    5.10
 -19  -4   5   19.80    8.10
 -19  -4   5   28.60   10.80
  19   4   5   42.70   38.30
 -19   6   5   -1.00   11.10
 -19  -6  -5   32.10   10.30
  19  -6   5   10.00   24.50
  19   6  -5   17.50   29.30
 -19   6   5   -3.50    8.30
 -19   6  -5    2.80    5.10
  19   6   5  -21.10   37.10
  19  -6  -5    0.30    8.40
  19  -6  -5   15.80   31.00
 -19  -6   5    1.30    8.70
 -19   1   6    3.30    8.40
  19   1  -6    1.60   13.30
 -19  -1  -6    9.20    6.60
 -19  -1  -6    9.90    7.50
 -19  -1  -6    1.10    2.60
  19  -1   6   -5.50   13.50
 -19   1   6   14.70    7.00
  19  -1   6   11.80   33.80
  19   1  -6   -3.20   29.60
  19  -1   6   10.80    7.10
  19   1  -6    2.50    5.10
 -19  -1  -6    0.30    5.10
  19   1   6    6.80    9.90
 -19  -1   6    7.30    6.90
  19   1   6    9.30    5.10
 -19  -1   6   -0.10    1.80
 -19  -1   6   11.60    8.30
 -19   1  -6    0.40    3.20
  19  -1  -6    1.80    5.30
  19   1   6  -15.20   35.80
 -19   1  -6   -7.20    6.00
  19  -1  -6   -5.50   26.50
  19  -1  -6    6.00   14.70
  19  -3   6    6.60   28.90
  19   3  -6    0.20   28.20
 -19  -3  -6    3.40    8.70
 -19   3   6   -3.40    6.90
 -19  -3  -6    4.70    2.50
  19   3  -6    5.20   10.30
 -19   3   6    1.60    8.60
 -19  -3  -6    2.50    8.10
  19   3   6   -5.00   36.80
 -19  -3   6    0.60    7.40
 -19   3  -6    9.60    4.00
  19  -3  -6   21.70   18.10
 -19  -3   6    2.10    8.90
  19   3   6    3.90    8.80
  19  -3  -6    9.70    6.30
  19   5  -6   -0.40   11.00
  19  -5   6   14.40   26.90
 -19  -5  -6   17.70    9.70
 -19   5   6   17.00    7.90
  19   5  -6  -16.30   26.60
 -19   5   6    0.80   10.40
 -19  -5   6  -10.50   10.30
  19   5   6   19.10   37.10
  19  -5  -6    9.60    7.40
  19  -5  -6   26.00   21.60
 -19  -5   6    0.60    9.00
 -19   5  -6    6.10    4.70
  19   5   6    9.80    9.90
  19  -7   6  -10.10   21.60
  19   7  -6   -3.50   28.60
 -19  -7  -6    5.30    8.80
 -19   7   6    1.30    8.30
  19   7   6   10.10   38.30
 -19  -7   6   -6.20   10.10
 -19   7  -6    3.70    5.00
  19  -7  -6    2.80    8.80
  19   0   7    9.60   33.90
  19   0  -7   58.99   33.00
 -19   0   7   57.29    5.50
  19   0  -7   92.99   15.80
 -19   0  -7   63.69    9.00
 -19   0  -7   43.80    5.50
 -19   0   7   62.59    9.50
 -19   0   7   63.89    8.30
  19   0  -7   59.99    6.80
 -19   0  -7   51.29    8.00
  19   0   7   84.59   12.00
 -19  -2  -7   -4.90    2.50
 -19   2   7  -15.60    9.10
 -19  -2  -7    3.20    8.40
 -19  -2  -7   -3.40    7.60
  19   2  -7   -4.20   12.60
  19   2  -7   -7.40   28.00
 -19   2   7    2.40    7.10
  19  -2   7   18.90   31.60
  19   2  -7    4.00    4.80
  19  -2  -7  -10.00   23.70
 -19   2  -7    1.00    3.30
 -19  -2   7    5.70    8.30
  19  -2  -7   -2.60   16.00
  19   2   7   29.90   37.80
  19  -2  -7    6.40    5.50
  19   2   7   -4.00    9.20
 -19  -4  -7   26.70    3.70
 -19   4   7   33.10    7.80
  19  -4   7   12.30   27.80
  19   4  -7   30.30   11.20
 -19   4   7   22.30   10.20
  19   4  -7    9.30   29.50
 -19  -4  -7   30.40    9.40
  19   4   7   48.00   10.50
 -19   4  -7   35.50    4.70
  19  -4  -7   31.90    6.90
 -19  -4   7   38.80    8.90
  19   4   7   -4.90   38.70
 -19  -4   7   32.20   10.10
  19  -4  -7   59.39   22.30
 -19  -6  -7   -2.10    8.60
 -19   6   7    6.10    7.70
  19   6  -7   22.60   29.50
  19  -6   7   -6.60   24.40
 -19   6  -7    5.40    4.30
 -19  -6   7  -13.50    9.00
  19  -6  -7  -15.50    7.70
  19   6   7    8.10   39.60
  19   1  -8   -1.90   15.40
  19   1  -8   21.00    4.60
  19  -1   8    0.80   30.60
 -19   1   8   12.10    7.60
 -19  -1  -8   14.40    7.40
  19   1  -8    8.20   29.50
 -19   1   8    2.80    9.50
 -19  -1  -8   15.30    3.10
 -19   1  -8   13.90    3.30
  19  -1  -8   15.30    4.90
  19   1   8   16.90   35.00
  19  -1  -8   -4.90   14.90
 -19  -1   8   11.20    8.20
 -19  -1   8    7.90    7.30
  19  -1  -8    4.10   27.00
  19   1   8    5.70    9.60
  19   3  -8   21.20   26.50
 -19   3   8   17.60    9.80
 -19   3   8   24.50    6.80
 -19  -3  -8   23.10    3.30
  19  -3   8   16.70   28.60
  19   3  -8   17.90   11.90
 -19  -3  -8   19.80    8.90
  19  -3  -8   23.60    6.00
  19   3   8   15.80    9.20
 -19  -3   8    5.30    7.60
 -19  -3   8    1.70    9.60
 -19   3  -8   24.50    4.00
  19  -3  -8   17.90   18.70
  19   3   8   14.80   41.00
 -19  -5  -8   15.70    9.00
 -19   5   8    8.70    8.10
 -19   5   8   -2.50   15.60
  19   5  -8   28.30   28.90
  19  -5   8    1.60   25.20
  19   5   8   17.20   39.50
 -19   5  -8   22.30    4.20
 -19  -5   8   14.20    9.00
  19   5   8   32.90   27.50
 -19  -5   8   15.00   10.10
  19  -5  -8   24.00    7.40
  19   5   8   13.10   10.20
  19   7  -8    3.80   28.10
  19  -7   8   -8.20   23.00
 -19   7   8    1.50    7.90
 -19  -7  -8   -9.00    9.20
 -19  -7   8    8.10    9.20
  19  -7  -8    2.20    8.60
 -19   7  -8    1.60    4.30
  19   7   8  -19.40   38.20
  19   0  -9   24.40    5.20
 -19   0  -9   37.00    4.00
 -19   0   9   14.00    9.60
  19   0  -9   29.90   15.20
  19   0   9   15.10   32.00
  19   0  -9   38.40   31.00
 -19   0   9   25.90    7.30
 -19   2   9   79.99   11.20
  19  -2   9   26.20   31.50
 -19  -2  -9   61.79   10.30
 -19   2   9   77.09    9.50
  19   2  -9   69.69    7.70
 -19  -2  -9   86.99    7.40
  19   2  -9   80.49   16.30
  19   2  -9   69.59   28.70
  19   2   9   31.40   36.40
  19   2   9   83.39   11.80
 -19  -2   9   82.99   11.30
 -19   2  -9   75.09    7.90
  19  -2  -9   89.29   19.00
  19   2   9  123.79   28.90
  19  -2  -9   82.79   10.00
 -19  -2   9  109.59   10.10
  19   4  -9   -3.40   12.80
  19  -4   9   -8.80   29.10
 -19  -4  -9    1.30    8.60
 -19  -4  -9   -3.30    3.30
 -19   4   9    4.40    7.90
 -19   4   9    0.60    9.70
  19   4  -9   14.80   27.70
 -19  -4   9    4.00   10.90
 -19  -4   9    3.70    9.20
  19   4   9   11.10   39.60
 -19   4  -9    1.20    3.60
  19  -4  -9    3.60    6.10
  19   4   9    1.10   10.10
  19   4   9   -8.40   29.20
  19   6  -9   -1.40   28.00
  19  -6   9   -5.00   23.60
 -19   6   9   -6.10    8.50
 -19   6  -9   11.10    3.80
  19   6   9  -16.30   40.50
  19  -6  -9    7.00    6.80
 -19  -6   9   12.50    9.60
  19   1 -10   11.70   28.60
  19   1 -10    5.50    4.30
 -19  -1 -10    1.60    2.90
 -19   1  10   -2.70    7.60
 -19   1  10   -5.40    8.80
  19  -1  10   -3.80   32.20
  19   1 -10   -4.10   14.20
  19  -1 -10   -5.90    4.70
 -19  -1  10   -7.80    7.50
  19   1  10  -10.50   33.00
 -19  -1  10    0.70    6.90
 -19   1 -10    2.10    3.10
  19  -1 -10   16.90   28.20
  19  -1 -10  -14.50   15.40
 -19  -3 -10    0.10    3.00
  19   3 -10   14.80   13.70
  19  -3  10   27.10   27.30
  19   3 -10   -0.60   26.50
 -19   3  10    7.50    7.50
 -19   3  10    8.70   10.20
 -19   3 -10    1.40    3.10
  19   3  10   -7.50   36.20
  19  -3 -10  -12.30   18.70
 -19  -3  10   -5.20    9.80
  19  -3 -10    5.70    5.70
  19   3  10   19.00   46.90
 -19  -3  10   -1.00    7.90
 -19   5  10    6.60    7.40
  19   5 -10    7.40   27.00
  19  -5  10   10.10   25.30
 -19  -5  10    2.70    8.50
  19   5  10    3.50   36.50
  19  -5 -10    0.90    6.50
 -19   5 -10    1.70    3.60
  19   0  11   53.89   34.00
  19   0 -11    2.50   15.30
  19   0 -11   -8.00   30.10
  19   0 -11   26.50    4.70
 -19   0  11   13.80    8.80
 -19   0  11    4.80    7.40
 -19   2  11   77.79   10.70
  19   2 -11  101.99   10.40
  19   2 -11   83.59   30.10
 -19  -2 -11  108.09    9.00
  19   2 -11  123.69   19.40
 -19   2 -11   91.59    9.20
  19  -2 -11  102.59   11.10
 -19  -2  11  121.39   11.50
  19   2  11   34.90   38.60
  19  -2 -11  107.29   20.60
 -19  -2  11  112.69   16.80
  19  -4  11   12.80   28.50
  19   4 -11   25.60   27.60
 -19   4  11    9.40    7.20
 -19  -4 -11    5.80    3.70
  19  -4 -11    9.50    5.70
 -19  -4  11    8.10    8.80
 -19   4 -11   21.70    3.50
  19   4  11    0.00   36.00
 -19   6  11   19.10    8.70
  19   6 -11   14.40   28.20
  19  -6  11   -8.50   22.80
  19   6  11  -18.10   17.80
 -19   6 -11   18.10    3.60
 -19  -6  11    8.30    8.90
  19  -6 -11   15.90    7.00
  19   6  11  -10.40   37.50
 -19   1  12    8.50    7.50
  19   1 -12    9.10    4.60
  19   1 -12   -9.00   28.00
 -19  -1 -12    0.30    2.90
 -19   1  12    8.10    9.90
  19   1 -12    1.60   16.00
  19  -1  12    7.50   30.90
 -19  -1  12   -4.40    6.90
 -19  -1  12   -2.20    8.50
 -19   1 -12    1.00    3.00
  19   1  12   -7.90   34.30
  19  -1 -12    4.50    4.70
  19  -3  12  -13.50   27.30
 -19   3  12    0.50    7.60
  19   3 -12    1.00   27.40
 -19  -3 -12    4.50    3.20
  19  -3 -12    6.90    5.40
 -19  -3  12   -4.50    8.10
 -19   3 -12   11.80    3.10
  19   3  12  -21.90   37.00
  19  -5  12    3.30   24.80
 -19   5  12   -1.00    7.60
  19   5 -12    1.40   28.10
 -19  -5  12   11.80    8.60
  19  -5 -12    2.80    6.30
  19   5  12   30.10   38.40
  19   5  12   -7.70   18.60
 -19   5 -12    6.40    3.20
  19   0 -13   25.80    5.20
 -19   0 -13   28.00    3.80
 -19   0  13   18.80    7.50
  19   0  13   17.70   34.20
 -19   2  13   -1.40    7.40
  19   2 -13    9.20   27.60
  19  -2  13    3.20   27.50
 -19  -2 -13   -0.10    3.30
  19  -2 -13   -1.30    5.20
  19   2  13   -4.40   33.20
 -19   2 -13   -5.60    2.90
 -19  -2  13   -1.70    7.60
 -19   4  13    9.20    7.80
 -19  -4 -13   -5.20    3.60
  19  -4  13  -11.30   24.30
  19   4 -13    2.90   27.00
  19  -4 -13   -0.70    5.50
 -19  -4  13   -0.30    9.40
 -19   4 -13    1.50    3.30
  19   4  13   20.40   38.60
  19   1 -14    2.60    4.60
  19  -1  14   13.00   30.00
 -19  -1 -14    5.10    3.20
 -19   1  14    5.50    7.40
  19   1  14   -8.20   35.90
 -19   1 -14    4.10    3.10
 -19  -1  14    6.90    7.20
  19  -1 -14   -1.60    4.70
  19   3 -14    5.60   28.00
 -19   3  14   -0.40    7.40
  19  -3  14   -9.20   27.00
 -19  -3 -14   -2.50    3.40
  19   3  14    9.40   36.70
 -19   3 -14   -3.60    3.10
  19  -3 -14   -2.20    5.40
 -19  -3  14  -11.40    8.20
  19   0 -15   63.39    6.90
 -19   0 -15   60.69    6.50
 -19   0  15   55.29    8.90
  19   0  15   33.90   29.80
  19   2 -15   54.59   61.09
 -19  -2 -15   12.50    3.30
 -19   2  15   -6.00    7.90
  19  -2  15    3.00   30.50
  19   2  15   -9.00   36.40
 -19   2 -15   16.60    3.10
 -19  -2  15    5.60    7.50
  19  -2 -15    6.10    5.00
  20   0   0 2841.42  212.58
 -20   0   0 2570.34  210.98
 -20   0   0 2662.93  211.18
 -20   0   0 2695.73  211.08
 -20   0   0 2803.22  211.88
  20   2   0   85.89   12.40
 -20   2   0   91.19   11.50
  20  -2   0   55.59   32.00
 -20  -2   0   89.69   11.80
  20  -2   0   86.89   19.30
 -20  -2   0  111.29   12.60
 -20   2   0   62.19   26.50
 -20   2   0   92.49   11.70
  20   2   0   57.89   34.40
  20  -4   0 1259.97   92.19
 -20  -4   0  931.81   85.49
  20   4   0 1125.89   85.79
 -20   4   0 1152.88   85.89
 -20  -4   0 1046.40   84.79
 -20   4   0 1004.30   84.39
 -20   6   0   46.90    9.00
 -20  -6   0   47.30   10.60
  20  -6   0   96.59   26.80
 -20  -6   0   39.40   11.60
 -20   6   0   45.90   12.30
  20   6   0   40.10   40.90
  20   8   0   78.69   46.20
 -20   8   0  183.08   18.90
 -20   8   0  159.48   16.10
 -20  -1  -1  173.58   14.40
  20   1  -1  179.48   21.30
  20  -1   1  151.88   17.50
 -20   1   1  190.98   18.80
 -20  -1  -1  199.48   19.50
 -20   1   1  184.98   16.30
 -20   1   1  169.38   14.30
 -20  -1  -1  186.48   16.40
 -20   1   1  141.79   26.60
  20   1  -1  143.09   37.40
  20  -1   1  103.39   37.50
 -20  -1  -1  173.08   14.20
  20  -1   1  218.58   26.80
  20   1   1  122.49   39.90
 -20  -1   1  169.38   14.10
 -20  -1   1  174.38   14.50
 -20   1  -1  173.18   18.00
 -20   1  -1  160.78   14.70
  20  -1  -1   89.09   36.70
  20   1   1  188.58   21.10
 -20  -1   1  166.08   19.00
 -20  -1   1  191.38   16.60
 -20   1  -1  171.18   15.40
 -20   1  -1  187.38   16.20
  20  -1  -1  183.68   26.80
 -20   3   1  175.38   17.20
  20   3  -1  127.99   42.20
 -20   3   1  207.38   20.70
  20  -3   1  243.28   33.60
 -20  -3  -1  182.28   20.90
  20  -3   1  117.19   34.10
 -20  -3  -1  176.38   18.40
 -20   3   1  129.59   30.20
  20   3  -1  176.98   21.50
 -20  -3   1  202.28   17.80
 -20   3  -1  187.88   17.50
 -20  -3   1  206.28   20.70
  20  -3  -1  171.08   18.80
  20   3   1  115.99   39.60
  20  -3  -1  249.88   34.00
 -20   3  -1  192.78   21.10
 -20   3  -1  181.28   16.50
 -20   5   1   29.10   10.90
  20  -5   1   21.70   25.60
  20   5  -1   58.59   11.20
 -20   5   1   46.00    8.30
  20   5  -1   32.90   38.00
 -20  -5  -1   40.60   10.20
 -20  -5  -1   37.10   10.60
  20  -5   1   51.19   25.50
 -20  -5   1   30.40    9.70
  20  -5  -1   78.09   25.00
 -20  -5   1   36.00    9.70
  20  -5  -1    6.60   19.90
 -20   5  -1   45.00   11.30
  20   5   1   43.00   39.20
  20  -5  -1   34.60    8.70
  20   5   1   54.69   11.00
 -20   5  -1   39.60    7.80
  20   7  -1  -26.60   39.30
 -20  -7  -1    6.80    9.00
 -20   7   1   13.20    8.70
 -20   7  -1    6.90    8.90
 -20  -7   1   -1.80    8.40
 -20   7  -1    6.30    5.60
  20   7   1  -10.70   40.80
 -20   0  -2  551.24   41.40
 -20   0  -2  551.14   40.30
  20   0   2  584.54   43.60
 -20   0  -2  478.65   39.80
  20   0  -2  532.05   44.80
 -20   0   2  488.45   39.40
  20   0   2  435.16   40.40
 -20   0   2  543.45   41.50
  20   0   2  358.16   67.49
 -20   0  -2  493.05   39.60
 -20   0   2  522.75   40.50
 -20   0   2  430.56   49.00
  20   2  -2   47.70   12.10
 -20  -2  -2   33.60    4.60
 -20  -2  -2   35.40    3.80
 -20   2   2   58.09    8.00
  20  -2   2   40.70    9.10
  20  -2   2   22.40   30.20
 -20  -2  -2   51.09    9.80
  20   2  -2   31.40   37.40
 -20   2   2   42.40   10.10
  20  -2   2   45.80   18.00
 -20   2   2   33.90   21.50
 -20  -2  -2   35.00    7.90
  20   2   2    1.90   35.30
  20   2   2   63.29   11.40
 -20  -2   2   46.80    7.90
  20  -2  -2   70.39   18.60
 -20  -2   2   37.60   10.00
  20  -2  -2   25.80   30.10
  20  -2  -2   26.90    8.10
 -20   2  -2   54.69    7.30
 -20   2  -2   48.90    9.30
 -20   2  -2   47.30    5.90
 -20  -4  -2  377.06   33.50
 -20   4   2  396.86   34.00
  20   4  -2  309.57   64.49
  20   4  -2  365.26   33.80
 -20  -4  -2  403.86   32.30
  20  -4   2  403.56   44.50
 -20   4   2  360.76   31.50
 -20  -4   2  355.96   33.70
  20  -4  -2  476.05   47.60
 -20   4  -2  436.56   34.10
  20  -4  -2  386.76   32.50
  20   4   2  411.16   33.60
 -20   4  -2  390.06   31.00
 -20  -4   2  338.47   32.40
 -20   4  -2  340.57   31.50
 -20  -6  -2   13.60    9.20
 -20   6   2   10.60   11.40
 -20   6   2   13.40    8.50
  20  -6   2   -8.20   23.10
 -20  -6  -2   32.30    8.90
  20   6  -2    5.60   34.10
  20   6   2   20.20   38.40
  20  -6  -2   15.30   25.10
 -20   6  -2   33.70    7.70
 -20   6  -2   10.60    5.50
 -20  -6   2    7.40   11.80
 -20  -6   2   15.10    9.40
  20  -6  -2   12.20    8.50
  20   8  -2   28.30   39.10
 -20   8   2   32.40    9.60
 -20  -8  -2   46.60   10.80
 -20   8  -2   29.40    6.30
 -20  -8   2   28.00   10.20
  20   8   2   10.90   40.70
 -20   1   3  517.75   54.69
  20  -1   3  676.33   52.29
  20  -1   3  497.65   68.69
  20  -1   3  555.84   47.60
  20   1  -3  522.75   71.09
 -20   1   3  583.34   47.20
 -20  -1  -3  622.84   47.20
 -20  -1  -3  607.34   46.30
 -20   1   3  598.64   46.30
  20   1  -3  588.74   50.19
 -20   1   3  600.14   48.70
 -20  -1  -3  619.64   48.70
 -20  -1  -3  550.84   46.70
  20  -1  -3  485.75   69.09
  20  -1  -3  614.44   47.50
 -20  -1   3  558.34   46.20
  20   1   3  647.04   49.40
 -20  -1   3  630.64   47.20
 -20   1  -3  628.34   48.10
 -20  -1   3  602.64   48.50
 -20   1  -3  620.54   46.60
  20   1   3  467.35   71.49
 -20   1  -3  612.34   47.00
  20  -1  -3  630.44   52.99
 -20   3   3  211.28   19.80
  20  -3   3  235.68   35.30
  20   3  -3  209.28   23.30
 -20  -3  -3  252.27   22.70
  20   3  -3  143.39   39.80
 -20  -3  -3  213.18   20.40
  20  -3   3  139.59   37.00
 -20   3   3  249.58   23.00
 -20  -3   3  234.58   20.50
  20   3   3  252.27   22.80
 -20   3  -3  234.08   21.70
 -20   3  -3  192.88   19.10
  20  -3  -3  314.07   35.30
 -20  -3   3  219.28   22.90
 -20   3  -3  201.68   18.40
  20  -3  -3  210.98   20.70
  20   3   3  132.59   41.00
 -20  -5  -3  124.29   14.70
  20   5  -3  128.99   18.30
 -20   5   3  126.69   15.40
  20   5  -3   56.49   36.90
 -20   5   3  131.59   19.90
 -20  -5  -3  143.09   18.70
 -20  -5   3  126.09   16.40
 -20   5  -3  130.09   19.40
 -20   5  -3  120.49   14.70
  20  -5  -3  145.09   26.50
 -20  -5   3  128.09   17.60
  20   5   3   65.39   38.10
  20   5   3  151.48   17.40
  20  -5  -3  138.09   16.40
 -20   5  -3  147.29   13.20
  20   7  -3   18.30   35.90
 -20  -7  -3   23.90   10.10
 -20   7   3   41.30    9.20
 -20   7  -3   44.60    6.70
 -20  -7   3   28.00   10.00
  20   7   3   35.00   39.10
  20  -7  -3   38.20    9.50
 -20   0   4    7.80    2.20
 -20   0  -4   -4.60    8.50
  20   0  -4   14.70   31.10
 -20   0   4    5.20    7.80
 -20   0  -4    1.10    4.90
  20   0   4   -3.10   11.60
  20   0   4   17.70   34.80
 -20   0   4    6.60   13.00
 -20   0  -4    6.30    3.20
  20   0  -4  -10.50   13.30
 -20   0  -4    7.20    6.40
  20   0  -4    9.10    6.50
  20   0   4   15.00    6.00
 -20   0   4    4.60    6.80
  20   2  -4 1015.50  112.29
 -20   2   4 1298.97   98.09
 -20   2   4 1234.18   96.99
 -20   2   4 1031.00  100.99
  20   2  -4 1320.47   98.39
 -20  -2  -4 1114.09   96.19
 -20  -2  -4 1310.77   97.99
  20  -2   4 1071.69   97.39
 -20  -2  -4 1238.98   96.89
  20  -2   4 1280.57  100.79
 -20  -2   4 1371.76   96.89
  20  -2  -4 1204.28   96.99
  20  -2  -4 1280.17  101.29
 -20   2  -4 1214.98   96.59
 -20   2  -4 1340.07   97.39
 -20   2  -4 1235.98   96.39
 -20  -2   4 1415.86   97.79
  20  -4   4   16.20   29.30
  20   4  -4   28.30   32.20
  20  -4   4   15.50   21.60
 -20  -4  -4   32.00    9.70
  20   4  -4   20.90   10.30
 -20   4   4   26.70    9.90
 -20  -4  -4   19.50    9.80
 -20   4   4   28.70    7.80
 -20   4  -4   20.50    6.90
 -20  -4   4   29.00    9.20
  20   4   4   26.50   10.20
  20  -4  -4   23.90   22.40
 -20   4  -4   41.60    9.50
 -20  -4   4   36.20    8.60
  20   4   4   33.70   36.40
  20  -4  -4   31.30    8.30
 -20   4  -4   32.40    5.20
 -20   6   4  306.97   30.70
 -20  -6  -4  286.77   27.90
 -20   6   4  327.77   27.10
  20  -6  -4  307.17   46.10
 -20  -6   4  253.27   27.30
 -20   6  -4  313.47   25.00
  20  -6  -4  323.17   27.30
  20  -1   5    4.80   14.80
  20  -1   5   -8.60    7.20
  20   1  -5    6.50   33.90
  20  -1   5   -5.40   33.40
 -20  -1  -5    0.50    5.00
  20   1  -5  -14.30   13.10
  20   1  -5    1.10    6.30
 -20  -1  -5    8.40    8.60
 -20   1   5    7.40   11.60
 -20   1   5    2.50    8.70
 -20  -1  -5    2.70    6.70
 -20   1   5   -4.60    6.90
 -20  -1  -5    4.80    2.70
 -20  -1   5   -0.40    2.30
  20   1   5    0.40    9.90
  20   1   5   20.50   38.10
 -20  -1   5    0.60    7.00
 -20   1  -5    2.40    3.50
 -20   1  -5   -0.20    8.10
  20  -1  -5   -6.60    6.00
 -20   1  -5   -0.90    6.10
  20   1   5    7.10    5.00
 -20  -1   5    6.60    8.00
  20  -1  -5   13.40   30.20
  20  -1  -5   22.60   17.00
  20  -3   5   -0.20   31.50
 -20   3   5    9.40    6.80
 -20  -3  -5    1.10    8.30
  20   3  -5   -0.30   10.20
 -20  -3  -5    3.90    8.90
 -20  -3  -5    2.60    2.40
 -20   3   5    0.30    9.10
  20   3  -5   -8.80   31.40
  20  -3  -5  -12.80   20.10
  20   3   5    4.90    9.60
  20  -3  -5    0.00   18.80
 -20  -3   5    2.70    9.30
 -20   3  -5    6.90    4.50
 -20  -3   5   -7.90    8.80
  20   3   5   -6.40   38.70
  20  -3  -5    6.90    6.90
  20   5  -5  -14.00   10.50
  20   5  -5  -21.00   30.70
 -20   5   5   -2.20    8.00
 -20   5   5   -1.00   10.30
  20  -5   5    7.00   27.40
 -20  -5  -5    3.60    8.80
 -20   5  -5    2.90    4.50
  20  -5  -5   -5.40   23.30
  20  -5  -5   -3.90    8.10
 -20  -5   5    4.40   10.30
  20   5   5  -15.60    9.90
 -20  -5   5    7.20    9.70
  20   5   5   10.40   36.90
  20  -7   5   -0.50   22.70
 -20  -7  -5    1.00    9.20
 -20   7   5   -6.40    8.20
  20   7  -5   -9.60   34.10
 -20  -7   5    3.80   10.00
 -20   7  -5   -1.50    5.30
  20   7   5   -5.60   40.80
  20  -7  -5   14.70    8.80
 -20   0  -6   -0.20    3.10
 -20   0  -6   -5.00    8.00
  20   0  -6   14.70   33.30
 -20   0   6   -0.60    2.10
 -20   0   6   13.20    6.40
  20   0   6  -17.60   10.90
  20   0   6    2.40   34.00
 -20   0   6    8.00    7.70
 -20   0  -6   -3.40    6.40
  20   0  -6    6.10   15.20
  20   0  -6    6.00    5.50
 -20  -2  -6  816.12   61.89
 -20  -2  -6  706.23   60.59
  20   2  -6  681.33   80.79
  20   2  -6  783.02   64.19
 -20   2   6  763.32   61.69
 -20  -2  -6  820.52   62.79
 -20   2  -6  763.72   60.89
  20   2   6  878.31   62.99
 -20  -2   6  818.62   61.69
 -20  -2   6  799.22   62.79
  20  -2  -6  791.52   61.39
  20  -2  -6  651.33   67.59
 -20   4   6    0.20    6.90
 -20  -4  -6   -1.70    8.30
 -20  -4  -6    1.80    3.50
  20   4  -6    2.90   30.80
 -20   4   6   -1.10    9.90
  20   4  -6   -4.80   11.20
  20  -4   6   -2.00   29.00
  20  -4  -6   -5.50    6.90
  20   4   6   -6.80   37.20
 -20  -4   6   -2.10   10.10
  20   4   6   -4.20    8.80
 -20   4  -6    0.70    4.30
 -20  -4   6    0.90    7.90
  20  -4  -6    5.60   22.70
 -20  -6  -6  188.48   20.90
 -20   6   6  187.58   19.70
  20   6  -6  142.39   35.60
 -20   6  -6  219.58   16.80
 -20  -6   6  160.98   20.50
  20  -6  -6  223.78   20.70
 -20  -1  -7  493.45   40.90
 -20  -1  -7  466.75   39.50
 -20  -1  -7  499.95   42.10
  20   1  -7  503.95   45.60
  20   1  -7  459.65   64.09
 -20   1   7  531.65   42.30
  20   1  -7  518.65   40.20
 -20   1   7  505.85   40.70
 -20   1  -7  521.75   39.60
  20  -1  -7  527.75   40.40
  20  -1  -7  389.26   58.59
  20  -1  -7  552.94   48.10
 -20  -1   7  492.15   42.00
 -20  -1   7  512.75   40.70
  20   1   7  534.65   42.50
  20   3  -7  267.67   28.20
 -20  -3  -7  283.27   25.20
 -20  -3  -7  265.77   22.10
 -20   3   7  282.37   24.20
 -20   3   7  274.57   27.00
  20   3  -7  193.08   41.10
 -20  -3   7  269.17   24.60
  20  -3  -7  283.07   24.00
  20   3   7  328.27   27.00
 -20   3  -7  287.07   22.60
  20  -3  -7  323.67   39.50
 -20  -3   7  284.07   26.80
  20   5  -7   89.59   31.50
 -20  -5  -7   95.09   12.40
 -20   5   7  131.19   18.50
 -20   5   7  114.49   14.20
  20   5   7   55.79   29.00
  20   5   7  151.98   17.80
 -20  -5   7   69.89   12.30
  20  -5  -7  120.29   14.00
 -20  -5   7   67.69   14.20
  20   5   7   33.80   39.60
 -20   5  -7  113.49   10.20
 -20  -7  -7   34.00   10.40
  20   7  -7   28.60   32.40
  20  -7   7   18.70   23.20
 -20   7   7   48.20    9.80
 -20   7  -7   57.89    6.10
 -20  -7   7   41.20   11.20
  20   7   7   53.69   40.60
  20  -7  -7   51.79   10.10
 -20   0   8  339.77   27.20
 -20   0  -8  287.37   23.60
 -20   0   8  289.67   25.40
  20   0  -8  363.06   34.80
  20   0  -8  211.68   43.60
  20   0  -8  293.87   24.60
  20  -2   8   19.00   32.10
  20   2  -8   18.10   12.90
  20   2  -8    1.30   31.10
 -20  -2  -8   16.70    3.00
 -20  -2  -8    7.20    8.10
 -20   2   8   11.90    7.40
 -20   2   8    6.60    9.90
  20   2  -8   22.10    5.50
  20   2   8   23.00   10.30
 -20  -2   8   20.80    8.70
  20  -2  -8   -3.30   24.50
  20  -2  -8   37.60   18.60
  20   2   8   38.50   36.90
 -20   2  -8   16.80    3.90
  20  -2  -8   22.30    5.80
  20   4  -8  224.58   38.60
 -20   4   8  276.77   26.40
 -20   4   8  279.27   23.70
 -20  -4  -8  302.27   25.10
 -20  -4  -8  247.68   21.40
  20   4  -8  233.88   27.40
 -20  -4   8  286.57   24.50
  20   4   8  233.48   37.10
 -20   4  -8  280.17   21.90
  20  -4  -8  271.47   23.50
  20   4   8  315.07   26.50
  20  -4  -8  240.38   32.40
 -20  -4   8  254.67   27.40
  20   6  -8   25.90   27.90
 -20  -6  -8    7.10    9.20
 -20   6   8    6.50    7.80
  20  -6   8   -9.90   24.50
  20  -6  -8   14.40    8.00
  20   6   8   -6.60   38.60
 -20   6  -8    8.30    4.20
 -20  -6   8   -3.60    8.90
 -20  -1  -9   71.69    9.30
  20  -1   9   31.60   33.70
 -20   1   9   32.20   10.50
 -20   1   9   62.39    8.90
  20   1  -9   56.29   16.80
  20   1  -9   65.99    6.80
  20   1  -9   37.20   32.60
 -20  -1  -9   52.49    6.30
 -20   1  -9   63.69    6.80
 -20  -1   9   51.69    9.30
  20  -1  -9   34.70   27.60
  20  -1  -9   44.70   16.40
  20   1   9   27.50   36.10
 -20  -1   9   71.39    8.70
  20  -1  -9   60.69    6.90
  20  -3   9   65.29   31.10
 -20  -3  -9  133.29   15.70
 -20   3   9  118.09   14.10
 -20  -3  -9  112.79   10.00
  20   3  -9  101.29   30.30
  20   3  -9  108.19   16.60
  20   3   9   33.70   39.00
 -20  -3   9  124.99   14.30
  20   3   9  101.89   31.90
  20   3   9  109.39   14.30
  20  -3  -9  112.19   13.00
 -20  -3   9  126.79   17.30
 -20   3  -9  124.19   10.40
  20  -3  -9   97.79   21.40
  20   5  -9   35.40   29.80
  20  -5   9   12.90   26.70
 -20   5   9   20.90    7.50
 -20  -5  -9   20.90    9.80
 -20   5  -9   19.20    3.90
  20   5   9   15.70   31.30
  20   5   9   22.40   12.10
  20   5   9   15.40   43.40
  20  -5  -9   16.30    7.00
 -20  -5   9    5.70    8.30
  20   0 -10  817.02   61.39
  20   0 -10  727.23   55.09
  20   0 -10  613.74   75.19
 -20   0 -10  650.43   54.69
  20   2 -10    3.50   15.10
  20   2 -10   -4.60    4.70
 -20   2  10   -4.00    9.10
 -20   2  10   -3.20    7.00
  20  -2  10   10.50   31.20
 -20  -2 -10    1.80    2.90
  20   2 -10   -8.30   28.90
 -20  -2  10    5.70    9.70
  20   2  10   -1.00   36.70
  20  -2 -10    5.60    5.40
  20  -2 -10   -6.00   17.60
 -20  -2  10    1.50    7.40
 -20   2 -10    2.40    3.30
 -20  -4 -10  274.87   21.40
 -20   4  10  254.67   23.60
  20   4 -10  230.18   49.30
 -20   4 -10  262.87   21.40
 -20  -4  10  227.08   24.50
  20  -4 -10  301.27   23.20
  20  -6  10    9.10   24.40
 -20   6  10    5.50    8.40
  20   6 -10  -10.20   28.00
 -20  -6  10  -12.60    8.70
  20   6  10  -12.80   36.80
 -20   6 -10   -1.70    3.80
  20  -6 -10    4.20    7.10
  20  -1  11   39.50   34.80
 -20   1  11   40.10   10.30
 -20   1  11   66.69    9.00
  20   1 -11   57.59   32.60
  20   1 -11   73.29    7.20
  20   1 -11   62.19   17.10
 -20  -1 -11   73.49    6.90
  20  -1 -11   75.49    7.60
  20   1  11   22.40   33.80
 -20  -1  11   63.99    9.40
 -20   1 -11   75.89    7.10
 -20  -1  11   44.90   10.10
  20  -1 -11   56.09   19.50
  20   3 -11   36.70   29.20
  20  -3  11   21.70   29.50
 -20   3  11   66.29    9.40
 -20  -3 -11   79.89    7.40
  20   3  11   27.50   38.10
 -20  -3  11   82.79   10.20
  20  -3 -11   61.69    8.00
 -20   3 -11   83.89    7.50
  20  -5  11   24.70   27.70
  20   5 -11   20.20   29.70
 -20   5  11    6.50    7.50
  20  -5 -11   31.40    6.90
  20   5  11   -2.00   38.80
 -20  -5  11    9.30    9.30
  20   0 -12   32.30   47.30
  20   0  12   38.00   35.40
 -20   0 -12   65.59    7.00
  20   0 -12   70.19    7.30
 -20   0  12   64.49    8.70
  20   2 -12   50.49   30.70
  20  -2  12    7.80   27.40
 -20  -2 -12   39.30    4.50
 -20   2  12   37.10    9.10
  20  -2 -12   36.90    6.10
 -20   2 -12   40.40    4.60
  20   2  12   21.10   38.10
 -20  -2  12   56.59    9.00
 -20  -4 -12   51.49    6.20
  20  -4  12    4.20   28.10
 -20   4  12   55.39    8.30
  20   4 -12   18.30   28.60
  20  -4 -12   44.30    7.40
  20   4  12   22.10   38.40
 -20   4 -12   60.59    6.30
 -20  -4  12   44.00   10.30
 -20   1  13  161.48   17.10
  20   1 -13  197.38   15.80
  20   1 -13  124.89   36.70
  20  -1  13  104.89   34.30
 -20  -1 -13  183.38   14.50
 -20   1 -13  179.78   14.50
  20  -1 -13  198.08   15.90
 -20  -1  13  194.78   17.30
  20   1  13   98.19   40.20
 -20  -3 -13   64.39    6.90
 -20   3  13   60.69    8.60
  20   3 -13   58.59   30.60
  20  -3  13   44.40   29.70
 -20   3 -13   59.69    6.50
 -20  -3  13   43.60    9.50
  20   3  13   31.20   36.40
  20  -3 -13   62.39    7.50
  20   0 -14   -3.40    4.80
 -20   0  14    1.60    7.20
 -20   0 -14   -4.90    3.10
  20   0  14   -5.80   33.00
 -20  -2 -14  189.28   15.00
  20   2 -14  109.19   35.20
 -20   2  14  175.38   18.30
  20  -2 -14  198.98   16.40
 -20   2 -14  180.78   14.90
 -20  -2  14  173.18   17.90
  20  -1  15   -2.90   31.90
 -20  -1 -15   -1.60    3.30
 -20   1  15    1.60    6.80
 -20  -1  15   -0.20    7.00
  20   1  15   12.40   34.20
 -20   1 -15   -4.40    2.90
  20  -1 -15    0.30    5.00
 -21   1   0   -4.20    6.30
 -21  -1   0   -6.70    3.00
  21  -1   0    2.60   15.60
 -21   1   0   -1.10    3.50
 -21  -1   0   -5.80    3.20
  21  -1   0  -17.10   35.50
 -21  -1   0    6.90    7.10
 -21  -1   0    3.20    8.90
  21   1   0    5.80   34.40
 -21   1   0    3.80    7.80
  21   1   0   -7.40   11.10
 -21   1   0    7.40    4.90
 -21   3   0    0.90    7.40
  21   3   0   -8.30   35.80
  21  -3   0   15.90   19.70
  21  -3   0   14.40   29.70
 -21  -3   0    9.80    8.60
  21   3   0   11.40   10.60
 -21   3   0   -5.20   30.10
 -21   3   0   20.90   10.10
 -21  -3   0    1.90    9.70
 -21  -5   0    1.40    8.70
  21   5   0   -1.50   39.50
 -21  -5   0    3.70    8.80
 -21   5   0   16.50    7.10
  21  -5   0  -23.90   23.00
 -21   5   0    2.40   10.50
  21   5   0    7.40    9.80
  21  -5   0  -26.60   24.70
  21   7   0  -20.70   41.50
 -21  -7   0  -12.80    8.90
 -21   7   0  -14.70    8.30
 -21   0  -1   66.29    7.90
  21   0   1   56.59   36.30
 -21   0   1   46.40   10.60
  21   0  -1   39.50   14.80
 -21   0   1   62.79    9.00
 -21   0   1   88.79    7.40
 -21   0  -1   69.09    8.40
  21   0   1   64.69   15.00
  21   0  -1   96.99   36.90
 -21   0  -1   60.39   10.40
 -21   0   1   85.99    9.40
 -21   0  -1   88.09    9.00
 -21  -2  -1  660.33   53.59
 -21   2   1  522.25   64.59
 -21  -2  -1  705.93   55.29
 -21   2   1  643.94   53.39
 -21   2   1  696.83   54.69
  21   2  -1  712.63   55.69
  21  -2   1  720.63   60.39
 -21   2  -1  694.33   54.69
 -21   2  -1  606.44   53.09
  21   2   1  684.83   55.19
 -21  -2   1  689.63   53.69
  21  -2  -1  792.42   60.69
 -21  -2   1  685.73   54.99
 -21   2  -1  650.43   53.29
 -21  -4  -1    7.10    9.60
  21   4  -1    5.20   10.50
 -21   4   1    4.50    7.10
 -21   4   1    3.40    9.80
  21   4  -1   -0.60   38.80
 -21  -4  -1   12.40    8.60
  21  -4   1   13.50   28.20
  21  -4   1   48.40   22.60
  21  -4  -1  -13.90   22.60
  21  -4  -1   13.40   26.10
  21   4   1    6.70   10.80
 -21   4  -1   15.00    5.70
 -21   4  -1    3.50   10.00
 -21   4  -1   15.80    7.20
  21  -4  -1   -0.40    8.50
 -21  -4   1   13.60    9.10
  21   4   1   25.60   35.20
 -21  -4   1   16.00    8.50
 -21  -6  -1   69.09   11.50
  21   6  -1   80.99   41.90
 -21   6   1   84.69   13.30
 -21   6   1   69.89    9.90
  21  -6  -1   65.69   26.60
  21   6   1   26.00   40.90
 -21  -6   1   51.89   11.00
 -21   6  -1   84.69    8.80
 -21   6  -1   68.69    9.60
 -21  -1  -2  139.69   16.70
 -21   1   2   95.49   12.80
  21  -1   2   86.79   36.40
 -21   1   2  113.59   10.20
 -21   1   2  119.79   13.10
  21   1  -2   80.69   35.10
 -21  -1  -2   99.19   10.80
 -21  -1  -2  117.19    9.90
  21   1  -2  107.59   14.90
  21  -1   2   82.39   11.90
 -21  -1  -2  122.19   13.70
  21  -1   2  114.39   19.00
 -21   1   2  105.69   23.00
 -21   1  -2  133.89   15.60
 -21  -1   2  109.19   13.40
 -21  -1   2  111.09    9.60
  21  -1  -2  136.29   19.00
 -21  -1   2  121.59   10.80
  21   1   2  140.49   15.50
 -21   1  -2  134.99   11.30
  21  -1  -2   81.69   35.70
  21   1   2   51.09   40.60
  21  -1  -2   97.09   12.10
 -21   1  -2  113.79   12.40
 -21  -1   2  131.19   16.20
  21   3  -2   83.69   40.80
 -21  -3  -2   91.29   13.30
  21  -3   2   53.29   33.70
 -21   3   2  121.19   16.80
  21   3  -2  131.59   17.80
 -21  -3  -2  108.69   12.00
  21  -3   2  132.09   23.20
 -21   3   2   88.89   10.90
  21   3   2   71.09   37.30
  21  -3  -2  117.19   22.70
 -21   3  -2  128.69   11.60
  21  -3  -2   43.90   29.60
  21  -3  -2  119.49   11.70
 -21  -3   2   97.59   11.90
 -21   3  -2   94.79   12.30
 -21   3  -2  116.29   16.70
 -21  -3   2   95.59   13.70
  21   3   2  130.19   17.00
  21   5  -2  105.39   14.00
 -21  -5  -2   83.19   13.80
  21  -5   2  129.59   31.30
 -21   5   2  132.49   18.30
 -21   5   2   96.39   11.00
 -21  -5  -2   78.39   12.50
  21   5  -2   98.19   39.60
  21  -5   2   55.29   29.90
  21  -5  -2   83.29   26.50
 -21   5  -2  140.59   11.90
  21   5   2  136.39   17.40
 -21   5  -2   89.29   13.80
  21   5   2   58.99   40.00
  21  -5  -2  106.09   12.20
 -21  -5   2   84.49   13.60
 -21  -5   2  130.89   15.60
 -21   5  -2  104.59   11.20
 -21  -7  -2   15.00    9.60
  21   7  -2   20.50   39.00
 -21   7   2   43.80    9.30
  21  -7  -2   33.20    9.40
 -21   7  -2   28.90    6.10
  21   7   2   28.10   39.70
 -21  -7   2   32.80    9.90
  21   0  -3  286.47   29.80
  21   0   3  167.98   45.40
 -21   0  -3  276.97   22.40
 -21   0   3  285.17   23.90
 -21   0   3  248.78   22.30
 -21   0  -3  251.67   20.70
 -21   0  -3  227.98   21.30
  21   0   3  208.28   22.10
 -21   0  -3  317.77   24.50
  21   0   3  307.57   27.70
 -21   0   3  250.77   20.40
  21   0  -3  250.47   23.10
  21  -2   3    4.30   11.30
 -21  -2  -3   -1.00    2.20
 -21   2   3    2.00   17.80
  21   2  -3    4.70   37.00
 -21  -2  -3    3.00    7.70
 -21   2   3  -12.40    9.50
  21  -2   3   -6.30   32.00
 -21   2   3    8.60    7.60
 -21  -2  -3   -0.80    9.30
  21   2  -3    3.00   10.30
  21  -2   3   -8.20   18.10
 -21  -2   3   -2.20    7.90
  21  -2  -3  -10.00    7.50
 -21   2  -3    0.80    4.50
 -21  -2   3   -5.20    8.40
 -21   2  -3    0.50    8.30
  21  -2  -3    8.80   30.50
 -21   2  -3   -1.00    6.20
  21  -2  -3   -2.20   17.60
  21   2   3    6.20   38.50
  21   2   3    3.10   11.10
 -21   4   3   86.69   12.90
  21   4  -3   50.49   35.90
  21  -4   3   91.79   23.40
 -21  -4  -3   77.59   12.90
 -21   4   3  104.89   12.50
  21   4  -3   92.59   13.30
 -21  -4  -3  108.59   12.50
 -21   4  -3  112.79   16.00
 -21   4  -3   84.39   10.00
 -21  -4   3  101.79   12.10
  21  -4  -3   79.29   11.00
 -21   4  -3  102.39   10.80
  21  -4  -3   89.89   25.10
  21   4   3   71.49   36.80
 -21  -4   3   84.59   12.50
  21   4   3  105.99   13.20
  21  -6   3    4.40   25.10
 -21   6   3   -1.60   11.30
  21   6  -3  -10.40   33.10
 -21   6   3   16.80    8.20
 -21  -6  -3    8.30    9.60
 -21   6  -3    5.50    5.90
  21  -6  -3   14.00   25.70
  21   6   3  -17.50   36.30
 -21   6  -3   10.80   11.00
 -21  -6   3   -4.60    9.10
  21  -6  -3    8.60    8.40
 -21  -1  -4   39.70    8.20
  21   1  -4   31.70   35.70
 -21   1   4   36.80   16.70
  21  -1   4   25.10    8.30
 -21  -1  -4   36.60    4.10
 -21   1   4   25.30    9.20
 -21  -1  -4   41.10    9.60
 -21  -1  -4   26.60    5.80
  21   1  -4   34.90    7.50
  21  -1   4   18.00   35.00
 -21   1   4   31.40    7.50
  21  -1   4   38.90   16.70
  21   1  -4   46.10   13.70
 -21  -1   4   30.20    7.40
  21  -1  -4   22.10   34.00
  21   1   4   18.00   38.40
  21  -1  -4   41.20    7.90
 -21   1  -4   54.79    9.10
 -21   1  -4   46.60    5.00
  21  -1  -4   43.50   17.50
 -21   1  -4   31.50    6.90
  21   1   4   42.70   12.00
 -21  -1   4   32.60    9.10
  21   3  -4  100.19   13.40
 -21  -3  -4  124.79   11.70
 -21   3   4   87.59   10.70
  21  -3   4   82.49   21.40
  21  -3   4   52.99   34.50
 -21   3   4   78.99   12.30
 -21  -3  -4  111.89   15.80
  21   3  -4   69.19   37.50
  21  -3  -4   81.59   11.10
  21  -3  -4  109.59   21.30
 -21  -3   4  118.29   12.10
  21  -3  -4   55.89   26.20
 -21  -3   4   91.09   12.80
  21   3   4   39.00   35.80
 -21   3  -4  110.69   10.50
 -21   3  -4   86.49   11.60
 -21   3  -4  103.19   14.20
  21   3   4  121.69   17.10
 -21  -5  -4   13.40   10.20
  21  -5   4   18.30   28.60
 -21   5   4   12.70    7.80
 -21   5   4   19.50   10.00
  21   5  -4   18.30   34.40
 -21  -5  -4   31.80    9.60
  21   5  -4   20.90   11.00
 -21  -5   4   16.60    8.70
 -21   5  -4   26.50    5.10
  21   5   4   28.60    9.80
  21   5   4   18.20   37.80
  21  -5  -4    8.30   23.00
 -21   5  -4   32.80    8.30
  21  -5  -4   34.40    8.50
 -21  -5   4   10.40    9.30
 -21  -7  -4   20.50    9.70
 -21   7   4    9.60    8.50
  21   7  -4   29.70   35.30
  21   7   4  -18.40   38.10
  21  -7  -4   18.30    8.30
 -21  -7   4   20.70   10.00
 -21   7  -4   -1.20    5.30
  21   0  -5  876.41   72.19
  21   0  -5 1008.00   76.09
 -21   0  -5  854.61   72.09
 -21   0   5  921.71   72.19
 -21   0  -5  922.61   72.99
 -21   0  -5  930.81   71.49
  21  -2   5    4.90   16.80
 -21   2   5   10.10   10.40
  21   2  -5   10.80   11.30
 -21  -2  -5   13.80    8.40
 -21   2   5   20.40    8.20
 -21  -2  -5   15.50    7.80
  21   2  -5   18.50   35.50
  21  -2   5   42.80   33.70
 -21  -2  -5   32.70    3.30
 -21   2  -5   28.30    6.40
 -21  -2   5   23.50    9.70
 -21  -2   5   30.30    8.10
  21   2   5   30.00   38.30
  21  -2  -5   -3.80   17.70
  21   2   5   21.00   10.80
  21  -2  -5   28.30    7.60
 -21   2  -5   26.20    8.30
  21  -2  -5    3.70   29.30
 -21   2  -5   38.30    4.70
  21   4  -5   95.49   14.10
  21   4  -5   79.29   35.50
 -21   4   5  123.99   13.90
 -21  -4  -5  146.29   16.10
 -21  -4  -5  134.39   17.80
 -21  -4   5  150.08   18.50
 -21  -4   5  118.89   15.10
  21   4   5  141.89   18.00
 -21   4  -5  127.09   11.60
  21   4   5   36.20   40.20
  21  -4  -5   92.59   12.40
  21  -4  -5   79.59   24.90
  21   6  -5    4.40   32.50
 -21   6   5  -10.60    7.80
 -21  -6  -5   -9.30   10.10
  21  -6   5    9.50   26.30
  21  -6  -5    3.30    8.50
  21   6   5   -8.40   39.30
 -21   6  -5    0.10    5.10
 -21  -6   5   -3.50    9.70
  21   1  -6   11.80   35.10
 -21   1   6   16.50    9.20
  21   1  -6   17.70    6.80
 -21  -1  -6   22.40    7.30
  21  -1   6   20.70   15.30
 -21   1   6   31.30    7.50
  21   1  -6   30.80   14.00
 -21  -1  -6    7.70    8.00
 -21  -1  -6   28.50    3.50
  21  -1   6   24.60   35.50
  21  -1  -6   20.80    6.50
  21  -1  -6   16.60   31.00
 -21   1  -6   24.50    7.10
  21   1   6   18.00   11.20
 -21  -1   6   14.40    8.70
 -21   1  -6   28.50    4.00
 -21   1  -6   22.80    8.60
  21   1   6    3.80   35.60
 -21  -1   6   29.00    7.70
  21  -1  -6   37.10   17.60
 -21   3   6  127.89   17.60
 -21  -3  -6  110.19    9.90
 -21  -3  -6  121.29   17.60
  21   3  -6   63.79   34.70
  21  -3   6   69.59   34.00
 -21  -3  -6  111.99   13.00
 -21   3   6  108.39   14.10
  21  -3  -6  116.89   23.40
  21  -3  -6  126.79   14.30
  21   3   6   80.99   40.20
  21   3   6  132.29   17.80
 -21  -3   6  140.69   14.90
 -21  -3   6  121.59   17.80
 -21   3  -6  132.09   11.10
 -21  -5  -6   44.60   10.70
  21  -5   6   34.50   28.80
  21   5  -6   47.80   32.50
 -21   5   6   44.20    9.00
 -21   5   6   30.50   10.30
 -21   5  -6   56.49    6.00
  21   5   6   62.19   11.20
  21  -5  -6   43.50    9.40
 -21  -5   6   29.10   10.20
  21   5   6   15.20   38.90
 -21  -7  -6  -16.60    8.90
  21  -7   6   -1.80   22.80
  21   7  -6   10.20   33.50
 -21   7   6   -0.50    8.50
 -21  -7   6   17.40    9.60
 -21   7  -6    5.40    4.90
  21  -7  -6   -0.40    8.60
  21   7   6  -24.60   38.30
  21   0  -7   54.69    7.50
 -21   0  -7   59.49    9.70
  21   0  -7   65.09   35.80
 -21   0  -7   39.60    8.50
  21   0   7   18.40   35.10
 -21   0  -7   52.79    6.60
 -21   0   7   65.19   10.20
 -21   0   7   58.29    8.40
  21   0  -7   52.29   15.20
  21   0   7   69.79   13.10
 -21  -2  -7    7.60    8.30
  21   2  -7   11.40   12.20
  21   2  -7   22.70   33.60
 -21  -2  -7   -2.50    2.80
 -21   2   7    3.20    7.10
 -21   2   7    2.70    8.90
 -21  -2  -7    2.90    9.20
  21  -2   7  -10.60   33.60
  21  -2  -7   -2.20   26.80
  21   2   7  -26.70   37.80
  21   2   7    3.30   10.50
 -21  -2   7    9.40    9.80
  21  -2  -7    6.60    6.40
 -21   2  -7    7.00    3.70
 -21  -2   7    8.90    7.70
  21  -2  -7  -18.90   17.10
 -21  -4  -7   87.89   11.80
 -21   4   7   60.59   12.40
  21   4  -7   99.79   14.40
  21   4  -7   54.29   33.10
  21  -4   7   33.00   32.20
 -21   4   7  104.49   12.70
  21  -4  -7   89.09    9.90
  21   4   7   30.60   39.90
 -21  -4   7   62.49   10.90
  21   4   7  120.39   16.20
 -21  -4   7   74.39   13.50
  21  -4  -7   93.09   23.80
 -21   4  -7  104.79    9.20
 -21  -6  -7    0.50    8.90
  21   6  -7   -2.10   33.40
  21  -6   7   -7.70   25.50
 -21   6   7    3.70    8.50
  21   6   7  -30.80   37.20
  21  -6  -7   -1.10    8.60
 -21  -6   7   15.20   10.00
 -21   6  -7    5.80    4.40
  21   1  -8  103.99   11.60
  21  -1   8   44.30   33.70
 -21  -1  -8  105.89    8.90
 -21   1   8  109.09   15.50
 -21   1   8   99.19   10.40
  21   1  -8  120.59   18.60
 -21  -1  -8  122.39   13.70
  21   1  -8   89.89   35.60
 -21   1  -8  108.49    9.20
  21  -1  -8   81.59   17.80
 -21  -1   8   86.49   10.80
  21  -1  -8   91.89    9.90
  21  -1  -8   63.39   30.40
 -21  -1   8   75.29   12.30
  21   1   8  108.29   14.40
  21   1   8   52.49   37.50
  21   3  -8   50.69   14.10
 -21   3   8   39.70   10.50
 -21  -3  -8   45.00   10.20
  21   3  -8   49.70   32.10
 -21   3   8   42.20    8.40
 -21  -3  -8   64.19    6.30
  21  -3   8   27.60   31.40
 -21  -3   8   61.79    9.20
  21   3   8   73.49   11.90
 -21  -3   8   49.00   11.10
  21  -3  -8   50.69   21.70
 -21   3  -8   61.69    5.80
  21  -3  -8   50.69    8.00
  21   3   8   42.60   39.80
  21  -5   8   40.80   29.30
 -21  -5  -8   45.10   10.10
 -21   5   8   46.00    9.10
  21   5  -8   23.30   29.40
 -21  -5   8   43.40   10.40
  21   5   8   63.89   30.60
  21   5   8   20.40   40.00
  21   5   8   60.49   12.10
  21  -5  -8   53.39    8.60
 -21   5  -8   48.70    5.70
  21   0  -9    7.80   17.20
  21   0  -9   -7.60   36.10
 -21   0   9   12.80    8.50
  21   0   9   52.19   34.90
 -21   0   9   13.80    7.40
  21   0  -9   20.80    5.60
 -21  -2  -9  237.18   20.80
 -21   2   9  249.88   23.40
 -21   2   9  306.57   26.30
  21   2  -9  293.17   30.70
 -21  -2  -9  248.78   24.10
  21   2  -9  197.98   41.50
  21  -2  -9  296.87   22.60
 -21  -2   9  246.18   23.10
 -21   2  -9  272.87   21.00
  21  -2  -9  250.57   35.90
  21  -4   9   -3.60   31.00
 -21   4   9   -4.70    7.00
  21   4  -9   -3.80   28.90
 -21  -4  -9   -2.30    9.00
  21   4   9    1.10   37.50
 -21   4  -9   -3.10    3.40
  21   4   9  -45.40   34.80
 -21  -4   9    1.30    8.70
  21  -4  -9    3.10    6.70
 -21  -6  -9   10.00   10.20
  21   6  -9    8.30   28.60
  21  -6   9   -8.20   24.90
 -21   6   9   16.80    8.60
  21  -6  -9   11.80    7.80
  21   6   9  -23.50   41.40
 -21   6  -9   19.70    4.20
 -21  -6   9   -2.00    9.50
  21  -1  10   14.60   35.20
  21   1 -10   17.90    5.40
  21   1 -10   19.80   15.50
 -21   1  10    4.20    6.90
  21   1 -10    9.00   34.00
 -21   1  10    0.20    8.40
 -21  -1 -10    3.90    3.10
 -21   1 -10   13.00    3.40
 -21  -1  10   14.30    7.00
  21   1  10   28.00   34.90
  21  -1 -10   12.60   15.70
 -21  -1  10   10.80    8.30
  21  -1 -10   13.00    5.50
  21  -3  10    4.50   30.10
  21   3 -10   -5.10   30.60
 -21  -3 -10   -6.10    9.70
 -21  -3 -10    2.60    3.30
 -21   3  10   -2.40    7.00
 -21  -3  10   -8.00    8.10
  21  -3 -10    2.40    6.10
 -21   3 -10    2.90    3.20
  21   3  10  -19.60   37.20
 -21   5  10    3.90    7.50
  21   5 -10    5.90   30.40
  21  -5  10   18.10   26.50
 -21   5 -10    1.20    3.60
 -21  -5  10   -5.30    8.70
  21  -5 -10    3.70    6.90
  21   5  10   -2.40   37.40
 -21   0  11   -3.80    7.10
 -21   0  11    7.50    9.30
  21   0 -11  -14.00   33.80
  21   0 -11    2.10    5.10
 -21   0 -11    3.70    3.10
  21   0  11   11.80   34.80
 -21  -2 -11   61.49    6.50
 -21   2  11   60.79    9.40
  21  -2  11    9.10   30.60
  21   2 -11   41.50   32.20
 -21  -2  11   47.60    8.80
  21   2  11   10.90   37.70
  21  -2 -11   66.59    7.30
 -21   2 -11   61.79    6.80
  21   4 -11    5.10   28.70
 -21   4  11    2.80    7.60
  21  -4  11   10.80   29.60
 -21  -4  11    1.50    9.70
  21  -4 -11    5.30    6.50
  21   4  11    1.70   38.60
 -21   4 -11    2.60    3.10
  21   1 -12   59.49    7.80
 -21  -1 -12   78.49    7.10
  21  -1  12   21.40   33.70
 -21   1  12   48.90    9.20
  21   1 -12   70.29   35.70
 -21   1 -12   88.39    7.30
 -21  -1  12   80.49    9.80
  21   1  12   15.70   33.80
  21  -1 -12   66.29    7.90
  21  -3  12   11.80   29.50
  21   3 -12   48.40   30.70
 -21   3  12   43.20    9.20
 -21  -3  12   53.79    9.90
  21  -3 -12   58.99    7.80
 -21   3 -12   77.99    6.90
  21   3  12   43.40   38.90
 -21   0 -13   37.20    4.50
  21   0 -13   39.60    6.10
 -21   0  13   47.50    7.80
  21   0  13   23.80   34.50
 -21   2  13    7.00    7.40
 -21  -2 -13   -0.40    3.30
  21   2 -13   -2.90   32.10
  21  -2  13   -4.00   26.50
  21  -2 -13   -2.90    5.30
 -21   2 -13   -3.60    3.00
 -21  -2  13    7.20    7.70
  21   2  13   -2.60   34.70
 -21  -4  13   11.90    9.10
 -21  -1 -14    2.90    3.30
  21  -1  14    6.80   31.50
 -21   1  14    0.20    6.80
  21   1  14   -2.50   36.10
 -21  -1  14    4.40    7.00
  21  -1 -14    8.80    5.40
 -21   1 -14   13.10    3.20
  21   0 -15  163.48   15.30
 -21   0  15  125.89   15.80
 -21   0 -15  158.18   12.80
 -22   0   0  547.65   44.40
 -22   0   0  587.44   45.20
 -22   0   0  550.24   44.30
  22   0   0  411.36   70.69
 -22   0   0  582.74   46.40
  22   0   0  640.94   49.50
 -22  -2   0   -2.10    8.40
  22   2   0   -5.80   11.80
  22  -2   0    6.20   18.40
  22  -2   0   22.30   32.50
 -22   2   0   -0.20    5.40
  22   2   0    0.60   35.10
 -22  -2   0    6.60    9.80
 -22   2   0   -5.80    8.60
 -22   2   0    5.50    6.90
 -22   4   0  172.08   20.20
  22   4   0  155.68   19.60
 -22  -4   0  155.08   19.00
 -22  -4   0  149.19   17.60
 -22   4   0  149.09   16.00
  22   4   0   68.79   41.80
  22  -4   0  173.38   28.30
  22   6   0    4.90   40.70
 -22   6   0    3.80    7.50
 -22  -6   0    3.10   10.00
 -22   1   1   76.19   11.40
 -22  -1  -1   94.59   10.90
  22   1  -1  139.19   16.00
 -22  -1  -1   91.29   12.90
  22   1  -1   31.10   37.00
 -22  -1  -1   96.89    8.90
 -22   1   1   92.09   10.30
  22  -1   1   25.00   36.00
  22  -1   1   96.79   18.70
 -22  -1   1  103.49   12.30
 -22  -1   1   91.99    9.20
  22   1   1  124.59   14.80
  22  -1  -1  103.79   19.10
 -22   1  -1  100.79   11.60
  22   1   1   63.09   39.70
 -22   1  -1  109.39   15.00
 -22  -1   1   80.29   11.90
 -22   1  -1  101.49   10.40
  22  -1  -1   26.10   37.10
  22   3  -1   96.09   14.30
  22   3  -1   54.49   38.90
  22  -3   1   78.49   22.20
 -22  -3  -1  106.69   12.10
 -22   3   1   75.99   10.50
 -22   3   1   88.49   13.00
 -22  -3  -1   79.79   12.60
  22  -3   1   58.29   32.90
 -22   3  -1   92.49   11.20
  22  -3  -1   68.89   22.10
 -22  -3   1  112.79   13.30
  22  -3  -1   36.10   31.30
  22   3   1   81.79   13.70
 -22   3  -1   95.19   10.00
 -22  -3   1  120.99   16.20
 -22   3  -1  120.69   16.00
  22   3   1   57.69   37.60
 -22  -5  -1   44.00   11.40
 -22  -5  -1   51.39   10.00
  22  -5   1   12.80   27.00
  22  -5   1   28.00   27.90
 -22   5   1   32.40   11.50
  22   5  -1   41.80   41.70
 -22   5   1   28.90    8.00
  22   5   1   56.29   11.50
 -22   5  -1   45.90    8.30
 -22  -5   1   33.80   10.20
 -22   5  -1   47.90    6.60
  22   5   1   31.80   38.20
  22  -5  -1   39.50   25.70
 -22   5  -1   37.90   11.30
 -22  -5   1   32.50   11.50
 -22  -7  -1    8.40   10.20
  22   7  -1    6.50   42.30
 -22   7   1    9.70    8.40
  22   7   1   10.00   42.00
 -22   7  -1   -8.10    9.70
 -22   7  -1    4.60    6.10
 -22  -7   1   13.50   10.90
  22   0  -2  325.67   31.40
 -22   0   2  297.27   26.50
 -22   0   2  296.97   22.90
 -22   0  -2  305.07   26.50
  22   0  -2  208.08   44.20
 -22   0  -2  286.07   23.20
 -22   0   2  309.57   24.50
  22   0   2  185.78   45.90
 -22   0  -2  317.97   24.50
  22   0   2  312.87   30.60
 -22   0  -2  245.98   23.30
 -22   2   2   20.70    8.80
  22  -2   2   31.20   19.20
 -22   2   2   16.40    6.80
 -22  -2  -2   16.70    2.70
 -22  -2  -2   21.50    8.10
  22   2  -2   23.80   11.50
  22   2  -2   35.70   36.80
 -22  -2  -2   16.30    9.80
  22  -2   2   25.80   33.20
 -22   2  -2   15.80    6.70
 -22  -2   2   11.60    8.10
  22  -2  -2   36.50   32.90
  22  -2  -2   15.50   18.20
  22   2   2    9.30   10.80
  22   2   2   -3.40   35.80
  22  -2  -2    2.00    7.80
 -22   2  -2   12.20    4.80
 -22   2  -2   16.20    8.10
 -22  -2   2   20.10   10.20
 -22   4   2  109.69   14.60
  22   4  -2   94.49   42.20
  22   4  -2  131.29   19.30
  22  -4   2   70.09   32.30
 -22  -4  -2  125.89   17.90
 -22  -4  -2  143.19   16.00
 -22   4   2  120.59   18.70
  22  -4   2  139.49   25.60
  22  -4  -2  134.49   26.80
  22   4   2  123.49   18.50
 -22   4  -2  146.39   13.20
  22  -4  -2  153.98   16.40
 -22   4  -2  112.49   14.30
 -22  -4   2  132.49   16.50
 -22  -4   2  134.99   18.50
 -22   4  -2  155.98   18.80
  22   4   2   87.69   38.40
 -22   6   2    1.20   10.90
 -22  -6  -2  -10.70    9.60
  22   6  -2   -6.00   39.80
 -22   6   2    5.30    7.80
  22  -6   2  -34.90   43.70
  22   6   2    2.10   37.10
 -22  -6   2   19.60    9.80
  22  -6  -2    8.20    9.20
  22  -6  -2   11.00   27.20
 -22   6  -2   -0.60    8.00
 -22   6  -2   -0.60    5.50
 -22  -1  -3   88.19   11.80
  22  -1   3   96.29   18.50
  22  -1   3   41.20   10.10
  22  -1   3   27.20   36.40
 -22  -1  -3   79.69    9.30
  22   1  -3   80.19   14.20
 -22  -1  -3   66.49    7.10
 -22   1   3   76.29    9.00
 -22   1   3   54.39   10.20
  22   1  -3   74.69   35.10
  22   1   3   66.09   13.00
  22  -1  -3   68.29    9.60
 -22   1  -3   70.39    8.40
  22   1   3   39.80   38.80
 -22  -1   3   47.00   10.20
 -22   1  -3   69.89   10.20
  22  -1  -3   38.50   34.80
  22  -1  -3   73.89   19.00
 -22   1  -3   84.69    8.80
 -22  -1   3   91.19    9.60
  22  -3   3   44.30   33.90
 -22   3   3   63.69   11.30
 -22  -3  -3   51.59   10.10
  22  -3   3   46.50   22.00
  22   3  -3   66.19   12.00
 -22  -3  -3   60.39   11.60
  22   3  -3   62.29   39.60
 -22   3   3   72.69    9.20
  22   3   3   73.99   11.90
 -22  -3   3   65.09   11.10
 -22   3  -3   58.19    8.50
 -22  -3   3   69.49   10.50
 -22   3  -3   75.99   10.60
  22  -3  -3   68.79    9.50
  22  -3  -3   25.20   27.80
  22   3   3   35.70   38.20
 -22   3  -3   58.99    7.20
  22  -3  -3   53.69   22.00
 -22  -5  -3   30.20    9.90
 -22   5   3   23.50   10.70
  22   5  -3   31.00   38.10
  22  -5   3   14.50   29.30
 -22   5   3   29.60    7.80
 -22  -5  -3   26.70   10.00
  22  -5  -3   42.20    8.80
 -22   5  -3   36.90    8.50
 -22  -5   3   26.80   10.10
  22   5   3    3.70   36.10
 -22  -5   3   44.30   10.60
  22   5   3   45.40   11.10
 -22   5  -3   43.10    5.70
  22  -5  -3   21.00   24.00
 -22  -7  -3   -2.40    9.70
 -22   7   3   19.30    8.40
  22   7  -3   -5.10   38.30
 -22  -7   3   15.40   10.40
 -22   7  -3    6.50    5.00
  22   7   3  -12.40   39.00
  22  -7  -3   12.50    9.10
 -22   0  -4   50.69   10.00
  22   0  -4   40.60   16.20
 -22   0  -4   40.30    7.60
  22   0  -4   31.50   33.90
 -22   0   4   43.30    7.30
  22   0   4   34.80   13.50
 -22   0   4   32.60    8.20
  22   0   4   27.20   36.20
  22   0  -4   27.00    7.80
 -22   0  -4   28.00    4.50
 -22  -2  -4  595.14   45.60
  22  -2   4  637.84   54.79
 -22  -2  -4  507.05   46.90
 -22   2   4  563.14   46.90
 -22  -2  -4  580.14   48.50
  22   2  -4  450.55   75.59
  22   2  -4  575.44   49.30
 -22   2   4  635.44   48.60
  22  -2  -4  626.94   55.19
 -22   2  -4  533.65   46.40
 -22   2  -4  603.14   47.70
 -22   2  -4  562.64   46.00
  22   2   4  633.54   49.00
  22  -2  -4  601.34   47.20
 -22  -2   4  591.54   48.00
 -22  -2   4  620.64   47.00
 -22  -4  -4  -14.50    9.20
  22  -4   4  -11.80   30.00
  22   4  -4    5.40    9.60
 -22   4   4    5.90    7.10
 -22  -4  -4   10.10    9.20
 -22   4   4    0.40    9.90
  22   4  -4   30.90   35.00
  22  -4  -4   -8.90   24.40
 -22   4  -4    4.50    6.90
  22   4   4   32.10   37.50
 -22  -4   4   -5.40    9.90
  22   4   4    2.00    9.90
 -22  -4   4    3.90    7.90
 -22   4  -4    2.10    4.80
  22  -4  -4   -0.70    8.00
 -22  -6  -4   69.29   11.30
  22  -6   4   30.50   28.10
  22   6  -4   52.19   36.90
 -22   6   4   82.49   10.50
 -22   6  -4  100.29    9.90
 -22  -6   4   72.29   12.00
  22  -6  -4   83.29   10.70
  22   6   4   33.30   40.10
  22  -1   5   -3.10   33.70
 -22  -1  -5    1.90    8.90
 -22  -1  -5    4.00    3.10
  22   1  -5   13.60   36.40
  22   1  -5    3.80    6.90
  22   1  -5   19.90   14.30
 -22   1   5    1.50    8.80
 -22   1   5   -1.20    6.60
  22  -1   5   -9.80   15.90
 -22  -1  -5    5.10    7.20
  22   1   5   21.80   39.40
 -22  -1   5    1.60    7.40
 -22   1  -5    6.40    6.80
  22  -1  -5   13.00   16.80
  22   1   5    0.60   11.90
 -22  -1   5    8.40    8.40
  22  -1  -5   -7.70    7.40
 -22   1  -5   14.10    8.90
 -22   1  -5    9.60    3.80
  22  -1  -5   -2.10   34.30
  22   3  -5  -18.30   33.20
 -22  -3  -5    7.10    8.70
  22  -3   5    8.90   33.70
 -22  -3  -5   -1.20    2.50
 -22   3   5    7.20    9.90
 -22  -3  -5   -0.10    9.20
 -22   3   5   -3.70    6.80
  22   3  -5  -10.00   10.70
  22   3   5   -1.40   10.50
  22  -3  -5    8.20   20.60
 -22  -3   5   14.70    9.00
 -22   3  -5    1.30    4.20
  22  -3  -5   -7.00    7.70
  22   3   5  -20.60   36.60
 -22   3  -5    4.30    6.50
  22  -3  -5  -27.50   25.40
 -22  -3   5    2.10    9.70
 -22  -5  -5    0.50    9.50
  22   5  -5    4.20   33.00
 -22   5   5    3.60    7.00
 -22   5   5    9.30    9.80
  22  -5   5   -3.30   29.70
 -22   5  -5   -5.40    4.90
  22   5   5   -9.30    9.60
 -22  -5   5   -1.70    9.90
  22  -5  -5    2.60    8.40
  22   5   5   -5.50   36.10
 -22   7   5   -0.30    8.60
 -22  -7  -5    2.90   10.40
  22   7  -5   17.30   34.60
  22  -7  -5   11.70    8.80
  22   7   5  -20.30   41.00
 -22  -7   5   -9.80    9.70
 -22   7  -5    0.30    5.00
  22   0   6    4.10   13.30
  22   0  -6  -10.70    6.80
 -22   0  -6   -7.00    8.60
  22   0  -6   14.90   16.10
 -22   0  -6    2.20    3.20
 -22   0  -6    0.70    6.80
  22   0   6   -9.40   34.90
 -22   0   6    0.70    7.20
 -22   0   6   -5.90    8.50
  22   0  -6    6.80   33.60
 -22   2   6  245.18   24.30
 -22  -2  -6  278.17   24.70
  22   2  -6  178.18   44.90
  22  -2   6  182.28   41.20
  22   2  -6  282.67   29.60
 -22  -2  -6  273.27   21.70
 -22   2   6  310.97   26.70
 -22  -2  -6  280.67   26.30
 -22   2  -6  275.07   22.30
 -22  -2   6  272.27   26.00
  22  -2  -6  295.97   24.30
  22   2   6  304.17   27.80
 -22  -2   6  291.27   24.30
  22  -2  -6  285.17   36.80
 -22  -4  -6   13.20    8.80
 -22   4   6   -6.00   10.00
  22  -4   6   -0.90   31.00
 -22   4   6    7.90    7.70
  22   4  -6  -21.70   32.80
 -22  -4  -6   -0.50    9.70
 -22  -4   6   13.90    9.20
 -22  -4   6    0.90   10.70
  22  -4  -6  -13.40   22.30
 -22   4  -6    2.10    4.50
  22   4   6   15.70   38.50
  22   4   6   -3.10   10.20
  22  -4  -6    2.00    8.00
 -22   6   6   39.30    8.90
  22  -6   6   21.00   27.60
  22   6  -6   29.40   33.60
 -22  -6  -6   43.20   10.60
 -22   6  -6   50.99    5.70
  22   6   6   36.20   41.40
  22  -6  -6   42.50    9.60
 -22  -6   6   32.40   10.40
 -22  -1  -7  183.58   14.00
 -22   1   7  171.18   16.60
 -22  -1  -7  174.88   19.40
  22  -1   7   87.39   36.60
  22   1  -7  181.68   21.10
 -22  -1  -7  186.28   17.70
 -22   1   7  170.48   19.40
  22   1  -7  130.79   41.10
  22   1  -7  176.88   17.00
 -22   1  -7  174.48   14.30
  22  -1  -7  202.18   23.20
  22   1   7   91.49   40.90
  22  -1  -7  117.19   35.20
  22   1   7  162.28   22.20
 -22  -1   7  166.98   16.50
  22  -1  -7  179.38   16.70
 -22  -1   7  153.58   19.10
  22   3  -7  164.38   23.70
 -22  -3  -7  183.48   14.20
  22   3  -7  165.38   38.90
 -22   3   7  158.98   17.30
 -22   3   7  174.08   20.20
 -22  -3  -7  179.08   18.70
 -22  -3   7  147.19   18.10
 -22  -3   7  190.48   20.90
 -22   3  -7  168.68   14.90
  22  -3  -7  144.59   25.30
  22   3   7  188.68   21.30
  22  -3  -7  215.98   17.70
  22   3   7   76.29   43.90
 -22  -5  -7   61.99   11.20
 -22   5   7   64.89    8.90
  22   5  -7   62.89   35.90
  22  -5   7   13.70   29.70
  22  -5  -7   67.29   10.00
  22   5   7   32.70   39.80
 -22  -5   7   66.39   11.50
  22   5   7   26.90   29.40
 -22   5  -7   77.19    8.30
  22   0  -8   87.49   38.60
 -22   0  -8  154.98   13.10
 -22   0   8  158.18   18.40
  22   0  -8  202.88   28.40
 -22   0   8  141.59   15.80
  22   0  -8  176.68   15.50
 -22   2   8   22.00    8.20
  22  -2   8    4.80   34.60
 -22  -2  -8   21.10    3.40
 -22   2   8   24.70   10.70
  22   2  -8   24.20   34.70
 -22  -2  -8   23.80    8.60
  22   2  -8   16.30   15.00
 -22   2  -8   24.40    4.00
  22  -2  -8   22.90   18.40
  22   2   8    6.50   37.60
  22   2   8   22.70   18.90
  22  -2  -8   19.80    6.60
 -22  -2   8   32.20   10.40
 -22  -2   8   12.30    8.30
  22   4  -8   44.00   33.10
  22  -4   8   19.00   31.30
 -22   4   8   54.69    8.80
 -22  -4  -8   47.00   10.50
  22   4   8   55.09   30.50
  22   4   8   17.00   41.10
 -22  -4   8   54.89   10.30
  22  -4  -8   48.50    8.30
  22   4   8   46.80   12.10
 -22   4  -8   50.29    5.80
 -22   6   8    8.20    7.50
  22  -6   8   -8.30   26.20
 -22  -6  -8   -6.60    9.20
  22   6  -8   -7.20   32.00
  22   6   8   44.00   42.70
 -22   6  -8    9.80    4.30
 -22  -6   8   13.30    9.90
  22  -6  -8    7.10    8.90
 -22   1   9   10.90    7.50
 -22   1   9   18.80    9.50
  22   1  -9   17.40    6.30
  22   1  -9   17.20   35.10
 -22  -1  -9   24.80    3.70
  22   1  -9   33.00   15.90
  22  -1   9  -14.90   33.50
 -22  -1  -9   12.20   10.90
 -22  -1   9   20.30    8.60
 -22  -1   9   20.90    7.10
  22   1   9   -2.50   35.00
  22  -1  -9   23.80   16.30
  22  -1  -9   30.80    6.40
  22  -1  -9   26.80   29.40
 -22   1  -9   15.90    3.80
 -22   3   9   18.70    7.00
 -22  -3  -9    6.80    9.10
  22  -3   9   -1.90   29.10
 -22  -3  -9   24.40    3.70
  22   3  -9    5.50   32.00
  22  -3  -9   32.70    6.90
 -22   3  -9   15.30    3.80
  22   3   9    6.60   37.40
 -22  -3   9   -1.90    8.10
  22   5  -9  -26.10   30.70
 -22  -5  -9    3.50    9.60
  22  -5   9    9.10   28.00
 -22   5   9   12.30    7.00
  22  -5  -9   -4.70    7.50
 -22  -5   9   -0.60    9.10
 -22   5  -9   -2.40    3.80
  22   5   9  -11.50   41.90
  22   0 -10  562.84   41.80
 -22   0  10  478.25   43.60
  22   0 -10  387.66   72.09
 -22   0  10  516.55   42.20
 -22   0 -10  564.44   41.00
 -22  -2 -10   38.00    4.30
  22  -2  10   26.00   32.50
  22   2 -10    9.00   34.60
 -22   2  10   26.00    8.50
 -22  -2  10   45.20    8.60
 -22   2 -10   35.40    4.50
  22  -2 -10   35.60    6.90
  22   2  10    0.40   36.10
 -22  -4 -10  187.98   22.80
  22   4 -10  183.18   39.40
 -22   4  10  186.28   20.20
 -22   4 -10  221.08   17.50
  22  -4 -10  256.37   20.20
 -22  -4  10  207.78   21.20
 -22   1  11    2.70    6.50
  22   1 -11    2.10    6.20
  22  -1  11  -12.30   34.10
  22   1 -11   -3.90   35.40
 -22  -1 -11    7.10    3.10
  22   1  11    1.30   33.30
 -22  -1  11    3.60    7.00
 -22   1 -11   12.10    3.30
  22  -1 -11   12.10    5.80
 -22  -3 -11   15.50    3.70
  22   3 -11   33.70   32.80
 -22   3  11   13.60    7.60
  22  -3  11    6.90   28.40
 -22   3 -11    7.90    3.40
 -22  -3  11   11.20    8.60
  22   3  11    6.90   36.70
  22  -3 -11    4.90    6.50
 -22   5  11    3.90    7.70
 -22  -5  11    5.30    9.00
  22   0 -12   59.99    6.90
  22   0  12    2.90   35.60
 -22   0  12   33.80    8.60
 -22   2  12   -4.80    8.10
  22   2 -12   16.90   34.10
 -22  -2 -12    3.30    3.40
  22  -2  12  -15.60   29.40
 -22   2 -12    3.80    3.20
 -22  -2  12   -6.00    7.40
  22  -2 -12   16.30    6.00
  22   2  12   28.60   37.80
  22   4 -12   -4.00   29.70
  22  -4  12   15.40   28.20
 -22   4  12   28.70    8.80
  22   4  12   -2.30   36.90
  22  -4 -12   38.90    7.50
 -22  -4  12   33.10    9.70
 -22   4 -12   41.00    4.60
 -22  -1 -13   75.59    6.70
 -22   1  13   39.90    8.90
  22  -1  13   30.30   31.80
  22  -1 -13   61.39    7.40
 -22  -1  13   61.49    8.60
  22   1  13    6.00   36.80
  22  -3  13   17.70   28.50
  22   3 -13   21.10   32.40
 -22  -3 -13   27.50    4.30
 -22   3  13   20.40    7.90
  22  -3 -13   23.40    6.70
 -22  -3  13   27.50    8.70
 -22   3 -13   23.90    3.90
  22   3  13    3.10   36.20
 -22   0 -14   -6.70    3.20
 -22   0  14    2.40    6.90
  22   0 -14  -10.90    7.20
  22   0  14  -14.80   33.50
  22  -2  14   -1.80   26.70
 -22   2  14   43.30    8.30
  22   2  14   18.60   38.40
 -23   1   0    2.70    6.80
 -23  -1   0    4.50    7.40
 -23   1   0    1.60    5.10
  23   1   0    1.10   12.30
 -23  -1   0   -5.10    9.00
 -23  -1   0   -5.20    3.40
  23   1   0  -27.70   37.90
  23  -1   0  -28.40   35.90
  23  -1   0   -7.80   17.00
 -23   1   0   11.10    9.10
  23  -3   0   -4.60   31.50
  23  -3   0    5.70   20.90
  23   3   0   -4.30   11.80
 -23  -3   0  -13.00    8.50
 -23   3   0    6.90    6.80
 -23   3   0   -5.80    8.80
 -23  -3   0   -7.40    9.00
  23   3   0  -32.80   34.30
  23  -5   0    0.50   29.30
 -23  -5   0    7.90    9.60
 -23  -5   0   -7.70    9.10
  23   5   0  -23.90   39.20
  23  -5   0  -20.70   26.20
 -23   5   0    3.50    7.40
 -23   5   0    8.80   10.40
 -23   7   0   -7.20    8.20
  23   7   0   29.40   42.50
 -23  -7   0    9.00    9.20
 -23   7   0    0.20    6.20
  23   0   1   36.40   37.10
 -23   0  -1   12.00    8.50
 -23   0  -1   13.60    7.10
 -23   0   1   21.60    5.20
  23   0  -1   10.40   13.80
 -23   0   1   20.10    7.10
 -23   0   1    3.00    8.60
  23   0   1    4.10   14.30
 -23   0  -1   23.10    4.50
  23   0  -1   35.40   39.10
 -23  -2  -1  594.84   51.09
  23  -2   1  759.82   59.49
  23   2  -1  649.34   53.29
 -23   2   1  612.34   52.29
 -23  -2  -1  705.63   52.89
 -23   2   1  550.84   50.89
 -23   2  -1  704.23   52.29
 -23   2  -1  580.84   50.89
 -23  -2   1  667.33   52.79
 -23   2  -1  600.64   50.59
  23   2   1  677.83   53.39
 -23  -2   1  594.74   51.39
  23  -2  -1  752.02   59.49
 -23  -4  -1  -17.20    8.60
  23  -4   1   -6.60   30.10
  23   4  -1   -3.60   10.90
 -23   4   1   -5.00    7.40
 -23   4   1   -2.00   10.30
  23   4  -1   -1.10   39.40
  23  -4   1    9.10   24.20
 -23  -4  -1   10.20    9.80
 -23   4  -1    6.50   10.00
 -23  -4   1   -1.60    9.70
 -23  -4   1   -4.90    8.60
 -23   4  -1    2.60    5.40
 -23   4  -1   -1.10    7.30
  23  -4  -1   30.10   24.50
  23  -4  -1  -10.90   27.20
  23   4   1  -13.70   10.60
  23   4   1   24.70   35.40
 -23  -6  -1   52.69   11.30
 -23   6   1   59.19    9.40
  23   6  -1   43.30   42.60
 -23   6  -1   99.39   10.70
  23   6   1   25.20   38.80
 -23   6  -1   75.39    9.90
 -23  -6   1   59.49   12.00
  23  -1   2  343.07   33.80
  23  -1   2  170.68   43.20
 -23  -1  -2  254.67   21.10
 -23   1   2  264.87   25.30
 -23  -1  -2  272.27   23.40
 -23   1   2  236.28   23.10
  23   1  -2  267.07   28.40
 -23  -1  -2  279.97   25.80
 -23   1  -2  275.67   25.00
 -23   1  -2  259.47   21.80
 -23  -1   2  262.07   21.50
 -23  -1   2  247.48   23.20
  23  -1  -2  310.47   34.10
  23   1   2  315.87   27.30
 -23  -1   2  256.37   25.10
 -23   1  -2  259.87   22.90
  23   3  -2   86.99   42.30
 -23  -3  -2  192.58   18.60
  23  -3   2  142.39   26.30
 -23  -3  -2  191.58   20.50
  23   3  -2  167.08   22.00
 -23   3   2  164.58   17.60
 -23   3   2  170.18   20.80
 -23   3  -2  153.78   16.90
 -23   3  -2  182.18   16.00
 -23   3  -2  198.88   20.10
  23  -3  -2  193.78   26.60
 -23  -3   2  160.38   18.20
  23  -3  -2  207.28   19.00
  23   3   2  162.58   21.80
 -23  -3   2  191.18   21.50
  23  -5   2   48.20   30.80
 -23  -5  -2   69.79   13.30
 -23  -5  -2   91.59   12.80
  23   5  -2   81.09   42.50
 -23   5   2   84.09   14.10
 -23   5   2  106.99   13.30
 -23   5  -2   99.89   11.50
 -23  -5   2  118.89   13.10
  23   5   2   44.30   37.30
  23  -5  -2  122.39   27.70
 -23   5  -2  142.99   11.80
  23  -5  -2  115.39   12.10
 -23   7   2   32.60    8.60
 -23  -7  -2   42.40   11.10
  23   7  -2   43.30   43.00
 -23   7  -2   26.30    6.50
  23   7   2   20.40   38.20
 -23  -7   2   28.80   10.60
 -23   0  -3  283.57   26.60
 -23   0   3  306.47   26.50
 -23   0   3  334.07   28.50
 -23   0  -3  273.77   25.00
  23   0  -3  359.76   34.20
  23   0   3  327.17   32.50
 -23   0  -3  348.97   28.60
 -23   2   3   -7.50    7.20
 -23   2   3    4.20    9.30
 -23  -2  -3    2.80    2.40
  23   2  -3   17.90   37.90
 -23  -2  -3    5.80    8.20
  23  -2   3    1.80   34.90
  23   2  -3    3.30   10.40
 -23  -2  -3    6.00   10.10
 -23  -2   3    2.40    8.90
 -23   2  -3    7.90    6.50
 -23   2  -3    0.70    4.70
 -23   2  -3   12.90    8.70
  23   2   3   10.30   11.00
  23  -2  -3    1.30    8.00
 -23  -2   3    1.80    7.70
  23  -2  -3    7.60   18.80
  23   2   3   23.90   39.50
  23  -2  -3   12.60   33.00
  23   4  -3   90.99   43.10
 -23  -4  -3  163.18   20.70
 -23   4   3  146.29   19.90
  23   4  -3  172.18   19.60
 -23   4   3  129.89   15.70
 -23  -4  -3  126.09   17.60
 -23   4  -3  154.68   14.00
  23  -4  -3  145.09   28.20
 -23  -4   3  163.58   19.80
 -23   4  -3  127.19   15.50
 -23  -4   3  151.38   17.40
  23   4   3  180.48   19.90
  23  -4  -3  145.09   17.70
  23   6  -3   54.19   40.00
 -23   6   3    9.80    7.50
 -23  -6  -3   18.80    9.30
  23  -6   3    9.40   30.20
 -23   6  -3    7.30    5.00
 -23  -6   3   10.50    9.00
  23  -6  -3    7.70    8.40
  23   6   3   12.40   38.10
 -23  -1  -4   43.60    4.50
 -23  -1  -4   48.50    9.00
  23   1  -4   10.50   36.20
  23  -1   4   66.49   18.50
  23  -1   4   11.30   36.20
 -23  -1  -4   44.20   10.40
 -23   1   4   27.80    9.70
 -23   1   4   32.40    8.10
  23   1  -4   43.00   14.40
 -23  -1   4   30.60    9.60
  23  -1  -4   47.10    8.40
  23  -1  -4   24.90   35.10
  23   1   4   52.09   12.60
 -23  -1   4   39.90    7.90
  23  -1  -4   52.89   18.40
 -23   1  -4   36.70    7.80
 -23   1  -4   42.10    5.20
  23   1   4   28.60   40.20
 -23   1  -4   45.10    9.70
 -23   3   4   71.89   12.00
 -23  -3  -4   71.69   10.30
  23   3  -4   88.29   13.50
 -23  -3  -4   60.89   11.40
  23   3  -4   50.59   41.20
 -23   3   4   63.59    9.50
  23  -3   4   19.40   35.30
 -23  -3   4   63.79   12.10
  23  -3  -4   57.59   20.90
 -23   3  -4   61.19    8.70
 -23  -3   4   88.29   10.90
  23  -3  -4   77.79   10.10
 -23   3  -4   61.99   11.70
  23   3   4   15.90   38.30
  23   3   4   82.99   12.50
  23  -3  -4   23.20   27.20
 -23   3  -4   90.19    9.10
 -23   5   4    1.90    7.70
  23   5  -4  -16.70   34.80
 -23  -5  -4   21.50    9.30
  23  -5   4    6.80   30.00
 -23  -5  -4   17.10    9.70
 -23   5   4   15.30   10.50
  23  -5  -4   30.10   28.20
 -23   5  -4   16.10    5.30
  23  -5  -4   20.60    8.60
  23   5   4  -31.90   37.40
 -23  -5   4    2.70    8.80
  23   7  -4   -8.60   35.80
 -23   7   4    6.00    8.30
 -23  -7  -4    5.20   10.80
  23  -7  -4   23.60    8.80
 -23  -7   4    8.00   10.00
 -23   7  -4    8.10    4.90
  23   7   4  -18.00   39.10
 -23   0   5 1139.49   95.69
  23   0   5 1349.56   98.19
 -23   0  -5 1263.67   96.69
  23   0  -5 1227.88   95.89
 -23   0   5 1168.58   96.39
 -23   0  -5 1206.28   95.09
 -23   0  -5 1125.59   95.69
  23   0  -5 1314.67   99.19
 -23  -2  -5   52.69    8.90
  23  -2   5   50.49   25.50
  23  -2   5   16.10   34.80
 -23   2   5   29.70    8.40
 -23   2   5   35.20   10.40
 -23  -2  -5   23.40    9.30
 -23  -2  -5   54.49    5.50
  23   2  -5   47.10   12.90
  23   2  -5    7.80   40.10
 -23   2  -5   46.90    8.00
  23  -2  -5   39.70    8.70
  23   2   5   21.00   39.70
 -23  -2   5   60.49    8.70
  23  -2  -5   27.80   31.10
  23   2   5   41.20   12.60
 -23  -2   5   44.90    9.40
  23  -2  -5   31.00   20.00
 -23   2  -5   61.89    5.50
 -23   2  -5   35.40   10.40
 -23   4   5  257.17   26.20
 -23  -4  -5  297.97   29.10
  23   4  -5  204.98   45.30
 -23   4   5  308.67   28.80
 -23  -4  -5  273.07   27.70
  23  -4  -5  320.87   27.40
 -23   4  -5  312.37   24.70
 -23  -4   5  286.07   26.80
 -23  -4   5  339.67   29.10
  23   4   5  372.26   29.10
  23  -4  -5  350.56   45.00
 -23  -6  -5   14.90   10.20
 -23   6   5   18.10    8.10
  23   6  -5   -2.40   36.00
  23  -6   5   -4.80   27.90
  23  -6  -5    7.30    8.90
  23   6   5   -3.80   35.60
 -23   6  -5   13.30    4.90
 -23  -6   5    2.40    9.80
 -23  -1  -6   34.60    8.80
  23   1  -6   46.20   15.40
  23  -1   6   51.39   36.50
 -23   1   6   35.40   10.20
 -23   1   6   42.50    8.10
 -23  -1  -6   38.60    4.50
  23   1  -6   54.59    8.30
 -23  -1  -6   44.60    8.50
  23   1  -6   28.90   38.20
  23  -1  -6   42.80   35.00
  23  -1  -6   35.40   17.20
  23   1   6   16.20   36.50
  23   1   6   55.29   12.90
 -23   1  -6   38.60    8.30
 -23   1  -6   38.20    4.80
  23  -1  -6   30.20    8.20
 -23   1  -6   50.09   13.40
 -23  -1   6   29.30    9.20
 -23  -1   6   48.50    8.40
  23  -3   6   31.80   35.30
 -23   3   6   81.99   12.80
  23   3  -6  103.79   15.40
  23   3  -6  102.19   38.70
 -23  -3  -6  124.39   17.70
 -23   3   6   95.09   11.20
 -23  -3  -6   94.29   12.30
 -23   3  -6  126.59   10.10
  23  -3  -6   89.49   11.40
  23  -3  -6  101.79   22.60
 -23  -3   6   72.49   12.70
  23   3   6   29.80   40.60
 -23  -3   6  137.29   14.70
  23   3   6  125.59   17.70
 -23   5   6   37.20    7.90
 -23  -5  -6   48.40   10.40
  23  -5   6    5.90   30.30
  23   5  -6   25.00   34.70
  23  -5  -6   53.19    9.50
  23   5   6   -6.60   39.60
 -23  -5   6   42.50   11.00
 -23   5  -6   45.00    5.60
  23   0  -7   73.79    9.00
 -23   0  -7   33.60    9.20
 -23   0  -7   77.89    7.20
  23   0  -7   40.40   35.70
 -23   0   7   61.69   10.40
  23   0   7   12.90   35.90
 -23   0   7   60.69    9.30
  23   0  -7   98.09   16.40
 -23   2   7   11.30    9.90
  23   2  -7   40.00   37.70
 -23  -2  -7   17.40    3.30
 -23  -2  -7   10.20    9.70
  23  -2   7  -19.50   35.40
 -23  -2  -7   11.70    8.90
  23   2  -7   14.50   12.90
 -23   2   7   11.90    8.30
  23  -2  -7   27.20    7.40
  23   2   7   29.20   12.20
  23  -2  -7   15.90   17.30
 -23  -2   7   17.50    8.80
  23   2   7    2.30   36.80
 -23   2  -7   14.30    4.10
 -23  -2   7   16.20    7.80
  23   4  -7   70.09   38.70
 -23   4   7   80.39   11.40
  23  -4   7   40.90   33.40
 -23  -4  -7   92.29   12.50
  23   4   7  141.79   17.90
 -23   4  -7  116.59   10.10
  23  -4  -7  106.49   11.80
 -23  -4   7  103.59   12.10
  23   4   7   48.10   41.10
  23   6  -7   34.00   34.80
 -23  -6  -7   -5.00    9.30
 -23   6   7    4.20    7.90
  23  -6   7   32.30   27.90
 -23  -6   7   -0.90   10.30
 -23   6  -7    2.60    4.40
  23   6   7   12.80   39.10
  23  -6  -7   10.20    9.10
 -23   1   8  243.88   24.00
  23   1  -8  150.08   45.40
 -23  -1  -8  268.07   19.60
  23   1  -8  238.58   22.00
 -23  -1  -8  231.28   22.60
 -23   1   8  204.28   21.50
  23   1  -8  275.87   31.10
 -23   1  -8  254.37   19.70
  23  -1  -8  275.97   33.30
 -23  -1   8  221.18   24.00
 -23  -1   8  242.58   21.70
  23  -1  -8  260.77   21.70
  23  -3   8   40.60   33.60
 -23  -3  -8   99.09   12.90
 -23  -3  -8  131.79   10.80
 -23   3   8  128.49   14.00
  23   3  -8   72.79   37.40
  23   3   8   22.30   39.40
 -23  -3   8   83.69   11.80
 -23   3  -8  112.59   10.10
  23  -3  -8  127.59   14.10
 -23  -5  -8   79.59   11.80
  23   5  -8   90.29   35.00
  23  -5   8   13.40   29.30
  23   5   8   46.40   44.00
  23  -5  -8   81.39   10.80
 -23  -5   8   50.59   11.10
 -23   5  -8  110.79    9.00
  23   0  -9  -11.80   35.80
  23   0   9   17.20   33.80
  23   0  -9   21.00    6.80
 -23   0   9   25.50    7.30
 -23   0  -9   25.40    3.80
 -23   0   9   16.30    8.90
  23   2  -9  271.57   62.79
 -23   2   9  387.16   32.50
 -23  -2  -9  390.76   33.70
 -23  -2  -9  414.56   30.70
 -23  -2   9  367.56   32.50
  23  -2  -9  392.76   32.20
 -23   2  -9  398.26   30.80
 -23  -4  -9   10.00    9.30
  23  -4   9  -14.80   30.60
 -23   4   9    4.90    7.10
  23   4  -9   19.30   33.80
  23  -4  -9   11.70    7.50
 -23  -4   9    6.90   10.00
 -23   4  -9    7.70    3.80
  23   4   9  -12.50   37.50
  23   1 -10  -26.80   37.60
 -23  -1 -10   -0.20    3.30
 -23   1  10    2.40    6.40
  23  -1  10   13.60   36.30
 -23  -1  10   -2.70    6.70
 -23   1 -10    3.00    3.30
  23  -1 -10    2.20    6.30
  23   1  10   25.60   34.10
  23  -3  10   12.70   30.80
 -23   3  10    4.60    7.70
  23   3 -10   14.20   35.40
 -23  -3 -10   -0.70    5.40
  23   3  10  -10.20   35.70
 -23   3 -10    0.10    3.40
 -23  -3  10    3.40    8.80
  23  -3 -10  -10.90    6.80
 -23   5  10   -4.90    7.90
  23   5 -10    6.10   32.30
  23  -5  10   -3.40   27.70
  23   5  10  -14.50   38.50
 -23   5 -10    0.70    3.80
 -23  -5  10    7.50    8.90
  23  -5 -10   -7.60    7.60
  23   0 -11   30.10    6.50
  23   0  11   14.70   34.40
 -23   0 -11   15.70    3.60
 -23   0  11   14.10    7.10
 -23  -2 -11  302.47   22.60
  23   2 -11  235.68   46.70
 -23   2 -11  278.67   22.60
 -23  -2  11  253.07   24.80
  23  -2 -11  293.17   24.40
  23  -4  11   -7.30   29.20
  23   4 -11  -14.00   32.10
 -23   4  11   -4.90    7.20
 -23  -4  11    1.10    9.10
  23   4  11   18.40   37.70
 -23   4 -11   11.10    3.50
  23  -4 -11    4.80    7.20
 -23  -1 -12   72.99    6.90
 -23   1  12   60.49    8.70
  23  -1  12   15.70   33.60
  23  -1 -12   57.69    8.10
  23   1  12   31.80   34.10
 -23  -1  12   60.69    9.20
 -23   1 -12   71.79    7.20
  23   3 -12   25.40   35.00
  23  -3  12   21.80   30.50
 -23   3  12   54.09    9.60
 -23  -3  12   54.79   10.20
  23  -3 -12   46.20    7.90
  23   3  12   36.60   39.20
 -23   3 -12   61.69    6.70
 -23   0  13   59.39    8.60
  23   0  13   28.10   36.40
  23   2 -13  -17.30   45.20
  23  -2  13   18.90   31.60
 -23   2  13    0.50    6.80
 -23  -2 -13    0.00    3.70
 -23   2 -13    1.20    3.20
  23   2  13    0.20   34.90
 -23  -2  13   -2.50    7.70
  23  -2 -13   -5.70    6.10
 -24   0   0  286.47   22.50
 -24   0   0  278.87   25.80
  24   0   0  322.27   31.20
 -24   0   0  256.07   23.70
  24   0   0  191.08   45.60
  24   2   0   19.00   37.40
  24  -2   0    5.00   34.00
 -24  -2   0   35.10   10.50
 -24   2   0   20.00    9.00
 -24  -2   0   21.90    8.90
  24   2   0   28.30   11.60
 -24   2   0   15.40    5.80
  24  -2   0   48.90   19.80
 -24   2   0   12.10    7.40
 -24  -4   0   85.59   11.50
  24   4   0   72.19   39.00
 -24   4   0   52.09    7.80
  24  -4   0   66.99   26.30
  24  -4   0   21.30   30.90
  24   4   0   70.29   12.90
 -24   4   0   67.39    9.20
 -24   4   0   74.09   11.90
 -24  -4   0   41.20   10.90
  24   6   0   -7.30   37.70
 -24   6   0    0.90    8.10
 -24  -6   0   -0.60   10.80
 -24   6   0   26.40    6.40
 -24  -1  -1   10.20    9.60
 -24   1   1   23.90    7.30
 -24   1   1   24.90    8.90
  24   1  -1   10.60   37.40
 -24  -1  -1   11.90    8.10
 -24  -1  -1    5.70    3.40
  24   1  -1   34.70   13.00
  24  -1   1  -21.60   36.00
  24  -1   1   23.40   18.00
 -24   1   1   19.20    5.60
  24   1   1  -20.80   38.20
 -24  -1   1   16.90    9.00
  24  -1  -1   39.80   17.90
 -24  -1   1   10.70    3.80
 -24   1  -1    8.30    5.00
 -24  -1   1    5.30    7.50
  24  -1  -1  -13.20   37.00
 -24   1  -1   16.90    7.10
 -24   1  -1    9.40    8.90
  24   1   1   20.10   12.70
 -24  -3  -1   12.70    8.90
  24   3  -1    1.10   37.80
 -24   3   1    7.00    6.90
 -24  -3  -1    9.00   10.10
  24  -3   1  -14.20   21.40
 -24   3   1   13.30    9.10
  24   3  -1   10.20   11.00
  24  -3   1    3.40   33.40
 -24  -3   1    3.80    9.20
  24   3   1   -2.30   11.40
 -24  -3   1   11.00    8.40
  24  -3  -1   11.20   32.70
 -24   3  -1   -2.80    7.00
  24  -3  -1    7.30   21.70
 -24   3  -1   -0.80    8.90
 -24   3  -1    3.00    5.60
  24   3   1   -2.10   36.40
 -24  -5  -1   16.80    9.50
  24   5  -1  -24.70   39.80
  24  -5   1   22.40   30.90
 -24   5   1   17.20   10.40
 -24   5   1    6.90    7.60
  24  -5  -1    1.40   26.00
 -24  -5   1    3.90   10.10
 -24   5  -1   13.90    8.20
  24   5   1   -4.60   37.20
 -24   5  -1   10.30    5.70
 -24  -7  -1    4.90    9.30
  24   7  -1  -14.80   43.10
 -24   7   1    8.10    8.20
 -24   7  -1    6.20    6.30
 -24  -7   1   13.50   10.30
  24   7   1  -16.00   39.90
 -24   0   2  181.08   15.50
  24   0   2   81.99   43.30
  24   0  -2  128.09   41.30
  24   0   2  178.68   21.50
 -24   0   2  165.08   16.50
  24   0  -2  194.98   21.50
 -24   0  -2  160.28   16.60
 -24   0   2  162.58   19.30
 -24   0  -2  162.68   14.40
 -24   0  -2  166.08   19.60
  24  -2   2   -9.40   20.00
 -24  -2  -2    5.80    2.50
  24  -2   2  -12.00   33.90
 -24   2   2   -8.50    8.50
  24   2  -2   -5.70   11.00
 -24   2   2    2.90    6.80
 -24  -2  -2   -5.80    9.50
 -24  -2  -2   -1.60    8.30
  24   2  -2   -4.60   35.00
 -24   2  -2    5.30    6.60
  24  -2  -2   27.70   20.00
 -24   2  -2    8.30    9.20
 -24   2  -2    1.80    5.10
  24   2   2    9.30   39.00
 -24  -2   2   10.40    9.40
 -24  -2   2    5.70    8.70
  24  -2  -2   36.60   34.90
  24   2   2    3.90   11.80
  24  -4   2   13.90   31.50
  24   4  -2    5.70   12.40
 -24   4   2   12.40   10.90
 -24  -4  -2   13.80    8.90
 -24   4   2   11.60    8.10
  24   4  -2  -11.40   42.50
 -24  -4  -2   20.40    9.80
  24   4   2   -3.50   37.20
 -24   4  -2   19.30    7.30
  24   4   2   29.40   11.00
  24  -4  -2    9.80    9.10
 -24  -4   2   20.30    9.20
 -24  -4   2   16.30   10.70
 -24   4  -2   16.90    5.40
  24  -4  -2   29.10   25.50
  24   6  -2    4.30   42.10
 -24  -6  -2    0.20    9.00
 -24   6   2  -11.00    7.90
  24   6   2   -9.50   37.90
 -24  -6   2    5.30   10.30
 -24   6  -2    1.00    5.80
  24  -1   3   -5.10   36.70
 -24   1   3   23.90    7.70
 -24  -1  -3   20.70    9.70
  24   1  -3   25.80   14.70
 -24   1   3   13.70    9.10
 -24  -1  -3   14.90    7.60
  24  -1   3   36.20   18.40
  24   1  -3  -13.10   35.40
 -24  -1  -3   12.40    3.40
  24   1   3   -6.20   38.80
 -24  -1   3    4.40    8.80
  24   1   3    6.00   11.80
 -24   1  -3   12.50    8.80
 -24  -1   3    9.90    4.60
 -24  -1   3    9.80    7.80
 -24   1  -3    7.70    4.40
  24  -1  -3   14.50   18.80
  24  -1  -3   11.70   36.60
 -24   1  -3   10.40    7.10
  24   3  -3   34.30   41.90
  24  -3   3   39.00   35.40
  24  -3   3   54.89   25.50
  24   3  -3   41.30   11.20
 -24   3   3   39.00    8.50
 -24  -3  -3   40.40    9.70
 -24   3   3   45.90   10.70
 -24  -3  -3   43.20   11.20
 -24   3  -3   44.00    7.90
 -24  -3   3   52.59   10.30
  24  -3  -3   41.80   22.40
  24   3   3   62.29   13.40
 -24   3  -3   34.60    6.10
  24   3   3   40.20   36.60
  24  -3  -3   30.90   29.00
 -24  -3   3   47.80   10.80
 -24   3  -3   34.20    9.60
  24  -3  -3   48.10    9.30
  24  -5   3    2.70   30.80
 -24  -5  -3   19.40   10.50
 -24   5   3   21.30   10.80
  24   5  -3   16.00   42.20
 -24   5   3   18.90    8.20
  24  -5  -3   21.40    9.10
  24   5   3    4.80   39.20
 -24  -5   3   16.30    9.60
  24  -5  -3   11.40   27.30
 -24   5  -3   17.30    5.20
  24   0   4   23.50   15.30
 -24   0   4   19.40    9.70
 -24   0  -4   26.50    7.70
 -24   0  -4   20.80   10.40
  24   0   4   27.50   37.90
  24   0  -4    3.30   36.80
  24   0  -4   33.80   16.30
 -24   0  -4   19.80    4.20
 -24   0   4   28.20    8.00
 -24   2   4   98.89   11.50
  24   2  -4  104.89   15.90
 -24  -2  -4  141.29    9.80
  24  -2   4   42.40   36.70
 -24  -2  -4  136.89   18.30
 -24   2   4  139.49   17.00
  24   2  -4   80.49   40.10
  24  -2   4  100.29   22.60
 -24  -2  -4  111.09   14.60
  24  -2  -4  102.19   12.20
 -24   2  -4  121.09   11.30
 -24   2  -4  109.19   13.00
  24   2   4   24.50   39.60
 -24   2  -4  118.29   15.60
  24  -2  -4   52.49   33.80
  24  -2  -4  106.89   21.20
  24   2   4  101.39   15.50
 -24  -2   4  120.09   14.60
 -24  -2   4  110.39   17.10
 -24   4   4    5.50   10.20
 -24  -4  -4   12.50    9.90
 -24  -4  -4   -4.30    9.80
  24   4  -4   30.80   40.20
  24  -4   4   11.00   32.90
 -24   4   4    2.80    7.60
 -24   4  -4    2.90    5.20
  24  -4  -4   19.30    8.40
  24   4   4   -0.10   10.60
 -24  -4   4   -3.30    9.10
  24  -4  -4  -16.20   23.60
  24   4   4    8.80   37.00
 -24  -6  -4    8.60   10.30
  24  -6   4  -12.50   30.60
 -24   6   4    7.00    7.50
  24   6  -4    4.10   38.60
 -24   6  -4   18.70    5.20
  24   6   4  -29.70   38.40
 -24  -6   4   25.60   10.50
  24  -6  -4   -1.20    9.30
 -24   1   5   15.40    8.30
  24   1  -5   12.60   14.20
  24  -1   5   26.20   17.80
  24   1  -5  -12.50   35.50
  24  -1   5   30.20   37.10
 -24  -1  -5    5.80    7.80
 -24   1   5   13.80    6.90
 -24  -1  -5   17.70    9.90
 -24  -1  -5   17.10    3.50
  24   1   5    5.20   38.60
 -24   1  -5   20.00   10.00
 -24  -1   5   20.70    8.70
 -24   1  -5    4.20    7.30
  24  -1  -5   29.80   17.30
 -24   1  -5   10.80    4.30
  24   1   5   21.70   12.50
  24  -1  -5   16.30   36.40
 -24  -1   5   14.20    7.60
  24  -1  -5   31.70    8.30
 -24   3   5   -5.10    9.50
 -24  -3  -5    9.80    9.70
  24  -3   5    1.80   34.10
 -24  -3  -5    9.30    9.00
  24   3  -5    0.00   10.40
  24   3  -5   18.20   41.00
 -24   3   5    7.80    7.70
 -24   3  -5    4.20    4.50
  24  -3  -5  -16.80   21.00
 -24  -3   5   -3.00    9.40
  24   3   5    4.40   11.60
 -24  -3   5    6.20    9.90
  24  -3  -5    4.00    7.90
  24   3   5  -13.00   37.70
 -24   5   5   10.50    7.80
 -24  -5  -5  -11.40    9.00
  24  -5   5  -19.00   30.90
  24   5  -5  -37.30   35.60
 -24  -5   5    3.10    9.00
 -24   5  -5   -2.20    4.50
  24   5   5   15.80   39.40
  24  -5  -5   10.40    8.80
 -24   0  -6    1.30    3.40
  24   0  -6   10.30   34.80
  24   0  -6  -11.10   15.80
 -24   0   6  -10.40    8.10
 -24   0  -6    0.00    7.50
  24   0   6   15.10   36.20
 -24   0   6  -13.90    7.50
  24   0   6   -2.10   22.20
 -24   0  -6   -7.00   10.50
  24   0  -6   -0.20    7.90
  24  -2   6   19.60   35.20
 -24   2   6   58.39    8.70
 -24  -2  -6   61.79    6.10
 -24  -2  -6   35.40   10.50
  24   2  -6   50.49   14.80
 -24  -2  -6   46.50    9.60
  24   2  -6   48.40   42.20
 -24   2   6   47.00   10.60
  24   2   6  -19.30   38.10
  24   2   6   45.00   12.90
 -24  -2   6   66.49   10.60
  24  -2  -6    6.20   31.60
  24  -2  -6   44.10   18.50
 -24  -2   6   59.99    9.50
 -24   2  -6   68.09    7.50
  24  -2  -6   44.40    9.30
 -24  -4  -6    5.20   10.70
  24  -4   6    5.30   33.60
 -24   4   6    3.80    7.80
  24   4  -6   12.80   37.60
 -24  -4  -6   13.50    9.10
 -24  -4   6   -8.40    8.60
 -24   4  -6    6.80    4.40
  24  -4  -6    3.50    8.60
  24   4   6    2.10   11.20
  24   4   6   19.40   39.70
  24  -6   6  -18.40   28.20
  24   6  -6   14.80   35.40
 -24   6   6   -4.60    7.90
 -24  -6  -6    7.20   10.20
 -24   6  -6    2.80    4.30
  24   6   6   19.60   39.90
 -24  -6   6   -5.80   10.10
  24  -6  -6   16.00    8.90
 -24   1   7    5.30    9.20
  24   1  -7   -1.30   15.80
  24   1  -7  -21.50   38.50
 -24  -1  -7   -0.90    8.40
  24  -1   7  -21.50   36.80
  24   1  -7    9.40    8.20
 -24  -1  -7   -0.30    3.30
 -24   1   7   -3.00    7.30
 -24   1  -7    3.00    3.60
 -24  -1   7   -1.90    8.50
  24   1   7   -2.50   36.10
  24  -1  -7    5.40    7.60
  24  -1  -7   18.50   34.90
  24  -1  -7   24.50   16.50
 -24  -1   7   -0.80    7.00
  24  -3   7   -8.50   33.80
 -24   3   7   -4.70   16.30
 -24  -3  -7   23.40    9.10
 -24   3   7    5.60    8.40
  24   3  -7   33.50   37.20
  24  -3  -7   25.20    8.30
  24   3   7   21.60   40.90
 -24  -3   7   32.80    9.60
 -24   3  -7   22.30    4.60
 -24  -5  -7    4.10    9.90
  24   5  -7    2.20   36.50
  24  -5   7    3.50   29.90
 -24   5   7   -0.70    7.30
 -24   5  -7   10.80    4.30
  24   5   7    4.00   39.70
  24  -5  -7   21.10    9.10
 -24  -5   7   21.50    9.30
  24   0  -8   64.89    9.20
  24   0   8   29.10   37.40
 -24   0   8   70.29    9.30
 -24   0   8   44.40   10.10
 -24   0  -8   86.29    7.40
  24   0  -8   70.49   37.00
  24  -2   8   11.80   36.90
 -24   2   8    9.50    6.80
 -24  -2  -8    4.80    3.20
 -24  -2  -8   -1.40    8.70
  24   2  -8   -9.70   38.90
 -24   2  -8   12.50    3.70
 -24  -2   8    7.40    7.50
  24  -2  -8   13.40    7.30
  24   2   8   -0.50   36.00
  24  -4   8   -1.70   32.10
  24   4  -8   26.60   35.20
 -24  -4  -8    0.40    9.90
 -24   4   8   -5.50    7.70
 -24   4  -8   -0.40    4.00
  24  -4  -8    2.50    8.30
  24   4   8   -5.10   39.00
 -24  -4   8    9.00    9.80
  24  -1   9    0.00   34.60
  24   1  -9    8.70   41.10
 -24  -1  -9    6.20    3.40
 -24   1   9    4.60    7.40
  24   1   9   -0.90   35.10
 -24  -1   9   -9.20    6.90
  24  -1  -9    2.30    6.70
 -24   1  -9   10.00    3.50
  24   3  -9   -2.90   36.10
 -24   3   9    4.10    8.60
  24  -3   9    4.80   30.40
 -24  -3  -9   12.50    9.60
 -24   3  -9    6.60    3.80
  24   3   9  -11.30   36.50
  24  -3  -9    7.80    7.30
 -24  -3   9    4.40    8.60
 -24  -5  -9    0.50    9.80
  24  -5   9   -8.40   29.70
  24   5  -9    6.30   35.00
 -24   5   9  -13.30    7.70
  24   5   9   -5.70   39.80
 -24   5  -9   -5.60    3.80
 -24  -5   9   -2.20    9.60
  24  -5  -9    4.90    8.80
 -24   0 -10   32.40    4.30
  24   0 -10   30.80    7.40
 -24   0  10   26.80    7.40
  24   0  10   23.00   33.80
  24   2 -10   -2.10   37.00
 -24   2  10   -0.30    7.50
 -24  -2 -10    3.60    3.50
  24  -2  10   -6.30   33.70
 -24  -2  10  -11.40    8.10
  24   2  10   22.10   36.20
  24  -2 -10    7.70    6.90
 -24   2 -10   -2.20    3.50
  24  -4  10  -11.00   30.60
 -24   4  10   17.40    7.60
  24   4 -10   47.50   36.00
 -24   4 -10   12.60    3.90
 -24  -4  10   14.20    9.70
  24   4  10   27.00   39.70
  24  -4 -10   17.90    7.80
  24   1 -11  -58.29   39.10
  24  -1  11   -0.10   34.40
 -24  -1 -11    1.50    3.40
 -24   1  11    0.20    6.80
  24   1  11  -33.30   34.00
  24  -1 -11   -6.00    6.90
 -24   1 -11    2.40    3.50
 -24  -1  11   -2.60    7.00
 -24   3  11    3.00    8.50
  24   3 -11   19.00   36.60
  24  -3  11    4.00   32.40
  24   3  11  -15.80   36.80
  24  -3 -11   -6.50    7.00
 -24   3 -11    1.80    3.60
 -24  -3  11    5.60    8.30
 -24   0  12    4.50    7.00
 -24   0 -12    5.50    3.60
  24   0  12   15.40   36.10
 -24   2  12    9.40    7.60
 -24  -2 -12   12.40    3.90
  24   2 -12    0.30   37.90
  24  -2  12   10.30   28.30
 -24  -2  12   10.00    8.50
  24   2  12   14.10   36.10
  24  -2 -12   14.00    6.90
 -24   2 -12   13.10    3.60
 -24   1  13   -0.10    6.80
  24  -1  13   -2.40   31.80
 -24  -1 -13    4.20    3.30
 -24   1 -13   -2.20    3.40
  24  -1 -13    1.90    6.50
  24   1  13   -0.60   36.10
 -24  -1  13   -8.30    7.00
 -25  -1   0   -4.70    3.50
  25  -1   0   -4.10   37.60
 -25   1   0   -6.70    5.20
 -25  -1   0    1.80    9.90
 -25  -1   0    7.90    8.30
  25   1   0  -19.10   38.70
 -25   1   0   12.50    9.40
 -25   1   0    2.00    7.10
  25   1   0   -8.00   12.60
  25  -1   0   -0.40   18.50
  25  -3   0   -7.00   33.10
 -25  -3   0    3.00    9.80
 -25   3   0    4.20    9.00
  25   3   0   -4.20   11.10
  25   3   0    3.50   36.10
 -25  -3   0   -1.80    9.60
  25  -3   0   -3.50   21.60
 -25   3   0   -2.80    5.70
 -25   3   0   -2.90    7.00
  25   5   0   10.70   39.20
 -25  -5   0    8.10    9.60
 -25   5   0    3.60    8.20
 -25   5   0    4.30    5.80
 -25   0  -1   35.00    5.00
 -25   0  -1   30.40    7.90
 -25   0   1   37.00    5.40
  25   0   1   26.10   15.70
 -25   0   1   27.20    8.10
 -25   0   1   25.40   10.20
  25   0  -1   28.20   15.70
  25   0  -1   -4.70   37.10
 -25   0  -1   15.40    9.30
  25   0   1   17.90   39.40
 -25  -2  -1  700.53   56.19
 -25   2   1  624.94   55.69
 -25   2   1  631.34   55.99
  25   2  -1  691.63   58.29
 -25   2   1  729.03   57.49
  25  -2   1  812.02   64.59
 -25  -2  -1  754.32   57.69
 -25   2  -1  651.43   55.49
  25  -2  -1  857.81   64.29
 -25   2  -1  616.04   55.89
 -25   2  -1  768.32   57.29
 -25  -2   1  721.93   57.89
 -25  -2   1  684.73   56.39
  25   2   1  753.62   58.29
 -25   4   1   13.50    7.40
  25  -4   1  -27.90   31.20
 -25   4   1   -1.90    9.90
 -25  -4  -1    9.90   11.10
 -25  -4  -1   11.20    9.50
  25   4  -1   12.60   40.50
  25  -4  -1  -19.10   31.20
 -25  -4   1   12.30   10.90
 -25   4  -1   -0.90   13.00
  25  -4  -1    5.70   25.00
 -25   4  -1   14.80    7.30
 -25  -4   1   12.30   10.10
  25   4   1   25.50   17.90
  25   4   1   18.00   36.80
 -25   4  -1    9.00    6.00
 -25  -6  -1  102.39   13.60
  25   6  -1   89.19   41.60
 -25   6   1  117.69   14.20
 -25  -6   1  100.49   13.80
  25   6   1   68.89   39.10
 -25   1   2  242.78   24.70
 -25  -1  -2  323.17   27.90
 -25  -1  -2  282.17   23.00
  25   1  -2  351.16   31.30
  25  -1   2  330.87   37.20
 -25  -1  -2  285.67   25.20
 -25   1   2  271.47   26.40
  25  -1  -2  336.87   37.10
 -25   1  -2  283.27   23.60
 -25   1  -2  248.18   24.60
  25   1   2  332.77   29.90
 -25  -1   2  279.37   23.30
 -25  -1   2  311.17   26.80
 -25  -1   2  269.17   25.00
 -25   1  -2  286.47   26.60
 -25   3   2  142.49   17.50
  25   3  -2   96.29   41.00
  25   3  -2  168.08   22.30
 -25   3   2  206.28   21.00
 -25  -3  -2  181.78   19.20
 -25  -3  -2  200.88   21.70
  25  -3   2  167.58   28.40
 -25  -3   2  202.38   22.20
  25  -3  -2  265.17   37.40
 -25  -3   2  217.98   18.70
 -25   3  -2  145.39   17.40
 -25   3  -2  178.18   16.30
 -25   3  -2  196.58   20.20
  25   3   2  184.08   22.30
 -25  -5  -2   54.89   11.30
 -25   5   2   50.19   12.00
 -25   5   2   43.90    8.80
  25  -5   2   31.80   31.80
  25   5  -2   39.70   44.00
  25  -5  -2   51.29   27.10
 -25  -5   2   73.69   11.20
 -25   5  -2   44.00    9.20
  25   5   2   72.19   37.60
 -25   0  -3  264.87   24.00
 -25   0   3  257.57   25.50
 -25   0  -3  347.37   28.20
  25   0  -3  373.66   34.30
 -25   0   3  299.07   27.80
  25   0   3  358.96   33.30
 -25   0  -3  274.97   25.90
 -25   2   3    2.60    8.70
 -25   2   3   11.20    7.00
  25   2  -3   21.30   13.50
 -25  -2  -3   16.10   10.50
  25   2  -3   -7.60   37.10
  25  -2   3   21.10   21.20
 -25  -2  -3   15.90    8.70
  25  -2   3   -9.90   35.10
 -25   2  -3   15.80    4.80
 -25  -2   3   18.10    9.00
  25   2   3   28.00   12.60
  25  -2  -3   -1.60   19.80
  25  -2  -3   10.10   34.90
 -25   2  -3   11.50    7.40
  25   2   3   16.40   39.00
 -25  -2   3   17.40   10.60
 -25   2  -3   16.60    9.40
  25  -2  -3   11.10    8.90
  25   4  -3   62.79   42.70
  25  -4   3   14.00   34.00
 -25   4   3   80.99   11.50
 -25  -4  -3   88.59   12.50
 -25  -4  -3  150.78   19.40
  25   4   3  133.09   18.50
 -25  -4   3  126.39   13.20
 -25   4  -3   86.79   10.90
  25  -4  -3  124.99   26.90
  25   4   3   77.39   37.80
  25  -4  -3  107.59   12.40
  25   6  -3   15.10   43.20
 -25   6   3    4.50    7.80
 -25  -6  -3  -17.30    9.60
  25  -6  -3   16.00    9.50
 -25  -6   3    8.00    9.40
 -25   6  -3    6.40    5.00
  25   6   3   -1.80   39.70
 -25   1   4  108.89   14.40
  25   1  -4   73.69   38.50
  25   1  -4  151.58   18.90
 -25  -1  -4  156.48   19.00
 -25  -1  -4  131.09   11.10
  25  -1   4   56.59   39.20
 -25  -1  -4  116.79   15.60
 -25   1   4  125.09   17.20
  25  -1   4  230.48   31.30
 -25  -1   4  133.29   17.80
 -25   1  -4  122.99   11.80
 -25   1  -4  118.89   15.00
 -25   1  -4  127.79   17.90
 -25  -1   4  116.99   14.80
  25  -1  -4   70.59   39.40
  25   1   4  145.09   21.30
 -25  -1   4  162.88   14.10
  25   1   4   33.20   43.20
  25  -1  -4  105.49   13.20
  25  -1  -4  158.28   22.60
 -25   3   4   60.19    9.60
  25   3  -4   55.69   43.00
 -25  -3  -4   66.29   11.80
 -25  -3  -4   92.29   11.10
  25  -3   4    9.10   36.20
 -25   3   4   72.09   12.00
 -25   3  -4   78.39    9.80
 -25   3  -4   92.79    9.50
  25   3   4   74.59   14.20
  25  -3  -4   76.89   21.90
 -25  -3   4   65.89   12.70
 -25  -3   4  112.29   11.80
  25  -3  -4   83.09   10.60
  25   3   4   55.59   40.60
  25   5  -4   47.00   42.60
 -25   5   4   32.80    8.10
 -25  -5  -4   17.60   10.40
  25  -5   4   19.40   31.50
  25  -5  -4   29.40    9.60
 -25  -5   4   42.50   10.80
 -25   5  -4   43.00    6.00
  25   5   4   -3.00   36.90
 -25   0  -5  842.22   68.69
 -25   0   5  799.02   69.39
 -25   0   5  838.62   70.59
  25   0   5 1027.00   73.29
  25   0  -5  986.80   74.19
 -25   0  -5  966.60   70.89
 -25   0  -5  815.32   69.69
  25   0  -5  819.52   69.89
  25   2  -5   25.00   40.30
  25  -2   5   39.40   36.50
 -25  -2  -5   19.20    9.40
 -25   2   5   29.00    9.50
 -25   2   5   41.60    7.60
 -25  -2  -5   40.20    4.50
  25   2  -5   47.70   14.60
 -25  -2  -5   48.70    9.10
  25  -2  -5   14.10   31.40
 -25  -2   5   27.40   10.40
 -25  -2   5   59.59    9.40
 -25   2  -5   47.80    5.50
 -25   2  -5   44.60    8.70
  25   2   5   33.90   13.40
  25  -2  -5   47.20    9.10
  25  -2  -5   35.00   19.20
  25   2   5    3.70   40.00
 -25   4   5  332.97   30.80
 -25  -4  -5  385.66   33.90
 -25  -4  -5  325.37   32.00
  25   4  -5  279.07   54.19
 -25  -4   5  349.07   31.30
  25  -4  -5  394.56   31.80
 -25   4  -5  380.66   29.30
  25   4   5  422.96   33.70
  25  -6   5    9.90   32.00
 -25  -6  -5   10.10   10.50
  25   6  -5    6.90   39.40
 -25   6   5    6.40    7.80
  25   6   5   -1.70   39.80
  25  -6  -5   20.20    9.30
 -25   6  -5   15.50    5.10
 -25  -6   5   18.50   10.70
  25  -1   6   16.60   36.60
 -25  -1  -6   18.20    3.70
 -25   1   6   13.00    8.90
 -25  -1  -6   13.00    8.10
  25   1  -6   18.80   14.70
 -25   1   6   17.90    7.30
  25   1  -6    5.60   36.90
 -25  -1  -6   10.80   14.50
 -25   1  -6   17.30    8.60
 -25  -1   6   12.00    7.60
 -25   1  -6   17.70    4.10
 -25  -1   6   16.60    8.70
  25   1   6   -6.40   37.10
  25  -1  -6   23.00   16.20
  25  -1  -6   40.10   36.90
  25  -1  -6   18.80    8.30
 -25   3   6   -6.80   11.90
 -25   3   6    4.80    8.30
  25  -3   6  -11.90   35.30
 -25  -3  -6   19.30   10.40
  25   3  -6   -3.60   40.50
 -25  -3  -6   12.90    9.60
 -25  -3   6    5.00    8.60
 -25   3  -6   12.80    4.20
  25  -3  -6   -2.80    8.20
  25   3   6   16.90   12.70
  25   3   6   22.80   40.10
 -25   5   6   -2.00    7.40
  25   5  -6   22.30   38.60
 -25  -5  -6    7.60    9.80
  25  -5   6   -4.80   30.50
 -25  -5   6    5.30    9.30
  25   5   6   14.40   38.50
  25  -5  -6    8.70    8.90
 -25   5  -6    4.80    4.30
 -25   0   7   96.09   10.70
  25   0  -7   84.09   11.60
 -25   0   7  133.29   15.30
 -25   0  -7   61.79   14.30
  25   0  -7   35.30   37.70
 -25   0  -7  119.39    9.60
  25   2  -7   20.90   42.50
 -25   2   7   29.10    7.20
 -25  -2  -7   24.20    9.60
 -25  -2  -7   25.90    4.10
  25  -2   7   48.70   37.20
 -25   2  -7   29.60    4.50
  25   2   7   34.10   36.40
 -25  -2   7   32.10    8.80
  25  -2  -7   39.10    8.50
 -25  -4  -7   38.60   10.40
 -25   4   7   42.60    8.80
  25  -4   7   20.10   34.00
  25   4  -7    8.70   36.80
 -25   4  -7   55.89    5.70
  25  -4  -7   45.60    9.80
  25   4   7   53.29   41.70
 -25  -4   7   38.30   10.10
 -25  -1  -8  236.48   17.90
 -25   1   8  172.88   20.00
 -25   1  -8  234.68   18.00
 -25  -1   8  219.08   20.40
  25  -1  -8  201.48   21.20
 -25  -3  -8   91.39   12.50
 -25   3   8   79.69   10.90
  25  -3   8   49.60   34.30
  25   3  -8   75.69   41.60
 -25  -3   8   87.39   12.00
  25   3   8   27.20   38.80
 -25   3  -8  111.69    9.30
  25  -3  -8   97.19   11.30
 -25  -5  -8   36.50   10.30
  25   5  -8   61.59   37.10
  25  -5   8   21.50   31.50
 -25   5   8   27.10    8.50
 -25  -5   8   48.10   11.10
  25   5   8   26.60   40.70
  25   0   9   -5.60   35.50
  25   0  -9   -6.00   36.60
 -25   0   9   -2.10    7.50
 -25   0  -9    0.10    3.30
  25   0  -9   -1.70    7.60
 -25  -2  -9  255.47   18.40
 -25   2   9  176.48   20.40
  25   2  -9  207.58   48.30
 -25   2  -9  239.78   18.60
 -25  -2   9  197.48   21.10
  25  -2  -9  234.68   21.40
  25  -4   9    6.20   32.50
  25   4  -9   23.50   35.70
 -25   4   9    3.20    8.20
 -25  -4  -9  -10.70   10.10
  25   4   9    5.60   36.60
 -25   4  -9   -0.30    3.80
 -25  -4   9   -6.60    9.70
  25  -4  -9   16.40    8.50
 -25  -1 -10    0.30    3.40
  25  -1  10    2.70   37.30
  25   1 -10  -36.80   41.70
 -25   1  10   -1.10    6.70
 -25  -1  10   -7.60    6.90
 -25   1 -10   -0.70    3.30
  25  -1 -10  -15.90    7.00
  25   1  10   18.20   37.60
  25  -3  10   19.10   34.00
  25   3 -10  -17.50   35.80
 -25   3  10   -7.80    8.10
 -25   3 -10   -0.40    3.60
  25   3  10   -3.70   36.70
 -25  -3  10    3.80    9.30
  25  -3 -10   -9.30    7.40
 -25   0 -11    8.40    3.50
  25   0  11  -21.30   34.70
 -25   0  11    0.00    7.50
  25  -2  11   39.50   33.00
  25   2 -11  118.09   42.60
  25   2  11   68.19   37.60
 -25   1  12   63.89    8.80
  25  -1  12   30.60   34.30
  25  -1 -12   60.09    8.70
 -25  -1  12   48.50    9.10
  25   1  12   15.00   34.60
 -26   0   0    8.10    8.80
  26   0   0    0.10   16.20
 -26   0   0    9.40    4.60
 -26   0   0    4.50    7.40
  26   0   0    0.00   39.80
 -26   2   0   -4.80    5.60
  26   2   0   -7.90   11.40
 -26  -2   0   14.30    8.50
  26  -2   0  -18.20   34.50
  26   2   0  -14.20   38.60
 -26  -2   0   12.40   10.50
 -26   2   0  -14.70    8.50
 -26   2   0    3.30    7.20
 -26   4   0  -12.80    7.10
 -26  -4   0   -2.70    9.40
  26   4   0   15.50   36.90
 -26   4   0    9.10    6.40
  26  -4   0   -9.60   31.80
 -26   4   0  -19.80   13.80
 -26   6   0  -11.00    8.50
 -26  -6   0   -2.60   11.20
 -26   6   0    8.80    6.10
  26   6   0    0.00   35.30
 -26  -1  -1    1.50   10.40
  26  -1   1    9.90   37.50
  26  -1   1   -8.60   18.90
 -26   1   1   -3.60    9.10
 -26  -1  -1   -6.30    3.40
 -26  -1  -1   -3.70    8.60
 -26   1   1    8.30    7.20
  26   1  -1    8.70   39.20
  26   1  -1  -12.30   13.80
 -26   1   1   -5.20    5.60
  26   1   1    7.30   38.20
 -26  -1   1   -3.00    9.40
  26  -1  -1    8.80   38.10
  26   1   1  -13.10   12.80
 -26  -1   1    2.20    7.90
 -26   1  -1    0.10    9.20
 -26  -1   1    3.40    5.10
  26  -1  -1   14.40   19.80
 -26   1  -1  -11.10    7.50
 -26   1  -1    5.20    5.10
  26   3  -1    0.90   37.20
  26  -3   1   -2.30   35.40
 -26  -3  -1   10.00   10.40
 -26  -3  -1   -0.90    9.30
 -26   3   1    2.70    7.10
  26   3  -1   -3.10   12.10
 -26   3   1    1.10    8.90
  26  -3   1    9.00   22.70
 -26   3   1   -4.00    5.80
 -26  -3   1   -0.50    9.00
  26   3   1    2.20   12.50
  26  -3  -1   27.40   35.10
 -26   3  -1   10.20    5.90
  26   3   1   27.10   39.20
 -26   3  -1   -0.60    7.20
 -26   3  -1    4.10    9.30
  26  -3  -1    0.90   21.40
 -26  -3   1    0.40   10.00
  26   5  -1    6.40   41.10
 -26   5   1   10.40    8.20
 -26  -5  -1    1.20    9.80
 -26   5  -1   -3.10    6.10
 -26   5  -1    3.90    7.50
 -26  -5   1    2.30    9.60
  26   5   1   -0.80   38.80
 -26   0  -2    7.80    9.70
 -26   0   2    7.40    7.80
 -26   0   2  -10.90    5.40
 -26   0  -2   -0.90    4.10
  26   0   2    3.70   39.90
 -26   0   2    0.70    9.60
 -26   0  -2   -7.00    8.10
  26   0  -2  -15.20   16.60
  26   0  -2   12.90   38.20
  26   0   2   11.20   15.60
 -26   2   2   15.40    9.70
 -26   2   2   -0.10    7.60
  26   2  -2    9.90   12.40
 -26  -2  -2    5.00    9.00
  26   2  -2   22.80   37.50
  26  -2   2   30.80   36.90
 -26  -2  -2   12.80   10.10
  26  -2   2   -8.70   20.80
 -26  -2   2   20.60    8.90
  26   2   2    8.80   39.30
  26  -2  -2   -4.00   34.40
 -26   2  -2    2.70    7.20
 -26   2  -2    1.70    9.20
  26  -2  -2  -15.60   20.00
 -26  -2   2   -2.40   10.60
 -26   2  -2   25.10    5.10
  26   2   2   -8.10   11.80
 -26   4   2    7.00   10.30
 -26  -4  -2  -10.40    9.40
 -26   4   2   -1.10    7.40
 -26  -4  -2   -7.40   13.50
  26  -4   2  -22.00   32.50
  26   4  -2  -10.00   37.30
 -26   4  -2   -3.60    5.40
  26   4   2   19.50   39.10
 -26   4  -2    6.70    7.80
 -26  -4   2   -4.60    9.30
  26  -4  -2   -0.30   25.70
  26   6  -2   -3.80   42.90
 -26  -6  -2    3.80    9.20
 -26   6   2   -0.10    7.80
 -26   6  -2   -5.60    5.30
 -26  -6   2   14.20   10.00
  26   6   2   -6.40   37.30
  26  -1   3   -5.60   19.90
  26   1  -3    0.00   14.40
  26  -1   3    6.60   36.00
 -26  -1  -3    0.60    3.30
 -26  -1  -3   -9.70    8.20
 -26   1   3  -10.30    8.60
  26   1  -3   31.00   38.60
 -26  -1  -3   -2.90   10.10
 -26   1   3    1.90    7.60
  26  -1  -3    8.30   39.00
 -26   1  -3   -1.80    7.40
  26  -1  -3    7.60   18.00
  26   1   3   -3.40   41.00
 -26  -1   3   -1.90    7.60
 -26   1  -3    3.70    9.50
 -26  -1   3    4.10    8.70
  26   1   3   -2.50   13.20
 -26   1  -3   13.50    4.50
 -26   3   3    9.60    9.30
 -26   3   3    5.50    7.10
 -26  -3  -3   -2.30   10.50
  26   3  -3  -24.20   39.10
  26  -3   3   -6.60   37.00
 -26  -3  -3   -4.20    8.80
  26   3   3  -22.80   38.40
 -26  -3   3    2.60   10.80
  26  -3  -3   15.80    9.20
 -26   3  -3    3.70    7.40
  26  -3  -3   13.30   20.80
 -26   3  -3    6.30    5.00
 -26  -3   3    0.30    9.00
  26   3   3   -6.40   11.30
  26   5  -3   13.40   40.90
  26  -5   3    9.00   31.40
 -26   5   3    6.70    7.90
 -26  -5  -3    0.80   10.60
 -26  -5   3   13.60   10.00
 -26   5  -3    2.00    5.00
  26   5   3  -11.70   38.90
  26  -5  -3   -1.70    9.30
 -26   0  -4   -3.20    7.60
 -26   0  -4    8.40    4.00
 -26   0   4   -7.70    8.50
 -26   0   4    2.50    7.10
 -26   0  -4    2.50    9.90
  26   0   4   -6.50   38.60
  26   0  -4   -4.10   39.00
  26   0   4   -4.60   15.90
  26   0  -4  -10.30   15.50
 -26  -2  -4    8.50   10.60
 -26   2   4   -0.80    7.20
  26   2  -4    4.20   36.80
 -26   2   4    0.30    9.10
 -26  -2  -4   -1.20    8.30
  26  -2   4  -18.90   36.70
 -26   2  -4    7.20    7.70
  26  -2  -4   15.90   34.30
  26  -2  -4   22.10    8.60
 -26  -2   4    1.10    8.70
 -26  -2   4    3.60    9.40
 -26   2  -4    3.70    4.40
  26   2   4   -2.00   12.70
  26  -2  -4   -7.90   19.50
  26   2   4    4.50   39.10
  26   4  -4   14.80   44.00
 -26  -4  -4   22.80   10.30
 -26  -4  -4    8.40   11.20
 -26   4   4   19.40    8.70
  26  -4   4  -12.20   33.80
  26  -4  -4   17.10    8.90
 -26  -4   4   25.10   10.20
  26   4   4   29.60   40.30
 -26   4  -4   40.60    5.70
 -26  -1  -5   24.10    3.80
 -26  -1  -5   27.10   10.80
 -26   1   5   13.40    8.20
  26   1  -5   34.90   36.90
  26   1  -5    2.40   17.10
  26  -1   5    5.90   37.10
 -26  -1  -5   13.30    8.30
 -26   1   5   16.60    7.30
  26   1   5    5.40   16.60
 -26   1  -5   17.00    7.70
  26   1   5  -22.60   36.40
 -26  -1   5   29.60    7.90
  26  -1  -5   18.70    8.80
  26  -1  -5   -2.30   38.10
 -26   1  -5   16.90    4.40
 -26  -1   5   13.20    9.30
  26  -1  -5   12.60   18.20
  26   3  -5   15.50   42.80
 -26  -3  -5   29.60    9.90
 -26  -3  -5   15.10   10.40
  26  -3   5  -12.70   36.60
 -26   3   5   29.70    7.50
  26  -3  -5   36.20    8.70
 -26  -3   5   29.20    9.70
  26   3   5   43.10   40.80
 -26   3  -5   34.50    5.10
  26   3   5   21.20   13.10
 -26  -5  -5    7.40    9.40
 -26   5   5    3.10    8.10
  26  -5   5  -18.60   31.80
  26   5  -5  -19.30   41.30
 -26   5  -5   12.50    4.70
  26  -5  -5   18.20    9.10
 -26  -5   5   25.70   10.40
  26   5   5    8.70   38.80
  26   0  -6  -13.50    8.40
 -26   0   6    6.70    7.00
  26   0  -6   -3.50   38.10
 -26   0  -6   -2.20    8.10
  26   0   6   20.10   36.60
 -26   0   6    4.70    8.50
 -26   0  -6   -2.30    3.50
 -26  -2  -6    8.10    9.00
 -26   2   6    0.70    6.80
  26   2  -6  -10.20   39.60
  26  -2   6   12.30   36.20
 -26   2  -6    7.20    4.00
  26  -2  -6   -2.50    8.60
  26   2   6   -9.70   39.20
 -26  -2   6    2.60    8.20
 -26   4   6   12.60    8.60
 -26  -4  -6    2.60    9.40
  26   4  -6   -5.20   42.00
  26  -4   6   26.20   34.90
  26  -4  -6   -2.00    8.80
 -26   4  -6    3.40    4.50
  26   4   6   21.10   39.30
 -26  -4   6   -1.80    8.60
  26   1  -7   38.10   38.60
  26  -1   7   -7.40   35.60
 -26  -1  -7    2.00    3.50
 -26   1   7    4.50    7.30
 -26  -1  -7    7.50    9.20
 -26  -1   7    0.30    7.40
  26   1   7  -34.80   34.90
 -26   1  -7    6.20    3.90
  26  -1  -7    9.10    8.40
  26  -1  -7   20.20   52.29
 -26  -3  -7   18.00    9.30
 -26   3   7   -0.40    7.00
  26   3  -7   -4.50   41.10
  26  -3   7   34.60   34.90
  26  -3  -7    6.10    8.70
 -26   3  -7    0.80    3.90
  26   3   7    6.10   36.90
 -26  -3   7  -10.20    9.20
 -26   5   7   -5.70    7.20
  26  -5   7   -9.60   32.10
 -26  -5  -7   -5.70   10.20
  26   5  -7    6.80   39.30
  26   5   7  -29.40   40.70
  26  -5  -7   -1.20    9.00
 -26  -5   7    4.40   10.60
 -26   5  -7    4.60    4.30
  26   0   8   -4.80   34.50
  26   0  -8   23.20    9.90
 -26   0   8   21.90    7.20
 -26   0  -8   20.50    4.00
  26   0  -8   11.30   38.40
  26   2  -8  -12.10   41.80
 -26   2   8    4.10    7.30
  26  -2   8   27.00   36.80
 -26  -2   8   -3.00    8.00
  26   2   8  -12.80   35.40
  26  -2  -8   -7.00    8.50
 -26   2  -8    5.00    3.70
  26  -4   8  -15.70   32.30
  26   4  -8  -34.40   39.50
 -26  -4  -8  -10.60   10.10
 -26   4   8    4.00    8.00
  26   4   8   -4.50   38.70
 -26  -4   8    6.10    9.80
  26  -4  -8  -10.20    8.80
 -26   4  -8    1.20    3.70
  26   1  -9    1.40   40.60
 -26   1   9    0.70    7.20
 -26  -1  -9   -3.60    3.50
  26  -1   9    6.20   35.50
 -26   1  -9    1.50    3.60
  26  -1  -9   -2.30    8.10
 -26  -1   9   10.80    7.50
  26   1   9  -12.30   36.40
  26  -3   9   -1.00   31.80
  26   3  -9    9.70   41.60
 -26   3   9   -4.40    6.80
  26   3   9    2.40   35.70
 -26  -3   9    6.60    9.70
 -26   3  -9    3.70    3.60
  26  -3  -9    9.50    8.60
 -26   0  10   11.90    7.60
  26   0  10   15.00   33.40
 -26   0 -10    0.50    3.60
  26  -2  10  -15.10   34.60
  26   2 -10  -47.40   42.20
 -26   2  10    4.70    7.30
  26   2  10   -3.80   36.10
  26  -2 -10    5.30    7.50
 -26  -2  10   -4.30    7.50
 -26   2 -10    2.00    3.60
 -26  -1 -11   -4.70    3.40
  26  -1  11  -24.90   34.60
 -26   1  11    8.60    7.80
  26  -1 -11   -1.40    8.90
  26   1  11  -12.40   34.30
 -26  -1  11    2.00    7.30
 -26   1 -11   -2.60    3.60
  26   0  12  -10.70   35.20
 -27   1   0   -1.80    9.30
 -27  -1   0   14.50   10.70
  27   1   0   -0.50   14.30
  27  -1   0    4.60   19.50
  27  -1   0  -19.20   37.10
 -27  -1   0  -12.20    8.80
 -27   1   0   -9.90    7.40
 -27   1   0  -12.00    5.10
  27   1   0    5.80   41.10
  27  -3   0   21.90   22.50
 -27   3   0   -1.50    7.30
 -27   3   0    3.80    5.80
 -27  -3   0    6.00   10.40
  27   3   0   42.30   38.90
 -27  -3   0   -7.90   10.30
 -27   3   0   -0.20    9.50
  27  -3   0   25.40   35.90
 -27   5   0   -0.40    7.50
 -27   5   0   -3.20    6.30
 -27  -5   0    4.10    9.60
  27   5   0  -10.20   39.00
 -27   0  -1    7.60   10.10
  27   0   1    2.70   41.00
  27   0   1   12.20   16.70
 -27   0  -1   -7.00    7.70
 -27   0   1   -6.50    4.90
 -27   0   1    7.20    9.20
  27   0  -1   -4.60   39.40
 -27   0   1    3.70    7.80
  27   0  -1  -17.70   17.00
 -27   0  -1    0.40    4.50
 -27   2   1  353.96   30.20
 -27  -2  -1  349.47   31.30
 -27   2   1  385.56   32.20
 -27  -2  -1  404.66   33.80
  27  -2   1  378.16   44.40
  27   2  -1  374.96   35.10
 -27   2   1  314.27   30.50
  27   2   1  386.06   34.50
 -27   2  -1  410.96   32.80
 -27  -2   1  349.87   31.30
 -27   2  -1  319.47   30.40
  27  -2  -1  412.26   43.40
 -27   2  -1  336.87   29.80
 -27  -2   1  423.96   34.00
  27   4  -1  -10.80   36.70
  27  -4   1    1.70   33.70
 -27   4   1   -1.30    7.30
 -27   4   1    6.40    6.40
 -27  -4  -1    8.20    9.60
  27   4   1    8.80   38.00
 -27   4  -1   -2.30    7.50
 -27   4  -1    9.80    5.70
 -27  -4   1  -16.00    9.40
 -27   1   2  230.98   23.40
 -27   1   2  265.17   25.90
  27   1  -2  296.27   31.40
 -27  -1  -2  316.17   27.40
  27  -1   2  330.97   38.20
 -27  -1  -2  257.97   24.20
 -27   1   2  272.07   23.20
  27  -1  -2  323.67   36.60
 -27  -1   2  251.47   26.30
 -27  -1   2  244.98   24.00
  27   1   2  288.57   30.00
 -27   1  -2  305.77   26.00
 -27   1  -2  236.58   23.70
 -27   1  -2  264.97   22.30
 -27   3   2  131.29   15.20
 -27  -3  -2  199.18   20.80
 -27  -3  -2  149.88   16.90
  27  -3   2   55.69   39.60
  27   3  -2   57.79   40.30
  27  -3  -2  142.39   25.60
 -27  -3   2  154.48   16.40
  27   3   2  202.88   24.80
 -27   3  -2  150.68   13.70
 -27   3  -2  133.99   15.00
  27   3   2   70.29   42.50
  27  -3  -2   71.69   41.40
 -27  -5  -2   33.80   10.60
 -27   5   2   15.80    8.60
  27   5  -2   39.70   38.50
 -27   5  -2   40.00    6.00
  27   5   2   -7.40   39.20
 -27  -5   2   33.70   10.40
 -27   0   3  168.08   19.30
 -27   0   3  139.19   15.10
 -27   0  -3  182.08   20.30
 -27   0  -3  135.29   16.90
  27   0   3  147.29   22.20
 -27   0   3  160.08   16.30
 -27   0  -3  152.28   13.80
  27   0  -3  214.28   29.00
  27  -2   3   -4.20   36.20
 -27   2   3   23.40    7.70
 -27  -2  -3   14.80    9.20
  27   2  -3   51.39   38.70
 -27   2   3   23.40    9.50
 -27  -2  -3   26.50   11.80
  27  -2  -3   10.30   20.70
 -27   2  -3   20.20    7.70
  27   2   3   28.90   40.70
 -27  -2   3   19.90   11.00
 -27  -2   3   16.00    9.00
 -27   2  -3   25.20    5.10
  27   2   3   29.90   12.80
  27  -2  -3  -10.90   36.50
 -27   4   3   32.40    8.30
 -27  -4  -3   54.39   11.00
  27  -4   3   23.60   34.60
  27   4  -3   31.30   42.80
 -27  -4   3   56.19   11.20
  27   4   3   -9.00   39.10
 -27   1   4   53.19    9.60
  27  -1   4    3.50   38.40
 -27  -1  -4   59.09   11.90
 -27   1   4   49.30    8.30
  27   1  -4   33.40   39.80
 -27  -1  -4   64.19    9.70
 -27  -1  -4   34.80    5.00
 -27  -1   4   46.10   11.10
  27   1   4   46.50   14.90
 -27   1  -4   48.90    9.30
 -27   1  -4   35.90    5.70
  27   1   4   10.00   39.10
  27  -1  -4   19.50   40.60
 -27  -1   4   30.50    9.00
  27  -1  -4   53.49   18.90
 -27  -3  -4    8.40    9.00
  27  -3   4   11.10   36.50
  27   3  -4    0.50   39.80
 -27   3   4   -3.40    7.20
 -27  -3  -4    6.80    9.80
  27   3   4   18.40   12.60
  27   3   4   17.80   38.10
 -27  -3   4   12.80    9.00
  27  -3  -4    5.60    8.80
 -27   3  -4    4.80    4.80
 -27   5   4    4.40    8.20
  27   5  -4  -12.80   41.10
 -27  -5  -4   11.30   10.00
  27  -5   4   -5.40   31.80
 -27   5  -4    4.80    5.00
 -27  -5   4    6.80    9.30
  27   5   4   10.20   40.90
  27  -5  -4   -3.60    9.60
 -27   0  -5  297.57   28.70
 -27   0   5  317.67   28.00
 -27   0  -5  357.56   26.40
 -27  -2  -5   19.10    8.90
 -27   2   5   19.90    7.60
  27   2  -5   -9.60   37.70
  27  -2   5   -8.10   36.80
  27  -2  -5   19.90    8.90
  27   2   5   17.00   40.80
 -27  -2   5   12.10    8.50
 -27   2  -5   11.10    4.60
 -27  -4  -5  272.07   26.30
 -27   4   5  248.88   24.40
 -27  -4   5  259.77   25.20
 -27   4  -5  279.17   22.60
  27  -4  -5  313.37   25.90
 -27   1   6  137.69   17.00
 -27  -1  -6  151.28   18.40
  27   1  -6  105.39   42.50
 -27  -1  -6  202.38   14.40
  27  -1  -6   87.79   43.50
 -27   1  -6  193.98   14.80
  27  -1  -6  165.88   19.20
 -27  -1   6  159.18   17.50
  27   3  -6   27.20   43.50
  27  -3   6   15.00   35.40
 -27  -3  -6   36.50   10.60
 -27   3   6   29.80    8.00
 -27   3  -6   39.00    5.50
  27  -3  -6   51.29    9.30
  27   3   6   25.10   39.30
 -27  -3   6   54.79   10.30
 -27  -5  -6   14.80   10.10
 -27  -5   6   30.60   10.10
  27   0  -7  129.69   43.80
 -27   0   7  169.48   18.30
 -27   0  -7  207.28   15.70
 -27  -2  -7   -1.70    9.70
  27  -2   7   24.40   38.40
  27   2  -7   11.60   41.40
 -27   2   7   -1.80    7.40
  27  -2  -7   13.30    8.90
 -27   2  -7    9.40    4.20
 -27  -2   7    1.30    8.40
  27   2   7   26.90   36.80
  27  -4   7  -11.20   34.30
 -27   4   7   38.80    8.60
 -27  -4  -7   41.10   10.50
  27   4  -7   26.90   43.60
  27   4   7   37.30   40.60
  27  -4  -7   37.80    9.60
 -27  -4   7   65.89   10.20
 -27   4  -7   41.00    5.60
 -27  -1  -8  100.79    8.90
  27  -1   8   25.60   36.50
 -27   1   8   81.89   10.20
  27   1  -8   48.00   41.00
 -27  -1   8  112.99   11.10
  27  -1  -8   69.59   11.40
 -27   1  -8   97.29    9.00
  27   1   8   34.60   37.00
 -27   3   8   43.60    8.60
  27   3  -8   43.90   44.90
  27  -3   8   39.90   35.00
  27   3   8   -5.60   37.30
 -27   3  -8   70.69    7.60
  27  -3  -8   65.69   10.00
 -27  -3   8   50.99   10.30
 -27   0  -9    3.60    3.50
  27   0   9   -0.30   34.60
 -27   0   9    2.30    7.10
  27   2  -9  131.39   48.00
 -27   2   9  173.08   18.00
  27  -2  -9  180.28   20.30
 -27   2  -9  211.98   15.80
 -27  -2   9  173.98   19.00
 -27  -1 -10    2.10    3.70
  27  -1  10   -1.60   35.80
 -27   1  10   -7.90    7.20
 -27   1 -10    5.60    3.50
 -27  -1  10   -3.30    7.50
  27   1  10  -24.80   34.70
 -27   0 -11    4.10    3.60
 -27   0  11    3.50    6.90
  27   0  11  -28.30   34.00
 -28   0   0   46.70    9.40
  28   0   0   -3.40   40.50
 -28   0   0   49.30    6.10
 -28   0   0   50.69   10.90
  28   0   0   61.59   18.10
 -28   2   0   14.40    5.60
  28  -2   0  -12.20   35.20
  28  -2   0    5.50   21.30
 -28  -2   0   12.60   11.70
 -28   2   0   14.30    9.80
 -28  -2   0    4.80    8.80
  28   2   0   35.20   42.20
 -28   2   0   -3.80    7.20
 -28  -4   0   25.40   10.10
  28   4   0    5.80   39.00
 -28   4   0   33.60    6.60
 -28   4   0   25.40    7.90
 -28   1   1   14.30    5.70
  28   1  -1   -7.20   41.10
  28  -1   1   14.50   38.40
  28  -1   1    3.60   20.40
 -28   1   1   11.90    7.70
  28   1  -1   33.10   16.40
 -28  -1  -1   14.40    8.60
 -28   1   1   10.40   10.00
 -28  -1  -1   15.50   11.20
 -28   1  -1   14.20    7.70
  28   1   1   24.30   15.10
  28  -1  -1   20.80   37.40
 -28  -1   1   26.20    8.70
  28   1   1   -1.20   39.70
 -28   1  -1   12.90    5.30
  28  -1  -1   35.00   19.70
 -28  -1   1    7.20   10.30
 -28   1  -1   29.50    9.30
  28  -3   1  -34.00   36.70
 -28  -3  -1    8.10    9.70
 -28   3   1    4.20    7.50
 -28   3   1   16.40    6.30
 -28   3   1    2.70    9.50
  28   3  -1   11.10   39.60
 -28  -3   1   18.60    9.40
  28  -3  -1  -15.60   36.60
  28   3   1   20.50   42.20
 -28   3  -1    5.80    5.20
  28  -3  -1  -15.00   22.10
 -28   3  -1    3.90    7.50
 -28  -5  -1   13.70   10.60
 -28   5   1    7.70    6.30
  28   5  -1    2.90   38.00
 -28   5   1    0.40    7.50
 -28  -5   1    7.80   10.40
  28   5   1  -13.20   39.40
 -28   5  -1    0.60    5.60
 -28   0  -2   11.50    4.60
  28   0  -2   25.00   39.40
 -28   0   2    4.50    7.90
  28   0  -2   22.00   18.40
  28   0   2   22.90   38.90
  28   0   2   24.80   17.70
 -28   0  -2   12.90    8.80
 -28   0   2    9.00    6.40
 -28   0   2   19.70    9.50
 -28   0  -2   14.10   10.30
 -28   2   2    1.40    8.60
 -28  -2  -2   14.00    9.60
 -28   2   2   -9.00    7.20
 -28   2   2    2.80    6.20
 -28  -2  -2    2.40   11.40
  28   2  -2  -34.20   40.20
  28  -2   2  -19.60   35.60
  28  -2  -2   15.00   20.50
  28  -2  -2   -7.60   35.60
  28   2   2    6.50   38.80
 -28  -2   2  -14.80    9.00
 -28   2  -2   -1.30    4.90
 -28   2  -2    7.70    7.70
  28   2   2   -4.30   12.90
  28   4  -2   24.00   39.20
 -28   4   2    9.20    7.30
 -28  -4  -2    5.20    9.50
  28  -4   2    4.90   34.30
 -28  -4   2   15.50   10.10
  28   4   2    5.50   38.20
 -28   4  -2    1.90    5.20
 -28  -1  -3   14.90   10.80
 -28  -1  -3   19.10    9.10
 -28   1   3   10.10    6.60
 -28   1   3   25.00    7.90
 -28   1   3   21.40    9.70
  28   1  -3   22.00   40.70
  28  -1   3    8.50   37.40
 -28   1  -3   16.80    4.80
 -28   1  -3   26.90    8.70
 -28  -1   3    8.70   10.40
 -28  -1   3   22.90    8.30
  28   1   3   21.20   15.70
  28   1   3   32.70   41.70
  28  -1  -3    1.10   39.80
 -28  -3  -3   11.70    9.40
  28   3  -3   27.20   38.20
 -28  -3  -3    4.10   12.20
 -28   3   3   10.90    7.30
  28  -3   3   -4.20   37.50
 -28   3  -3    4.70    4.90
  28   3   3   -5.20   39.30
 -28  -3   3    5.70    8.60
 -28   5   3   -6.40    7.60
  28   5  -3    2.40   42.40
 -28  -5  -3    0.60   10.20
  28   5   3  -20.50   35.10
 -28   5  -3   15.50    5.00
 -28  -5   3   -6.50    9.60
 -28   0  -4   -3.70    8.50
 -28   0  -4    5.40    4.10
 -28   0   4   -0.90    7.90
  28   0  -4   21.30   41.30
  28   0   4  -21.10   37.30
 -28  -2  -4   12.40    8.90
 -28   2   4   16.30    7.50
  28  -2   4  -31.90   36.50
 -28  -2  -4   23.90   12.70
  28   2  -4  -41.20   39.00
 -28   2  -4   15.20    4.60
  28   2   4   -5.30   40.80
 -28  -2   4   16.80    9.40
 -28   4   4   14.10    7.60
 -28  -4  -4    8.00   10.00
  28   4  -4   10.30   42.10
  28  -4   4   -7.00   34.90
  28  -4  -4    2.00    9.50
  28   4   4   -5.40   38.40
 -28   4  -4   10.00    5.00
 -28  -4   4   17.10   10.50
  28  -1   5   38.90   39.70
  28   1  -5   28.10   39.40
 -28   1   5   -6.50    7.30
 -28  -1  -5    8.90    8.60
 -28  -1   5    5.00    7.90
 -28   1  -5    0.30    4.10
  28  -1  -5  -22.70   40.60
  28   1   5  -13.10   37.50
  28  -3   5  -28.70   37.30
 -28  -3  -5   -5.30    9.60
 -28   3   5   -9.30    7.10
  28   3  -5    0.60   40.80
 -28  -3   5    7.30    9.00
 -28   3  -5    1.50    4.30
  28   3   5   10.60   40.10
  28  -3  -5  -15.80    8.70
  28   0   6   15.50   36.90
  28   0  -6   19.30   41.50
 -28   0   6    8.40    8.00
 -28   0  -6    7.50    4.00
  28  -2   6   29.20   38.10
 -28   2   6   10.90    7.70
  28   2  -6   10.00   40.40
 -28  -2  -6   15.80    9.60
  28  -2  -6   11.80    8.80
 -28  -2   6   -1.50    8.10
  28   2   6    8.30   36.80
 -28   2  -6   11.70    4.10
  28  -4   6    2.20   35.80
 -28   4   6   -2.30    7.70
 -28  -4  -6   -1.10    9.50
  28   4  -6   19.90   43.60
 -28   4  -6    1.60    4.20
  28   4   6    0.80   40.20
 -28  -4   6    0.80    8.70
  28  -4  -6   -5.10    9.10
  28   1  -7    7.90   38.60
 -28   1   7   24.90    7.80
  28  -1   7   34.80   36.00
 -28  -1   7   28.70    8.80
 -28   1  -7   26.20    4.30
  28   1   7   39.20   37.30
  28  -1  -7   25.60    9.30
  28  -3   7   22.70   36.60
  28   3  -7   28.70   43.70
 -28  -3  -7   17.60   10.00
 -28   3   7    8.30    7.50
  28   3   7    0.70   36.80
 -28  -3   7   11.50    9.40
  28  -3  -7    9.40    8.90
 -28   3  -7   19.50    4.40
  28   0   8    4.10   34.80
 -28   0   8   -3.10    7.30
 -28   0  -8   -0.40    3.70
  28   2  -8   12.30   42.10
 -28   2   8    3.80    7.50
  28  -2   8    8.70   37.70
  28  -2  -8  -23.30    9.00
 -28   2  -8    8.10    4.00
  28   2   8   -3.10   35.00
 -28  -2   8    7.60    8.90
  28  -1   9   -1.30   36.40
 -28   1   9    2.40    7.00
  28   1   9   16.50   36.40
 -28  -1   9    1.50    8.20
 -28   1  -9    5.90    3.80
 -28   0  10    6.80    6.80
 -28   0 -10    9.20    3.90
  28   0  10   20.30   33.30
 -29   1   0   -1.90    9.60
  29   1   0   10.40   39.90
 -29  -1   0   -5.80    9.20
 -29   1   0   -0.70    7.70
 -29   1   0    5.00    5.40
  29  -1   0    9.20   19.80
  29  -1   0   -2.30   38.40
 -29  -1   0    8.80   11.20
 -29  -3   0   -0.10    9.90
  29  -3   0    5.00   37.30
 -29   3   0   -9.60    5.70
 -29   3   0   -1.50    7.40
  29   3   0  -16.90   41.10
  29   0  -1   12.80   20.60
 -29   0  -1   -2.00    8.70
  29   0   1   -2.40   40.40
  29   0  -1   28.10   41.90
 -29   0   1   -3.70    8.10
 -29   0   1    0.70    9.90
 -29   0  -1   14.50   10.30
  29   0   1   -2.90   18.30
  29   2  -1   50.39   41.90
 -29   2   1  111.29   12.20
 -29  -2  -1   83.89   18.60
 -29  -2  -1  100.69   12.50
 -29   2   1  130.99   17.00
 -29   2   1   97.69   12.80
  29  -2   1   45.50   38.20
 -29  -2   1  114.19   12.30
 -29   2  -1  115.49   11.30
 -29   2  -1   82.79   11.20
  29   2   1   67.19   42.80
  29  -2  -1   65.59   23.60
  29  -2  -1   45.00   37.50
 -29   4   1   -0.60    7.40
  29   4  -1   32.10   39.20
 -29   4   1   -8.70    6.20
 -29  -4  -1   -1.20    9.90
 -29  -4   1   -0.20    9.60
 -29   4  -1    4.90    5.30
  29   4   1   -6.00   36.00
 -29   4  -1   -6.20   10.10
 -29   1   2  126.19   14.70
 -29  -1  -2  181.68   19.50
 -29   1   2  163.48   18.10
  29   1  -2   61.79   44.60
 -29  -1  -2  142.19   15.90
 -29   1   2  145.19   13.90
 -29   1  -2  134.09   12.50
  29   1   2  115.39   19.80
 -29  -1   2  131.29   15.40
  29   1   2   35.80   43.50
  29  -1  -2   46.50   39.60
 -29   1  -2  108.89   15.20
  29   3  -2   22.70   42.00
  29  -3   2   48.10   39.70
 -29   3   2   35.70    8.90
 -29  -3  -2   55.29   10.70
 -29   3   2   62.99    8.20
 -29  -3   2   95.49   11.30
  29   3   2   36.30   40.80
 -29   3  -2   64.59   10.20
 -29   3  -2   58.99    7.00
 -29   0  -3   75.89   10.30
  29   0  -3   21.40   41.30
 -29   0   3   62.69   10.20
 -29   0  -3   66.79    7.20
  29   0   3   37.00   40.80
  29  -2   3   28.10   37.40
  29   2  -3    7.80   40.40
 -29   2   3    9.60    7.50
 -29  -2  -3   13.00    9.00
 -29  -2  -3   15.40   11.30
 -29   2   3   23.20    6.90
 -29   2  -3   15.90    5.00
 -29   2  -3   12.40    8.60
 -29  -2   3   11.80    9.10
  29  -2  -3  -10.50   59.49
  29   2   3   30.40   40.60
 -29  -4  -3   19.40   10.10
  29  -4   3    7.40   35.10
  29   4  -3   19.70   39.10
 -29   4   3   24.60    7.80
 -29   4  -3   36.50    5.90
  29   4   3   26.80   40.60
 -29  -4   3   36.90   11.20
  29  -1   4   29.10   38.40
  29   1  -4   37.00   41.80
 -29   1   4   34.50    8.30
 -29  -1  -4   30.30    9.70
  29  -1  -4   18.40   41.40
  29   1   4    7.00   37.80
 -29  -1   4   38.20    9.50
 -29   1  -4   41.20    5.30
 -29   1  -4   42.20    9.40
  29  -3   4   14.10   38.30
 -29   3   4    4.30    7.60
  29   3  -4    1.30   38.60
 -29  -3  -4   -3.80    9.50
  29   3   4   -0.50   39.40
 -29   3  -4    1.80    4.70
 -29  -3   4   11.60    9.30
  29   0   5   45.60   39.40
  29   0  -5   69.69   43.70
 -29   0  -5   88.29   14.80
  29   2  -5   -3.60   39.40
  29  -2   5  -13.20   38.10
 -29  -2  -5    3.10    9.20
 -29   2   5    6.30    7.30
  29   2   5   -6.40   39.30
 -29   2  -5    5.40    4.50
 -29  -2   5    3.30    8.40
  29  -4   5   37.30   37.30
 -29  -4  -5  101.49   13.80
 -29   4   5  111.49   13.70
  29   4  -5   71.59   45.50
  29  -4  -5  180.88   17.50
  29   4   5   54.89   40.50
 -29  -4   5  117.99   13.00
 -29   1   6   42.00    8.00
  29  -1   6   24.30   36.70
  29   1  -6   45.60   41.50
 -29  -1   6   21.50    8.80
  29   1   6   17.60   36.00
 -29   1  -6   43.00    5.00
  29  -1  -6   22.70   14.30
 -29  -3  -6   -6.30   10.20
  29  -3   6   -9.30   36.80
  29   3  -6   -1.10   41.90
 -29   3   6    1.20    7.10
 -29  -3   6   -7.60    8.90
 -29   3  -6    5.80    4.40
  29  -3  -6   13.20    9.30
  29   3   6   14.90   37.40
 -29   0  -7  114.79   10.50
 -29   0   7  103.09   13.90
  29  -2   7    2.70   38.50
 -29   2   7    0.40    7.80
  29   2  -7    9.60   40.00
  29  -2  -7   -7.80    9.10
 -29   2  -7    5.80    4.10
 -29  -2   7   17.90    8.40
  29   2   7    6.70   36.80
  29   1  -8   18.50   40.80
 -29   1   8   47.70    7.90
  29  -1   8   20.90   37.90
  29   1   8   33.70   36.30
 -29   1  -8   31.30    4.80
 -29  -1   8   38.50    8.30
 -29   0  -9    1.10    3.90
 -29   0   9    0.50    7.60
  29   0   9   16.20   34.30
  30   0   0  -15.00   40.80
 -30   0   0   20.70   10.60
 -30   0   0   17.00    8.40
  30   2   0   -3.70   41.90
 -30  -2   0   -4.60    8.60
 -30   2   0   -5.50    7.60
  30  -2   0   -3.80   36.80
 -30   2   0   -0.10    5.60
 -30   4   0    7.90    5.90
 -30   4   0    8.50    8.00
 -30  -4   0   14.00   10.10
  30   4   0   17.40   40.10
 -30   1   1   21.90   12.00
 -30   1   1   33.80    8.40
 -30  -1  -1   18.10    9.00
  30  -1   1   12.30   38.00
 -30  -1  -1   31.30   12.40
  30   1  -1   45.00   41.90
 -30   1   1   34.60    7.20
  30  -1  -1   19.60   38.90
 -30   1  -1   22.80    8.50
 -30  -1   1   18.30    9.30
  30   1   1  -10.50   41.20
 -30   1  -1   26.70    5.40
  30  -3   1  -48.90   38.20
  30   3  -1   13.90   41.30
 -30   3   1   17.60    6.50
 -30  -3  -1    5.40    9.90
 -30   3   1   -0.40    7.50
 -30  -3   1    2.70    9.90
 -30   3  -1   18.30    5.50
 -30   3  -1   19.50    7.70
  30   3   1    3.30   40.40
 -30   0   2   27.10    8.80
  30   0   2   11.70   39.00
 -30   0  -2   22.60    9.00
  30   0  -2   12.10   41.80
 -30   2   2   -6.30    6.20
  30  -2   2  -13.30   36.70
  30   2  -2    6.80   42.60
 -30  -2  -2    5.20    9.80
 -30   2   2    3.30    7.60
 -30   2  -2    3.40    7.90
  30   2   2   23.40   41.00
  30  -2  -2   16.60   40.20
 -30   2  -2   -1.20    5.00
 -30  -2   2    2.50    9.60
 -30  -4  -2   11.50   10.10
 -30   4   2   -6.80    7.30
 -30   4   2   10.30    6.60
  30   4  -2   18.00   40.80
 -30   4  -2   -8.50    5.50
 -30  -4   2    4.50    9.70
  30   4   2   -0.60   39.90
  30   1  -3    5.80   42.10
 -30   1   3   37.50    8.40
 -30  -1  -3   33.40   10.10
  30  -1   3   12.80   36.40
 -30  -1   3   25.80    8.80
 -30   1  -3   25.00    5.30
 -30   1  -3   26.40    9.20
  30  -1  -3   17.00   38.40
  30   1   3   23.00   40.20
  30  -3   3   29.90   39.10
 -30   3   3   42.30    7.40
  30   3  -3   27.70   41.10
 -30   3   3   11.70    8.20
 -30  -3  -3   22.30    9.80
 -30   3  -3   27.30    5.50
  30   3   3   38.70   40.70
 -30  -3   3   38.40   10.10
  30   0   4   -4.30   36.90
 -30   0   4    8.80    8.40
  30   0  -4    7.50   41.10
 -30   0  -4    7.40    9.40
  30   2  -4   42.80   42.00
 -30  -2  -4   44.30   10.00
 -30   2   4   43.50    8.60
  30  -2   4   18.70   38.50
  30   2   4   -6.30   40.00
 -30   2  -4   27.40    5.40
 -30  -2   4   45.00   10.10
 -30   1   5   -0.40    7.10
  30  -1   5  -14.10   37.20
  30   1  -5   -1.50   41.90
 -30  -1  -5   -6.50    9.70
 -30   1  -5    2.10    4.50
  30   1   5    8.60   37.20
 -30  -1   5    1.10    8.70
 -30   3   5  -10.00    7.60
  30  -3   5  -19.80   37.40
 -30  -3  -5    1.80   10.10
  30   3  -5  -30.90   39.70
  30   3   5  -13.90   38.70
 -30   3  -5    4.50    4.40
 -30  -3   5    6.20    9.30
  30   0  -6  -29.20   62.99
 -30   0   6   16.30    7.70
  30   0   6   -8.90   36.80
  30   2  -6   45.30   42.00
 -30   2   6   38.30    8.30
  30  -2   6   14.70   39.40
 -30   2  -6   47.70    5.30
  30   2   6    7.40   37.60
 -30  -2   6   22.10    9.10
  30   1  -7   41.90   42.90
 -30   1   7   26.50    8.20
  30  -1   7    6.40   36.30
  30   1   7    2.60   36.90
 -30  -1   7    7.20    8.30
 -30   1  -7   17.40    4.10
  30   0   8   14.00   34.60
 -30   0   8   13.20    7.30
  31   1   0  -34.60   42.50
 -31  -1   0   -3.60    9.20
  31  -1   0  -23.50   38.70
 -31   1   0   -2.70    8.00
 -31  -3   0   14.00    9.80
  31   3   0   28.80   43.70
 -31   3   0   -5.70    5.70
 -31   3   0    5.20    7.70
 -31   0  -1  -11.50    8.80
  31   0  -1   -3.90   41.00
  31   0   1   11.40   39.70
 -31   0   1    3.50    8.40
  31  -2   1   34.90   38.50
  31   2  -1   31.00   44.90
 -31   2   1  114.99   13.80
 -31  -2  -1  135.09   14.10
 -31   2   1  119.69   12.60
 -31   2  -1  115.29   14.20
 -31   2  -1  122.89   12.10
 -31  -2   1  114.09   13.40
  31   2   1   72.09   42.40
  31   1  -2    5.40   40.80
  31  -1   2   -5.50   36.40
 -31   1   2   16.70    8.20
 -31  -1  -2   13.80    9.40
 -31  -1   2   15.50    9.00
 -31   1  -2    9.50    9.00
  31  -1  -2    3.30   39.00
  31   1   2   33.50   41.80
 -31   3   2    5.20    6.40
  31  -3   2  -23.30   39.20
 -31  -3  -2    8.70    9.60
 -31   3   2    0.60    7.40
  31   3  -2  -20.70   41.50
 -31  -3   2  -11.40    9.40
  31   3   2   15.50   40.70
 -31   3  -2    0.20    5.00
 -31   0  -3   29.00    9.20
  31   0  -3    3.90   42.30
 -31   0   3   30.80    8.30
  31   0   3   14.70   40.80
 -31  -2  -3   -8.20    9.30
 -31   2   3   -5.50    7.60
 -31   2   3    7.60    7.30
  31  -2   3  -13.60   37.90
  31   2  -3   33.00   41.50
  31   2   3  -13.20   41.20
 -31   2  -3    6.50    4.90
 -31  -2   3   -2.30    9.10
 -31   1   4   24.10    7.90
  31  -1   4   -3.00   39.80
 -31  -1  -4    9.10    9.10
  31   1  -4  -24.00   42.10
  31   1   4  -16.10   37.80
 -31   1  -4   10.60    5.50
 -31  -1   4   15.50    8.50
  31   0  -5   25.10   42.40
 -31   0   5   29.50    9.00
  31   0   5    7.90   36.80
 -31  -2  -5   -6.80   11.60
  31  -2   5  -16.90   36.90
  31   2  -5   -3.90   42.10
 -31   2   5    4.10    7.50
  31   2   5   -1.50   37.70
 -31  -2   5    6.10    8.80
 -31   2  -5   -3.20    4.20
  31  -1   6    1.70   39.60
  31   1  -6   35.80   43.80
 -31   1   6   12.30    7.80
 -31   1  -6   10.40    5.40
 -31  -1   6    6.90    8.70
  31   1   6   25.40   37.00
 -32   0   0  338.27   29.70
 -32  -2   0   56.59   11.20
 -32   2   0   85.39   10.40
  32   2   0   24.20   42.20
 -32   2   0   67.19    9.70
  32  -2   0   -7.00   38.70
 -32  -1  -1   -0.70    8.70
  32   1  -1   27.20   42.50
  32  -1   1   21.00   37.70
 -32   1   1    5.30    8.00
 -32  -1   1   -3.20    9.20
  32  -1  -1    0.50   39.40
  32   1   1  -17.30   42.60
 -32   1  -1    8.20    8.50
 -32   0   2   31.30    8.80
 -32   0  -2   38.90    9.60
  32   0   2   15.10   40.60
  32   0  -2  -17.00   41.90
  32  -2   2    4.30   37.10
 -32   2   2   10.20    7.50
 -32  -2  -2   -2.10    9.70
  32   2  -2   19.60   43.70
  32   2   2   -6.30   42.30
 -32  -2   2    9.30    9.90
 -32   2  -2    0.50    5.10
  32   1  -3   -3.50   41.30
  32  -1   3   12.40   39.40
 -32  -1  -3   32.90   10.10
 -32   1   3   36.90    9.00
 -32  -1   3   50.39   10.50
  32   1   3   -1.40   39.20
  32   0   4   17.20   37.80
  32   0  -4   33.00   43.40
 -32   0   4    7.40    7.90
   0   0   0    0.00    0.00

_computing_structure_solution     'SHELXT 2014/5 (Sheldrick, 2014)'
;
_shelx_hkl_checksum              74462
loop_
_space_group_symop_operation_xyz
'x, y, z'
'-x, -y+1/2, z'
'-x, y+1/2, -z'
'x, -y, -z'
'x+1/2, y+1/2, z+1/2'
'-x+1/2, -y+1, z+1/2'
'-x+1/2, y+1, -z+1/2'
'x+1/2, -y+1/2, -z+1/2'
'-x, -y, -z'
'x, y-1/2, -z'
'x, -y-1/2, z'
'-x, y, z'
'-x+1/2, -y+1/2, -z+1/2'
'x+1/2, y, -z+1/2'
'x+1/2, -y, z+1/2'
'-x+1/2, y+1/2, z+1/2'
loop_
_atom_site_label
_atom_site_type_symbol
_atom_site_fract_x
_atom_site_fract_y
_atom_site_fract_z
_atom_site_U_iso_or_equiv
_atom_site_adp_type
_atom_site_occupancy
_atom_site_site_symmetry_order
_atom_site_calc_flag
_atom_site_refinement_flags_posn
_atom_site_refinement_flags_adp
_atom_site_refinement_flags_occupancy
Cu1 Cu 0.27843(4) 0.500000 0.000000 0.0331(3) Uani 1 2 d S T P
Br1 Br 0.22106(3) 0.250000 -0.10023(4) 0.0299(3) Uani 1 2 d S T P
N1 N 0.31017(18) 0.3487(6) 0.1136(3) 0.0319(8) Uani 1 1 d . . .
N2 N 0.3418(2) 0.250000 0.2609(4) 0.0314(11) Uani 1 2 d S T P
C1 C 0.3290(2) 0.4043(7) 0.2038(3) 0.0346(9) Uani 1 1 d . . .
H1 H 0.332946 0.533762 0.224981 0.041 Uiso 1 1 calc R U .
C2 C 0.3686(3) 0.250000 0.3620(4) 0.0325(12) Uani 1 2 d S T P
H2 H 0.355263 0.138750 0.398195 0.039 Uiso 0.5 1 d R U P
C4 C 0.4363(3) 0.250000 0.3581(4) 0.0274(11) Uani 1 2 d S T P
C5 C 0.4688(3) 0.250000 0.4516(4) 0.0256(10) Uani 1 2 d S T P
C6 C 0.4377(3) 0.250000 0.5453(4) 0.0289(11) Uani 1 2 d S T P
H6 H 0.395251 0.250000 0.545610 0.035 Uiso 1 2 calc R U P
C7 C 0.4685(3) 0.250000 0.6359(4) 0.0321(12) Uani 1 2 d S T P
H7 H 0.447197 0.250000 0.698017 0.039 Uiso 1 2 calc R U P
C8 C 0.4685(3) 0.250000 0.2698(4) 0.0313(12) Uani 1 2 d S T P
H8 H 0.447839 0.250000 0.207188 0.038 Uiso 1 2 calc R U P
loop_
_atom_site_aniso_label
_atom_site_aniso_U_11
_atom_site_aniso_U_22
_atom_site_aniso_U_33
_atom_site_aniso_U_23
_atom_site_aniso_U_13
_atom_site_aniso_U_12
Cu1 0.0456(5) 0.0326(5) 0.0211(4) 0.0027(3) 0.000 0.000
Br1 0.0354(4) 0.0341(4) 0.0203(4) 0.000 -0.00055(18) 0.000
N1 0.0380(19) 0.0330(19) 0.0248(15) 0.0010(13) -0.0025(14) 0.0027(16)
N2 0.033(3) 0.040(3) 0.021(2) 0.000 -0.0017(18) 0.000
C1 0.044(2) 0.034(2) 0.0255(19) -0.0036(16) -0.0058(16) 0.0008(18)
C2 0.033(3) 0.042(3) 0.022(2) 0.000 -0.003(2) 0.000
C4 0.033(3) 0.030(3) 0.019(2) 0.000 -0.004(2) 0.000
C5 0.040(3) 0.021(2) 0.0156(19) 0.000 -0.0009(19) 0.000
C6 0.032(3) 0.033(3) 0.021(2) 0.000 0.002(2) 0.000
C7 0.051(4) 0.028(3) 0.017(2) 0.000 0.004(2) 0.000
C8 0.037(3) 0.042(3) 0.0148(19) 0.000 -0.0018(19) 0.000
loop_
_atom_type_symbol
_atom_type_description
_atom_type_scat_dispersion_real
_atom_type_scat_dispersion_imag
_atom_type_scat_source
C C 0.0034 0.0017 'International Tables Vol C Tables 4.2.6.8 and 6.1.1.4'
H H 0.0000 0.0000 'International Tables Vol C Tables 4.2.6.8 and 6.1.1.4'
N N 0.0065 0.0035 'International Tables Vol C Tables 4.2.6.8 and 6.1.1.4'
Cu Cu 0.3203 1.3288 'International Tables Vol C Tables 4.2.6.8 and 6.1.1.4'
Br Br -0.4677 2.5495 'International Tables Vol C Tables 4.2.6.8 and 6.1.1.4'
loop_
_geom_angle_atom_site_label_1
_geom_angle_atom_site_label_2
_geom_angle_atom_site_label_3
_geom_angle
_geom_angle_site_symmetry_1
_geom_angle_site_symmetry_3
N1 Cu1 N1 137.7(2) 4_565 .
N1 Cu1 Br1 98.69(12) 4_565 .
N1 Cu1 Br1 102.31(12) . .
N1 Cu1 Br1 102.31(12) 4_565 10_565
N1 Cu1 Br1 98.69(12) . 10_565
Br1 Cu1 Br1 119.30(4) . 10_565
Cu1 Br1 Cu1 86.75(3) . 10
C1 N1 N1 107.0(3) . 11_565
C1 N1 Cu1 130.3(3) . .
N1 N1 Cu1 122.39(12) 11_565 .
C1 N2 C1 106.2(5) . 11_565
C1 N2 C2 126.8(3) . .
C1 N2 C2 126.8(3) 11_565 .
N1 C1 N2 109.9(4) . .
N1 C1 H1 125.1 . .
N2 C1 H1 125.1 . .
N2 C2 C4 112.2(5) . .
N2 C2 H2 109.1 . .
C4 C2 H2 109.2 . .
N2 C2 H2 109.09(17) . 11_565
C4 C2 H2 109.20(16) . 11_565
H2 C2 H2 107.9 . 11_565
C8 C4 C5 117.9(6) . .
C8 C4 C2 123.6(5) . .
C5 C4 C2 118.5(5) . .
C5 C5 C6 119.3(3) 2_655 .
C5 C5 C4 120.4(3) 2_655 .
C6 C5 C4 120.3(6) . .
C7 C6 C5 120.9(6) . .
C7 C6 H6 119.6 . .
C5 C6 H6 119.6 . .
C6 C7 C7 119.8(4) . 2_655
C6 C7 H7 120.1 . .
C7 C7 H7 120.1 2_655 .
C4 C8 C8 121.7(3) . 2_655
C4 C8 H8 119.2 . .
C8 C8 H8 119.2 2_655 .
loop_
_geom_bond_atom_site_label_1
_geom_bond_atom_site_label_2
_geom_bond_distance
_geom_bond_site_symmetry_2
Cu1 N1 1.970(4) 4_565
Cu1 N1 1.970(4) .
Cu1 Br1 2.5402(6) .
Cu1 Br1 2.5402(6) 10_565
N1 C1 1.324(5) .
N1 N1 1.378(8) 11_565
N2 C1 1.347(5) .
N2 C1 1.347(5) 11_565
N2 C2 1.468(8) .
C1 H1 0.9500 .
C2 C4 1.515(9) .
C2 H2 0.9599 .
C2 H2 0.9599 11_565
C4 C8 1.373(8) .
C4 C5 1.436(7) .
C5 C5 1.395(12) 2_655
C5 C6 1.423(7) .
C6 C7 1.384(8) .
C6 H6 0.9500 .
C7 C7 1.410(15) 2_655
C7 H7 0.9500 .
C8 C8 1.408(13) 2_655
C8 H8 0.9500 .
loop_
_geom_torsion_atom_site_label_1
_geom_torsion_atom_site_label_2
_geom_torsion_atom_site_label_3
_geom_torsion_atom_site_label_4
_geom_torsion
_geom_torsion_site_symmetry_1
_geom_torsion_site_symmetry_4
N1 N1 C1 N2 0.8(5) 11_565 .
Cu1 N1 C1 N2 174.3(4) . .
C1 N2 C1 N1 -1.2(7) 11_565 .
C2 N2 C1 N1 174.4(5) . .
C1 N2 C2 C4 -87.4(6) . .
C1 N2 C2 C4 87.4(6) 11_565 .
N2 C2 C4 C8 0.000(0) . .
N2 C2 C4 C5 180.000(1) . .
C8 C4 C5 C5 0.000(1) . 2_655
C2 C4 C5 C5 180.000(1) . 2_655
C8 C4 C5 C6 180.000(1) . .
C2 C4 C5 C6 0.000(1) . .
C5 C5 C6 C7 0.000(1) 2_655 .
C4 C5 C6 C7 180.000(1) . .
C5 C6 C7 C7 0.000(1) . 2_655
C5 C4 C8 C8 0.000(1) . 2_655
C2 C4 C8 C8 180.000(0) . 2_655
